MWN.pdb
     RDKit          3D

 31 32  0  0  1  0  0  0  0  0999 V2000
   13.8963  -23.0542    2.4161 C   0  0  0  0  0  0  0  0  0  0  0  0
   15.3604  -22.4272    3.2817 S   0  0  0  0  0  0  0  0  0  0  0  0
   15.3198  -20.6138    3.1861 C   0  0  0  0  0  0  0  0  0  0  0  0
   16.3881  -19.9918    4.0540 C   0  0  0  0  0  0  0  0  0  0  0  0
   16.2724  -18.4851    3.9139 C   0  0  2  0  0  0  0  0  0  0  0  0
   16.5007  -18.1461    2.5243 N   0  0  0  0  0  0  0  0  0  0  0  0
   17.2179  -17.7918    4.8342 C   0  0  0  0  0  0  0  0  0  0  0  0
   18.4366  -17.8984    4.5478 O   0  0  0  0  0  0  0  0  0  0  0  0
   16.8470  -17.0482    5.9673 N   0  0  0  0  0  0  0  0  0  0  0  0
   17.8974  -16.4138    6.8004 C   0  0  1  0  0  0  0  0  0  0  0  0
   17.3748  -15.0533    7.1142 C   0  0  0  0  0  0  0  0  0  0  0  0
   17.9566  -13.9582    6.3322 C   0  0  0  0  0  0  0  0  0  0  0  0
   17.4027  -13.3971    5.1923 C   0  0  0  0  0  0  0  0  0  0  0  0
   18.2223  -12.4332    4.7281 N   0  0  0  0  0  0  0  0  0  0  0  0
   19.3030  -12.3345    5.5213 C   0  0  0  0  0  0  0  0  0  0  0  0
   20.4088  -11.5015    5.4562 C   0  0  0  0  0  0  0  0  0  0  0  0
   21.3872  -11.6102    6.4123 C   0  0  0  0  0  0  0  0  0  0  0  0
   21.2385  -12.5597    7.4250 C   0  0  0  0  0  0  0  0  0  0  0  0
   20.1300  -13.3826    7.4757 C   0  0  0  0  0  0  0  0  0  0  0  0
   19.1426  -13.2723    6.5101 C   0  0  0  0  0  0  0  0  0  0  0  0
   18.2278  -17.2801    7.9168 C   0  0  0  0  0  0  0  0  0  0  0  0
   17.3149  -17.9338    8.4920 O   0  0  0  0  0  0  0  0  0  0  0  0
   22.4168  -17.8282    7.9916 N   0  0  0  0  0  0  0  0  0  0  0  0
   22.1321  -18.7728    9.0357 C   0  0  0  0  0  0  0  0  0  0  0  0
   23.0636  -19.0276    9.8310 O   0  0  0  0  0  0  0  0  0  0  0  0
   20.7931  -19.3495    9.0794 C   0  0  0  0  0  0  0  0  0  0  0  0
   19.7608  -18.3464    9.5863 C   0  0  2  0  0  0  0  0  0  0  0  0
   19.5382  -17.4534    8.4176 N   0  0  0  0  0  0  0  0  0  0  0  0
   20.4014  -17.5429   10.6384 C   0  0  0  0  0  0  0  0  0  0  0  0
   20.8590  -16.3929   10.4436 O   0  0  0  0  0  0  0  0  0  0  0  0
   20.5245  -18.0392   11.9165 O   0  0  0  0  0  0  0  0  0  0  0  0
  1  2  1  0
  3  2  1  0
  4  3  1  0
  5  4  1  0
  5  6  1  6
  7  5  1  0
  8  7  2  0
  9  7  1  0
 10  9  1  0
 10 11  1  1
 11 12  1  0
 12 20  1  0
 12 13  2  0
 13 14  1  0
 15 14  1  0
 15 16  2  0
 17 16  1  0
 18 17  2  0
 19 20  2  0
 19 18  1  0
 20 15  1  0
 21 28  1  0
 21 10  1  0
 22 21  2  0
 23 24  1  0
 24 25  2  0
 26 24  1  0
 27 26  1  6
 27 28  1  0
 29 31  1  0
 29 27  1  0
 30 29  2  0
M  END
$$$$
