MWN.pdb
     RDKit          3D

 31 32  0  0  1  0  0  0  0  0999 V2000
   24.5332  -22.4397  -19.8489 C   0  0  0  0  0  0  0  0  0  0  0  0
   24.0413  -20.6983  -19.9583 S   0  0  0  0  0  0  0  0  0  0  0  0
   25.3182  -19.7138  -19.1220 C   0  0  0  0  0  0  0  0  0  0  0  0
   25.8395  -20.4178  -17.8915 C   0  0  0  0  0  0  0  0  0  0  0  0
   25.1165  -19.8366  -16.6904 C   0  0  2  0  0  0  0  0  0  0  0  0
   25.3312  -18.4041  -16.6888 N   0  0  0  0  0  0  0  0  0  0  0  0
   25.5757  -20.4848  -15.4292 C   0  0  0  0  0  0  0  0  0  0  0  0
   25.5651  -21.7411  -15.4249 O   0  0  0  0  0  0  0  0  0  0  0  0
   26.0076  -19.8034  -14.2787 N   0  0  0  0  0  0  0  0  0  0  0  0
   26.1882  -20.5520  -13.0111 C   0  0  1  0  0  0  0  0  0  0  0  0
   27.0126  -19.6595  -12.1473 C   0  0  0  0  0  0  0  0  0  0  0  0
   27.7085  -20.3209  -11.0394 C   0  0  0  0  0  0  0  0  0  0  0  0
   28.7463  -21.2309  -11.1662 C   0  0  0  0  0  0  0  0  0  0  0  0
   29.1234  -21.6483   -9.9415 N   0  0  0  0  0  0  0  0  0  0  0  0
   28.3711  -21.0462   -9.0043 C   0  0  0  0  0  0  0  0  0  0  0  0
   28.3815  -21.1490   -7.6221 C   0  0  0  0  0  0  0  0  0  0  0  0
   27.4891  -20.4086   -6.8882 C   0  0  0  0  0  0  0  0  0  0  0  0
   26.5949  -19.5715   -7.5581 C   0  0  0  0  0  0  0  0  0  0  0  0
   26.5975  -19.4804   -8.9366 C   0  0  0  0  0  0  0  0  0  0  0  0
   27.4988  -20.2281   -9.6770 C   0  0  0  0  0  0  0  0  0  0  0  0
   24.8961  -20.9730  -12.5018 C   0  0  0  0  0  0  0  0  0  0  0  0
   24.8380  -21.7268  -11.4918 O   0  0  0  0  0  0  0  0  0  0  0  0
   20.6686  -21.0853  -10.3729 N   0  0  0  0  0  0  0  0  0  0  0  0
   20.7091  -19.8423  -11.0919 C   0  0  0  0  0  0  0  0  0  0  0  0
   19.9669  -18.9269  -10.6720 O   0  0  0  0  0  0  0  0  0  0  0  0
   21.6043  -19.7540  -12.2401 C   0  0  0  0  0  0  0  0  0  0  0  0
   22.3930  -21.0444  -12.4437 C   0  0  2  0  0  0  0  0  0  0  0  0
   23.6615  -20.5835  -13.0692 N   0  0  0  0  0  0  0  0  0  0  0  0
   21.6764  -21.8499  -13.4440 C   0  0  0  0  0  0  0  0  0  0  0  0
   21.9574  -21.8404  -14.6650 O   0  0  0  0  0  0  0  0  0  0  0  0
   20.6389  -22.6710  -13.0639 O   0  0  0  0  0  0  0  0  0  0  0  0
  1  2  1  0
  3  2  1  0
  4  3  1  0
  5  4  1  0
  5  6  1  1
  7  5  1  0
  8  7  2  0
  9  7  1  0
 10  9  1  0
 10 11  1  1
 11 12  1  0
 12 20  1  0
 12 13  2  0
 13 14  1  0
 15 14  1  0
 15 16  2  0
 17 16  1  0
 18 17  2  0
 19 20  2  0
 19 18  1  0
 20 15  1  0
 21 28  1  0
 21 10  1  0
 22 21  2  0
 23 24  1  0
 24 25  2  0
 26 24  1  0
 27 26  1  6
 27 28  1  0
 29 31  1  0
 29 27  1  0
 30 29  2  0
M  END
$$$$
