MWN.pdb
     RDKit          3D

 31 32  0  0  1  0  0  0  0  0999 V2000
   26.0408  -23.5649  -20.6921 C   0  0  0  0  0  0  0  0  0  0  0  0
   27.8193  -23.2170  -20.6489 S   0  0  0  0  0  0  0  0  0  0  0  0
   28.0463  -21.6222  -19.8097 C   0  0  0  0  0  0  0  0  0  0  0  0
   27.8641  -21.7541  -18.3162 C   0  0  0  0  0  0  0  0  0  0  0  0
   26.3726  -21.7676  -18.0360 C   0  0  2  0  0  0  0  0  0  0  0  0
   25.7968  -20.5737  -18.6200 N   0  0  0  0  0  0  0  0  0  0  0  0
   26.1078  -21.8732  -16.5730 C   0  0  0  0  0  0  0  0  0  0  0  0
   26.5868  -22.8848  -16.0023 O   0  0  0  0  0  0  0  0  0  0  0  0
   25.3798  -20.9428  -15.8123 N   0  0  0  0  0  0  0  0  0  0  0  0
   25.1960  -21.1724  -14.3585 C   0  0  1  0  0  0  0  0  0  0  0  0
   26.0172  -20.1214  -13.6927 C   0  0  0  0  0  0  0  0  0  0  0  0
   26.5767  -20.4900  -12.3887 C   0  0  0  0  0  0  0  0  0  0  0  0
   27.8471  -20.9993  -12.1700 C   0  0  0  0  0  0  0  0  0  0  0  0
   28.0076  -21.2434  -10.8543 N   0  0  0  0  0  0  0  0  0  0  0  0
   26.8862  -20.9134  -10.1906 C   0  0  0  0  0  0  0  0  0  0  0  0
   26.5709  -20.9821   -8.8427 C   0  0  0  0  0  0  0  0  0  0  0  0
   25.3302  -20.5727   -8.4229 C   0  0  0  0  0  0  0  0  0  0  0  0
   24.4203  -20.0977   -9.3692 C   0  0  0  0  0  0  0  0  0  0  0  0
   24.7503  -20.0356  -10.7093 C   0  0  0  0  0  0  0  0  0  0  0  0
   26.0031  -20.4490  -11.1325 C   0  0  0  0  0  0  0  0  0  0  0  0
   23.7799  -21.2173  -14.0442 C   0  0  0  0  0  0  0  0  0  0  0  0
   23.0543  -20.2135  -14.2845 O   0  0  0  0  0  0  0  0  0  0  0  0
   19.8381  -22.3849  -10.3099 N   0  0  0  0  0  0  0  0  0  0  0  0
   20.1686  -21.5383  -11.4223 C   0  0  0  0  0  0  0  0  0  0  0  0
   19.2411  -20.8435  -11.8936 O   0  0  0  0  0  0  0  0  0  0  0  0
   21.5454  -21.5605  -11.9036 C   0  0  0  0  0  0  0  0  0  0  0  0
   21.6676  -22.2940  -13.2362 C   0  0  2  0  0  0  0  0  0  0  0  0
   23.1348  -22.3396  -13.4766 N   0  0  0  0  0  0  0  0  0  0  0  0
   21.0783  -21.4331  -14.2728 C   0  0  0  0  0  0  0  0  0  0  0  0
   20.2678  -21.8482  -15.1333 O   0  0  0  0  0  0  0  0  0  0  0  0
   21.4043  -20.0971  -14.3371 O   0  0  0  0  0  0  0  0  0  0  0  0
  1  2  1  0
  3  2  1  0
  4  3  1  0
  5  4  1  0
  5  6  1  1
  7  5  1  0
  8  7  2  0
  9  7  1  0
 10  9  1  0
 10 11  1  1
 11 12  1  0
 12 20  1  0
 12 13  2  0
 13 14  1  0
 15 14  1  0
 15 16  2  0
 17 16  1  0
 18 17  2  0
 19 20  2  0
 19 18  1  0
 20 15  1  0
 21 28  1  0
 21 10  1  0
 22 21  2  0
 23 24  1  0
 24 25  2  0
 26 24  1  0
 27 26  1  1
 27 28  1  0
 29 31  1  0
 29 27  1  0
 30 29  2  0
M  END
$$$$
