MWN.pdb
     RDKit          3D

 31 32  0  0  1  0  0  0  0  0999 V2000
   28.1873  -19.7090  -18.7671 C   0  0  0  0  0  0  0  0  0  0  0  0
   28.1283  -18.2072  -17.7535 S   0  0  0  0  0  0  0  0  0  0  0  0
   28.8408  -18.6110  -16.1322 C   0  0  0  0  0  0  0  0  0  0  0  0
   27.8268  -19.2819  -15.2360 C   0  0  0  0  0  0  0  0  0  0  0  0
   28.5055  -20.4755  -14.5896 C   0  0  2  0  0  0  0  0  0  0  0  0
   28.5398  -21.5504  -15.5599 N   0  0  0  0  0  0  0  0  0  0  0  0
   27.8099  -20.8644  -13.3300 C   0  0  0  0  0  0  0  0  0  0  0  0
   26.8410  -21.6533  -13.4617 O   0  0  0  0  0  0  0  0  0  0  0  0
   28.1565  -20.4203  -12.0427 N   0  0  0  0  0  0  0  0  0  0  0  0
   27.3382  -20.8418  -10.8798 C   0  0  1  0  0  0  0  0  0  0  0  0
   28.0906  -20.3677   -9.6834 C   0  0  0  0  0  0  0  0  0  0  0  0
   27.3523  -20.4067   -8.4175 C   0  0  0  0  0  0  0  0  0  0  0  0
   25.9925  -20.6390   -8.2827 C   0  0  0  0  0  0  0  0  0  0  0  0
   25.6585  -20.5787   -6.9784 N   0  0  0  0  0  0  0  0  0  0  0  0
   26.7508  -20.3140   -6.2412 C   0  0  0  0  0  0  0  0  0  0  0  0
   26.9120  -20.1591   -4.8733 C   0  0  0  0  0  0  0  0  0  0  0  0
   28.1604  -19.8884   -4.3719 C   0  0  0  0  0  0  0  0  0  0  0  0
   29.2338  -19.7770   -5.2576 C   0  0  0  0  0  0  0  0  0  0  0  0
   29.0562  -19.9342   -6.6187 C   0  0  0  0  0  0  0  0  0  0  0  0
   27.7956  -20.2075   -7.1242 C   0  0  0  0  0  0  0  0  0  0  0  0
   25.9744  -20.3737  -11.0442 C   0  0  0  0  0  0  0  0  0  0  0  0
   25.7446  -19.1362  -11.1306 O   0  0  0  0  0  0  0  0  0  0  0  0
   21.2678  -20.3901  -13.2847 N   0  0  0  0  0  0  0  0  0  0  0  0
   21.5036  -21.6461  -12.6286 C   0  0  0  0  0  0  0  0  0  0  0  0
   20.5126  -22.3944  -12.4767 O   0  0  0  0  0  0  0  0  0  0  0  0
   22.8663  -21.9395  -12.1991 C   0  0  0  0  0  0  0  0  0  0  0  0
   23.5654  -20.7002  -11.6476 C   0  0  2  0  0  0  0  0  0  0  0  0
   24.8524  -21.2298  -11.1223 N   0  0  0  0  0  0  0  0  0  0  0  0
   22.7830  -20.2239  -10.4969 C   0  0  0  0  0  0  0  0  0  0  0  0
   23.0049  -20.5836   -9.3174 O   0  0  0  0  0  0  0  0  0  0  0  0
   21.7465  -19.3363  -10.6785 O   0  0  0  0  0  0  0  0  0  0  0  0
  1  2  1  0
  3  2  1  0
  4  3  1  0
  5  4  1  0
  5  6  1  6
  7  5  1  0
  8  7  2  0
  9  7  1  0
 10  9  1  0
 10 11  1  1
 11 12  1  0
 12 20  1  0
 12 13  2  0
 13 14  1  0
 15 14  1  0
 15 16  2  0
 17 16  1  0
 18 17  2  0
 19 20  2  0
 19 18  1  0
 20 15  1  0
 21 28  1  0
 21 10  1  0
 22 21  2  0
 23 24  1  0
 24 25  2  0
 26 24  1  0
 27 26  1  1
 27 28  1  0
 29 31  1  0
 29 27  1  0
 30 29  2  0
M  END
$$$$
