MWN.pdb
     RDKit          3D

 31 32  0  0  1  0  0  0  0  0999 V2000
   24.4447  -21.1159  -20.2227 C   0  0  0  0  0  0  0  0  0  0  0  0
   26.1470  -21.1141  -20.8458 S   0  0  0  0  0  0  0  0  0  0  0  0
   27.2507  -21.3798  -19.4279 C   0  0  0  0  0  0  0  0  0  0  0  0
   26.4735  -21.7423  -18.1845 C   0  0  0  0  0  0  0  0  0  0  0  0
   27.4496  -21.7581  -17.0226 C   0  0  2  0  0  0  0  0  0  0  0  0
   28.3687  -22.8591  -17.2251 N   0  0  0  0  0  0  0  0  0  0  0  0
   26.7263  -21.8490  -15.7225 C   0  0  0  0  0  0  0  0  0  0  0  0
   26.5413  -23.0102  -15.2798 O   0  0  0  0  0  0  0  0  0  0  0  0
   26.2522  -20.7538  -14.9808 N   0  0  0  0  0  0  0  0  0  0  0  0
   25.5489  -20.9909  -13.6966 C   0  0  1  0  0  0  0  0  0  0  0  0
   26.0499  -19.9293  -12.7779 C   0  0  0  0  0  0  0  0  0  0  0  0
   26.9984  -20.3774  -11.7537 C   0  0  0  0  0  0  0  0  0  0  0  0
   28.3100  -20.7635  -11.9816 C   0  0  0  0  0  0  0  0  0  0  0  0
   28.8731  -21.1345  -10.8147 N   0  0  0  0  0  0  0  0  0  0  0  0
   27.9797  -21.0081   -9.8183 C   0  0  0  0  0  0  0  0  0  0  0  0
   28.0867  -21.2626   -8.4600 C   0  0  0  0  0  0  0  0  0  0  0  0
   27.0013  -21.0437   -7.6496 C   0  0  0  0  0  0  0  0  0  0  0  0
   25.8182  -20.5696   -8.2194 C   0  0  0  0  0  0  0  0  0  0  0  0
   25.7280  -20.3209   -9.5754 C   0  0  0  0  0  0  0  0  0  0  0  0
   26.8242  -20.5421  -10.3931 C   0  0  0  0  0  0  0  0  0  0  0  0
   24.1176  -21.0591  -13.9267 C   0  0  0  0  0  0  0  0  0  0  0  0
   23.5818  -20.2836  -14.7652 O   0  0  0  0  0  0  0  0  0  0  0  0
   19.1282  -22.2406  -13.7427 N   0  0  0  0  0  0  0  0  0  0  0  0
   19.8196  -23.3197  -13.0938 C   0  0  0  0  0  0  0  0  0  0  0  0
   19.1166  -24.2685  -12.6807 O   0  0  0  0  0  0  0  0  0  0  0  0
   21.2696  -23.2182  -12.9728 C   0  0  0  0  0  0  0  0  0  0  0  0
   21.7911  -21.8889  -13.5111 C   0  0  2  0  0  0  0  0  0  0  0  0
   23.2560  -21.9621  -13.2633 N   0  0  0  0  0  0  0  0  0  0  0  0
   21.2527  -20.8210  -12.6551 C   0  0  0  0  0  0  0  0  0  0  0  0
   21.7496  -20.5102  -11.5478 O   0  0  0  0  0  0  0  0  0  0  0  0
   20.1493  -20.0996  -13.0519 O   0  0  0  0  0  0  0  0  0  0  0  0
  1  2  1  0
  3  2  1  0
  4  3  1  0
  5  4  1  0
  5  6  1  6
  7  5  1  0
  8  7  2  0
  9  7  1  0
 10  9  1  0
 10 11  1  1
 11 12  1  0
 12 20  1  0
 12 13  2  0
 13 14  1  0
 15 14  1  0
 15 16  2  0
 17 16  1  0
 18 17  2  0
 19 20  2  0
 19 18  1  0
 20 15  1  0
 21 28  1  0
 21 10  1  0
 22 21  2  0
 23 24  1  0
 24 25  2  0
 26 24  1  0
 27 26  1  1
 27 28  1  0
 29 31  1  0
 29 27  1  0
 30 29  2  0
M  END
$$$$
