MWN.pdb
     RDKit          3D

 31 32  0  0  1  0  0  0  0  0999 V2000
   30.6047  -17.8062  -15.9396 C   0  0  0  0  0  0  0  0  0  0  0  0
   28.8654  -17.4662  -15.5582 S   0  0  0  0  0  0  0  0  0  0  0  0
   27.8629  -18.7269  -16.3979 C   0  0  0  0  0  0  0  0  0  0  0  0
   26.9634  -19.4534  -15.4261 C   0  0  0  0  0  0  0  0  0  0  0  0
   27.8522  -20.1544  -14.4154 C   0  0  2  0  0  0  0  0  0  0  0  0
   28.6307  -21.1521  -15.1201 N   0  0  0  0  0  0  0  0  0  0  0  0
   27.0412  -20.7384  -13.3095 C   0  0  0  0  0  0  0  0  0  0  0  0
   26.7388  -21.9514  -13.4350 O   0  0  0  0  0  0  0  0  0  0  0  0
   26.6059  -20.0423  -12.1692 N   0  0  0  0  0  0  0  0  0  0  0  0
   25.6946  -20.7111  -11.2089 C   0  0  1  0  0  0  0  0  0  0  0  0
   26.0190  -20.1108   -9.8835 C   0  0  0  0  0  0  0  0  0  0  0  0
   27.2712  -20.5680   -9.2733 C   0  0  0  0  0  0  0  0  0  0  0  0
   28.1866  -21.4294   -9.8574 C   0  0  0  0  0  0  0  0  0  0  0  0
   29.2032  -21.6459   -8.9995 N   0  0  0  0  0  0  0  0  0  0  0  0
   28.9944  -20.9572   -7.8642 C   0  0  0  0  0  0  0  0  0  0  0  0
   29.7480  -20.8601   -6.7049 C   0  0  0  0  0  0  0  0  0  0  0  0
   29.2971  -20.0715   -5.6764 C   0  0  0  0  0  0  0  0  0  0  0  0
   28.0891  -19.3886   -5.8293 C   0  0  0  0  0  0  0  0  0  0  0  0
   27.3498  -19.4960   -6.9914 C   0  0  0  0  0  0  0  0  0  0  0  0
   27.8056  -20.2923   -8.0295 C   0  0  0  0  0  0  0  0  0  0  0  0
   24.3251  -20.6049  -11.6770 C   0  0  0  0  0  0  0  0  0  0  0  0
   23.9130  -19.5154  -12.1615 O   0  0  0  0  0  0  0  0  0  0  0  0
   19.8947  -23.4826  -14.0553 N   0  0  0  0  0  0  0  0  0  0  0  0
   20.0971  -22.9166  -12.7506 C   0  0  0  0  0  0  0  0  0  0  0  0
   19.0811  -22.4831  -12.1633 O   0  0  0  0  0  0  0  0  0  0  0  0
   21.4580  -22.8956  -12.2262 C   0  0  0  0  0  0  0  0  0  0  0  0
   22.0570  -21.4925  -12.2617 C   0  0  2  0  0  0  0  0  0  0  0  0
   23.3936  -21.6671  -11.6327 N   0  0  0  0  0  0  0  0  0  0  0  0
   21.2562  -20.6448  -11.3656 C   0  0  0  0  0  0  0  0  0  0  0  0
   20.3773  -19.8502  -11.7730 O   0  0  0  0  0  0  0  0  0  0  0  0
   21.4473  -20.6957  -10.0032 O   0  0  0  0  0  0  0  0  0  0  0  0
  1  2  1  0
  3  2  1  0
  4  3  1  0
  5  4  1  0
  5  6  1  6
  7  5  1  0
  8  7  2  0
  9  7  1  0
 10  9  1  0
 10 11  1  1
 11 12  1  0
 12 20  1  0
 12 13  2  0
 13 14  1  0
 15 14  1  0
 15 16  2  0
 17 16  1  0
 18 17  2  0
 19 20  2  0
 19 18  1  0
 20 15  1  0
 21 28  1  0
 21 10  1  0
 22 21  2  0
 23 24  1  0
 24 25  2  0
 26 24  1  0
 27 26  1  1
 27 28  1  0
 29 31  1  0
 29 27  1  0
 30 29  2  0
M  END
$$$$
