MWN.pdb
     RDKit          3D

 31 32  0  0  1  0  0  0  0  0999 V2000
   25.2508  -41.1286  -16.9629 C   0  0  0  0  0  0  0  0  0  0  0  0
   26.5823  -40.2789  -16.0733 S   0  0  0  0  0  0  0  0  0  0  0  0
   25.8469  -38.8608  -15.2087 C   0  0  0  0  0  0  0  0  0  0  0  0
   26.8702  -38.1382  -14.3649 C   0  0  0  0  0  0  0  0  0  0  0  0
   27.4832  -37.0468  -15.2229 C   0  0  2  0  0  0  0  0  0  0  0  0
   28.7750  -37.5125  -15.6839 N   0  0  0  0  0  0  0  0  0  0  0  0
   27.5739  -35.7652  -14.4675 C   0  0  0  0  0  0  0  0  0  0  0  0
   28.7087  -35.4790  -14.0104 O   0  0  0  0  0  0  0  0  0  0  0  0
   26.5053  -34.8814  -14.2400 N   0  0  0  0  0  0  0  0  0  0  0  0
   26.7501  -33.6109  -13.5149 C   0  0  1  0  0  0  0  0  0  0  0  0
   26.1498  -32.5514  -14.3749 C   0  0  0  0  0  0  0  0  0  0  0  0
   26.8850  -32.2466  -15.6061 C   0  0  0  0  0  0  0  0  0  0  0  0
   28.2030  -32.5887  -15.8652 C   0  0  0  0  0  0  0  0  0  0  0  0
   28.5508  -32.1270  -17.0827 N   0  0  0  0  0  0  0  0  0  0  0  0
   27.5081  -31.4893  -17.6420 C   0  0  0  0  0  0  0  0  0  0  0  0
   27.3780  -30.8551  -18.8675 C   0  0  0  0  0  0  0  0  0  0  0  0
   26.1798  -30.2730  -19.1972 C   0  0  0  0  0  0  0  0  0  0  0  0
   25.1247  -30.3375  -18.2852 C   0  0  0  0  0  0  0  0  0  0  0  0
   25.2707  -30.9735  -17.0675 C   0  0  0  0  0  0  0  0  0  0  0  0
   26.4806  -31.5611  -16.7353 C   0  0  0  0  0  0  0  0  0  0  0  0
   26.2660  -33.7232  -12.1514 C   0  0  0  0  0  0  0  0  0  0  0  0
   25.0522  -33.9942  -11.9396 O   0  0  0  0  0  0  0  0  0  0  0  0
   27.7276  -34.0332   -6.5040 N   0  0  0  0  0  0  0  0  0  0  0  0
   26.9805  -34.7378   -7.5085 C   0  0  0  0  0  0  0  0  0  0  0  0
   26.0265  -35.4410   -7.1080 O   0  0  0  0  0  0  0  0  0  0  0  0
   27.3942  -34.5749   -8.8977 C   0  0  0  0  0  0  0  0  0  0  0  0
   26.4689  -33.6280   -9.6567 C   0  0  2  0  0  0  0  0  0  0  0  0
   27.0816  -33.5509  -11.0099 N   0  0  0  0  0  0  0  0  0  0  0  0
   26.5925  -32.2980   -9.0412 C   0  0  0  0  0  0  0  0  0  0  0  0
   26.1087  -32.0099   -7.9219 O   0  0  0  0  0  0  0  0  0  0  0  0
   27.2666  -31.2892   -9.6916 O   0  0  0  0  0  0  0  0  0  0  0  0
  1  2  1  0
  3  2  1  0
  4  3  1  0
  5  4  1  0
  5  6  1  1
  7  5  1  0
  8  7  2  0
  9  7  1  0
 10  9  1  0
 10 11  1  6
 11 12  1  0
 12 20  1  0
 12 13  2  0
 13 14  1  0
 15 14  1  0
 15 16  2  0
 17 16  1  0
 18 17  2  0
 19 20  2  0
 19 18  1  0
 20 15  1  0
 21 28  1  0
 21 10  1  0
 22 21  2  0
 23 24  1  0
 24 25  2  0
 26 24  1  0
 27 26  1  1
 27 28  1  0
 29 31  1  0
 29 27  1  0
 30 29  2  0
M  END
$$$$
