MWN.pdb
     RDKit          3D

 31 32  0  0  1  0  0  0  0  0999 V2000
   25.6865  -20.2538  -19.1005 C   0  0  0  0  0  0  0  0  0  0  0  0
   27.4497  -19.8594  -19.2485 S   0  0  0  0  0  0  0  0  0  0  0  0
   28.2843  -20.5152  -17.7745 C   0  0  0  0  0  0  0  0  0  0  0  0
   27.2889  -20.9996  -16.7469 C   0  0  0  0  0  0  0  0  0  0  0  0
   28.0696  -21.4182  -15.5146 C   0  0  2  0  0  0  0  0  0  0  0  0
   28.8678  -22.5758  -15.8623 N   0  0  0  0  0  0  0  0  0  0  0  0
   27.1532  -21.6791  -14.3685 C   0  0  0  0  0  0  0  0  0  0  0  0
   26.7887  -22.8724  -14.2205 O   0  0  0  0  0  0  0  0  0  0  0  0
   26.6842  -20.7071  -13.4685 N   0  0  0  0  0  0  0  0  0  0  0  0
   25.7900  -21.1122  -12.3567 C   0  0  1  0  0  0  0  0  0  0  0  0
   26.1379  -20.2027  -11.2279 C   0  0  0  0  0  0  0  0  0  0  0  0
   27.3546  -20.5518  -10.4884 C   0  0  0  0  0  0  0  0  0  0  0  0
   28.4307  -21.2639  -10.9945 C   0  0  0  0  0  0  0  0  0  0  0  0
   29.3566  -21.4171  -10.0273 N   0  0  0  0  0  0  0  0  0  0  0  0
   28.9322  -20.8307   -8.8947 C   0  0  0  0  0  0  0  0  0  0  0  0
   29.5252  -20.7223   -7.6465 C   0  0  0  0  0  0  0  0  0  0  0  0
   28.8628  -20.0576   -6.6453 C   0  0  0  0  0  0  0  0  0  0  0  0
   27.6077  -19.5089   -6.9149 C   0  0  0  0  0  0  0  0  0  0  0  0
   27.0305  -19.6257   -8.1646 C   0  0  0  0  0  0  0  0  0  0  0  0
   27.6998  -20.2968   -9.1752 C   0  0  0  0  0  0  0  0  0  0  0  0
   24.4124  -21.1196  -12.8130 C   0  0  0  0  0  0  0  0  0  0  0  0
   23.9428  -20.1057  -13.3989 O   0  0  0  0  0  0  0  0  0  0  0  0
   22.7515  -25.6382  -14.3456 N   0  0  0  0  0  0  0  0  0  0  0  0
   22.2928  -24.2852  -14.4956 C   0  0  0  0  0  0  0  0  0  0  0  0
   22.3970  -23.7807  -15.6357 O   0  0  0  0  0  0  0  0  0  0  0  0
   21.7496  -23.6205  -13.3164 C   0  0  0  0  0  0  0  0  0  0  0  0
   22.1737  -22.1563  -13.2460 C   0  0  2  0  0  0  0  0  0  0  0  0
   23.5346  -22.2151  -12.6482 N   0  0  0  0  0  0  0  0  0  0  0  0
   21.2954  -21.4856  -12.2756 C   0  0  0  0  0  0  0  0  0  0  0  0
   21.6355  -21.2385  -11.0953 O   0  0  0  0  0  0  0  0  0  0  0  0
   20.0280  -21.0905  -12.6399 O   0  0  0  0  0  0  0  0  0  0  0  0
  1  2  1  0
  3  2  1  0
  4  3  1  0
  5  4  1  0
  5  6  1  6
  7  5  1  0
  8  7  2  0
  9  7  1  0
 10  9  1  0
 10 11  1  1
 11 12  1  0
 12 20  1  0
 12 13  2  0
 13 14  1  0
 15 14  1  0
 15 16  2  0
 17 16  1  0
 18 17  2  0
 19 20  2  0
 19 18  1  0
 20 15  1  0
 21 28  1  0
 21 10  1  0
 22 21  2  0
 23 24  1  0
 24 25  2  0
 26 24  1  0
 27 26  1  1
 27 28  1  0
 29 31  1  0
 29 27  1  0
 30 29  2  0
M  END
$$$$
