MWN.pdb
     RDKit          3D

 31 32  0  0  1  0  0  0  0  0999 V2000
   26.2335  -17.5982  -17.4202 C   0  0  0  0  0  0  0  0  0  0  0  0
   28.0083  -17.4284  -17.0926 S   0  0  0  0  0  0  0  0  0  0  0  0
   28.5717  -18.9679  -16.3106 C   0  0  0  0  0  0  0  0  0  0  0  0
   27.6084  -19.4284  -15.2422 C   0  0  0  0  0  0  0  0  0  0  0  0
   28.1460  -20.7268  -14.6693 C   0  0  2  0  0  0  0  0  0  0  0  0
   27.9921  -21.7574  -15.6754 N   0  0  0  0  0  0  0  0  0  0  0  0
   27.4590  -21.0683  -13.3914 C   0  0  0  0  0  0  0  0  0  0  0  0
   26.3957  -21.7284  -13.5017 O   0  0  0  0  0  0  0  0  0  0  0  0
   27.9094  -20.7117  -12.1091 N   0  0  0  0  0  0  0  0  0  0  0  0
   27.0598  -21.0043  -10.9290 C   0  0  1  0  0  0  0  0  0  0  0  0
   27.9299  -20.7370   -9.7485 C   0  0  0  0  0  0  0  0  0  0  0  0
   27.2381  -20.6679   -8.4577 C   0  0  0  0  0  0  0  0  0  0  0  0
   25.9102  -20.9963   -8.2348 C   0  0  0  0  0  0  0  0  0  0  0  0
   25.6130  -20.7890   -6.9367 N   0  0  0  0  0  0  0  0  0  0  0  0
   26.6991  -20.3335   -6.2888 C   0  0  0  0  0  0  0  0  0  0  0  0
   26.8882  -19.9815   -4.9616 C   0  0  0  0  0  0  0  0  0  0  0  0
   28.1217  -19.5387   -4.5548 C   0  0  0  0  0  0  0  0  0  0  0  0
   29.1522  -19.4559   -5.4931 C   0  0  0  0  0  0  0  0  0  0  0  0
   28.9472  -19.8107   -6.8125 C   0  0  0  0  0  0  0  0  0  0  0  0
   27.7017  -20.2578   -7.2225 C   0  0  0  0  0  0  0  0  0  0  0  0
   25.8143  -20.2658  -11.0261 C   0  0  0  0  0  0  0  0  0  0  0  0
   25.8405  -19.0144  -11.1845 O   0  0  0  0  0  0  0  0  0  0  0  0
   21.9096  -17.9809  -12.8792 N   0  0  0  0  0  0  0  0  0  0  0  0
   22.3688  -19.2139  -13.4556 C   0  0  0  0  0  0  0  0  0  0  0  0
   21.7290  -19.6455  -14.4402 O   0  0  0  0  0  0  0  0  0  0  0  0
   23.5317  -19.8522  -12.8492 C   0  0  0  0  0  0  0  0  0  0  0  0
   23.3380  -20.0767  -11.3522 C   0  0  2  0  0  0  0  0  0  0  0  0
   24.5362  -20.8658  -10.9594 N   0  0  0  0  0  0  0  0  0  0  0  0
   22.1636  -20.9454  -11.1816 C   0  0  0  0  0  0  0  0  0  0  0  0
   20.9949  -20.5084  -11.0680 O   0  0  0  0  0  0  0  0  0  0  0  0
   22.3091  -22.3138  -11.1406 O   0  0  0  0  0  0  0  0  0  0  0  0
  1  2  1  0
  3  2  1  0
  4  3  1  0
  5  4  1  0
  5  6  1  6
  7  5  1  0
  8  7  2  0
  9  7  1  0
 10  9  1  0
 10 11  1  1
 11 12  1  0
 12 20  1  0
 12 13  2  0
 13 14  1  0
 15 14  1  0
 15 16  2  0
 17 16  1  0
 18 17  2  0
 19 20  2  0
 19 18  1  0
 20 15  1  0
 21 28  1  0
 21 10  1  0
 22 21  2  0
 23 24  1  0
 24 25  2  0
 26 24  1  0
 27 26  1  6
 27 28  1  0
 29 31  1  0
 29 27  1  0
 30 29  2  0
M  END
$$$$
