MWN.pdb
     RDKit          3D

 31 32  0  0  1  0  0  0  0  0999 V2000
   23.8142  -22.3438  -19.5860 C   0  0  0  0  0  0  0  0  0  0  0  0
   25.6032  -22.1178  -19.7724 S   0  0  0  0  0  0  0  0  0  0  0  0
   26.4112  -23.6409  -19.2009 C   0  0  0  0  0  0  0  0  0  0  0  0
   26.2096  -23.8493  -17.7186 C   0  0  0  0  0  0  0  0  0  0  0  0
   27.0419  -22.8087  -16.9923 C   0  0  2  0  0  0  0  0  0  0  0  0
   28.4210  -23.2514  -17.0033 N   0  0  0  0  0  0  0  0  0  0  0  0
   26.5249  -22.5835  -15.6125 C   0  0  0  0  0  0  0  0  0  0  0  0
   26.2763  -23.6191  -14.9460 O   0  0  0  0  0  0  0  0  0  0  0  0
   26.3044  -21.3262  -15.0252 N   0  0  0  0  0  0  0  0  0  0  0  0
   25.7708  -21.2491  -13.6434 C   0  0  1  0  0  0  0  0  0  0  0  0
   26.4935  -20.1086  -13.0114 C   0  0  0  0  0  0  0  0  0  0  0  0
   27.5151  -20.4771  -12.0266 C   0  0  0  0  0  0  0  0  0  0  0  0
   28.8465  -20.7430  -12.3054 C   0  0  0  0  0  0  0  0  0  0  0  0
   29.4830  -21.0700  -11.1633 N   0  0  0  0  0  0  0  0  0  0  0  0
   28.6191  -21.0306  -10.1342 C   0  0  0  0  0  0  0  0  0  0  0  0
   28.7983  -21.2837   -8.7832 C   0  0  0  0  0  0  0  0  0  0  0  0
   27.7282  -21.1680   -7.9320 C   0  0  0  0  0  0  0  0  0  0  0  0
   26.4874  -20.7977   -8.4542 C   0  0  0  0  0  0  0  0  0  0  0  0
   26.3256  -20.5489   -9.8034 C   0  0  0  0  0  0  0  0  0  0  0  0
   27.4064  -20.6658  -10.6623 C   0  0  0  0  0  0  0  0  0  0  0  0
   24.3213  -21.1879  -13.6801 C   0  0  0  0  0  0  0  0  0  0  0  0
   23.7429  -20.6626  -14.6705 O   0  0  0  0  0  0  0  0  0  0  0  0
   19.8471  -19.6766  -12.3686 N   0  0  0  0  0  0  0  0  0  0  0  0
   20.9572  -19.0180  -12.9990 C   0  0  0  0  0  0  0  0  0  0  0  0
   20.7312  -17.8955  -13.5028 O   0  0  0  0  0  0  0  0  0  0  0  0
   22.2422  -19.7081  -12.9981 C   0  0  0  0  0  0  0  0  0  0  0  0
   22.1135  -21.1441  -12.4979 C   0  0  2  0  0  0  0  0  0  0  0  0
   23.4861  -21.6943  -12.6583 N   0  0  0  0  0  0  0  0  0  0  0  0
   21.2383  -21.8642  -13.4352 C   0  0  0  0  0  0  0  0  0  0  0  0
   19.9937  -21.7225  -13.4620 O   0  0  0  0  0  0  0  0  0  0  0  0
   21.7708  -22.7470  -14.3475 O   0  0  0  0  0  0  0  0  0  0  0  0
  1  2  1  0
  3  2  1  0
  4  3  1  0
  5  4  1  0
  5  6  1  1
  7  5  1  0
  8  7  2  0
  9  7  1  0
 10  9  1  0
 10 11  1  6
 11 12  1  0
 12 20  1  0
 12 13  2  0
 13 14  1  0
 15 14  1  0
 15 16  2  0
 17 16  1  0
 18 17  2  0
 19 20  2  0
 19 18  1  0
 20 15  1  0
 21 28  1  0
 21 10  1  0
 22 21  2  0
 23 24  1  0
 24 25  2  0
 26 24  1  0
 27 26  1  6
 27 28  1  0
 29 31  1  0
 29 27  1  0
 30 29  2  0
M  END
$$$$
