MWN.pdb
     RDKit          3D

 31 32  0  0  1  0  0  0  0  0999 V2000
   25.7454  -21.0611  -19.0882 C   0  0  0  0  0  0  0  0  0  0  0  0
   27.1476  -19.9430  -18.8244 S   0  0  0  0  0  0  0  0  0  0  0  0
   27.9910  -20.4696  -17.3043 C   0  0  0  0  0  0  0  0  0  0  0  0
   27.0036  -20.9157  -16.2520 C   0  0  0  0  0  0  0  0  0  0  0  0
   27.7896  -21.2442  -14.9961 C   0  0  2  0  0  0  0  0  0  0  0  0
   28.6308  -22.3884  -15.2811 N   0  0  0  0  0  0  0  0  0  0  0  0
   26.8746  -21.4803  -13.8434 C   0  0  0  0  0  0  0  0  0  0  0  0
   26.2622  -22.5773  -13.8472 O   0  0  0  0  0  0  0  0  0  0  0  0
   26.6588  -20.5835  -12.7834 N   0  0  0  0  0  0  0  0  0  0  0  0
   25.5641  -20.8446  -11.8172 C   0  0  1  0  0  0  0  0  0  0  0  0
   25.9801  -20.1538  -10.5634 C   0  0  0  0  0  0  0  0  0  0  0  0
   27.2418  -20.6161   -9.9772 C   0  0  0  0  0  0  0  0  0  0  0  0
   28.1542  -21.4615  -10.5886 C   0  0  0  0  0  0  0  0  0  0  0  0
   29.1822  -21.6891   -9.7472 N   0  0  0  0  0  0  0  0  0  0  0  0
   28.9838  -21.0232   -8.5966 C   0  0  0  0  0  0  0  0  0  0  0  0
   29.7510  -20.9443   -7.4448 C   0  0  0  0  0  0  0  0  0  0  0  0
   29.3087  -20.1777   -6.3961 C   0  0  0  0  0  0  0  0  0  0  0  0
   28.0956  -19.4982   -6.5214 C   0  0  0  0  0  0  0  0  0  0  0  0
   27.3428  -19.5873   -7.6763 C   0  0  0  0  0  0  0  0  0  0  0  0
   27.7898  -20.3614   -8.7348 C   0  0  0  0  0  0  0  0  0  0  0  0
   24.2919  -20.4645  -12.4029 C   0  0  0  0  0  0  0  0  0  0  0  0
   24.2709  -19.7412  -13.4363 O   0  0  0  0  0  0  0  0  0  0  0  0
   20.9220  -21.3874  -15.8467 N   0  0  0  0  0  0  0  0  0  0  0  0
   20.9775  -22.1889  -14.6558 C   0  0  0  0  0  0  0  0  0  0  0  0
   20.0465  -23.0072  -14.4865 O   0  0  0  0  0  0  0  0  0  0  0  0
   22.1045  -21.9821  -13.7533 C   0  0  0  0  0  0  0  0  0  0  0  0
   21.8435  -20.8416  -12.7736 C   0  0  2  0  0  0  0  0  0  0  0  0
   23.0376  -20.8626  -11.8868 N   0  0  0  0  0  0  0  0  0  0  0  0
   20.6807  -21.2165  -11.9550 C   0  0  0  0  0  0  0  0  0  0  0  0
   20.7670  -21.9025  -10.9101 O   0  0  0  0  0  0  0  0  0  0  0  0
   19.4149  -20.8137  -12.3167 O   0  0  0  0  0  0  0  0  0  0  0  0
  1  2  1  0
  3  2  1  0
  4  3  1  0
  5  4  1  0
  5  6  1  6
  7  5  1  0
  8  7  2  0
  9  7  1  0
 10  9  1  0
 10 11  1  1
 11 12  1  0
 12 20  1  0
 12 13  2  0
 13 14  1  0
 15 14  1  0
 15 16  2  0
 17 16  1  0
 18 17  2  0
 19 20  2  0
 19 18  1  0
 20 15  1  0
 21 28  1  0
 21 10  1  0
 22 21  2  0
 23 24  1  0
 24 25  2  0
 26 24  1  0
 27 26  1  6
 27 28  1  0
 29 31  1  0
 29 27  1  0
 30 29  2  0
M  END
$$$$
