MWN.pdb
     RDKit          3D

 31 32  0  0  1  0  0  0  0  0999 V2000
   30.0212  -19.2206  -16.9542 C   0  0  0  0  0  0  0  0  0  0  0  0
   28.9563  -18.3459  -18.1320 S   0  0  0  0  0  0  0  0  0  0  0  0
   27.2567  -18.4210  -17.4957 C   0  0  0  0  0  0  0  0  0  0  0  0
   27.0779  -19.5728  -16.5351 C   0  0  0  0  0  0  0  0  0  0  0  0
   25.5891  -19.7404  -16.2928 C   0  0  2  0  0  0  0  0  0  0  0  0
   25.0049  -18.4209  -16.1671 N   0  0  0  0  0  0  0  0  0  0  0  0
   25.3384  -20.5929  -15.0962 C   0  0  0  0  0  0  0  0  0  0  0  0
   25.6261  -21.8095  -15.2216 O   0  0  0  0  0  0  0  0  0  0  0  0
   24.8174  -20.1388  -13.8727 N   0  0  0  0  0  0  0  0  0  0  0  0
   24.5773  -21.1084  -12.7763 C   0  0  1  0  0  0  0  0  0  0  0  0
   25.2816  -20.5382  -11.5927 C   0  0  0  0  0  0  0  0  0  0  0  0
   26.6754  -20.1435  -11.8178 C   0  0  0  0  0  0  0  0  0  0  0  0
   27.0953  -19.0499  -12.5587 C   0  0  0  0  0  0  0  0  0  0  0  0
   28.4425  -19.0109  -12.5690 N   0  0  0  0  0  0  0  0  0  0  0  0
   28.9325  -20.0422  -11.8596 C   0  0  0  0  0  0  0  0  0  0  0  0
   30.2370  -20.4215  -11.5846 C   0  0  0  0  0  0  0  0  0  0  0  0
   30.4632  -21.5381  -10.8198 C   0  0  0  0  0  0  0  0  0  0  0  0
   29.3691  -22.2607  -10.3402 C   0  0  0  0  0  0  0  0  0  0  0  0
   28.0748  -21.8691  -10.6234 C   0  0  0  0  0  0  0  0  0  0  0  0
   27.8471  -20.7416  -11.3956 C   0  0  0  0  0  0  0  0  0  0  0  0
   23.1544  -21.3653  -12.6515 C   0  0  0  0  0  0  0  0  0  0  0  0
   22.7354  -22.1339  -11.7430 O   0  0  0  0  0  0  0  0  0  0  0  0
   18.0721  -21.4375  -13.1884 N   0  0  0  0  0  0  0  0  0  0  0  0
   18.5506  -20.0864  -13.2836 C   0  0  0  0  0  0  0  0  0  0  0  0
   17.6867  -19.1819  -13.2555 O   0  0  0  0  0  0  0  0  0  0  0  0
   19.9903  -19.8856  -13.4041 C   0  0  0  0  0  0  0  0  0  0  0  0
   20.7530  -21.2061  -13.3456 C   0  0  2  0  0  0  0  0  0  0  0  0
   22.1747  -20.7953  -13.4961 N   0  0  0  0  0  0  0  0  0  0  0  0
   20.3901  -21.9820  -14.5411 C   0  0  0  0  0  0  0  0  0  0  0  0
   19.4393  -22.7975  -14.5700 O   0  0  0  0  0  0  0  0  0  0  0  0
   21.1028  -21.8354  -15.7098 O   0  0  0  0  0  0  0  0  0  0  0  0
  1  2  1  0
  3  2  1  0
  4  3  1  0
  5  4  1  0
  5  6  1  1
  7  5  1  0
  8  7  2  0
  9  7  1  0
 10  9  1  0
 10 11  1  1
 11 12  1  0
 12 20  1  0
 12 13  2  0
 13 14  1  0
 15 14  1  0
 15 16  2  0
 17 16  1  0
 18 17  2  0
 19 20  2  0
 19 18  1  0
 20 15  1  0
 21 28  1  0
 21 10  1  0
 22 21  2  0
 23 24  1  0
 24 25  2  0
 26 24  1  0
 27 26  1  6
 27 28  1  0
 29 31  1  0
 29 27  1  0
 30 29  2  0
M  END
$$$$
