MWN.pdb
     RDKit          3D

 31 32  0  0  1  0  0  0  0  0999 V2000
   28.5706  -22.9700  -21.7765 C   0  0  0  0  0  0  0  0  0  0  0  0
   28.0366  -23.6700  -20.1919 S   0  0  0  0  0  0  0  0  0  0  0  0
   27.8540  -22.2955  -19.0185 C   0  0  0  0  0  0  0  0  0  0  0  0
   27.5517  -22.7959  -17.6258 C   0  0  0  0  0  0  0  0  0  0  0  0
   27.9083  -21.6870  -16.6531 C   0  0  2  0  0  0  0  0  0  0  0  0
   29.3351  -21.7464  -16.4103 N   0  0  0  0  0  0  0  0  0  0  0  0
   27.1100  -21.8027  -15.3997 C   0  0  0  0  0  0  0  0  0  0  0  0
   26.9831  -22.9641  -14.9375 O   0  0  0  0  0  0  0  0  0  0  0  0
   26.5082  -20.7298  -14.7206 N   0  0  0  0  0  0  0  0  0  0  0  0
   25.7797  -20.9838  -13.4538 C   0  0  1  0  0  0  0  0  0  0  0  0
   26.3032  -19.9696  -12.4949 C   0  0  0  0  0  0  0  0  0  0  0  0
   27.2739  -20.4687  -11.5161 C   0  0  0  0  0  0  0  0  0  0  0  0
   28.5132  -21.0134  -11.8136 C   0  0  0  0  0  0  0  0  0  0  0  0
   29.1216  -21.3846  -10.6697 N   0  0  0  0  0  0  0  0  0  0  0  0
   28.3282  -21.1049   -9.6213 C   0  0  0  0  0  0  0  0  0  0  0  0
   28.5124  -21.2984   -8.2613 C   0  0  0  0  0  0  0  0  0  0  0  0
   27.5243  -20.9148   -7.3898 C   0  0  0  0  0  0  0  0  0  0  0  0
   26.3595  -20.3394   -7.9011 C   0  0  0  0  0  0  0  0  0  0  0  0
   26.1915  -20.1534   -9.2597 C   0  0  0  0  0  0  0  0  0  0  0  0
   27.1895  -20.5409  -10.1390 C   0  0  0  0  0  0  0  0  0  0  0  0
   24.3502  -20.9962  -13.7040 C   0  0  0  0  0  0  0  0  0  0  0  0
   23.8474  -20.1541  -14.4974 O   0  0  0  0  0  0  0  0  0  0  0  0
   19.3123  -21.9628  -13.5277 N   0  0  0  0  0  0  0  0  0  0  0  0
   19.9476  -23.0589  -12.8507 C   0  0  0  0  0  0  0  0  0  0  0  0
   19.2019  -23.9824  -12.4557 O   0  0  0  0  0  0  0  0  0  0  0  0
   21.3954  -23.0024  -12.6828 C   0  0  0  0  0  0  0  0  0  0  0  0
   21.9931  -21.7593  -13.3357 C   0  0  2  0  0  0  0  0  0  0  0  0
   23.4551  -21.9144  -13.1094 N   0  0  0  0  0  0  0  0  0  0  0  0
   21.5489  -20.5923  -12.5587 C   0  0  0  0  0  0  0  0  0  0  0  0
   20.4924  -19.9645  -12.8028 O   0  0  0  0  0  0  0  0  0  0  0  0
   22.2999  -20.1330  -11.5003 O   0  0  0  0  0  0  0  0  0  0  0  0
  1  2  1  0
  3  2  1  0
  4  3  1  0
  5  4  1  0
  5  6  1  1
  7  5  1  0
  8  7  2  0
  9  7  1  0
 10  9  1  0
 10 11  1  1
 11 12  1  0
 12 20  1  0
 12 13  2  0
 13 14  1  0
 15 14  1  0
 15 16  2  0
 17 16  1  0
 18 17  2  0
 19 20  2  0
 19 18  1  0
 20 15  1  0
 21 28  1  0
 21 10  1  0
 22 21  2  0
 23 24  1  0
 24 25  2  0
 26 24  1  0
 27 26  1  1
 27 28  1  0
 29 31  1  0
 29 27  1  0
 30 29  2  0
M  END
$$$$
