MWN.pdb
     RDKit          3D

 31 32  0  0  1  0  0  0  0  0999 V2000
   27.8955  -16.6990  -15.5737 C   0  0  0  0  0  0  0  0  0  0  0  0
   29.3512  -17.5156  -16.2810 S   0  0  0  0  0  0  0  0  0  0  0  0
   28.8932  -19.2353  -16.6445 C   0  0  0  0  0  0  0  0  0  0  0  0
   27.8814  -19.7580  -15.6524 C   0  0  0  0  0  0  0  0  0  0  0  0
   28.5578  -20.8453  -14.8379 C   0  0  2  0  0  0  0  0  0  0  0  0
   28.7361  -22.0001  -15.6938 N   0  0  0  0  0  0  0  0  0  0  0  0
   27.7699  -21.1585  -13.6120 C   0  0  0  0  0  0  0  0  0  0  0  0
   26.7087  -21.8058  -13.7947 O   0  0  0  0  0  0  0  0  0  0  0  0
   28.1258  -20.7891  -12.3038 N   0  0  0  0  0  0  0  0  0  0  0  0
   27.1986  -21.0832  -11.1841 C   0  0  1  0  0  0  0  0  0  0  0  0
   27.9567  -20.7311   -9.9498 C   0  0  0  0  0  0  0  0  0  0  0  0
   27.1509  -20.5908   -8.7331 C   0  0  0  0  0  0  0  0  0  0  0  0
   25.7676  -20.6486   -8.6697 C   0  0  0  0  0  0  0  0  0  0  0  0
   25.3726  -20.4554   -7.3957 N   0  0  0  0  0  0  0  0  0  0  0  0
   26.4473  -20.2710   -6.6096 C   0  0  0  0  0  0  0  0  0  0  0  0
   26.5512  -20.0387   -5.2471 C   0  0  0  0  0  0  0  0  0  0  0  0
   27.7941  -19.8839   -4.6865 C   0  0  0  0  0  0  0  0  0  0  0  0
   28.9199  -19.9654   -5.5081 C   0  0  0  0  0  0  0  0  0  0  0  0
   28.7991  -20.1974   -6.8646 C   0  0  0  0  0  0  0  0  0  0  0  0
   27.5440  -20.3537   -7.4300 C   0  0  0  0  0  0  0  0  0  0  0  0
   25.9311  -20.4127  -11.4078 C   0  0  0  0  0  0  0  0  0  0  0  0
   25.9005  -19.1569  -11.5247 O   0  0  0  0  0  0  0  0  0  0  0  0
   21.8549  -19.9431  -15.1315 N   0  0  0  0  0  0  0  0  0  0  0  0
   21.8447  -20.4080  -13.7723 C   0  0  0  0  0  0  0  0  0  0  0  0
   20.7685  -20.2873  -13.1461 O   0  0  0  0  0  0  0  0  0  0  0  0
   23.0793  -20.9763  -13.2427 C   0  0  0  0  0  0  0  0  0  0  0  0
   23.4813  -20.3255  -11.9222 C   0  0  2  0  0  0  0  0  0  0  0  0
   24.6925  -21.0856  -11.5125 N   0  0  0  0  0  0  0  0  0  0  0  0
   22.4248  -20.6195  -10.9422 C   0  0  0  0  0  0  0  0  0  0  0  0
   22.1972  -21.7694  -10.4996 O   0  0  0  0  0  0  0  0  0  0  0  0
   21.6226  -19.6106  -10.4586 O   0  0  0  0  0  0  0  0  0  0  0  0
  1  2  1  0
  3  2  1  0
  4  3  1  0
  5  4  1  0
  5  6  1  6
  7  5  1  0
  8  7  2  0
  9  7  1  0
 10  9  1  0
 10 11  1  1
 11 12  1  0
 12 20  1  0
 12 13  2  0
 13 14  1  0
 15 14  1  0
 15 16  2  0
 17 16  1  0
 18 17  2  0
 19 20  2  0
 19 18  1  0
 20 15  1  0
 21 28  1  0
 21 10  1  0
 22 21  2  0
 23 24  1  0
 24 25  2  0
 26 24  1  0
 27 26  1  6
 27 28  1  0
 29 31  1  0
 29 27  1  0
 30 29  2  0
M  END
$$$$
