MWN.pdb
     RDKit          3D

 31 32  0  0  1  0  0  0  0  0999 V2000
   24.9685  -22.4435  -19.6498 C   0  0  0  0  0  0  0  0  0  0  0  0
   26.6557  -22.2213  -20.2745 S   0  0  0  0  0  0  0  0  0  0  0  0
   27.7685  -22.1621  -18.8401 C   0  0  0  0  0  0  0  0  0  0  0  0
   27.0086  -22.3280  -17.5454 C   0  0  0  0  0  0  0  0  0  0  0  0
   27.9848  -22.0914  -16.4077 C   0  0  2  0  0  0  0  0  0  0  0  0
   28.9785  -23.1446  -16.4444 N   0  0  0  0  0  0  0  0  0  0  0  0
   27.2712  -22.0240  -15.1009 C   0  0  0  0  0  0  0  0  0  0  0  0
   26.8150  -23.1126  -14.6703 O   0  0  0  0  0  0  0  0  0  0  0  0
   27.0813  -20.8576  -14.3407 N   0  0  0  0  0  0  0  0  0  0  0  0
   26.3139  -20.9286  -13.0734 C   0  0  1  0  0  0  0  0  0  0  0  0
   26.9582  -19.9304  -12.1731 C   0  0  0  0  0  0  0  0  0  0  0  0
   27.8463  -20.4864  -11.1476 C   0  0  0  0  0  0  0  0  0  0  0  0
   29.0780  -21.0777  -11.3806 C   0  0  0  0  0  0  0  0  0  0  0  0
   29.6000  -21.4933  -10.2097 N   0  0  0  0  0  0  0  0  0  0  0  0
   28.7564  -21.1982   -9.2056 C   0  0  0  0  0  0  0  0  0  0  0  0
   28.8496  -21.4221   -7.8409 C   0  0  0  0  0  0  0  0  0  0  0  0
   27.8268  -21.0120   -7.0231 C   0  0  0  0  0  0  0  0  0  0  0  0
   26.7199  -20.3794   -7.5922 C   0  0  0  0  0  0  0  0  0  0  0  0
   26.6425  -20.1637   -8.9545 C   0  0  0  0  0  0  0  0  0  0  0  0
   27.6755  -20.5780   -9.7797 C   0  0  0  0  0  0  0  0  0  0  0  0
   24.8978  -20.7697  -13.3479 C   0  0  0  0  0  0  0  0  0  0  0  0
   24.5150  -19.8904  -14.1677 O   0  0  0  0  0  0  0  0  0  0  0  0
   21.1014  -24.2977  -14.7737 N   0  0  0  0  0  0  0  0  0  0  0  0
   21.4703  -22.9381  -14.4925 C   0  0  0  0  0  0  0  0  0  0  0  0
   21.4875  -22.1492  -15.4633 O   0  0  0  0  0  0  0  0  0  0  0  0
   21.7906  -22.5961  -13.1112 C   0  0  0  0  0  0  0  0  0  0  0  0
   22.4590  -21.2282  -13.0070 C   0  0  2  0  0  0  0  0  0  0  0  0
   23.8869  -21.5558  -12.7494 N   0  0  0  0  0  0  0  0  0  0  0  0
   21.9345  -20.5681  -11.8020 C   0  0  0  0  0  0  0  0  0  0  0  0
   22.5413  -20.5535  -10.7059 O   0  0  0  0  0  0  0  0  0  0  0  0
   20.7203  -19.9202  -11.8349 O   0  0  0  0  0  0  0  0  0  0  0  0
  1  2  1  0
  3  2  1  0
  4  3  1  0
  5  4  1  0
  5  6  1  1
  7  5  1  0
  8  7  2  0
  9  7  1  0
 10  9  1  0
 10 11  1  1
 11 12  1  0
 12 20  1  0
 12 13  2  0
 13 14  1  0
 15 14  1  0
 15 16  2  0
 17 16  1  0
 18 17  2  0
 19 20  2  0
 19 18  1  0
 20 15  1  0
 21 28  1  0
 21 10  1  0
 22 21  2  0
 23 24  1  0
 24 25  2  0
 26 24  1  0
 27 26  1  1
 27 28  1  0
 29 31  1  0
 29 27  1  0
 30 29  2  0
M  END
$$$$
