MWN.pdb
     RDKit          3D

 31 32  0  0  1  0  0  0  0  0999 V2000
   25.3491  -35.8998  -12.3943 C   0  0  0  0  0  0  0  0  0  0  0  0
   26.2875  -35.3892  -13.8588 S   0  0  0  0  0  0  0  0  0  0  0  0
   27.1681  -33.8569  -13.4396 C   0  0  0  0  0  0  0  0  0  0  0  0
   26.2468  -32.6609  -13.4867 C   0  0  0  0  0  0  0  0  0  0  0  0
   25.8543  -32.4418  -14.9362 C   0  0  2  0  0  0  0  0  0  0  0  0
   27.0474  -32.0785  -15.6728 N   0  0  0  0  0  0  0  0  0  0  0  0
   24.7798  -31.4148  -15.0461 C   0  0  0  0  0  0  0  0  0  0  0  0
   24.6811  -30.6208  -14.0773 O   0  0  0  0  0  0  0  0  0  0  0  0
   23.8961  -31.2795  -16.1302 N   0  0  0  0  0  0  0  0  0  0  0  0
   22.8323  -30.2472  -16.0809 C   0  0  1  0  0  0  0  0  0  0  0  0
   22.4536  -30.0118  -17.5034 C   0  0  0  0  0  0  0  0  0  0  0  0
   23.3926  -29.1962  -18.2795 C   0  0  0  0  0  0  0  0  0  0  0  0
   24.6435  -29.6018  -18.7176 C   0  0  0  0  0  0  0  0  0  0  0  0
   25.2340  -28.5861  -19.3779 N   0  0  0  0  0  0  0  0  0  0  0  0
   24.4175  -27.5184  -19.3937 C   0  0  0  0  0  0  0  0  0  0  0  0
   24.5774  -26.2563  -19.9439 C   0  0  0  0  0  0  0  0  0  0  0  0
   23.5682  -25.3357  -19.8138 C   0  0  0  0  0  0  0  0  0  0  0  0
   22.4072  -25.6992  -19.1290 C   0  0  0  0  0  0  0  0  0  0  0  0
   22.2634  -26.9616  -18.5864 C   0  0  0  0  0  0  0  0  0  0  0  0
   23.2827  -27.8907  -18.7181 C   0  0  0  0  0  0  0  0  0  0  0  0
   21.7849  -30.6655  -15.1677 C   0  0  0  0  0  0  0  0  0  0  0  0
   21.4157  -31.8718  -15.1506 O   0  0  0  0  0  0  0  0  0  0  0  0
   22.0866  -28.5184  -10.8527 N   0  0  0  0  0  0  0  0  0  0  0  0
   21.2133  -29.6041  -11.2019 C   0  0  0  0  0  0  0  0  0  0  0  0
   21.4376  -30.7043  -10.6502 O   0  0  0  0  0  0  0  0  0  0  0  0
   20.1486  -29.3339  -12.1615 C   0  0  0  0  0  0  0  0  0  0  0  0
   20.1438  -30.3476  -13.3022 C   0  0  2  0  0  0  0  0  0  0  0  0
   21.1329  -29.7942  -14.2656 N   0  0  0  0  0  0  0  0  0  0  0  0
   18.8223  -30.2871  -13.9448 C   0  0  0  0  0  0  0  0  0  0  0  0
   18.6285  -29.7801  -15.0740 O   0  0  0  0  0  0  0  0  0  0  0  0
   17.7147  -30.8028  -13.3103 O   0  0  0  0  0  0  0  0  0  0  0  0
  1  2  1  0
  3  2  1  0
  4  3  1  0
  5  4  1  0
  5  6  1  6
  7  5  1  0
  8  7  2  0
  9  7  1  0
 10  9  1  0
 10 11  1  6
 11 12  1  0
 12 20  1  0
 12 13  2  0
 13 14  1  0
 15 14  1  0
 15 16  2  0
 17 16  1  0
 18 17  2  0
 19 20  2  0
 19 18  1  0
 20 15  1  0
 21 28  1  0
 21 10  1  0
 22 21  2  0
 23 24  1  0
 24 25  2  0
 26 24  1  0
 27 26  1  1
 27 28  1  0
 29 31  1  0
 29 27  1  0
 30 29  2  0
M  END
$$$$
