MWN.pdb
     RDKit          3D

 31 32  0  0  1  0  0  0  0  0999 V2000
   26.0062  -27.1866  -19.1893 C   0  0  0  0  0  0  0  0  0  0  0  0
   25.8620  -25.5636  -19.9836 S   0  0  0  0  0  0  0  0  0  0  0  0
   26.6403  -24.3440  -18.8853 C   0  0  0  0  0  0  0  0  0  0  0  0
   25.9119  -24.2460  -17.5658 C   0  0  0  0  0  0  0  0  0  0  0  0
   26.9367  -23.9006  -16.5012 C   0  0  2  0  0  0  0  0  0  0  0  0
   27.7221  -25.0880  -16.2341 N   0  0  0  0  0  0  0  0  0  0  0  0
   26.2729  -23.3673  -15.2780 C   0  0  0  0  0  0  0  0  0  0  0  0
   25.9230  -24.2240  -14.4281 O   0  0  0  0  0  0  0  0  0  0  0  0
   26.0205  -22.0093  -15.0198 N   0  0  0  0  0  0  0  0  0  0  0  0
   25.3876  -21.6149  -13.7377 C   0  0  1  0  0  0  0  0  0  0  0  0
   26.1303  -20.4003  -13.2957 C   0  0  0  0  0  0  0  0  0  0  0  0
   27.1475  -20.6235  -12.2639 C   0  0  0  0  0  0  0  0  0  0  0  0
   28.4769  -20.9398  -12.4957 C   0  0  0  0  0  0  0  0  0  0  0  0
   29.1092  -21.0949  -11.3157 N   0  0  0  0  0  0  0  0  0  0  0  0
   28.2445  -20.8924  -10.3066 C   0  0  0  0  0  0  0  0  0  0  0  0
   28.4198  -20.9388   -8.9325 C   0  0  0  0  0  0  0  0  0  0  0  0
   27.3498  -20.6863   -8.1113 C   0  0  0  0  0  0  0  0  0  0  0  0
   26.1129  -20.3892   -8.6867 C   0  0  0  0  0  0  0  0  0  0  0  0
   25.9549  -20.3468  -10.0585 C   0  0  0  0  0  0  0  0  0  0  0  0
   27.0356  -20.6019  -10.8870 C   0  0  0  0  0  0  0  0  0  0  0  0
   23.9521  -21.4966  -13.9153 C   0  0  0  0  0  0  0  0  0  0  0  0
   23.4888  -21.1204  -15.0268 O   0  0  0  0  0  0  0  0  0  0  0  0
   18.6478  -23.3133  -12.2586 N   0  0  0  0  0  0  0  0  0  0  0  0
   19.4240  -22.1221  -12.0540 C   0  0  0  0  0  0  0  0  0  0  0  0
   18.7883  -21.0502  -11.9440 O   0  0  0  0  0  0  0  0  0  0  0  0
   20.8745  -22.2623  -11.9925 C   0  0  0  0  0  0  0  0  0  0  0  0
   21.5587  -21.5975  -13.1836 C   0  0  2  0  0  0  0  0  0  0  0  0
   23.0075  -21.7863  -12.9044 N   0  0  0  0  0  0  0  0  0  0  0  0
   21.2801  -20.1554  -13.1079 C   0  0  0  0  0  0  0  0  0  0  0  0
   21.8212  -19.3927  -12.2740 O   0  0  0  0  0  0  0  0  0  0  0  0
   20.3880  -19.5714  -13.9787 O   0  0  0  0  0  0  0  0  0  0  0  0
  1  2  1  0
  3  2  1  0
  4  3  1  0
  5  4  1  0
  5  6  1  1
  7  5  1  0
  8  7  2  0
  9  7  1  0
 10  9  1  0
 10 11  1  6
 11 12  1  0
 12 20  1  0
 12 13  2  0
 13 14  1  0
 15 14  1  0
 15 16  2  0
 17 16  1  0
 18 17  2  0
 19 20  2  0
 19 18  1  0
 20 15  1  0
 21 28  1  0
 21 10  1  0
 22 21  2  0
 23 24  1  0
 24 25  2  0
 26 24  1  0
 27 26  1  1
 27 28  1  0
 29 31  1  0
 29 27  1  0
 30 29  2  0
M  END
$$$$
