YLL.pdb
     RDKit          3D

 29 29  0  0  1  0  0  0  0  0999 V2000
   31.3455  -21.6169  -19.8946 O   0  0  0  0  0  0  0  0  0  0  0  0
   30.3489  -21.8570  -18.9514 C   0  0  0  0  0  0  0  0  0  0  0  0
   29.0118  -21.6945  -19.2596 C   0  0  0  0  0  0  0  0  0  0  0  0
   28.0282  -21.9333  -18.3232 C   0  0  0  0  0  0  0  0  0  0  0  0
   28.3158  -22.3383  -17.0551 C   0  0  0  0  0  0  0  0  0  0  0  0
   27.3046  -22.6091  -16.0123 C   0  0  0  0  0  0  0  0  0  0  0  0
   26.4987  -21.3521  -15.7915 C   0  0  2  0  0  0  0  0  0  0  0  0
   27.3505  -20.3435  -15.1931 N   0  0  0  0  0  0  0  0  0  0  0  0
   25.3678  -21.5687  -14.8598 C   0  0  0  0  0  0  0  0  0  0  0  0
   24.4903  -22.4326  -15.0957 O   0  0  0  0  0  0  0  0  0  0  0  0
   29.6511  -22.5089  -16.7201 C   0  0  0  0  0  0  0  0  0  0  0  0
   30.6418  -22.2708  -17.6555 C   0  0  0  0  0  0  0  0  0  0  0  0
   25.9201  -20.3556   -9.3733 C   0  0  0  0  0  0  0  0  0  0  0  0
   25.6719  -20.8541  -10.7570 C   0  0  1  0  0  0  0  0  0  0  0  0
   25.7262  -22.3885  -10.6762 C   0  0  0  0  0  0  0  0  0  0  0  0
   24.3716  -20.5108  -11.3660 C   0  0  0  0  0  0  0  0  0  0  0  0
   24.1053  -20.9633  -12.7529 C   0  0  2  0  0  0  0  0  0  0  0  0
   25.2181  -20.8087  -13.6492 N   0  0  0  0  0  0  0  0  0  0  0  0
   22.8214  -20.4931  -13.3325 C   0  0  0  0  0  0  0  0  0  0  0  0
   22.6410  -19.2626  -13.6255 O   0  0  0  0  0  0  0  0  0  0  0  0
   19.8072  -21.5195  -17.9747 C   0  0  0  0  0  0  0  0  0  0  0  0
   19.5349  -20.8517  -16.6084 C   0  0  2  0  0  0  0  0  0  0  0  0
   19.5350  -19.3688  -16.9147 C   0  0  0  0  0  0  0  0  0  0  0  0
   20.6434  -21.2995  -15.7173 C   0  0  0  0  0  0  0  0  0  0  0  0
   20.5684  -20.8654  -14.2947 C   0  0  2  0  0  0  0  0  0  0  0  0
   21.7360  -21.3610  -13.5938 N   0  0  0  0  0  0  0  0  0  0  0  0
   19.3695  -21.3169  -13.5575 C   0  0  0  0  0  0  0  0  0  0  0  0
   19.3797  -22.4049  -12.6716 O   0  0  0  0  0  0  0  0  0  0  0  0
   18.2274  -20.7547  -13.6674 O   0  0  0  0  0  0  0  0  0  0  0  0
  2  3  2  0
  2  1  1  0
  4  3  1  0
  5  4  2  0
  6  5  1  0
  7  6  1  0
  7  8  1  1
  9  7  1  0
  9 10  2  0
 11  5  1  0
 11 12  2  0
 12  2  1  0
 14 13  1  1
 14 15  1  0
 16 14  1  0
 17 16  1  1
 17 18  1  0
 18  9  1  0
 19 17  1  0
 19 26  1  0
 20 19  2  0
 22 21  1  6
 23 22  1  0
 24 22  1  0
 25 24  1  6
 25 26  1  0
 25 27  1  0
 27 28  1  0
 29 27  2  0
M  END
$$$$
