YLL.pdb
     RDKit          3D

 29 29  0  0  1  0  0  0  0  0999 V2000
   19.8161  -23.5566   -6.6111 O   0  0  0  0  0  0  0  0  0  0  0  0
   20.4471  -22.7402   -7.5469 C   0  0  0  0  0  0  0  0  0  0  0  0
   20.3928  -23.0196   -8.8990 C   0  0  0  0  0  0  0  0  0  0  0  0
   21.0187  -22.2090   -9.8222 C   0  0  0  0  0  0  0  0  0  0  0  0
   21.7185  -21.0989   -9.4576 C   0  0  0  0  0  0  0  0  0  0  0  0
   22.4074  -20.1950  -10.4019 C   0  0  0  0  0  0  0  0  0  0  0  0
   23.4626  -20.9863  -11.1359 C   0  0  2  0  0  0  0  0  0  0  0  0
   24.5601  -21.2640  -10.2306 N   0  0  0  0  0  0  0  0  0  0  0  0
   24.0284  -20.2368  -12.2814 C   0  0  0  0  0  0  0  0  0  0  0  0
   24.1317  -18.9877  -12.2509 O   0  0  0  0  0  0  0  0  0  0  0  0
   21.7883  -20.7961   -8.1057 C   0  0  0  0  0  0  0  0  0  0  0  0
   21.1623  -21.6058   -7.1753 C   0  0  0  0  0  0  0  0  0  0  0  0
   28.7459  -21.4000  -14.1072 C   0  0  0  0  0  0  0  0  0  0  0  0
   27.4443  -20.7409  -13.7970 C   0  0  1  0  0  0  0  0  0  0  0  0
   27.7815  -19.2988  -13.3843 C   0  0  0  0  0  0  0  0  0  0  0  0
   26.4662  -20.6451  -14.8989 C   0  0  0  0  0  0  0  0  0  0  0  0
   25.0892  -20.1985  -14.5776 C   0  0  2  0  0  0  0  0  0  0  0  0
   24.4839  -20.8944  -13.4754 N   0  0  0  0  0  0  0  0  0  0  0  0
   24.1838  -20.0604  -15.7467 C   0  0  0  0  0  0  0  0  0  0  0  0
   23.4717  -21.0418  -16.1493 O   0  0  0  0  0  0  0  0  0  0  0  0
   22.1561  -15.1222  -17.0938 C   0  0  0  0  0  0  0  0  0  0  0  0
   23.1514  -16.2456  -17.4597 C   0  0  2  0  0  0  0  0  0  0  0  0
   23.6881  -15.8375  -18.8154 C   0  0  0  0  0  0  0  0  0  0  0  0
   22.3501  -17.5030  -17.4643 C   0  0  0  0  0  0  0  0  0  0  0  0
   23.1137  -18.7767  -17.5763 C   0  0  2  0  0  0  0  0  0  0  0  0
   24.0528  -18.8557  -16.4754 N   0  0  0  0  0  0  0  0  0  0  0  0
   23.8706  -18.9525  -18.8335 C   0  0  0  0  0  0  0  0  0  0  0  0
   23.2533  -19.1049  -20.0843 O   0  0  0  0  0  0  0  0  0  0  0  0
   25.1470  -18.9812  -18.8839 O   0  0  0  0  0  0  0  0  0  0  0  0
  2  3  2  0
  2  1  1  0
  4  3  1  0
  5  4  2  0
  6  5  1  0
  7  6  1  0
  7  8  1  1
  9  7  1  0
  9 10  2  0
 11  5  1  0
 11 12  2  0
 12  2  1  0
 14 13  1  6
 14 15  1  0
 16 14  1  0
 17 16  1  6
 17 18  1  0
 18  9  1  0
 19 17  1  0
 19 26  1  0
 20 19  2  0
 22 21  1  6
 23 22  1  0
 24 22  1  0
 25 24  1  6
 25 26  1  0
 25 27  1  0
 27 28  1  0
 29 27  2  0
M  END
$$$$
