YLL.pdb
     RDKit          3D

 29 29  0  0  1  0  0  0  0  0999 V2000
   17.6703  -17.3156  -16.7199 O   0  0  0  0  0  0  0  0  0  0  0  0
   18.6264  -17.9166  -15.9044 C   0  0  0  0  0  0  0  0  0  0  0  0
   19.8773  -17.3567  -15.7286 C   0  0  0  0  0  0  0  0  0  0  0  0
   20.8211  -17.9546  -14.9205 C   0  0  0  0  0  0  0  0  0  0  0  0
   20.5764  -19.1185  -14.2569 C   0  0  0  0  0  0  0  0  0  0  0  0
   21.5479  -19.8026  -13.3786 C   0  0  0  0  0  0  0  0  0  0  0  0
   22.6977  -20.2890  -14.2270 C   0  0  2  0  0  0  0  0  0  0  0  0
   22.2549  -21.4184  -15.0204 N   0  0  0  0  0  0  0  0  0  0  0  0
   23.8383  -20.7592  -13.4074 C   0  0  0  0  0  0  0  0  0  0  0  0
   23.7435  -21.7854  -12.6933 O   0  0  0  0  0  0  0  0  0  0  0  0
   19.3277  -19.7013  -14.4166 C   0  0  0  0  0  0  0  0  0  0  0  0
   18.3773  -19.1058  -15.2260 C   0  0  0  0  0  0  0  0  0  0  0  0
   29.1782  -19.9834  -14.8854 C   0  0  0  0  0  0  0  0  0  0  0  0
   27.8618  -20.4525  -14.3639 C   0  0  1  0  0  0  0  0  0  0  0  0
   27.9105  -21.9888  -14.3966 C   0  0  0  0  0  0  0  0  0  0  0  0
   27.5193  -20.0720  -12.9791 C   0  0  0  0  0  0  0  0  0  0  0  0
   26.1630  -20.3993  -12.4768 C   0  0  2  0  0  0  0  0  0  0  0  0
   25.1003  -20.0718  -13.3873 N   0  0  0  0  0  0  0  0  0  0  0  0
   25.8879  -19.9693  -11.0822 C   0  0  0  0  0  0  0  0  0  0  0  0
   25.5156  -18.7753  -10.8211 O   0  0  0  0  0  0  0  0  0  0  0  0
   23.0783  -19.2588   -8.3396 C   0  0  0  0  0  0  0  0  0  0  0  0
   23.4421  -20.7423   -8.5712 C   0  0  2  0  0  0  0  0  0  0  0  0
   22.3160  -21.5074   -7.9084 C   0  0  0  0  0  0  0  0  0  0  0  0
   24.7769  -20.9302   -7.9338 C   0  0  0  0  0  0  0  0  0  0  0  0
   25.9378  -20.3067   -8.6278 C   0  0  2  0  0  0  0  0  0  0  0  0
   26.0167  -20.8379   -9.9738 N   0  0  0  0  0  0  0  0  0  0  0  0
   27.2494  -20.5146   -7.9790 C   0  0  0  0  0  0  0  0  0  0  0  0
   27.6008  -19.9246   -6.7554 O   0  0  0  0  0  0  0  0  0  0  0  0
   28.1694  -21.2467   -8.4792 O   0  0  0  0  0  0  0  0  0  0  0  0
  2  3  2  0
  2  1  1  0
  4  3  1  0
  5  4  2  0
  6  5  1  0
  7  6  1  0
  7  8  1  1
  9  7  1  0
  9 10  2  0
 11  5  1  0
 11 12  2  0
 12  2  1  0
 14 13  1  1
 14 15  1  0
 16 14  1  0
 17 16  1  6
 17 18  1  0
 18  9  1  0
 19 17  1  0
 19 26  1  0
 20 19  2  0
 22 21  1  1
 23 22  1  0
 24 22  1  0
 25 24  1  1
 25 26  1  0
 25 27  1  0
 27 28  1  0
 29 27  2  0
M  END
$$$$
