YLL.pdb
     RDKit          3D

 29 29  0  0  1  0  0  0  0  0999 V2000
   29.1113  -14.6228  -17.9587 O   0  0  0  0  0  0  0  0  0  0  0  0
   28.3109  -15.6152  -17.3975 C   0  0  0  0  0  0  0  0  0  0  0  0
   27.8971  -16.7085  -18.1341 C   0  0  0  0  0  0  0  0  0  0  0  0
   27.1048  -17.6888  -17.5750 C   0  0  0  0  0  0  0  0  0  0  0  0
   26.6898  -17.6355  -16.2790 C   0  0  0  0  0  0  0  0  0  0  0  0
   25.8421  -18.6558  -15.6279 C   0  0  0  0  0  0  0  0  0  0  0  0
   26.6959  -19.4379  -14.6594 C   0  0  2  0  0  0  0  0  0  0  0  0
   27.6243  -20.2624  -15.4073 N   0  0  0  0  0  0  0  0  0  0  0  0
   25.8913  -20.3517  -13.8159 C   0  0  0  0  0  0  0  0  0  0  0  0
   25.5301  -21.4750  -14.2397 O   0  0  0  0  0  0  0  0  0  0  0  0
   27.0916  -16.5478  -15.5176 C   0  0  0  0  0  0  0  0  0  0  0  0
   27.8863  -15.5616  -16.0734 C   0  0  0  0  0  0  0  0  0  0  0  0
   26.1219  -20.5135   -8.2217 C   0  0  0  0  0  0  0  0  0  0  0  0
   26.0046  -20.6813   -9.6992 C   0  0  1  0  0  0  0  0  0  0  0  0
   26.5733  -22.0734  -10.0192 C   0  0  0  0  0  0  0  0  0  0  0  0
   24.6429  -20.6422  -10.2685 C   0  0  0  0  0  0  0  0  0  0  0  0
   24.4955  -20.7346  -11.7412 C   0  0  2  0  0  0  0  0  0  0  0  0
   25.4865  -20.0031  -12.4817 N   0  0  0  0  0  0  0  0  0  0  0  0
   23.1162  -20.5243  -12.2498 C   0  0  0  0  0  0  0  0  0  0  0  0
   22.7359  -19.3801  -12.6723 O   0  0  0  0  0  0  0  0  0  0  0  0
   19.0219  -22.3308  -15.1627 C   0  0  0  0  0  0  0  0  0  0  0  0
   19.8501  -21.0286  -15.2338 C   0  0  2  0  0  0  0  0  0  0  0  0
   20.1212  -20.8426  -16.7118 C   0  0  0  0  0  0  0  0  0  0  0  0
   21.0659  -21.2833  -14.4090 C   0  0  0  0  0  0  0  0  0  0  0  0
   20.8712  -21.3204  -12.9330 C   0  0  2  0  0  0  0  0  0  0  0  0
   22.1527  -21.5582  -12.2994 N   0  0  0  0  0  0  0  0  0  0  0  0
   19.9251  -22.3457  -12.4449 C   0  0  0  0  0  0  0  0  0  0  0  0
   18.5929  -22.0608  -12.1090 O   0  0  0  0  0  0  0  0  0  0  0  0
   20.2430  -23.5733  -12.2880 O   0  0  0  0  0  0  0  0  0  0  0  0
  2  3  2  0
  2  1  1  0
  4  3  1  0
  5  4  2  0
  6  5  1  0
  7  6  1  0
  7  8  1  6
  9  7  1  0
  9 10  2  0
 11  5  1  0
 11 12  2  0
 12  2  1  0
 14 13  1  1
 14 15  1  0
 16 14  1  0
 17 16  1  1
 17 18  1  0
 18  9  1  0
 19 17  1  0
 19 26  1  0
 20 19  2  0
 22 21  1  6
 23 22  1  0
 24 22  1  0
 25 24  1  6
 25 26  1  0
 25 27  1  0
 27 28  1  0
 29 27  2  0
M  END
$$$$
