YLL.pdb
     RDKit          3D

 29 29  0  0  1  0  0  0  0  0999 V2000
   23.3340  -18.9939  -16.0270 O   0  0  0  0  0  0  0  0  0  0  0  0
   23.6435  -19.2582  -14.6948 C   0  0  0  0  0  0  0  0  0  0  0  0
   24.5914  -18.5174  -14.0153 C   0  0  0  0  0  0  0  0  0  0  0  0
   24.8950  -18.7821  -12.6965 C   0  0  0  0  0  0  0  0  0  0  0  0
   24.2842  -19.7780  -11.9966 C   0  0  0  0  0  0  0  0  0  0  0  0
   24.5685  -20.1057  -10.5841 C   0  0  0  0  0  0  0  0  0  0  0  0
   26.0251  -20.4837  -10.4660 C   0  0  2  0  0  0  0  0  0  0  0  0
   26.2470  -21.7339  -11.1651 N   0  0  0  0  0  0  0  0  0  0  0  0
   26.4353  -20.6984   -9.0590 C   0  0  0  0  0  0  0  0  0  0  0  0
   26.0870  -21.7269   -8.4323 O   0  0  0  0  0  0  0  0  0  0  0  0
   23.3283  -20.5368  -12.6560 C   0  0  0  0  0  0  0  0  0  0  0  0
   23.0199  -20.2756  -13.9788 C   0  0  0  0  0  0  0  0  0  0  0  0
   31.2355  -18.7724   -6.2643 C   0  0  0  0  0  0  0  0  0  0  0  0
   30.0924  -19.6256   -6.7004 C   0  0  1  0  0  0  0  0  0  0  0  0
   30.1571  -20.9002   -5.8432 C   0  0  0  0  0  0  0  0  0  0  0  0
   28.7375  -19.0670   -6.5218 C   0  0  0  0  0  0  0  0  0  0  0  0
   27.5788  -19.8854   -6.9541 C   0  0  2  0  0  0  0  0  0  0  0  0
   27.2453  -19.7496   -8.3455 N   0  0  0  0  0  0  0  0  0  0  0  0
   26.3933  -19.8181   -6.0621 C   0  0  0  0  0  0  0  0  0  0  0  0
   25.2077  -19.8778   -6.5347 O   0  0  0  0  0  0  0  0  0  0  0  0
   22.8119  -20.7289   -3.2274 C   0  0  0  0  0  0  0  0  0  0  0  0
   23.7786  -21.9297   -3.3290 C   0  0  2  0  0  0  0  0  0  0  0  0
   24.0576  -22.3031   -1.8883 C   0  0  0  0  0  0  0  0  0  0  0  0
   24.9647  -21.4250   -4.0782 C   0  0  0  0  0  0  0  0  0  0  0  0
   25.3649  -20.0146   -3.8162 C   0  0  2  0  0  0  0  0  0  0  0  0
   26.4982  -19.6874   -4.6580 N   0  0  0  0  0  0  0  0  0  0  0  0
   25.7341  -19.7108   -2.4177 C   0  0  0  0  0  0  0  0  0  0  0  0
   24.9355  -18.9322   -1.5664 O   0  0  0  0  0  0  0  0  0  0  0  0
   26.8098  -20.1308   -1.8708 O   0  0  0  0  0  0  0  0  0  0  0  0
  2  3  2  0
  2  1  1  0
  4  3  1  0
  5  4  2  0
  6  5  1  0
  7  6  1  0
  7  8  1  6
  9  7  1  0
  9 10  2  0
 11  5  1  0
 11 12  2  0
 12  2  1  0
 14 13  1  1
 14 15  1  0
 16 14  1  0
 17 16  1  1
 17 18  1  0
 18  9  1  0
 19 17  1  0
 19 26  1  0
 20 19  2  0
 22 21  1  1
 23 22  1  0
 24 22  1  0
 25 24  1  1
 25 26  1  0
 25 27  1  0
 27 28  1  0
 29 27  2  0
M  END
$$$$
