YLL.pdb
     RDKit          3D

 29 29  0  0  1  0  0  0  0  0999 V2000
   16.8658  -15.7612  -16.5136 O   0  0  0  0  0  0  0  0  0  0  0  0
   18.0492  -16.3812  -16.1190 C   0  0  0  0  0  0  0  0  0  0  0  0
   19.2698  -15.7448  -16.2381 C   0  0  0  0  0  0  0  0  0  0  0  0
   20.4390  -16.3619  -15.8463 C   0  0  0  0  0  0  0  0  0  0  0  0
   20.4567  -17.6201  -15.3253 C   0  0  0  0  0  0  0  0  0  0  0  0
   21.6773  -18.3293  -14.8888 C   0  0  0  0  0  0  0  0  0  0  0  0
   22.5581  -18.5493  -16.0946 C   0  0  2  0  0  0  0  0  0  0  0  0
   21.9614  -19.5676  -16.9361 N   0  0  0  0  0  0  0  0  0  0  0  0
   23.9067  -19.0350  -15.7214 C   0  0  0  0  0  0  0  0  0  0  0  0
   24.1049  -20.2388  -15.4325 O   0  0  0  0  0  0  0  0  0  0  0  0
   19.2440  -18.2810  -15.1952 C   0  0  0  0  0  0  0  0  0  0  0  0
   18.0682  -17.6668  -15.5866 C   0  0  0  0  0  0  0  0  0  0  0  0
   28.7529  -16.6634  -17.6067 C   0  0  0  0  0  0  0  0  0  0  0  0
   27.6184  -17.5255  -17.1656 C   0  0  1  0  0  0  0  0  0  0  0  0
   27.8718  -18.9134  -17.7767 C   0  0  0  0  0  0  0  0  0  0  0  0
   27.4615  -17.7285  -15.7117 C   0  0  0  0  0  0  0  0  0  0  0  0
   26.3497  -18.5889  -15.2396 C   0  0  2  0  0  0  0  0  0  0  0  0
   25.0471  -18.1618  -15.6713 N   0  0  0  0  0  0  0  0  0  0  0  0
   26.3978  -18.9446  -13.7985 C   0  0  0  0  0  0  0  0  0  0  0  0
   25.8318  -18.2111  -12.9186 O   0  0  0  0  0  0  0  0  0  0  0  0
   24.9426  -19.8332   -9.7266 C   0  0  0  0  0  0  0  0  0  0  0  0
   24.5397  -20.1681  -11.1799 C   0  0  2  0  0  0  0  0  0  0  0  0
   23.1768  -20.8143  -11.0466 C   0  0  0  0  0  0  0  0  0  0  0  0
   25.6070  -21.0750  -11.6912 C   0  0  0  0  0  0  0  0  0  0  0  0
   26.9456  -20.4631  -11.9185 C   0  0  2  0  0  0  0  0  0  0  0  0
   27.0597  -20.0972  -13.3162 N   0  0  0  0  0  0  0  0  0  0  0  0
   28.0999  -21.3207  -11.5770 C   0  0  0  0  0  0  0  0  0  0  0  0
   28.6929  -21.3363  -10.3054 O   0  0  0  0  0  0  0  0  0  0  0  0
   28.6521  -22.1159  -12.4109 O   0  0  0  0  0  0  0  0  0  0  0  0
  2  3  2  0
  2  1  1  0
  4  3  1  0
  5  4  2  0
  6  5  1  0
  7  6  1  0
  7  8  1  6
  9  7  1  0
  9 10  2  0
 11  5  1  0
 11 12  2  0
 12  2  1  0
 14 13  1  1
 14 15  1  0
 16 14  1  0
 17 16  1  1
 17 18  1  0
 18  9  1  0
 19 17  1  0
 19 26  1  0
 20 19  2  0
 22 21  1  1
 23 22  1  0
 24 22  1  0
 25 24  1  6
 25 26  1  0
 25 27  1  0
 27 28  1  0
 29 27  2  0
M  END
$$$$
