YLL.pdb
     RDKit          3D

 29 29  0  0  1  0  0  0  0  0999 V2000
   16.6313  -25.4249  -15.1212 O   0  0  0  0  0  0  0  0  0  0  0  0
   17.7049  -24.5379  -15.0876 C   0  0  0  0  0  0  0  0  0  0  0  0
   17.5263  -23.1835  -15.2947 C   0  0  0  0  0  0  0  0  0  0  0  0
   18.5916  -22.3086  -15.2606 C   0  0  0  0  0  0  0  0  0  0  0  0
   19.8663  -22.7254  -15.0235 C   0  0  0  0  0  0  0  0  0  0  0  0
   21.0439  -21.8342  -14.9749 C   0  0  0  0  0  0  0  0  0  0  0  0
   21.4357  -21.6398  -13.5302 C   0  0  2  0  0  0  0  0  0  0  0  0
   20.4062  -20.8696  -12.8609 N   0  0  0  0  0  0  0  0  0  0  0  0
   22.7003  -20.8815  -13.3904 C   0  0  0  0  0  0  0  0  0  0  0  0
   22.7773  -19.6799  -13.7404 O   0  0  0  0  0  0  0  0  0  0  0  0
   20.0725  -24.0808  -14.8123 C   0  0  0  0  0  0  0  0  0  0  0  0
   19.0076  -24.9628  -14.8454 C   0  0  0  0  0  0  0  0  0  0  0  0
   26.4443  -21.6781   -9.3551 C   0  0  0  0  0  0  0  0  0  0  0  0
   25.5448  -21.1978  -10.4438 C   0  0  1  0  0  0  0  0  0  0  0  0
   25.2054  -19.7368  -10.1063 C   0  0  0  0  0  0  0  0  0  0  0  0
   26.0974  -21.1958  -11.8128 C   0  0  0  0  0  0  0  0  0  0  0  0
   25.1887  -20.8597  -12.9355 C   0  0  2  0  0  0  0  0  0  0  0  0
   23.8930  -21.4759  -12.8523 N   0  0  0  0  0  0  0  0  0  0  0  0
   25.7952  -20.9599  -14.2874 C   0  0  0  0  0  0  0  0  0  0  0  0
   25.7937  -22.0636  -14.9311 O   0  0  0  0  0  0  0  0  0  0  0  0
   23.4516  -20.0774  -18.7056 C   0  0  0  0  0  0  0  0  0  0  0  0
   24.9548  -19.8691  -18.4164 C   0  0  2  0  0  0  0  0  0  0  0  0
   25.6345  -21.0016  -19.1569 C   0  0  0  0  0  0  0  0  0  0  0  0
   25.0884  -19.9318  -16.9327 C   0  0  0  0  0  0  0  0  0  0  0  0
   26.4694  -19.8263  -16.3852 C   0  0  2  0  0  0  0  0  0  0  0  0
   26.4011  -19.8603  -14.9380 N   0  0  0  0  0  0  0  0  0  0  0  0
   27.2146  -18.6116  -16.7772 C   0  0  0  0  0  0  0  0  0  0  0  0
   26.9933  -17.3553  -16.1928 O   0  0  0  0  0  0  0  0  0  0  0  0
   28.1191  -18.6060  -17.6796 O   0  0  0  0  0  0  0  0  0  0  0  0
  2  3  2  0
  2  1  1  0
  4  3  1  0
  5  4  2  0
  6  5  1  0
  7  6  1  0
  7  8  1  1
  9  7  1  0
  9 10  2  0
 11  5  1  0
 11 12  2  0
 12  2  1  0
 14 13  1  1
 14 15  1  0
 16 14  1  0
 17 16  1  1
 17 18  1  0
 18  9  1  0
 19 17  1  0
 19 26  1  0
 20 19  2  0
 22 21  1  1
 23 22  1  0
 24 22  1  0
 25 24  1  6
 25 26  1  0
 25 27  1  0
 27 28  1  0
 29 27  2  0
M  END
$$$$
