YLL.pdb
     RDKit          3D

 29 29  0  0  1  0  0  0  0  0999 V2000
   17.8883  -19.0790  -15.1295 O   0  0  0  0  0  0  0  0  0  0  0  0
   18.9098  -19.6475  -14.3720 C   0  0  0  0  0  0  0  0  0  0  0  0
   19.2719  -20.9714  -14.5301 C   0  0  0  0  0  0  0  0  0  0  0  0
   20.2837  -21.5305  -13.7784 C   0  0  0  0  0  0  0  0  0  0  0  0
   20.9760  -20.8170  -12.8475 C   0  0  0  0  0  0  0  0  0  0  0  0
   22.0681  -21.3629  -12.0152 C   0  0  0  0  0  0  0  0  0  0  0  0
   23.2328  -20.4043  -12.0681 C   0  0  2  0  0  0  0  0  0  0  0  0
   23.6877  -20.2886  -13.4395 N   0  0  0  0  0  0  0  0  0  0  0  0
   24.3864  -20.8808  -11.2705 C   0  0  0  0  0  0  0  0  0  0  0  0
   24.2177  -21.5113  -10.2000 O   0  0  0  0  0  0  0  0  0  0  0  0
   20.6317  -19.4851  -12.6693 C   0  0  0  0  0  0  0  0  0  0  0  0
   19.6176  -18.9192  -13.4206 C   0  0  0  0  0  0  0  0  0  0  0  0
   29.6376  -22.5901  -10.3205 C   0  0  0  0  0  0  0  0  0  0  0  0
   29.4035  -21.1858  -10.7656 C   0  0  1  0  0  0  0  0  0  0  0  0
   30.5890  -20.8205  -11.6737 C   0  0  0  0  0  0  0  0  0  0  0  0
   28.1788  -20.9304  -11.5496 C   0  0  0  0  0  0  0  0  0  0  0  0
   26.8783  -20.9247  -10.8371 C   0  0  2  0  0  0  0  0  0  0  0  0
   25.7452  -20.6484  -11.6768 N   0  0  0  0  0  0  0  0  0  0  0  0
   26.8611  -20.1580   -9.5653 C   0  0  0  0  0  0  0  0  0  0  0  0
   26.4939  -18.9345   -9.5373 O   0  0  0  0  0  0  0  0  0  0  0  0
   28.4930  -19.8642   -4.3400 C   0  0  0  0  0  0  0  0  0  0  0  0
   26.9815  -19.9446   -4.6494 C   0  0  2  0  0  0  0  0  0  0  0  0
   26.4062  -20.7224   -3.4846 C   0  0  0  0  0  0  0  0  0  0  0  0
   26.8799  -20.6369   -5.9661 C   0  0  0  0  0  0  0  0  0  0  0  0
   27.3597  -19.8778   -7.1542 C   0  0  2  0  0  0  0  0  0  0  0  0
   27.2417  -20.7224   -8.3259 N   0  0  0  0  0  0  0  0  0  0  0  0
   28.7556  -19.3983   -7.0776 C   0  0  0  0  0  0  0  0  0  0  0  0
   29.0982  -18.0996   -6.6716 O   0  0  0  0  0  0  0  0  0  0  0  0
   29.7629  -20.1257   -7.3755 O   0  0  0  0  0  0  0  0  0  0  0  0
  2  3  2  0
  2  1  1  0
  4  3  1  0
  5  4  2  0
  6  5  1  0
  7  6  1  0
  7  8  1  6
  9  7  1  0
  9 10  2  0
 11  5  1  0
 11 12  2  0
 12  2  1  0
 14 13  1  6
 14 15  1  0
 16 14  1  0
 17 16  1  6
 17 18  1  0
 18  9  1  0
 19 17  1  0
 19 26  1  0
 20 19  2  0
 22 21  1  1
 23 22  1  0
 24 22  1  0
 25 24  1  1
 25 26  1  0
 25 27  1  0
 27 28  1  0
 29 27  2  0
M  END
$$$$
