YLL.pdb
     RDKit          3D

 29 29  0  0  1  0  0  0  0  0999 V2000
   23.2179  -15.5356  -19.1691 O   0  0  0  0  0  0  0  0  0  0  0  0
   23.5570  -16.6118  -18.3523 C   0  0  0  0  0  0  0  0  0  0  0  0
   23.6296  -17.8986  -18.8503 C   0  0  0  0  0  0  0  0  0  0  0  0
   23.9657  -18.9614  -18.0385 C   0  0  0  0  0  0  0  0  0  0  0  0
   24.2422  -18.8045  -16.7142 C   0  0  0  0  0  0  0  0  0  0  0  0
   24.6079  -19.9050  -15.7985 C   0  0  0  0  0  0  0  0  0  0  0  0
   26.0891  -19.8213  -15.5198 C   0  0  2  0  0  0  0  0  0  0  0  0
   26.8167  -20.1359  -16.7333 N   0  0  0  0  0  0  0  0  0  0  0  0
   26.5214  -20.7974  -14.4931 C   0  0  0  0  0  0  0  0  0  0  0  0
   26.7415  -21.9955  -14.7901 O   0  0  0  0  0  0  0  0  0  0  0  0
   24.1763  -17.5222  -16.1894 C   0  0  0  0  0  0  0  0  0  0  0  0
   23.8397  -16.4525  -16.9991 C   0  0  0  0  0  0  0  0  0  0  0  0
   29.2704  -19.6501   -9.8452 C   0  0  0  0  0  0  0  0  0  0  0  0
   28.6031  -20.1791  -11.0699 C   0  0  1  0  0  0  0  0  0  0  0  0
   29.6640  -21.0080  -11.8122 C   0  0  0  0  0  0  0  0  0  0  0  0
   27.4422  -21.0680  -10.8653 C   0  0  0  0  0  0  0  0  0  0  0  0
   26.5611  -21.3490  -12.0246 C   0  0  2  0  0  0  0  0  0  0  0  0
   26.7094  -20.4272  -13.1172 N   0  0  0  0  0  0  0  0  0  0  0  0
   25.1421  -21.6246  -11.6840 C   0  0  0  0  0  0  0  0  0  0  0  0
   24.8341  -22.4380  -10.7480 O   0  0  0  0  0  0  0  0  0  0  0  0
   21.1349  -20.2228   -8.6570 C   0  0  0  0  0  0  0  0  0  0  0  0
   21.1124  -20.9573  -10.0160 C   0  0  2  0  0  0  0  0  0  0  0  0
   20.7372  -22.3807   -9.6612 C   0  0  0  0  0  0  0  0  0  0  0  0
   22.4850  -20.8007  -10.5771 C   0  0  0  0  0  0  0  0  0  0  0  0
   22.6994  -21.3115  -11.9595 C   0  0  2  0  0  0  0  0  0  0  0  0
   24.0602  -21.0150  -12.3602 N   0  0  0  0  0  0  0  0  0  0  0  0
   21.7919  -20.7585  -12.9866 C   0  0  0  0  0  0  0  0  0  0  0  0
   20.5248  -21.2963  -13.2587 O   0  0  0  0  0  0  0  0  0  0  0  0
   22.0870  -19.7477  -13.7103 O   0  0  0  0  0  0  0  0  0  0  0  0
  2  3  2  0
  2  1  1  0
  4  3  1  0
  5  4  2  0
  6  5  1  0
  7  6  1  0
  7  8  1  6
  9  7  1  0
  9 10  2  0
 11  5  1  0
 11 12  2  0
 12  2  1  0
 14 13  1  1
 14 15  1  0
 16 14  1  0
 17 16  1  1
 17 18  1  0
 18  9  1  0
 19 17  1  0
 19 26  1  0
 20 19  2  0
 22 21  1  1
 23 22  1  0
 24 22  1  0
 25 24  1  1
 25 26  1  0
 25 27  1  0
 27 28  1  0
 29 27  2  0
M  END
$$$$
