YLL.pdb
     RDKit          3D

 29 29  0  0  1  0  0  0  0  0999 V2000
   17.4705  -17.6049  -18.7618 O   0  0  0  0  0  0  0  0  0  0  0  0
   18.7012  -17.3647  -18.1551 C   0  0  0  0  0  0  0  0  0  0  0  0
   19.5298  -16.3465  -18.5862 C   0  0  0  0  0  0  0  0  0  0  0  0
   20.7473  -16.1119  -17.9830 C   0  0  0  0  0  0  0  0  0  0  0  0
   21.1973  -16.8624  -16.9394 C   0  0  0  0  0  0  0  0  0  0  0  0
   22.4907  -16.6564  -16.2553 C   0  0  0  0  0  0  0  0  0  0  0  0
   23.5756  -17.3042  -17.0810 C   0  0  2  0  0  0  0  0  0  0  0  0
   23.1486  -17.3559  -18.4652 N   0  0  0  0  0  0  0  0  0  0  0  0
   23.8417  -18.6991  -16.6600 C   0  0  0  0  0  0  0  0  0  0  0  0
   23.3600  -19.6695  -17.2911 O   0  0  0  0  0  0  0  0  0  0  0  0
   20.3840  -17.8913  -16.4874 C   0  0  0  0  0  0  0  0  0  0  0  0
   19.1618  -18.1311  -17.0888 C   0  0  0  0  0  0  0  0  0  0  0  0
   27.5533  -18.9493  -15.7534 C   0  0  0  0  0  0  0  0  0  0  0  0
   27.3587  -20.3491  -15.2763 C   0  0  1  0  0  0  0  0  0  0  0  0
   28.5871  -20.6831  -14.4143 C   0  0  0  0  0  0  0  0  0  0  0  0
   26.1725  -20.6081  -14.4362 C   0  0  0  0  0  0  0  0  0  0  0  0
   24.8325  -20.3454  -15.0146 C   0  0  2  0  0  0  0  0  0  0  0  0
   24.6572  -19.0109  -15.5184 N   0  0  0  0  0  0  0  0  0  0  0  0
   23.6889  -20.8110  -14.1894 C   0  0  0  0  0  0  0  0  0  0  0  0
   23.6650  -21.9915  -13.7010 O   0  0  0  0  0  0  0  0  0  0  0  0
   20.4714  -19.1676   -9.6994 C   0  0  0  0  0  0  0  0  0  0  0  0
   20.3708  -20.1935  -10.8501 C   0  0  2  0  0  0  0  0  0  0  0  0
   20.4560  -21.5369  -10.1566 C   0  0  0  0  0  0  0  0  0  0  0  0
   21.5160  -19.8910  -11.7558 C   0  0  0  0  0  0  0  0  0  0  0  0
   21.4798  -20.5206  -13.1050 C   0  0  2  0  0  0  0  0  0  0  0  0
   22.5738  -19.9927  -13.8953 N   0  0  0  0  0  0  0  0  0  0  0  0
   20.2291  -20.3162  -13.8655 C   0  0  0  0  0  0  0  0  0  0  0  0
   20.1952  -19.7357  -15.1425 O   0  0  0  0  0  0  0  0  0  0  0  0
   19.0780  -20.6500  -13.4224 O   0  0  0  0  0  0  0  0  0  0  0  0
  2  3  2  0
  2  1  1  0
  4  3  1  0
  5  4  2  0
  6  5  1  0
  7  6  1  0
  7  8  1  6
  9  7  1  0
  9 10  2  0
 11  5  1  0
 11 12  2  0
 12  2  1  0
 14 13  1  1
 14 15  1  0
 16 14  1  0
 17 16  1  1
 17 18  1  0
 18  9  1  0
 19 17  1  0
 19 26  1  0
 20 19  2  0
 22 21  1  1
 23 22  1  0
 24 22  1  0
 25 24  1  1
 25 26  1  0
 25 27  1  0
 27 28  1  0
 29 27  2  0
M  END
$$$$
