QHL.pdb
     RDKit          3D

 28 28  0  0  1  0  0  0  0  0999 V2000
   15.7945  -14.3929   20.5005 N   0  0  0  0  0  0  0  0  0  0  0  0
   15.6960  -15.0787   19.2706 C   0  0  0  0  0  0  0  0  0  0  0  0
   16.7331  -15.5954   18.8087 O   0  0  0  0  0  0  0  0  0  0  0  0
   14.3989  -15.1775   18.5561 C   0  0  0  0  0  0  0  0  0  0  0  0
   13.2685  -14.5035   19.2642 C   0  0  0  0  0  0  0  0  0  0  0  0
   12.8049  -15.1855   20.5246 C   0  0  2  0  0  0  0  0  0  0  0  0
   12.4622  -16.5625   20.0727 N   0  0  0  0  0  0  0  0  0  0  0  0
   11.5580  -14.6155   21.0927 C   0  0  0  0  0  0  0  0  0  0  0  0
   11.5227  -13.3867   21.4675 O   0  0  0  0  0  0  0  0  0  0  0  0
   10.3408  -15.3218   21.2688 N   0  0  0  0  0  0  0  0  0  0  0  0
    9.1579  -14.6333   21.8049 C   0  0  1  0  0  0  0  0  0  0  0  0
    7.9439  -15.0752   21.0614 C   0  0  0  0  0  0  0  0  0  0  0  0
    7.8250  -14.6127   19.6678 C   0  0  0  0  0  0  0  0  0  0  0  0
    8.7470  -13.7696   19.0135 C   0  0  0  0  0  0  0  0  0  0  0  0
    8.3383  -13.5490   17.7681 N   0  0  0  0  0  0  0  0  0  0  0  0
    7.1991  -14.2027   17.5735 C   0  0  0  0  0  0  0  0  0  0  0  0
    6.9080  -14.8294   18.7116 N   0  0  0  0  0  0  0  0  0  0  0  0
    9.0048  -14.9274   23.2408 C   0  0  0  0  0  0  0  0  0  0  0  0
    9.9015  -15.5835   23.8113 O   0  0  0  0  0  0  0  0  0  0  0  0
    5.9768  -11.6796   26.5607 C   0  0  0  0  0  0  0  0  0  0  0  0
    7.1556  -12.5038   26.0877 C   0  0  1  0  0  0  0  0  0  0  0  0
    8.3190  -12.1178   27.0331 C   0  0  0  0  0  0  0  0  0  0  0  0
    6.8908  -13.9763   26.1812 C   0  0  0  0  0  0  0  0  0  0  0  0
    7.9423  -14.7574   25.4733 C   0  0  2  0  0  0  0  0  0  0  0  0
    7.8956  -14.5078   24.0228 N   0  0  0  0  0  0  0  0  0  0  0  0
    7.7391  -16.2049   25.6643 C   0  0  0  0  0  0  0  0  0  0  0  0
    7.8576  -16.7961   26.7713 O   0  0  0  0  0  0  0  0  0  0  0  0
    7.3900  -16.9849   24.5443 O   0  0  0  0  0  0  0  0  0  0  0  0
  1  2  1  0
  2  4  1  0
  2  3  2  0
  4  5  1  0
  5  6  1  0
  6  8  1  0
  6  7  1  6
  8 10  1  0
  8  9  2  0
 10 11  1  0
 11 12  1  6
 11 18  1  0
 13 12  1  0
 13 14  2  0
 15 14  1  0
 16 15  1  0
 17 16  2  0
 17 13  1  0
 18 19  2  0
 21 20  1  1
 21 23  1  0
 21 22  1  0
 24 23  1  1
 24 26  1  0
 25 24  1  0
 25 18  1  0
 26 28  1  0
 27 26  2  0
M  END
$$$$
