QHL.pdb
     RDKit          3D

 28 28  0  0  1  0  0  0  0  0999 V2000
   13.4991  -15.1234   19.2798 N   0  0  0  0  0  0  0  0  0  0  0  0
   12.7983  -14.0146   19.8014 C   0  0  0  0  0  0  0  0  0  0  0  0
   13.4674  -13.0488   20.2201 O   0  0  0  0  0  0  0  0  0  0  0  0
   11.3148  -14.0051   19.8475 C   0  0  0  0  0  0  0  0  0  0  0  0
   10.6711  -14.6165   18.6454 C   0  0  0  0  0  0  0  0  0  0  0  0
    9.1648  -14.6126   18.6540 C   0  0  2  0  0  0  0  0  0  0  0  0
    8.8167  -13.1793   18.4490 N   0  0  0  0  0  0  0  0  0  0  0  0
    8.5702  -14.9992   19.9576 C   0  0  0  0  0  0  0  0  0  0  0  0
    7.6443  -14.2793   20.4831 O   0  0  0  0  0  0  0  0  0  0  0  0
    8.9342  -16.1400   20.7175 N   0  0  0  0  0  0  0  0  0  0  0  0
    8.1096  -16.5613   21.8591 C   0  0  1  0  0  0  0  0  0  0  0  0
    8.3330  -18.0104   22.1278 C   0  0  0  0  0  0  0  0  0  0  0  0
    7.5495  -18.9558   21.3138 C   0  0  0  0  0  0  0  0  0  0  0  0
    6.6003  -18.5894   20.3374 C   0  0  0  0  0  0  0  0  0  0  0  0
    6.0791  -19.6847   19.7939 N   0  0  0  0  0  0  0  0  0  0  0  0
    6.6368  -20.7469   20.3626 C   0  0  0  0  0  0  0  0  0  0  0  0
    7.5080  -20.2967   21.2633 N   0  0  0  0  0  0  0  0  0  0  0  0
    8.4505  -15.7685   23.0535 C   0  0  0  0  0  0  0  0  0  0  0  0
    9.6530  -15.5111   23.2719 O   0  0  0  0  0  0  0  0  0  0  0  0
    8.3263  -11.7001   26.4314 C   0  0  0  0  0  0  0  0  0  0  0  0
    7.3197  -12.7722   26.7919 C   0  0  1  0  0  0  0  0  0  0  0  0
    6.1186  -12.0061   27.3976 C   0  0  0  0  0  0  0  0  0  0  0  0
    6.8726  -13.5547   25.5942 C   0  0  0  0  0  0  0  0  0  0  0  0
    7.9713  -14.4137   25.0726 C   0  0  2  0  0  0  0  0  0  0  0  0
    7.4918  -15.2734   23.9775 N   0  0  0  0  0  0  0  0  0  0  0  0
    8.4827  -15.3092   26.1260 C   0  0  0  0  0  0  0  0  0  0  0  0
    9.4722  -15.0447   26.8608 O   0  0  0  0  0  0  0  0  0  0  0  0
    7.8304  -16.5409   26.3317 O   0  0  0  0  0  0  0  0  0  0  0  0
  1  2  1  0
  2  4  1  0
  2  3  2  0
  4  5  1  0
  5  6  1  0
  6  8  1  0
  6  7  1  1
  8 10  1  0
  8  9  2  0
 10 11  1  0
 11 12  1  1
 11 18  1  0
 13 12  1  0
 13 14  2  0
 15 14  1  0
 16 15  1  0
 17 16  2  0
 17 13  1  0
 18 19  2  0
 21 20  1  6
 21 23  1  0
 21 22  1  0
 24 23  1  1
 24 26  1  0
 25 24  1  0
 25 18  1  0
 26 28  1  0
 27 26  2  0
M  END
$$$$
