QHL.pdb
     RDKit          3D

 28 28  0  0  1  0  0  0  0  0999 V2000
    7.8899  -12.6503   16.2379 N   0  0  0  0  0  0  0  0  0  0  0  0
    7.8920  -14.0470   16.4425 C   0  0  0  0  0  0  0  0  0  0  0  0
    7.2951  -14.7573   15.6088 O   0  0  0  0  0  0  0  0  0  0  0  0
    8.5829  -14.6438   17.6126 C   0  0  0  0  0  0  0  0  0  0  0  0
    9.3494  -13.6539   18.4286 C   0  0  0  0  0  0  0  0  0  0  0  0
    9.9521  -14.1993   19.6967 C   0  0  2  0  0  0  0  0  0  0  0  0
   10.7474  -15.3695   19.2321 N   0  0  0  0  0  0  0  0  0  0  0  0
    8.9534  -14.7337   20.6555 C   0  0  0  0  0  0  0  0  0  0  0  0
    8.0200  -13.9734   21.1056 O   0  0  0  0  0  0  0  0  0  0  0  0
    8.9196  -16.0639   21.1462 N   0  0  0  0  0  0  0  0  0  0  0  0
    7.9055  -16.4619   22.1332 C   0  0  1  0  0  0  0  0  0  0  0  0
    7.9120  -17.9448   22.2848 C   0  0  0  0  0  0  0  0  0  0  0  0
    7.2579  -18.7154   21.2131 C   0  0  0  0  0  0  0  0  0  0  0  0
    6.4085  -18.1711   20.2277 C   0  0  0  0  0  0  0  0  0  0  0  0
    5.9908  -19.1400   19.4192 N   0  0  0  0  0  0  0  0  0  0  0  0
    6.5217  -20.2879   19.8234 C   0  0  0  0  0  0  0  0  0  0  0  0
    7.2717  -20.0183   20.8900 N   0  0  0  0  0  0  0  0  0  0  0  0
    8.1798  -15.8211   23.4316 C   0  0  0  0  0  0  0  0  0  0  0  0
    9.3669  -15.7273   23.8084 O   0  0  0  0  0  0  0  0  0  0  0  0
    7.9811  -11.9394   27.0899 C   0  0  0  0  0  0  0  0  0  0  0  0
    6.8862  -12.9747   27.2376 C   0  0  1  0  0  0  0  0  0  0  0  0
    5.6691  -12.1942   27.7906 C   0  0  0  0  0  0  0  0  0  0  0  0
    6.5299  -13.6127   25.9289 C   0  0  0  0  0  0  0  0  0  0  0  0
    7.6037  -14.5374   25.4717 C   0  0  2  0  0  0  0  0  0  0  0  0
    7.1731  -15.2980   24.2866 N   0  0  0  0  0  0  0  0  0  0  0  0
    7.9276  -15.5240   26.5180 C   0  0  0  0  0  0  0  0  0  0  0  0
    7.2881  -16.5944   26.7036 O   0  0  0  0  0  0  0  0  0  0  0  0
    9.0194  -15.2625   27.3690 O   0  0  0  0  0  0  0  0  0  0  0  0
  1  2  1  0
  2  4  1  0
  2  3  2  0
  4  5  1  0
  5  6  1  0
  6  8  1  0
  6  7  1  6
  8 10  1  0
  8  9  2  0
 10 11  1  0
 11 12  1  1
 11 18  1  0
 13 12  1  0
 13 14  2  0
 15 14  1  0
 16 15  1  0
 17 16  2  0
 17 13  1  0
 18 19  2  0
 21 20  1  6
 21 23  1  0
 21 22  1  0
 24 23  1  1
 24 26  1  0
 25 24  1  0
 25 18  1  0
 26 28  1  0
 27 26  2  0
M  END
$$$$
