QHL.pdb
     RDKit          3D

 28 28  0  0  1  0  0  0  0  0999 V2000
    9.2378  -22.8081   20.4015 N   0  0  0  0  0  0  0  0  0  0  0  0
    7.9502  -22.2338   20.4727 C   0  0  0  0  0  0  0  0  0  0  0  0
    7.0622  -22.7049   19.7341 O   0  0  0  0  0  0  0  0  0  0  0  0
    7.6694  -21.1072   21.3971 C   0  0  0  0  0  0  0  0  0  0  0  0
    8.8654  -20.6462   22.1653 C   0  0  0  0  0  0  0  0  0  0  0  0
    8.6090  -19.5234   23.1362 C   0  0  2  0  0  0  0  0  0  0  0  0
    7.1304  -19.5429   23.3124 N   0  0  0  0  0  0  0  0  0  0  0  0
    8.9433  -18.1795   22.6029 C   0  0  0  0  0  0  0  0  0  0  0  0
   10.1693  -17.8542   22.3960 O   0  0  0  0  0  0  0  0  0  0  0  0
    8.0016  -17.1699   22.2784 N   0  0  0  0  0  0  0  0  0  0  0  0
    8.4574  -15.8787   21.7436 C   0  0  1  0  0  0  0  0  0  0  0  0
    7.5513  -15.4476   20.6413 C   0  0  0  0  0  0  0  0  0  0  0  0
    7.9748  -14.2664   19.8696 C   0  0  0  0  0  0  0  0  0  0  0  0
    7.8372  -12.9293   20.2960 C   0  0  0  0  0  0  0  0  0  0  0  0
    8.3191  -12.1151   19.3623 N   0  0  0  0  0  0  0  0  0  0  0  0
    8.7642  -12.8485   18.3490 C   0  0  0  0  0  0  0  0  0  0  0  0
    8.5523  -14.1242   18.6661 N   0  0  0  0  0  0  0  0  0  0  0  0
    8.4724  -14.8625   22.8107 C   0  0  0  0  0  0  0  0  0  0  0  0
    8.2387  -13.6748   22.5027 O   0  0  0  0  0  0  0  0  0  0  0  0
    6.5346  -13.1778   27.4671 C   0  0  0  0  0  0  0  0  0  0  0  0
    6.7789  -12.5660   26.1038 C   0  0  1  0  0  0  0  0  0  0  0  0
    8.0122  -11.6493   26.2916 C   0  0  0  0  0  0  0  0  0  0  0  0
    7.0698  -13.6033   25.0616 C   0  0  0  0  0  0  0  0  0  0  0  0
    8.4725  -14.0916   25.1660 C   0  0  2  0  0  0  0  0  0  0  0  0
    8.7357  -15.1501   24.1767 N   0  0  0  0  0  0  0  0  0  0  0  0
    8.7274  -14.6761   26.4950 C   0  0  0  0  0  0  0  0  0  0  0  0
    9.0717  -14.0087   27.5074 O   0  0  0  0  0  0  0  0  0  0  0  0
    8.5791  -16.0682   26.6531 O   0  0  0  0  0  0  0  0  0  0  0  0
  1  2  1  0
  2  4  1  0
  2  3  2  0
  4  5  1  0
  5  6  1  0
  6  8  1  0
  6  7  1  6
  8 10  1  0
  8  9  2  0
 10 11  1  0
 11 12  1  6
 11 18  1  0
 13 12  1  0
 13 14  2  0
 15 14  1  0
 16 15  1  0
 17 16  2  0
 17 13  1  0
 18 19  2  0
 21 20  1  1
 21 23  1  0
 21 22  1  0
 24 23  1  1
 24 26  1  0
 25 24  1  0
 25 18  1  0
 26 28  1  0
 27 26  2  0
M  END
$$$$
