QHL.pdb
     RDKit          3D

 28 28  0  0  1  0  0  0  0  0999 V2000
    8.3567  -12.6206   18.9836 N   0  0  0  0  0  0  0  0  0  0  0  0
    8.2651  -13.7880   18.1953 C   0  0  0  0  0  0  0  0  0  0  0  0
    8.7206  -13.7430   17.0350 O   0  0  0  0  0  0  0  0  0  0  0  0
    7.6459  -15.0242   18.7351 C   0  0  0  0  0  0  0  0  0  0  0  0
    8.6343  -16.0065   19.2749 C   0  0  0  0  0  0  0  0  0  0  0  0
    8.0387  -17.2696   19.8395 C   0  0  2  0  0  0  0  0  0  0  0  0
    6.8540  -17.5171   18.9717 N   0  0  0  0  0  0  0  0  0  0  0  0
    7.5150  -17.1223   21.2202 C   0  0  0  0  0  0  0  0  0  0  0  0
    6.2515  -17.0008   21.4214 O   0  0  0  0  0  0  0  0  0  0  0  0
    8.3049  -17.1054   22.3981 N   0  0  0  0  0  0  0  0  0  0  0  0
    7.6615  -17.1299   23.7196 C   0  0  1  0  0  0  0  0  0  0  0  0
    8.1675  -18.2955   24.4989 C   0  0  0  0  0  0  0  0  0  0  0  0
    7.3597  -19.5259   24.4357 C   0  0  0  0  0  0  0  0  0  0  0  0
    7.6338  -20.6320   23.6051 C   0  0  0  0  0  0  0  0  0  0  0  0
    6.7096  -21.5682   23.7955 N   0  0  0  0  0  0  0  0  0  0  0  0
    5.8466  -21.1332   24.7060 C   0  0  0  0  0  0  0  0  0  0  0  0
    6.2470  -19.9185   25.0760 N   0  0  0  0  0  0  0  0  0  0  0  0
    7.9412  -15.8783   24.4453 C   0  0  0  0  0  0  0  0  0  0  0  0
    9.0615  -15.3454   24.3000 O   0  0  0  0  0  0  0  0  0  0  0  0
    6.8257  -11.8875   28.1020 C   0  0  0  0  0  0  0  0  0  0  0  0
    6.4052  -11.7674   26.6524 C   0  0  1  0  0  0  0  0  0  0  0  0
    7.6220  -11.1356   25.9336 C   0  0  0  0  0  0  0  0  0  0  0  0
    6.0889  -13.0996   26.0424 C   0  0  0  0  0  0  0  0  0  0  0  0
    7.3309  -13.8741   25.7691 C   0  0  2  0  0  0  0  0  0  0  0  0
    7.0108  -15.2341   25.3039 N   0  0  0  0  0  0  0  0  0  0  0  0
    8.1384  -14.0206   26.9937 C   0  0  0  0  0  0  0  0  0  0  0  0
    8.8260  -13.0949   27.5029 O   0  0  0  0  0  0  0  0  0  0  0  0
    8.1482  -15.2709   27.6429 O   0  0  0  0  0  0  0  0  0  0  0  0
  1  2  1  0
  2  4  1  0
  2  3  2  0
  4  5  1  0
  5  6  1  0
  6  8  1  0
  6  7  1  6
  8 10  1  0
  8  9  2  0
 10 11  1  0
 11 12  1  1
 11 18  1  0
 13 12  1  0
 13 14  2  0
 15 14  1  0
 16 15  1  0
 17 16  2  0
 17 13  1  0
 18 19  2  0
 21 20  1  1
 21 23  1  0
 21 22  1  0
 24 23  1  1
 24 26  1  0
 25 24  1  0
 25 18  1  0
 26 28  1  0
 27 26  2  0
M  END
$$$$
