QHL.pdb
     RDKit          3D

 28 28  0  0  1  0  0  0  0  0999 V2000
    8.3944  -12.5047   17.7156 N   0  0  0  0  0  0  0  0  0  0  0  0
    8.0131  -13.6000   16.9109 C   0  0  0  0  0  0  0  0  0  0  0  0
    8.2227  -13.5204   15.6839 O   0  0  0  0  0  0  0  0  0  0  0  0
    7.3840  -14.8028   17.5111 C   0  0  0  0  0  0  0  0  0  0  0  0
    7.1988  -14.7104   18.9911 C   0  0  0  0  0  0  0  0  0  0  0  0
    8.4724  -14.6559   19.7935 C   0  0  2  0  0  0  0  0  0  0  0  0
    9.4287  -15.4660   18.9891 N   0  0  0  0  0  0  0  0  0  0  0  0
    8.3784  -15.3221   21.1163 C   0  0  0  0  0  0  0  0  0  0  0  0
    7.3622  -15.1108   21.8742 O   0  0  0  0  0  0  0  0  0  0  0  0
    9.3404  -16.2150   21.6536 N   0  0  0  0  0  0  0  0  0  0  0  0
    9.0969  -16.8739   22.9449 C   0  0  1  0  0  0  0  0  0  0  0  0
   10.0425  -18.0145   23.1088 C   0  0  0  0  0  0  0  0  0  0  0  0
    9.9230  -18.7901   24.3556 C   0  0  0  0  0  0  0  0  0  0  0  0
    8.7133  -19.2754   24.8940 C   0  0  0  0  0  0  0  0  0  0  0  0
    8.9628  -19.9306   26.0232 N   0  0  0  0  0  0  0  0  0  0  0  0
   10.2704  -19.8996   26.2514 C   0  0  0  0  0  0  0  0  0  0  0  0
   10.8263  -19.2184   25.2516 N   0  0  0  0  0  0  0  0  0  0  0  0
    9.2706  -15.9123   24.0479 C   0  0  0  0  0  0  0  0  0  0  0  0
   10.2828  -15.1806   24.0438 O   0  0  0  0  0  0  0  0  0  0  0  0
    5.7675  -12.2039   25.8634 C   0  0  0  0  0  0  0  0  0  0  0  0
    7.0552  -12.9223   25.5191 C   0  0  1  0  0  0  0  0  0  0  0  0
    8.1480  -11.8266   25.5599 C   0  0  0  0  0  0  0  0  0  0  0  0
    7.3814  -14.0034   26.5048 C   0  0  0  0  0  0  0  0  0  0  0  0
    8.6300  -14.7194   26.1236 C   0  0  2  0  0  0  0  0  0  0  0  0
    8.3529  -15.7626   25.1219 N   0  0  0  0  0  0  0  0  0  0  0  0
    9.2249  -15.3954   27.2907 C   0  0  0  0  0  0  0  0  0  0  0  0
    9.8757  -14.8051   28.1947 O   0  0  0  0  0  0  0  0  0  0  0  0
    9.0605  -16.7893   27.4120 O   0  0  0  0  0  0  0  0  0  0  0  0
  1  2  1  0
  2  4  1  0
  2  3  2  0
  4  5  1  0
  5  6  1  0
  6  8  1  0
  6  7  1  6
  8 10  1  0
  8  9  2  0
 10 11  1  0
 11 12  1  1
 11 18  1  0
 13 12  1  0
 13 14  2  0
 15 14  1  0
 16 15  1  0
 17 16  2  0
 17 13  1  0
 18 19  2  0
 21 20  1  1
 21 23  1  0
 21 22  1  0
 24 23  1  1
 24 26  1  0
 25 24  1  0
 25 18  1  0
 26 28  1  0
 27 26  2  0
M  END
$$$$
