QHL.pdb
     RDKit          3D

 28 28  0  0  1  0  0  0  0  0999 V2000
   15.5224  -13.3867   18.8184 N   0  0  0  0  0  0  0  0  0  0  0  0
   14.7682  -14.5272   18.4674 C   0  0  0  0  0  0  0  0  0  0  0  0
   14.6990  -14.8288   17.2590 O   0  0  0  0  0  0  0  0  0  0  0  0
   14.0827  -15.3356   19.5063 C   0  0  0  0  0  0  0  0  0  0  0  0
   12.6807  -14.8978   19.7821 C   0  0  0  0  0  0  0  0  0  0  0  0
   12.1198  -15.3435   21.1071 C   0  0  2  0  0  0  0  0  0  0  0  0
   11.7467  -16.7655   20.8696 N   0  0  0  0  0  0  0  0  0  0  0  0
   10.8675  -14.6477   21.4944 C   0  0  0  0  0  0  0  0  0  0  0  0
   10.8877  -13.3949   21.7807 O   0  0  0  0  0  0  0  0  0  0  0  0
    9.5877  -15.2526   21.5807 N   0  0  0  0  0  0  0  0  0  0  0  0
    8.4376  -14.4813   22.0739 C   0  0  1  0  0  0  0  0  0  0  0  0
    7.2295  -14.8167   21.2677 C   0  0  0  0  0  0  0  0  0  0  0  0
    7.2970  -14.5104   19.8283 C   0  0  0  0  0  0  0  0  0  0  0  0
    8.3906  -13.8984   19.1816 C   0  0  0  0  0  0  0  0  0  0  0  0
    8.1227  -13.7687   17.8862 N   0  0  0  0  0  0  0  0  0  0  0  0
    6.9129  -14.2631   17.6518 C   0  0  0  0  0  0  0  0  0  0  0  0
    6.4361  -14.6996   18.8158 N   0  0  0  0  0  0  0  0  0  0  0  0
    8.1946  -14.7825   23.4958 C   0  0  0  0  0  0  0  0  0  0  0  0
    7.0145  -14.9255   23.8791 O   0  0  0  0  0  0  0  0  0  0  0  0
    5.9804  -12.5659   26.6516 C   0  0  0  0  0  0  0  0  0  0  0  0
    7.3298  -13.0274   26.1430 C   0  0  1  0  0  0  0  0  0  0  0  0
    8.3510  -12.4948   27.1773 C   0  0  0  0  0  0  0  0  0  0  0  0
    7.4225  -14.5211   26.0588 C   0  0  0  0  0  0  0  0  0  0  0  0
    8.8336  -14.9630   25.8835 C   0  0  2  0  0  0  0  0  0  0  0  0
    9.2243  -14.9235   24.4642 N   0  0  0  0  0  0  0  0  0  0  0  0
    9.0079  -16.3550   26.3359 C   0  0  0  0  0  0  0  0  0  0  0  0
    9.0837  -16.7018   27.5455 O   0  0  0  0  0  0  0  0  0  0  0  0
    9.0962  -17.3689   25.3617 O   0  0  0  0  0  0  0  0  0  0  0  0
  1  2  1  0
  2  4  1  0
  2  3  2  0
  4  5  1  0
  5  6  1  0
  6  8  1  0
  6  7  1  6
  8 10  1  0
  8  9  2  0
 10 11  1  0
 11 12  1  6
 11 18  1  0
 13 12  1  0
 13 14  2  0
 15 14  1  0
 16 15  1  0
 17 16  2  0
 17 13  1  0
 18 19  2  0
 21 20  1  1
 21 23  1  0
 21 22  1  0
 24 23  1  6
 24 26  1  0
 25 24  1  0
 25 18  1  0
 26 28  1  0
 27 26  2  0
M  END
$$$$
