QHL.pdb
     RDKit          3D

 28 28  0  0  1  0  0  0  0  0999 V2000
   12.0862  -13.9560   17.9014 N   0  0  0  0  0  0  0  0  0  0  0  0
   11.7225  -13.5568   19.2057 C   0  0  0  0  0  0  0  0  0  0  0  0
   12.5576  -13.7205   20.1176 O   0  0  0  0  0  0  0  0  0  0  0  0
   10.3893  -12.9633   19.4759 C   0  0  0  0  0  0  0  0  0  0  0  0
    9.2917  -13.5446   18.6449 C   0  0  0  0  0  0  0  0  0  0  0  0
    9.0912  -15.0297   18.7973 C   0  0  2  0  0  0  0  0  0  0  0  0
    7.9191  -15.3168   17.9247 N   0  0  0  0  0  0  0  0  0  0  0  0
    8.6980  -15.4459   20.1664 C   0  0  0  0  0  0  0  0  0  0  0  0
    7.5246  -15.1704   20.6124 O   0  0  0  0  0  0  0  0  0  0  0  0
    9.5239  -16.1549   21.0756 N   0  0  0  0  0  0  0  0  0  0  0  0
    8.9553  -16.7084   22.3131 C   0  0  1  0  0  0  0  0  0  0  0  0
    9.7120  -17.9310   22.7063 C   0  0  0  0  0  0  0  0  0  0  0  0
    9.3596  -19.1747   21.9997 C   0  0  0  0  0  0  0  0  0  0  0  0
    8.3586  -19.2890   21.0130 C   0  0  0  0  0  0  0  0  0  0  0  0
    8.3014  -20.5459   20.5842 N   0  0  0  0  0  0  0  0  0  0  0  0
    9.2112  -21.2587   21.2377 C   0  0  0  0  0  0  0  0  0  0  0  0
    9.8311  -20.4294   22.0747 N   0  0  0  0  0  0  0  0  0  0  0  0
    9.0167  -15.7081   23.3935 C   0  0  0  0  0  0  0  0  0  0  0  0
   10.0383  -14.9955   23.4855 O   0  0  0  0  0  0  0  0  0  0  0  0
    8.0668  -11.5818   26.4042 C   0  0  0  0  0  0  0  0  0  0  0  0
    7.2108  -12.7606   26.8168 C   0  0  1  0  0  0  0  0  0  0  0  0
    5.8599  -12.1418   27.2511 C   0  0  0  0  0  0  0  0  0  0  0  0
    6.9907  -13.7229   25.6888 C   0  0  0  0  0  0  0  0  0  0  0  0
    8.2170  -14.5227   25.4176 C   0  0  2  0  0  0  0  0  0  0  0  0
    7.9798  -15.5001   24.3420 N   0  0  0  0  0  0  0  0  0  0  0  0
    8.6182  -15.2896   26.6108 C   0  0  0  0  0  0  0  0  0  0  0  0
    8.2486  -16.4707   26.8502 O   0  0  0  0  0  0  0  0  0  0  0  0
    9.4685  -14.6713   27.5486 O   0  0  0  0  0  0  0  0  0  0  0  0
  1  2  1  0
  2  4  1  0
  2  3  2  0
  4  5  1  0
  5  6  1  0
  6  8  1  0
  6  7  1  6
  8 10  1  0
  8  9  2  0
 10 11  1  0
 11 12  1  1
 11 18  1  0
 13 12  1  0
 13 14  2  0
 15 14  1  0
 16 15  1  0
 17 16  2  0
 17 13  1  0
 18 19  2  0
 21 20  1  6
 21 23  1  0
 21 22  1  0
 24 23  1  1
 24 26  1  0
 25 24  1  0
 25 18  1  0
 26 28  1  0
 27 26  2  0
M  END
$$$$
