QHL.pdb
     RDKit          3D

 28 28  0  0  1  0  0  0  0  0999 V2000
    7.3351  -12.4879   16.6910 N   0  0  0  0  0  0  0  0  0  0  0  0
    7.9423  -13.7069   16.3193 C   0  0  0  0  0  0  0  0  0  0  0  0
    8.0451  -13.9573   15.1017 O   0  0  0  0  0  0  0  0  0  0  0  0
    8.4390  -14.6545   17.3479 C   0  0  0  0  0  0  0  0  0  0  0  0
    8.1135  -14.2478   18.7486 C   0  0  0  0  0  0  0  0  0  0  0  0
    9.2026  -14.5005   19.7581 C   0  0  2  0  0  0  0  0  0  0  0  0
   10.0690  -15.5129   19.0934 N   0  0  0  0  0  0  0  0  0  0  0  0
    8.7236  -15.1285   21.0145 C   0  0  0  0  0  0  0  0  0  0  0  0
    7.6160  -14.7485   21.5442 O   0  0  0  0  0  0  0  0  0  0  0  0
    9.3940  -16.1585   21.7224 N   0  0  0  0  0  0  0  0  0  0  0  0
    8.8005  -16.7235   22.9428 C   0  0  1  0  0  0  0  0  0  0  0  0
    9.3119  -18.1080   23.1512 C   0  0  0  0  0  0  0  0  0  0  0  0
    8.6759  -19.1685   22.3506 C   0  0  0  0  0  0  0  0  0  0  0  0
    7.5751  -18.9821   21.4891 C   0  0  0  0  0  0  0  0  0  0  0  0
    7.2540  -20.1415   20.9240 N   0  0  0  0  0  0  0  0  0  0  0  0
    8.0858  -21.0754   21.3700 C   0  0  0  0  0  0  0  0  0  0  0  0
    8.9242  -20.4810   22.2165 N   0  0  0  0  0  0  0  0  0  0  0  0
    9.1323  -15.8827   24.1066 C   0  0  0  0  0  0  0  0  0  0  0  0
   10.3010  -15.4564   24.2171 O   0  0  0  0  0  0  0  0  0  0  0  0
    5.9610  -11.9950   26.1874 C   0  0  0  0  0  0  0  0  0  0  0  0
    7.1459  -12.8136   25.7200 C   0  0  1  0  0  0  0  0  0  0  0  0
    8.2750  -11.7823   25.4794 C   0  0  0  0  0  0  0  0  0  0  0  0
    7.5819  -13.8156   26.7460 C   0  0  0  0  0  0  0  0  0  0  0  0
    8.6782  -14.6773   26.2238 C   0  0  2  0  0  0  0  0  0  0  0  0
    8.2005  -15.5225   25.1166 N   0  0  0  0  0  0  0  0  0  0  0  0
    9.1755  -15.5869   27.2718 C   0  0  0  0  0  0  0  0  0  0  0  0
    8.8843  -16.8113   27.3426 O   0  0  0  0  0  0  0  0  0  0  0  0
   10.0313  -15.0634   28.2610 O   0  0  0  0  0  0  0  0  0  0  0  0
  1  2  1  0
  2  4  1  0
  2  3  2  0
  4  5  1  0
  5  6  1  0
  6  8  1  0
  6  7  1  6
  8 10  1  0
  8  9  2  0
 10 11  1  0
 11 12  1  1
 11 18  1  0
 13 12  1  0
 13 14  2  0
 15 14  1  0
 16 15  1  0
 17 16  2  0
 17 13  1  0
 18 19  2  0
 21 20  1  1
 21 23  1  0
 21 22  1  0
 24 23  1  1
 24 26  1  0
 25 24  1  0
 25 18  1  0
 26 28  1  0
 27 26  2  0
M  END
$$$$
