QHL.pdb
     RDKit          3D

 28 28  0  0  1  0  0  0  0  0999 V2000
    8.6245  -12.1051   18.8552 N   0  0  0  0  0  0  0  0  0  0  0  0
    8.4474  -13.2470   18.0443 C   0  0  0  0  0  0  0  0  0  0  0  0
    8.7955  -13.1706   16.8490 O   0  0  0  0  0  0  0  0  0  0  0  0
    7.8654  -14.4934   18.6017 C   0  0  0  0  0  0  0  0  0  0  0  0
    8.8862  -15.4623   19.1041 C   0  0  0  0  0  0  0  0  0  0  0  0
    8.3282  -16.7217   19.7136 C   0  0  2  0  0  0  0  0  0  0  0  0
    6.9658  -16.8243   19.1210 N   0  0  0  0  0  0  0  0  0  0  0  0
    8.1342  -16.6437   21.1828 C   0  0  0  0  0  0  0  0  0  0  0  0
    6.9500  -16.5476   21.6729 O   0  0  0  0  0  0  0  0  0  0  0  0
    9.1726  -16.6701   22.1484 N   0  0  0  0  0  0  0  0  0  0  0  0
    8.8736  -17.0145   23.5458 C   0  0  1  0  0  0  0  0  0  0  0  0
    9.7144  -18.1718   23.9650 C   0  0  0  0  0  0  0  0  0  0  0  0
    9.2235  -19.5086   23.5878 C   0  0  0  0  0  0  0  0  0  0  0  0
    8.0089  -19.7655   22.9190 C   0  0  0  0  0  0  0  0  0  0  0  0
    7.8737  -21.0749   22.7343 N   0  0  0  0  0  0  0  0  0  0  0  0
    8.9348  -21.6871   23.2465 C   0  0  0  0  0  0  0  0  0  0  0  0
    9.7268  -20.7425   23.7496 N   0  0  0  0  0  0  0  0  0  0  0  0
    9.1338  -15.8585   24.4219 C   0  0  0  0  0  0  0  0  0  0  0  0
   10.2189  -15.2524   24.2985 O   0  0  0  0  0  0  0  0  0  0  0  0
    5.3300  -12.4717   26.6141 C   0  0  0  0  0  0  0  0  0  0  0  0
    6.5373  -13.1067   25.9569 C   0  0  1  0  0  0  0  0  0  0  0  0
    7.1999  -11.9649   25.1486 C   0  0  0  0  0  0  0  0  0  0  0  0
    7.5086  -13.6494   26.9614 C   0  0  0  0  0  0  0  0  0  0  0  0
    8.6687  -14.2987   26.2907 C   0  0  2  0  0  0  0  0  0  0  0  0
    8.2220  -15.3856   25.4032 N   0  0  0  0  0  0  0  0  0  0  0  0
    9.5775  -14.9027   27.2818 C   0  0  0  0  0  0  0  0  0  0  0  0
    9.5426  -16.1143   27.6279 O   0  0  0  0  0  0  0  0  0  0  0  0
   10.5501  -14.0814   27.8854 O   0  0  0  0  0  0  0  0  0  0  0  0
  1  2  1  0
  2  4  1  0
  2  3  2  0
  4  5  1  0
  5  6  1  0
  6  8  1  0
  6  7  1  6
  8 10  1  0
  8  9  2  0
 10 11  1  0
 11 12  1  1
 11 18  1  0
 13 12  1  0
 13 14  2  0
 15 14  1  0
 16 15  1  0
 17 16  2  0
 17 13  1  0
 18 19  2  0
 21 20  1  1
 21 23  1  0
 21 22  1  0
 24 23  1  1
 24 26  1  0
 25 24  1  0
 25 18  1  0
 26 28  1  0
 27 26  2  0
M  END
$$$$
