QHL.pdb
     RDKit          3D

 28 28  0  0  1  0  0  0  0  0999 V2000
    7.0795  -12.7459   16.2541 N   0  0  0  0  0  0  0  0  0  0  0  0
    7.7149  -13.9884   16.0417 C   0  0  0  0  0  0  0  0  0  0  0  0
    7.6521  -14.4854   14.8994 O   0  0  0  0  0  0  0  0  0  0  0  0
    8.4317  -14.6750   17.1451 C   0  0  0  0  0  0  0  0  0  0  0  0
    8.2971  -13.9921   18.4675 C   0  0  0  0  0  0  0  0  0  0  0  0
    9.4385  -14.2183   19.4240 C   0  0  2  0  0  0  0  0  0  0  0  0
   10.3612  -15.1073   18.6651 N   0  0  0  0  0  0  0  0  0  0  0  0
    9.0580  -14.9668   20.6477 C   0  0  0  0  0  0  0  0  0  0  0  0
    7.9496  -14.7071   21.2441 O   0  0  0  0  0  0  0  0  0  0  0  0
    9.8283  -15.9923   21.2530 N   0  0  0  0  0  0  0  0  0  0  0  0
    9.3565  -16.6416   22.4845 C   0  0  1  0  0  0  0  0  0  0  0  0
   10.2221  -17.8154   22.7924 C   0  0  0  0  0  0  0  0  0  0  0  0
    9.9530  -19.0459   22.0284 C   0  0  0  0  0  0  0  0  0  0  0  0
    8.9494  -19.1863   21.0477 C   0  0  0  0  0  0  0  0  0  0  0  0
    8.9794  -20.4214   20.5574 N   0  0  0  0  0  0  0  0  0  0  0  0
    9.9486  -21.0954   21.1651 C   0  0  0  0  0  0  0  0  0  0  0  0
   10.5171  -20.2641   22.0359 N   0  0  0  0  0  0  0  0  0  0  0  0
    9.3841  -15.6865   23.6063 C   0  0  0  0  0  0  0  0  0  0  0  0
   10.4757  -15.4666   24.1721 O   0  0  0  0  0  0  0  0  0  0  0  0
    8.2384  -11.7556   27.0129 C   0  0  0  0  0  0  0  0  0  0  0  0
    7.1953  -12.8532   27.0095 C   0  0  1  0  0  0  0  0  0  0  0  0
    5.8599  -12.1372   27.3267 C   0  0  0  0  0  0  0  0  0  0  0  0
    7.1011  -13.5406   25.6808 C   0  0  0  0  0  0  0  0  0  0  0  0
    8.3675  -14.2516   25.3526 C   0  0  2  0  0  0  0  0  0  0  0  0
    8.2408  -14.9940   24.0872 N   0  0  0  0  0  0  0  0  0  0  0  0
    8.7008  -15.2387   26.3954 C   0  0  0  0  0  0  0  0  0  0  0  0
    9.6515  -15.1105   27.2132 O   0  0  0  0  0  0  0  0  0  0  0  0
    7.9123  -16.4022   26.4916 O   0  0  0  0  0  0  0  0  0  0  0  0
  1  2  1  0
  2  4  1  0
  2  3  2  0
  4  5  1  0
  5  6  1  0
  6  8  1  0
  6  7  1  6
  8 10  1  0
  8  9  2  0
 10 11  1  0
 11 12  1  1
 11 18  1  0
 13 12  1  0
 13 14  2  0
 15 14  1  0
 16 15  1  0
 17 16  2  0
 17 13  1  0
 18 19  2  0
 21 20  1  6
 21 23  1  0
 21 22  1  0
 24 23  1  1
 24 26  1  0
 25 24  1  0
 25 18  1  0
 26 28  1  0
 27 26  2  0
M  END
$$$$
