QHL.pdb
     RDKit          3D

 28 28  0  0  1  0  0  0  0  0999 V2000
    9.3596  -13.2398   16.6507 N   0  0  0  0  0  0  0  0  0  0  0  0
    9.3065  -12.7424   17.9708 C   0  0  0  0  0  0  0  0  0  0  0  0
   10.3841  -12.6040   18.5834 O   0  0  0  0  0  0  0  0  0  0  0  0
    8.0084  -12.3980   18.6025 C   0  0  0  0  0  0  0  0  0  0  0  0
    7.6966  -13.2089   19.8185 C   0  0  0  0  0  0  0  0  0  0  0  0
    7.9999  -14.6797   19.7022 C   0  0  2  0  0  0  0  0  0  0  0  0
    6.8672  -15.2086   18.8930 N   0  0  0  0  0  0  0  0  0  0  0  0
    7.9576  -15.4063   20.9955 C   0  0  0  0  0  0  0  0  0  0  0  0
    6.8334  -15.6114   21.5837 O   0  0  0  0  0  0  0  0  0  0  0  0
    9.0856  -15.9266   21.6797 N   0  0  0  0  0  0  0  0  0  0  0  0
    8.9076  -16.6970   22.9189 C   0  0  1  0  0  0  0  0  0  0  0  0
    9.8239  -17.8728   22.9111 C   0  0  0  0  0  0  0  0  0  0  0  0
    9.9016  -18.6506   24.1598 C   0  0  0  0  0  0  0  0  0  0  0  0
   11.0535  -18.7781   24.9634 C   0  0  0  0  0  0  0  0  0  0  0  0
   10.7786  -19.5473   26.0120 N   0  0  0  0  0  0  0  0  0  0  0  0
    9.5092  -19.9292   25.9367 C   0  0  0  0  0  0  0  0  0  0  0  0
    9.0025  -19.3880   24.8307 N   0  0  0  0  0  0  0  0  0  0  0  0
    9.1866  -15.8481   24.0907 C   0  0  0  0  0  0  0  0  0  0  0  0
   10.2794  -15.2453   24.1405 O   0  0  0  0  0  0  0  0  0  0  0  0
    5.7572  -12.3708   26.5397 C   0  0  0  0  0  0  0  0  0  0  0  0
    7.0148  -13.0134   25.9935 C   0  0  1  0  0  0  0  0  0  0  0  0
    8.0513  -11.8659   25.9202 C   0  0  0  0  0  0  0  0  0  0  0  0
    7.5259  -14.1049   26.8848 C   0  0  0  0  0  0  0  0  0  0  0  0
    8.7012  -14.7883   26.2777 C   0  0  2  0  0  0  0  0  0  0  0  0
    8.2847  -15.6691   25.1735 N   0  0  0  0  0  0  0  0  0  0  0  0
    9.3833  -15.6397   27.2691 C   0  0  0  0  0  0  0  0  0  0  0  0
    9.2149  -16.8850   27.3678 O   0  0  0  0  0  0  0  0  0  0  0  0
   10.2824  -15.0316   28.1673 O   0  0  0  0  0  0  0  0  0  0  0  0
  1  2  1  0
  2  4  1  0
  2  3  2  0
  4  5  1  0
  5  6  1  0
  6  8  1  0
  6  7  1  6
  8 10  1  0
  8  9  2  0
 10 11  1  0
 11 12  1  6
 11 18  1  0
 13 12  1  0
 13 14  2  0
 15 14  1  0
 16 15  1  0
 17 16  2  0
 17 13  1  0
 18 19  2  0
 21 20  1  1
 21 23  1  0
 21 22  1  0
 24 23  1  1
 24 26  1  0
 25 24  1  0
 25 18  1  0
 26 28  1  0
 27 26  2  0
M  END
$$$$
