QHL.pdb
     RDKit          3D

 28 28  0  0  1  0  0  0  0  0999 V2000
   11.4144  -13.7077   17.2258 N   0  0  0  0  0  0  0  0  0  0  0  0
   11.0689  -13.1207   18.4622 C   0  0  0  0  0  0  0  0  0  0  0  0
   11.9124  -13.1605   19.3803 O   0  0  0  0  0  0  0  0  0  0  0  0
    9.7445  -12.4798   18.6567 C   0  0  0  0  0  0  0  0  0  0  0  0
    8.9119  -13.1270   19.7156 C   0  0  0  0  0  0  0  0  0  0  0  0
    8.9880  -14.6307   19.7598 C   0  0  2  0  0  0  0  0  0  0  0  0
    7.9309  -15.0637   18.8045 N   0  0  0  0  0  0  0  0  0  0  0  0
    8.6196  -15.2128   21.0743 C   0  0  0  0  0  0  0  0  0  0  0  0
    7.3968  -15.1918   21.4692 O   0  0  0  0  0  0  0  0  0  0  0  0
    9.5227  -15.8236   21.9813 N   0  0  0  0  0  0  0  0  0  0  0  0
    9.0147  -16.5383   23.1612 C   0  0  1  0  0  0  0  0  0  0  0  0
    9.7197  -17.8449   23.2946 C   0  0  0  0  0  0  0  0  0  0  0  0
    9.3676  -18.8824   22.3098 C   0  0  0  0  0  0  0  0  0  0  0  0
    8.4580  -18.7127   21.2456 C   0  0  0  0  0  0  0  0  0  0  0  0
    8.3727  -19.8432   20.5517 N   0  0  0  0  0  0  0  0  0  0  0  0
    9.1778  -20.7423   21.1053 C   0  0  0  0  0  0  0  0  0  0  0  0
    9.7613  -20.1557   22.1484 N   0  0  0  0  0  0  0  0  0  0  0  0
    9.2204  -15.7281   24.3748 C   0  0  0  0  0  0  0  0  0  0  0  0
   10.3459  -15.2218   24.5669 O   0  0  0  0  0  0  0  0  0  0  0  0
    5.2202  -12.9958   27.1606 C   0  0  0  0  0  0  0  0  0  0  0  0
    6.4978  -13.3850   26.4473 C   0  0  1  0  0  0  0  0  0  0  0  0
    7.2245  -12.0468   26.1690 C   0  0  0  0  0  0  0  0  0  0  0  0
    7.3675  -14.2715   27.2868 C   0  0  0  0  0  0  0  0  0  0  0  0
    8.5805  -14.7001   26.5371 C   0  0  2  0  0  0  0  0  0  0  0  0
    8.2126  -15.4833   25.3456 N   0  0  0  0  0  0  0  0  0  0  0  0
    9.4341  -15.5660   27.3705 C   0  0  0  0  0  0  0  0  0  0  0  0
   10.3172  -15.1385   28.1619 O   0  0  0  0  0  0  0  0  0  0  0  0
    9.2586  -16.9612   27.2838 O   0  0  0  0  0  0  0  0  0  0  0  0
  1  2  1  0
  2  4  1  0
  2  3  2  0
  4  5  1  0
  5  6  1  0
  6  8  1  0
  6  7  1  6
  8 10  1  0
  8  9  2  0
 10 11  1  0
 11 12  1  1
 11 18  1  0
 13 12  1  0
 13 14  2  0
 15 14  1  0
 16 15  1  0
 17 16  2  0
 17 13  1  0
 18 19  2  0
 21 20  1  1
 21 23  1  0
 21 22  1  0
 24 23  1  1
 24 26  1  0
 25 24  1  0
 25 18  1  0
 26 28  1  0
 27 26  2  0
M  END
$$$$
