QHL.pdb
     RDKit          3D

 28 28  0  0  1  0  0  0  0  0999 V2000
    8.0997  -15.5844   16.3354 N   0  0  0  0  0  0  0  0  0  0  0  0
    8.1904  -14.1948   16.1044 C   0  0  0  0  0  0  0  0  0  0  0  0
    8.4792  -13.8149   14.9520 O   0  0  0  0  0  0  0  0  0  0  0  0
    7.9495  -13.2238   17.2007 C   0  0  0  0  0  0  0  0  0  0  0  0
    7.5522  -13.8608   18.4928 C   0  0  0  0  0  0  0  0  0  0  0  0
    8.5912  -13.8020   19.5818 C   0  0  2  0  0  0  0  0  0  0  0  0
    9.7151  -14.6140   19.0385 N   0  0  0  0  0  0  0  0  0  0  0  0
    8.1771  -14.4633   20.8442 C   0  0  0  0  0  0  0  0  0  0  0  0
    7.1183  -14.0733   21.4595 O   0  0  0  0  0  0  0  0  0  0  0  0
    8.8615  -15.5369   21.4689 N   0  0  0  0  0  0  0  0  0  0  0  0
    8.2537  -16.2365   22.6099 C   0  0  1  0  0  0  0  0  0  0  0  0
    8.6448  -17.6746   22.5790 C   0  0  0  0  0  0  0  0  0  0  0  0
    7.9834  -18.5113   21.5628 C   0  0  0  0  0  0  0  0  0  0  0  0
    6.9469  -18.0802   20.7093 C   0  0  0  0  0  0  0  0  0  0  0  0
    6.5796  -19.0829   19.9177 N   0  0  0  0  0  0  0  0  0  0  0  0
    7.3204  -20.1458   20.2082 C   0  0  0  0  0  0  0  0  0  0  0  0
    8.1492  -19.7895   21.1874 N   0  0  0  0  0  0  0  0  0  0  0  0
    8.6915  -15.6220   23.8758 C   0  0  0  0  0  0  0  0  0  0  0  0
    9.8869  -15.2773   23.9862 O   0  0  0  0  0  0  0  0  0  0  0  0
    5.7556  -12.0363   26.5717 C   0  0  0  0  0  0  0  0  0  0  0  0
    6.9279  -12.7882   25.9776 C   0  0  1  0  0  0  0  0  0  0  0  0
    8.0483  -11.7303   25.8293 C   0  0  0  0  0  0  0  0  0  0  0  0
    7.3943  -13.9025   26.8651 C   0  0  0  0  0  0  0  0  0  0  0  0
    8.4086  -14.7486   26.1777 C   0  0  2  0  0  0  0  0  0  0  0  0
    7.8340  -15.3934   24.9850 N   0  0  0  0  0  0  0  0  0  0  0  0
    8.8780  -15.8294   27.0633 C   0  0  0  0  0  0  0  0  0  0  0  0
    8.6050  -17.0488   26.8978 O   0  0  0  0  0  0  0  0  0  0  0  0
    9.6837  -15.4872   28.1673 O   0  0  0  0  0  0  0  0  0  0  0  0
  1  2  1  0
  2  4  1  0
  2  3  2  0
  4  5  1  0
  5  6  1  0
  6  8  1  0
  6  7  1  6
  8 10  1  0
  8  9  2  0
 10 11  1  0
 11 12  1  1
 11 18  1  0
 13 12  1  0
 13 14  2  0
 15 14  1  0
 16 15  1  0
 17 16  2  0
 17 13  1  0
 18 19  2  0
 21 20  1  1
 21 23  1  0
 21 22  1  0
 24 23  1  1
 24 26  1  0
 25 24  1  0
 25 18  1  0
 26 28  1  0
 27 26  2  0
M  END
$$$$
