QHL.pdb
     RDKit          3D

 28 28  0  0  1  0  0  0  0  0999 V2000
    8.9393  -14.1401   15.6009 N   0  0  0  0  0  0  0  0  0  0  0  0
    8.0109  -14.2593   16.6576 C   0  0  0  0  0  0  0  0  0  0  0  0
    7.2869  -15.2747   16.6833 O   0  0  0  0  0  0  0  0  0  0  0  0
    7.9048  -13.2078   17.6996 C   0  0  0  0  0  0  0  0  0  0  0  0
    7.4288  -13.7162   19.0218 C   0  0  0  0  0  0  0  0  0  0  0  0
    8.5172  -14.0750   19.9993 C   0  0  2  0  0  0  0  0  0  0  0  0
    9.2946  -15.1272   19.2879 N   0  0  0  0  0  0  0  0  0  0  0  0
    8.0200  -14.7031   21.2486 C   0  0  0  0  0  0  0  0  0  0  0  0
    7.2478  -14.0458   22.0381 O   0  0  0  0  0  0  0  0  0  0  0  0
    8.3214  -16.0205   21.6789 N   0  0  0  0  0  0  0  0  0  0  0  0
    7.7553  -16.5356   22.9338 C   0  0  1  0  0  0  0  0  0  0  0  0
    8.0471  -17.9926   23.0516 C   0  0  0  0  0  0  0  0  0  0  0  0
    7.4968  -18.6771   24.2344 C   0  0  0  0  0  0  0  0  0  0  0  0
    6.6830  -18.0717   25.2140 C   0  0  0  0  0  0  0  0  0  0  0  0
    6.3633  -18.9697   26.1404 N   0  0  0  0  0  0  0  0  0  0  0  0
    6.9245  -20.1292   25.8186 C   0  0  0  0  0  0  0  0  0  0  0  0
    7.5943  -19.9384   24.6838 N   0  0  0  0  0  0  0  0  0  0  0  0
    8.3256  -15.8125   24.0842 C   0  0  0  0  0  0  0  0  0  0  0  0
    9.5686  -15.7472   24.1875 O   0  0  0  0  0  0  0  0  0  0  0  0
    5.7746  -11.4296   26.0556 C   0  0  0  0  0  0  0  0  0  0  0  0
    6.7650  -12.4477   25.5311 C   0  0  1  0  0  0  0  0  0  0  0  0
    7.8880  -11.6108   24.8717 C   0  0  0  0  0  0  0  0  0  0  0  0
    7.3383  -13.2961   26.6258 C   0  0  0  0  0  0  0  0  0  0  0  0
    8.2462  -14.3408   26.0767 C   0  0  2  0  0  0  0  0  0  0  0  0
    7.5461  -15.1791   25.0889 N   0  0  0  0  0  0  0  0  0  0  0  0
    8.7167  -15.2415   27.1445 C   0  0  0  0  0  0  0  0  0  0  0  0
    8.4033  -16.4593   27.2322 O   0  0  0  0  0  0  0  0  0  0  0  0
    9.5712  -14.7167   28.1340 O   0  0  0  0  0  0  0  0  0  0  0  0
  1  2  1  0
  2  4  1  0
  2  3  2  0
  4  5  1  0
  5  6  1  0
  6  8  1  0
  6  7  1  6
  8 10  1  0
  8  9  2  0
 10 11  1  0
 11 12  1  1
 11 18  1  0
 13 12  1  0
 13 14  2  0
 15 14  1  0
 16 15  1  0
 17 16  2  0
 17 13  1  0
 18 19  2  0
 21 20  1  1
 21 23  1  0
 21 22  1  0
 24 23  1  1
 24 26  1  0
 25 24  1  0
 25 18  1  0
 26 28  1  0
 27 26  2  0
M  END
$$$$
