FYE.pdb
     RDKit          3D

 33 34  0  0  1  0  0  0  0  0999 V2000
    4.9576  -15.4673   21.6616 N   0  0  0  0  0  0  0  0  0  0  0  0
    6.2444  -16.0948   21.5521 C   0  0  1  0  0  0  0  0  0  0  0  0
    6.7753  -16.0582   20.1502 C   0  0  0  0  0  0  0  0  0  0  0  0
    7.1792  -14.6763   19.8135 C   0  0  0  0  0  0  0  0  0  0  0  0
    6.3115  -13.6257   20.0125 C   0  0  0  0  0  0  0  0  0  0  0  0
    6.6614  -12.3299   19.6958 C   0  0  0  0  0  0  0  0  0  0  0  0
    7.9040  -12.0873   19.1707 C   0  0  0  0  0  0  0  0  0  0  0  0
    8.7834  -13.1371   18.9673 C   0  0  0  0  0  0  0  0  0  0  0  0
    8.4234  -14.4286   19.2873 C   0  0  0  0  0  0  0  0  0  0  0  0
    7.1717  -15.5611   22.5718 C   0  0  0  0  0  0  0  0  0  0  0  0
    7.9401  -14.5786   22.3297 O   0  0  0  0  0  0  0  0  0  0  0  0
   11.2408  -14.5038   30.3869 O   0  0  0  0  0  0  0  0  0  0  0  0
   10.3367  -14.7380   29.3562 C   0  0  0  0  0  0  0  0  0  0  0  0
    9.9665  -13.7518   28.4690 C   0  0  0  0  0  0  0  0  0  0  0  0
    9.0747  -13.9665   27.4457 C   0  0  0  0  0  0  0  0  0  0  0  0
    8.4857  -15.2279   27.2512 C   0  0  0  0  0  0  0  0  0  0  0  0
    7.5501  -15.4791   26.1573 C   0  0  0  0  0  0  0  0  0  0  0  0
    8.1822  -15.9047   24.8550 C   0  0  2  0  0  0  0  0  0  0  0  0
    7.1941  -16.1805   23.8559 N   0  0  0  0  0  0  0  0  0  0  0  0
    9.1142  -17.0445   24.9926 C   0  0  0  0  0  0  0  0  0  0  0  0
    8.7585  -18.2270   25.2372 O   0  0  0  0  0  0  0  0  0  0  0  0
    8.8554  -16.2076   28.1341 C   0  0  0  0  0  0  0  0  0  0  0  0
    9.7664  -15.9789   29.1760 C   0  0  0  0  0  0  0  0  0  0  0  0
   10.5360  -16.8713   24.8505 N   0  0  0  0  0  0  0  0  0  0  0  0
   11.4806  -17.9771   24.9702 C   0  0  1  0  0  0  0  0  0  0  0  0
   12.6047  -17.6760   24.0168 C   0  0  0  0  0  0  0  0  0  0  0  0
   13.6740  -18.7099   23.9483 C   0  0  0  0  0  0  0  0  0  0  0  0
   14.7861  -18.4266   23.0424 C   0  0  0  0  0  0  0  0  0  0  0  0
   14.9140  -17.2097   22.6719 O   0  0  0  0  0  0  0  0  0  0  0  0
   11.9560  -18.0838   26.3702 C   0  0  0  0  0  0  0  0  0  0  0  0
   11.7504  -17.1593   27.1873 O   0  0  0  0  0  0  0  0  0  0  0  0
   15.6649  -19.3730   22.5884 O   0  0  0  0  0  0  0  0  0  0  0  0
   12.6381  -19.2075   26.8082 O   0  0  0  0  0  0  0  0  0  0  0  0
  2  1  1  6
  3  2  1  0
  4  5  2  0
  4  3  1  0
  6  5  1  0
  7  6  2  0
  8  7  1  0
  8  9  2  0
  9  4  1  0
 10  2  1  0
 11 10  2  0
 13 12  1  0
 13 14  2  0
 15 14  1  0
 16 15  2  0
 17 16  1  0
 18 17  1  1
 18 19  1  0
 19 10  1  0
 20 18  1  0
 21 20  2  0
 22 23  2  0
 22 16  1  0
 23 13  1  0
 24 20  1  0
 25 24  1  0
 26 27  1  0
 25 26  1  6
 27 28  1  0
 28 32  1  0
 28 29  2  0
 30 25  1  0
 30 33  1  0
 31 30  2  0
M  END
$$$$
