FYE.pdb
     RDKit          3D

 33 34  0  0  1  0  0  0  0  0999 V2000
    8.8490  -15.0879   24.5920 N   0  0  0  0  0  0  0  0  0  0  0  0
    7.7081  -15.8119   25.0777 C   0  0  1  0  0  0  0  0  0  0  0  0
    6.4153  -15.1569   24.6928 C   0  0  0  0  0  0  0  0  0  0  0  0
    6.3607  -13.7983   25.2736 C   0  0  0  0  0  0  0  0  0  0  0  0
    5.7662  -13.5839   26.4970 C   0  0  0  0  0  0  0  0  0  0  0  0
    5.6932  -12.3243   27.0538 C   0  0  0  0  0  0  0  0  0  0  0  0
    6.2269  -11.2638   26.3691 C   0  0  0  0  0  0  0  0  0  0  0  0
    6.8270  -11.4695   25.1384 C   0  0  0  0  0  0  0  0  0  0  0  0
    6.8944  -12.7327   24.5909 C   0  0  0  0  0  0  0  0  0  0  0  0
    7.8036  -17.2403   24.7103 C   0  0  0  0  0  0  0  0  0  0  0  0
    6.9779  -18.1012   25.1478 O   0  0  0  0  0  0  0  0  0  0  0  0
    3.4194  -18.7310   20.5577 O   0  0  0  0  0  0  0  0  0  0  0  0
    4.7517  -18.8802   20.9283 C   0  0  0  0  0  0  0  0  0  0  0  0
    5.7464  -18.0711   20.4256 C   0  0  0  0  0  0  0  0  0  0  0  0
    7.0670  -18.2053   20.7811 C   0  0  0  0  0  0  0  0  0  0  0  0
    7.4745  -19.1943   21.6931 C   0  0  0  0  0  0  0  0  0  0  0  0
    8.8712  -19.3393   22.0968 C   0  0  0  0  0  0  0  0  0  0  0  0
    9.1606  -19.0136   23.5414 C   0  0  2  0  0  0  0  0  0  0  0  0
    8.8601  -17.6464   23.8430 N   0  0  0  0  0  0  0  0  0  0  0  0
   10.5391  -19.3471   23.9600 C   0  0  0  0  0  0  0  0  0  0  0  0
   10.9997  -20.5171   24.0194 O   0  0  0  0  0  0  0  0  0  0  0  0
    6.4839  -19.9977   22.1924 C   0  0  0  0  0  0  0  0  0  0  0  0
    5.1383  -19.8533   21.8233 C   0  0  0  0  0  0  0  0  0  0  0  0
   11.4761  -18.3222   24.3387 N   0  0  0  0  0  0  0  0  0  0  0  0
   12.8962  -18.5887   24.5424 C   0  0  1  0  0  0  0  0  0  0  0  0
   13.6331  -17.4132   23.9606 C   0  0  0  0  0  0  0  0  0  0  0  0
   15.1153  -17.4628   24.0947 C   0  0  0  0  0  0  0  0  0  0  0  0
   15.8533  -16.3523   23.4948 C   0  0  0  0  0  0  0  0  0  0  0  0
   17.1184  -16.3527   23.6791 O   0  0  0  0  0  0  0  0  0  0  0  0
   13.1747  -18.7557   25.9887 C   0  0  0  0  0  0  0  0  0  0  0  0
   14.2813  -19.1871   26.3809 O   0  0  0  0  0  0  0  0  0  0  0  0
   15.2705  -15.3470   22.7711 O   0  0  0  0  0  0  0  0  0  0  0  0
   12.2189  -18.4388   26.9404 O   0  0  0  0  0  0  0  0  0  0  0  0
  2  1  1  6
  3  2  1  0
  4  5  2  0
  4  3  1  0
  6  5  1  0
  7  6  2  0
  8  7  1  0
  8  9  2  0
  9  4  1  0
 10  2  1  0
 11 10  2  0
 13 12  1  0
 13 14  2  0
 15 14  1  0
 16 15  2  0
 17 16  1  0
 18 17  1  6
 18 19  1  0
 19 10  1  0
 20 18  1  0
 21 20  2  0
 22 23  2  0
 22 16  1  0
 23 13  1  0
 24 20  1  0
 25 24  1  0
 26 27  1  0
 25 26  1  1
 27 28  1  0
 28 32  1  0
 28 29  2  0
 30 25  1  0
 30 33  1  0
 31 30  2  0
M  END
$$$$
