FYE.pdb
     RDKit          3D

 33 34  0  0  1  0  0  0  0  0999 V2000
    5.3823  -17.4244   23.9515 N   0  0  0  0  0  0  0  0  0  0  0  0
    6.2134  -16.3318   24.3722 C   0  0  1  0  0  0  0  0  0  0  0  0
    6.2304  -16.1743   25.8634 C   0  0  0  0  0  0  0  0  0  0  0  0
    6.7680  -14.8415   26.2107 C   0  0  0  0  0  0  0  0  0  0  0  0
    8.1149  -14.6685   26.4395 C   0  0  0  0  0  0  0  0  0  0  0  0
    8.6381  -13.4376   26.7758 C   0  0  0  0  0  0  0  0  0  0  0  0
    7.7931  -12.3639   26.8834 C   0  0  0  0  0  0  0  0  0  0  0  0
    6.4374  -12.5281   26.6549 C   0  0  0  0  0  0  0  0  0  0  0  0
    5.9248  -13.7629   26.3195 C   0  0  0  0  0  0  0  0  0  0  0  0
    7.5513  -16.4271   23.7515 C   0  0  0  0  0  0  0  0  0  0  0  0
    8.1617  -17.5360   23.6426 O   0  0  0  0  0  0  0  0  0  0  0  0
    6.8564  -14.1088   16.7894 O   0  0  0  0  0  0  0  0  0  0  0  0
    7.5251  -14.0784   18.0087 C   0  0  0  0  0  0  0  0  0  0  0  0
    8.3870  -15.0803   18.3961 C   0  0  0  0  0  0  0  0  0  0  0  0
    9.0551  -15.0656   19.5969 C   0  0  0  0  0  0  0  0  0  0  0  0
    8.8880  -14.0063   20.5056 C   0  0  0  0  0  0  0  0  0  0  0  0
    9.6045  -13.9648   21.7783 C   0  0  0  0  0  0  0  0  0  0  0  0
    9.4479  -15.1899   22.6451 C   0  0  2  0  0  0  0  0  0  0  0  0
    8.1605  -15.2309   23.2707 N   0  0  0  0  0  0  0  0  0  0  0  0
   10.5199  -15.3450   23.6518 C   0  0  0  0  0  0  0  0  0  0  0  0
   10.9974  -14.3996   24.3321 O   0  0  0  0  0  0  0  0  0  0  0  0
    8.0309  -13.0105   20.1185 C   0  0  0  0  0  0  0  0  0  0  0  0
    7.3529  -13.0343   18.8906 C   0  0  0  0  0  0  0  0  0  0  0  0
   11.1069  -16.6296   23.9297 N   0  0  0  0  0  0  0  0  0  0  0  0
   12.2755  -16.7931   24.7880 C   0  0  1  0  0  0  0  0  0  0  0  0
   11.8081  -17.5608   25.9944 C   0  0  0  0  0  0  0  0  0  0  0  0
   10.8865  -18.6948   25.7081 C   0  0  0  0  0  0  0  0  0  0  0  0
   10.5233  -19.5330   26.8497 C   0  0  0  0  0  0  0  0  0  0  0  0
   11.4951  -19.9971   27.5387 O   0  0  0  0  0  0  0  0  0  0  0  0
   13.3429  -17.5132   24.0534 C   0  0  0  0  0  0  0  0  0  0  0  0
   13.1230  -18.0019   22.9232 O   0  0  0  0  0  0  0  0  0  0  0  0
    9.2346  -19.8332   27.2008 O   0  0  0  0  0  0  0  0  0  0  0  0
   14.6080  -17.6625   24.5984 O   0  0  0  0  0  0  0  0  0  0  0  0
  2  1  1  1
  3  2  1  0
  4  5  2  0
  4  3  1  0
  6  5  1  0
  7  6  2  0
  8  7  1  0
  8  9  2  0
  9  4  1  0
 10  2  1  0
 11 10  2  0
 13 12  1  0
 13 14  2  0
 15 14  1  0
 16 15  2  0
 17 16  1  0
 18 17  1  1
 18 19  1  0
 19 10  1  0
 20 18  1  0
 21 20  2  0
 22 23  2  0
 22 16  1  0
 23 13  1  0
 24 20  1  0
 25 24  1  0
 26 27  1  0
 25 26  1  1
 27 28  1  0
 28 32  1  0
 28 29  2  0
 30 25  1  0
 30 33  1  0
 31 30  2  0
M  END
$$$$
