FYE.pdb
     RDKit          3D

 33 34  0  0  1  0  0  0  0  0999 V2000
    6.9603  -18.7169   26.7613 N   0  0  0  0  0  0  0  0  0  0  0  0
    7.5075  -17.4287   26.4405 C   0  0  1  0  0  0  0  0  0  0  0  0
    8.7234  -17.1100   27.2581 C   0  0  0  0  0  0  0  0  0  0  0  0
    8.7188  -15.6730   27.6062 C   0  0  0  0  0  0  0  0  0  0  0  0
    9.2519  -15.2408   28.8001 C   0  0  0  0  0  0  0  0  0  0  0  0
    9.2490  -13.9073   29.1516 C   0  0  0  0  0  0  0  0  0  0  0  0
    8.7013  -12.9943   28.2885 C   0  0  0  0  0  0  0  0  0  0  0  0
    8.1632  -13.4194   27.0857 C   0  0  0  0  0  0  0  0  0  0  0  0
    8.1712  -14.7547   26.7442 C   0  0  0  0  0  0  0  0  0  0  0  0
    7.6986  -17.2937   24.9811 C   0  0  0  0  0  0  0  0  0  0  0  0
    8.1354  -18.2527   24.2712 O   0  0  0  0  0  0  0  0  0  0  0  0
    8.3852  -12.8223   17.2670 O   0  0  0  0  0  0  0  0  0  0  0  0
    8.0257  -13.2478   18.5415 C   0  0  0  0  0  0  0  0  0  0  0  0
    7.3793  -14.4444   18.7587 C   0  0  0  0  0  0  0  0  0  0  0  0
    7.0171  -14.8792   20.0109 C   0  0  0  0  0  0  0  0  0  0  0  0
    7.2945  -14.1085   21.1534 C   0  0  0  0  0  0  0  0  0  0  0  0
    6.9336  -14.5637   22.4941 C   0  0  0  0  0  0  0  0  0  0  0  0
    7.7812  -15.6850   23.0427 C   0  0  2  0  0  0  0  0  0  0  0  0
    7.3829  -16.0446   24.3704 N   0  0  0  0  0  0  0  0  0  0  0  0
    9.2332  -15.4102   22.9924 C   0  0  0  0  0  0  0  0  0  0  0  0
    9.8505  -14.6980   23.8269 O   0  0  0  0  0  0  0  0  0  0  0  0
    7.9378  -12.9191   20.9356 C   0  0  0  0  0  0  0  0  0  0  0  0
    8.3033  -12.4834   19.6533 C   0  0  0  0  0  0  0  0  0  0  0  0
   10.0640  -15.9574   21.9521 N   0  0  0  0  0  0  0  0  0  0  0  0
   11.5024  -15.7212   21.8859 C   0  0  1  0  0  0  0  0  0  0  0  0
   12.1204  -16.5830   22.9531 C   0  0  0  0  0  0  0  0  0  0  0  0
   11.9058  -18.0475   22.7905 C   0  0  0  0  0  0  0  0  0  0  0  0
   12.5246  -18.9047   23.8004 C   0  0  0  0  0  0  0  0  0  0  0  0
   13.7799  -18.7442   23.9819 O   0  0  0  0  0  0  0  0  0  0  0  0
   12.0075  -16.0654   20.5354 C   0  0  0  0  0  0  0  0  0  0  0  0
   13.2114  -15.8961   20.2409 O   0  0  0  0  0  0  0  0  0  0  0  0
   11.8442  -19.8392   24.5337 O   0  0  0  0  0  0  0  0  0  0  0  0
   11.1613  -16.5822   19.5677 O   0  0  0  0  0  0  0  0  0  0  0  0
  2  1  1  6
  3  2  1  0
  4  5  2  0
  4  3  1  0
  6  5  1  0
  7  6  2  0
  8  7  1  0
  8  9  2  0
  9  4  1  0
 10  2  1  0
 11 10  2  0
 13 12  1  0
 13 14  2  0
 15 14  1  0
 16 15  2  0
 17 16  1  0
 18 17  1  1
 18 19  1  0
 19 10  1  0
 20 18  1  0
 21 20  2  0
 22 23  2  0
 22 16  1  0
 23 13  1  0
 24 20  1  0
 25 24  1  0
 26 27  1  0
 25 26  1  1
 27 28  1  0
 28 32  1  0
 28 29  2  0
 30 25  1  0
 30 33  1  0
 31 30  2  0
M  END
$$$$
