FYE.pdb
     RDKit          3D

 33 34  0  0  1  0  0  0  0  0999 V2000
    7.3799  -15.7260   24.2034 N   0  0  0  0  0  0  0  0  0  0  0  0
    8.4983  -15.3953   25.0409 C   0  0  1  0  0  0  0  0  0  0  0  0
    8.0693  -14.8411   26.3666 C   0  0  0  0  0  0  0  0  0  0  0  0
    7.3014  -13.5957   26.1534 C   0  0  0  0  0  0  0  0  0  0  0  0
    6.0086  -13.4835   26.6142 C   0  0  0  0  0  0  0  0  0  0  0  0
    5.2688  -12.3364   26.4176 C   0  0  0  0  0  0  0  0  0  0  0  0
    5.8386  -11.2856   25.7470 C   0  0  0  0  0  0  0  0  0  0  0  0
    7.1379  -11.3891   25.2802 C   0  0  0  0  0  0  0  0  0  0  0  0
    7.8686  -12.5403   25.4820 C   0  0  0  0  0  0  0  0  0  0  0  0
    9.4371  -16.5336   25.1283 C   0  0  0  0  0  0  0  0  0  0  0  0
   10.4375  -16.5180   25.9114 O   0  0  0  0  0  0  0  0  0  0  0  0
    7.1181  -21.3718   29.3611 O   0  0  0  0  0  0  0  0  0  0  0  0
    7.6555  -21.0641   28.1157 C   0  0  0  0  0  0  0  0  0  0  0  0
    6.9003  -20.4997   27.1117 C   0  0  0  0  0  0  0  0  0  0  0  0
    7.4156  -20.1899   25.8760 C   0  0  0  0  0  0  0  0  0  0  0  0
    8.7650  -20.4389   25.5710 C   0  0  0  0  0  0  0  0  0  0  0  0
    9.3344  -20.0987   24.2691 C   0  0  0  0  0  0  0  0  0  0  0  0
   10.0869  -18.7919   24.2175 C   0  0  2  0  0  0  0  0  0  0  0  0
    9.2003  -17.6705   24.3010 N   0  0  0  0  0  0  0  0  0  0  0  0
   10.9755  -18.6652   23.0424 C   0  0  0  0  0  0  0  0  0  0  0  0
   10.6112  -18.8564   21.8527 O   0  0  0  0  0  0  0  0  0  0  0  0
    9.5146  -20.9998   26.5707 C   0  0  0  0  0  0  0  0  0  0  0  0
    8.9797  -21.3129   27.8291 C   0  0  0  0  0  0  0  0  0  0  0  0
   12.3610  -18.3023   23.1861 N   0  0  0  0  0  0  0  0  0  0  0  0
   13.2512  -18.1223   22.0440 C   0  0  1  0  0  0  0  0  0  0  0  0
   14.1818  -16.9978   22.4083 C   0  0  0  0  0  0  0  0  0  0  0  0
   15.3148  -16.7803   21.4669 C   0  0  0  0  0  0  0  0  0  0  0  0
   16.2645  -15.7311   21.8343 C   0  0  0  0  0  0  0  0  0  0  0  0
   16.4305  -15.5359   23.0869 O   0  0  0  0  0  0  0  0  0  0  0  0
   13.9845  -19.3820   21.7739 C   0  0  0  0  0  0  0  0  0  0  0  0
   14.3446  -19.6755   20.6125 O   0  0  0  0  0  0  0  0  0  0  0  0
   16.9584  -14.9742   20.9290 O   0  0  0  0  0  0  0  0  0  0  0  0
   14.2892  -20.2637   22.7982 O   0  0  0  0  0  0  0  0  0  0  0  0
  2  1  1  1
  3  2  1  0
  4  5  2  0
  4  3  1  0
  6  5  1  0
  7  6  2  0
  8  7  1  0
  8  9  2  0
  9  4  1  0
 10  2  1  0
 11 10  2  0
 13 12  1  0
 13 14  2  0
 15 14  1  0
 16 15  2  0
 17 16  1  0
 18 17  1  6
 18 19  1  0
 19 10  1  0
 20 18  1  0
 21 20  2  0
 22 23  2  0
 22 16  1  0
 23 13  1  0
 24 20  1  0
 25 24  1  0
 26 27  1  0
 25 26  1  1
 27 28  1  0
 28 32  1  0
 28 29  2  0
 30 25  1  0
 30 33  1  0
 31 30  2  0
M  END
$$$$
