FYE.pdb
     RDKit          3D

 33 34  0  0  1  0  0  0  0  0999 V2000
    5.2760  -17.8971   24.6693 N   0  0  0  0  0  0  0  0  0  0  0  0
    6.2536  -16.8557   24.8153 C   0  0  1  0  0  0  0  0  0  0  0  0
    6.5183  -16.5245   26.2536 C   0  0  0  0  0  0  0  0  0  0  0  0
    6.7335  -15.0682   26.3911 C   0  0  0  0  0  0  0  0  0  0  0  0
    5.7266  -14.1803   26.0842 C   0  0  0  0  0  0  0  0  0  0  0  0
    5.9071  -12.8175   26.1938 C   0  0  0  0  0  0  0  0  0  0  0  0
    7.1196  -12.3405   26.6190 C   0  0  0  0  0  0  0  0  0  0  0  0
    8.1379  -13.2255   26.9301 C   0  0  0  0  0  0  0  0  0  0  0  0
    7.9469  -14.5858   26.8169 C   0  0  0  0  0  0  0  0  0  0  0  0
    7.4642  -17.1645   24.0255 C   0  0  0  0  0  0  0  0  0  0  0  0
    7.7296  -18.3459   23.6407 O   0  0  0  0  0  0  0  0  0  0  0  0
    6.3889  -12.6007   18.3749 O   0  0  0  0  0  0  0  0  0  0  0  0
    7.2447  -13.1524   19.3224 C   0  0  0  0  0  0  0  0  0  0  0  0
    7.4356  -12.5775   20.5593 C   0  0  0  0  0  0  0  0  0  0  0  0
    8.2774  -13.1095   21.5063 C   0  0  0  0  0  0  0  0  0  0  0  0
    8.9984  -14.2894   21.2535 C   0  0  0  0  0  0  0  0  0  0  0  0
    9.8833  -14.8793   22.2554 C   0  0  0  0  0  0  0  0  0  0  0  0
    9.4473  -16.2220   22.7882 C   0  0  2  0  0  0  0  0  0  0  0  0
    8.3494  -16.0955   23.6988 N   0  0  0  0  0  0  0  0  0  0  0  0
   10.5442  -17.0011   23.4019 C   0  0  0  0  0  0  0  0  0  0  0  0
   10.8458  -18.1795   23.0776 O   0  0  0  0  0  0  0  0  0  0  0  0
    8.8070  -14.8599   20.0231 C   0  0  0  0  0  0  0  0  0  0  0  0
    7.9456  -14.3094   19.0625 C   0  0  0  0  0  0  0  0  0  0  0  0
   11.3666  -16.4450   24.4440 N   0  0  0  0  0  0  0  0  0  0  0  0
   12.6957  -16.9590   24.7581 C   0  0  1  0  0  0  0  0  0  0  0  0
   13.6369  -16.3245   23.7707 C   0  0  0  0  0  0  0  0  0  0  0  0
   15.0601  -16.7463   23.8881 C   0  0  0  0  0  0  0  0  0  0  0  0
   15.9844  -16.1714   22.9119 C   0  0  0  0  0  0  0  0  0  0  0  0
   16.4936  -15.0394   23.2180 O   0  0  0  0  0  0  0  0  0  0  0  0
   13.0494  -16.6190   26.1569 C   0  0  0  0  0  0  0  0  0  0  0  0
   12.4502  -15.7036   26.7633 O   0  0  0  0  0  0  0  0  0  0  0  0
   16.3162  -16.7696   21.7261 O   0  0  0  0  0  0  0  0  0  0  0  0
   14.0498  -17.3050   26.8266 O   0  0  0  0  0  0  0  0  0  0  0  0
  2  1  1  1
  3  2  1  0
  4  5  2  0
  4  3  1  0
  6  5  1  0
  7  6  2  0
  8  7  1  0
  8  9  2  0
  9  4  1  0
 10  2  1  0
 11 10  2  0
 13 12  1  0
 13 14  2  0
 15 14  1  0
 16 15  2  0
 17 16  1  0
 18 17  1  1
 18 19  1  0
 19 10  1  0
 20 18  1  0
 21 20  2  0
 22 23  2  0
 22 16  1  0
 23 13  1  0
 24 20  1  0
 25 24  1  0
 26 27  1  0
 25 26  1  6
 27 28  1  0
 28 32  1  0
 28 29  2  0
 30 25  1  0
 30 33  1  0
 31 30  2  0
M  END
$$$$
