FYE.pdb
     RDKit          3D

 33 34  0  0  1  0  0  0  0  0999 V2000
    7.4053  -13.2519   23.0140 N   0  0  0  0  0  0  0  0  0  0  0  0
    7.8762  -14.5536   22.6323 C   0  0  1  0  0  0  0  0  0  0  0  0
    8.7081  -14.5121   21.3854 C   0  0  0  0  0  0  0  0  0  0  0  0
    7.9393  -13.8615   20.3030 C   0  0  0  0  0  0  0  0  0  0  0  0
    6.9412  -14.5454   19.6455 C   0  0  0  0  0  0  0  0  0  0  0  0
    6.2181  -13.9637   18.6253 C   0  0  0  0  0  0  0  0  0  0  0  0
    6.5036  -12.6736   18.2611 C   0  0  0  0  0  0  0  0  0  0  0  0
    7.5052  -11.9779   18.9166 C   0  0  0  0  0  0  0  0  0  0  0  0
    8.2220  -12.5689   19.9348 C   0  0  0  0  0  0  0  0  0  0  0  0
    8.5224  -15.2291   23.7770 C   0  0  0  0  0  0  0  0  0  0  0  0
    8.9226  -14.5846   24.7962 O   0  0  0  0  0  0  0  0  0  0  0  0
    9.4759  -20.3064   30.6514 O   0  0  0  0  0  0  0  0  0  0  0  0
    9.1916  -19.5353   29.5293 C   0  0  0  0  0  0  0  0  0  0  0  0
    8.2443  -19.9119   28.6031 C   0  0  0  0  0  0  0  0  0  0  0  0
    7.9517  -19.1619   27.4894 C   0  0  0  0  0  0  0  0  0  0  0  0
    8.6180  -17.9503   27.2367 C   0  0  0  0  0  0  0  0  0  0  0  0
    8.3065  -17.1308   26.0678 C   0  0  0  0  0  0  0  0  0  0  0  0
    9.1133  -17.4409   24.8311 C   0  0  2  0  0  0  0  0  0  0  0  0
    8.6969  -16.6430   23.7173 N   0  0  0  0  0  0  0  0  0  0  0  0
    9.1180  -18.8748   24.4701 C   0  0  0  0  0  0  0  0  0  0  0  0
    8.2864  -19.7175   24.8978 O   0  0  0  0  0  0  0  0  0  0  0  0
    9.5594  -17.5772   28.1590 C   0  0  0  0  0  0  0  0  0  0  0  0
    9.8516  -18.3496   29.2929 C   0  0  0  0  0  0  0  0  0  0  0  0
   10.1059  -19.4194   23.5760 N   0  0  0  0  0  0  0  0  0  0  0  0
   11.5124  -19.5512   23.9413 C   0  0  1  0  0  0  0  0  0  0  0  0
   12.1653  -18.2443   23.5820 C   0  0  0  0  0  0  0  0  0  0  0  0
   13.6056  -18.1331   23.9428 C   0  0  0  0  0  0  0  0  0  0  0  0
   14.4126  -17.2478   23.1047 C   0  0  0  0  0  0  0  0  0  0  0  0
   15.1050  -17.8143   22.1914 O   0  0  0  0  0  0  0  0  0  0  0  0
   11.6309  -19.8494   25.3885 C   0  0  0  0  0  0  0  0  0  0  0  0
   10.9525  -19.2183   26.2288 O   0  0  0  0  0  0  0  0  0  0  0  0
   14.4591  -15.8873   23.2497 O   0  0  0  0  0  0  0  0  0  0  0  0
   12.4934  -20.8325   25.8460 O   0  0  0  0  0  0  0  0  0  0  0  0
  2  1  1  1
  3  2  1  0
  4  5  2  0
  4  3  1  0
  6  5  1  0
  7  6  2  0
  8  7  1  0
  8  9  2  0
  9  4  1  0
 10  2  1  0
 11 10  2  0
 13 12  1  0
 13 14  2  0
 15 14  1  0
 16 15  2  0
 17 16  1  0
 18 17  1  1
 18 19  1  0
 19 10  1  0
 20 18  1  0
 21 20  2  0
 22 23  2  0
 22 16  1  0
 23 13  1  0
 24 20  1  0
 25 24  1  0
 26 27  1  0
 25 26  1  1
 27 28  1  0
 28 32  1  0
 28 29  2  0
 30 25  1  0
 30 33  1  0
 31 30  2  0
M  END
$$$$
