FYE.pdb
     RDKit          3D

 33 34  0  0  1  0  0  0  0  0999 V2000
    5.9337  -16.6347   25.1203 N   0  0  0  0  0  0  0  0  0  0  0  0
    7.1031  -15.8487   24.8436 C   0  0  1  0  0  0  0  0  0  0  0  0
    7.8573  -15.4964   26.0908 C   0  0  0  0  0  0  0  0  0  0  0  0
    7.6336  -14.0711   26.4144 C   0  0  0  0  0  0  0  0  0  0  0  0
    7.9032  -13.5896   27.6760 C   0  0  0  0  0  0  0  0  0  0  0  0
    7.6921  -12.2670   28.0046 C   0  0  0  0  0  0  0  0  0  0  0  0
    7.2023  -11.4154   27.0490 C   0  0  0  0  0  0  0  0  0  0  0  0
    6.9285  -11.8903   25.7776 C   0  0  0  0  0  0  0  0  0  0  0  0
    7.1430  -13.2143   25.4597 C   0  0  0  0  0  0  0  0  0  0  0  0
    7.9226  -16.4880   23.7928 C   0  0  0  0  0  0  0  0  0  0  0  0
    7.7653  -17.7066   23.4693 O   0  0  0  0  0  0  0  0  0  0  0  0
    5.5335  -13.0606   18.0952 O   0  0  0  0  0  0  0  0  0  0  0  0
    6.6235  -13.5350   18.8174 C   0  0  0  0  0  0  0  0  0  0  0  0
    7.3545  -12.7240   19.6568 C   0  0  0  0  0  0  0  0  0  0  0  0
    8.4338  -13.1767   20.3770 C   0  0  0  0  0  0  0  0  0  0  0  0
    8.8520  -14.5159   20.2901 C   0  0  0  0  0  0  0  0  0  0  0  0
    9.9855  -15.0191   21.0627 C   0  0  0  0  0  0  0  0  0  0  0  0
    9.6684  -16.1531   22.0062 C   0  0  2  0  0  0  0  0  0  0  0  0
    8.9150  -15.7017   23.1372 N   0  0  0  0  0  0  0  0  0  0  0  0
   10.8602  -16.9107   22.4446 C   0  0  0  0  0  0  0  0  0  0  0  0
   11.4532  -17.7705   21.7419 O   0  0  0  0  0  0  0  0  0  0  0  0
    8.1236  -15.3211   19.4551 C   0  0  0  0  0  0  0  0  0  0  0  0
    7.0233  -14.8498   18.7236 C   0  0  0  0  0  0  0  0  0  0  0  0
   11.4404  -16.7077   23.7461 N   0  0  0  0  0  0  0  0  0  0  0  0
   12.6568  -17.3861   24.1815 C   0  0  1  0  0  0  0  0  0  0  0  0
   13.8040  -16.5210   23.7358 C   0  0  0  0  0  0  0  0  0  0  0  0
   15.1550  -16.9994   24.1401 C   0  0  0  0  0  0  0  0  0  0  0  0
   16.2830  -16.1657   23.7275 C   0  0  0  0  0  0  0  0  0  0  0  0
   16.5580  -15.1750   24.4873 O   0  0  0  0  0  0  0  0  0  0  0  0
   12.6357  -17.5623   25.6532 C   0  0  0  0  0  0  0  0  0  0  0  0
   11.7434  -17.0282   26.3482 O   0  0  0  0  0  0  0  0  0  0  0  0
   17.0308  -16.3901   22.6029 O   0  0  0  0  0  0  0  0  0  0  0  0
   13.6011  -18.3215   26.2946 O   0  0  0  0  0  0  0  0  0  0  0  0
  2  1  1  1
  3  2  1  0
  4  5  2  0
  4  3  1  0
  6  5  1  0
  7  6  2  0
  8  7  1  0
  8  9  2  0
  9  4  1  0
 10  2  1  0
 11 10  2  0
 13 12  1  0
 13 14  2  0
 15 14  1  0
 16 15  2  0
 17 16  1  0
 18 17  1  1
 18 19  1  0
 19 10  1  0
 20 18  1  0
 21 20  2  0
 22 23  2  0
 22 16  1  0
 23 13  1  0
 24 20  1  0
 25 24  1  0
 26 27  1  0
 25 26  1  1
 27 28  1  0
 28 32  1  0
 28 29  2  0
 30 25  1  0
 30 33  1  0
 31 30  2  0
M  END
$$$$
