FYE.pdb
     RDKit          3D

 33 34  0  0  1  0  0  0  0  0999 V2000
    7.9207  -16.9867   18.4915 N   0  0  0  0  0  0  0  0  0  0  0  0
    9.0843  -16.8055   17.6701 C   0  0  1  0  0  0  0  0  0  0  0  0
    8.9946  -15.5699   16.8252 C   0  0  0  0  0  0  0  0  0  0  0  0
    8.8672  -14.3846   17.6997 C   0  0  0  0  0  0  0  0  0  0  0  0
    9.9742  -13.6327   18.0246 C   0  0  0  0  0  0  0  0  0  0  0  0
    9.8822  -12.5298   18.8473 C   0  0  0  0  0  0  0  0  0  0  0  0
    8.6572  -12.1776   19.3510 C   0  0  0  0  0  0  0  0  0  0  0  0
    7.5384  -12.9273   19.0298 C   0  0  0  0  0  0  0  0  0  0  0  0
    7.6415  -14.0280   18.2066 C   0  0  0  0  0  0  0  0  0  0  0  0
   10.3149  -16.9032   18.4828 C   0  0  0  0  0  0  0  0  0  0  0  0
   10.4071  -16.3582   19.6268 O   0  0  0  0  0  0  0  0  0  0  0  0
   16.3295  -21.2850   22.8835 O   0  0  0  0  0  0  0  0  0  0  0  0
   15.2906  -20.7164   22.1541 C   0  0  0  0  0  0  0  0  0  0  0  0
   14.7198  -19.5142   22.5084 C   0  0  0  0  0  0  0  0  0  0  0  0
   13.6929  -18.9391   21.7990 C   0  0  0  0  0  0  0  0  0  0  0  0
   13.1652  -19.5622   20.6548 C   0  0  0  0  0  0  0  0  0  0  0  0
   12.0865  -18.9562   19.8777 C   0  0  0  0  0  0  0  0  0  0  0  0
   12.5318  -18.0749   18.7369 C   0  0  2  0  0  0  0  0  0  0  0  0
   11.4206  -17.6296   17.9510 N   0  0  0  0  0  0  0  0  0  0  0  0
   13.5620  -18.6946   17.8759 C   0  0  0  0  0  0  0  0  0  0  0  0
   13.3634  -19.6961   17.1396 O   0  0  0  0  0  0  0  0  0  0  0  0
   13.7344  -20.7575   20.3037 C   0  0  0  0  0  0  0  0  0  0  0  0
   14.7823  -21.3371   21.0343 C   0  0  0  0  0  0  0  0  0  0  0  0
   14.9036  -18.1761   17.8206 N   0  0  0  0  0  0  0  0  0  0  0  0
   15.9486  -18.7793   17.0001 C   0  0  1  0  0  0  0  0  0  0  0  0
   16.6793  -17.6397   16.3438 C   0  0  0  0  0  0  0  0  0  0  0  0
   15.9377  -16.9562   15.2484 C   0  0  0  0  0  0  0  0  0  0  0  0
   16.6766  -15.9311   14.5129 C   0  0  0  0  0  0  0  0  0  0  0  0
   17.0897  -14.9344   15.1986 O   0  0  0  0  0  0  0  0  0  0  0  0
   16.8471  -19.5965   17.8499 C   0  0  0  0  0  0  0  0  0  0  0  0
   17.6343  -20.4229   17.3379 O   0  0  0  0  0  0  0  0  0  0  0  0
   16.9357  -15.9885   13.1699 O   0  0  0  0  0  0  0  0  0  0  0  0
   16.8381  -19.4660   19.2293 O   0  0  0  0  0  0  0  0  0  0  0  0
  2  1  1  1
  3  2  1  0
  4  5  2  0
  4  3  1  0
  6  5  1  0
  7  6  2  0
  8  7  1  0
  8  9  2  0
  9  4  1  0
 10  2  1  0
 11 10  2  0
 13 12  1  0
 13 14  2  0
 15 14  1  0
 16 15  2  0
 17 16  1  0
 18 17  1  1
 18 19  1  0
 19 10  1  0
 20 18  1  0
 21 20  2  0
 22 23  2  0
 22 16  1  0
 23 13  1  0
 24 20  1  0
 25 24  1  0
 26 27  1  0
 25 26  1  1
 27 28  1  0
 28 32  1  0
 28 29  2  0
 30 25  1  0
 30 33  1  0
 31 30  2  0
M  END
$$$$
