FYE.pdb
     RDKit          3D

 33 34  0  0  1  0  0  0  0  0999 V2000
    7.3533  -17.2310   20.9027 N   0  0  0  0  0  0  0  0  0  0  0  0
    8.6253  -16.7333   20.4600 C   0  0  1  0  0  0  0  0  0  0  0  0
    8.4860  -15.7078   19.3749 C   0  0  0  0  0  0  0  0  0  0  0  0
    8.0295  -14.4299   19.9619 C   0  0  0  0  0  0  0  0  0  0  0  0
    8.7653  -13.2786   19.7897 C   0  0  0  0  0  0  0  0  0  0  0  0
    8.3657  -12.0775   20.3369 C   0  0  0  0  0  0  0  0  0  0  0  0
    7.2078  -12.0338   21.0688 C   0  0  0  0  0  0  0  0  0  0  0  0
    6.4612  -13.1861   21.2471 C   0  0  0  0  0  0  0  0  0  0  0  0
    6.8696  -14.3816   20.6959 C   0  0  0  0  0  0  0  0  0  0  0  0
    9.4429  -16.2983   21.6118 C   0  0  0  0  0  0  0  0  0  0  0  0
   10.6503  -15.9275   21.4741 O   0  0  0  0  0  0  0  0  0  0  0  0
   10.9223  -14.3368   30.2255 O   0  0  0  0  0  0  0  0  0  0  0  0
   10.3452  -14.5888   28.9853 C   0  0  0  0  0  0  0  0  0  0  0  0
   10.0486  -13.5789   28.0971 C   0  0  0  0  0  0  0  0  0  0  0  0
    9.4783  -13.8108   26.8685 C   0  0  0  0  0  0  0  0  0  0  0  0
    9.1641  -15.1156   26.4505 C   0  0  0  0  0  0  0  0  0  0  0  0
    8.5750  -15.3824   25.1404 C   0  0  0  0  0  0  0  0  0  0  0  0
    9.5311  -15.9138   24.1011 C   0  0  2  0  0  0  0  0  0  0  0  0
    8.8454  -16.3052   22.9064 N   0  0  0  0  0  0  0  0  0  0  0  0
   10.3891  -17.0137   24.5917 C   0  0  0  0  0  0  0  0  0  0  0  0
    9.9619  -18.1438   24.9453 O   0  0  0  0  0  0  0  0  0  0  0  0
    9.4602  -16.1187   27.3349 C   0  0  0  0  0  0  0  0  0  0  0  0
   10.0421  -15.8723   28.5873 C   0  0  0  0  0  0  0  0  0  0  0  0
   11.8160  -16.8597   24.7004 N   0  0  0  0  0  0  0  0  0  0  0  0
   12.7195  -17.9913   24.8805 C   0  0  1  0  0  0  0  0  0  0  0  0
   13.9228  -17.7103   24.0224 C   0  0  0  0  0  0  0  0  0  0  0  0
   14.6774  -16.4749   24.3711 C   0  0  0  0  0  0  0  0  0  0  0  0
   15.7659  -16.1087   23.4662 C   0  0  0  0  0  0  0  0  0  0  0  0
   16.8720  -15.7841   24.0190 O   0  0  0  0  0  0  0  0  0  0  0  0
   13.0798  -18.1249   26.3122 C   0  0  0  0  0  0  0  0  0  0  0  0
   13.8099  -19.0624   26.7028 O   0  0  0  0  0  0  0  0  0  0  0  0
   15.6570  -16.0971   22.1016 O   0  0  0  0  0  0  0  0  0  0  0  0
   12.6186  -17.2169   27.2516 O   0  0  0  0  0  0  0  0  0  0  0  0
  2  1  1  1
  3  2  1  0
  4  5  2  0
  4  3  1  0
  6  5  1  0
  7  6  2  0
  8  7  1  0
  8  9  2  0
  9  4  1  0
 10  2  1  0
 11 10  2  0
 13 12  1  0
 13 14  2  0
 15 14  1  0
 16 15  2  0
 17 16  1  0
 18 17  1  1
 18 19  1  0
 19 10  1  0
 20 18  1  0
 21 20  2  0
 22 23  2  0
 22 16  1  0
 23 13  1  0
 24 20  1  0
 25 24  1  0
 26 27  1  0
 25 26  1  6
 27 28  1  0
 28 32  1  0
 28 29  2  0
 30 25  1  0
 30 33  1  0
 31 30  2  0
M  END
$$$$
