DKT.pdb
     RDKit          3D

 25 24  0  0  1  0  0  0  0  0999 V2000
   12.5126  -18.6503   17.1973 N   0  0  0  0  0  0  0  0  0  0  0  0
   12.3354  -19.2204   18.5040 C   0  0  1  0  0  0  0  0  0  0  0  0
   13.5575  -19.9657   18.9809 C   0  0  0  0  0  0  0  0  0  0  0  0
   13.9056  -21.0165   17.9883 C   0  0  0  0  0  0  0  0  0  0  0  0
   12.9496  -21.6820   17.5038 O   0  0  0  0  0  0  0  0  0  0  0  0
   12.0497  -18.1479   19.4797 C   0  0  0  0  0  0  0  0  0  0  0  0
   13.0209  -17.6165   20.1120 O   0  0  0  0  0  0  0  0  0  0  0  0
   15.1935  -21.2929   17.5807 O   0  0  0  0  0  0  0  0  0  0  0  0
   10.7773  -17.6626   19.7681 N   0  0  0  0  0  0  0  0  0  0  0  0
   10.5961  -16.3659   20.5727 C   0  0  1  0  0  0  0  0  0  0  0  0
    9.5115  -15.7211   19.7784 C   0  0  0  0  0  0  0  0  0  0  0  0
    8.8196  -14.5037   20.1852 C   0  0  0  0  0  0  0  0  0  0  0  0
    7.7799  -14.0117   19.2677 C   0  0  0  0  0  0  0  0  0  0  0  0
    7.1579  -12.6927   19.7422 C   0  0  0  0  0  0  0  0  0  0  0  0
    6.1781  -12.1897   18.8366 N   0  0  0  0  0  0  0  0  0  0  0  0
   10.2001  -16.8576   21.9009 C   0  0  0  0  0  0  0  0  0  0  0  0
    9.5829  -17.9850   21.9715 O   0  0  0  0  0  0  0  0  0  0  0  0
   10.7387  -17.7152   26.6044 C   0  0  0  0  0  0  0  0  0  0  0  0
   11.1806  -17.1311   25.2830 C   0  0  1  0  0  0  0  0  0  0  0  0
   12.0241  -18.0573   24.6339 O   0  0  0  0  0  0  0  0  0  0  0  0
    9.9843  -16.8118   24.3972 C   0  0  2  0  0  0  0  0  0  0  0  0
   10.4291  -16.2390   23.1390 N   0  0  0  0  0  0  0  0  0  0  0  0
    9.0738  -15.9444   25.1548 C   0  0  0  0  0  0  0  0  0  0  0  0
    9.0463  -14.7229   24.8784 O   0  0  0  0  0  0  0  0  0  0  0  0
    8.2421  -16.3853   26.1554 O   0  0  0  0  0  0  0  0  0  0  0  0
  2  1  1  6
  3  2  1  0
  3  4  1  0
  4  5  2  0
  6  2  1  0
  7  6  2  0
  8  4  1  0
  9  6  1  0
 10  9  1  0
 10 11  1  6
 11 12  1  0
 12 13  1  0
 13 14  1  0
 14 15  1  0
 16 10  1  0
 17 16  2  0
 19 21  1  0
 19 18  1  1
 20 19  1  0
 21 23  1  0
 21 22  1  6
 22 16  1  0
 23 25  1  0
 24 23  2  0
M  END
$$$$
