DKT.pdb
     RDKit          3D

 25 24  0  0  1  0  0  0  0  0999 V2000
    9.9619  -17.4280   18.7200 N   0  0  0  0  0  0  0  0  0  0  0  0
   10.1841  -18.0252   20.0076 C   0  0  1  0  0  0  0  0  0  0  0  0
   11.5283  -18.7031   20.1071 C   0  0  0  0  0  0  0  0  0  0  0  0
   11.6764  -19.6596   18.9785 C   0  0  0  0  0  0  0  0  0  0  0  0
   10.7311  -19.7079   18.1445 O   0  0  0  0  0  0  0  0  0  0  0  0
   10.1228  -16.9849   21.0554 C   0  0  0  0  0  0  0  0  0  0  0  0
   11.1683  -16.7427   21.7439 O   0  0  0  0  0  0  0  0  0  0  0  0
   12.7720  -20.4783   18.8030 O   0  0  0  0  0  0  0  0  0  0  0  0
    8.9901  -16.2336   21.3556 N   0  0  0  0  0  0  0  0  0  0  0  0
    9.0376  -15.1396   22.4338 C   0  0  1  0  0  0  0  0  0  0  0  0
    7.8306  -14.3518   22.0526 C   0  0  0  0  0  0  0  0  0  0  0  0
    7.8331  -13.2957   21.0471 C   0  0  0  0  0  0  0  0  0  0  0  0
    7.6345  -13.7263   19.6543 C   0  0  0  0  0  0  0  0  0  0  0  0
    7.7923  -12.5719   18.6572 C   0  0  0  0  0  0  0  0  0  0  0  0
    7.5458  -12.9709   17.3106 N   0  0  0  0  0  0  0  0  0  0  0  0
    8.9231  -15.9065   23.6834 C   0  0  0  0  0  0  0  0  0  0  0  0
    7.8385  -16.5673   23.8928 O   0  0  0  0  0  0  0  0  0  0  0  0
   10.5116  -19.2603   26.5399 C   0  0  0  0  0  0  0  0  0  0  0  0
   10.4920  -18.2833   25.3877 C   0  0  1  0  0  0  0  0  0  0  0  0
    9.8396  -18.8846   24.2906 O   0  0  0  0  0  0  0  0  0  0  0  0
    9.7768  -16.9957   25.7727 C   0  0  2  0  0  0  0  0  0  0  0  0
    9.8825  -16.0220   24.7004 N   0  0  0  0  0  0  0  0  0  0  0  0
   10.3286  -16.5319   27.0516 C   0  0  0  0  0  0  0  0  0  0  0  0
   10.1425  -17.2354   28.0713 O   0  0  0  0  0  0  0  0  0  0  0  0
   11.0419  -15.3682   27.2077 O   0  0  0  0  0  0  0  0  0  0  0  0
  2  1  1  6
  3  2  1  0
  3  4  1  0
  4  5  2  0
  6  2  1  0
  7  6  2  0
  8  4  1  0
  9  6  1  0
 10  9  1  0
 10 11  1  6
 11 12  1  0
 12 13  1  0
 13 14  1  0
 14 15  1  0
 16 10  1  0
 17 16  2  0
 19 21  1  0
 19 18  1  1
 20 19  1  0
 21 23  1  0
 21 22  1  6
 22 16  1  0
 23 25  1  0
 24 23  2  0
M  END
$$$$
