DKT.pdb
     RDKit          3D

 25 24  0  0  1  0  0  0  0  0999 V2000
    9.6003  -15.7341   19.1648 N   0  0  0  0  0  0  0  0  0  0  0  0
    8.6201  -16.1586   20.1255 C   0  0  1  0  0  0  0  0  0  0  0  0
    8.3919  -17.6497   20.0995 C   0  0  0  0  0  0  0  0  0  0  0  0
    7.9993  -18.0587   18.7250 C   0  0  0  0  0  0  0  0  0  0  0  0
    8.7686  -18.8602   18.1272 O   0  0  0  0  0  0  0  0  0  0  0  0
    9.0663  -15.7924   21.4860 C   0  0  0  0  0  0  0  0  0  0  0  0
   10.3157  -15.7731   21.7394 O   0  0  0  0  0  0  0  0  0  0  0  0
    6.8609  -17.6145   18.0862 O   0  0  0  0  0  0  0  0  0  0  0  0
    8.2119  -15.4603   22.5335 N   0  0  0  0  0  0  0  0  0  0  0  0
    8.7696  -14.9173   23.8585 C   0  0  1  0  0  0  0  0  0  0  0  0
    7.5931  -14.1314   24.3287 C   0  0  0  0  0  0  0  0  0  0  0  0
    7.5404  -13.4328   25.6076 C   0  0  0  0  0  0  0  0  0  0  0  0
    6.3244  -12.6461   25.8668 C   0  0  0  0  0  0  0  0  0  0  0  0
    6.3698  -11.9286   27.2213 C   0  0  0  0  0  0  0  0  0  0  0  0
    5.2644  -11.0490   27.4150 N   0  0  0  0  0  0  0  0  0  0  0  0
    9.0563  -16.1426   24.6195 C   0  0  0  0  0  0  0  0  0  0  0  0
    8.1686  -17.0748   24.6258 O   0  0  0  0  0  0  0  0  0  0  0  0
   11.1816  -18.9062   24.0375 C   0  0  0  0  0  0  0  0  0  0  0  0
   11.5217  -18.4969   25.4515 C   0  0  1  0  0  0  0  0  0  0  0  0
   12.7088  -17.7346   25.4329 O   0  0  0  0  0  0  0  0  0  0  0  0
   10.3946  -17.6840   26.0732 C   0  0  2  0  0  0  0  0  0  0  0  0
   10.2167  -16.4367   25.3509 N   0  0  0  0  0  0  0  0  0  0  0  0
   10.6931  -17.5061   27.4996 C   0  0  0  0  0  0  0  0  0  0  0  0
   10.9096  -16.3473   27.9233 O   0  0  0  0  0  0  0  0  0  0  0  0
   10.7514  -18.5334   28.4098 O   0  0  0  0  0  0  0  0  0  0  0  0
  2  1  1  6
  3  2  1  0
  3  4  1  0
  4  5  2  0
  6  2  1  0
  7  6  2  0
  8  4  1  0
  9  6  1  0
 10  9  1  0
 10 11  1  1
 11 12  1  0
 12 13  1  0
 13 14  1  0
 14 15  1  0
 16 10  1  0
 17 16  2  0
 19 21  1  0
 19 18  1  6
 20 19  1  0
 21 23  1  0
 21 22  1  6
 22 16  1  0
 23 25  1  0
 24 23  2  0
M  END
$$$$
