DKT.pdb
     RDKit          3D

 25 24  0  0  1  0  0  0  0  0999 V2000
    8.2916  -13.8797   19.0506 N   0  0  0  0  0  0  0  0  0  0  0  0
    7.9142  -14.9053   19.9832 C   0  0  1  0  0  0  0  0  0  0  0  0
    8.4088  -16.2705   19.5736 C   0  0  0  0  0  0  0  0  0  0  0  0
    7.8007  -16.6376   18.2675 C   0  0  0  0  0  0  0  0  0  0  0  0
    8.5718  -16.6735   17.2697 O   0  0  0  0  0  0  0  0  0  0  0  0
    8.4791  -14.5994   21.3140 C   0  0  0  0  0  0  0  0  0  0  0  0
    9.6839  -14.1894   21.3917 O   0  0  0  0  0  0  0  0  0  0  0  0
    6.4648  -16.9339   18.0974 O   0  0  0  0  0  0  0  0  0  0  0  0
    7.7847  -14.7264   22.5137 N   0  0  0  0  0  0  0  0  0  0  0  0
    8.4355  -14.3162   23.8440 C   0  0  1  0  0  0  0  0  0  0  0  0
    7.3281  -13.5104   24.4332 C   0  0  0  0  0  0  0  0  0  0  0  0
    7.3402  -12.9834   25.7928 C   0  0  0  0  0  0  0  0  0  0  0  0
    6.1746  -12.1759   26.1853 C   0  0  0  0  0  0  0  0  0  0  0  0
    6.2920  -11.6367   27.6161 C   0  0  0  0  0  0  0  0  0  0  0  0
    5.1290  -10.9240   28.0322 N   0  0  0  0  0  0  0  0  0  0  0  0
    8.6920  -15.6095   24.4954 C   0  0  0  0  0  0  0  0  0  0  0  0
    7.7434  -16.4796   24.5117 O   0  0  0  0  0  0  0  0  0  0  0  0
   10.6426  -18.5116   23.6699 C   0  0  0  0  0  0  0  0  0  0  0  0
   11.0637  -18.1663   25.0792 C   0  0  1  0  0  0  0  0  0  0  0  0
   12.2883  -17.4672   25.0313 O   0  0  0  0  0  0  0  0  0  0  0  0
   10.0092  -17.3158   25.7737 C   0  0  2  0  0  0  0  0  0  0  0  0
    9.8813  -16.0312   25.1084 N   0  0  0  0  0  0  0  0  0  0  0  0
   10.3668  -17.2151   27.1940 C   0  0  0  0  0  0  0  0  0  0  0  0
   10.6677  -16.0897   27.6547 O   0  0  0  0  0  0  0  0  0  0  0  0
   10.3937  -18.2809   28.0604 O   0  0  0  0  0  0  0  0  0  0  0  0
  2  1  1  6
  3  2  1  0
  3  4  1  0
  4  5  2  0
  6  2  1  0
  7  6  2  0
  8  4  1  0
  9  6  1  0
 10  9  1  0
 10 11  1  1
 11 12  1  0
 12 13  1  0
 13 14  1  0
 14 15  1  0
 16 10  1  0
 17 16  2  0
 19 21  1  0
 19 18  1  6
 20 19  1  0
 21 23  1  0
 21 22  1  6
 22 16  1  0
 23 25  1  0
 24 23  2  0
M  END
$$$$
