DKT.pdb
     RDKit          3D

 25 24  0  0  1  0  0  0  0  0999 V2000
   11.8374  -16.2331   19.7960 N   0  0  0  0  0  0  0  0  0  0  0  0
   12.4275  -16.0685   21.0955 C   0  0  1  0  0  0  0  0  0  0  0  0
   13.2203  -14.7903   21.2134 C   0  0  0  0  0  0  0  0  0  0  0  0
   14.3300  -14.8121   20.2241 C   0  0  0  0  0  0  0  0  0  0  0  0
   15.0654  -15.8370   20.2150 O   0  0  0  0  0  0  0  0  0  0  0  0
   11.3661  -16.0396   22.1234 C   0  0  0  0  0  0  0  0  0  0  0  0
   10.3462  -15.2984   21.9340 O   0  0  0  0  0  0  0  0  0  0  0  0
   14.5886  -13.7895   19.3359 O   0  0  0  0  0  0  0  0  0  0  0  0
   11.3935  -16.7731   23.3061 N   0  0  0  0  0  0  0  0  0  0  0  0
   10.1481  -16.8638   24.2018 C   0  0  1  0  0  0  0  0  0  0  0  0
    9.9569  -18.3423   24.2256 C   0  0  0  0  0  0  0  0  0  0  0  0
    9.4008  -19.1082   23.1163 C   0  0  0  0  0  0  0  0  0  0  0  0
    9.3194  -20.5643   23.3105 C   0  0  0  0  0  0  0  0  0  0  0  0
    8.6508  -21.2755   22.1277 C   0  0  0  0  0  0  0  0  0  0  0  0
    8.6283  -22.6931   22.2799 N   0  0  0  0  0  0  0  0  0  0  0  0
   10.6085  -16.2656   25.4639 C   0  0  0  0  0  0  0  0  0  0  0  0
   11.8658  -16.3141   25.7355 O   0  0  0  0  0  0  0  0  0  0  0  0
    9.8130  -12.7469   27.3938 C   0  0  0  0  0  0  0  0  0  0  0  0
    9.5631  -13.9832   28.2255 C   0  0  1  0  0  0  0  0  0  0  0  0
    8.1854  -14.2855   28.1913 O   0  0  0  0  0  0  0  0  0  0  0  0
   10.3655  -15.1668   27.7031 C   0  0  2  0  0  0  0  0  0  0  0  0
    9.8268  -15.6177   26.4320 N   0  0  0  0  0  0  0  0  0  0  0  0
   10.3795  -16.2034   28.7427 C   0  0  0  0  0  0  0  0  0  0  0  0
    9.8713  -17.3179   28.4800 O   0  0  0  0  0  0  0  0  0  0  0  0
   10.9171  -16.0329   29.9953 O   0  0  0  0  0  0  0  0  0  0  0  0
  2  1  1  6
  3  2  1  0
  3  4  1  0
  4  5  2  0
  6  2  1  0
  7  6  2  0
  8  4  1  0
  9  6  1  0
 10  9  1  0
 10 11  1  1
 11 12  1  0
 12 13  1  0
 13 14  1  0
 14 15  1  0
 16 10  1  0
 17 16  2  0
 19 21  1  0
 19 18  1  6
 20 19  1  0
 21 23  1  0
 21 22  1  6
 22 16  1  0
 23 25  1  0
 24 23  2  0
M  END
$$$$
