DKT.pdb
     RDKit          3D

 25 24  0  0  1  0  0  0  0  0999 V2000
    8.4629  -17.3112   19.3567 N   0  0  0  0  0  0  0  0  0  0  0  0
    9.3054  -16.9301   20.4562 C   0  0  1  0  0  0  0  0  0  0  0  0
   10.1114  -15.6884   20.1645 C   0  0  0  0  0  0  0  0  0  0  0  0
   11.2453  -16.0423   19.2705 C   0  0  0  0  0  0  0  0  0  0  0  0
   11.2557  -15.5120   18.1259 O   0  0  0  0  0  0  0  0  0  0  0  0
    8.4752  -16.6614   21.6488 C   0  0  0  0  0  0  0  0  0  0  0  0
    7.4032  -15.9847   21.5126 O   0  0  0  0  0  0  0  0  0  0  0  0
   12.2634  -16.9027   19.6235 O   0  0  0  0  0  0  0  0  0  0  0  0
    8.7782  -17.0980   22.9353 N   0  0  0  0  0  0  0  0  0  0  0  0
    7.7493  -16.9706   24.0696 C   0  0  1  0  0  0  0  0  0  0  0  0
    7.9953  -18.2557   24.7842 C   0  0  0  0  0  0  0  0  0  0  0  0
    7.3957  -18.6000   26.0681 C   0  0  0  0  0  0  0  0  0  0  0  0
    7.8365  -19.8681   26.6701 C   0  0  0  0  0  0  0  0  0  0  0  0
    7.1184  -20.1689   27.9913 C   0  0  0  0  0  0  0  0  0  0  0  0
    7.6537  -21.3084   28.6610 N   0  0  0  0  0  0  0  0  0  0  0  0
    8.1907  -15.7593   24.7773 C   0  0  0  0  0  0  0  0  0  0  0  0
    9.4345  -15.4354   24.7082 O   0  0  0  0  0  0  0  0  0  0  0  0
    6.5095  -11.9506   25.0846 C   0  0  0  0  0  0  0  0  0  0  0  0
    6.8380  -12.6599   26.3774 C   0  0  1  0  0  0  0  0  0  0  0  0
    5.6721  -13.2904   26.8610 O   0  0  0  0  0  0  0  0  0  0  0  0
    7.9374  -13.6928   26.1721 C   0  0  2  0  0  0  0  0  0  0  0  0
    7.3992  -14.8791   25.5302 N   0  0  0  0  0  0  0  0  0  0  0  0
    8.5657  -13.9554   27.4727 C   0  0  0  0  0  0  0  0  0  0  0  0
    9.0591  -12.9911   28.1020 O   0  0  0  0  0  0  0  0  0  0  0  0
    8.6499  -15.1982   28.0522 O   0  0  0  0  0  0  0  0  0  0  0  0
  2  1  1  6
  3  2  1  0
  3  4  1  0
  4  5  2  0
  6  2  1  0
  7  6  2  0
  8  4  1  0
  9  6  1  0
 10  9  1  0
 10 11  1  1
 11 12  1  0
 12 13  1  0
 13 14  1  0
 14 15  1  0
 16 10  1  0
 17 16  2  0
 19 21  1  0
 19 18  1  6
 20 19  1  0
 21 23  1  0
 21 22  1  1
 22 16  1  0
 23 25  1  0
 24 23  2  0
M  END
$$$$
