DKT.pdb
     RDKit          3D

 25 24  0  0  1  0  0  0  0  0999 V2000
    9.8880  -15.0381   19.2386 N   0  0  0  0  0  0  0  0  0  0  0  0
   10.6803  -15.3121   20.4053 C   0  0  1  0  0  0  0  0  0  0  0  0
   11.8848  -14.4098   20.5119 C   0  0  0  0  0  0  0  0  0  0  0  0
   12.9836  -14.9630   19.6769 C   0  0  0  0  0  0  0  0  0  0  0  0
   12.7577  -16.0561   19.0890 O   0  0  0  0  0  0  0  0  0  0  0  0
    9.8606  -15.1187   21.6196 C   0  0  0  0  0  0  0  0  0  0  0  0
    9.2222  -14.0245   21.7631 O   0  0  0  0  0  0  0  0  0  0  0  0
   14.2100  -14.3533   19.5175 O   0  0  0  0  0  0  0  0  0  0  0  0
    9.7284  -16.0567   22.6395 N   0  0  0  0  0  0  0  0  0  0  0  0
    8.7757  -15.8043   23.8186 C   0  0  1  0  0  0  0  0  0  0  0  0
    7.8994  -17.0048   23.7013 C   0  0  0  0  0  0  0  0  0  0  0  0
    7.0502  -17.2821   22.5487 C   0  0  0  0  0  0  0  0  0  0  0  0
    6.3254  -18.5624   22.5708 C   0  0  0  0  0  0  0  0  0  0  0  0
    5.4796  -18.7772   21.3097 C   0  0  0  0  0  0  0  0  0  0  0  0
    4.8492  -20.0559   21.2817 N   0  0  0  0  0  0  0  0  0  0  0  0
    9.6829  -15.7946   24.9760 C   0  0  0  0  0  0  0  0  0  0  0  0
   10.8706  -16.2657   24.8202 O   0  0  0  0  0  0  0  0  0  0  0  0
   10.4151  -12.8501   27.6315 C   0  0  0  0  0  0  0  0  0  0  0  0
   10.1499  -14.1798   28.2979 C   0  0  1  0  0  0  0  0  0  0  0  0
    8.8137  -14.2053   28.7500 O   0  0  0  0  0  0  0  0  0  0  0  0
   10.3924  -15.3337   27.3350 C   0  0  2  0  0  0  0  0  0  0  0  0
    9.4116  -15.3096   26.2642 N   0  0  0  0  0  0  0  0  0  0  0  0
   10.3951  -16.5813   28.1089 C   0  0  0  0  0  0  0  0  0  0  0  0
   11.2618  -16.7272   29.0015 O   0  0  0  0  0  0  0  0  0  0  0  0
    9.5034  -17.6090   27.9192 O   0  0  0  0  0  0  0  0  0  0  0  0
  2  1  1  6
  3  2  1  0
  3  4  1  0
  4  5  2  0
  6  2  1  0
  7  6  2  0
  8  4  1  0
  9  6  1  0
 10  9  1  0
 10 11  1  1
 11 12  1  0
 12 13  1  0
 13 14  1  0
 14 15  1  0
 16 10  1  0
 17 16  2  0
 19 21  1  0
 19 18  1  6
 20 19  1  0
 21 23  1  0
 21 22  1  6
 22 16  1  0
 23 25  1  0
 24 23  2  0
M  END
$$$$
