DKT.pdb
     RDKit          3D

 25 24  0  0  1  0  0  0  0  0999 V2000
    8.8711  -15.8144   19.1731 N   0  0  0  0  0  0  0  0  0  0  0  0
    8.0926  -16.3189   20.2701 C   0  0  1  0  0  0  0  0  0  0  0  0
    8.0861  -17.8265   20.3301 C   0  0  0  0  0  0  0  0  0  0  0  0
    7.5532  -18.3628   19.0499 C   0  0  0  0  0  0  0  0  0  0  0  0
    6.4887  -17.8448   18.6140 O   0  0  0  0  0  0  0  0  0  0  0  0
    8.6466  -15.8173   21.5450 C   0  0  0  0  0  0  0  0  0  0  0  0
    9.9122  -15.7839   21.6951 O   0  0  0  0  0  0  0  0  0  0  0  0
    8.1524  -19.3761   18.3319 O   0  0  0  0  0  0  0  0  0  0  0  0
    7.8790  -15.3694   22.6164 N   0  0  0  0  0  0  0  0  0  0  0  0
    8.5430  -14.7106   23.8357 C   0  0  1  0  0  0  0  0  0  0  0  0
    7.4279  -13.8319   24.2909 C   0  0  0  0  0  0  0  0  0  0  0  0
    7.5448  -12.8670   25.3779 C   0  0  0  0  0  0  0  0  0  0  0  0
    6.3601  -12.7111   26.2364 C   0  0  0  0  0  0  0  0  0  0  0  0
    6.5563  -11.6382   27.3145 C   0  0  0  0  0  0  0  0  0  0  0  0
    5.4026  -11.4654   28.1346 N   0  0  0  0  0  0  0  0  0  0  0  0
    8.8395  -15.8579   24.7066 C   0  0  0  0  0  0  0  0  0  0  0  0
    7.9098  -16.7259   24.9046 O   0  0  0  0  0  0  0  0  0  0  0  0
   10.9411  -18.6855   24.1665 C   0  0  0  0  0  0  0  0  0  0  0  0
   11.3410  -18.2030   25.5412 C   0  0  1  0  0  0  0  0  0  0  0  0
   12.5386  -17.4646   25.4353 O   0  0  0  0  0  0  0  0  0  0  0  0
   10.2514  -17.3360   26.1565 C   0  0  2  0  0  0  0  0  0  0  0  0
   10.0496  -16.1399   25.3578 N   0  0  0  0  0  0  0  0  0  0  0  0
   10.6186  -17.0627   27.5514 C   0  0  0  0  0  0  0  0  0  0  0  0
   10.8379  -15.8764   27.8887 O   0  0  0  0  0  0  0  0  0  0  0  0
   10.7390  -18.0284   28.5211 O   0  0  0  0  0  0  0  0  0  0  0  0
  2  1  1  6
  3  2  1  0
  3  4  1  0
  4  5  2  0
  6  2  1  0
  7  6  2  0
  8  4  1  0
  9  6  1  0
 10  9  1  0
 10 11  1  1
 11 12  1  0
 12 13  1  0
 13 14  1  0
 14 15  1  0
 16 10  1  0
 17 16  2  0
 19 21  1  0
 19 18  1  6
 20 19  1  0
 21 23  1  0
 21 22  1  6
 22 16  1  0
 23 25  1  0
 24 23  2  0
M  END
$$$$
