DKT.pdb
     RDKit          3D

 25 24  0  0  1  0  0  0  0  0999 V2000
    7.7559  -17.2636   19.2049 N   0  0  0  0  0  0  0  0  0  0  0  0
    8.7051  -17.0289   20.2575 C   0  0  1  0  0  0  0  0  0  0  0  0
    9.6062  -15.8528   19.9726 C   0  0  0  0  0  0  0  0  0  0  0  0
   10.6417  -16.2599   18.9864 C   0  0  0  0  0  0  0  0  0  0  0  0
   10.9457  -17.4837   18.9515 O   0  0  0  0  0  0  0  0  0  0  0  0
    7.9890  -16.7553   21.5209 C   0  0  0  0  0  0  0  0  0  0  0  0
    6.9228  -16.0571   21.4850 O   0  0  0  0  0  0  0  0  0  0  0  0
   11.2718  -15.3844   18.1274 O   0  0  0  0  0  0  0  0  0  0  0  0
    8.3958  -17.2094   22.7722 N   0  0  0  0  0  0  0  0  0  0  0  0
    7.4811  -17.0564   23.9976 C   0  0  1  0  0  0  0  0  0  0  0  0
    7.7540  -18.3514   24.6842 C   0  0  0  0  0  0  0  0  0  0  0  0
    7.2815  -18.6763   26.0249 C   0  0  0  0  0  0  0  0  0  0  0  0
    7.6726  -19.9946   26.5482 C   0  0  0  0  0  0  0  0  0  0  0  0
    7.1771  -20.2254   27.9810 C   0  0  0  0  0  0  0  0  0  0  0  0
    7.5990  -21.4792   28.5134 N   0  0  0  0  0  0  0  0  0  0  0  0
    8.0224  -15.8618   24.6629 C   0  0  0  0  0  0  0  0  0  0  0  0
    9.2867  -15.6374   24.5729 O   0  0  0  0  0  0  0  0  0  0  0  0
    6.7880  -11.8809   25.0300 C   0  0  0  0  0  0  0  0  0  0  0  0
    6.9857  -12.6605   26.3089 C   0  0  1  0  0  0  0  0  0  0  0  0
    5.7371  -13.1587   26.7372 O   0  0  0  0  0  0  0  0  0  0  0  0
    7.9596  -13.8124   26.1040 C   0  0  2  0  0  0  0  0  0  0  0  0
    7.3096  -14.9003   25.3947 N   0  0  0  0  0  0  0  0  0  0  0  0
    8.4955  -14.1961   27.4158 C   0  0  0  0  0  0  0  0  0  0  0  0
    8.3518  -15.3814   27.7950 O   0  0  0  0  0  0  0  0  0  0  0  0
    9.1502  -13.3359   28.2636 O   0  0  0  0  0  0  0  0  0  0  0  0
  2  1  1  6
  3  2  1  0
  3  4  1  0
  4  5  2  0
  6  2  1  0
  7  6  2  0
  8  4  1  0
  9  6  1  0
 10  9  1  0
 10 11  1  1
 11 12  1  0
 12 13  1  0
 13 14  1  0
 14 15  1  0
 16 10  1  0
 17 16  2  0
 19 21  1  0
 19 18  1  6
 20 19  1  0
 21 23  1  0
 21 22  1  1
 22 16  1  0
 23 25  1  0
 24 23  2  0
M  END
$$$$
