DKT.pdb
     RDKit          3D

 25 24  0  0  1  0  0  0  0  0999 V2000
    9.8475  -18.8977   19.6321 N   0  0  0  0  0  0  0  0  0  0  0  0
    9.7080  -17.4700   19.5540 C   0  0  1  0  0  0  0  0  0  0  0  0
    9.2831  -17.0041   18.1833 C   0  0  0  0  0  0  0  0  0  0  0  0
   10.3365  -17.3644   17.1979 C   0  0  0  0  0  0  0  0  0  0  0  0
   11.3252  -18.0160   17.6331 O   0  0  0  0  0  0  0  0  0  0  0  0
    8.6883  -17.0164   20.5227 C   0  0  0  0  0  0  0  0  0  0  0  0
    8.2886  -15.8067   20.4742 O   0  0  0  0  0  0  0  0  0  0  0  0
   10.2865  -17.0287   15.8614 O   0  0  0  0  0  0  0  0  0  0  0  0
    8.1187  -17.8229   21.5039 N   0  0  0  0  0  0  0  0  0  0  0  0
    7.0520  -17.2628   22.4578 C   0  0  1  0  0  0  0  0  0  0  0  0
    6.3392  -18.5231   22.8133 C   0  0  0  0  0  0  0  0  0  0  0  0
    5.2610  -19.0994   22.0185 C   0  0  0  0  0  0  0  0  0  0  0  0
    4.6509  -20.3288   22.5486 C   0  0  0  0  0  0  0  0  0  0  0  0
    3.4184  -20.7630   21.7460 C   0  0  0  0  0  0  0  0  0  0  0  0
    2.9010  -22.0219   22.1709 N   0  0  0  0  0  0  0  0  0  0  0  0
    7.8566  -16.6663   23.5346 C   0  0  0  0  0  0  0  0  0  0  0  0
    9.1025  -16.9816   23.6072 O   0  0  0  0  0  0  0  0  0  0  0  0
    7.9608  -12.8507   24.6099 C   0  0  0  0  0  0  0  0  0  0  0  0
    7.8814  -13.7492   25.8219 C   0  0  1  0  0  0  0  0  0  0  0  0
    6.5512  -13.7653   26.2918 O   0  0  0  0  0  0  0  0  0  0  0  0
    8.3282  -15.1650   25.4850 C   0  0  2  0  0  0  0  0  0  0  0  0
    7.4261  -15.7594   24.5144 N   0  0  0  0  0  0  0  0  0  0  0  0
    8.4324  -15.9214   26.7389 C   0  0  0  0  0  0  0  0  0  0  0  0
    7.6805  -16.9098   26.9031 O   0  0  0  0  0  0  0  0  0  0  0  0
    9.3067  -15.6164   27.7537 O   0  0  0  0  0  0  0  0  0  0  0  0
  2  1  1  6
  3  2  1  0
  3  4  1  0
  4  5  2  0
  6  2  1  0
  7  6  2  0
  8  4  1  0
  9  6  1  0
 10  9  1  0
 10 11  1  1
 11 12  1  0
 12 13  1  0
 13 14  1  0
 14 15  1  0
 16 10  1  0
 17 16  2  0
 19 21  1  0
 19 18  1  6
 20 19  1  0
 21 23  1  0
 21 22  1  6
 22 16  1  0
 23 25  1  0
 24 23  2  0
M  END
$$$$
