DKT.pdb
     RDKit          3D

 25 24  0  0  1  0  0  0  0  0999 V2000
   10.1966  -16.9995   19.3586 N   0  0  0  0  0  0  0  0  0  0  0  0
   10.7379  -16.7508   20.6660 C   0  0  1  0  0  0  0  0  0  0  0  0
   11.6232  -15.5297   20.7033 C   0  0  0  0  0  0  0  0  0  0  0  0
   12.9275  -15.8538   20.0674 C   0  0  0  0  0  0  0  0  0  0  0  0
   13.4641  -16.9480   20.3933 O   0  0  0  0  0  0  0  0  0  0  0  0
    9.6363  -16.5411   21.6285 C   0  0  0  0  0  0  0  0  0  0  0  0
    8.6174  -15.8688   21.2606 O   0  0  0  0  0  0  0  0  0  0  0  0
   13.5649  -15.0350   19.1593 O   0  0  0  0  0  0  0  0  0  0  0  0
    9.6239  -17.0301   22.9317 N   0  0  0  0  0  0  0  0  0  0  0  0
    8.3512  -16.9461   23.7890 C   0  0  1  0  0  0  0  0  0  0  0  0
    8.3352  -18.3236   24.3592 C   0  0  0  0  0  0  0  0  0  0  0  0
    7.4022  -18.7667   25.3885 C   0  0  0  0  0  0  0  0  0  0  0  0
    7.5664  -20.1508   25.8597 C   0  0  0  0  0  0  0  0  0  0  0  0
    6.5309  -20.5328   26.9244 C   0  0  0  0  0  0  0  0  0  0  0  0
    6.7506  -21.8347   27.4630 N   0  0  0  0  0  0  0  0  0  0  0  0
    8.6685  -15.8714   24.7413 C   0  0  0  0  0  0  0  0  0  0  0  0
    9.8986  -15.7071   25.0834 O   0  0  0  0  0  0  0  0  0  0  0  0
    6.9992  -11.9999   25.4340 C   0  0  0  0  0  0  0  0  0  0  0  0
    7.0735  -12.9870   26.5753 C   0  0  1  0  0  0  0  0  0  0  0  0
    5.8299  -13.6429   26.6931 O   0  0  0  0  0  0  0  0  0  0  0  0
    8.1778  -14.0093   26.3452 C   0  0  2  0  0  0  0  0  0  0  0  0
    7.7729  -14.9672   25.3315 N   0  0  0  0  0  0  0  0  0  0  0  0
    8.5119  -14.6194   27.6380 C   0  0  0  0  0  0  0  0  0  0  0  0
    8.3526  -15.8546   27.7732 O   0  0  0  0  0  0  0  0  0  0  0  0
    8.9920  -13.9216   28.7196 O   0  0  0  0  0  0  0  0  0  0  0  0
  2  1  1  6
  3  2  1  0
  3  4  1  0
  4  5  2  0
  6  2  1  0
  7  6  2  0
  8  4  1  0
  9  6  1  0
 10  9  1  0
 10 11  1  1
 11 12  1  0
 12 13  1  0
 13 14  1  0
 14 15  1  0
 16 10  1  0
 17 16  2  0
 19 21  1  0
 19 18  1  6
 20 19  1  0
 21 23  1  0
 21 22  1  6
 22 16  1  0
 23 25  1  0
 24 23  2  0
M  END
$$$$
