DKT.pdb
     RDKit          3D

 25 24  0  0  1  0  0  0  0  0999 V2000
    6.9217  -16.8939   18.8958 N   0  0  0  0  0  0  0  0  0  0  0  0
    7.8210  -16.0045   19.5770 C   0  0  1  0  0  0  0  0  0  0  0  0
    7.6318  -14.5647   19.1675 C   0  0  0  0  0  0  0  0  0  0  0  0
    8.1570  -14.3771   17.7892 C   0  0  0  0  0  0  0  0  0  0  0  0
    8.7697  -15.3527   17.2750 O   0  0  0  0  0  0  0  0  0  0  0  0
    7.5985  -16.0934   21.0353 C   0  0  0  0  0  0  0  0  0  0  0  0
    6.4055  -16.0310   21.4807 O   0  0  0  0  0  0  0  0  0  0  0  0
    8.0103  -13.2149   17.0619 O   0  0  0  0  0  0  0  0  0  0  0  0
    8.6102  -16.2431   21.9797 N   0  0  0  0  0  0  0  0  0  0  0  0
    8.2833  -16.6767   23.4173 C   0  0  1  0  0  0  0  0  0  0  0  0
    9.2706  -17.7816   23.5822 C   0  0  0  0  0  0  0  0  0  0  0  0
    8.9314  -19.1965   23.4848 C   0  0  0  0  0  0  0  0  0  0  0  0
   10.0465  -20.1428   23.6452 C   0  0  0  0  0  0  0  0  0  0  0  0
    9.6220  -21.5948   23.3937 C   0  0  0  0  0  0  0  0  0  0  0  0
   10.6703  -22.5266   23.6507 N   0  0  0  0  0  0  0  0  0  0  0  0
    8.5593  -15.4606   24.1967 C   0  0  0  0  0  0  0  0  0  0  0  0
    9.5870  -14.7547   23.8764 O   0  0  0  0  0  0  0  0  0  0  0  0
    6.4979  -12.2512   24.8443 C   0  0  0  0  0  0  0  0  0  0  0  0
    6.9464  -12.8492   26.1572 C   0  0  1  0  0  0  0  0  0  0  0  0
    5.8884  -13.6107   26.6969 O   0  0  0  0  0  0  0  0  0  0  0  0
    8.1736  -13.7300   25.9677 C   0  0  2  0  0  0  0  0  0  0  0  0
    7.8129  -14.9514   25.2698 N   0  0  0  0  0  0  0  0  0  0  0  0
    8.7807  -13.9567   27.2851 C   0  0  0  0  0  0  0  0  0  0  0  0
    8.9201  -15.1366   27.6821 O   0  0  0  0  0  0  0  0  0  0  0  0
    9.2104  -12.9537   28.1196 O   0  0  0  0  0  0  0  0  0  0  0  0
  2  1  1  6
  3  2  1  0
  3  4  1  0
  4  5  2  0
  6  2  1  0
  7  6  2  0
  8  4  1  0
  9  6  1  0
 10  9  1  0
 10 11  1  1
 11 12  1  0
 12 13  1  0
 13 14  1  0
 14 15  1  0
 16 10  1  0
 17 16  2  0
 19 21  1  0
 19 18  1  6
 20 19  1  0
 21 23  1  0
 21 22  1  1
 22 16  1  0
 23 25  1  0
 24 23  2  0
M  END
$$$$
