TLN.pdb
     RDKit          3D

 24 23  0  0  1  0  0  0  0  0999 V2000
    6.4475  -16.4003   19.7463 C   0  0  0  0  0  0  0  0  0  0  0  0
    6.9665  -16.1691   21.1694 C   0  0  1  0  0  0  0  0  0  0  0  0
    7.9618  -17.1058   21.4241 O   0  0  0  0  0  0  0  0  0  0  0  0
    7.6166  -14.8020   21.1614 C   0  0  2  0  0  0  0  0  0  0  0  0
    8.6926  -14.7198   20.2103 N   0  0  0  0  0  0  0  0  0  0  0  0
    8.1529  -14.4458   22.5003 C   0  0  0  0  0  0  0  0  0  0  0  0
    9.4059  -14.4113   22.7145 O   0  0  0  0  0  0  0  0  0  0  0  0
    5.4960  -11.4879   27.1531 C   0  0  0  0  0  0  0  0  0  0  0  0
    6.7840  -12.1106   26.6935 C   0  0  2  0  0  0  0  0  0  0  0  0
    7.7628  -10.9352   26.4740 C   0  0  0  0  0  0  0  0  0  0  0  0
    6.7027  -12.8522   25.4362 C   0  0  0  0  0  0  0  0  0  0  0  0
    7.8404  -13.6099   24.8841 C   0  0  2  0  0  0  0  0  0  0  0  0
    7.2947  -14.1337   23.5797 N   0  0  0  0  0  0  0  0  0  0  0  0
    8.3246  -14.8038   25.5642 C   0  0  0  0  0  0  0  0  0  0  0  0
    8.7479  -14.7393   26.7652 O   0  0  0  0  0  0  0  0  0  0  0  0
    6.9222  -18.3025   23.7190 N   0  0  0  0  0  0  0  0  0  0  0  0
    6.8183  -18.4918   25.1164 C   0  0  0  0  0  0  0  0  0  0  0  0
    5.7238  -18.9932   25.5242 O   0  0  0  0  0  0  0  0  0  0  0  0
    7.8167  -18.1790   26.1293 C   0  0  0  0  0  0  0  0  0  0  0  0
    8.9224  -17.2453   25.6632 C   0  0  2  0  0  0  0  0  0  0  0  0
    8.3591  -16.0965   24.9834 N   0  0  0  0  0  0  0  0  0  0  0  0
    9.9030  -18.0114   24.8950 C   0  0  0  0  0  0  0  0  0  0  0  0
   10.1405  -17.7382   23.7052 O   0  0  0  0  0  0  0  0  0  0  0  0
   10.5691  -19.0535   25.5144 O   0  0  0  0  0  0  0  0  0  0  0  0
  2  3  1  0
  2  1  1  6
  4  2  1  0
  4  5  1  6
  6  4  1  0
  6  7  2  0
  9 11  1  0
  9  8  1  6
  9 10  1  0
 12 13  1  0
 12 11  1  1
 13  6  1  0
 14 12  1  0
 15 14  2  0
 16 17  1  0
 17 19  1  0
 17 18  2  0
 20 19  1  6
 20 21  1  0
 21 14  1  0
 22 24  1  0
 22 20  1  0
 23 22  2  0
M  END
$$$$
