TLN.pdb
     RDKit          3D

 24 23  0  0  1  0  0  0  0  0999 V2000
    6.9599  -18.3375   20.4297 C   0  0  0  0  0  0  0  0  0  0  0  0
    7.5662  -17.5602   21.6028 C   0  0  1  0  0  0  0  0  0  0  0  0
    8.8824  -17.9783   21.7642 O   0  0  0  0  0  0  0  0  0  0  0  0
    7.5972  -16.1090   21.1728 C   0  0  2  0  0  0  0  0  0  0  0  0
    8.3160  -15.9248   19.9406 N   0  0  0  0  0  0  0  0  0  0  0  0
    8.2232  -15.2470   22.2083 C   0  0  0  0  0  0  0  0  0  0  0  0
    9.4388  -14.8867   22.1112 O   0  0  0  0  0  0  0  0  0  0  0  0
    5.7978  -12.1663   26.9474 C   0  0  0  0  0  0  0  0  0  0  0  0
    7.0826  -12.4451   26.2197 C   0  0  2  0  0  0  0  0  0  0  0  0
    7.5931  -11.0715   25.7294 C   0  0  0  0  0  0  0  0  0  0  0  0
    6.9584  -13.3093   25.0469 C   0  0  0  0  0  0  0  0  0  0  0  0
    8.1256  -13.8936   24.3617 C   0  0  2  0  0  0  0  0  0  0  0  0
    7.4945  -14.7981   23.3337 N   0  0  0  0  0  0  0  0  0  0  0  0
    9.0368  -14.7703   25.0853 C   0  0  0  0  0  0  0  0  0  0  0  0
    9.7584  -14.3157   26.0331 O   0  0  0  0  0  0  0  0  0  0  0  0
   10.8988  -20.5153   26.1585 N   0  0  0  0  0  0  0  0  0  0  0  0
   10.3685  -19.2689   26.5642 C   0  0  0  0  0  0  0  0  0  0  0  0
   10.6652  -18.9024   27.7447 O   0  0  0  0  0  0  0  0  0  0  0  0
    9.5287  -18.3683   25.7869 C   0  0  0  0  0  0  0  0  0  0  0  0
   10.1252  -16.9898   25.5510 C   0  0  2  0  0  0  0  0  0  0  0  0
    9.1923  -16.1546   24.8223 N   0  0  0  0  0  0  0  0  0  0  0  0
   11.4454  -17.1384   24.9397 C   0  0  0  0  0  0  0  0  0  0  0  0
   12.4617  -16.6776   25.4887 O   0  0  0  0  0  0  0  0  0  0  0  0
   11.5502  -17.8043   23.7318 O   0  0  0  0  0  0  0  0  0  0  0  0
  2  3  1  0
  2  1  1  6
  4  2  1  0
  4  5  1  6
  6  4  1  0
  6  7  2  0
  9 11  1  0
  9  8  1  6
  9 10  1  0
 12 13  1  0
 12 11  1  1
 13  6  1  0
 14 12  1  0
 15 14  2  0
 16 17  1  0
 17 19  1  0
 17 18  2  0
 20 19  1  6
 20 21  1  0
 21 14  1  0
 22 24  1  0
 22 20  1  0
 23 22  2  0
M  END
$$$$
