TLN.pdb
     RDKit          3D

 24 23  0  0  1  0  0  0  0  0999 V2000
    6.0675  -16.4737   19.6923 C   0  0  0  0  0  0  0  0  0  0  0  0
    6.9644  -16.1552   20.8933 C   0  0  1  0  0  0  0  0  0  0  0  0
    8.2690  -16.5050   20.5634 O   0  0  0  0  0  0  0  0  0  0  0  0
    6.9227  -14.6512   21.0603 C   0  0  2  0  0  0  0  0  0  0  0  0
    7.4130  -13.9635   19.8959 N   0  0  0  0  0  0  0  0  0  0  0  0
    7.7242  -14.2105   22.2310 C   0  0  0  0  0  0  0  0  0  0  0  0
    8.8939  -13.7349   22.0806 O   0  0  0  0  0  0  0  0  0  0  0  0
    7.9492  -11.2548   26.2195 C   0  0  0  0  0  0  0  0  0  0  0  0
    6.8116  -12.1808   25.8935 C   0  0  2  0  0  0  0  0  0  0  0  0
    5.8221  -12.0608   27.0744 C   0  0  0  0  0  0  0  0  0  0  0  0
    7.1740  -13.5917   25.7688 C   0  0  0  0  0  0  0  0  0  0  0  0
    8.1115  -14.0850   24.7435 C   0  0  2  0  0  0  0  0  0  0  0  0
    7.2188  -14.3030   23.5482 N   0  0  0  0  0  0  0  0  0  0  0  0
    8.7799  -15.3676   24.9183 C   0  0  0  0  0  0  0  0  0  0  0  0
    8.1067  -16.4497   24.9569 O   0  0  0  0  0  0  0  0  0  0  0  0
   13.3612  -18.7394   23.4133 N   0  0  0  0  0  0  0  0  0  0  0  0
   13.0166  -17.9391   24.5269 C   0  0  0  0  0  0  0  0  0  0  0  0
   13.4205  -18.3626   25.6553 O   0  0  0  0  0  0  0  0  0  0  0  0
   12.2577  -16.6962   24.5237 C   0  0  0  0  0  0  0  0  0  0  0  0
   10.8278  -16.8246   25.0240 C   0  0  2  0  0  0  0  0  0  0  0  0
   10.1827  -15.5275   25.0456 N   0  0  0  0  0  0  0  0  0  0  0  0
   10.8292  -17.5468   26.2957 C   0  0  0  0  0  0  0  0  0  0  0  0
   10.5690  -18.7620   26.3432 O   0  0  0  0  0  0  0  0  0  0  0  0
   11.1266  -16.8545   27.4558 O   0  0  0  0  0  0  0  0  0  0  0  0
  2  3  1  0
  2  1  1  6
  4  2  1  0
  4  5  1  6
  6  4  1  0
  6  7  2  0
  9 11  1  0
  9  8  1  1
  9 10  1  0
 12 13  1  0
 12 11  1  1
 13  6  1  0
 14 12  1  0
 15 14  2  0
 16 17  1  0
 17 19  1  0
 17 18  2  0
 20 19  1  1
 20 21  1  0
 21 14  1  0
 22 24  1  0
 22 20  1  0
 23 22  2  0
M  END
$$$$
