TLN.pdb
     RDKit          3D

 24 23  0  0  1  0  0  0  0  0999 V2000
    6.9907  -17.9373   20.4335 C   0  0  0  0  0  0  0  0  0  0  0  0
    7.4157  -17.3271   21.7733 C   0  0  1  0  0  0  0  0  0  0  0  0
    8.5152  -18.0372   22.2424 O   0  0  0  0  0  0  0  0  0  0  0  0
    7.8787  -15.9192   21.4646 C   0  0  2  0  0  0  0  0  0  0  0  0
    8.9098  -15.8962   20.4619 N   0  0  0  0  0  0  0  0  0  0  0  0
    8.3971  -15.2375   22.6786 C   0  0  0  0  0  0  0  0  0  0  0  0
    9.6471  -15.1044   22.8699 O   0  0  0  0  0  0  0  0  0  0  0  0
    5.5256  -11.9287   26.9963 C   0  0  0  0  0  0  0  0  0  0  0  0
    6.8756  -12.4008   26.5351 C   0  0  2  0  0  0  0  0  0  0  0  0
    7.6873  -11.1205   26.2353 C   0  0  0  0  0  0  0  0  0  0  0  0
    6.8692  -13.2094   25.3170 C   0  0  0  0  0  0  0  0  0  0  0  0
    8.0539  -13.9505   24.8476 C   0  0  2  0  0  0  0  0  0  0  0  0
    7.5245  -14.7145   23.6604 N   0  0  0  0  0  0  0  0  0  0  0  0
    8.6536  -14.9802   25.6858 C   0  0  0  0  0  0  0  0  0  0  0  0
    9.0055  -14.7182   26.8829 O   0  0  0  0  0  0  0  0  0  0  0  0
   10.1066  -19.6371   27.8810 N   0  0  0  0  0  0  0  0  0  0  0  0
    8.7775  -19.3364   27.5037 C   0  0  0  0  0  0  0  0  0  0  0  0
    7.8829  -20.1028   27.9813 O   0  0  0  0  0  0  0  0  0  0  0  0
    8.3253  -18.2569   26.6373 C   0  0  0  0  0  0  0  0  0  0  0  0
    9.4272  -17.3277   26.1535 C   0  0  2  0  0  0  0  0  0  0  0  0
    8.8825  -16.3162   25.2707 N   0  0  0  0  0  0  0  0  0  0  0  0
   10.5167  -18.1279   25.5956 C   0  0  0  0  0  0  0  0  0  0  0  0
   11.1194  -18.9642   26.2913 O   0  0  0  0  0  0  0  0  0  0  0  0
   10.8716  -17.9410   24.2717 O   0  0  0  0  0  0  0  0  0  0  0  0
  2  3  1  0
  2  1  1  6
  4  2  1  0
  4  5  1  6
  6  4  1  0
  6  7  2  0
  9 11  1  0
  9  8  1  6
  9 10  1  0
 12 13  1  0
 12 11  1  1
 13  6  1  0
 14 12  1  0
 15 14  2  0
 16 17  1  0
 17 19  1  0
 17 18  2  0
 20 19  1  6
 20 21  1  0
 21 14  1  0
 22 24  1  0
 22 20  1  0
 23 22  2  0
M  END
$$$$
