TLN.pdb
     RDKit          3D

 24 23  0  0  1  0  0  0  0  0999 V2000
    6.8101  -17.4867   21.5509 C   0  0  0  0  0  0  0  0  0  0  0  0
    7.7896  -16.7535   20.6284 C   0  0  1  0  0  0  0  0  0  0  0  0
    7.3353  -16.8878   19.3212 O   0  0  0  0  0  0  0  0  0  0  0  0
    7.6953  -15.2882   20.9967 C   0  0  2  0  0  0  0  0  0  0  0  0
    8.3299  -14.4429   20.0211 N   0  0  0  0  0  0  0  0  0  0  0  0
    8.3165  -15.0176   22.3189 C   0  0  0  0  0  0  0  0  0  0  0  0
    9.5759  -14.8857   22.4347 O   0  0  0  0  0  0  0  0  0  0  0  0
    8.1673  -11.8849   26.2587 C   0  0  0  0  0  0  0  0  0  0  0  0
    6.9984  -12.6255   25.6728 C   0  0  2  0  0  0  0  0  0  0  0  0
    5.7949  -12.2979   26.5851 C   0  0  0  0  0  0  0  0  0  0  0  0
    7.1375  -14.0806   25.6388 C   0  0  0  0  0  0  0  0  0  0  0  0
    8.1780  -14.7623   24.8476 C   0  0  2  0  0  0  0  0  0  0  0  0
    7.5346  -14.8976   23.4908 N   0  0  0  0  0  0  0  0  0  0  0  0
    8.5783  -16.1228   25.1811 C   0  0  0  0  0  0  0  0  0  0  0  0
    7.7085  -17.0505   25.2732 O   0  0  0  0  0  0  0  0  0  0  0  0
   13.7916  -18.0508   24.9160 N   0  0  0  0  0  0  0  0  0  0  0  0
   12.4871  -17.6505   24.5454 C   0  0  0  0  0  0  0  0  0  0  0  0
   12.3884  -16.4821   24.0545 O   0  0  0  0  0  0  0  0  0  0  0  0
   11.2571  -18.4210   24.6628 C   0  0  0  0  0  0  0  0  0  0  0  0
   10.2794  -17.9005   25.7043 C   0  0  2  0  0  0  0  0  0  0  0  0
    9.9165  -16.5282   25.4140 N   0  0  0  0  0  0  0  0  0  0  0  0
   10.8313  -18.1358   27.0380 C   0  0  0  0  0  0  0  0  0  0  0  0
   11.2044  -19.2698   27.3866 O   0  0  0  0  0  0  0  0  0  0  0  0
   10.9340  -17.0709   27.9149 O   0  0  0  0  0  0  0  0  0  0  0  0
  2  3  1  0
  2  1  1  1
  4  2  1  0
  4  5  1  6
  6  4  1  0
  6  7  2  0
  9 11  1  0
  9  8  1  1
  9 10  1  0
 12 13  1  0
 12 11  1  1
 13  6  1  0
 14 12  1  0
 15 14  2  0
 16 17  1  0
 17 19  1  0
 17 18  2  0
 20 19  1  6
 20 21  1  0
 21 14  1  0
 22 24  1  0
 22 20  1  0
 23 22  2  0
M  END
$$$$
