TLN.pdb
     RDKit          3D

 24 23  0  0  1  0  0  0  0  0999 V2000
    6.7397  -17.8139   20.3491 C   0  0  0  0  0  0  0  0  0  0  0  0
    7.2704  -17.0973   21.5953 C   0  0  1  0  0  0  0  0  0  0  0  0
    8.5073  -17.6454   21.9154 O   0  0  0  0  0  0  0  0  0  0  0  0
    7.5003  -15.6583   21.1852 C   0  0  2  0  0  0  0  0  0  0  0  0
    8.4056  -15.5506   20.0726 N   0  0  0  0  0  0  0  0  0  0  0  0
    8.0468  -14.8525   22.3074 C   0  0  0  0  0  0  0  0  0  0  0  0
    9.2766  -14.5310   22.3430 O   0  0  0  0  0  0  0  0  0  0  0  0
    7.8657  -11.8219   26.8658 C   0  0  0  0  0  0  0  0  0  0  0  0
    6.6626  -11.7753   25.9666 C   0  0  2  0  0  0  0  0  0  0  0  0
    5.4378  -11.9215   26.8974 C   0  0  0  0  0  0  0  0  0  0  0  0
    6.5867  -12.8454   24.9732 C   0  0  0  0  0  0  0  0  0  0  0  0
    7.7774  -13.5660   24.4870 C   0  0  2  0  0  0  0  0  0  0  0  0
    7.2242  -14.4159   23.3712 N   0  0  0  0  0  0  0  0  0  0  0  0
    8.4577  -14.5226   25.3498 C   0  0  0  0  0  0  0  0  0  0  0  0
    8.4924  -14.3471   26.6122 O   0  0  0  0  0  0  0  0  0  0  0  0
    9.1731  -19.3554   27.3307 N   0  0  0  0  0  0  0  0  0  0  0  0
    8.0140  -18.6770   26.8885 C   0  0  0  0  0  0  0  0  0  0  0  0
    6.9087  -19.2479   27.1496 O   0  0  0  0  0  0  0  0  0  0  0  0
    7.9475  -17.4096   26.1744 C   0  0  0  0  0  0  0  0  0  0  0  0
    9.2927  -16.8666   25.7192 C   0  0  2  0  0  0  0  0  0  0  0  0
    9.1081  -15.6945   24.8879 N   0  0  0  0  0  0  0  0  0  0  0  0
   10.0658  -17.9506   25.1142 C   0  0  0  0  0  0  0  0  0  0  0  0
    9.6331  -18.5744   24.1292 O   0  0  0  0  0  0  0  0  0  0  0  0
   11.2960  -18.2760   25.6566 O   0  0  0  0  0  0  0  0  0  0  0  0
  2  3  1  0
  2  1  1  6
  4  2  1  0
  4  5  1  6
  6  4  1  0
  6  7  2  0
  9 11  1  0
  9  8  1  1
  9 10  1  0
 12 13  1  0
 12 11  1  1
 13  6  1  0
 14 12  1  0
 15 14  2  0
 16 17  1  0
 17 19  1  0
 17 18  2  0
 20 19  1  6
 20 21  1  0
 21 14  1  0
 22 24  1  0
 22 20  1  0
 23 22  2  0
M  END
$$$$
