TLN.pdb
     RDKit          3D

 24 23  0  0  1  0  0  0  0  0999 V2000
    6.5486  -17.5648   20.5931 C   0  0  0  0  0  0  0  0  0  0  0  0
    7.3602  -16.9112   21.7166 C   0  0  1  0  0  0  0  0  0  0  0  0
    8.6960  -17.2547   21.5411 O   0  0  0  0  0  0  0  0  0  0  0  0
    7.2409  -15.4169   21.5050 C   0  0  2  0  0  0  0  0  0  0  0  0
    7.7365  -15.0113   20.2170 N   0  0  0  0  0  0  0  0  0  0  0  0
    7.9806  -14.6583   22.5465 C   0  0  0  0  0  0  0  0  0  0  0  0
    9.0338  -14.0075   22.2567 O   0  0  0  0  0  0  0  0  0  0  0  0
    7.4050  -10.8747   25.7646 C   0  0  0  0  0  0  0  0  0  0  0  0
    6.4951  -12.0671   25.6725 C   0  0  2  0  0  0  0  0  0  0  0  0
    5.5013  -11.9275   26.8475 C   0  0  0  0  0  0  0  0  0  0  0  0
    7.1544  -13.3648   25.8095 C   0  0  0  0  0  0  0  0  0  0  0  0
    8.2526  -13.7968   24.9260 C   0  0  2  0  0  0  0  0  0  0  0  0
    7.5431  -14.6323   23.8907 N   0  0  0  0  0  0  0  0  0  0  0  0
    9.2956  -14.6795   25.4316 C   0  0  0  0  0  0  0  0  0  0  0  0
    9.7751  -14.5133   26.6012 O   0  0  0  0  0  0  0  0  0  0  0  0
   11.0138  -18.8604   27.9535 N   0  0  0  0  0  0  0  0  0  0  0  0
   10.0195  -18.7729   26.9519 C   0  0  0  0  0  0  0  0  0  0  0  0
    9.5221  -19.8792   26.5718 O   0  0  0  0  0  0  0  0  0  0  0  0
    9.5079  -17.5677   26.3145 C   0  0  0  0  0  0  0  0  0  0  0  0
   10.4762  -16.8993   25.3516 C   0  0  2  0  0  0  0  0  0  0  0  0
    9.8442  -15.7667   24.7060 N   0  0  0  0  0  0  0  0  0  0  0  0
   11.0273  -17.9098   24.4494 C   0  0  0  0  0  0  0  0  0  0  0  0
   11.7740  -18.8093   24.8738 O   0  0  0  0  0  0  0  0  0  0  0  0
   10.7044  -17.8517   23.1057 O   0  0  0  0  0  0  0  0  0  0  0  0
  2  3  1  0
  2  1  1  6
  4  2  1  0
  4  5  1  6
  6  4  1  0
  6  7  2  0
  9 11  1  0
  9  8  1  1
  9 10  1  0
 12 13  1  0
 12 11  1  1
 13  6  1  0
 14 12  1  0
 15 14  2  0
 16 17  1  0
 17 19  1  0
 17 18  2  0
 20 19  1  1
 20 21  1  0
 21 14  1  0
 22 24  1  0
 22 20  1  0
 23 22  2  0
M  END
$$$$
