TLN.pdb
     RDKit          3D

 24 23  0  0  1  0  0  0  0  0999 V2000
    6.6402  -17.0541   20.2151 C   0  0  0  0  0  0  0  0  0  0  0  0
    7.2324  -16.6892   21.5804 C   0  0  1  0  0  0  0  0  0  0  0  0
    8.3121  -17.5311   21.8223 O   0  0  0  0  0  0  0  0  0  0  0  0
    7.7725  -15.2819   21.4404 C   0  0  2  0  0  0  0  0  0  0  0  0
    8.7222  -15.1711   20.3658 N   0  0  0  0  0  0  0  0  0  0  0  0
    8.4315  -14.8243   22.6908 C   0  0  0  0  0  0  0  0  0  0  0  0
    9.6652  -14.5164   22.7046 O   0  0  0  0  0  0  0  0  0  0  0  0
    7.8076  -11.2064   25.9839 C   0  0  0  0  0  0  0  0  0  0  0  0
    6.7853  -12.2788   25.7329 C   0  0  2  0  0  0  0  0  0  0  0  0
    5.6565  -12.0300   26.7585 C   0  0  0  0  0  0  0  0  0  0  0  0
    7.2592  -13.6480   25.9281 C   0  0  0  0  0  0  0  0  0  0  0  0
    8.3826  -14.2182   25.1625 C   0  0  2  0  0  0  0  0  0  0  0  0
    7.7152  -14.7147   23.9049 N   0  0  0  0  0  0  0  0  0  0  0  0
    9.0933  -15.3866   25.6648 C   0  0  0  0  0  0  0  0  0  0  0  0
    9.7322  -15.3327   26.7668 O   0  0  0  0  0  0  0  0  0  0  0  0
   11.7505  -20.4961   24.9141 N   0  0  0  0  0  0  0  0  0  0  0  0
   11.9519  -19.1199   25.1690 C   0  0  0  0  0  0  0  0  0  0  0  0
   12.9691  -18.8340   25.8757 O   0  0  0  0  0  0  0  0  0  0  0  0
   11.1310  -18.0056   24.7160 C   0  0  0  0  0  0  0  0  0  0  0  0
    9.8678  -17.7761   25.5302 C   0  0  2  0  0  0  0  0  0  0  0  0
    9.1308  -16.6428   25.0090 N   0  0  0  0  0  0  0  0  0  0  0  0
   10.2199  -17.6985   26.9475 C   0  0  0  0  0  0  0  0  0  0  0  0
   10.5103  -16.6115   27.4774 O   0  0  0  0  0  0  0  0  0  0  0  0
   10.2260  -18.8604   27.6980 O   0  0  0  0  0  0  0  0  0  0  0  0
  2  3  1  0
  2  1  1  6
  4  2  1  0
  4  5  1  6
  6  4  1  0
  6  7  2  0
  9 11  1  0
  9  8  1  1
  9 10  1  0
 12 13  1  0
 12 11  1  1
 13  6  1  0
 14 12  1  0
 15 14  2  0
 16 17  1  0
 17 19  1  0
 17 18  2  0
 20 19  1  6
 20 21  1  0
 21 14  1  0
 22 24  1  0
 22 20  1  0
 23 22  2  0
M  END
$$$$
