TLN.pdb
     RDKit          3D

 24 23  0  0  1  0  0  0  0  0999 V2000
    6.0400  -16.6724   19.7253 C   0  0  0  0  0  0  0  0  0  0  0  0
    6.8140  -16.4700   21.0321 C   0  0  1  0  0  0  0  0  0  0  0  0
    8.0000  -17.1907   20.9483 O   0  0  0  0  0  0  0  0  0  0  0  0
    7.1747  -15.0006   21.0822 C   0  0  2  0  0  0  0  0  0  0  0  0
    7.9893  -14.6048   19.9647 N   0  0  0  0  0  0  0  0  0  0  0  0
    7.9039  -14.6608   22.3312 C   0  0  0  0  0  0  0  0  0  0  0  0
    9.1637  -14.4880   22.3261 O   0  0  0  0  0  0  0  0  0  0  0  0
    8.0415  -11.4345   26.3365 C   0  0  0  0  0  0  0  0  0  0  0  0
    6.8427  -12.1545   25.7864 C   0  0  2  0  0  0  0  0  0  0  0  0
    5.6876  -11.8564   26.7687 C   0  0  0  0  0  0  0  0  0  0  0  0
    6.9765  -13.6076   25.6972 C   0  0  0  0  0  0  0  0  0  0  0  0
    7.9842  -14.2633   24.8440 C   0  0  2  0  0  0  0  0  0  0  0  0
    7.2279  -14.5177   23.5647 N   0  0  0  0  0  0  0  0  0  0  0  0
    8.5095  -15.5732   25.2052 C   0  0  0  0  0  0  0  0  0  0  0  0
    7.7651  -16.6071   25.1540 O   0  0  0  0  0  0  0  0  0  0  0  0
   11.9868  -19.7202   24.3205 N   0  0  0  0  0  0  0  0  0  0  0  0
   12.3704  -18.5111   24.9451 C   0  0  0  0  0  0  0  0  0  0  0  0
   13.4337  -18.5635   25.6397 O   0  0  0  0  0  0  0  0  0  0  0  0
   11.6887  -17.2258   24.8812 C   0  0  0  0  0  0  0  0  0  0  0  0
   10.4108  -17.1440   25.7007 C   0  0  2  0  0  0  0  0  0  0  0  0
    9.8438  -15.8132   25.6194 N   0  0  0  0  0  0  0  0  0  0  0  0
   10.6782  -17.6314   27.0534 C   0  0  0  0  0  0  0  0  0  0  0  0
   10.4250  -18.8062   27.3734 O   0  0  0  0  0  0  0  0  0  0  0  0
   11.2216  -16.7608   27.9809 O   0  0  0  0  0  0  0  0  0  0  0  0
  2  3  1  0
  2  1  1  6
  4  2  1  0
  4  5  1  6
  6  4  1  0
  6  7  2  0
  9 11  1  0
  9  8  1  1
  9 10  1  0
 12 13  1  0
 12 11  1  1
 13  6  1  0
 14 12  1  0
 15 14  2  0
 16 17  1  0
 17 19  1  0
 17 18  2  0
 20 19  1  6
 20 21  1  0
 21 14  1  0
 22 24  1  0
 22 20  1  0
 23 22  2  0
M  END
$$$$
