HTK.pdb
     RDKit          3D

 27 27  0  0  1  0  0  0  0  0999 V2000
    8.2346  -17.0543   18.3795 N   0  0  0  0  0  0  0  0  0  0  0  0
    8.5470  -16.1319   19.4349 C   0  0  1  0  0  0  0  0  0  0  0  0
    7.5167  -15.0372   19.4928 C   0  0  0  0  0  0  0  0  0  0  0  0
    7.6040  -14.2582   18.2368 C   0  0  0  0  0  0  0  0  0  0  0  0
    8.4827  -14.4987   17.1849 C   0  0  0  0  0  0  0  0  0  0  0  0
    8.2228  -13.5668   16.2615 N   0  0  0  0  0  0  0  0  0  0  0  0
    7.2386  -12.7508   16.6558 C   0  0  0  0  0  0  0  0  0  0  0  0
    6.8770  -13.2043   17.8810 N   0  0  0  0  0  0  0  0  0  0  0  0
    8.4771  -16.8639   20.7459 C   0  0  0  0  0  0  0  0  0  0  0  0
    7.7682  -17.8910   20.8663 O   0  0  0  0  0  0  0  0  0  0  0  0
    8.9268  -19.1194   21.7005 C   0  0  0  0  0  0  0  0  0  0  0  0
    9.9142  -18.5291   22.6877 C   0  0  1  0  0  0  0  0  0  0  0  0
   11.1052  -18.3232   21.9826 O   0  0  0  0  0  0  0  0  0  0  0  0
    9.3960  -17.1667   23.0776 C   0  0  2  0  0  0  0  0  0  0  0  0
    9.2090  -16.4088   21.8680 N   0  0  0  0  0  0  0  0  0  0  0  0
   10.2811  -16.4465   23.9900 C   0  0  0  0  0  0  0  0  0  0  0  0
   11.2921  -15.8665   23.5004 O   0  0  0  0  0  0  0  0  0  0  0  0
   10.0492  -16.3733   25.4045 N   0  0  0  0  0  0  0  0  0  0  0  0
   10.9578  -15.6075   26.2031 C   0  0  1  0  0  0  0  0  0  0  0  0
   10.2960  -14.9728   27.4034 C   0  0  0  0  0  0  0  0  0  0  0  0
   11.1030  -15.3556   28.6214 C   0  0  0  0  0  0  0  0  0  0  0  0
   10.4341  -14.9928   29.9047 C   0  0  0  0  0  0  0  0  0  0  0  0
   11.3236  -15.2023   31.1106 C   0  0  0  0  0  0  0  0  0  0  0  0
   10.5895  -14.8970   32.3236 N   0  0  0  0  0  0  0  0  0  0  0  0
   12.1189  -16.4619   26.6398 C   0  0  0  0  0  0  0  0  0  0  0  0
   13.3720  -15.9257   26.8772 O   0  0  0  0  0  0  0  0  0  0  0  0
   11.9711  -17.6984   26.8000 O   0  0  0  0  0  0  0  0  0  0  0  0
  2  1  1  6
  2  3  1  0
  3  4  1  0
  4  8  1  0
  5  6  1  0
  5  4  2  0
  6  7  1  0
  7  8  2  0
  9 10  2  0
  9  2  1  0
 12 11  1  6
 12 13  1  0
 12 14  1  0
 14 15  1  6
 15  9  1  0
 16 14  1  0
 16 18  1  0
 17 16  2  0
 19 18  1  0
 19 25  1  0
 19 20  1  1
 21 20  1  0
 22 21  1  0
 23 22  1  0
 24 23  1  0
 25 26  1  0
 27 25  2  0
M  END
$$$$
