HTK.pdb
     RDKit          3D

 27 27  0  0  1  0  0  0  0  0999 V2000
   10.9217  -13.9540   17.5687 N   0  0  0  0  0  0  0  0  0  0  0  0
   11.2294  -14.6960   18.7592 C   0  0  1  0  0  0  0  0  0  0  0  0
   12.6744  -14.5072   19.1325 C   0  0  0  0  0  0  0  0  0  0  0  0
   13.4996  -15.2845   18.1802 C   0  0  0  0  0  0  0  0  0  0  0  0
   13.0244  -16.0280   17.1043 C   0  0  0  0  0  0  0  0  0  0  0  0
   14.1001  -16.5622   16.5160 N   0  0  0  0  0  0  0  0  0  0  0  0
   15.2264  -16.2082   17.1456 C   0  0  0  0  0  0  0  0  0  0  0  0
   14.8217  -15.4182   18.1701 N   0  0  0  0  0  0  0  0  0  0  0  0
   10.4120  -14.1419   19.8925 C   0  0  0  0  0  0  0  0  0  0  0  0
   10.3489  -12.9052   20.0887 O   0  0  0  0  0  0  0  0  0  0  0  0
    7.0387  -14.1948   20.2984 C   0  0  0  0  0  0  0  0  0  0  0  0
    7.4533  -14.9502   21.5456 C   0  0  1  0  0  0  0  0  0  0  0  0
    7.4723  -16.3062   21.2003 O   0  0  0  0  0  0  0  0  0  0  0  0
    8.8773  -14.5575   21.8533 C   0  0  2  0  0  0  0  0  0  0  0  0
    9.6988  -15.0039   20.7586 N   0  0  0  0  0  0  0  0  0  0  0  0
    9.3742  -15.1089   23.1118 C   0  0  0  0  0  0  0  0  0  0  0  0
   10.3272  -15.9380   23.0602 O   0  0  0  0  0  0  0  0  0  0  0  0
    8.8281  -14.7492   24.3893 N   0  0  0  0  0  0  0  0  0  0  0  0
    9.4114  -15.3241   25.5637 C   0  0  1  0  0  0  0  0  0  0  0  0
    9.2091  -14.4762   26.7973 C   0  0  0  0  0  0  0  0  0  0  0  0
    9.8760  -15.1875   27.9508 C   0  0  0  0  0  0  0  0  0  0  0  0
    9.7366  -14.4607   29.2463 C   0  0  0  0  0  0  0  0  0  0  0  0
   10.4330  -15.1626   30.3916 C   0  0  0  0  0  0  0  0  0  0  0  0
   10.2686  -14.3966   31.6121 N   0  0  0  0  0  0  0  0  0  0  0  0
    8.8712  -16.7115   25.7911 C   0  0  0  0  0  0  0  0  0  0  0  0
    9.6306  -17.7028   26.3868 O   0  0  0  0  0  0  0  0  0  0  0  0
    7.7015  -17.0020   25.4391 O   0  0  0  0  0  0  0  0  0  0  0  0
  2  1  1  6
  2  3  1  0
  3  4  1  0
  4  8  1  0
  5  6  1  0
  5  4  2  0
  6  7  1  0
  7  8  2  0
  9 10  2  0
  9  2  1  0
 12 11  1  6
 12 13  1  0
 12 14  1  0
 14 15  1  6
 15  9  1  0
 16 14  1  0
 16 18  1  0
 17 16  2  0
 19 18  1  0
 19 25  1  0
 19 20  1  1
 21 20  1  0
 22 21  1  0
 23 22  1  0
 24 23  1  0
 25 26  1  0
 27 25  2  0
M  END
$$$$
