HTK.pdb
     RDKit          3D

 27 27  0  0  1  0  0  0  0  0999 V2000
    7.7686  -16.2592   19.5545 N   0  0  0  0  0  0  0  0  0  0  0  0
    7.7817  -15.1550   20.4726 C   0  0  1  0  0  0  0  0  0  0  0  0
    6.8512  -14.0720   19.9990 C   0  0  0  0  0  0  0  0  0  0  0  0
    7.3799  -13.5385   18.7232 C   0  0  0  0  0  0  0  0  0  0  0  0
    8.1626  -12.3974   18.5759 C   0  0  0  0  0  0  0  0  0  0  0  0
    8.4146  -12.2844   17.2674 N   0  0  0  0  0  0  0  0  0  0  0  0
    7.8448  -13.2764   16.5736 C   0  0  0  0  0  0  0  0  0  0  0  0
    7.2124  -14.0351   17.5020 N   0  0  0  0  0  0  0  0  0  0  0  0
    7.2566  -15.6297   21.7987 C   0  0  0  0  0  0  0  0  0  0  0  0
    6.0598  -15.9822   21.9219 O   0  0  0  0  0  0  0  0  0  0  0  0
    6.1291  -17.6648   22.9555 C   0  0  0  0  0  0  0  0  0  0  0  0
    7.3351  -17.7360   23.8712 C   0  0  1  0  0  0  0  0  0  0  0  0
    8.3697  -18.3063   23.1212 O   0  0  0  0  0  0  0  0  0  0  0  0
    7.7480  -16.3174   24.1774 C   0  0  2  0  0  0  0  0  0  0  0  0
    8.1017  -15.6878   22.9320 N   0  0  0  0  0  0  0  0  0  0  0  0
    8.8602  -16.2255   25.1205 C   0  0  0  0  0  0  0  0  0  0  0  0
   10.0334  -16.3551   24.6675 O   0  0  0  0  0  0  0  0  0  0  0  0
    8.6737  -15.9964   26.5249 N   0  0  0  0  0  0  0  0  0  0  0  0
    9.8328  -15.9358   27.3631 C   0  0  1  0  0  0  0  0  0  0  0  0
    9.5482  -15.3344   28.7192 C   0  0  0  0  0  0  0  0  0  0  0  0
   10.8271  -15.3968   29.5203 C   0  0  0  0  0  0  0  0  0  0  0  0
   10.6782  -14.8591   30.9040 C   0  0  0  0  0  0  0  0  0  0  0  0
   11.9760  -14.8704   31.6817 C   0  0  0  0  0  0  0  0  0  0  0  0
   11.7512  -14.3677   33.0234 N   0  0  0  0  0  0  0  0  0  0  0  0
   10.4392  -17.3058   27.5178 C   0  0  0  0  0  0  0  0  0  0  0  0
    9.6590  -18.4337   27.7007 O   0  0  0  0  0  0  0  0  0  0  0  0
   11.6854  -17.4551   27.4835 O   0  0  0  0  0  0  0  0  0  0  0  0
  2  1  1  6
  2  3  1  0
  3  4  1  0
  4  8  1  0
  5  6  1  0
  5  4  2  0
  6  7  1  0
  7  8  2  0
  9 10  2  0
  9  2  1  0
 12 11  1  6
 12 13  1  0
 12 14  1  0
 14 15  1  6
 15  9  1  0
 16 14  1  0
 16 18  1  0
 17 16  2  0
 19 18  1  0
 19 25  1  0
 19 20  1  1
 21 20  1  0
 22 21  1  0
 23 22  1  0
 24 23  1  0
 25 26  1  0
 27 25  2  0
M  END
$$$$
