HTK.pdb
     RDKit          3D

 27 27  0  0  1  0  0  0  0  0999 V2000
   11.2074  -15.2760   15.5281 N   0  0  0  0  0  0  0  0  0  0  0  0
   10.1890  -15.8763   16.3435 C   0  0  1  0  0  0  0  0  0  0  0  0
   10.3999  -17.3633   16.4307 C   0  0  0  0  0  0  0  0  0  0  0  0
   10.0937  -17.9485   15.1056 C   0  0  0  0  0  0  0  0  0  0  0  0
    9.0827  -18.8640   14.8301 C   0  0  0  0  0  0  0  0  0  0  0  0
    9.1610  -19.1231   13.5204 N   0  0  0  0  0  0  0  0  0  0  0  0
   10.1534  -18.4341   12.9455 C   0  0  0  0  0  0  0  0  0  0  0  0
   10.7111  -17.7172   13.9518 N   0  0  0  0  0  0  0  0  0  0  0  0
   10.3158  -15.3370   17.7408 C   0  0  0  0  0  0  0  0  0  0  0  0
   11.4393  -15.0381   18.2101 O   0  0  0  0  0  0  0  0  0  0  0  0
    7.8720  -12.6981   18.9771 C   0  0  0  0  0  0  0  0  0  0  0  0
    7.8936  -13.7920   20.0263 C   0  0  1  0  0  0  0  0  0  0  0  0
    6.8614  -14.6778   19.6973 O   0  0  0  0  0  0  0  0  0  0  0  0
    9.1885  -14.5479   19.8573 C   0  0  2  0  0  0  0  0  0  0  0  0
    9.1711  -15.1562   18.5527 N   0  0  0  0  0  0  0  0  0  0  0  0
    9.4069  -15.5650   20.8831 C   0  0  0  0  0  0  0  0  0  0  0  0
    9.0772  -16.7560   20.6164 O   0  0  0  0  0  0  0  0  0  0  0  0
    9.9749  -15.2671   22.1671 N   0  0  0  0  0  0  0  0  0  0  0  0
   10.0797  -16.3254   23.1256 C   0  0  1  0  0  0  0  0  0  0  0  0
   11.5042  -16.7712   23.3575 C   0  0  0  0  0  0  0  0  0  0  0  0
   11.9530  -17.5157   22.1224 C   0  0  0  0  0  0  0  0  0  0  0  0
   13.3337  -18.0684   22.2412 C   0  0  0  0  0  0  0  0  0  0  0  0
   13.7833  -18.7993   20.9950 C   0  0  0  0  0  0  0  0  0  0  0  0
   15.1068  -19.3556   21.2003 N   0  0  0  0  0  0  0  0  0  0  0  0
    9.4434  -15.9167   24.4282 C   0  0  0  0  0  0  0  0  0  0  0  0
    9.3020  -16.8022   25.4818 O   0  0  0  0  0  0  0  0  0  0  0  0
    9.0213  -14.7450   24.5875 O   0  0  0  0  0  0  0  0  0  0  0  0
  2  1  1  6
  2  3  1  0
  3  4  1  0
  4  8  1  0
  5  6  1  0
  5  4  2  0
  6  7  1  0
  7  8  2  0
  9 10  2  0
  9  2  1  0
 12 11  1  6
 12 13  1  0
 12 14  1  0
 14 15  1  6
 15  9  1  0
 16 14  1  0
 16 18  1  0
 17 16  2  0
 19 18  1  0
 19 25  1  0
 19 20  1  1
 21 20  1  0
 22 21  1  0
 23 22  1  0
 24 23  1  0
 25 26  1  0
 27 25  2  0
M  END
$$$$
