HTK.pdb
     RDKit          3D

 27 27  0  0  1  0  0  0  0  0999 V2000
   12.4021  -17.9406   17.9596 N   0  0  0  0  0  0  0  0  0  0  0  0
   12.4106  -17.8674   19.3937 C   0  0  1  0  0  0  0  0  0  0  0  0
   13.6794  -17.2182   19.8752 C   0  0  0  0  0  0  0  0  0  0  0  0
   14.7624  -18.2257   19.8126 C   0  0  0  0  0  0  0  0  0  0  0  0
   14.6030  -19.5820   19.5455 C   0  0  0  0  0  0  0  0  0  0  0  0
   15.8282  -20.1166   19.5858 N   0  0  0  0  0  0  0  0  0  0  0  0
   16.7550  -19.1915   19.8605 C   0  0  0  0  0  0  0  0  0  0  0  0
   16.0645  -18.0328   19.9952 N   0  0  0  0  0  0  0  0  0  0  0  0
   11.2767  -16.9842   19.8340 C   0  0  0  0  0  0  0  0  0  0  0  0
   10.9615  -15.9703   19.1672 O   0  0  0  0  0  0  0  0  0  0  0  0
    8.0605  -18.0091   19.9898 C   0  0  0  0  0  0  0  0  0  0  0  0
    8.2116  -17.5195   21.4165 C   0  0  1  0  0  0  0  0  0  0  0  0
    8.5893  -18.6303   22.1792 O   0  0  0  0  0  0  0  0  0  0  0  0
    9.3746  -16.5585   21.4383 C   0  0  2  0  0  0  0  0  0  0  0  0
   10.5440  -17.2794   21.0079 N   0  0  0  0  0  0  0  0  0  0  0  0
    9.6090  -15.9580   22.7495 C   0  0  0  0  0  0  0  0  0  0  0  0
   10.6539  -16.2939   23.3769 O   0  0  0  0  0  0  0  0  0  0  0  0
    8.7086  -15.0123   23.3453 N   0  0  0  0  0  0  0  0  0  0  0  0
    9.0210  -14.5039   24.6467 C   0  0  1  0  0  0  0  0  0  0  0  0
    8.4866  -13.1103   24.8785 C   0  0  0  0  0  0  0  0  0  0  0  0
    7.3370  -13.2215   25.8519 C   0  0  0  0  0  0  0  0  0  0  0  0
    6.6342  -11.9252   26.0786 C   0  0  0  0  0  0  0  0  0  0  0  0
    5.4282  -12.0608   26.9822 C   0  0  0  0  0  0  0  0  0  0  0  0
    4.8913  -10.7487   27.2879 N   0  0  0  0  0  0  0  0  0  0  0  0
    8.5117  -15.4406   25.7107 C   0  0  0  0  0  0  0  0  0  0  0  0
    7.6656  -16.4939   25.4127 O   0  0  0  0  0  0  0  0  0  0  0  0
    8.8499  -15.2823   26.9094 O   0  0  0  0  0  0  0  0  0  0  0  0
  2  1  1  6
  2  3  1  0
  3  4  1  0
  4  8  1  0
  5  6  1  0
  5  4  2  0
  6  7  1  0
  7  8  2  0
  9 10  2  0
  9  2  1  0
 12 11  1  6
 12 13  1  0
 12 14  1  0
 14 15  1  1
 15  9  1  0
 16 14  1  0
 16 18  1  0
 17 16  2  0
 19 18  1  0
 19 25  1  0
 19 20  1  1
 21 20  1  0
 22 21  1  0
 23 22  1  0
 24 23  1  0
 25 26  1  0
 27 25  2  0
M  END
$$$$
