HTK.pdb
     RDKit          3D

 27 27  0  0  1  0  0  0  0  0999 V2000
    9.9975  -17.8515   16.5839 N   0  0  0  0  0  0  0  0  0  0  0  0
    8.9695  -17.8091   17.5858 C   0  0  1  0  0  0  0  0  0  0  0  0
    8.8545  -19.1430   18.2717 C   0  0  0  0  0  0  0  0  0  0  0  0
    8.1193  -20.0599   17.3713 C   0  0  0  0  0  0  0  0  0  0  0  0
    6.9398  -19.7684   16.6930 C   0  0  0  0  0  0  0  0  0  0  0  0
    6.6261  -20.8686   16.0005 N   0  0  0  0  0  0  0  0  0  0  0  0
    7.5265  -21.8393   16.1932 C   0  0  0  0  0  0  0  0  0  0  0  0
    8.4372  -21.3085   17.0455 N   0  0  0  0  0  0  0  0  0  0  0  0
    9.3684  -16.8126   18.6381 C   0  0  0  0  0  0  0  0  0  0  0  0
   10.5767  -16.6289   18.9178 O   0  0  0  0  0  0  0  0  0  0  0  0
    7.9321  -12.9482   21.2726 C   0  0  0  0  0  0  0  0  0  0  0  0
    7.5764  -14.0367   20.2793 C   0  0  1  0  0  0  0  0  0  0  0  0
    7.6178  -13.4458   19.0115 O   0  0  0  0  0  0  0  0  0  0  0  0
    8.6849  -15.0595   20.3211 C   0  0  2  0  0  0  0  0  0  0  0  0
    8.3893  -16.0634   19.3325 N   0  0  0  0  0  0  0  0  0  0  0  0
    8.8546  -15.6806   21.6326 C   0  0  0  0  0  0  0  0  0  0  0  0
    8.0488  -16.5971   21.9630 O   0  0  0  0  0  0  0  0  0  0  0  0
    9.8891  -15.2945   22.5494 N   0  0  0  0  0  0  0  0  0  0  0  0
    9.9985  -16.0040   23.7881 C   0  0  1  0  0  0  0  0  0  0  0  0
   11.4166  -16.0731   24.3039 C   0  0  0  0  0  0  0  0  0  0  0  0
   12.1877  -16.9943   23.3885 C   0  0  0  0  0  0  0  0  0  0  0  0
   13.6369  -17.0825   23.7319 C   0  0  0  0  0  0  0  0  0  0  0  0
   14.4173  -17.9493   22.7681 C   0  0  0  0  0  0  0  0  0  0  0  0
   15.8396  -17.7916   23.0042 N   0  0  0  0  0  0  0  0  0  0  0  0
    9.0965  -15.3885   24.8255 C   0  0  0  0  0  0  0  0  0  0  0  0
    8.4363  -14.1931   24.6030 O   0  0  0  0  0  0  0  0  0  0  0  0
    8.9222  -15.9566   25.9315 O   0  0  0  0  0  0  0  0  0  0  0  0
  2  1  1  6
  2  3  1  0
  3  4  1  0
  4  8  1  0
  5  6  1  0
  5  4  2  0
  6  7  1  0
  7  8  2  0
  9 10  2  0
  9  2  1  0
 12 11  1  1
 12 13  1  0
 12 14  1  0
 14 15  1  6
 15  9  1  0
 16 14  1  0
 16 18  1  0
 17 16  2  0
 19 18  1  0
 19 25  1  0
 19 20  1  1
 21 20  1  0
 22 21  1  0
 23 22  1  0
 24 23  1  0
 25 26  1  0
 27 25  2  0
M  END
$$$$
