HTK.pdb
     RDKit          3D

 27 27  0  0  1  0  0  0  0  0999 V2000
   10.5831  -16.0538   16.4848 N   0  0  0  0  0  0  0  0  0  0  0  0
    9.3935  -16.0853   17.2886 C   0  0  1  0  0  0  0  0  0  0  0  0
    8.9053  -17.4999   17.4422 C   0  0  0  0  0  0  0  0  0  0  0  0
    8.1926  -17.8765   16.2004 C   0  0  0  0  0  0  0  0  0  0  0  0
    8.1071  -17.1100   15.0422 C   0  0  0  0  0  0  0  0  0  0  0  0
    7.3774  -17.8221   14.1767 N   0  0  0  0  0  0  0  0  0  0  0  0
    6.9937  -18.9890   14.7069 C   0  0  0  0  0  0  0  0  0  0  0  0
    7.5134  -18.9930   15.9589 N   0  0  0  0  0  0  0  0  0  0  0  0
    9.7346  -15.5915   18.6668 C   0  0  0  0  0  0  0  0  0  0  0  0
   10.9161  -15.6306   19.0844 O   0  0  0  0  0  0  0  0  0  0  0  0
    7.8609  -12.5625   20.1819 C   0  0  0  0  0  0  0  0  0  0  0  0
    7.8534  -13.6637   21.2236 C   0  0  1  0  0  0  0  0  0  0  0  0
    6.6483  -14.3559   21.0606 O   0  0  0  0  0  0  0  0  0  0  0  0
    8.9609  -14.6242   20.8665 C   0  0  2  0  0  0  0  0  0  0  0  0
    8.7303  -15.0737   19.5184 N   0  0  0  0  0  0  0  0  0  0  0  0
    9.0519  -15.7694   21.7693 C   0  0  0  0  0  0  0  0  0  0  0  0
    8.7913  -16.9147   21.3017 O   0  0  0  0  0  0  0  0  0  0  0  0
    9.4215  -15.6450   23.1505 N   0  0  0  0  0  0  0  0  0  0  0  0
    9.9242  -16.8029   23.8261 C   0  0  1  0  0  0  0  0  0  0  0  0
   11.2086  -17.3239   23.2257 C   0  0  0  0  0  0  0  0  0  0  0  0
   11.5356  -18.6272   23.9154 C   0  0  0  0  0  0  0  0  0  0  0  0
   12.7957  -19.2527   23.4184 C   0  0  0  0  0  0  0  0  0  0  0  0
   13.0887  -20.5845   24.0737 C   0  0  0  0  0  0  0  0  0  0  0  0
   14.2921  -21.1599   23.5045 N   0  0  0  0  0  0  0  0  0  0  0  0
   10.1148  -16.5123   25.2917 C   0  0  0  0  0  0  0  0  0  0  0  0
    9.5908  -17.3341   26.2736 O   0  0  0  0  0  0  0  0  0  0  0  0
   10.7636  -15.5019   25.6585 O   0  0  0  0  0  0  0  0  0  0  0  0
  2  1  1  6
  2  3  1  0
  3  4  1  0
  4  8  1  0
  5  6  1  0
  5  4  2  0
  6  7  1  0
  7  8  2  0
  9 10  2  0
  9  2  1  0
 12 11  1  6
 12 13  1  0
 12 14  1  0
 14 15  1  6
 15  9  1  0
 16 14  1  0
 16 18  1  0
 17 16  2  0
 19 18  1  0
 19 25  1  0
 19 20  1  6
 21 20  1  0
 22 21  1  0
 23 22  1  0
 24 23  1  0
 25 26  1  0
 27 25  2  0
M  END
$$$$
