HTK.pdb
     RDKit          3D

 27 27  0  0  1  0  0  0  0  0999 V2000
   12.1811  -19.7719   18.7568 N   0  0  0  0  0  0  0  0  0  0  0  0
   12.1754  -18.3831   19.1220 C   0  0  1  0  0  0  0  0  0  0  0  0
   12.5594  -17.5321   17.9424 C   0  0  0  0  0  0  0  0  0  0  0  0
   14.0136  -17.6923   17.7153 C   0  0  0  0  0  0  0  0  0  0  0  0
   15.0208  -17.4043   18.6311 C   0  0  0  0  0  0  0  0  0  0  0  0
   16.1746  -17.6918   18.0192 N   0  0  0  0  0  0  0  0  0  0  0  0
   15.9684  -18.1430   16.7766 C   0  0  0  0  0  0  0  0  0  0  0  0
   14.6221  -18.1316   16.6186 N   0  0  0  0  0  0  0  0  0  0  0  0
   10.7736  -17.9940   19.5003 C   0  0  0  0  0  0  0  0  0  0  0  0
    9.8168  -18.2189   18.7219 O   0  0  0  0  0  0  0  0  0  0  0  0
    8.4003  -19.0354   20.0516 C   0  0  0  0  0  0  0  0  0  0  0  0
    8.4444  -18.3523   21.4042 C   0  0  1  0  0  0  0  0  0  0  0  0
    9.2337  -19.1596   22.2309 O   0  0  0  0  0  0  0  0  0  0  0  0
    9.1881  -17.0519   21.2242 C   0  0  2  0  0  0  0  0  0  0  0  0
   10.5068  -17.3673   20.7405 N   0  0  0  0  0  0  0  0  0  0  0  0
    9.2782  -16.2586   22.4478 C   0  0  0  0  0  0  0  0  0  0  0  0
   10.4069  -16.1607   23.0087 O   0  0  0  0  0  0  0  0  0  0  0  0
    8.1473  -15.5941   23.0303 N   0  0  0  0  0  0  0  0  0  0  0  0
    8.3752  -14.6958   24.1216 C   0  0  1  0  0  0  0  0  0  0  0  0
    7.1800  -13.8238   24.4262 C   0  0  0  0  0  0  0  0  0  0  0  0
    7.5639  -12.9103   25.5661 C   0  0  0  0  0  0  0  0  0  0  0  0
    6.4599  -11.9968   25.9816 C   0  0  0  0  0  0  0  0  0  0  0  0
    6.8834  -11.0106   27.0481 C   0  0  0  0  0  0  0  0  0  0  0  0
    5.7665  -10.1548   27.3996 N   0  0  0  0  0  0  0  0  0  0  0  0
    8.7887  -15.4606   25.3516 C   0  0  0  0  0  0  0  0  0  0  0  0
    9.7872  -15.0050   26.1941 O   0  0  0  0  0  0  0  0  0  0  0  0
    8.2268  -16.5451   25.6425 O   0  0  0  0  0  0  0  0  0  0  0  0
  2  1  1  6
  2  3  1  0
  3  4  1  0
  4  8  1  0
  5  6  1  0
  5  4  2  0
  6  7  1  0
  7  8  2  0
  9 10  2  0
  9  2  1  0
 12 11  1  6
 12 13  1  0
 12 14  1  0
 14 15  1  1
 15  9  1  0
 16 14  1  0
 16 18  1  0
 17 16  2  0
 19 18  1  0
 19 25  1  0
 19 20  1  1
 21 20  1  0
 22 21  1  0
 23 22  1  0
 24 23  1  0
 25 26  1  0
 27 25  2  0
M  END
$$$$
