HTK.pdb
     RDKit          3D

 27 27  0  0  1  0  0  0  0  0999 V2000
    9.2538  -15.8615   16.9904 N   0  0  0  0  0  0  0  0  0  0  0  0
    9.8507  -16.3199   18.2134 C   0  0  1  0  0  0  0  0  0  0  0  0
   11.3477  -16.3743   18.0747 C   0  0  0  0  0  0  0  0  0  0  0  0
   11.6866  -17.5259   17.2081 C   0  0  0  0  0  0  0  0  0  0  0  0
   11.9050  -18.8327   17.6333 C   0  0  0  0  0  0  0  0  0  0  0  0
   12.1804  -19.5417   16.5333 N   0  0  0  0  0  0  0  0  0  0  0  0
   12.1516  -18.7736   15.4382 C   0  0  0  0  0  0  0  0  0  0  0  0
   11.8435  -17.5327   15.8885 N   0  0  0  0  0  0  0  0  0  0  0  0
    9.5508  -15.3208   19.2956 C   0  0  0  0  0  0  0  0  0  0  0  0
    9.4182  -14.1044   19.0222 O   0  0  0  0  0  0  0  0  0  0  0  0
    7.3169  -14.0584   20.0155 C   0  0  0  0  0  0  0  0  0  0  0  0
    7.4017  -14.6999   21.3864 C   0  0  1  0  0  0  0  0  0  0  0  0
    6.8237  -15.9687   21.2673 O   0  0  0  0  0  0  0  0  0  0  0  0
    8.8642  -14.9127   21.6904 C   0  0  2  0  0  0  0  0  0  0  0  0
    9.4126  -15.7329   20.6421 N   0  0  0  0  0  0  0  0  0  0  0  0
    9.1041  -15.5331   22.9913 C   0  0  0  0  0  0  0  0  0  0  0  0
    9.6027  -16.6947   23.0109 O   0  0  0  0  0  0  0  0  0  0  0  0
    8.7988  -14.8816   24.2332 N   0  0  0  0  0  0  0  0  0  0  0  0
    9.3486  -15.4249   25.4383 C   0  0  1  0  0  0  0  0  0  0  0  0
    9.4815  -14.3995   26.5396 C   0  0  0  0  0  0  0  0  0  0  0  0
   10.1556  -15.0758   27.7098 C   0  0  0  0  0  0  0  0  0  0  0  0
   10.3234  -14.1767   28.8885 C   0  0  0  0  0  0  0  0  0  0  0  0
   11.0503  -14.8423   30.0365 C   0  0  0  0  0  0  0  0  0  0  0  0
   11.1130  -13.9396   31.1699 N   0  0  0  0  0  0  0  0  0  0  0  0
    8.5226  -16.5924   25.9108 C   0  0  0  0  0  0  0  0  0  0  0  0
    9.0835  -17.6528   26.6002 O   0  0  0  0  0  0  0  0  0  0  0  0
    7.2880  -16.6282   25.6851 O   0  0  0  0  0  0  0  0  0  0  0  0
  2  1  1  6
  2  3  1  0
  3  4  1  0
  4  8  1  0
  5  6  1  0
  5  4  2  0
  6  7  1  0
  7  8  2  0
  9 10  2  0
  9  2  1  0
 12 11  1  6
 12 13  1  0
 12 14  1  0
 14 15  1  6
 15  9  1  0
 16 14  1  0
 16 18  1  0
 17 16  2  0
 19 18  1  0
 19 25  1  0
 19 20  1  1
 21 20  1  0
 22 21  1  0
 23 22  1  0
 24 23  1  0
 25 26  1  0
 27 25  2  0
M  END
$$$$
