HTK.pdb
     RDKit          3D

 27 27  0  0  1  0  0  0  0  0999 V2000
    7.9171  -15.0045   15.0961 N   0  0  0  0  0  0  0  0  0  0  0  0
    8.7015  -15.7337   16.0528 C   0  0  1  0  0  0  0  0  0  0  0  0
   10.0194  -16.1355   15.4488 C   0  0  0  0  0  0  0  0  0  0  0  0
    9.7562  -17.1621   14.4149 C   0  0  0  0  0  0  0  0  0  0  0  0
    9.3316  -18.4666   14.6474 C   0  0  0  0  0  0  0  0  0  0  0  0
    9.2202  -19.0424   13.4454 N   0  0  0  0  0  0  0  0  0  0  0  0
    9.5453  -18.1917   12.4653 C   0  0  0  0  0  0  0  0  0  0  0  0
    9.8721  -17.0377   13.0969 N   0  0  0  0  0  0  0  0  0  0  0  0
    9.0127  -14.8243   17.2085 C   0  0  0  0  0  0  0  0  0  0  0  0
    8.8502  -13.5853   17.1073 O   0  0  0  0  0  0  0  0  0  0  0  0
    7.9935  -13.0701   18.6331 C   0  0  0  0  0  0  0  0  0  0  0  0
    8.2719  -13.8996   19.8710 C   0  0  1  0  0  0  0  0  0  0  0  0
    7.2904  -14.8962   19.9097 O   0  0  0  0  0  0  0  0  0  0  0  0
    9.5931  -14.5956   19.6547 C   0  0  2  0  0  0  0  0  0  0  0  0
    9.4943  -15.3482   18.4315 N   0  0  0  0  0  0  0  0  0  0  0  0
    9.9747  -15.4758   20.7567 C   0  0  0  0  0  0  0  0  0  0  0  0
    9.4503  -16.6251   20.8058 O   0  0  0  0  0  0  0  0  0  0  0  0
   10.9110  -15.0897   21.7735 N   0  0  0  0  0  0  0  0  0  0  0  0
   11.5993  -16.1208   22.4899 C   0  0  1  0  0  0  0  0  0  0  0  0
   12.9638  -15.6908   22.9747 C   0  0  0  0  0  0  0  0  0  0  0  0
   13.5903  -16.8743   23.6735 C   0  0  0  0  0  0  0  0  0  0  0  0
   14.9534  -16.5851   24.2068 C   0  0  0  0  0  0  0  0  0  0  0  0
   15.5977  -17.7899   24.8568 C   0  0  0  0  0  0  0  0  0  0  0  0
   16.9614  -17.4746   25.2367 N   0  0  0  0  0  0  0  0  0  0  0  0
   10.7634  -16.6021   23.6467 C   0  0  0  0  0  0  0  0  0  0  0  0
    9.6004  -15.9560   24.0264 O   0  0  0  0  0  0  0  0  0  0  0  0
   11.1103  -17.6160   24.3009 O   0  0  0  0  0  0  0  0  0  0  0  0
  2  1  1  6
  2  3  1  0
  3  4  1  0
  4  8  1  0
  5  6  1  0
  5  4  2  0
  6  7  1  0
  7  8  2  0
  9 10  2  0
  9  2  1  0
 12 11  1  6
 12 13  1  0
 12 14  1  0
 14 15  1  6
 15  9  1  0
 16 14  1  0
 16 18  1  0
 17 16  2  0
 19 18  1  0
 19 25  1  0
 19 20  1  1
 21 20  1  0
 22 21  1  0
 23 22  1  0
 24 23  1  0
 25 26  1  0
 27 25  2  0
M  END
$$$$
