HTK.pdb
     RDKit          3D

 27 27  0  0  1  0  0  0  0  0999 V2000
    8.2417  -15.2084   15.3103 N   0  0  0  0  0  0  0  0  0  0  0  0
    8.2851  -16.0636   16.4631 C   0  0  1  0  0  0  0  0  0  0  0  0
    9.1968  -17.2333   16.2107 C   0  0  0  0  0  0  0  0  0  0  0  0
    8.4049  -18.2994   15.5562 C   0  0  0  0  0  0  0  0  0  0  0  0
    7.4058  -18.1096   14.6065 C   0  0  0  0  0  0  0  0  0  0  0  0
    6.9587  -19.3288   14.2869 N   0  0  0  0  0  0  0  0  0  0  0  0
    7.6063  -20.2801   14.9693 C   0  0  0  0  0  0  0  0  0  0  0  0
    8.4941  -19.6117   15.7456 N   0  0  0  0  0  0  0  0  0  0  0  0
    8.8764  -15.2914   17.6092 C   0  0  0  0  0  0  0  0  0  0  0  0
    9.7214  -14.3887   17.4020 O   0  0  0  0  0  0  0  0  0  0  0  0
    7.1186  -13.2884   19.8425 C   0  0  0  0  0  0  0  0  0  0  0  0
    7.7739  -14.2641   20.7999 C   0  0  1  0  0  0  0  0  0  0  0  0
    6.8632  -15.3103   20.9851 O   0  0  0  0  0  0  0  0  0  0  0  0
    8.9721  -14.8478   20.0925 C   0  0  2  0  0  0  0  0  0  0  0  0
    8.4913  -15.5678   18.9424 N   0  0  0  0  0  0  0  0  0  0  0  0
    9.7747  -15.7289   20.9376 C   0  0  0  0  0  0  0  0  0  0  0  0
    9.6492  -16.9770   20.7799 O   0  0  0  0  0  0  0  0  0  0  0  0
   10.6895  -15.2372   21.9282 N   0  0  0  0  0  0  0  0  0  0  0  0
   11.3902  -16.1882   22.7372 C   0  0  1  0  0  0  0  0  0  0  0  0
   12.5945  -15.5970   23.4312 C   0  0  0  0  0  0  0  0  0  0  0  0
   13.2932  -16.7193   24.1618 C   0  0  0  0  0  0  0  0  0  0  0  0
   14.7619  -16.7615   23.9029 C   0  0  0  0  0  0  0  0  0  0  0  0
   15.4547  -17.8916   24.6324 C   0  0  0  0  0  0  0  0  0  0  0  0
   16.8596  -17.9218   24.2736 N   0  0  0  0  0  0  0  0  0  0  0  0
   10.4577  -16.8044   23.7469 C   0  0  0  0  0  0  0  0  0  0  0  0
    9.4075  -16.0939   24.3006 O   0  0  0  0  0  0  0  0  0  0  0  0
   10.6168  -17.9948   24.1129 O   0  0  0  0  0  0  0  0  0  0  0  0
  2  1  1  6
  2  3  1  0
  3  4  1  0
  4  8  1  0
  5  6  1  0
  5  4  2  0
  6  7  1  0
  7  8  2  0
  9 10  2  0
  9  2  1  0
 12 11  1  6
 12 13  1  0
 12 14  1  0
 14 15  1  6
 15  9  1  0
 16 14  1  0
 16 18  1  0
 17 16  2  0
 19 18  1  0
 19 25  1  0
 19 20  1  1
 21 20  1  0
 22 21  1  0
 23 22  1  0
 24 23  1  0
 25 26  1  0
 27 25  2  0
M  END
$$$$
