LCI.pdb
     RDKit          3D

 23 22  0  0  1  0  0  0  0  0999 V2000
   18.4233  -13.1079  -19.5191 C   0  0  0  0  0  0  0  0  0  0  0  0
   18.0289  -13.8771  -18.2510 C   0  0  2  0  0  0  0  0  0  0  0  0
   16.5542  -14.1875  -18.3966 C   0  0  0  0  0  0  0  0  0  0  0  0
   18.2567  -12.9368  -17.0991 C   0  0  0  0  0  0  0  0  0  0  0  0
   19.7139  -12.5806  -16.9291 C   0  0  2  0  0  0  0  0  0  0  0  0
   20.5250  -13.6682  -16.4800 N   0  0  0  0  0  0  0  0  0  0  0  0
   19.8330  -11.3701  -16.0759 C   0  0  0  0  0  0  0  0  0  0  0  0
   19.5624  -11.4923  -14.8532 O   0  0  0  0  0  0  0  0  0  0  0  0
   20.2265  -10.1082  -16.5500 N   0  0  0  0  0  0  0  0  0  0  0  0
   20.3820   -8.9306  -15.7499 C   0  0  1  0  0  0  0  0  0  0  0  0
   21.8561   -8.6946  -15.3878 C   0  0  0  0  0  0  0  0  0  0  0  0
   22.0226   -7.2028  -14.3722 S   0  0  0  0  0  0  0  0  0  0  0  0
   19.8233   -7.7195  -16.4119 C   0  0  0  0  0  0  0  0  0  0  0  0
   20.0800   -7.5095  -17.6334 O   0  0  0  0  0  0  0  0  0  0  0  0
   15.1117   -4.6998  -17.9179 C   0  0  0  0  0  0  0  0  0  0  0  0
   16.5223   -4.4924  -17.4027 C   0  0  0  0  0  0  0  0  0  0  0  0
   17.0749   -5.7560  -16.7984 C   0  0  2  0  0  0  0  0  0  0  0  0
   16.2152   -6.0277  -15.5548 C   0  0  0  0  0  0  0  0  0  0  0  0
   18.5110   -5.5647  -16.4328 C   0  0  2  0  0  0  0  0  0  0  0  0
   19.0147   -6.7787  -15.7527 N   0  0  0  0  0  0  0  0  0  0  0  0
   18.7175   -4.4591  -15.4792 C   0  0  0  0  0  0  0  0  0  0  0  0
   18.8516   -3.1386  -15.8736 O   0  0  0  0  0  0  0  0  0  0  0  0
   18.7846   -4.6660  -14.2386 O   0  0  0  0  0  0  0  0  0  0  0  0
  2  1  1  6
  3  2  1  0
  4  2  1  0
  5  4  1  0
  5  6  1  1
  7  8  2  0
  7  5  1  0
  9  7  1  0
 10  9  1  0
 10 11  1  6
 12 11  1  0
 13 10  1  0
 13 20  1  0
 14 13  2  0
 15 16  1  0
 17 16  1  0
 17 19  1  0
 17 18  1  1
 19 20  1  1
 19 21  1  0
 21 23  2  0
 21 22  1  0
M  END
$$$$
