LCI.pdb
     RDKit          3D

 23 22  0  0  1  0  0  0  0  0999 V2000
   24.7822  -25.9285  -15.5638 C   0  0  0  0  0  0  0  0  0  0  0  0
   24.6735  -25.2081  -16.9145 C   0  0  2  0  0  0  0  0  0  0  0  0
   23.4411  -25.7739  -17.5878 C   0  0  0  0  0  0  0  0  0  0  0  0
   25.9101  -25.5743  -17.6888 C   0  0  0  0  0  0  0  0  0  0  0  0
   27.1641  -25.0064  -17.0687 C   0  0  2  0  0  0  0  0  0  0  0  0
   27.1194  -23.5921  -16.8690 N   0  0  0  0  0  0  0  0  0  0  0  0
   28.3485  -25.4505  -17.8481 C   0  0  0  0  0  0  0  0  0  0  0  0
   28.7210  -24.7225  -18.8044 O   0  0  0  0  0  0  0  0  0  0  0  0
   29.0706  -26.6253  -17.5824 N   0  0  0  0  0  0  0  0  0  0  0  0
   30.3237  -26.9833  -18.1760 C   0  0  1  0  0  0  0  0  0  0  0  0
   31.3926  -25.9131  -17.9074 C   0  0  0  0  0  0  0  0  0  0  0  0
   33.0207  -26.5029  -18.4424 S   0  0  0  0  0  0  0  0  0  0  0  0
   30.8101  -28.3119  -17.7119 C   0  0  0  0  0  0  0  0  0  0  0  0
   30.9502  -28.5194  -16.4711 O   0  0  0  0  0  0  0  0  0  0  0  0
   28.2967  -32.5801  -18.5340 C   0  0  0  0  0  0  0  0  0  0  0  0
   29.2766  -31.5592  -17.9900 C   0  0  0  0  0  0  0  0  0  0  0  0
   30.6486  -31.7497  -18.5805 C   0  0  2  0  0  0  0  0  0  0  0  0
   31.1032  -33.1442  -18.1238 C   0  0  0  0  0  0  0  0  0  0  0  0
   31.5741  -30.6880  -18.0814 C   0  0  2  0  0  0  0  0  0  0  0  0
   31.1289  -29.3683  -18.5815 N   0  0  0  0  0  0  0  0  0  0  0  0
   32.9549  -30.8545  -18.5711 C   0  0  0  0  0  0  0  0  0  0  0  0
   33.9773  -31.3602  -17.7860 O   0  0  0  0  0  0  0  0  0  0  0  0
   33.2773  -30.5381  -19.7469 O   0  0  0  0  0  0  0  0  0  0  0  0
  2  1  1  1
  3  2  1  0
  4  2  1  0
  5  4  1  0
  5  6  1  6
  7  8  2  0
  7  5  1  0
  9  7  1  0
 10  9  1  0
 10 11  1  1
 12 11  1  0
 13 10  1  0
 13 20  1  0
 14 13  2  0
 15 16  1  0
 17 16  1  0
 17 19  1  0
 17 18  1  1
 19 20  1  6
 19 21  1  0
 21 23  2  0
 21 22  1  0
M  END
$$$$
