LCI.pdb
     RDKit          3D

 23 22  0  0  1  0  0  0  0  0999 V2000
   25.7265  -16.5811  -17.6837 C   0  0  0  0  0  0  0  0  0  0  0  0
   24.5041  -17.5087  -17.7032 C   0  0  2  0  0  0  0  0  0  0  0  0
   23.3116  -16.6290  -17.3928 C   0  0  0  0  0  0  0  0  0  0  0  0
   24.7179  -18.5115  -16.6025 C   0  0  0  0  0  0  0  0  0  0  0  0
   26.0046  -19.2830  -16.7715 C   0  0  2  0  0  0  0  0  0  0  0  0
   26.0293  -20.1164  -17.9320 N   0  0  0  0  0  0  0  0  0  0  0  0
   26.3119  -20.0170  -15.5168 C   0  0  0  0  0  0  0  0  0  0  0  0
   25.4484  -20.8273  -15.0914 O   0  0  0  0  0  0  0  0  0  0  0  0
   27.4996  -19.8609  -14.7840 N   0  0  0  0  0  0  0  0  0  0  0  0
   27.8223  -20.5446  -13.5677 C   0  0  1  0  0  0  0  0  0  0  0  0
   29.3024  -20.3584  -13.2006 C   0  0  0  0  0  0  0  0  0  0  0  0
   29.6440  -21.0894  -11.5777 S   0  0  0  0  0  0  0  0  0  0  0  0
   26.9612  -20.1145  -12.4317 C   0  0  0  0  0  0  0  0  0  0  0  0
   26.7546  -18.8795  -12.2464 O   0  0  0  0  0  0  0  0  0  0  0  0
   22.0879  -21.2629  -11.6295 C   0  0  0  0  0  0  0  0  0  0  0  0
   23.4488  -20.6021  -11.5307 C   0  0  0  0  0  0  0  0  0  0  0  0
   24.2315  -21.1349  -10.3598 C   0  0  2  0  0  0  0  0  0  0  0  0
   23.4373  -20.7213   -9.1116 C   0  0  0  0  0  0  0  0  0  0  0  0
   25.6041  -20.5445  -10.3486 C   0  0  2  0  0  0  0  0  0  0  0  0
   26.3530  -21.0105  -11.5368 N   0  0  0  0  0  0  0  0  0  0  0  0
   26.4014  -20.9691   -9.1832 C   0  0  0  0  0  0  0  0  0  0  0  0
   26.4785  -20.2319   -8.0136 O   0  0  0  0  0  0  0  0  0  0  0  0
   27.0635  -22.0405   -9.1958 O   0  0  0  0  0  0  0  0  0  0  0  0
  2  1  1  1
  3  2  1  0
  4  2  1  0
  5  4  1  0
  5  6  1  6
  7  8  2  0
  7  5  1  0
  9  7  1  0
 10  9  1  0
 10 11  1  1
 12 11  1  0
 13 10  1  0
 13 20  1  0
 14 13  2  0
 15 16  1  0
 17 16  1  0
 17 19  1  0
 17 18  1  1
 19 20  1  6
 19 21  1  0
 21 23  2  0
 21 22  1  0
M  END
$$$$
