LCI.pdb
     RDKit          3D

 23 22  0  0  1  0  0  0  0  0999 V2000
   27.3535  -27.1438  -19.8665 C   0  0  0  0  0  0  0  0  0  0  0  0
   27.7704  -28.1412  -18.7772 C   0  0  2  0  0  0  0  0  0  0  0  0
   27.1025  -29.4513  -19.1375 C   0  0  0  0  0  0  0  0  0  0  0  0
   27.2182  -27.6082  -17.4834 C   0  0  0  0  0  0  0  0  0  0  0  0
   27.8610  -26.3031  -17.0799 C   0  0  2  0  0  0  0  0  0  0  0  0
   29.2264  -26.4324  -16.6785 N   0  0  0  0  0  0  0  0  0  0  0  0
   27.0140  -25.6253  -16.0648 C   0  0  0  0  0  0  0  0  0  0  0  0
   26.9467  -26.1475  -14.9220 O   0  0  0  0  0  0  0  0  0  0  0  0
   26.2901  -24.4459  -16.3038 N   0  0  0  0  0  0  0  0  0  0  0  0
   25.4752  -23.7616  -15.3453 C   0  0  1  0  0  0  0  0  0  0  0  0
   25.7863  -22.2574  -15.3234 C   0  0  0  0  0  0  0  0  0  0  0  0
   24.7484  -21.4188  -14.0969 S   0  0  0  0  0  0  0  0  0  0  0  0
   24.0211  -23.9741  -15.5851 C   0  0  0  0  0  0  0  0  0  0  0  0
   23.5454  -23.7476  -16.7360 O   0  0  0  0  0  0  0  0  0  0  0  0
   21.0841  -27.7321  -12.9200 C   0  0  0  0  0  0  0  0  0  0  0  0
   21.5223  -26.8205  -14.0493 C   0  0  0  0  0  0  0  0  0  0  0  0
   21.0473  -25.4089  -13.8280 C   0  0  2  0  0  0  0  0  0  0  0  0
   19.5206  -25.4582  -13.9908 C   0  0  0  0  0  0  0  0  0  0  0  0
   21.6698  -24.4945  -14.8324 C   0  0  2  0  0  0  0  0  0  0  0  0
   23.1285  -24.4182  -14.5953 N   0  0  0  0  0  0  0  0  0  0  0  0
   21.1765  -23.1087  -14.7295 C   0  0  0  0  0  0  0  0  0  0  0  0
   21.7282  -22.1741  -13.8697 O   0  0  0  0  0  0  0  0  0  0  0  0
   20.2118  -22.7015  -15.4296 O   0  0  0  0  0  0  0  0  0  0  0  0
  2  1  1  6
  3  2  1  0
  4  2  1  0
  5  4  1  0
  5  6  1  1
  7  8  2  0
  7  5  1  0
  9  7  1  0
 10  9  1  0
 10 11  1  6
 12 11  1  0
 13 10  1  0
 13 20  1  0
 14 13  2  0
 15 16  1  0
 17 16  1  0
 17 19  1  0
 17 18  1  6
 19 20  1  1
 19 21  1  0
 21 23  2  0
 21 22  1  0
M  END
$$$$
