LCI.pdb
     RDKit          3D

 23 22  0  0  1  0  0  0  0  0999 V2000
   13.7289  -10.9694  -15.4945 C   0  0  0  0  0  0  0  0  0  0  0  0
   13.9591  -12.2612  -14.6988 C   0  0  2  0  0  0  0  0  0  0  0  0
   12.5851  -12.7406  -14.2808 C   0  0  0  0  0  0  0  0  0  0  0  0
   14.7702  -11.8748  -13.4923 C   0  0  0  0  0  0  0  0  0  0  0  0
   16.1222  -11.3158  -13.8653 C   0  0  2  0  0  0  0  0  0  0  0  0
   17.0492  -12.3036  -14.3206 N   0  0  0  0  0  0  0  0  0  0  0  0
   16.6462  -10.4937  -12.7442 C   0  0  0  0  0  0  0  0  0  0  0  0
   17.2010  -11.0983  -11.7903 O   0  0  0  0  0  0  0  0  0  0  0  0
   16.5594   -9.0933  -12.6870 N   0  0  0  0  0  0  0  0  0  0  0  0
   17.1796   -8.2612  -11.7002 C   0  0  1  0  0  0  0  0  0  0  0  0
   18.5302   -7.7225  -12.1958 C   0  0  0  0  0  0  0  0  0  0  0  0
   18.3201   -6.8547  -13.7731 S   0  0  0  0  0  0  0  0  0  0  0  0
   16.3054   -7.1298  -11.2842 C   0  0  0  0  0  0  0  0  0  0  0  0
   15.5881   -6.5521  -12.1524 O   0  0  0  0  0  0  0  0  0  0  0  0
   13.9904   -6.8998   -6.3250 C   0  0  0  0  0  0  0  0  0  0  0  0
   15.0109   -6.4628   -7.3575 C   0  0  0  0  0  0  0  0  0  0  0  0
   14.3414   -5.9486   -8.6043 C   0  0  2  0  0  0  0  0  0  0  0  0
   13.5181   -7.1272   -9.1453 C   0  0  0  0  0  0  0  0  0  0  0  0
   15.3699   -5.5068   -9.5941 C   0  0  2  0  0  0  0  0  0  0  0  0
   16.2263   -6.6555   -9.9643 N   0  0  0  0  0  0  0  0  0  0  0  0
   16.2853   -4.4854   -9.0527 C   0  0  0  0  0  0  0  0  0  0  0  0
   15.8966   -3.1795   -8.8063 O   0  0  0  0  0  0  0  0  0  0  0  0
   17.4860   -4.7556   -8.7850 O   0  0  0  0  0  0  0  0  0  0  0  0
  2  1  1  6
  3  2  1  0
  4  2  1  0
  5  4  1  0
  5  6  1  1
  7  8  2  0
  7  5  1  0
  9  7  1  0
 10  9  1  0
 10 11  1  6
 12 11  1  0
 13 10  1  0
 13 20  1  0
 14 13  2  0
 15 16  1  0
 17 16  1  0
 17 19  1  0
 17 18  1  6
 19 20  1  1
 19 21  1  0
 21 23  2  0
 21 22  1  0
M  END
$$$$
