LCI.pdb
     RDKit          3D

 23 22  0  0  1  0  0  0  0  0999 V2000
   27.9289  -16.1291  -17.2751 C   0  0  0  0  0  0  0  0  0  0  0  0
   26.5949  -16.8264  -17.5740 C   0  0  2  0  0  0  0  0  0  0  0  0
   25.5305  -15.7575  -17.4439 C   0  0  0  0  0  0  0  0  0  0  0  0
   26.4192  -17.8751  -16.5099 C   0  0  0  0  0  0  0  0  0  0  0  0
   27.4311  -18.9891  -16.6301 C   0  0  2  0  0  0  0  0  0  0  0  0
   27.3327  -19.7289  -17.8488 N   0  0  0  0  0  0  0  0  0  0  0  0
   27.3720  -19.8465  -15.4182 C   0  0  0  0  0  0  0  0  0  0  0  0
   26.4437  -20.6932  -15.3503 O   0  0  0  0  0  0  0  0  0  0  0  0
   28.2836  -19.7682  -14.3529 N   0  0  0  0  0  0  0  0  0  0  0  0
   28.1943  -20.5018  -13.1262 C   0  0  1  0  0  0  0  0  0  0  0  0
   29.4982  -20.3994  -12.3204 C   0  0  0  0  0  0  0  0  0  0  0  0
   29.2815  -21.1349  -10.6782 S   0  0  0  0  0  0  0  0  0  0  0  0
   27.0452  -20.0626  -12.2871 C   0  0  0  0  0  0  0  0  0  0  0  0
   26.8529  -18.8253  -12.1021 O   0  0  0  0  0  0  0  0  0  0  0  0
   22.1808  -20.9274  -13.1996 C   0  0  0  0  0  0  0  0  0  0  0  0
   23.4530  -20.3545  -12.6065 C   0  0  0  0  0  0  0  0  0  0  0  0
   23.7518  -20.9632  -11.2620 C   0  0  2  0  0  0  0  0  0  0  0  0
   22.6129  -20.5028  -10.3397 C   0  0  0  0  0  0  0  0  0  0  0  0
   25.0776  -20.4853  -10.7655 C   0  0  2  0  0  0  0  0  0  0  0  0
   26.1454  -20.9525  -11.6773 N   0  0  0  0  0  0  0  0  0  0  0  0
   25.4218  -21.0271   -9.4380 C   0  0  0  0  0  0  0  0  0  0  0  0
   25.1662  -20.3494   -8.2578 O   0  0  0  0  0  0  0  0  0  0  0  0
   25.9760  -22.1510   -9.3111 O   0  0  0  0  0  0  0  0  0  0  0  0
  2  1  1  1
  3  2  1  0
  4  2  1  0
  5  4  1  0
  5  6  1  6
  7  8  2  0
  7  5  1  0
  9  7  1  0
 10  9  1  0
 10 11  1  1
 12 11  1  0
 13 10  1  0
 13 20  1  0
 14 13  2  0
 15 16  1  0
 17 16  1  0
 17 19  1  0
 17 18  1  1
 19 20  1  6
 19 21  1  0
 21 23  2  0
 21 22  1  0
M  END
$$$$
