LCI.pdb
     RDKit          3D

 23 22  0  0  1  0  0  0  0  0999 V2000
   28.5348  -17.7126  -14.9687 C   0  0  0  0  0  0  0  0  0  0  0  0
   28.1751  -18.4592  -16.2603 C   0  0  2  0  0  0  0  0  0  0  0  0
   27.6631  -17.4053  -17.2192 C   0  0  0  0  0  0  0  0  0  0  0  0
   27.0754  -19.4203  -15.8998 C   0  0  0  0  0  0  0  0  0  0  0  0
   27.5080  -20.4213  -14.8557 C   0  0  2  0  0  0  0  0  0  0  0  0
   28.3035  -21.4890  -15.3749 N   0  0  0  0  0  0  0  0  0  0  0  0
   26.3207  -20.8915  -14.0964 C   0  0  0  0  0  0  0  0  0  0  0  0
   25.5000  -21.6299  -14.7001 O   0  0  0  0  0  0  0  0  0  0  0  0
   26.0627  -20.5630  -12.7557 N   0  0  0  0  0  0  0  0  0  0  0  0
   24.9502  -21.0299  -11.9843 C   0  0  1  0  0  0  0  0  0  0  0  0
   25.1908  -20.8260  -10.4808 C   0  0  0  0  0  0  0  0  0  0  0  0
   26.7534  -21.5981   -9.9840 S   0  0  0  0  0  0  0  0  0  0  0  0
   23.6718  -20.3800  -12.3849 C   0  0  0  0  0  0  0  0  0  0  0  0
   23.5786  -19.1186  -12.3363 O   0  0  0  0  0  0  0  0  0  0  0  0
   21.8199  -21.0954  -17.0122 C   0  0  0  0  0  0  0  0  0  0  0  0
   22.1033  -20.5603  -15.6223 C   0  0  0  0  0  0  0  0  0  0  0  0
   20.9822  -20.8870  -14.6717 C   0  0  2  0  0  0  0  0  0  0  0  0
   19.7475  -20.1607  -15.2264 C   0  0  0  0  0  0  0  0  0  0  0  0
   21.3195  -20.4090  -13.2967 C   0  0  2  0  0  0  0  0  0  0  0  0
   22.5426  -21.0928  -12.8211 N   0  0  0  0  0  0  0  0  0  0  0  0
   20.2743  -20.7276  -12.3065 C   0  0  0  0  0  0  0  0  0  0  0  0
   19.3669  -19.7912  -11.8406 O   0  0  0  0  0  0  0  0  0  0  0  0
   20.1552  -21.8862  -11.8272 O   0  0  0  0  0  0  0  0  0  0  0  0
  2  1  1  1
  3  2  1  0
  4  2  1  0
  5  4  1  0
  5  6  1  6
  7  8  2  0
  7  5  1  0
  9  7  1  0
 10  9  1  0
 10 11  1  1
 12 11  1  0
 13 10  1  0
 13 20  1  0
 14 13  2  0
 15 16  1  0
 17 16  1  0
 17 19  1  0
 17 18  1  6
 19 20  1  1
 19 21  1  0
 21 23  2  0
 21 22  1  0
M  END
$$$$
