LCI.pdb
     RDKit          3D

 23 22  0  0  1  0  0  0  0  0999 V2000
   23.0156  -17.9231  -19.6215 C   0  0  0  0  0  0  0  0  0  0  0  0
   22.2517  -17.0375  -20.6151 C   0  0  2  0  0  0  0  0  0  0  0  0
   22.7866  -17.3957  -21.9855 C   0  0  0  0  0  0  0  0  0  0  0  0
   22.6022  -15.6161  -20.2694 C   0  0  0  0  0  0  0  0  0  0  0  0
   21.9178  -15.1472  -19.0080 C   0  0  2  0  0  0  0  0  0  0  0  0
   20.5955  -15.6635  -18.8431 N   0  0  0  0  0  0  0  0  0  0  0  0
   21.9816  -13.6649  -18.9300 C   0  0  0  0  0  0  0  0  0  0  0  0
   23.0962  -13.1196  -19.1381 O   0  0  0  0  0  0  0  0  0  0  0  0
   20.8801  -12.8436  -18.6399 N   0  0  0  0  0  0  0  0  0  0  0  0
   20.9163  -11.4175  -18.5141 C   0  0  1  0  0  0  0  0  0  0  0  0
   19.5444  -10.7970  -18.8187 C   0  0  0  0  0  0  0  0  0  0  0  0
   19.5375   -9.0394  -18.3766 S   0  0  0  0  0  0  0  0  0  0  0  0
   21.3821  -10.9802  -17.1692 C   0  0  0  0  0  0  0  0  0  0  0  0
   20.8799  -11.5150  -16.1377 O   0  0  0  0  0  0  0  0  0  0  0  0
   26.2514  -11.2020  -15.6705 C   0  0  0  0  0  0  0  0  0  0  0  0
   24.7397  -11.0934  -15.7076 C   0  0  0  0  0  0  0  0  0  0  0  0
   24.2895   -9.6677  -15.5285 C   0  0  2  0  0  0  0  0  0  0  0  0
   24.7881   -9.2504  -14.1368 C   0  0  0  0  0  0  0  0  0  0  0  0
   22.8002   -9.5847  -15.6177 C   0  0  2  0  0  0  0  0  0  0  0  0
   22.3618   -9.9931  -16.9708 N   0  0  0  0  0  0  0  0  0  0  0  0
   22.2902   -8.2139  -15.4303 C   0  0  0  0  0  0  0  0  0  0  0  0
   21.8517   -7.7333  -14.2080 O   0  0  0  0  0  0  0  0  0  0  0  0
   22.2260   -7.4004  -16.3897 O   0  0  0  0  0  0  0  0  0  0  0  0
  2  1  1  1
  3  2  1  0
  4  2  1  0
  5  4  1  0
  5  6  1  6
  7  8  2  0
  7  5  1  0
  9  7  1  0
 10  9  1  0
 10 11  1  1
 12 11  1  0
 13 10  1  0
 13 20  1  0
 14 13  2  0
 15 16  1  0
 17 16  1  0
 17 19  1  0
 17 18  1  1
 19 20  1  6
 19 21  1  0
 21 23  2  0
 21 22  1  0
M  END
$$$$
