LCI.pdb
     RDKit          3D

 23 22  0  0  1  0  0  0  0  0999 V2000
   28.2644  -20.7010  -18.3274 C   0  0  0  0  0  0  0  0  0  0  0  0
   29.0255  -21.4698  -17.2389 C   0  0  2  0  0  0  0  0  0  0  0  0
   29.5777  -22.7070  -17.9148 C   0  0  0  0  0  0  0  0  0  0  0  0
   28.0063  -21.8495  -16.1997 C   0  0  0  0  0  0  0  0  0  0  0  0
   27.3918  -20.6431  -15.5315 C   0  0  2  0  0  0  0  0  0  0  0  0
   28.3511  -19.7065  -15.0368 N   0  0  0  0  0  0  0  0  0  0  0  0
   26.4214  -21.0882  -14.4982 C   0  0  0  0  0  0  0  0  0  0  0  0
   25.4778  -21.8330  -14.8699 O   0  0  0  0  0  0  0  0  0  0  0  0
   26.4949  -20.7296  -13.1425 N   0  0  0  0  0  0  0  0  0  0  0  0
   25.5478  -21.0961  -12.1328 C   0  0  1  0  0  0  0  0  0  0  0  0
   26.0317  -20.6752  -10.7369 C   0  0  0  0  0  0  0  0  0  0  0  0
   24.7324  -20.9658   -9.5072 S   0  0  0  0  0  0  0  0  0  0  0  0
   24.1962  -20.5277  -12.3924 C   0  0  0  0  0  0  0  0  0  0  0  0
   24.0739  -19.2800  -12.5666 O   0  0  0  0  0  0  0  0  0  0  0  0
   19.6945  -21.0332  -16.0711 C   0  0  0  0  0  0  0  0  0  0  0  0
   20.0265  -20.6711  -14.6369 C   0  0  0  0  0  0  0  0  0  0  0  0
   21.3991  -21.1575  -14.2539 C   0  0  2  0  0  0  0  0  0  0  0  0
   21.3393  -22.6884  -14.3662 C   0  0  0  0  0  0  0  0  0  0  0  0
   21.7250  -20.7291  -12.8600 C   0  0  2  0  0  0  0  0  0  0  0  0
   23.0274  -21.3046  -12.4570 N   0  0  0  0  0  0  0  0  0  0  0  0
   20.7497  -21.2168  -11.8674 C   0  0  0  0  0  0  0  0  0  0  0  0
   19.5750  -20.5458  -11.5721 O   0  0  0  0  0  0  0  0  0  0  0  0
   20.9418  -22.2849  -11.2280 O   0  0  0  0  0  0  0  0  0  0  0  0
  2  1  1  6
  3  2  1  0
  4  2  1  0
  5  4  1  0
  5  6  1  1
  7  8  2  0
  7  5  1  0
  9  7  1  0
 10  9  1  0
 10 11  1  1
 12 11  1  0
 13 10  1  0
 13 20  1  0
 14 13  2  0
 15 16  1  0
 17 16  1  0
 17 19  1  0
 17 18  1  1
 19 20  1  1
 19 21  1  0
 21 23  2  0
 21 22  1  0
M  END
$$$$
