LCI.pdb
     RDKit          3D

 23 22  0  0  1  0  0  0  0  0999 V2000
   31.0810  -18.0654  -18.8792 C   0  0  0  0  0  0  0  0  0  0  0  0
   29.9492  -17.0312  -18.8117 C   0  0  2  0  0  0  0  0  0  0  0  0
   30.6215  -15.6763  -18.8804 C   0  0  0  0  0  0  0  0  0  0  0  0
   29.2839  -17.2204  -17.4759 C   0  0  0  0  0  0  0  0  0  0  0  0
   28.6832  -18.5972  -17.3243 C   0  0  2  0  0  0  0  0  0  0  0  0
   28.4718  -19.2741  -18.5650 N   0  0  0  0  0  0  0  0  0  0  0  0
   27.4593  -18.5155  -16.4860 C   0  0  0  0  0  0  0  0  0  0  0  0
   27.5665  -17.9808  -15.3520 O   0  0  0  0  0  0  0  0  0  0  0  0
   26.2004  -18.9960  -16.8814 N   0  0  0  0  0  0  0  0  0  0  0  0
   24.9995  -18.9192  -16.1051 C   0  0  1  0  0  0  0  0  0  0  0  0
   23.7538  -18.9383  -17.0038 C   0  0  0  0  0  0  0  0  0  0  0  0
   22.2496  -18.8785  -15.9944 S   0  0  0  0  0  0  0  0  0  0  0  0
   24.9099  -20.0076  -15.0929 C   0  0  0  0  0  0  0  0  0  0  0  0
   25.1722  -21.1964  -15.4395 O   0  0  0  0  0  0  0  0  0  0  0  0
   26.0890  -21.2738   -9.3191 C   0  0  0  0  0  0  0  0  0  0  0  0
   25.2510  -21.6138  -10.5359 C   0  0  0  0  0  0  0  0  0  0  0  0
   25.3517  -20.5398  -11.5865 C   0  0  2  0  0  0  0  0  0  0  0  0
   24.8533  -19.2540  -10.9097 C   0  0  0  0  0  0  0  0  0  0  0  0
   24.5052  -20.8942  -12.7657 C   0  0  2  0  0  0  0  0  0  0  0  0
   24.5458  -19.7928  -13.7531 N   0  0  0  0  0  0  0  0  0  0  0  0
   23.0824  -21.0664  -12.4190 C   0  0  0  0  0  0  0  0  0  0  0  0
   22.5632  -22.2548  -11.9339 O   0  0  0  0  0  0  0  0  0  0  0  0
   22.2559  -20.1252  -12.5511 O   0  0  0  0  0  0  0  0  0  0  0  0
  2  1  1  1
  3  2  1  0
  4  2  1  0
  5  4  1  0
  5  6  1  6
  7  8  2  0
  7  5  1  0
  9  7  1  0
 10  9  1  0
 10 11  1  6
 12 11  1  0
 13 10  1  0
 13 20  1  0
 14 13  2  0
 15 16  1  0
 17 16  1  0
 17 19  1  0
 17 18  1  1
 19 20  1  6
 19 21  1  0
 21 23  2  0
 21 22  1  0
M  END
$$$$
