LCI.pdb
     RDKit          3D

 23 22  0  0  1  0  0  0  0  0999 V2000
   18.3986  -10.9003  -17.1989 C   0  0  0  0  0  0  0  0  0  0  0  0
   19.5659  -11.0568  -16.2151 C   0  0  2  0  0  0  0  0  0  0  0  0
   19.2508  -12.2871  -15.3907 C   0  0  0  0  0  0  0  0  0  0  0  0
   19.5555   -9.8270  -15.3488 C   0  0  0  0  0  0  0  0  0  0  0  0
   19.9021   -8.5777  -16.1224 C   0  0  2  0  0  0  0  0  0  0  0  0
   21.2131   -8.5963  -16.6908 N   0  0  0  0  0  0  0  0  0  0  0  0
   19.6476   -7.3832  -15.2764 C   0  0  0  0  0  0  0  0  0  0  0  0
   18.5408   -7.3178  -14.6814 O   0  0  0  0  0  0  0  0  0  0  0  0
   20.5620   -6.3316  -15.1033 N   0  0  0  0  0  0  0  0  0  0  0  0
   20.3170   -5.1296  -14.3644 C   0  0  1  0  0  0  0  0  0  0  0  0
   21.6188   -4.5602  -13.7805 C   0  0  0  0  0  0  0  0  0  0  0  0
   22.3001   -5.6933  -12.5410 S   0  0  0  0  0  0  0  0  0  0  0  0
   19.6334   -4.0913  -15.1841 C   0  0  0  0  0  0  0  0  0  0  0  0
   19.9645   -3.9453  -16.3970 O   0  0  0  0  0  0  0  0  0  0  0  0
   14.5845   -3.9998  -16.0765 C   0  0  0  0  0  0  0  0  0  0  0  0
   16.0659   -3.7107  -16.2192 C   0  0  0  0  0  0  0  0  0  0  0  0
   16.4571   -2.4722  -15.4574 C   0  0  2  0  0  0  0  0  0  0  0  0
   15.6904   -1.3199  -16.1236 C   0  0  0  0  0  0  0  0  0  0  0  0
   17.9339   -2.2615  -15.5438 C   0  0  2  0  0  0  0  0  0  0  0  0
   18.6258   -3.2488  -14.6856 N   0  0  0  0  0  0  0  0  0  0  0  0
   18.3543   -0.9382  -15.0475 C   0  0  0  0  0  0  0  0  0  0  0  0
   18.6345    0.1273  -15.8863 O   0  0  0  0  0  0  0  0  0  0  0  0
   18.4826   -0.7094  -13.8156 O   0  0  0  0  0  0  0  0  0  0  0  0
  2  1  1  6
  3  2  1  0
  4  2  1  0
  5  4  1  0
  5  6  1  1
  7  8  2  0
  7  5  1  0
  9  7  1  0
 10  9  1  0
 10 11  1  6
 12 11  1  0
 13 10  1  0
 13 20  1  0
 14 13  2  0
 15 16  1  0
 17 16  1  0
 17 19  1  0
 17 18  1  6
 19 20  1  1
 19 21  1  0
 21 23  2  0
 21 22  1  0
M  END
$$$$
