LCI.pdb
     RDKit          3D

 23 22  0  0  1  0  0  0  0  0999 V2000
   29.3165  -16.5494  -16.9271 C   0  0  0  0  0  0  0  0  0  0  0  0
   27.8988  -16.9879  -17.3182 C   0  0  2  0  0  0  0  0  0  0  0  0
   27.0366  -15.7483  -17.2082 C   0  0  0  0  0  0  0  0  0  0  0  0
   27.4782  -18.0125  -16.3002 C   0  0  0  0  0  0  0  0  0  0  0  0
   28.3947  -19.2121  -16.2814 C   0  0  2  0  0  0  0  0  0  0  0  0
   28.3603  -19.9832  -17.4841 N   0  0  0  0  0  0  0  0  0  0  0  0
   28.1326  -20.0183  -15.0613 C   0  0  0  0  0  0  0  0  0  0  0  0
   27.1390  -20.7902  -15.0774 O   0  0  0  0  0  0  0  0  0  0  0  0
   28.9219  -19.9699  -13.9009 N   0  0  0  0  0  0  0  0  0  0  0  0
   28.6517  -20.6704  -12.6814 C   0  0  1  0  0  0  0  0  0  0  0  0
   29.8679  -20.6441  -11.7433 C   0  0  0  0  0  0  0  0  0  0  0  0
   31.1667  -21.7435  -12.3672 S   0  0  0  0  0  0  0  0  0  0  0  0
   27.4557  -20.1345  -11.9746 C   0  0  0  0  0  0  0  0  0  0  0  0
   27.2609  -18.8840  -11.9514 O   0  0  0  0  0  0  0  0  0  0  0  0
   21.6963  -20.1091  -11.8961 C   0  0  0  0  0  0  0  0  0  0  0  0
   22.8834  -20.0165  -10.9577 C   0  0  0  0  0  0  0  0  0  0  0  0
   24.1268  -20.5820  -11.5914 C   0  0  2  0  0  0  0  0  0  0  0  0
   23.8366  -22.0752  -11.8058 C   0  0  0  0  0  0  0  0  0  0  0  0
   25.2998  -20.3825  -10.6876 C   0  0  2  0  0  0  0  0  0  0  0  0
   26.5134  -20.9454  -11.3201 N   0  0  0  0  0  0  0  0  0  0  0  0
   25.1580  -21.0874   -9.4002 C   0  0  0  0  0  0  0  0  0  0  0  0
   24.4895  -20.5471   -8.3146 O   0  0  0  0  0  0  0  0  0  0  0  0
   25.6478  -22.2340   -9.2220 O   0  0  0  0  0  0  0  0  0  0  0  0
  2  1  1  1
  3  2  1  0
  4  2  1  0
  5  4  1  0
  5  6  1  6
  7  8  2  0
  7  5  1  0
  9  7  1  0
 10  9  1  0
 10 11  1  1
 12 11  1  0
 13 10  1  0
 13 20  1  0
 14 13  2  0
 15 16  1  0
 17 16  1  0
 17 19  1  0
 17 18  1  1
 19 20  1  6
 19 21  1  0
 21 23  2  0
 21 22  1  0
M  END
$$$$
