GAI.pdb
     RDKit          3D

 18 17  0  0  1  0  0  0  0  0999 V2000
    7.7640  -12.6715   18.2910 N   0  0  0  0  0  0  0  0  0  0  0  0
    8.6595  -13.7061   18.7754 C   0  0  0  0  0  0  0  0  0  0  0  0
    8.1728  -14.1190   20.1293 C   0  0  0  0  0  0  0  0  0  0  0  0
    7.5577  -13.3124   20.8927 O   0  0  0  0  0  0  0  0  0  0  0  0
    7.8764  -17.3736   22.0587 C   0  0  0  0  0  0  0  0  0  0  0  0
    7.7965  -15.8851   21.8748 C   0  0  2  0  0  0  0  0  0  0  0  0
    8.3719  -15.4322   20.6327 N   0  0  0  0  0  0  0  0  0  0  0  0
    8.4149  -15.2354   23.0567 C   0  0  0  0  0  0  0  0  0  0  0  0
    9.6132  -14.8714   22.9373 O   0  0  0  0  0  0  0  0  0  0  0  0
    5.7728  -12.2841   27.4330 C   0  0  0  0  0  0  0  0  0  0  0  0
    6.2069  -13.2795   26.4333 C   0  0  0  0  0  0  0  0  0  0  0  0
    7.5095  -13.1019   25.7461 C   0  0  2  0  0  0  0  0  0  0  0  0
    7.3644  -12.1275   24.5684 C   0  0  0  0  0  0  0  0  0  0  0  0
    8.3411  -14.2654   25.4070 C   0  0  2  0  0  0  0  0  0  0  0  0
    7.7631  -15.0067   24.2703 N   0  0  0  0  0  0  0  0  0  0  0  0
    8.7435  -15.2172   26.4279 C   0  0  0  0  0  0  0  0  0  0  0  0
    9.4858  -14.7730   27.3866 O   0  0  0  0  0  0  0  0  0  0  0  0
    8.4525  -16.5526   26.5491 O   0  0  0  0  0  0  0  0  0  0  0  0
  1  2  1  0
  3  4  2  0
  3  2  1  0
  6  7  1  0
  6  5  1  1
  7  3  1  0
  8  6  1  0
  9  8  2  0
 10 11  1  0
 11 12  1  0
 12 14  1  0
 12 13  1  6
 14 16  1  0
 14 15  1  6
 15  8  1  0
 16 18  1  0
 17 16  2  0
M  END
$$$$
