GAI.pdb
     RDKit          3D

 18 17  0  0  1  0  0  0  0  0999 V2000
    7.7038  -14.2381   18.3115 N   0  0  0  0  0  0  0  0  0  0  0  0
    8.6528  -14.9029   19.1859 C   0  0  0  0  0  0  0  0  0  0  0  0
    7.9887  -15.0749   20.5162 C   0  0  0  0  0  0  0  0  0  0  0  0
    7.4629  -14.0970   21.1318 O   0  0  0  0  0  0  0  0  0  0  0  0
    7.0909  -17.9569   22.8209 C   0  0  0  0  0  0  0  0  0  0  0  0
    7.2986  -16.5153   22.4544 C   0  0  2  0  0  0  0  0  0  0  0  0
    7.9105  -16.3382   21.1609 N   0  0  0  0  0  0  0  0  0  0  0  0
    8.0710  -15.8645   23.5412 C   0  0  0  0  0  0  0  0  0  0  0  0
    9.3131  -15.7644   23.3682 O   0  0  0  0  0  0  0  0  0  0  0  0
    5.5728  -11.8390   26.2309 C   0  0  0  0  0  0  0  0  0  0  0  0
    6.5384  -12.7340   25.5638 C   0  0  0  0  0  0  0  0  0  0  0  0
    7.4108  -13.6076   26.3860 C   0  0  2  0  0  0  0  0  0  0  0  0
    8.1707  -12.7755   27.4288 C   0  0  0  0  0  0  0  0  0  0  0  0
    8.2658  -14.6210   25.7517 C   0  0  2  0  0  0  0  0  0  0  0  0
    7.5168  -15.3655   24.7218 N   0  0  0  0  0  0  0  0  0  0  0  0
    9.0209  -15.5676   26.5542 C   0  0  0  0  0  0  0  0  0  0  0  0
    8.4276  -16.6669   26.8809 O   0  0  0  0  0  0  0  0  0  0  0  0
   10.3036  -15.4866   27.0347 O   0  0  0  0  0  0  0  0  0  0  0  0
  1  2  1  0
  3  4  2  0
  3  2  1  0
  6  7  1  0
  6  5  1  1
  7  3  1  0
  8  6  1  0
  9  8  2  0
 10 11  1  0
 11 12  1  0
 12 14  1  0
 12 13  1  6
 14 16  1  0
 14 15  1  6
 15  8  1  0
 16 18  1  0
 17 16  2  0
M  END
$$$$
