GAI.pdb
     RDKit          3D

 18 17  0  0  1  0  0  0  0  0999 V2000
    7.7377  -12.5717   18.3905 N   0  0  0  0  0  0  0  0  0  0  0  0
    8.5799  -13.5948   18.9831 C   0  0  0  0  0  0  0  0  0  0  0  0
    7.9531  -13.9900   20.2836 C   0  0  0  0  0  0  0  0  0  0  0  0
    7.4398  -13.1319   21.0659 O   0  0  0  0  0  0  0  0  0  0  0  0
    7.0523  -17.2300   22.0434 C   0  0  0  0  0  0  0  0  0  0  0  0
    7.2543  -15.7455   21.9382 C   0  0  2  0  0  0  0  0  0  0  0  0
    7.8983  -15.3430   20.7125 N   0  0  0  0  0  0  0  0  0  0  0  0
    7.9907  -15.2886   23.1425 C   0  0  0  0  0  0  0  0  0  0  0  0
    9.2220  -15.0720   23.0020 O   0  0  0  0  0  0  0  0  0  0  0  0
    5.5994  -11.5634   26.0887 C   0  0  0  0  0  0  0  0  0  0  0  0
    6.5928  -12.4355   25.4322 C   0  0  0  0  0  0  0  0  0  0  0  0
    7.2641  -13.4978   26.2205 C   0  0  2  0  0  0  0  0  0  0  0  0
    7.9370  -12.8972   27.4631 C   0  0  0  0  0  0  0  0  0  0  0  0
    8.1113  -14.4992   25.5575 C   0  0  2  0  0  0  0  0  0  0  0  0
    7.4142  -15.0877   24.3984 N   0  0  0  0  0  0  0  0  0  0  0  0
    8.7362  -15.5680   26.3175 C   0  0  0  0  0  0  0  0  0  0  0  0
    9.8052  -15.2725   26.9787 O   0  0  0  0  0  0  0  0  0  0  0  0
    8.3643  -16.8812   26.4574 O   0  0  0  0  0  0  0  0  0  0  0  0
  1  2  1  0
  3  4  2  0
  3  2  1  0
  6  7  1  0
  6  5  1  6
  7  3  1  0
  8  6  1  0
  9  8  2  0
 10 11  1  0
 11 12  1  0
 12 14  1  0
 12 13  1  1
 14 16  1  0
 14 15  1  6
 15  8  1  0
 16 18  1  0
 17 16  2  0
M  END
$$$$
