GAI.pdb
     RDKit          3D

 18 17  0  0  1  0  0  0  0  0999 V2000
    8.0711  -12.6420   18.3751 N   0  0  0  0  0  0  0  0  0  0  0  0
    8.7293  -13.7841   18.9829 C   0  0  0  0  0  0  0  0  0  0  0  0
    7.9513  -14.1466   20.2091 C   0  0  0  0  0  0  0  0  0  0  0  0
    7.2597  -13.2886   20.8395 O   0  0  0  0  0  0  0  0  0  0  0  0
    7.0706  -17.2830   22.1426 C   0  0  0  0  0  0  0  0  0  0  0  0
    7.2960  -15.8075   21.9754 C   0  0  2  0  0  0  0  0  0  0  0  0
    7.9440  -15.4668   20.7331 N   0  0  0  0  0  0  0  0  0  0  0  0
    8.0419  -15.3127   23.1586 C   0  0  0  0  0  0  0  0  0  0  0  0
    9.2921  -15.2315   23.0435 O   0  0  0  0  0  0  0  0  0  0  0  0
    5.7014  -11.8990   27.2978 C   0  0  0  0  0  0  0  0  0  0  0  0
    6.2077  -13.1155   26.6326 C   0  0  0  0  0  0  0  0  0  0  0  0
    7.4986  -13.0640   25.9037 C   0  0  2  0  0  0  0  0  0  0  0  0
    7.4320  -12.0303   24.7704 C   0  0  0  0  0  0  0  0  0  0  0  0
    8.1735  -14.3021   25.4892 C   0  0  2  0  0  0  0  0  0  0  0  0
    7.4550  -14.9386   24.3692 N   0  0  0  0  0  0  0  0  0  0  0  0
    8.5196  -15.3242   26.4618 C   0  0  0  0  0  0  0  0  0  0  0  0
    7.8663  -16.4365   26.4042 O   0  0  0  0  0  0  0  0  0  0  0  0
    9.4593  -15.3048   27.4614 O   0  0  0  0  0  0  0  0  0  0  0  0
  1  2  1  0
  3  4  2  0
  3  2  1  0
  6  7  1  0
  6  5  1  1
  7  3  1  0
  8  6  1  0
  9  8  2  0
 10 11  1  0
 11 12  1  0
 12 14  1  0
 12 13  1  6
 14 16  1  0
 14 15  1  6
 15  8  1  0
 16 18  1  0
 17 16  2  0
M  END
$$$$
