GAI.pdb
     RDKit          3D

 18 17  0  0  1  0  0  0  0  0999 V2000
    7.7482  -16.2489   18.3790 N   0  0  0  0  0  0  0  0  0  0  0  0
    8.7508  -16.2721   19.4285 C   0  0  0  0  0  0  0  0  0  0  0  0
    8.0322  -16.1380   20.7346 C   0  0  0  0  0  0  0  0  0  0  0  0
    7.3891  -15.0864   21.0385 O   0  0  0  0  0  0  0  0  0  0  0  0
    7.0759  -18.3755   23.6268 C   0  0  0  0  0  0  0  0  0  0  0  0
    7.3654  -17.0530   22.9765 C   0  0  2  0  0  0  0  0  0  0  0  0
    8.0304  -17.1771   21.7031 N   0  0  0  0  0  0  0  0  0  0  0  0
    8.1294  -16.2187   23.9364 C   0  0  0  0  0  0  0  0  0  0  0  0
    9.3788  -16.1929   23.7911 O   0  0  0  0  0  0  0  0  0  0  0  0
    5.5979  -11.8069   25.9693 C   0  0  0  0  0  0  0  0  0  0  0  0
    6.6188  -12.7295   25.4353 C   0  0  0  0  0  0  0  0  0  0  0  0
    7.4664  -13.5021   26.3761 C   0  0  2  0  0  0  0  0  0  0  0  0
    8.2254  -12.5532   27.3147 C   0  0  0  0  0  0  0  0  0  0  0  0
    8.3138  -14.6004   25.8903 C   0  0  2  0  0  0  0  0  0  0  0  0
    7.5599  -15.4742   24.9716 N   0  0  0  0  0  0  0  0  0  0  0  0
    9.0600  -15.4328   26.8180 C   0  0  0  0  0  0  0  0  0  0  0  0
    8.4610  -16.4776   27.2837 O   0  0  0  0  0  0  0  0  0  0  0  0
   10.3391  -15.2909   27.2937 O   0  0  0  0  0  0  0  0  0  0  0  0
  1  2  1  0
  3  4  2  0
  3  2  1  0
  6  7  1  0
  6  5  1  1
  7  3  1  0
  8  6  1  0
  9  8  2  0
 10 11  1  0
 11 12  1  0
 12 14  1  0
 12 13  1  6
 14 16  1  0
 14 15  1  1
 15  8  1  0
 16 18  1  0
 17 16  2  0
M  END
$$$$
