GAI.pdb
     RDKit          3D

 18 17  0  0  1  0  0  0  0  0999 V2000
    7.8059  -12.6216   18.3920 N   0  0  0  0  0  0  0  0  0  0  0  0
    8.4588  -13.8441   18.8238 C   0  0  0  0  0  0  0  0  0  0  0  0
    7.9467  -14.1633   20.1934 C   0  0  0  0  0  0  0  0  0  0  0  0
    7.4955  -13.2616   20.9649 O   0  0  0  0  0  0  0  0  0  0  0  0
    7.0819  -17.3193   22.1057 C   0  0  0  0  0  0  0  0  0  0  0  0
    7.2915  -15.8408   21.9439 C   0  0  2  0  0  0  0  0  0  0  0  0
    7.9375  -15.4888   20.7038 N   0  0  0  0  0  0  0  0  0  0  0  0
    8.0304  -15.3421   23.1300 C   0  0  0  0  0  0  0  0  0  0  0  0
    9.2673  -15.1612   22.9886 O   0  0  0  0  0  0  0  0  0  0  0  0
    5.5816  -11.6706   26.2584 C   0  0  0  0  0  0  0  0  0  0  0  0
    6.5735  -12.4871   25.5316 C   0  0  0  0  0  0  0  0  0  0  0  0
    7.3131  -13.5501   26.2550 C   0  0  2  0  0  0  0  0  0  0  0  0
    8.0122  -12.9682   27.4919 C   0  0  0  0  0  0  0  0  0  0  0  0
    8.1694  -14.4953   25.5245 C   0  0  2  0  0  0  0  0  0  0  0  0
    7.4504  -15.0660   24.3699 N   0  0  0  0  0  0  0  0  0  0  0  0
    8.8590  -15.5678   26.2206 C   0  0  0  0  0  0  0  0  0  0  0  0
   10.0392  -15.3098   26.6766 O   0  0  0  0  0  0  0  0  0  0  0  0
    8.4493  -16.8500   26.4865 O   0  0  0  0  0  0  0  0  0  0  0  0
  1  2  1  0
  3  4  2  0
  3  2  1  0
  6  7  1  0
  6  5  1  1
  7  3  1  0
  8  6  1  0
  9  8  2  0
 10 11  1  0
 11 12  1  0
 12 14  1  0
 12 13  1  1
 14 16  1  0
 14 15  1  6
 15  8  1  0
 16 18  1  0
 17 16  2  0
M  END
$$$$
