GAI.pdb
     RDKit          3D

 18 17  0  0  1  0  0  0  0  0999 V2000
    7.9151  -12.5790   18.6115 N   0  0  0  0  0  0  0  0  0  0  0  0
    8.5819  -13.7793   19.0826 C   0  0  0  0  0  0  0  0  0  0  0  0
    7.8884  -14.2116   20.3366 C   0  0  0  0  0  0  0  0  0  0  0  0
    7.1890  -13.4061   21.0249 O   0  0  0  0  0  0  0  0  0  0  0  0
    7.2885  -17.4470   22.2211 C   0  0  0  0  0  0  0  0  0  0  0  0
    7.3799  -15.9554   22.0711 C   0  0  2  0  0  0  0  0  0  0  0  0
    7.9746  -15.5430   20.8239 N   0  0  0  0  0  0  0  0  0  0  0  0
    8.0987  -15.4114   23.2495 C   0  0  0  0  0  0  0  0  0  0  0  0
    9.3169  -15.1403   23.0911 O   0  0  0  0  0  0  0  0  0  0  0  0
    5.5182  -11.7500   26.2106 C   0  0  0  0  0  0  0  0  0  0  0  0
    6.4978  -12.6115   25.5199 C   0  0  0  0  0  0  0  0  0  0  0  0
    7.2926  -13.5865   26.3060 C   0  0  2  0  0  0  0  0  0  0  0  0
    7.9599  -12.8922   27.5018 C   0  0  0  0  0  0  0  0  0  0  0  0
    8.1977  -14.5292   25.6332 C   0  0  2  0  0  0  0  0  0  0  0  0
    7.5193  -15.1856   24.4998 N   0  0  0  0  0  0  0  0  0  0  0  0
    8.9219  -15.5361   26.3895 C   0  0  0  0  0  0  0  0  0  0  0  0
    8.3517  -16.6854   26.5355 O   0  0  0  0  0  0  0  0  0  0  0  0
   10.1535  -15.4678   26.9903 O   0  0  0  0  0  0  0  0  0  0  0  0
  1  2  1  0
  3  4  2  0
  3  2  1  0
  6  7  1  0
  6  5  1  1
  7  3  1  0
  8  6  1  0
  9  8  2  0
 10 11  1  0
 11 12  1  0
 12 14  1  0
 12 13  1  1
 14 16  1  0
 14 15  1  6
 15  8  1  0
 16 18  1  0
 17 16  2  0
M  END
$$$$
