GAI.pdb
     RDKit          3D

 18 17  0  0  1  0  0  0  0  0999 V2000
    8.1053  -12.4889   18.6548 N   0  0  0  0  0  0  0  0  0  0  0  0
    8.6351  -13.7964   18.9968 C   0  0  0  0  0  0  0  0  0  0  0  0
    7.9437  -14.2448   20.2462 C   0  0  0  0  0  0  0  0  0  0  0  0
    7.2353  -13.4513   20.9393 O   0  0  0  0  0  0  0  0  0  0  0  0
    7.3322  -17.5026   22.0816 C   0  0  0  0  0  0  0  0  0  0  0  0
    7.4388  -16.0093   21.9607 C   0  0  2  0  0  0  0  0  0  0  0  0
    8.0419  -15.5789   20.7237 N   0  0  0  0  0  0  0  0  0  0  0  0
    8.1588  -15.4953   23.1518 C   0  0  0  0  0  0  0  0  0  0  0  0
    9.3936  -15.2933   23.0205 O   0  0  0  0  0  0  0  0  0  0  0  0
    5.6009  -11.8273   26.1665 C   0  0  0  0  0  0  0  0  0  0  0  0
    6.5673  -12.6885   25.4573 C   0  0  0  0  0  0  0  0  0  0  0  0
    7.3771  -13.6635   26.2280 C   0  0  2  0  0  0  0  0  0  0  0  0
    8.0827  -12.9653   27.3994 C   0  0  0  0  0  0  0  0  0  0  0  0
    8.2562  -14.6176   25.5372 C   0  0  2  0  0  0  0  0  0  0  0  0
    7.5635  -15.2265   24.3861 N   0  0  0  0  0  0  0  0  0  0  0  0
    8.9457  -15.6634   26.2728 C   0  0  0  0  0  0  0  0  0  0  0  0
    8.3325  -16.7921   26.4048 O   0  0  0  0  0  0  0  0  0  0  0  0
   10.1828  -15.6522   26.8661 O   0  0  0  0  0  0  0  0  0  0  0  0
  1  2  1  0
  3  4  2  0
  3  2  1  0
  6  7  1  0
  6  5  1  1
  7  3  1  0
  8  6  1  0
  9  8  2  0
 10 11  1  0
 11 12  1  0
 12 14  1  0
 12 13  1  1
 14 16  1  0
 14 15  1  6
 15  8  1  0
 16 18  1  0
 17 16  2  0
M  END
$$$$
