GAI.pdb
     RDKit          3D

 18 17  0  0  1  0  0  0  0  0999 V2000
    7.9888  -12.7589   18.6642 N   0  0  0  0  0  0  0  0  0  0  0  0
    8.3641  -14.1128   19.0289 C   0  0  0  0  0  0  0  0  0  0  0  0
    7.7759  -14.3907   20.3769 C   0  0  0  0  0  0  0  0  0  0  0  0
    7.3883  -13.4551   21.1425 O   0  0  0  0  0  0  0  0  0  0  0  0
    6.7077  -17.4617   22.3410 C   0  0  0  0  0  0  0  0  0  0  0  0
    6.9903  -16.0008   22.1371 C   0  0  2  0  0  0  0  0  0  0  0  0
    7.6194  -15.7128   20.8721 N   0  0  0  0  0  0  0  0  0  0  0  0
    7.7867  -15.5144   23.2905 C   0  0  0  0  0  0  0  0  0  0  0  0
    9.0288  -15.4159   23.1165 O   0  0  0  0  0  0  0  0  0  0  0  0
    5.4312  -11.7647   26.4086 C   0  0  0  0  0  0  0  0  0  0  0  0
    6.4051  -12.5831   25.6602 C   0  0  0  0  0  0  0  0  0  0  0  0
    7.2101  -13.5991   26.3814 C   0  0  2  0  0  0  0  0  0  0  0  0
    7.9855  -12.9467   27.5349 C   0  0  0  0  0  0  0  0  0  0  0  0
    8.0273  -14.5702   25.6402 C   0  0  2  0  0  0  0  0  0  0  0  0
    7.2547  -15.1657   24.5337 N   0  0  0  0  0  0  0  0  0  0  0  0
    8.7394  -15.6291   26.3342 C   0  0  0  0  0  0  0  0  0  0  0  0
    9.9171  -15.3495   26.7839 O   0  0  0  0  0  0  0  0  0  0  0  0
    8.3540  -16.9180   26.6040 O   0  0  0  0  0  0  0  0  0  0  0  0
  1  2  1  0
  3  4  2  0
  3  2  1  0
  6  7  1  0
  6  5  1  1
  7  3  1  0
  8  6  1  0
  9  8  2  0
 10 11  1  0
 11 12  1  0
 12 14  1  0
 12 13  1  1
 14 16  1  0
 14 15  1  6
 15  8  1  0
 16 18  1  0
 17 16  2  0
M  END
$$$$
