GAI.pdb
     RDKit          3D

 18 17  0  0  1  0  0  0  0  0999 V2000
    8.3124  -16.9331   18.4687 N   0  0  0  0  0  0  0  0  0  0  0  0
    8.6722  -17.7732   19.5965 C   0  0  0  0  0  0  0  0  0  0  0  0
    8.0552  -17.1677   20.8183 C   0  0  0  0  0  0  0  0  0  0  0  0
    7.7938  -15.9274   20.8901 O   0  0  0  0  0  0  0  0  0  0  0  0
    6.4101  -18.5041   23.9603 C   0  0  0  0  0  0  0  0  0  0  0  0
    6.9413  -17.4308   23.0539 C   0  0  2  0  0  0  0  0  0  0  0  0
    7.7291  -17.9453   21.9613 N   0  0  0  0  0  0  0  0  0  0  0  0
    7.6887  -16.4507   23.8798 C   0  0  0  0  0  0  0  0  0  0  0  0
    8.9407  -16.5714   23.9028 O   0  0  0  0  0  0  0  0  0  0  0  0
    6.7556  -10.8457   26.5345 C   0  0  0  0  0  0  0  0  0  0  0  0
    7.6293  -11.9767   26.1656 C   0  0  0  0  0  0  0  0  0  0  0  0
    7.0253  -13.2159   25.6182 C   0  0  2  0  0  0  0  0  0  0  0  0
    5.7135  -13.5389   26.3476 C   0  0  0  0  0  0  0  0  0  0  0  0
    7.8476  -14.4135   25.3946 C   0  0  2  0  0  0  0  0  0  0  0  0
    7.1011  -15.4221   24.6192 N   0  0  0  0  0  0  0  0  0  0  0  0
    8.5151  -15.0767   26.5013 C   0  0  0  0  0  0  0  0  0  0  0  0
    7.9102  -16.0857   27.0338 O   0  0  0  0  0  0  0  0  0  0  0  0
    9.7233  -14.8029   27.0911 O   0  0  0  0  0  0  0  0  0  0  0  0
  1  2  1  0
  3  4  2  0
  3  2  1  0
  6  7  1  0
  6  5  1  1
  7  3  1  0
  8  6  1  0
  9  8  2  0
 10 11  1  0
 11 12  1  0
 12 14  1  0
 12 13  1  1
 14 16  1  0
 14 15  1  1
 15  8  1  0
 16 18  1  0
 17 16  2  0
M  END
$$$$
