GAI.pdb
     RDKit          3D

 18 17  0  0  1  0  0  0  0  0999 V2000
    8.2917  -12.1498   18.6946 N   0  0  0  0  0  0  0  0  0  0  0  0
    8.6242  -13.5375   18.9607 C   0  0  0  0  0  0  0  0  0  0  0  0
    8.0117  -13.8980   20.2779 C   0  0  0  0  0  0  0  0  0  0  0  0
    7.5870  -13.0122   21.0821 O   0  0  0  0  0  0  0  0  0  0  0  0
    6.8929  -17.0878   22.0037 C   0  0  0  0  0  0  0  0  0  0  0  0
    7.1837  -15.6172   21.9109 C   0  0  2  0  0  0  0  0  0  0  0  0
    7.8724  -15.2473   20.6993 N   0  0  0  0  0  0  0  0  0  0  0  0
    7.9236  -15.2103   23.1309 C   0  0  0  0  0  0  0  0  0  0  0  0
    9.1735  -15.1130   23.0260 O   0  0  0  0  0  0  0  0  0  0  0  0
    5.5436  -11.5588   26.3552 C   0  0  0  0  0  0  0  0  0  0  0  0
    6.4798  -12.4108   25.5961 C   0  0  0  0  0  0  0  0  0  0  0  0
    7.2264  -13.4812   26.3013 C   0  0  2  0  0  0  0  0  0  0  0  0
    7.9621  -12.9063   27.5202 C   0  0  0  0  0  0  0  0  0  0  0  0
    8.0545  -14.4353   25.5501 C   0  0  2  0  0  0  0  0  0  0  0  0
    7.3315  -14.9338   24.3649 N   0  0  0  0  0  0  0  0  0  0  0  0
    8.6873  -15.5599   26.2171 C   0  0  0  0  0  0  0  0  0  0  0  0
    8.0350  -16.6740   26.2390 O   0  0  0  0  0  0  0  0  0  0  0  0
    9.9050  -15.6385   26.8445 O   0  0  0  0  0  0  0  0  0  0  0  0
  1  2  1  0
  3  4  2  0
  3  2  1  0
  6  7  1  0
  6  5  1  1
  7  3  1  0
  8  6  1  0
  9  8  2  0
 10 11  1  0
 11 12  1  0
 12 14  1  0
 12 13  1  1
 14 16  1  0
 14 15  1  6
 15  8  1  0
 16 18  1  0
 17 16  2  0
M  END
$$$$
