GAI.pdb
     RDKit          3D

 18 17  0  0  1  0  0  0  0  0999 V2000
    9.0032  -17.5882   19.2223 N   0  0  0  0  0  0  0  0  0  0  0  0
    8.6923  -18.5275   20.2845 C   0  0  0  0  0  0  0  0  0  0  0  0
    8.0702  -17.7484   21.4008 C   0  0  0  0  0  0  0  0  0  0  0  0
    7.8943  -16.4935   21.3227 O   0  0  0  0  0  0  0  0  0  0  0  0
    6.2912  -18.5509   24.6512 C   0  0  0  0  0  0  0  0  0  0  0  0
    6.9549  -17.6505   23.6489 C   0  0  2  0  0  0  0  0  0  0  0  0
    7.6436  -18.3686   22.6053 N   0  0  0  0  0  0  0  0  0  0  0  0
    7.8473  -16.7172   24.3796 C   0  0  0  0  0  0  0  0  0  0  0  0
    9.0787  -16.9732   24.3472 O   0  0  0  0  0  0  0  0  0  0  0  0
    6.2018  -11.8022   27.3639 C   0  0  0  0  0  0  0  0  0  0  0  0
    6.5197  -13.1538   26.8630 C   0  0  0  0  0  0  0  0  0  0  0  0
    7.6608  -13.3366   25.9330 C   0  0  2  0  0  0  0  0  0  0  0  0
    7.3542  -12.6868   24.5761 C   0  0  0  0  0  0  0  0  0  0  0  0
    8.3053  -14.6496   25.7887 C   0  0  2  0  0  0  0  0  0  0  0  0
    7.4150  -15.5939   25.0875 N   0  0  0  0  0  0  0  0  0  0  0  0
    8.8892  -15.3236   26.9354 C   0  0  0  0  0  0  0  0  0  0  0  0
    8.2440  -16.3338   27.4156 O   0  0  0  0  0  0  0  0  0  0  0  0
   10.0530  -15.0591   27.6124 O   0  0  0  0  0  0  0  0  0  0  0  0
  1  2  1  0
  3  4  2  0
  3  2  1  0
  6  7  1  0
  6  5  1  1
  7  3  1  0
  8  6  1  0
  9  8  2  0
 10 11  1  0
 11 12  1  0
 12 14  1  0
 12 13  1  6
 14 16  1  0
 14 15  1  1
 15  8  1  0
 16 18  1  0
 17 16  2  0
M  END
$$$$
