GAI.pdb
     RDKit          3D

 18 17  0  0  1  0  0  0  0  0999 V2000
    7.8124  -12.3038   18.5828 N   0  0  0  0  0  0  0  0  0  0  0  0
    8.6415  -13.4019   19.0452 C   0  0  0  0  0  0  0  0  0  0  0  0
    7.9896  -13.9688   20.2675 C   0  0  0  0  0  0  0  0  0  0  0  0
    7.2294  -13.2687   21.0049 O   0  0  0  0  0  0  0  0  0  0  0  0
    7.6114  -17.3640   21.9051 C   0  0  0  0  0  0  0  0  0  0  0  0
    7.6106  -15.8624   21.8731 C   0  0  2  0  0  0  0  0  0  0  0  0
    8.1851  -15.3174   20.6682 N   0  0  0  0  0  0  0  0  0  0  0  0
    8.2879  -15.3696   23.0978 C   0  0  0  0  0  0  0  0  0  0  0  0
    9.5168  -15.1188   23.0002 O   0  0  0  0  0  0  0  0  0  0  0  0
    5.7464  -11.6828   25.9823 C   0  0  0  0  0  0  0  0  0  0  0  0
    6.7248  -12.5799   25.3368 C   0  0  0  0  0  0  0  0  0  0  0  0
    7.4344  -13.5937   26.1547 C   0  0  2  0  0  0  0  0  0  0  0  0
    8.0960  -12.9314   27.3717 C   0  0  0  0  0  0  0  0  0  0  0  0
    8.3087  -14.5894   25.5188 C   0  0  2  0  0  0  0  0  0  0  0  0
    7.6591  -15.1703   24.3286 N   0  0  0  0  0  0  0  0  0  0  0  0
    8.9043  -15.6630   26.2953 C   0  0  0  0  0  0  0  0  0  0  0  0
    8.2316  -16.7607   26.3943 O   0  0  0  0  0  0  0  0  0  0  0  0
   10.1044  -15.7072   26.9590 O   0  0  0  0  0  0  0  0  0  0  0  0
  1  2  1  0
  3  4  2  0
  3  2  1  0
  6  7  1  0
  6  5  1  6
  7  3  1  0
  8  6  1  0
  9  8  2  0
 10 11  1  0
 11 12  1  0
 12 14  1  0
 12 13  1  1
 14 16  1  0
 14 15  1  6
 15  8  1  0
 16 18  1  0
 17 16  2  0
M  END
$$$$
