WSV.pdb
     RDKit          3D

 28 29  0  0  1  0  0  0  0  0999 V2000
    6.3912  -17.2264   24.3706 N   0  0  0  0  0  0  0  0  0  0  0  0
    7.5887  -16.3699   24.1979 C   0  0  1  0  0  0  0  0  0  0  0  0
    7.7176  -15.4604   25.3567 C   0  0  0  0  0  0  0  0  0  0  0  0
    6.6865  -14.4628   25.5793 C   0  0  0  0  0  0  0  0  0  0  0  0
    5.3704  -14.6804   25.9918 C   0  0  0  0  0  0  0  0  0  0  0  0
    4.7573  -13.4980   26.0554 N   0  0  0  0  0  0  0  0  0  0  0  0
    5.5947  -12.5180   25.7093 C   0  0  0  0  0  0  0  0  0  0  0  0
    5.4554  -11.1318   25.6321 C   0  0  0  0  0  0  0  0  0  0  0  0
    6.5156  -10.3647   25.2607 C   0  0  0  0  0  0  0  0  0  0  0  0
    7.7436  -10.9354   24.9538 C   0  0  0  0  0  0  0  0  0  0  0  0
    7.8908  -12.3070   25.0266 C   0  0  0  0  0  0  0  0  0  0  0  0
    6.8129  -13.0929   25.4049 C   0  0  0  0  0  0  0  0  0  0  0  0
    8.7337  -17.2541   23.9805 C   0  0  0  0  0  0  0  0  0  0  0  0
    8.8412  -18.3706   24.5779 O   0  0  0  0  0  0  0  0  0  0  0  0
   11.2563  -16.0744   21.3953 O   0  0  0  0  0  0  0  0  0  0  0  0
   11.9523  -17.0533   22.0595 C   0  0  0  0  0  0  0  0  0  0  0  0
   11.1504  -17.5040   23.3029 C   0  0  2  0  0  0  0  0  0  0  0  0
    9.8249  -16.9624   23.0834 N   0  0  0  0  0  0  0  0  0  0  0  0
   11.7452  -16.8296   24.4709 C   0  0  0  0  0  0  0  0  0  0  0  0
   12.4096  -15.7851   24.3176 O   0  0  0  0  0  0  0  0  0  0  0  0
   10.6994  -14.8072   27.1216 C   0  0  0  0  0  0  0  0  0  0  0  0
   11.2996  -15.9931   27.8442 C   0  0  1  0  0  0  0  0  0  0  0  0
   10.1811  -16.9593   28.1857 C   0  0  0  0  0  0  0  0  0  0  0  0
   12.2565  -16.6708   26.9036 C   0  0  2  0  0  0  0  0  0  0  0  0
   11.5907  -17.3334   25.8035 N   0  0  0  0  0  0  0  0  0  0  0  0
   13.0897  -17.6882   27.6475 C   0  0  0  0  0  0  0  0  0  0  0  0
   13.0306  -18.9157   27.3537 O   0  0  0  0  0  0  0  0  0  0  0  0
   13.9416  -17.3196   28.6693 O   0  0  0  0  0  0  0  0  0  0  0  0
  2  1  1  1
  3  2  1  0
  4  5  2  0
  4  3  1  0
  6  5  1  0
  7 12  2  0
  7  6  1  0
  8  7  1  0
  9 10  1  0
  9  8  2  0
 10 11  2  0
 11 12  1  0
 12  4  1  0
 13  2  1  0
 14 13  2  0
 16 15  1  0
 17 18  1  0
 17 16  1  6
 18 13  1  0
 19 17  1  0
 20 19  2  0
 22 21  1  6
 22 24  1  0
 23 22  1  0
 24 26  1  0
 24 25  1  6
 25 19  1  0
 26 28  1  0
 27 26  2  0
M  END
$$$$
