WSV.pdb
     RDKit          3D

 28 29  0  0  1  0  0  0  0  0999 V2000
    6.3346  -17.3884   24.5668 N   0  0  0  0  0  0  0  0  0  0  0  0
    7.5027  -16.5378   24.2359 C   0  0  1  0  0  0  0  0  0  0  0  0
    7.7548  -15.5912   25.3435 C   0  0  0  0  0  0  0  0  0  0  0  0
    6.7603  -14.5737   25.6324 C   0  0  0  0  0  0  0  0  0  0  0  0
    5.4464  -14.7695   26.0626 C   0  0  0  0  0  0  0  0  0  0  0  0
    4.8722  -13.5730   26.1919 N   0  0  0  0  0  0  0  0  0  0  0  0
    5.7331  -12.6044   25.8724 C   0  0  0  0  0  0  0  0  0  0  0  0
    5.6359  -11.2125   25.8602 C   0  0  0  0  0  0  0  0  0  0  0  0
    6.7121  -10.4620   25.5011 C   0  0  0  0  0  0  0  0  0  0  0  0
    7.9153  -11.0554   25.1430 C   0  0  0  0  0  0  0  0  0  0  0  0
    8.0206  -12.4328   25.1513 C   0  0  0  0  0  0  0  0  0  0  0  0
    6.9263  -13.2018   25.5168 C   0  0  0  0  0  0  0  0  0  0  0  0
    8.6201  -17.4286   23.9226 C   0  0  0  0  0  0  0  0  0  0  0  0
    8.7312  -18.5772   24.4549 O   0  0  0  0  0  0  0  0  0  0  0  0
   11.0454  -16.1680   21.2759 O   0  0  0  0  0  0  0  0  0  0  0  0
   11.7872  -17.1186   21.9316 C   0  0  0  0  0  0  0  0  0  0  0  0
   11.0324  -17.5775   23.2012 C   0  0  2  0  0  0  0  0  0  0  0  0
    9.6776  -17.1079   22.9955 N   0  0  0  0  0  0  0  0  0  0  0  0
   11.6147  -16.8458   24.3407 C   0  0  0  0  0  0  0  0  0  0  0  0
   12.1703  -15.7442   24.1572 O   0  0  0  0  0  0  0  0  0  0  0  0
   10.4177  -14.9031   26.7515 C   0  0  0  0  0  0  0  0  0  0  0  0
   11.1519  -15.9031   27.6174 C   0  0  1  0  0  0  0  0  0  0  0  0
   10.1500  -16.9260   28.1187 C   0  0  0  0  0  0  0  0  0  0  0  0
   12.1683  -16.6002   26.7569 C   0  0  2  0  0  0  0  0  0  0  0  0
   11.5700  -17.3566   25.6789 N   0  0  0  0  0  0  0  0  0  0  0  0
   13.0101  -17.5349   27.5938 C   0  0  0  0  0  0  0  0  0  0  0  0
   12.9788  -18.7836   27.4029 O   0  0  0  0  0  0  0  0  0  0  0  0
   13.8400  -17.0652   28.5920 O   0  0  0  0  0  0  0  0  0  0  0  0
  2  1  1  1
  3  2  1  0
  4  5  2  0
  4  3  1  0
  6  5  1  0
  7 12  2  0
  7  6  1  0
  8  7  1  0
  9 10  1  0
  9  8  2  0
 10 11  2  0
 11 12  1  0
 12  4  1  0
 13  2  1  0
 14 13  2  0
 16 15  1  0
 17 18  1  0
 17 16  1  6
 18 13  1  0
 19 17  1  0
 20 19  2  0
 22 21  1  6
 22 24  1  0
 23 22  1  0
 24 26  1  0
 24 25  1  6
 25 19  1  0
 26 28  1  0
 27 26  2  0
M  END
$$$$
