WSV.pdb
     RDKit          3D

 28 29  0  0  1  0  0  0  0  0999 V2000
    6.3055  -17.4241   24.5702 N   0  0  0  0  0  0  0  0  0  0  0  0
    7.4891  -16.6019   24.2232 C   0  0  1  0  0  0  0  0  0  0  0  0
    7.7362  -15.6137   25.2951 C   0  0  0  0  0  0  0  0  0  0  0  0
    6.7425  -14.5835   25.5376 C   0  0  0  0  0  0  0  0  0  0  0  0
    5.3914  -14.7626   25.8416 C   0  0  0  0  0  0  0  0  0  0  0  0
    4.8343  -13.5580   25.9700 N   0  0  0  0  0  0  0  0  0  0  0  0
    5.7413  -12.5997   25.7686 C   0  0  0  0  0  0  0  0  0  0  0  0
    5.6761  -11.2064   25.8064 C   0  0  0  0  0  0  0  0  0  0  0  0
    6.7962  -10.4700   25.5755 C   0  0  0  0  0  0  0  0  0  0  0  0
    8.0133  -11.0791   25.3003 C   0  0  0  0  0  0  0  0  0  0  0  0
    8.0872  -12.4580   25.2600 C   0  0  0  0  0  0  0  0  0  0  0  0
    6.9481  -13.2127   25.4948 C   0  0  0  0  0  0  0  0  0  0  0  0
    8.5999  -17.5181   23.9641 C   0  0  0  0  0  0  0  0  0  0  0  0
    8.7159  -18.6223   24.5823 O   0  0  0  0  0  0  0  0  0  0  0  0
   11.5689  -16.1591   21.5451 O   0  0  0  0  0  0  0  0  0  0  0  0
   11.6980  -17.4908   21.8516 C   0  0  0  0  0  0  0  0  0  0  0  0
   10.9869  -17.7832   23.1936 C   0  0  2  0  0  0  0  0  0  0  0  0
    9.6447  -17.2737   23.0002 N   0  0  0  0  0  0  0  0  0  0  0  0
   11.6539  -16.9683   24.2250 C   0  0  0  0  0  0  0  0  0  0  0  0
   12.2580  -15.9256   23.9029 O   0  0  0  0  0  0  0  0  0  0  0  0
   10.7842  -14.6588   26.5087 C   0  0  0  0  0  0  0  0  0  0  0  0
   11.4472  -15.6716   27.4162 C   0  0  1  0  0  0  0  0  0  0  0  0
   10.3680  -16.5533   28.0155 C   0  0  0  0  0  0  0  0  0  0  0  0
   12.3559  -16.5217   26.5729 C   0  0  2  0  0  0  0  0  0  0  0  0
   11.6390  -17.3305   25.6114 N   0  0  0  0  0  0  0  0  0  0  0  0
   13.1831  -17.4328   27.4494 C   0  0  0  0  0  0  0  0  0  0  0  0
   13.0358  -18.6869   27.4041 O   0  0  0  0  0  0  0  0  0  0  0  0
   14.1250  -16.9348   28.3272 O   0  0  0  0  0  0  0  0  0  0  0  0
  2  1  1  1
  3  2  1  0
  4  5  2  0
  4  3  1  0
  6  5  1  0
  7 12  2  0
  7  6  1  0
  8  7  1  0
  9 10  1  0
  9  8  2  0
 10 11  2  0
 11 12  1  0
 12  4  1  0
 13  2  1  0
 14 13  2  0
 16 15  1  0
 17 18  1  0
 17 16  1  6
 18 13  1  0
 19 17  1  0
 20 19  2  0
 22 21  1  6
 22 24  1  0
 23 22  1  0
 24 26  1  0
 24 25  1  6
 25 19  1  0
 26 28  1  0
 27 26  2  0
M  END
$$$$
