WSV.pdb
     RDKit          3D

 28 29  0  0  1  0  0  0  0  0999 V2000
    6.2865  -17.3994   24.1812 N   0  0  0  0  0  0  0  0  0  0  0  0
    7.4798  -16.5223   24.1182 C   0  0  1  0  0  0  0  0  0  0  0  0
    7.5685  -15.7181   25.3559 C   0  0  0  0  0  0  0  0  0  0  0  0
    6.5971  -14.6612   25.5729 C   0  0  0  0  0  0  0  0  0  0  0  0
    5.3152  -14.7848   26.1127 C   0  0  0  0  0  0  0  0  0  0  0  0
    4.7525  -13.5760   26.1199 N   0  0  0  0  0  0  0  0  0  0  0  0
    5.5908  -12.6671   25.6170 C   0  0  0  0  0  0  0  0  0  0  0  0
    5.4945  -11.2882   25.4262 C   0  0  0  0  0  0  0  0  0  0  0  0
    6.5447  -10.6031   24.8988 C   0  0  0  0  0  0  0  0  0  0  0  0
    7.7201  -11.2510   24.5429 C   0  0  0  0  0  0  0  0  0  0  0  0
    7.8242  -12.6160   24.7274 C   0  0  0  0  0  0  0  0  0  0  0  0
    6.7564  -13.3185   25.2647 C   0  0  0  0  0  0  0  0  0  0  0  0
    8.6389  -17.3755   23.8555 C   0  0  0  0  0  0  0  0  0  0  0  0
    8.7510  -18.5312   24.3718 O   0  0  0  0  0  0  0  0  0  0  0  0
   11.3280  -15.7051   21.6461 O   0  0  0  0  0  0  0  0  0  0  0  0
   11.9271  -16.8450   22.1210 C   0  0  0  0  0  0  0  0  0  0  0  0
   11.0982  -17.4125   23.2970 C   0  0  2  0  0  0  0  0  0  0  0  0
    9.7398  -17.0070   22.9995 N   0  0  0  0  0  0  0  0  0  0  0  0
   11.5401  -16.7131   24.5170 C   0  0  0  0  0  0  0  0  0  0  0  0
   12.4241  -15.8357   24.4483 O   0  0  0  0  0  0  0  0  0  0  0  0
    9.1407  -15.5662   27.4520 C   0  0  0  0  0  0  0  0  0  0  0  0
   10.5557  -15.0673   27.2581 C   0  0  1  0  0  0  0  0  0  0  0  0
   11.0184  -14.4299   28.5547 C   0  0  0  0  0  0  0  0  0  0  0  0
   11.4277  -16.2556   26.9630 C   0  0  2  0  0  0  0  0  0  0  0  0
   10.9869  -17.0044   25.8065 N   0  0  0  0  0  0  0  0  0  0  0  0
   11.4672  -17.1847   28.1537 C   0  0  0  0  0  0  0  0  0  0  0  0
   10.8747  -18.3004   28.1268 O   0  0  0  0  0  0  0  0  0  0  0  0
   12.1468  -16.8538   29.3089 O   0  0  0  0  0  0  0  0  0  0  0  0
  2  1  1  1
  3  2  1  0
  4  5  2  0
  4  3  1  0
  6  5  1  0
  7 12  2  0
  7  6  1  0
  8  7  1  0
  9 10  1  0
  9  8  2  0
 10 11  2  0
 11 12  1  0
 12  4  1  0
 13  2  1  0
 14 13  2  0
 16 15  1  0
 17 18  1  0
 17 16  1  6
 18 13  1  0
 19 17  1  0
 20 19  2  0
 22 21  1  1
 22 24  1  0
 23 22  1  0
 24 26  1  0
 24 25  1  6
 25 19  1  0
 26 28  1  0
 27 26  2  0
M  END
$$$$
