WSV.pdb
     RDKit          3D

 28 29  0  0  1  0  0  0  0  0999 V2000
    6.3291  -17.8093   24.4863 N   0  0  0  0  0  0  0  0  0  0  0  0
    7.3503  -16.7348   24.4847 C   0  0  1  0  0  0  0  0  0  0  0  0
    7.3076  -16.0100   25.7729 C   0  0  0  0  0  0  0  0  0  0  0  0
    6.3785  -14.9044   25.9214 C   0  0  0  0  0  0  0  0  0  0  0  0
    5.0863  -14.9470   26.4488 C   0  0  0  0  0  0  0  0  0  0  0  0
    4.5743  -13.7174   26.3858 N   0  0  0  0  0  0  0  0  0  0  0  0
    5.4556  -12.8712   25.8486 C   0  0  0  0  0  0  0  0  0  0  0  0
    5.4191  -11.5013   25.5856 C   0  0  0  0  0  0  0  0  0  0  0  0
    6.5031  -10.8881   25.0385 C   0  0  0  0  0  0  0  0  0  0  0  0
    7.6547  -11.6013   24.7330 C   0  0  0  0  0  0  0  0  0  0  0  0
    7.6996  -12.9580   24.9891 C   0  0  0  0  0  0  0  0  0  0  0  0
    6.5972  -13.5872   25.5468 C   0  0  0  0  0  0  0  0  0  0  0  0
    8.6383  -17.3532   24.1701 C   0  0  0  0  0  0  0  0  0  0  0  0
    8.9509  -18.5069   24.6015 O   0  0  0  0  0  0  0  0  0  0  0  0
   10.8324  -15.5327   21.6831 O   0  0  0  0  0  0  0  0  0  0  0  0
   11.6932  -16.4757   22.1866 C   0  0  0  0  0  0  0  0  0  0  0  0
   11.0303  -17.1920   23.3864 C   0  0  2  0  0  0  0  0  0  0  0  0
    9.6551  -16.7381   23.3526 N   0  0  0  0  0  0  0  0  0  0  0  0
   11.6666  -16.6700   24.6093 C   0  0  0  0  0  0  0  0  0  0  0  0
   12.7425  -16.0433   24.5346 O   0  0  0  0  0  0  0  0  0  0  0  0
   11.0854  -14.2056   26.5572 C   0  0  0  0  0  0  0  0  0  0  0  0
   11.3426  -15.1779   27.6875 C   0  0  1  0  0  0  0  0  0  0  0  0
   10.0289  -15.4397   28.3994 C   0  0  0  0  0  0  0  0  0  0  0  0
   11.8339  -16.4650   27.0862 C   0  0  2  0  0  0  0  0  0  0  0  0
   11.0909  -16.8563   25.9083 N   0  0  0  0  0  0  0  0  0  0  0  0
   11.7534  -17.5813   28.1011 C   0  0  0  0  0  0  0  0  0  0  0  0
   10.9910  -18.5721   27.9176 O   0  0  0  0  0  0  0  0  0  0  0  0
   12.5039  -17.5629   29.2596 O   0  0  0  0  0  0  0  0  0  0  0  0
  2  1  1  1
  3  2  1  0
  4  5  2  0
  4  3  1  0
  6  5  1  0
  7 12  2  0
  7  6  1  0
  8  7  1  0
  9 10  1  0
  9  8  2  0
 10 11  2  0
 11 12  1  0
 12  4  1  0
 13  2  1  0
 14 13  2  0
 16 15  1  0
 17 18  1  0
 17 16  1  6
 18 13  1  0
 19 17  1  0
 20 19  2  0
 22 21  1  6
 22 24  1  0
 23 22  1  0
 24 26  1  0
 24 25  1  6
 25 19  1  0
 26 28  1  0
 27 26  2  0
M  END
$$$$
