WSV.pdb
     RDKit          3D

 28 29  0  0  1  0  0  0  0  0999 V2000
    6.4590  -17.4924   24.5714 N   0  0  0  0  0  0  0  0  0  0  0  0
    7.5897  -16.5519   24.3867 C   0  0  1  0  0  0  0  0  0  0  0  0
    7.6697  -15.6404   25.5483 C   0  0  0  0  0  0  0  0  0  0  0  0
    6.6559  -14.6123   25.7001 C   0  0  0  0  0  0  0  0  0  0  0  0
    5.3531  -14.7693   26.1776 C   0  0  0  0  0  0  0  0  0  0  0  0
    4.7530  -13.5793   26.1378 N   0  0  0  0  0  0  0  0  0  0  0  0
    5.5863  -12.6513   25.6626 C   0  0  0  0  0  0  0  0  0  0  0  0
    5.4564  -11.2790   25.4454 C   0  0  0  0  0  0  0  0  0  0  0  0
    6.5096  -10.5681   24.9598 C   0  0  0  0  0  0  0  0  0  0  0  0
    7.7210  -11.1828   24.6728 C   0  0  0  0  0  0  0  0  0  0  0  0
    7.8587  -12.5410   24.8840 C   0  0  0  0  0  0  0  0  0  0  0  0
    6.7880  -13.2697   25.3789 C   0  0  0  0  0  0  0  0  0  0  0  0
    8.7918  -17.3513   24.1491 C   0  0  0  0  0  0  0  0  0  0  0  0
    8.9302  -18.5154   24.6395 O   0  0  0  0  0  0  0  0  0  0  0  0
   11.5736  -15.5922   22.0854 O   0  0  0  0  0  0  0  0  0  0  0  0
   12.0798  -16.8237   22.4183 C   0  0  0  0  0  0  0  0  0  0  0  0
   11.2454  -17.4308   23.5705 C   0  0  2  0  0  0  0  0  0  0  0  0
    9.9097  -16.9164   23.3481 N   0  0  0  0  0  0  0  0  0  0  0  0
   11.7637  -16.8626   24.8280 C   0  0  0  0  0  0  0  0  0  0  0  0
   12.8900  -16.3271   24.8538 O   0  0  0  0  0  0  0  0  0  0  0  0
   10.7780  -14.1874   27.0283 C   0  0  0  0  0  0  0  0  0  0  0  0
   10.8470  -15.3716   27.9672 C   0  0  1  0  0  0  0  0  0  0  0  0
    9.4344  -15.8651   28.2170 C   0  0  0  0  0  0  0  0  0  0  0  0
   11.6271  -16.4588   27.2822 C   0  0  2  0  0  0  0  0  0  0  0  0
   11.0140  -16.9004   26.0487 N   0  0  0  0  0  0  0  0  0  0  0  0
   11.7807  -17.6500   28.1988 C   0  0  0  0  0  0  0  0  0  0  0  0
   11.2763  -18.7692   27.8993 O   0  0  0  0  0  0  0  0  0  0  0  0
   12.4729  -17.5632   29.3901 O   0  0  0  0  0  0  0  0  0  0  0  0
  2  1  1  1
  3  2  1  0
  4  5  2  0
  4  3  1  0
  6  5  1  0
  7 12  2  0
  7  6  1  0
  8  7  1  0
  9 10  1  0
  9  8  2  0
 10 11  2  0
 11 12  1  0
 12  4  1  0
 13  2  1  0
 14 13  2  0
 16 15  1  0
 17 18  1  0
 17 16  1  6
 18 13  1  0
 19 17  1  0
 20 19  2  0
 22 21  1  6
 22 24  1  0
 23 22  1  0
 24 26  1  0
 24 25  1  6
 25 19  1  0
 26 28  1  0
 27 26  2  0
M  END
$$$$
