WSV.pdb
     RDKit          3D

 28 29  0  0  1  0  0  0  0  0999 V2000
    6.2893  -17.6436   24.4581 N   0  0  0  0  0  0  0  0  0  0  0  0
    6.9893  -16.5081   23.8118 C   0  0  1  0  0  0  0  0  0  0  0  0
    7.7044  -15.7193   24.8379 C   0  0  0  0  0  0  0  0  0  0  0  0
    6.9359  -14.8526   25.7132 C   0  0  0  0  0  0  0  0  0  0  0  0
    6.0088  -15.2349   26.6849 C   0  0  0  0  0  0  0  0  0  0  0  0
    5.5214  -14.1287   27.2477 N   0  0  0  0  0  0  0  0  0  0  0  0
    6.0753  -13.0437   26.7022 C   0  0  0  0  0  0  0  0  0  0  0  0
    5.9264  -11.6774   26.9432 C   0  0  0  0  0  0  0  0  0  0  0  0
    6.6578  -10.7805   26.2284 C   0  0  0  0  0  0  0  0  0  0  0  0
    7.5566  -11.1979   25.2558 C   0  0  0  0  0  0  0  0  0  0  0  0
    7.7101  -12.5485   25.0097 C   0  0  0  0  0  0  0  0  0  0  0  0
    6.9668  -13.4664   25.7359 C   0  0  0  0  0  0  0  0  0  0  0  0
    7.8404  -17.0595   22.7572 C   0  0  0  0  0  0  0  0  0  0  0  0
    8.4232  -18.1815   22.8845 O   0  0  0  0  0  0  0  0  0  0  0  0
    8.7799  -14.5869   19.7824 O   0  0  0  0  0  0  0  0  0  0  0  0
    9.0848  -15.8747   19.4184 C   0  0  0  0  0  0  0  0  0  0  0  0
    9.2458  -16.7455   20.6865 C   0  0  2  0  0  0  0  0  0  0  0  0
    8.0919  -16.4087   21.4948 N   0  0  0  0  0  0  0  0  0  0  0  0
   10.4585  -16.2788   21.3825 C   0  0  0  0  0  0  0  0  0  0  0  0
   10.4134  -15.2596   22.1002 O   0  0  0  0  0  0  0  0  0  0  0  0
   12.3010  -19.0056   23.3688 C   0  0  0  0  0  0  0  0  0  0  0  0
   12.2699  -17.5105   23.5980 C   0  0  1  0  0  0  0  0  0  0  0  0
   13.2709  -17.1742   24.6871 C   0  0  0  0  0  0  0  0  0  0  0  0
   12.6962  -16.8392   22.3224 C   0  0  2  0  0  0  0  0  0  0  0  0
   11.7143  -16.9594   21.2670 N   0  0  0  0  0  0  0  0  0  0  0  0
   14.0026  -17.4215   21.8355 C   0  0  0  0  0  0  0  0  0  0  0  0
   14.0277  -18.2593   20.8899 O   0  0  0  0  0  0  0  0  0  0  0  0
   15.2105  -17.0640   22.4001 O   0  0  0  0  0  0  0  0  0  0  0  0
  2  1  1  1
  3  2  1  0
  4  5  2  0
  4  3  1  0
  6  5  1  0
  7 12  2  0
  7  6  1  0
  8  7  1  0
  9 10  1  0
  9  8  2  0
 10 11  2  0
 11 12  1  0
 12  4  1  0
 13  2  1  0
 14 13  2  0
 16 15  1  0
 17 18  1  0
 17 16  1  6
 18 13  1  0
 19 17  1  0
 20 19  2  0
 22 21  1  6
 22 24  1  0
 23 22  1  0
 24 26  1  0
 24 25  1  6
 25 19  1  0
 26 28  1  0
 27 26  2  0
M  END
$$$$
