WSV.pdb
     RDKit          3D

 28 29  0  0  1  0  0  0  0  0999 V2000
    6.4316  -17.1633   25.0539 N   0  0  0  0  0  0  0  0  0  0  0  0
    7.5287  -16.4086   24.4027 C   0  0  1  0  0  0  0  0  0  0  0  0
    7.8356  -15.1989   25.1958 C   0  0  0  0  0  0  0  0  0  0  0  0
    6.7551  -14.2864   25.5239 C   0  0  0  0  0  0  0  0  0  0  0  0
    5.4715  -14.6150   25.9647 C   0  0  0  0  0  0  0  0  0  0  0  0
    4.7904  -13.4811   26.1330 N   0  0  0  0  0  0  0  0  0  0  0  0
    5.5527  -12.4284   25.8290 C   0  0  0  0  0  0  0  0  0  0  0  0
    5.3262  -11.0518   25.8553 C   0  0  0  0  0  0  0  0  0  0  0  0
    6.3226  -10.1952   25.5033 C   0  0  0  0  0  0  0  0  0  0  0  0
    7.5704  -10.6643   25.1148 C   0  0  0  0  0  0  0  0  0  0  0  0
    7.8035  -12.0256   25.0850 C   0  0  0  0  0  0  0  0  0  0  0  0
    6.7910  -12.9025   25.4430 C   0  0  0  0  0  0  0  0  0  0  0  0
    8.6519  -17.3296   24.2274 C   0  0  0  0  0  0  0  0  0  0  0  0
    8.7581  -18.3949   24.9119 O   0  0  0  0  0  0  0  0  0  0  0  0
   11.0775  -16.3563   21.5097 O   0  0  0  0  0  0  0  0  0  0  0  0
   11.8917  -17.0759   22.3481 C   0  0  0  0  0  0  0  0  0  0  0  0
   11.0687  -17.5875   23.5537 C   0  0  2  0  0  0  0  0  0  0  0  0
    9.7208  -17.1337   23.2789 N   0  0  0  0  0  0  0  0  0  0  0  0
   11.5663  -16.8833   24.7492 C   0  0  0  0  0  0  0  0  0  0  0  0
   12.2041  -15.8183   24.6264 O   0  0  0  0  0  0  0  0  0  0  0  0
   10.5416  -14.8158   27.1453 C   0  0  0  0  0  0  0  0  0  0  0  0
   11.0946  -15.9110   28.0304 C   0  0  1  0  0  0  0  0  0  0  0  0
    9.9375  -16.7680   28.5078 C   0  0  0  0  0  0  0  0  0  0  0  0
   12.0145  -16.7581   27.1963 C   0  0  2  0  0  0  0  0  0  0  0  0
   11.3453  -17.3804   26.0750 N   0  0  0  0  0  0  0  0  0  0  0  0
   12.6434  -17.8391   28.0441 C   0  0  0  0  0  0  0  0  0  0  0  0
   12.4020  -19.0597   27.8240 O   0  0  0  0  0  0  0  0  0  0  0  0
   13.4996  -17.5380   29.0842 O   0  0  0  0  0  0  0  0  0  0  0  0
  2  1  1  1
  3  2  1  0
  4  5  2  0
  4  3  1  0
  6  5  1  0
  7 12  2  0
  7  6  1  0
  8  7  1  0
  9 10  1  0
  9  8  2  0
 10 11  2  0
 11 12  1  0
 12  4  1  0
 13  2  1  0
 14 13  2  0
 16 15  1  0
 17 18  1  0
 17 16  1  6
 18 13  1  0
 19 17  1  0
 20 19  2  0
 22 21  1  6
 22 24  1  0
 23 22  1  0
 24 26  1  0
 24 25  1  6
 25 19  1  0
 26 28  1  0
 27 26  2  0
M  END
$$$$
