WSV.pdb
     RDKit          3D

 28 29  0  0  1  0  0  0  0  0999 V2000
    6.7354  -17.8699   24.6533 N   0  0  0  0  0  0  0  0  0  0  0  0
    7.4284  -16.8325   23.8529 C   0  0  1  0  0  0  0  0  0  0  0  0
    7.9815  -15.7995   24.7548 C   0  0  0  0  0  0  0  0  0  0  0  0
    7.0638  -14.9099   25.4435 C   0  0  0  0  0  0  0  0  0  0  0  0
    5.8363  -15.2395   26.0220 C   0  0  0  0  0  0  0  0  0  0  0  0
    5.3093  -14.1265   26.5333 N   0  0  0  0  0  0  0  0  0  0  0  0
    6.1198  -13.0868   26.3244 C   0  0  0  0  0  0  0  0  0  0  0  0
    6.0426  -11.7371   26.6702 C   0  0  0  0  0  0  0  0  0  0  0  0
    7.0557  -10.8936   26.3347 C   0  0  0  0  0  0  0  0  0  0  0  0
    8.1741  -11.3496   25.6497 C   0  0  0  0  0  0  0  0  0  0  0  0
    8.2588  -12.6839   25.3024 C   0  0  0  0  0  0  0  0  0  0  0  0
    7.2287  -13.5475   25.6424 C   0  0  0  0  0  0  0  0  0  0  0  0
    8.4181  -17.5113   23.0161 C   0  0  0  0  0  0  0  0  0  0  0  0
    9.1994  -18.3962   23.4865 O   0  0  0  0  0  0  0  0  0  0  0  0
    9.6875  -15.8878   19.5201 O   0  0  0  0  0  0  0  0  0  0  0  0
    9.5580  -17.2523   19.4483 C   0  0  0  0  0  0  0  0  0  0  0  0
    9.6885  -17.8588   20.8651 C   0  0  2  0  0  0  0  0  0  0  0  0
    8.5982  -17.2598   21.6073 N   0  0  0  0  0  0  0  0  0  0  0  0
   10.9616  -17.3748   21.4290 C   0  0  0  0  0  0  0  0  0  0  0  0
   11.2220  -16.1549   21.4263 O   0  0  0  0  0  0  0  0  0  0  0  0
   12.4407  -17.4757   24.7835 C   0  0  0  0  0  0  0  0  0  0  0  0
   13.4782  -18.1334   23.9005 C   0  0  1  0  0  0  0  0  0  0  0  0
   13.3312  -19.6376   24.0311 C   0  0  0  0  0  0  0  0  0  0  0  0
   13.1910  -17.7391   22.4787 C   0  0  2  0  0  0  0  0  0  0  0  0
   11.9344  -18.2643   21.9913 N   0  0  0  0  0  0  0  0  0  0  0  0
   14.2991  -18.2159   21.5691 C   0  0  0  0  0  0  0  0  0  0  0  0
   14.0848  -19.1012   20.6933 O   0  0  0  0  0  0  0  0  0  0  0  0
   15.5793  -17.7070   21.6583 O   0  0  0  0  0  0  0  0  0  0  0  0
  2  1  1  1
  3  2  1  0
  4  5  2  0
  4  3  1  0
  6  5  1  0
  7 12  2  0
  7  6  1  0
  8  7  1  0
  9 10  1  0
  9  8  2  0
 10 11  2  0
 11 12  1  0
 12  4  1  0
 13  2  1  0
 14 13  2  0
 16 15  1  0
 17 18  1  0
 17 16  1  6
 18 13  1  0
 19 17  1  0
 20 19  2  0
 22 21  1  1
 22 24  1  0
 23 22  1  0
 24 26  1  0
 24 25  1  6
 25 19  1  0
 26 28  1  0
 27 26  2  0
M  END
$$$$
