WSV.pdb
     RDKit          3D

 28 29  0  0  1  0  0  0  0  0999 V2000
    8.0125  -16.8101   20.7855 N   0  0  0  0  0  0  0  0  0  0  0  0
    8.0522  -16.0567   22.0615 C   0  0  1  0  0  0  0  0  0  0  0  0
    6.6731  -15.7478   22.4965 C   0  0  0  0  0  0  0  0  0  0  0  0
    6.4761  -15.0796   23.7703 C   0  0  0  0  0  0  0  0  0  0  0  0
    5.9978  -15.6391   24.9569 C   0  0  0  0  0  0  0  0  0  0  0  0
    5.9558  -14.6769   25.8790 N   0  0  0  0  0  0  0  0  0  0  0  0
    6.3793  -13.5196   25.3665 C   0  0  0  0  0  0  0  0  0  0  0  0
    6.5432  -12.2439   25.9077 C   0  0  0  0  0  0  0  0  0  0  0  0
    7.0277  -11.2369   25.1322 C   0  0  0  0  0  0  0  0  0  0  0  0
    7.3654  -11.4519   23.8026 C   0  0  0  0  0  0  0  0  0  0  0  0
    7.2057  -12.7114   23.2580 C   0  0  0  0  0  0  0  0  0  0  0  0
    6.7123  -13.7409   24.0447 C   0  0  0  0  0  0  0  0  0  0  0  0
    8.8345  -16.8456   23.0133 C   0  0  0  0  0  0  0  0  0  0  0  0
    8.3529  -17.8706   23.5897 O   0  0  0  0  0  0  0  0  0  0  0  0
   12.6467  -16.7088   22.8771 O   0  0  0  0  0  0  0  0  0  0  0  0
   12.2215  -17.7394   23.6776 C   0  0  0  0  0  0  0  0  0  0  0  0
   10.8995  -17.3407   24.3744 C   0  0  2  0  0  0  0  0  0  0  0  0
   10.1991  -16.5549   23.3792 N   0  0  0  0  0  0  0  0  0  0  0  0
   11.2520  -16.4613   25.5036 C   0  0  0  0  0  0  0  0  0  0  0  0
   11.8981  -15.4137   25.3013 O   0  0  0  0  0  0  0  0  0  0  0  0
   10.3607  -13.9897   27.4287 C   0  0  0  0  0  0  0  0  0  0  0  0
   10.6628  -14.9806   28.5313 C   0  0  1  0  0  0  0  0  0  0  0  0
    9.3530  -15.5830   29.0031 C   0  0  0  0  0  0  0  0  0  0  0  0
   11.5175  -16.0718   27.9496 C   0  0  2  0  0  0  0  0  0  0  0  0
   10.8772  -16.7648   26.8531 N   0  0  0  0  0  0  0  0  0  0  0  0
   11.8756  -17.0808   29.0155 C   0  0  0  0  0  0  0  0  0  0  0  0
   11.4891  -18.2808   28.9299 O   0  0  0  0  0  0  0  0  0  0  0  0
   12.6332  -16.7342   30.1163 O   0  0  0  0  0  0  0  0  0  0  0  0
  2  1  1  6
  3  2  1  0
  4  5  2  0
  4  3  1  0
  6  5  1  0
  7 12  2  0
  7  6  1  0
  8  7  1  0
  9 10  1  0
  9  8  2  0
 10 11  2  0
 11 12  1  0
 12  4  1  0
 13  2  1  0
 14 13  2  0
 16 15  1  0
 17 18  1  0
 17 16  1  6
 18 13  1  0
 19 17  1  0
 20 19  2  0
 22 21  1  6
 22 24  1  0
 23 22  1  0
 24 26  1  0
 24 25  1  6
 25 19  1  0
 26 28  1  0
 27 26  2  0
M  END
$$$$
