WSV.pdb
     RDKit          3D

 28 29  0  0  1  0  0  0  0  0999 V2000
    6.4556  -17.5487   24.6462 N   0  0  0  0  0  0  0  0  0  0  0  0
    7.5749  -16.6575   24.2588 C   0  0  1  0  0  0  0  0  0  0  0  0
    7.8014  -15.6566   25.3234 C   0  0  0  0  0  0  0  0  0  0  0  0
    6.7786  -14.6563   25.5704 C   0  0  0  0  0  0  0  0  0  0  0  0
    5.4661  -14.8719   25.9955 C   0  0  0  0  0  0  0  0  0  0  0  0
    4.8604  -13.6871   26.0808 N   0  0  0  0  0  0  0  0  0  0  0  0
    5.6992  -12.7075   25.7373 C   0  0  0  0  0  0  0  0  0  0  0  0
    5.5667  -11.3196   25.6790 C   0  0  0  0  0  0  0  0  0  0  0  0
    6.6268  -10.5537   25.3050 C   0  0  0  0  0  0  0  0  0  0  0  0
    7.8480  -11.1271   24.9768 C   0  0  0  0  0  0  0  0  0  0  0  0
    7.9883  -12.5003   25.0308 C   0  0  0  0  0  0  0  0  0  0  0  0
    6.9106  -13.2850   25.4117 C   0  0  0  0  0  0  0  0  0  0  0  0
    8.7281  -17.5058   23.9576 C   0  0  0  0  0  0  0  0  0  0  0  0
    8.8475  -18.6727   24.4464 O   0  0  0  0  0  0  0  0  0  0  0  0
   13.1072  -16.2102   22.7250 O   0  0  0  0  0  0  0  0  0  0  0  0
   12.0000  -16.8550   22.2328 C   0  0  0  0  0  0  0  0  0  0  0  0
   11.1885  -17.4553   23.4046 C   0  0  2  0  0  0  0  0  0  0  0  0
    9.8147  -17.1197   23.0910 N   0  0  0  0  0  0  0  0  0  0  0  0
   11.5827  -16.7268   24.6239 C   0  0  0  0  0  0  0  0  0  0  0  0
   11.9747  -15.5452   24.5462 O   0  0  0  0  0  0  0  0  0  0  0  0
   10.1084  -15.4783   28.7369 C   0  0  0  0  0  0  0  0  0  0  0  0
   10.4084  -15.6016   27.2592 C   0  0  1  0  0  0  0  0  0  0  0  0
   10.7572  -14.2245   26.7270 C   0  0  0  0  0  0  0  0  0  0  0  0
   11.6042  -16.4992   27.1044 C   0  0  2  0  0  0  0  0  0  0  0  0
   11.5352  -17.3307   25.9227 N   0  0  0  0  0  0  0  0  0  0  0  0
   11.7494  -17.3914   28.3150 C   0  0  0  0  0  0  0  0  0  0  0  0
   12.3885  -17.0043   29.3340 O   0  0  0  0  0  0  0  0  0  0  0  0
   11.1938  -18.6544   28.3552 O   0  0  0  0  0  0  0  0  0  0  0  0
  2  1  1  1
  3  2  1  0
  4  5  2  0
  4  3  1  0
  6  5  1  0
  7 12  2  0
  7  6  1  0
  8  7  1  0
  9 10  1  0
  9  8  2  0
 10 11  2  0
 11 12  1  0
 12  4  1  0
 13  2  1  0
 14 13  2  0
 16 15  1  0
 17 18  1  0
 17 16  1  6
 18 13  1  0
 19 17  1  0
 20 19  2  0
 22 21  1  1
 22 24  1  0
 23 22  1  0
 24 26  1  0
 24 25  1  6
 25 19  1  0
 26 28  1  0
 27 26  2  0
M  END
$$$$
