DGF.pdb
     RDKit          3D

 24 24  0  0  1  0  0  0  0  0999 V2000
    9.2973  -17.6213   18.8981 N   0  0  0  0  0  0  0  0  0  0  0  0
    8.5320  -16.3774   18.5950 C   0  0  1  0  0  0  0  0  0  0  0  0
    7.5356  -16.7438   17.5194 C   0  0  0  0  0  0  0  0  0  0  0  0
    8.1643  -16.8874   16.2129 C   0  0  0  0  0  0  0  0  0  0  0  0
    9.3954  -16.8352   16.0633 O   0  0  0  0  0  0  0  0  0  0  0  0
    7.8550  -16.0087   19.8638 C   0  0  0  0  0  0  0  0  0  0  0  0
    7.1668  -14.9237   19.8833 O   0  0  0  0  0  0  0  0  0  0  0  0
    7.4241  -17.0938   15.0369 O   0  0  0  0  0  0  0  0  0  0  0  0
    7.9367  -16.7913   21.0138 N   0  0  0  0  0  0  0  0  0  0  0  0
    7.1821  -16.4445   22.2196 C   0  0  0  0  0  0  0  0  0  0  0  0
    8.1650  -16.2240   23.3077 C   0  0  0  0  0  0  0  0  0  0  0  0
    9.3830  -16.1950   23.0972 O   0  0  0  0  0  0  0  0  0  0  0  0
    7.6878  -16.0424   24.6211 N   0  0  0  0  0  0  0  0  0  0  0  0
    8.5263  -15.7263   25.7626 C   0  0  1  0  0  0  0  0  0  0  0  0
    7.6227  -15.1039   26.7923 C   0  0  0  0  0  0  0  0  0  0  0  0
    7.1433  -13.7642   26.4834 C   0  0  0  0  0  0  0  0  0  0  0  0
    8.1017  -12.7522   26.3521 C   0  0  0  0  0  0  0  0  0  0  0  0
    7.7439  -11.4560   26.0600 C   0  0  0  0  0  0  0  0  0  0  0  0
    6.4077  -11.1675   25.8967 C   0  0  0  0  0  0  0  0  0  0  0  0
    5.4513  -12.1629   26.0248 C   0  0  0  0  0  0  0  0  0  0  0  0
    5.8005  -13.4508   26.3146 C   0  0  0  0  0  0  0  0  0  0  0  0
    9.1423  -17.0008   26.2114 C   0  0  0  0  0  0  0  0  0  0  0  0
   10.0226  -17.0476   27.1097 O   0  0  0  0  0  0  0  0  0  0  0  0
    8.7788  -18.2365   25.6594 O   0  0  0  0  0  0  0  0  0  0  0  0
  2  1  1  1
  2  3  1  0
  3  4  1  0
  4  8  1  0
  5  4  2  0
  6  7  2  0
  6  2  1  0
  9  6  1  0
 10 11  1  0
 10  9  1  0
 11 13  1  0
 12 11  2  0
 13 14  1  0
 14 15  1  1
 14 22  1  0
 15 16  1  0
 16 21  2  0
 17 16  1  0
 17 18  2  0
 18 19  1  0
 19 20  2  0
 21 20  1  0
 22 23  2  0
 22 24  1  0
M  END
$$$$
