DGF.pdb
     RDKit          3D

 24 24  0  0  1  0  0  0  0  0999 V2000
    5.5882  -18.3083   21.9180 N   0  0  0  0  0  0  0  0  0  0  0  0
    6.3044  -18.4638   20.6189 C   0  0  1  0  0  0  0  0  0  0  0  0
    5.2426  -18.7402   19.5794 C   0  0  0  0  0  0  0  0  0  0  0  0
    4.7337  -20.1030   19.6617 C   0  0  0  0  0  0  0  0  0  0  0  0
    4.4652  -20.6431   20.7467 O   0  0  0  0  0  0  0  0  0  0  0  0
    6.9780  -17.1628   20.3787 C   0  0  0  0  0  0  0  0  0  0  0  0
    7.7248  -17.0569   19.3383 O   0  0  0  0  0  0  0  0  0  0  0  0
    4.5126  -20.8968   18.5241 O   0  0  0  0  0  0  0  0  0  0  0  0
    6.8249  -16.0694   21.2288 N   0  0  0  0  0  0  0  0  0  0  0  0
    7.5339  -14.8129   20.9796 C   0  0  0  0  0  0  0  0  0  0  0  0
    8.3623  -14.5281   22.1759 C   0  0  0  0  0  0  0  0  0  0  0  0
    9.2776  -13.6969   22.1588 O   0  0  0  0  0  0  0  0  0  0  0  0
    8.0916  -15.2311   23.3667 N   0  0  0  0  0  0  0  0  0  0  0  0
    8.7745  -15.0042   24.6271 C   0  0  1  0  0  0  0  0  0  0  0  0
    7.7158  -15.0457   25.6956 C   0  0  0  0  0  0  0  0  0  0  0  0
    7.1001  -13.7677   26.0235 C   0  0  0  0  0  0  0  0  0  0  0  0
    7.8607  -12.6126   25.8064 C   0  0  0  0  0  0  0  0  0  0  0  0
    7.3628  -11.3605   26.0850 C   0  0  0  0  0  0  0  0  0  0  0  0
    6.0851  -11.2620   26.5882 C   0  0  0  0  0  0  0  0  0  0  0  0
    5.3242  -12.4001   26.8066 C   0  0  0  0  0  0  0  0  0  0  0  0
    5.8132  -13.6451   26.5320 C   0  0  0  0  0  0  0  0  0  0  0  0
    9.7936  -16.0755   24.7644 C   0  0  0  0  0  0  0  0  0  0  0  0
    9.7616  -17.1319   24.0809 O   0  0  0  0  0  0  0  0  0  0  0  0
   10.8597  -15.9751   25.6683 O   0  0  0  0  0  0  0  0  0  0  0  0
  2  1  1  1
  2  3  1  0
  3  4  1  0
  4  8  1  0
  5  4  2  0
  6  7  2  0
  6  2  1  0
  9  6  1  0
 10 11  1  0
 10  9  1  0
 11 13  1  0
 12 11  2  0
 13 14  1  0
 14 15  1  1
 14 22  1  0
 15 16  1  0
 16 21  2  0
 17 16  1  0
 17 18  2  0
 18 19  1  0
 19 20  2  0
 21 20  1  0
 22 23  2  0
 22 24  1  0
M  END
$$$$
