DGF.pdb
     RDKit          3D

 24 24  0  0  1  0  0  0  0  0999 V2000
    9.4546  -16.5357   20.1204 N   0  0  0  0  0  0  0  0  0  0  0  0
    8.9378  -17.9092   20.3874 C   0  0  1  0  0  0  0  0  0  0  0  0
   10.1111  -18.8456   20.2119 C   0  0  0  0  0  0  0  0  0  0  0  0
   10.9603  -18.4597   19.0927 C   0  0  0  0  0  0  0  0  0  0  0  0
   11.9160  -17.6791   19.2274 O   0  0  0  0  0  0  0  0  0  0  0  0
    8.4618  -17.8878   21.7935 C   0  0  0  0  0  0  0  0  0  0  0  0
    7.8896  -18.9443   22.2493 O   0  0  0  0  0  0  0  0  0  0  0  0
   10.7574  -18.9420   17.7890 O   0  0  0  0  0  0  0  0  0  0  0  0
    8.6175  -16.7788   22.6225 N   0  0  0  0  0  0  0  0  0  0  0  0
    8.0787  -16.7707   23.9838 C   0  0  0  0  0  0  0  0  0  0  0  0
    9.1204  -16.1947   24.8680 C   0  0  0  0  0  0  0  0  0  0  0  0
   10.2613  -15.9439   24.4626 O   0  0  0  0  0  0  0  0  0  0  0  0
    8.7919  -15.9271   26.2118 N   0  0  0  0  0  0  0  0  0  0  0  0
    9.6759  -15.2716   27.1580 C   0  0  1  0  0  0  0  0  0  0  0  0
    8.8666  -14.1830   27.8094 C   0  0  0  0  0  0  0  0  0  0  0  0
    8.0823  -13.3535   26.9057 C   0  0  0  0  0  0  0  0  0  0  0  0
    8.7633  -12.7203   25.8592 C   0  0  0  0  0  0  0  0  0  0  0  0
    8.1062  -11.9181   24.9546 C   0  0  0  0  0  0  0  0  0  0  0  0
    6.7478  -11.7467   25.0987 C   0  0  0  0  0  0  0  0  0  0  0  0
    6.0647  -12.3697   26.1317 C   0  0  0  0  0  0  0  0  0  0  0  0
    6.7115  -13.1667   27.0323 C   0  0  0  0  0  0  0  0  0  0  0  0
   10.1376  -16.3136   28.1100 C   0  0  0  0  0  0  0  0  0  0  0  0
   10.9698  -16.0748   29.0235 O   0  0  0  0  0  0  0  0  0  0  0  0
    9.6721  -17.6339   28.0494 O   0  0  0  0  0  0  0  0  0  0  0  0
  2  1  1  1
  2  3  1  0
  3  4  1  0
  4  8  1  0
  5  4  2  0
  6  7  2  0
  6  2  1  0
  9  6  1  0
 10 11  1  0
 10  9  1  0
 11 13  1  0
 12 11  2  0
 13 14  1  0
 14 15  1  1
 14 22  1  0
 15 16  1  0
 16 21  2  0
 17 16  1  0
 17 18  2  0
 18 19  1  0
 19 20  2  0
 21 20  1  0
 22 23  2  0
 22 24  1  0
M  END
$$$$
