DGF.pdb
     RDKit          3D

 24 24  0  0  1  0  0  0  0  0999 V2000
    9.4627  -17.0565   19.0387 N   0  0  0  0  0  0  0  0  0  0  0  0
    8.0382  -16.8948   18.6269 C   0  0  1  0  0  0  0  0  0  0  0  0
    7.6786  -18.1376   17.8458 C   0  0  0  0  0  0  0  0  0  0  0  0
    8.3300  -18.1764   16.5431 C   0  0  0  0  0  0  0  0  0  0  0  0
    9.3209  -18.8905   16.3214 O   0  0  0  0  0  0  0  0  0  0  0  0
    7.2672  -16.8030   19.8923 C   0  0  0  0  0  0  0  0  0  0  0  0
    5.9872  -16.7226   19.8105 O   0  0  0  0  0  0  0  0  0  0  0  0
    7.8842  -17.4116   15.4524 O   0  0  0  0  0  0  0  0  0  0  0  0
    7.8767  -16.8062   21.1453 N   0  0  0  0  0  0  0  0  0  0  0  0
    7.0849  -16.6928   22.3716 C   0  0  0  0  0  0  0  0  0  0  0  0
    8.0362  -16.5565   23.5008 C   0  0  0  0  0  0  0  0  0  0  0  0
    9.2612  -16.5811   23.3347 O   0  0  0  0  0  0  0  0  0  0  0  0
    7.5199  -16.3940   24.8018 N   0  0  0  0  0  0  0  0  0  0  0  0
    8.3311  -16.1756   25.9853 C   0  0  1  0  0  0  0  0  0  0  0  0
    7.4555  -15.4498   26.9706 C   0  0  0  0  0  0  0  0  0  0  0  0
    7.1858  -14.0521   26.6645 C   0  0  0  0  0  0  0  0  0  0  0  0
    8.2727  -13.1698   26.6745 C   0  0  0  0  0  0  0  0  0  0  0  0
    8.1155  -11.8315   26.3963 C   0  0  0  0  0  0  0  0  0  0  0  0
    6.8524  -11.3684   26.1035 C   0  0  0  0  0  0  0  0  0  0  0  0
    5.7699  -12.2344   26.0910 C   0  0  0  0  0  0  0  0  0  0  0  0
    5.9200  -13.5634   26.3665 C   0  0  0  0  0  0  0  0  0  0  0  0
    8.7705  -17.5124   26.4597 C   0  0  0  0  0  0  0  0  0  0  0  0
    9.6007  -17.6598   27.3941 O   0  0  0  0  0  0  0  0  0  0  0  0
    8.2849  -18.6984   25.8928 O   0  0  0  0  0  0  0  0  0  0  0  0
  2  1  1  1
  2  3  1  0
  3  4  1  0
  4  8  1  0
  5  4  2  0
  6  7  2  0
  6  2  1  0
  9  6  1  0
 10 11  1  0
 10  9  1  0
 11 13  1  0
 12 11  2  0
 13 14  1  0
 14 15  1  1
 14 22  1  0
 15 16  1  0
 16 21  2  0
 17 16  1  0
 17 18  2  0
 18 19  1  0
 19 20  2  0
 21 20  1  0
 22 23  2  0
 22 24  1  0
M  END
$$$$
