DGF.pdb
     RDKit          3D

 24 24  0  0  1  0  0  0  0  0999 V2000
   11.1439  -17.0572   18.1754 N   0  0  0  0  0  0  0  0  0  0  0  0
    9.8485  -16.3505   17.9578 C   0  0  1  0  0  0  0  0  0  0  0  0
    9.1521  -17.0784   16.8311 C   0  0  0  0  0  0  0  0  0  0  0  0
    9.7608  -16.7999   15.5370 C   0  0  0  0  0  0  0  0  0  0  0  0
   10.3434  -17.6766   14.8790 O   0  0  0  0  0  0  0  0  0  0  0  0
    9.1045  -16.4831   19.2357 C   0  0  0  0  0  0  0  0  0  0  0  0
    8.1360  -15.6670   19.4535 O   0  0  0  0  0  0  0  0  0  0  0  0
    9.7311  -15.5255   14.9467 O   0  0  0  0  0  0  0  0  0  0  0  0
    9.4146  -17.4513   20.1885 N   0  0  0  0  0  0  0  0  0  0  0  0
    8.6137  -17.5984   21.4053 C   0  0  0  0  0  0  0  0  0  0  0  0
    9.0448  -16.5389   22.3489 C   0  0  0  0  0  0  0  0  0  0  0  0
   10.0924  -15.9021   22.1880 O   0  0  0  0  0  0  0  0  0  0  0  0
    8.2290  -16.2543   23.4620 N   0  0  0  0  0  0  0  0  0  0  0  0
    8.4141  -15.1185   24.3462 C   0  0  1  0  0  0  0  0  0  0  0  0
    7.0938  -14.3983   24.3925 C   0  0  0  0  0  0  0  0  0  0  0  0
    7.0062  -13.3023   25.3470 C   0  0  0  0  0  0  0  0  0  0  0  0
    6.0380  -13.4013   26.3534 C   0  0  0  0  0  0  0  0  0  0  0  0
    5.8818  -12.4158   27.3008 C   0  0  0  0  0  0  0  0  0  0  0  0
    6.7062  -11.3148   27.2411 C   0  0  0  0  0  0  0  0  0  0  0  0
    7.6679  -11.2077   26.2483 C   0  0  0  0  0  0  0  0  0  0  0  0
    7.8273  -12.1825   25.3055 C   0  0  0  0  0  0  0  0  0  0  0  0
    8.8367  -15.6609   25.6624 C   0  0  0  0  0  0  0  0  0  0  0  0
    9.5547  -15.0087   26.4644 O   0  0  0  0  0  0  0  0  0  0  0  0
    8.4595  -16.9394   26.0947 O   0  0  0  0  0  0  0  0  0  0  0  0
  2  1  1  1
  2  3  1  0
  3  4  1  0
  4  8  1  0
  5  4  2  0
  6  7  2  0
  6  2  1  0
  9  6  1  0
 10 11  1  0
 10  9  1  0
 11 13  1  0
 12 11  2  0
 13 14  1  0
 14 15  1  1
 14 22  1  0
 15 16  1  0
 16 21  2  0
 17 16  1  0
 17 18  2  0
 18 19  1  0
 19 20  2  0
 21 20  1  0
 22 23  2  0
 22 24  1  0
M  END
$$$$
