DGF.pdb
     RDKit          3D

 24 24  0  0  1  0  0  0  0  0999 V2000
    8.0650  -18.8618   19.2874 N   0  0  0  0  0  0  0  0  0  0  0  0
    8.2320  -17.3946   19.0770 C   0  0  1  0  0  0  0  0  0  0  0  0
    7.3743  -17.0365   17.8853 C   0  0  0  0  0  0  0  0  0  0  0  0
    8.0579  -17.2814   16.6221 C   0  0  0  0  0  0  0  0  0  0  0  0
    9.2210  -17.7124   16.5735 O   0  0  0  0  0  0  0  0  0  0  0  0
    7.7326  -16.7560   20.3208 C   0  0  0  0  0  0  0  0  0  0  0  0
    7.7409  -15.4723   20.3811 O   0  0  0  0  0  0  0  0  0  0  0  0
    7.4510  -17.0476   15.3770 O   0  0  0  0  0  0  0  0  0  0  0  0
    7.2583  -17.4917   21.4048 N   0  0  0  0  0  0  0  0  0  0  0  0
    6.7534  -16.8264   22.6073 C   0  0  0  0  0  0  0  0  0  0  0  0
    7.9284  -16.4403   23.4252 C   0  0  0  0  0  0  0  0  0  0  0  0
    9.0850  -16.5302   22.9973 O   0  0  0  0  0  0  0  0  0  0  0  0
    7.7119  -15.9561   24.7306 N   0  0  0  0  0  0  0  0  0  0  0  0
    8.7551  -15.4425   25.5990 C   0  0  1  0  0  0  0  0  0  0  0  0
    8.0581  -14.6766   26.6908 C   0  0  0  0  0  0  0  0  0  0  0  0
    7.4347  -13.4252   26.2842 C   0  0  0  0  0  0  0  0  0  0  0  0
    6.2430  -13.0626   26.9232 C   0  0  0  0  0  0  0  0  0  0  0  0
    5.5826  -11.8977   26.6068 C   0  0  0  0  0  0  0  0  0  0  0  0
    6.1220  -11.0831   25.6367 C   0  0  0  0  0  0  0  0  0  0  0  0
    7.3016  -11.4336   24.9984 C   0  0  0  0  0  0  0  0  0  0  0  0
    7.9612  -12.5884   25.3083 C   0  0  0  0  0  0  0  0  0  0  0  0
    9.5187  -16.6151   26.0960 C   0  0  0  0  0  0  0  0  0  0  0  0
    9.0267  -17.7725   26.1437 O   0  0  0  0  0  0  0  0  0  0  0  0
   10.8417  -16.5042   26.5446 O   0  0  0  0  0  0  0  0  0  0  0  0
  2  1  1  1
  2  3  1  0
  3  4  1  0
  4  8  1  0
  5  4  2  0
  6  7  2  0
  6  2  1  0
  9  6  1  0
 10 11  1  0
 10  9  1  0
 11 13  1  0
 12 11  2  0
 13 14  1  0
 14 15  1  1
 14 22  1  0
 15 16  1  0
 16 21  2  0
 17 16  1  0
 17 18  2  0
 18 19  1  0
 19 20  2  0
 21 20  1  0
 22 23  2  0
 22 24  1  0
M  END
$$$$
