DGF.pdb
     RDKit          3D

 24 24  0  0  1  0  0  0  0  0999 V2000
    7.0501  -12.6693   19.0465 N   0  0  0  0  0  0  0  0  0  0  0  0
    8.1298  -13.6749   18.8275 C   0  0  1  0  0  0  0  0  0  0  0  0
    9.4375  -12.9279   18.9543 C   0  0  0  0  0  0  0  0  0  0  0  0
   10.5862  -13.7768   18.6668 C   0  0  0  0  0  0  0  0  0  0  0  0
   10.5623  -14.6404   17.7755 O   0  0  0  0  0  0  0  0  0  0  0  0
    7.9656  -14.6761   19.9113 C   0  0  0  0  0  0  0  0  0  0  0  0
    8.4636  -15.8464   19.7275 O   0  0  0  0  0  0  0  0  0  0  0  0
   11.7951  -13.6776   19.3753 O   0  0  0  0  0  0  0  0  0  0  0  0
    7.3039  -14.3905   21.1038 N   0  0  0  0  0  0  0  0  0  0  0  0
    7.1566  -15.4056   22.1486 C   0  0  0  0  0  0  0  0  0  0  0  0
    8.2263  -15.1695   23.1480 C   0  0  0  0  0  0  0  0  0  0  0  0
    9.2269  -14.4899   22.8916 O   0  0  0  0  0  0  0  0  0  0  0  0
    8.0908  -15.7411   24.4288 N   0  0  0  0  0  0  0  0  0  0  0  0
    9.0051  -15.5095   25.5318 C   0  0  1  0  0  0  0  0  0  0  0  0
    8.1518  -15.1858   26.7282 C   0  0  0  0  0  0  0  0  0  0  0  0
    7.4220  -13.9278   26.6607 C   0  0  0  0  0  0  0  0  0  0  0  0
    8.1655  -12.7461   26.7646 C   0  0  0  0  0  0  0  0  0  0  0  0
    7.5633  -11.5101   26.7102 C   0  0  0  0  0  0  0  0  0  0  0  0
    6.1971  -11.4549   26.5494 C   0  0  0  0  0  0  0  0  0  0  0  0
    5.4523  -12.6195   26.4455 C   0  0  0  0  0  0  0  0  0  0  0  0
    6.0445  -13.8488   26.4989 C   0  0  0  0  0  0  0  0  0  0  0  0
    9.8056  -16.7494   25.6961 C   0  0  0  0  0  0  0  0  0  0  0  0
    9.4450  -17.8562   25.2176 O   0  0  0  0  0  0  0  0  0  0  0  0
   11.0186  -16.7630   26.3977 O   0  0  0  0  0  0  0  0  0  0  0  0
  2  1  1  1
  2  3  1  0
  3  4  1  0
  4  8  1  0
  5  4  2  0
  6  7  2  0
  6  2  1  0
  9  6  1  0
 10 11  1  0
 10  9  1  0
 11 13  1  0
 12 11  2  0
 13 14  1  0
 14 15  1  1
 14 22  1  0
 15 16  1  0
 16 21  2  0
 17 16  1  0
 17 18  2  0
 18 19  1  0
 19 20  2  0
 21 20  1  0
 22 23  2  0
 22 24  1  0
M  END
$$$$
