DGF.pdb
     RDKit          3D

 24 24  0  0  1  0  0  0  0  0999 V2000
    7.0517  -18.9422   21.8772 N   0  0  0  0  0  0  0  0  0  0  0  0
    6.7473  -18.2686   20.5817 C   0  0  1  0  0  0  0  0  0  0  0  0
    5.2575  -18.0144   20.5754 C   0  0  0  0  0  0  0  0  0  0  0  0
    4.4922  -19.2341   20.3534 C   0  0  0  0  0  0  0  0  0  0  0  0
    3.3851  -19.4244   20.8818 O   0  0  0  0  0  0  0  0  0  0  0  0
    7.5176  -16.9996   20.6035 C   0  0  0  0  0  0  0  0  0  0  0  0
    7.5546  -16.3016   19.5251 O   0  0  0  0  0  0  0  0  0  0  0  0
    4.9520  -20.2751   19.5299 O   0  0  0  0  0  0  0  0  0  0  0  0
    8.1867  -16.5464   21.7386 N   0  0  0  0  0  0  0  0  0  0  0  0
    8.8292  -15.2310   21.7628 C   0  0  0  0  0  0  0  0  0  0  0  0
    9.4722  -15.0777   23.0901 C   0  0  0  0  0  0  0  0  0  0  0  0
   10.5173  -14.4350   23.2437 O   0  0  0  0  0  0  0  0  0  0  0  0
    8.8667  -15.6866   24.2073 N   0  0  0  0  0  0  0  0  0  0  0  0
    9.4000  -15.6410   25.5563 C   0  0  1  0  0  0  0  0  0  0  0  0
    8.2172  -15.4901   26.4742 C   0  0  0  0  0  0  0  0  0  0  0  0
    7.4453  -14.2662   26.3122 C   0  0  0  0  0  0  0  0  0  0  0  0
    8.0776  -13.0593   26.6340 C   0  0  0  0  0  0  0  0  0  0  0  0
    7.4286  -11.8522   26.5116 C   0  0  0  0  0  0  0  0  0  0  0  0
    6.1278  -11.8519   26.0605 C   0  0  0  0  0  0  0  0  0  0  0  0
    5.4933  -13.0419   25.7394 C   0  0  0  0  0  0  0  0  0  0  0  0
    6.1323  -14.2427   25.8590 C   0  0  0  0  0  0  0  0  0  0  0  0
   10.1519  -16.9043   25.7658 C   0  0  0  0  0  0  0  0  0  0  0  0
   10.7155  -17.1836   26.8559 O   0  0  0  0  0  0  0  0  0  0  0  0
   10.2806  -17.8683   24.7569 O   0  0  0  0  0  0  0  0  0  0  0  0
  2  1  1  1
  2  3  1  0
  3  4  1  0
  4  8  1  0
  5  4  2  0
  6  7  2  0
  6  2  1  0
  9  6  1  0
 10 11  1  0
 10  9  1  0
 11 13  1  0
 12 11  2  0
 13 14  1  0
 14 15  1  1
 14 22  1  0
 15 16  1  0
 16 21  2  0
 17 16  1  0
 17 18  2  0
 18 19  1  0
 19 20  2  0
 21 20  1  0
 22 23  2  0
 22 24  1  0
M  END
$$$$
