DGF.pdb
     RDKit          3D

 24 24  0  0  1  0  0  0  0  0999 V2000
    9.8700  -13.2193   19.1334 N   0  0  0  0  0  0  0  0  0  0  0  0
    8.4021  -12.9674   19.2143 C   0  0  1  0  0  0  0  0  0  0  0  0
    7.8412  -13.2839   17.8471 C   0  0  0  0  0  0  0  0  0  0  0  0
    8.4363  -14.4833   17.2724 C   0  0  0  0  0  0  0  0  0  0  0  0
    9.2387  -15.1896   17.9035 O   0  0  0  0  0  0  0  0  0  0  0  0
    7.8940  -13.9085   20.2441 C   0  0  0  0  0  0  0  0  0  0  0  0
    6.6730  -13.7806   20.6236 O   0  0  0  0  0  0  0  0  0  0  0  0
    8.1449  -14.9216   15.9700 O   0  0  0  0  0  0  0  0  0  0  0  0
    8.6845  -14.9126   20.7994 N   0  0  0  0  0  0  0  0  0  0  0  0
    8.1495  -15.8212   21.8152 C   0  0  0  0  0  0  0  0  0  0  0  0
    8.7840  -15.4631   23.1067 C   0  0  0  0  0  0  0  0  0  0  0  0
    9.7062  -14.6428   23.1807 O   0  0  0  0  0  0  0  0  0  0  0  0
    8.3153  -16.0816   24.2829 N   0  0  0  0  0  0  0  0  0  0  0  0
    8.8590  -15.8444   25.6074 C   0  0  1  0  0  0  0  0  0  0  0  0
    7.6899  -15.4977   26.4890 C   0  0  0  0  0  0  0  0  0  0  0  0
    7.2078  -14.1276   26.3875 C   0  0  0  0  0  0  0  0  0  0  0  0
    7.9855  -13.1262   26.9811 C   0  0  0  0  0  0  0  0  0  0  0  0
    7.6114  -11.8028   26.9354 C   0  0  0  0  0  0  0  0  0  0  0  0
    6.4421  -11.4759   26.2863 C   0  0  0  0  0  0  0  0  0  0  0  0
    5.6654  -12.4605   25.6955 C   0  0  0  0  0  0  0  0  0  0  0  0
    6.0316  -13.7753   25.7377 C   0  0  0  0  0  0  0  0  0  0  0  0
    9.5574  -17.0895   26.0163 C   0  0  0  0  0  0  0  0  0  0  0  0
    9.3388  -18.2001   25.4659 O   0  0  0  0  0  0  0  0  0  0  0  0
   10.5083  -17.1042   27.0455 O   0  0  0  0  0  0  0  0  0  0  0  0
  2  1  1  6
  2  3  1  0
  3  4  1  0
  4  8  1  0
  5  4  2  0
  6  7  2  0
  6  2  1  0
  9  6  1  0
 10 11  1  0
 10  9  1  0
 11 13  1  0
 12 11  2  0
 13 14  1  0
 14 15  1  1
 14 22  1  0
 15 16  1  0
 16 21  2  0
 17 16  1  0
 17 18  2  0
 18 19  1  0
 19 20  2  0
 21 20  1  0
 22 23  2  0
 22 24  1  0
M  END
$$$$
