DGF.pdb
     RDKit          3D

 24 24  0  0  1  0  0  0  0  0999 V2000
   11.0730  -17.1356   16.2689 N   0  0  0  0  0  0  0  0  0  0  0  0
    9.9894  -18.0228   15.7554 C   0  0  1  0  0  0  0  0  0  0  0  0
   10.6744  -19.2460   15.1907 C   0  0  0  0  0  0  0  0  0  0  0  0
   11.3248  -18.9730   13.9159 C   0  0  0  0  0  0  0  0  0  0  0  0
   12.4600  -18.4756   13.8470 O   0  0  0  0  0  0  0  0  0  0  0  0
    9.1581  -18.3597   16.9384 C   0  0  0  0  0  0  0  0  0  0  0  0
    8.3367  -19.3425   16.8342 O   0  0  0  0  0  0  0  0  0  0  0  0
   10.7151  -19.2524   12.6816 O   0  0  0  0  0  0  0  0  0  0  0  0
    9.2423  -17.6590   18.1398 N   0  0  0  0  0  0  0  0  0  0  0  0
    9.1766  -18.3541   19.4267 C   0  0  0  0  0  0  0  0  0  0  0  0
   10.0502  -17.6178   20.3718 C   0  0  0  0  0  0  0  0  0  0  0  0
   11.2736  -17.5393   20.2108 O   0  0  0  0  0  0  0  0  0  0  0  0
    9.4598  -16.9900   21.4866 N   0  0  0  0  0  0  0  0  0  0  0  0
   10.1103  -15.9783   22.2987 C   0  0  1  0  0  0  0  0  0  0  0  0
    9.0546  -14.9585   22.6304 C   0  0  0  0  0  0  0  0  0  0  0  0
    8.4308  -14.3026   21.4900 C   0  0  0  0  0  0  0  0  0  0  0  0
    7.0936  -14.6166   21.2193 C   0  0  0  0  0  0  0  0  0  0  0  0
    6.4200  -14.0457   20.1640 C   0  0  0  0  0  0  0  0  0  0  0  0
    7.0937  -13.1474   19.3673 C   0  0  0  0  0  0  0  0  0  0  0  0
    8.4179  -12.8302   19.6273 C   0  0  0  0  0  0  0  0  0  0  0  0
    9.0914  -13.3936   20.6731 C   0  0  0  0  0  0  0  0  0  0  0  0
   10.6580  -16.6703   23.4930 C   0  0  0  0  0  0  0  0  0  0  0  0
   11.4018  -16.0929   24.3281 O   0  0  0  0  0  0  0  0  0  0  0  0
   10.3783  -18.0162   23.7650 O   0  0  0  0  0  0  0  0  0  0  0  0
  2  1  1  1
  2  3  1  0
  3  4  1  0
  4  8  1  0
  5  4  2  0
  6  7  2  0
  6  2  1  0
  9  6  1  0
 10 11  1  0
 10  9  1  0
 11 13  1  0
 12 11  2  0
 13 14  1  0
 14 15  1  1
 14 22  1  0
 15 16  1  0
 16 21  2  0
 17 16  1  0
 17 18  2  0
 18 19  1  0
 19 20  2  0
 21 20  1  0
 22 23  2  0
 22 24  1  0
M  END
$$$$
