DGF.pdb
     RDKit          3D

 24 24  0  0  1  0  0  0  0  0999 V2000
    9.8992  -17.6622   19.2790 N   0  0  0  0  0  0  0  0  0  0  0  0
    8.8307  -16.6862   18.9175 C   0  0  1  0  0  0  0  0  0  0  0  0
    7.9266  -17.3921   17.9333 C   0  0  0  0  0  0  0  0  0  0  0  0
    8.5950  -17.6602   16.6667 C   0  0  0  0  0  0  0  0  0  0  0  0
    9.6347  -18.3350   16.5986 O   0  0  0  0  0  0  0  0  0  0  0  0
    8.1241  -16.3827   20.1874 C   0  0  0  0  0  0  0  0  0  0  0  0
    7.3397  -15.3650   20.2091 O   0  0  0  0  0  0  0  0  0  0  0  0
    8.1116  -17.1755   15.4400 O   0  0  0  0  0  0  0  0  0  0  0  0
    8.2778  -17.1563   21.3360 N   0  0  0  0  0  0  0  0  0  0  0  0
    7.5072  -16.8718   22.5480 C   0  0  0  0  0  0  0  0  0  0  0  0
    8.4656  -16.4185   23.5847 C   0  0  0  0  0  0  0  0  0  0  0  0
    9.6222  -16.0804   23.3077 O   0  0  0  0  0  0  0  0  0  0  0  0
    8.0369  -16.3743   24.9263 N   0  0  0  0  0  0  0  0  0  0  0  0
    8.8286  -15.8501   26.0240 C   0  0  1  0  0  0  0  0  0  0  0  0
    7.8651  -15.1520   26.9452 C   0  0  0  0  0  0  0  0  0  0  0  0
    7.4578  -13.8153   26.5364 C   0  0  0  0  0  0  0  0  0  0  0  0
    6.1371  -13.6496   26.1025 C   0  0  0  0  0  0  0  0  0  0  0  0
    5.6612  -12.4234   25.6982 C   0  0  0  0  0  0  0  0  0  0  0  0
    6.5188  -11.3468   25.7284 C   0  0  0  0  0  0  0  0  0  0  0  0
    7.8283  -11.5010   26.1565 C   0  0  0  0  0  0  0  0  0  0  0  0
    8.3060  -12.7153   26.5587 C   0  0  0  0  0  0  0  0  0  0  0  0
    9.5130  -17.0079   26.6534 C   0  0  0  0  0  0  0  0  0  0  0  0
    9.1074  -18.1913   26.5148 O   0  0  0  0  0  0  0  0  0  0  0  0
   10.6592  -16.8530   27.4447 O   0  0  0  0  0  0  0  0  0  0  0  0
  2  1  1  1
  2  3  1  0
  3  4  1  0
  4  8  1  0
  5  4  2  0
  6  7  2  0
  6  2  1  0
  9  6  1  0
 10 11  1  0
 10  9  1  0
 11 13  1  0
 12 11  2  0
 13 14  1  0
 14 15  1  1
 14 22  1  0
 15 16  1  0
 16 21  2  0
 17 16  1  0
 17 18  2  0
 18 19  1  0
 19 20  2  0
 21 20  1  0
 22 23  2  0
 22 24  1  0
M  END
$$$$
