DGF.pdb
     RDKit          3D

 24 24  0  0  1  0  0  0  0  0999 V2000
   10.0948  -16.8242   18.9240 N   0  0  0  0  0  0  0  0  0  0  0  0
    8.6735  -16.8127   18.4715 C   0  0  1  0  0  0  0  0  0  0  0  0
    8.4089  -18.1734   17.8694 C   0  0  0  0  0  0  0  0  0  0  0  0
    9.3759  -18.5146   16.8344 C   0  0  0  0  0  0  0  0  0  0  0  0
    9.7944  -17.6767   16.0197 O   0  0  0  0  0  0  0  0  0  0  0  0
    7.8679  -16.5926   19.6989 C   0  0  0  0  0  0  0  0  0  0  0  0
    6.5882  -16.6445   19.5939 O   0  0  0  0  0  0  0  0  0  0  0  0
    9.8994  -19.8098   16.6870 O   0  0  0  0  0  0  0  0  0  0  0  0
    8.4457  -16.3406   20.9415 N   0  0  0  0  0  0  0  0  0  0  0  0
    7.6190  -16.0590   22.1167 C   0  0  0  0  0  0  0  0  0  0  0  0
    8.5297  -15.9497   23.2817 C   0  0  0  0  0  0  0  0  0  0  0  0
    9.7543  -15.8395   23.1506 O   0  0  0  0  0  0  0  0  0  0  0  0
    7.9743  -15.9727   24.5765 N   0  0  0  0  0  0  0  0  0  0  0  0
    8.7260  -15.7419   25.7963 C   0  0  1  0  0  0  0  0  0  0  0  0
    7.7441  -15.2092   26.8044 C   0  0  0  0  0  0  0  0  0  0  0  0
    7.2761  -13.8502   26.5719 C   0  0  0  0  0  0  0  0  0  0  0  0
    8.2087  -12.8156   26.7124 C   0  0  0  0  0  0  0  0  0  0  0  0
    7.8594  -11.5000   26.5114 C   0  0  0  0  0  0  0  0  0  0  0  0
    6.5580  -11.2146   26.1647 C   0  0  0  0  0  0  0  0  0  0  0  0
    5.6273  -12.2323   26.0233 C   0  0  0  0  0  0  0  0  0  0  0  0
    5.9682  -13.5395   26.2215 C   0  0  0  0  0  0  0  0  0  0  0  0
    9.3249  -17.0434   26.1867 C   0  0  0  0  0  0  0  0  0  0  0  0
    8.8931  -18.1439   25.7548 O   0  0  0  0  0  0  0  0  0  0  0  0
   10.4139  -17.1265   27.0647 O   0  0  0  0  0  0  0  0  0  0  0  0
  2  1  1  1
  2  3  1  0
  3  4  1  0
  4  8  1  0
  5  4  2  0
  6  7  2  0
  6  2  1  0
  9  6  1  0
 10 11  1  0
 10  9  1  0
 11 13  1  0
 12 11  2  0
 13 14  1  0
 14 15  1  1
 14 22  1  0
 15 16  1  0
 16 21  2  0
 17 16  1  0
 17 18  2  0
 18 19  1  0
 19 20  2  0
 21 20  1  0
 22 23  2  0
 22 24  1  0
M  END
$$$$
