DQS.pdb
     RDKit          3D

 24 23  0  0  1  0  0  0  0  0999 V2000
   18.0554  -11.4835  -15.6372 N   0  0  0  0  0  0  0  0  0  0  0  0
   17.5963  -10.1467  -15.4075 C   0  0  1  0  0  0  0  0  0  0  0  0
   16.1073  -10.1223  -15.6630 C   0  0  0  0  0  0  0  0  0  0  0  0
   15.8069  -10.0918  -17.1146 C   0  0  0  0  0  0  0  0  0  0  0  0
   16.7569  -10.0086  -17.9648 O   0  0  0  0  0  0  0  0  0  0  0  0
   17.8434   -9.6876  -14.0172 C   0  0  0  0  0  0  0  0  0  0  0  0
   17.7043  -10.4402  -13.0200 O   0  0  0  0  0  0  0  0  0  0  0  0
   14.5327  -10.1483  -17.6485 O   0  0  0  0  0  0  0  0  0  0  0  0
   22.3038   -6.1733  -11.7882 N   0  0  0  0  0  0  0  0  0  0  0  0
   21.5928   -5.6953  -12.9188 C   0  0  0  0  0  0  0  0  0  0  0  0
   22.1821   -4.8271  -13.6360 O   0  0  0  0  0  0  0  0  0  0  0  0
   20.2230   -6.1939  -13.2394 C   0  0  0  0  0  0  0  0  0  0  0  0
   19.8899   -7.2572  -12.2149 C   0  0  0  0  0  0  0  0  0  0  0  0
   18.5505   -7.8809  -12.4128 C   0  0  2  0  0  0  0  0  0  0  0  0
   18.2564   -8.3644  -13.7037 N   0  0  0  0  0  0  0  0  0  0  0  0
   17.5174   -6.8900  -12.0188 C   0  0  0  0  0  0  0  0  0  0  0  0
   17.0062   -6.0797  -12.8384 O   0  0  0  0  0  0  0  0  0  0  0  0
   14.8875   -7.6468   -9.4907 O   0  0  0  0  0  0  0  0  0  0  0  0
   14.8006   -6.3899  -10.0671 C   0  0  0  0  0  0  0  0  0  0  0  0
   16.2169   -5.8264  -10.1330 C   0  0  2  0  0  0  0  0  0  0  0  0
   17.0914   -6.8579  -10.6656 N   0  0  0  0  0  0  0  0  0  0  0  0
   16.6338   -5.4584   -8.7655 C   0  0  0  0  0  0  0  0  0  0  0  0
   16.0530   -4.5633   -8.1174 O   0  0  0  0  0  0  0  0  0  0  0  0
   17.6914   -6.1131   -8.1771 O   0  0  0  0  0  0  0  0  0  0  0  0
  2  1  1  1
  2  3  1  0
  4  3  1  0
  5  4  2  0
  6  2  1  0
  7  6  2  0
  8  4  1  0
  9 10  1  0
 10 11  2  0
 10 12  1  0
 12 13  1  0
 14 13  1  6
 14 15  1  0
 15  6  1  0
 16 14  1  0
 17 16  2  0
 18 19  1  0
 20 19  1  1
 20 21  1  0
 21 16  1  0
 22 20  1  0
 22 24  1  0
 23 22  2  0
M  END
$$$$
