DQS.pdb
     RDKit          3D

 24 23  0  0  1  0  0  0  0  0999 V2000
   16.9918  -11.8901  -17.4575 N   0  0  0  0  0  0  0  0  0  0  0  0
   17.1746  -11.2821  -16.1740 C   0  0  1  0  0  0  0  0  0  0  0  0
   18.0398  -12.2050  -15.3478 C   0  0  0  0  0  0  0  0  0  0  0  0
   17.2926  -13.4135  -14.9241 C   0  0  0  0  0  0  0  0  0  0  0  0
   16.0323  -13.4899  -15.1193 O   0  0  0  0  0  0  0  0  0  0  0  0
   17.8431   -9.9588  -16.2576 C   0  0  0  0  0  0  0  0  0  0  0  0
   18.7328   -9.7012  -17.1074 O   0  0  0  0  0  0  0  0  0  0  0  0
   17.8680  -14.5106  -14.3101 O   0  0  0  0  0  0  0  0  0  0  0  0
   15.2566   -4.5017  -15.0060 N   0  0  0  0  0  0  0  0  0  0  0  0
   16.5578   -4.0936  -15.3965 C   0  0  0  0  0  0  0  0  0  0  0  0
   16.7314   -2.8483  -15.5823 O   0  0  0  0  0  0  0  0  0  0  0  0
   17.6586   -5.0852  -15.5770 C   0  0  0  0  0  0  0  0  0  0  0  0
   17.0668   -6.4535  -15.3146 C   0  0  0  0  0  0  0  0  0  0  0  0
   18.0393   -7.5699  -15.4877 C   0  0  2  0  0  0  0  0  0  0  0  0
   17.5308   -8.8804  -15.3861 N   0  0  0  0  0  0  0  0  0  0  0  0
   19.1268   -7.3928  -14.4926 C   0  0  0  0  0  0  0  0  0  0  0  0
   18.9926   -7.7027  -13.2778 O   0  0  0  0  0  0  0  0  0  0  0  0
   22.7315   -6.7849  -16.1106 O   0  0  0  0  0  0  0  0  0  0  0  0
   22.7159   -7.3923  -14.8655 C   0  0  0  0  0  0  0  0  0  0  0  0
   21.5471   -6.7949  -14.0881 C   0  0  2  0  0  0  0  0  0  0  0  0
   20.3643   -6.8539  -14.9306 N   0  0  0  0  0  0  0  0  0  0  0  0
   21.8743   -5.3925  -13.7635 C   0  0  0  0  0  0  0  0  0  0  0  0
   21.3086   -4.4350  -14.3308 O   0  0  0  0  0  0  0  0  0  0  0  0
   22.8284   -5.1192  -12.8102 O   0  0  0  0  0  0  0  0  0  0  0  0
  2  1  1  6
  2  3  1  0
  4  3  1  0
  5  4  2  0
  6  2  1  0
  7  6  2  0
  8  4  1  0
  9 10  1  0
 10 11  2  0
 10 12  1  0
 12 13  1  0
 14 13  1  1
 14 15  1  0
 15  6  1  0
 16 14  1  0
 17 16  2  0
 18 19  1  0
 20 19  1  6
 20 21  1  0
 21 16  1  0
 22 20  1  0
 22 24  1  0
 23 22  2  0
M  END
$$$$
