DQS.pdb
     RDKit          3D

 24 23  0  0  1  0  0  0  0  0999 V2000
   17.7700  -12.0949  -16.9083 N   0  0  0  0  0  0  0  0  0  0  0  0
   17.2720  -11.1371  -15.9674 C   0  0  1  0  0  0  0  0  0  0  0  0
   17.3280  -11.7688  -14.5959 C   0  0  0  0  0  0  0  0  0  0  0  0
   16.4157  -12.9335  -14.4982 C   0  0  0  0  0  0  0  0  0  0  0  0
   16.8800  -14.0904  -14.2187 O   0  0  0  0  0  0  0  0  0  0  0  0
   18.0741   -9.8877  -15.9437 C   0  0  0  0  0  0  0  0  0  0  0  0
   19.2988   -9.8628  -16.2262 O   0  0  0  0  0  0  0  0  0  0  0  0
   15.0481  -12.8710  -14.6916 O   0  0  0  0  0  0  0  0  0  0  0  0
   15.6417   -4.0749  -16.1210 N   0  0  0  0  0  0  0  0  0  0  0  0
   17.0237   -3.8140  -16.3061 C   0  0  0  0  0  0  0  0  0  0  0  0
   17.3459   -2.6119  -16.5644 O   0  0  0  0  0  0  0  0  0  0  0  0
   18.0381   -4.9037  -16.2007 C   0  0  0  0  0  0  0  0  0  0  0  0
   17.2829   -6.1820  -15.9060 C   0  0  0  0  0  0  0  0  0  0  0  0
   18.1617   -7.3779  -15.7655 C   0  0  2  0  0  0  0  0  0  0  0  0
   17.5226   -8.6234  -15.6013 N   0  0  0  0  0  0  0  0  0  0  0  0
   19.0757   -7.1465  -14.6186 C   0  0  0  0  0  0  0  0  0  0  0  0
   18.6891   -7.2039  -13.4199 O   0  0  0  0  0  0  0  0  0  0  0  0
   22.9934   -7.5206  -15.3657 O   0  0  0  0  0  0  0  0  0  0  0  0
   22.5481   -7.6810  -14.0635 C   0  0  0  0  0  0  0  0  0  0  0  0
   21.4306   -6.6664  -13.8421 C   0  0  2  0  0  0  0  0  0  0  0  0
   20.4372   -6.8502  -14.8870 N   0  0  0  0  0  0  0  0  0  0  0  0
   22.0115   -5.3116  -13.9214 C   0  0  0  0  0  0  0  0  0  0  0  0
   21.7360   -4.5295  -14.8547 O   0  0  0  0  0  0  0  0  0  0  0  0
   22.8831   -4.8866  -12.9450 O   0  0  0  0  0  0  0  0  0  0  0  0
  2  1  1  6
  2  3  1  0
  4  3  1  0
  5  4  2  0
  6  2  1  0
  7  6  2  0
  8  4  1  0
  9 10  1  0
 10 11  2  0
 10 12  1  0
 12 13  1  0
 14 13  1  1
 14 15  1  0
 15  6  1  0
 16 14  1  0
 17 16  2  0
 18 19  1  0
 20 19  1  6
 20 21  1  0
 21 16  1  0
 22 20  1  0
 22 24  1  0
 23 22  2  0
M  END
$$$$
