DQS.pdb
     RDKit          3D

 24 23  0  0  1  0  0  0  0  0999 V2000
   14.9621  -12.2277  -13.0367 N   0  0  0  0  0  0  0  0  0  0  0  0
   15.1993  -10.9642  -13.6676 C   0  0  1  0  0  0  0  0  0  0  0  0
   13.8559  -10.3560  -13.9970 C   0  0  0  0  0  0  0  0  0  0  0  0
   13.0858  -11.2152  -14.9282 C   0  0  0  0  0  0  0  0  0  0  0  0
   13.5631  -11.5050  -16.0772 O   0  0  0  0  0  0  0  0  0  0  0  0
   15.9429  -10.0199  -12.7957 C   0  0  0  0  0  0  0  0  0  0  0  0
   16.0109  -10.1591  -11.5483 O   0  0  0  0  0  0  0  0  0  0  0  0
   11.8431  -11.7520  -14.6466 O   0  0  0  0  0  0  0  0  0  0  0  0
   20.8945   -6.7072  -14.5261 N   0  0  0  0  0  0  0  0  0  0  0  0
   20.7617   -6.2788  -13.1804 C   0  0  0  0  0  0  0  0  0  0  0  0
   21.6791   -5.5225  -12.7311 O   0  0  0  0  0  0  0  0  0  0  0  0
   19.5997   -6.7016  -12.3445 C   0  0  0  0  0  0  0  0  0  0  0  0
   18.7745   -7.6522  -13.1851 C   0  0  0  0  0  0  0  0  0  0  0  0
   17.4817   -8.0421  -12.5536 C   0  0  2  0  0  0  0  0  0  0  0  0
   16.6359   -8.8864  -13.3007 N   0  0  0  0  0  0  0  0  0  0  0  0
   16.7448   -6.8006  -12.2069 C   0  0  0  0  0  0  0  0  0  0  0  0
   16.0621   -6.1583  -13.0502 O   0  0  0  0  0  0  0  0  0  0  0  0
   15.1228   -4.1710   -8.5216 O   0  0  0  0  0  0  0  0  0  0  0  0
   15.8190   -5.2982   -8.9271 C   0  0  0  0  0  0  0  0  0  0  0  0
   16.1071   -5.1372  -10.4166 C   0  0  2  0  0  0  0  0  0  0  0  0
   16.8140   -6.3224  -10.8727 N   0  0  0  0  0  0  0  0  0  0  0  0
   16.9483   -3.9380  -10.5995 C   0  0  0  0  0  0  0  0  0  0  0  0
   16.4551   -2.7953  -10.6982 O   0  0  0  0  0  0  0  0  0  0  0  0
   18.3165   -4.0698  -10.6646 O   0  0  0  0  0  0  0  0  0  0  0  0
  2  1  1  1
  2  3  1  0
  4  3  1  0
  5  4  2  0
  6  2  1  0
  7  6  2  0
  8  4  1  0
  9 10  1  0
 10 11  2  0
 10 12  1  0
 12 13  1  0
 14 13  1  6
 14 15  1  0
 15  6  1  0
 16 14  1  0
 17 16  2  0
 18 19  1  0
 20 19  1  1
 20 21  1  0
 21 16  1  0
 22 20  1  0
 22 24  1  0
 23 22  2  0
M  END
$$$$
