DQS.pdb
     RDKit          3D

 24 23  0  0  1  0  0  0  0  0999 V2000
   20.3837   -8.2314  -13.4926 N   0  0  0  0  0  0  0  0  0  0  0  0
   19.9532   -7.3467  -12.4521 C   0  0  1  0  0  0  0  0  0  0  0  0
   20.4917   -5.9706  -12.7673 C   0  0  0  0  0  0  0  0  0  0  0  0
   21.9736   -5.9461  -12.7260 C   0  0  0  0  0  0  0  0  0  0  0  0
   22.6155   -6.8948  -12.1603 O   0  0  0  0  0  0  0  0  0  0  0  0
   18.4743   -7.2616  -12.3487 C   0  0  0  0  0  0  0  0  0  0  0  0
   17.7092   -7.5794  -13.2941 O   0  0  0  0  0  0  0  0  0  0  0  0
   22.7523   -4.9417  -13.2707 O   0  0  0  0  0  0  0  0  0  0  0  0
   14.4490   -8.1167   -7.7423 N   0  0  0  0  0  0  0  0  0  0  0  0
   14.6070   -9.0062   -8.8359 C   0  0  0  0  0  0  0  0  0  0  0  0
   14.1589  -10.1852   -8.6794 O   0  0  0  0  0  0  0  0  0  0  0  0
   15.2678   -8.5684  -10.1006 C   0  0  0  0  0  0  0  0  0  0  0  0
   15.7215   -7.1399   -9.8894 C   0  0  0  0  0  0  0  0  0  0  0  0
   16.4268   -6.5554  -11.0655 C   0  0  2  0  0  0  0  0  0  0  0  0
   17.8075   -6.8158  -11.1755 N   0  0  0  0  0  0  0  0  0  0  0  0
   16.2096   -5.0867  -11.0505 C   0  0  0  0  0  0  0  0  0  0  0  0
   16.7503   -4.3291  -10.1999 O   0  0  0  0  0  0  0  0  0  0  0  0
   14.4716   -3.7171  -14.3525 O   0  0  0  0  0  0  0  0  0  0  0  0
   15.2762   -2.7871  -13.7143 C   0  0  0  0  0  0  0  0  0  0  0  0
   15.2085   -3.0842  -12.2194 C   0  0  2  0  0  0  0  0  0  0  0  0
   15.3599   -4.5178  -12.0343 N   0  0  0  0  0  0  0  0  0  0  0  0
   13.8933   -2.6399  -11.7173 C   0  0  0  0  0  0  0  0  0  0  0  0
   13.6059   -1.4304  -11.6014 O   0  0  0  0  0  0  0  0  0  0  0  0
   12.9483   -3.5755  -11.3633 O   0  0  0  0  0  0  0  0  0  0  0  0
  2  1  1  6
  2  3  1  0
  4  3  1  0
  5  4  2  0
  6  2  1  0
  7  6  2  0
  8  4  1  0
  9 10  1  0
 10 11  2  0
 10 12  1  0
 12 13  1  0
 14 13  1  1
 14 15  1  0
 15  6  1  0
 16 14  1  0
 17 16  2  0
 18 19  1  0
 20 19  1  6
 20 21  1  0
 21 16  1  0
 22 20  1  0
 22 24  1  0
 23 22  2  0
M  END
$$$$
