DQS.pdb
     RDKit          3D

 24 23  0  0  1  0  0  0  0  0999 V2000
   12.8318   -8.3996   -9.7265 N   0  0  0  0  0  0  0  0  0  0  0  0
   14.2119   -8.7715   -9.8133 C   0  0  1  0  0  0  0  0  0  0  0  0
   14.2909  -10.0651  -10.5901 C   0  0  0  0  0  0  0  0  0  0  0  0
   13.6074  -11.1693   -9.8748 C   0  0  0  0  0  0  0  0  0  0  0  0
   13.7474  -11.2992   -8.6116 O   0  0  0  0  0  0  0  0  0  0  0  0
   15.0365   -7.7522  -10.5104 C   0  0  0  0  0  0  0  0  0  0  0  0
   14.6901   -7.2293  -11.5998 O   0  0  0  0  0  0  0  0  0  0  0  0
   12.7973  -12.1096  -10.4842 O   0  0  0  0  0  0  0  0  0  0  0  0
   18.2807   -3.0324   -8.3832 N   0  0  0  0  0  0  0  0  0  0  0  0
   16.9343   -3.0305   -8.8298 C   0  0  0  0  0  0  0  0  0  0  0  0
   16.2217   -2.0367   -8.4836 O   0  0  0  0  0  0  0  0  0  0  0  0
   16.3936   -4.1445   -9.6631 C   0  0  0  0  0  0  0  0  0  0  0  0
   17.5116   -5.1506   -9.8333 C   0  0  0  0  0  0  0  0  0  0  0  0
   17.1230   -6.3486  -10.6309 C   0  0  2  0  0  0  0  0  0  0  0  0
   16.2798   -7.2871  -10.0027 N   0  0  0  0  0  0  0  0  0  0  0  0
   18.3652   -7.0314  -11.0726 C   0  0  0  0  0  0  0  0  0  0  0  0
   18.7806   -8.0963  -10.5404 O   0  0  0  0  0  0  0  0  0  0  0  0
   20.6505   -9.1271  -14.0078 O   0  0  0  0  0  0  0  0  0  0  0  0
   19.6729   -8.5418  -13.2195 C   0  0  0  0  0  0  0  0  0  0  0  0
   20.1844   -7.1612  -12.8197 C   0  0  2  0  0  0  0  0  0  0  0  0
   19.1104   -6.4598  -12.1363 N   0  0  0  0  0  0  0  0  0  0  0  0
   20.5694   -6.4359  -14.0465 C   0  0  0  0  0  0  0  0  0  0  0  0
   21.7632   -6.3028  -14.3867 O   0  0  0  0  0  0  0  0  0  0  0  0
   19.5942   -5.8861  -14.8466 O   0  0  0  0  0  0  0  0  0  0  0  0
  2  1  1  6
  2  3  1  0
  4  3  1  0
  5  4  2  0
  6  2  1  0
  7  6  2  0
  8  4  1  0
  9 10  1  0
 10 11  2  0
 10 12  1  0
 12 13  1  0
 14 13  1  1
 14 15  1  0
 15  6  1  0
 16 14  1  0
 17 16  2  0
 18 19  1  0
 20 19  1  6
 20 21  1  0
 21 16  1  0
 22 20  1  0
 22 24  1  0
 23 22  2  0
M  END
$$$$
