DQS.pdb
     RDKit          3D

 24 23  0  0  1  0  0  0  0  0999 V2000
   17.4971  -11.1584  -14.6318 N   0  0  0  0  0  0  0  0  0  0  0  0
   16.8046   -9.9275  -14.3948 C   0  0  1  0  0  0  0  0  0  0  0  0
   15.3400  -10.2521  -14.2139 C   0  0  0  0  0  0  0  0  0  0  0  0
   14.7360  -10.7505  -15.4729 C   0  0  0  0  0  0  0  0  0  0  0  0
   13.5781  -11.2901  -15.4594 O   0  0  0  0  0  0  0  0  0  0  0  0
   17.2854   -9.2256  -13.1778 C   0  0  0  0  0  0  0  0  0  0  0  0
   17.4353   -9.8079  -12.0739 O   0  0  0  0  0  0  0  0  0  0  0  0
   15.3449  -10.6776  -16.7121 O   0  0  0  0  0  0  0  0  0  0  0  0
   21.2398   -4.5109  -12.8123 N   0  0  0  0  0  0  0  0  0  0  0  0
   21.5322   -5.8891  -12.9768 C   0  0  0  0  0  0  0  0  0  0  0  0
   22.7116   -6.1796  -13.3510 O   0  0  0  0  0  0  0  0  0  0  0  0
   20.4991   -6.9355  -12.7206 C   0  0  0  0  0  0  0  0  0  0  0  0
   19.2462   -6.2167  -12.2682 C   0  0  0  0  0  0  0  0  0  0  0  0
   18.0829   -7.1223  -12.0472 C   0  0  2  0  0  0  0  0  0  0  0  0
   17.6143   -7.8430  -13.1640 N   0  0  0  0  0  0  0  0  0  0  0  0
   16.9693   -6.3148  -11.4885 C   0  0  0  0  0  0  0  0  0  0  0  0
   16.1888   -5.6408  -12.2140 O   0  0  0  0  0  0  0  0  0  0  0  0
   14.5364   -5.4246   -7.3973 O   0  0  0  0  0  0  0  0  0  0  0  0
   15.6204   -6.0617   -7.9794 C   0  0  0  0  0  0  0  0  0  0  0  0
   15.6808   -5.6076   -9.4347 C   0  0  2  0  0  0  0  0  0  0  0  0
   16.7794   -6.3047  -10.0823 N   0  0  0  0  0  0  0  0  0  0  0  0
   15.9159   -4.1504   -9.4566 C   0  0  0  0  0  0  0  0  0  0  0  0
   17.0675   -3.6681   -9.4522 O   0  0  0  0  0  0  0  0  0  0  0  0
   14.8438   -3.2883   -9.4826 O   0  0  0  0  0  0  0  0  0  0  0  0
  2  1  1  1
  2  3  1  0
  4  3  1  0
  5  4  2  0
  6  2  1  0
  7  6  2  0
  8  4  1  0
  9 10  1  0
 10 11  2  0
 10 12  1  0
 12 13  1  0
 14 13  1  6
 14 15  1  0
 15  6  1  0
 16 14  1  0
 17 16  2  0
 18 19  1  0
 20 19  1  1
 20 21  1  0
 21 16  1  0
 22 20  1  0
 22 24  1  0
 23 22  2  0
M  END
$$$$
