DQS.pdb
     RDKit          3D

 24 23  0  0  1  0  0  0  0  0999 V2000
   18.3578  -11.6668  -15.2969 N   0  0  0  0  0  0  0  0  0  0  0  0
   17.5587  -10.4979  -15.0830 C   0  0  1  0  0  0  0  0  0  0  0  0
   16.1121  -10.9322  -15.0398 C   0  0  0  0  0  0  0  0  0  0  0  0
   15.6746  -11.4899  -16.3420 C   0  0  0  0  0  0  0  0  0  0  0  0
   15.0679  -12.6132  -16.3876 O   0  0  0  0  0  0  0  0  0  0  0  0
   17.8821   -9.8090  -13.8080 C   0  0  0  0  0  0  0  0  0  0  0  0
   17.8989  -10.4044  -12.7010 O   0  0  0  0  0  0  0  0  0  0  0  0
   15.8757  -10.8713  -17.5622 O   0  0  0  0  0  0  0  0  0  0  0  0
   21.2297   -4.5998  -12.8184 N   0  0  0  0  0  0  0  0  0  0  0  0
   21.6432   -5.8400  -13.3688 C   0  0  0  0  0  0  0  0  0  0  0  0
   22.7944   -5.8680  -13.9066 O   0  0  0  0  0  0  0  0  0  0  0  0
   20.7623   -7.0437  -13.3132 C   0  0  0  0  0  0  0  0  0  0  0  0
   19.4768   -6.6185  -12.6367 C   0  0  0  0  0  0  0  0  0  0  0  0
   18.4559   -7.7017  -12.5557 C   0  0  2  0  0  0  0  0  0  0  0  0
   18.1985   -8.4253  -13.7376 N   0  0  0  0  0  0  0  0  0  0  0  0
   17.1877   -7.1047  -12.0663 C   0  0  0  0  0  0  0  0  0  0  0  0
   16.2958   -6.6718  -12.8454 O   0  0  0  0  0  0  0  0  0  0  0  0
   15.3848   -8.1013   -8.6507 O   0  0  0  0  0  0  0  0  0  0  0  0
   15.7142   -6.7558   -8.6251 C   0  0  0  0  0  0  0  0  0  0  0  0
   15.8599   -6.3007  -10.0740 C   0  0  2  0  0  0  0  0  0  0  0  0
   16.9751   -7.0206  -10.6658 N   0  0  0  0  0  0  0  0  0  0  0  0
   16.1276   -4.8490  -10.0796 C   0  0  0  0  0  0  0  0  0  0  0  0
   17.2098   -4.3795  -10.4883 O   0  0  0  0  0  0  0  0  0  0  0  0
   15.1650   -3.9776   -9.6238 O   0  0  0  0  0  0  0  0  0  0  0  0
  2  1  1  1
  2  3  1  0
  4  3  1  0
  5  4  2  0
  6  2  1  0
  7  6  2  0
  8  4  1  0
  9 10  1  0
 10 11  2  0
 10 12  1  0
 12 13  1  0
 14 13  1  6
 14 15  1  0
 15  6  1  0
 16 14  1  0
 17 16  2  0
 18 19  1  0
 20 19  1  1
 20 21  1  0
 21 16  1  0
 22 20  1  0
 22 24  1  0
 23 22  2  0
M  END
$$$$
