DQS.pdb
     RDKit          3D

 24 23  0  0  1  0  0  0  0  0999 V2000
   17.8837  -12.3733  -17.5006 N   0  0  0  0  0  0  0  0  0  0  0  0
   17.6842  -11.7223  -16.2408 C   0  0  1  0  0  0  0  0  0  0  0  0
   18.4486  -12.5009  -15.1955 C   0  0  0  0  0  0  0  0  0  0  0  0
   17.8750  -13.8541  -15.0008 C   0  0  0  0  0  0  0  0  0  0  0  0
   16.6297  -13.9935  -14.7521 O   0  0  0  0  0  0  0  0  0  0  0  0
   18.1749  -10.3208  -16.2368 C   0  0  0  0  0  0  0  0  0  0  0  0
   19.2319   -9.9709  -16.8205 O   0  0  0  0  0  0  0  0  0  0  0  0
   18.6040  -15.0271  -15.0686 O   0  0  0  0  0  0  0  0  0  0  0  0
   14.7405   -5.1927  -14.9884 N   0  0  0  0  0  0  0  0  0  0  0  0
   15.9983   -4.6197  -15.3074 C   0  0  0  0  0  0  0  0  0  0  0  0
   16.0458   -3.3512  -15.3711 O   0  0  0  0  0  0  0  0  0  0  0  0
   17.1977   -5.4734  -15.5537 C   0  0  0  0  0  0  0  0  0  0  0  0
   16.7517   -6.9126  -15.4088 C   0  0  0  0  0  0  0  0  0  0  0  0
   17.8463   -7.9027  -15.6182 C   0  0  2  0  0  0  0  0  0  0  0  0
   17.4903   -9.2657  -15.5751 N   0  0  0  0  0  0  0  0  0  0  0  0
   18.9016   -7.6445  -14.6064 C   0  0  0  0  0  0  0  0  0  0  0  0
   18.7775   -7.9755  -13.3961 O   0  0  0  0  0  0  0  0  0  0  0  0
   22.4154   -8.7735  -13.8502 O   0  0  0  0  0  0  0  0  0  0  0  0
   22.3924   -7.6267  -14.6274 C   0  0  0  0  0  0  0  0  0  0  0  0
   21.2258   -6.7745  -14.1372 C   0  0  2  0  0  0  0  0  0  0  0  0
   20.0955   -7.0002  -15.0226 N   0  0  0  0  0  0  0  0  0  0  0  0
   21.6357   -5.3570  -14.1824 C   0  0  0  0  0  0  0  0  0  0  0  0
   22.4946   -4.8938  -13.4037 O   0  0  0  0  0  0  0  0  0  0  0  0
   21.0622   -4.5117  -15.1044 O   0  0  0  0  0  0  0  0  0  0  0  0
  2  1  1  6
  2  3  1  0
  4  3  1  0
  5  4  2  0
  6  2  1  0
  7  6  2  0
  8  4  1  0
  9 10  1  0
 10 11  2  0
 10 12  1  0
 12 13  1  0
 14 13  1  1
 14 15  1  0
 15  6  1  0
 16 14  1  0
 17 16  2  0
 18 19  1  0
 20 19  1  6
 20 21  1  0
 21 16  1  0
 22 20  1  0
 22 24  1  0
 23 22  2  0
M  END
$$$$
