DQS.pdb
     RDKit          3D

 24 23  0  0  1  0  0  0  0  0999 V2000
   25.2812  -11.3715  -16.6646 N   0  0  0  0  0  0  0  0  0  0  0  0
   25.9302  -10.1128  -16.8774 C   0  0  1  0  0  0  0  0  0  0  0  0
   25.4756   -9.1716  -15.7863 C   0  0  0  0  0  0  0  0  0  0  0  0
   24.0546   -8.7861  -15.9605 C   0  0  0  0  0  0  0  0  0  0  0  0
   23.4275   -9.1107  -17.0252 O   0  0  0  0  0  0  0  0  0  0  0  0
   27.4105  -10.2160  -16.8241 C   0  0  0  0  0  0  0  0  0  0  0  0
   28.0114  -10.9080  -15.9637 O   0  0  0  0  0  0  0  0  0  0  0  0
   23.3197   -8.0756  -15.0294 O   0  0  0  0  0  0  0  0  0  0  0  0
   32.1905  -11.9992  -17.9343 N   0  0  0  0  0  0  0  0  0  0  0  0
   31.0010  -12.7104  -18.2365 C   0  0  0  0  0  0  0  0  0  0  0  0
   31.0080  -13.9585  -17.9963 O   0  0  0  0  0  0  0  0  0  0  0  0
   29.8085  -12.0175  -18.8072 C   0  0  0  0  0  0  0  0  0  0  0  0
   30.1719  -10.5543  -18.9429 C   0  0  0  0  0  0  0  0  0  0  0  0
   29.6613   -9.7047  -17.8294 C   0  0  2  0  0  0  0  0  0  0  0  0
   28.2641   -9.5428  -17.7396 N   0  0  0  0  0  0  0  0  0  0  0  0
   30.2987   -8.3683  -17.9394 C   0  0  0  0  0  0  0  0  0  0  0  0
   29.8197   -7.4441  -18.6509 O   0  0  0  0  0  0  0  0  0  0  0  0
   32.8319   -6.9524  -14.9808 O   0  0  0  0  0  0  0  0  0  0  0  0
   33.3625   -6.9328  -16.2606 C   0  0  0  0  0  0  0  0  0  0  0  0
   32.1895   -6.8504  -17.2326 C   0  0  2  0  0  0  0  0  0  0  0  0
   31.4932   -8.1260  -17.2128 N   0  0  0  0  0  0  0  0  0  0  0  0
   32.7235   -6.5802  -18.5821 C   0  0  0  0  0  0  0  0  0  0  0  0
   33.1081   -7.4987  -19.3352 O   0  0  0  0  0  0  0  0  0  0  0  0
   32.8050   -5.2833  -19.0348 O   0  0  0  0  0  0  0  0  0  0  0  0
  2  1  1  1
  2  3  1  0
  4  3  1  0
  5  4  2  0
  6  2  1  0
  7  6  2  0
  8  4  1  0
  9 10  1  0
 10 11  2  0
 10 12  1  0
 12 13  1  0
 14 13  1  6
 14 15  1  0
 15  6  1  0
 16 14  1  0
 17 16  2  0
 18 19  1  0
 20 19  1  1
 20 21  1  0
 21 16  1  0
 22 20  1  0
 22 24  1  0
 23 22  2  0
M  END
$$$$
