DQS.pdb
     RDKit          3D

 24 23  0  0  1  0  0  0  0  0999 V2000
   13.6024  -13.0137  -14.6853 N   0  0  0  0  0  0  0  0  0  0  0  0
   14.0588  -11.8029  -14.0718 C   0  0  1  0  0  0  0  0  0  0  0  0
   14.2560  -12.0802  -12.5997 C   0  0  0  0  0  0  0  0  0  0  0  0
   12.9753  -12.4243  -11.9367 C   0  0  0  0  0  0  0  0  0  0  0  0
   11.9204  -11.7494  -12.1892 O   0  0  0  0  0  0  0  0  0  0  0  0
   15.3455  -11.3244  -14.6377 C   0  0  0  0  0  0  0  0  0  0  0  0
   16.2911  -12.1017  -14.9237 O   0  0  0  0  0  0  0  0  0  0  0  0
   12.8192  -13.4570  -11.0306 O   0  0  0  0  0  0  0  0  0  0  0  0
   15.8921   -6.8342  -18.7331 N   0  0  0  0  0  0  0  0  0  0  0  0
   17.2638   -7.1389  -18.5387 C   0  0  0  0  0  0  0  0  0  0  0  0
   18.0876   -6.5835  -19.3313 O   0  0  0  0  0  0  0  0  0  0  0  0
   17.7048   -8.0660  -17.4554 C   0  0  0  0  0  0  0  0  0  0  0  0
   16.4553   -8.5382  -16.7433 C   0  0  0  0  0  0  0  0  0  0  0  0
   16.7280   -9.4522  -15.5977 C   0  0  2  0  0  0  0  0  0  0  0  0
   15.6098   -9.9531  -14.9011 N   0  0  0  0  0  0  0  0  0  0  0  0
   17.6167   -8.7429  -14.6431 C   0  0  0  0  0  0  0  0  0  0  0  0
   17.1786   -7.9367  -13.7783 O   0  0  0  0  0  0  0  0  0  0  0  0
   22.2428   -8.3170  -13.2492 O   0  0  0  0  0  0  0  0  0  0  0  0
   21.3562   -8.9053  -14.1365 C   0  0  0  0  0  0  0  0  0  0  0  0
   19.9762   -8.3234  -13.8457 C   0  0  2  0  0  0  0  0  0  0  0  0
   19.0132   -8.9854  -14.7099 N   0  0  0  0  0  0  0  0  0  0  0  0
   20.0126   -6.8762  -14.1349 C   0  0  0  0  0  0  0  0  0  0  0  0
   19.8861   -6.4321  -15.2948 O   0  0  0  0  0  0  0  0  0  0  0  0
   20.1905   -5.9807  -13.1053 O   0  0  0  0  0  0  0  0  0  0  0  0
  2  1  1  6
  2  3  1  0
  4  3  1  0
  5  4  2  0
  6  2  1  0
  7  6  2  0
  8  4  1  0
  9 10  1  0
 10 11  2  0
 10 12  1  0
 12 13  1  0
 14 13  1  6
 14 15  1  0
 15  6  1  0
 16 14  1  0
 17 16  2  0
 18 19  1  0
 20 19  1  6
 20 21  1  0
 21 16  1  0
 22 20  1  0
 22 24  1  0
 23 22  2  0
M  END
$$$$
