DQS.pdb
     RDKit          3D

 24 23  0  0  1  0  0  0  0  0999 V2000
   15.0856  -12.7690  -14.8961 N   0  0  0  0  0  0  0  0  0  0  0  0
   15.9452  -12.3207  -13.8422 C   0  0  1  0  0  0  0  0  0  0  0  0
   17.3503  -12.7659  -14.1748 C   0  0  0  0  0  0  0  0  0  0  0  0
   17.4752  -14.2427  -14.1320 C   0  0  0  0  0  0  0  0  0  0  0  0
   18.2070  -14.8497  -14.9853 O   0  0  0  0  0  0  0  0  0  0  0  0
   15.9424  -10.8435  -13.6908 C   0  0  0  0  0  0  0  0  0  0  0  0
   15.6800  -10.0650  -14.6422 O   0  0  0  0  0  0  0  0  0  0  0  0
   16.8406  -15.0523  -13.2081 O   0  0  0  0  0  0  0  0  0  0  0  0
   15.4025   -7.6779   -8.2470 N   0  0  0  0  0  0  0  0  0  0  0  0
   14.2868   -8.2246   -8.9316 C   0  0  0  0  0  0  0  0  0  0  0  0
   13.2232   -8.3793   -8.2532 O   0  0  0  0  0  0  0  0  0  0  0  0
   14.3701   -8.5956  -10.3749 C   0  0  0  0  0  0  0  0  0  0  0  0
   15.8140   -8.4185  -10.7931 C   0  0  0  0  0  0  0  0  0  0  0  0
   16.0818   -8.8162  -12.2046 C   0  0  2  0  0  0  0  0  0  0  0  0
   16.2348  -10.1936  -12.4612 N   0  0  0  0  0  0  0  0  0  0  0  0
   17.2984   -8.0991  -12.6630 C   0  0  0  0  0  0  0  0  0  0  0  0
   18.4396   -8.6351  -12.6721 O   0  0  0  0  0  0  0  0  0  0  0  0
   19.7391   -6.2039  -15.5762 O   0  0  0  0  0  0  0  0  0  0  0  0
   18.7225   -6.9042  -14.9471 C   0  0  0  0  0  0  0  0  0  0  0  0
   18.2301   -6.0400  -13.7902 C   0  0  2  0  0  0  0  0  0  0  0  0
   17.1665   -6.7582  -13.1081 N   0  0  0  0  0  0  0  0  0  0  0  0
   17.7171   -4.7716  -14.3444 C   0  0  0  0  0  0  0  0  0  0  0  0
   16.5128   -4.6185  -14.6359 O   0  0  0  0  0  0  0  0  0  0  0  0
   18.5806   -3.7201  -14.5504 O   0  0  0  0  0  0  0  0  0  0  0  0
  2  1  1  6
  2  3  1  0
  4  3  1  0
  5  4  2  0
  6  2  1  0
  7  6  2  0
  8  4  1  0
  9 10  1  0
 10 11  2  0
 10 12  1  0
 12 13  1  0
 14 13  1  1
 14 15  1  0
 15  6  1  0
 16 14  1  0
 17 16  2  0
 18 19  1  0
 20 19  1  6
 20 21  1  0
 21 16  1  0
 22 20  1  0
 22 24  1  0
 23 22  2  0
M  END
$$$$
