DQS.pdb
     RDKit          3D

 24 23  0  0  1  0  0  0  0  0999 V2000
   18.8291  -12.4539  -16.2337 N   0  0  0  0  0  0  0  0  0  0  0  0
   18.5219  -11.0932  -16.5572 C   0  0  1  0  0  0  0  0  0  0  0  0
   17.0925  -10.8339  -16.1417 C   0  0  0  0  0  0  0  0  0  0  0  0
   16.1415  -11.6520  -16.9321 C   0  0  0  0  0  0  0  0  0  0  0  0
   16.4651  -12.0660  -18.0965 O   0  0  0  0  0  0  0  0  0  0  0  0
   19.4003  -10.1251  -15.8529 C   0  0  0  0  0  0  0  0  0  0  0  0
   19.9013  -10.3609  -14.7244 O   0  0  0  0  0  0  0  0  0  0  0  0
   14.8816  -12.0203  -16.4975 O   0  0  0  0  0  0  0  0  0  0  0  0
   24.6367   -8.6696  -15.4107 N   0  0  0  0  0  0  0  0  0  0  0  0
   23.9916   -9.2822  -16.5155 C   0  0  0  0  0  0  0  0  0  0  0  0
   24.7175  -10.0029  -17.2699 O   0  0  0  0  0  0  0  0  0  0  0  0
   22.5342   -9.0831  -16.7689 C   0  0  0  0  0  0  0  0  0  0  0  0
   22.0094   -8.2024  -15.6552 C   0  0  0  0  0  0  0  0  0  0  0  0
   20.5565   -7.8902  -15.7728 C   0  0  2  0  0  0  0  0  0  0  0  0
   19.7445   -8.8582  -16.3973 N   0  0  0  0  0  0  0  0  0  0  0  0
   20.4188   -6.6012  -16.4965 C   0  0  0  0  0  0  0  0  0  0  0  0
   20.1713   -6.5388  -17.7313 O   0  0  0  0  0  0  0  0  0  0  0  0
   18.7566   -2.5634  -17.0669 O   0  0  0  0  0  0  0  0  0  0  0  0
   18.9088   -3.8619  -16.6081 C   0  0  0  0  0  0  0  0  0  0  0  0
   20.3982   -4.0794  -16.3593 C   0  0  2  0  0  0  0  0  0  0  0  0
   20.5718   -5.3946  -15.7656 N   0  0  0  0  0  0  0  0  0  0  0  0
   20.8712   -3.0330  -15.4316 C   0  0  0  0  0  0  0  0  0  0  0  0
   21.1968   -3.2932  -14.2547 O   0  0  0  0  0  0  0  0  0  0  0  0
   20.9603   -1.7297  -15.8639 O   0  0  0  0  0  0  0  0  0  0  0  0
  2  1  1  1
  2  3  1  0
  4  3  1  0
  5  4  2  0
  6  2  1  0
  7  6  2  0
  8  4  1  0
  9 10  1  0
 10 11  2  0
 10 12  1  0
 12 13  1  0
 14 13  1  6
 14 15  1  0
 15  6  1  0
 16 14  1  0
 17 16  2  0
 18 19  1  0
 20 19  1  1
 20 21  1  0
 21 16  1  0
 22 20  1  0
 22 24  1  0
 23 22  2  0
M  END
$$$$
