DLT.pdb
     RDKit          3D

 24 23  0  0  1  0  0  0  0  0999 V2000
   28.1724  -22.4802  -16.4781 N   0  0  0  0  0  0  0  0  0  0  0  0
   27.8027  -21.2608  -15.8355 C   0  0  1  0  0  0  0  0  0  0  0  0
   27.2597  -20.2251  -16.7938 C   0  0  0  0  0  0  0  0  0  0  0  0
   28.3696  -19.5528  -17.5188 C   0  0  0  0  0  0  0  0  0  0  0  0
   29.0709  -20.1982  -18.3247 O   0  0  0  0  0  0  0  0  0  0  0  0
   26.7560  -21.5359  -14.8311 C   0  0  0  0  0  0  0  0  0  0  0  0
   25.8678  -22.3715  -15.0342 O   0  0  0  0  0  0  0  0  0  0  0  0
   28.6804  -18.2065  -17.3456 O   0  0  0  0  0  0  0  0  0  0  0  0
   25.8705  -20.0633   -8.8629 C   0  0  0  0  0  0  0  0  0  0  0  0
   25.3146  -20.5943  -10.1530 C   0  0  2  0  0  0  0  0  0  0  0  0
   24.6130  -21.9390   -9.8819 C   0  0  0  0  0  0  0  0  0  0  0  0
   26.2894  -20.8439  -11.2356 C   0  0  0  0  0  0  0  0  0  0  0  0
   25.7784  -21.0946  -12.6108 C   0  0  2  0  0  0  0  0  0  0  0  0
   26.7760  -20.8212  -13.6067 N   0  0  0  0  0  0  0  0  0  0  0  0
   24.5391  -20.3832  -12.9261 C   0  0  0  0  0  0  0  0  0  0  0  0
   24.5246  -19.1414  -13.0101 O   0  0  0  0  0  0  0  0  0  0  0  0
   22.8784  -20.2551  -15.7966 C   0  0  0  0  0  0  0  0  0  0  0  0
   21.7876  -20.8321  -14.9199 C   0  0  1  0  0  0  0  0  0  0  0  0
   21.8748  -22.2200  -15.0114 O   0  0  0  0  0  0  0  0  0  0  0  0
   22.0847  -20.4659  -13.4744 C   0  0  2  0  0  0  0  0  0  0  0  0
   23.3480  -21.1076  -13.1375 N   0  0  0  0  0  0  0  0  0  0  0  0
   21.0066  -20.8954  -12.5564 C   0  0  0  0  0  0  0  0  0  0  0  0
   19.7801  -20.2805  -12.4478 O   0  0  0  0  0  0  0  0  0  0  0  0
   21.2380  -21.8948  -11.8278 O   0  0  0  0  0  0  0  0  0  0  0  0
  2  1  1  6
  2  3  1  0
  3  4  1  0
  4  8  1  0
  5  4  2  0
  6 14  1  0
  6  2  1  0
  7  6  2  0
 10  9  1  1
 10 12  1  0
 11 10  1  0
 13 12  1  1
 13 14  1  0
 15 16  2  0
 15 13  1  0
 18 17  1  6
 19 18  1  0
 20 18  1  0
 20 21  1  1
 21 15  1  0
 22 20  1  0
 23 22  1  0
 24 22  2  0
M  END
$$$$
