DLT.pdb
     RDKit          3D

 24 23  0  0  1  0  0  0  0  0999 V2000
   22.3503  -21.6035  -14.7176 N   0  0  0  0  0  0  0  0  0  0  0  0
   22.0558  -20.2108  -14.6172 C   0  0  1  0  0  0  0  0  0  0  0  0
   20.9052  -19.9126  -13.6828 C   0  0  0  0  0  0  0  0  0  0  0  0
   19.6960  -20.6784  -14.0836 C   0  0  0  0  0  0  0  0  0  0  0  0
   18.9437  -21.1597  -13.2117 O   0  0  0  0  0  0  0  0  0  0  0  0
   23.2437  -19.4959  -14.1093 C   0  0  0  0  0  0  0  0  0  0  0  0
   23.2223  -18.2795  -13.8901 O   0  0  0  0  0  0  0  0  0  0  0  0
   19.3445  -20.8959  -15.4134 O   0  0  0  0  0  0  0  0  0  0  0  0
   23.7892  -20.8355  -10.8695 C   0  0  0  0  0  0  0  0  0  0  0  0
   25.1473  -21.1766  -11.4122 C   0  0  2  0  0  0  0  0  0  0  0  0
   26.0028  -21.7802  -10.2818 C   0  0  0  0  0  0  0  0  0  0  0  0
   25.9307  -20.0567  -11.9749 C   0  0  0  0  0  0  0  0  0  0  0  0
   25.5832  -19.5552  -13.3325 C   0  0  2  0  0  0  0  0  0  0  0  0
   24.4341  -20.2280  -13.8696 N   0  0  0  0  0  0  0  0  0  0  0  0
   26.6906  -19.6021  -14.2878 C   0  0  0  0  0  0  0  0  0  0  0  0
   27.7954  -19.1047  -14.0028 O   0  0  0  0  0  0  0  0  0  0  0  0
   28.6898  -22.0177  -15.6180 C   0  0  0  0  0  0  0  0  0  0  0  0
   27.9956  -21.5264  -16.8703 C   0  0  1  0  0  0  0  0  0  0  0  0
   26.8753  -22.3322  -17.0649 O   0  0  0  0  0  0  0  0  0  0  0  0
   27.4862  -20.1161  -16.6191 C   0  0  2  0  0  0  0  0  0  0  0  0
   26.5085  -20.2159  -15.5442 N   0  0  0  0  0  0  0  0  0  0  0  0
   26.8872  -19.5143  -17.8309 C   0  0  0  0  0  0  0  0  0  0  0  0
   27.5485  -19.3361  -19.0247 O   0  0  0  0  0  0  0  0  0  0  0  0
   25.6876  -19.1425  -17.7536 O   0  0  0  0  0  0  0  0  0  0  0  0
  2  1  1  1
  2  3  1  0
  3  4  1  0
  4  8  1  0
  5  4  2  0
  6 14  1  0
  6  2  1  0
  7  6  2  0
 10  9  1  1
 10 12  1  0
 11 10  1  0
 13 12  1  1
 13 14  1  0
 15 16  2  0
 15 13  1  0
 18 17  1  1
 19 18  1  0
 20 18  1  0
 20 21  1  1
 21 15  1  0
 22 20  1  0
 23 22  1  0
 24 22  2  0
M  END
$$$$
