DLT.pdb
     RDKit          3D

 24 23  0  0  1  0  0  0  0  0999 V2000
   19.9707  -12.2634  -17.5719 N   0  0  0  0  0  0  0  0  0  0  0  0
   20.5167  -11.0613  -18.1134 C   0  0  1  0  0  0  0  0  0  0  0  0
   19.5041  -10.2417  -18.8807 C   0  0  0  0  0  0  0  0  0  0  0  0
   19.0105  -10.9959  -20.0625 C   0  0  0  0  0  0  0  0  0  0  0  0
   17.8007  -10.9578  -20.3674 O   0  0  0  0  0  0  0  0  0  0  0  0
   21.0343  -10.2218  -17.0145 C   0  0  0  0  0  0  0  0  0  0  0  0
   20.3509   -9.9697  -16.0157 O   0  0  0  0  0  0  0  0  0  0  0  0
   19.8435  -11.7642  -20.8717 O   0  0  0  0  0  0  0  0  0  0  0  0
   24.2712  -11.1724  -14.3134 C   0  0  0  0  0  0  0  0  0  0  0  0
   24.7981  -10.5345  -15.5667 C   0  0  2  0  0  0  0  0  0  0  0  0
   26.3357  -10.4719  -15.4902 C   0  0  0  0  0  0  0  0  0  0  0  0
   24.3385   -9.1580  -15.8470 C   0  0  0  0  0  0  0  0  0  0  0  0
   22.8815   -8.9169  -16.0321 C   0  0  2  0  0  0  0  0  0  0  0  0
   22.3471   -9.6954  -17.1138 N   0  0  0  0  0  0  0  0  0  0  0  0
   22.5260   -7.5072  -16.1983 C   0  0  0  0  0  0  0  0  0  0  0  0
   22.6880   -6.9372  -17.2928 O   0  0  0  0  0  0  0  0  0  0  0  0
   19.7142   -3.8535  -14.9061 C   0  0  0  0  0  0  0  0  0  0  0  0
   20.1272   -5.3091  -14.9549 C   0  0  1  0  0  0  0  0  0  0  0  0
   19.5063   -5.8777  -16.0655 O   0  0  0  0  0  0  0  0  0  0  0  0
   21.6255   -5.3784  -15.2037 C   0  0  2  0  0  0  0  0  0  0  0  0
   21.9947   -6.7842  -15.1105 N   0  0  0  0  0  0  0  0  0  0  0  0
   22.3908   -4.5606  -14.2368 C   0  0  0  0  0  0  0  0  0  0  0  0
   22.8189   -3.2730  -14.4671 O   0  0  0  0  0  0  0  0  0  0  0  0
   22.6643   -5.0895  -13.1283 O   0  0  0  0  0  0  0  0  0  0  0  0
  2  1  1  1
  2  3  1  0
  3  4  1  0
  4  8  1  0
  5  4  2  0
  6 14  1  0
  6  2  1  0
  7  6  2  0
 10  9  1  1
 10 12  1  0
 11 10  1  0
 13 12  1  6
 13 14  1  0
 15 16  2  0
 15 13  1  0
 18 17  1  6
 19 18  1  0
 20 18  1  0
 20 21  1  1
 21 15  1  0
 22 20  1  0
 23 22  1  0
 24 22  2  0
M  END
$$$$
