DLT.pdb
     RDKit          3D

 24 23  0  0  1  0  0  0  0  0999 V2000
   21.8654  -13.5436  -16.8944 N   0  0  0  0  0  0  0  0  0  0  0  0
   21.6969  -12.2154  -17.3882 C   0  0  1  0  0  0  0  0  0  0  0  0
   20.2463  -11.8229  -17.5547 C   0  0  0  0  0  0  0  0  0  0  0  0
   19.5905  -12.6739  -18.5818 C   0  0  0  0  0  0  0  0  0  0  0  0
   20.2369  -13.0637  -19.5759 O   0  0  0  0  0  0  0  0  0  0  0  0
   22.3148  -11.2618  -16.4452 C   0  0  0  0  0  0  0  0  0  0  0  0
   21.9857  -11.2242  -15.2542 O   0  0  0  0  0  0  0  0  0  0  0  0
   18.2590  -13.0724  -18.4964 O   0  0  0  0  0  0  0  0  0  0  0  0
   26.0852  -11.3603  -14.7274 C   0  0  0  0  0  0  0  0  0  0  0  0
   26.1169  -10.6579  -16.0544 C   0  0  2  0  0  0  0  0  0  0  0  0
   27.5792  -10.3350  -16.4170 C   0  0  0  0  0  0  0  0  0  0  0  0
   25.3749   -9.3826  -16.1411 C   0  0  0  0  0  0  0  0  0  0  0  0
   23.8911   -9.4123  -16.0276 C   0  0  2  0  0  0  0  0  0  0  0  0
   23.3086  -10.3709  -16.9239 N   0  0  0  0  0  0  0  0  0  0  0  0
   23.2532   -8.1064  -16.1975 C   0  0  0  0  0  0  0  0  0  0  0  0
   23.2883   -7.5216  -17.2957 O   0  0  0  0  0  0  0  0  0  0  0  0
   20.1377   -7.1282  -16.4999 C   0  0  0  0  0  0  0  0  0  0  0  0
   20.4874   -6.3848  -15.2284 C   0  0  1  0  0  0  0  0  0  0  0  0
   20.1671   -7.2202  -14.1599 O   0  0  0  0  0  0  0  0  0  0  0  0
   21.9930   -6.1760  -15.1890 C   0  0  2  0  0  0  0  0  0  0  0  0
   22.5914   -7.5014  -15.1092 N   0  0  0  0  0  0  0  0  0  0  0  0
   22.4102   -5.3326  -14.0471 C   0  0  0  0  0  0  0  0  0  0  0  0
   22.1816   -3.9789  -13.9493 O   0  0  0  0  0  0  0  0  0  0  0  0
   23.0165   -5.9035  -13.1037 O   0  0  0  0  0  0  0  0  0  0  0  0
  2  1  1  1
  2  3  1  0
  3  4  1  0
  4  8  1  0
  5  4  2  0
  6 14  1  0
  6  2  1  0
  7  6  2  0
 10  9  1  1
 10 12  1  0
 11 10  1  0
 13 12  1  6
 13 14  1  0
 15 16  2  0
 15 13  1  0
 18 17  1  6
 19 18  1  0
 20 18  1  0
 20 21  1  1
 21 15  1  0
 22 20  1  0
 23 22  1  0
 24 22  2  0
M  END
$$$$
