DLT.pdb
     RDKit          3D

 24 23  0  0  1  0  0  0  0  0999 V2000
   19.5567  -21.5946   -7.5153 N   0  0  0  0  0  0  0  0  0  0  0  0
   20.6287  -22.4096   -7.9874 C   0  0  1  0  0  0  0  0  0  0  0  0
   20.1956  -23.4165   -9.0288 C   0  0  0  0  0  0  0  0  0  0  0  0
   19.2729  -24.4182   -8.4334 C   0  0  0  0  0  0  0  0  0  0  0  0
   18.2567  -24.7819   -9.0603 O   0  0  0  0  0  0  0  0  0  0  0  0
   21.6636  -21.5504   -8.5966 C   0  0  0  0  0  0  0  0  0  0  0  0
   21.3712  -20.6483   -9.3897 O   0  0  0  0  0  0  0  0  0  0  0  0
   19.4830  -24.9903   -7.1814 O   0  0  0  0  0  0  0  0  0  0  0  0
   27.7151  -20.2821   -7.7498 C   0  0  0  0  0  0  0  0  0  0  0  0
   26.4136  -20.0922   -8.4746 C   0  0  2  0  0  0  0  0  0  0  0  0
   25.9476  -18.6344   -8.2966 C   0  0  0  0  0  0  0  0  0  0  0  0
   25.2880  -20.9454   -8.0393 C   0  0  0  0  0  0  0  0  0  0  0  0
   24.0415  -20.9506   -8.8527 C   0  0  2  0  0  0  0  0  0  0  0  0
   23.0231  -21.7706   -8.2594 N   0  0  0  0  0  0  0  0  0  0  0  0
   24.2437  -21.3266  -10.2524 C   0  0  0  0  0  0  0  0  0  0  0  0
   24.5491  -22.4940  -10.5576 O   0  0  0  0  0  0  0  0  0  0  0  0
   22.4399  -22.3201  -12.6100 C   0  0  0  0  0  0  0  0  0  0  0  0
   22.8852  -21.0082  -13.2202 C   0  0  1  0  0  0  0  0  0  0  0  0
   22.0161  -20.0215  -12.7582 O   0  0  0  0  0  0  0  0  0  0  0  0
   24.2654  -20.6679  -12.6808 C   0  0  2  0  0  0  0  0  0  0  0  0
   24.0919  -20.3601  -11.2679 N   0  0  0  0  0  0  0  0  0  0  0  0
   24.8829  -19.5331  -13.4022 C   0  0  0  0  0  0  0  0  0  0  0  0
   25.1331  -18.2977  -12.8496 O   0  0  0  0  0  0  0  0  0  0  0  0
   25.1978  -19.7217  -14.6058 O   0  0  0  0  0  0  0  0  0  0  0  0
  2  1  1  6
  2  3  1  0
  3  4  1  0
  4  8  1  0
  5  4  2  0
  6 14  1  0
  6  2  1  0
  7  6  2  0
 10  9  1  1
 10 12  1  0
 11 10  1  0
 13 12  1  1
 13 14  1  0
 15 16  2  0
 15 13  1  0
 18 17  1  1
 19 18  1  0
 20 18  1  0
 20 21  1  1
 21 15  1  0
 22 20  1  0
 23 22  1  0
 24 22  2  0
M  END
$$$$
