DLT.pdb
     RDKit          3D

 24 23  0  0  1  0  0  0  0  0999 V2000
   26.0949  -15.0636  -20.7940 N   0  0  0  0  0  0  0  0  0  0  0  0
   25.7100  -13.7016  -20.9759 C   0  0  1  0  0  0  0  0  0  0  0  0
   24.2158  -13.5203  -21.1185 C   0  0  0  0  0  0  0  0  0  0  0  0
   23.7131  -14.2524  -22.3104 C   0  0  0  0  0  0  0  0  0  0  0  0
   22.5361  -14.6669  -22.3387 O   0  0  0  0  0  0  0  0  0  0  0  0
   26.1492  -12.9101  -19.8093 C   0  0  0  0  0  0  0  0  0  0  0  0
   25.8264  -11.7246  -19.6731 O   0  0  0  0  0  0  0  0  0  0  0  0
   24.5021  -14.5096  -23.4286 O   0  0  0  0  0  0  0  0  0  0  0  0
   24.7186  -13.1321  -15.9082 C   0  0  0  0  0  0  0  0  0  0  0  0
   25.8189  -14.1308  -16.1255 C   0  0  2  0  0  0  0  0  0  0  0  0
   25.9684  -14.9968  -14.8599 C   0  0  0  0  0  0  0  0  0  0  0  0
   27.1596  -13.5796  -16.4139 C   0  0  0  0  0  0  0  0  0  0  0  0
   27.3522  -12.7892  -17.6603 C   0  0  2  0  0  0  0  0  0  0  0  0
   26.9603  -13.5307  -18.8258 N   0  0  0  0  0  0  0  0  0  0  0  0
   28.7059  -12.2594  -17.8281 C   0  0  0  0  0  0  0  0  0  0  0  0
   29.6966  -13.0047  -17.7180 O   0  0  0  0  0  0  0  0  0  0  0  0
   30.4107  -11.1260  -20.5833 C   0  0  0  0  0  0  0  0  0  0  0  0
   30.3265   -9.8775  -19.7313 C   0  0  1  0  0  0  0  0  0  0  0  0
   29.1366   -9.2314  -20.0616 O   0  0  0  0  0  0  0  0  0  0  0  0
   30.2124  -10.2938  -18.2735 C   0  0  2  0  0  0  0  0  0  0  0  0
   28.8938  -10.8921  -18.1172 N   0  0  0  0  0  0  0  0  0  0  0  0
   30.3927   -9.1514  -17.3505 C   0  0  0  0  0  0  0  0  0  0  0  0
   31.6013   -8.5565  -17.0683 O   0  0  0  0  0  0  0  0  0  0  0  0
   29.3613   -8.6993  -16.7892 O   0  0  0  0  0  0  0  0  0  0  0  0
  2  1  1  1
  2  3  1  0
  3  4  1  0
  4  8  1  0
  5  4  2  0
  6 14  1  0
  6  2  1  0
  7  6  2  0
 10  9  1  1
 10 12  1  0
 11 10  1  0
 13 12  1  1
 13 14  1  0
 15 16  2  0
 15 13  1  0
 18 17  1  6
 19 18  1  0
 20 18  1  0
 20 21  1  6
 21 15  1  0
 22 20  1  0
 23 22  1  0
 24 22  2  0
M  END
$$$$
