DLT.pdb
     RDKit          3D

 24 23  0  0  1  0  0  0  0  0999 V2000
   16.8069  -11.0433  -16.3061 N   0  0  0  0  0  0  0  0  0  0  0  0
   16.7979   -9.6594  -15.9582 C   0  0  1  0  0  0  0  0  0  0  0  0
   15.4044   -9.0826  -15.8514 C   0  0  0  0  0  0  0  0  0  0  0  0
   14.7872   -8.9579  -17.1978 C   0  0  0  0  0  0  0  0  0  0  0  0
   15.3891   -9.3873  -18.2033 O   0  0  0  0  0  0  0  0  0  0  0  0
   17.4595   -9.4804  -14.6503 C   0  0  0  0  0  0  0  0  0  0  0  0
   17.3113  -10.2959  -13.7331 O   0  0  0  0  0  0  0  0  0  0  0  0
   13.5410   -8.3730  -17.4075 O   0  0  0  0  0  0  0  0  0  0  0  0
   22.7343   -8.2619  -12.2964 C   0  0  0  0  0  0  0  0  0  0  0  0
   21.2556   -8.0673  -12.1204 C   0  0  2  0  0  0  0  0  0  0  0  0
   20.7642   -8.9659  -10.9693 C   0  0  0  0  0  0  0  0  0  0  0  0
   20.4071   -8.3847  -13.2882 C   0  0  0  0  0  0  0  0  0  0  0  0
   18.9393   -8.1607  -13.1845 C   0  0  2  0  0  0  0  0  0  0  0  0
   18.2831   -8.3440  -14.4484 N   0  0  0  0  0  0  0  0  0  0  0  0
   18.5722   -6.8679  -12.6055 C   0  0  0  0  0  0  0  0  0  0  0  0
   19.0709   -5.8137  -13.0407 O   0  0  0  0  0  0  0  0  0  0  0  0
   15.4866   -5.4549  -12.7566 C   0  0  0  0  0  0  0  0  0  0  0  0
   15.6885   -5.4788  -11.2565 C   0  0  1  0  0  0  0  0  0  0  0  0
   15.1238   -6.6614  -10.7824 O   0  0  0  0  0  0  0  0  0  0  0  0
   17.1798   -5.5565  -10.9706 C   0  0  2  0  0  0  0  0  0  0  0  0
   17.6451   -6.8116  -11.5446 N   0  0  0  0  0  0  0  0  0  0  0  0
   17.4750   -5.4903   -9.5222 C   0  0  0  0  0  0  0  0  0  0  0  0
   17.2197   -4.4012   -8.7204 O   0  0  0  0  0  0  0  0  0  0  0  0
   17.9966   -6.5075   -8.9961 O   0  0  0  0  0  0  0  0  0  0  0  0
  2  1  1  1
  2  3  1  0
  3  4  1  0
  4  8  1  0
  5  4  2  0
  6 14  1  0
  6  2  1  0
  7  6  2  0
 10  9  1  6
 10 12  1  0
 11 10  1  0
 13 12  1  6
 13 14  1  0
 15 16  2  0
 15 13  1  0
 18 17  1  6
 19 18  1  0
 20 18  1  0
 20 21  1  1
 21 15  1  0
 22 20  1  0
 23 22  1  0
 24 22  2  0
M  END
$$$$
