DLT.pdb
     RDKit          3D

 24 23  0  0  1  0  0  0  0  0999 V2000
   20.7901  -13.0582  -16.9739 N   0  0  0  0  0  0  0  0  0  0  0  0
   20.9360  -11.7570  -17.5412 C   0  0  1  0  0  0  0  0  0  0  0  0
   19.6185  -11.1313  -17.9394 C   0  0  0  0  0  0  0  0  0  0  0  0
   18.9428  -11.9541  -18.9766 C   0  0  0  0  0  0  0  0  0  0  0  0
   17.7675  -12.3367  -18.8028 O   0  0  0  0  0  0  0  0  0  0  0  0
   21.5777  -10.8639  -16.5559 C   0  0  0  0  0  0  0  0  0  0  0  0
   21.1072  -10.7046  -15.4239 O   0  0  0  0  0  0  0  0  0  0  0  0
   19.5632  -12.3330  -20.1642 O   0  0  0  0  0  0  0  0  0  0  0  0
   25.3514  -11.1542  -14.3043 C   0  0  0  0  0  0  0  0  0  0  0  0
   25.5109  -10.6642  -15.7149 C   0  0  2  0  0  0  0  0  0  0  0  0
   27.0112  -10.4901  -16.0196 C   0  0  0  0  0  0  0  0  0  0  0  0
   24.8674   -9.3737  -16.0393 C   0  0  0  0  0  0  0  0  0  0  0  0
   23.3828   -9.2841  -15.9848 C   0  0  2  0  0  0  0  0  0  0  0  0
   22.7616  -10.1756  -16.9234 N   0  0  0  0  0  0  0  0  0  0  0  0
   22.8601   -7.9275  -16.1519 C   0  0  0  0  0  0  0  0  0  0  0  0
   22.9993   -7.3229  -17.2309 O   0  0  0  0  0  0  0  0  0  0  0  0
   19.8563   -6.7121  -16.5542 C   0  0  0  0  0  0  0  0  0  0  0  0
   20.2056   -5.9894  -15.2707 C   0  0  1  0  0  0  0  0  0  0  0  0
   19.7529   -6.7792  -14.2155 O   0  0  0  0  0  0  0  0  0  0  0  0
   21.7197   -5.9199  -15.1516 C   0  0  2  0  0  0  0  0  0  0  0  0
   22.1918   -7.2960  -15.0829 N   0  0  0  0  0  0  0  0  0  0  0  0
   22.1519   -5.1478  -13.9657 C   0  0  0  0  0  0  0  0  0  0  0  0
   22.0296   -3.7834  -13.8331 O   0  0  0  0  0  0  0  0  0  0  0  0
   22.6667   -5.7943  -13.0168 O   0  0  0  0  0  0  0  0  0  0  0  0
  2  1  1  1
  2  3  1  0
  3  4  1  0
  4  8  1  0
  5  4  2  0
  6 14  1  0
  6  2  1  0
  7  6  2  0
 10  9  1  1
 10 12  1  0
 11 10  1  0
 13 12  1  6
 13 14  1  0
 15 16  2  0
 15 13  1  0
 18 17  1  6
 19 18  1  0
 20 18  1  0
 20 21  1  1
 21 15  1  0
 22 20  1  0
 23 22  1  0
 24 22  2  0
M  END
$$$$
