DLT.pdb
     RDKit          3D

 24 23  0  0  1  0  0  0  0  0999 V2000
   17.4240  -11.3158  -16.4909 N   0  0  0  0  0  0  0  0  0  0  0  0
   18.4811  -10.5226  -17.0290 C   0  0  1  0  0  0  0  0  0  0  0  0
   17.9887   -9.3802  -17.8883 C   0  0  0  0  0  0  0  0  0  0  0  0
   17.1735   -9.8930  -19.0204 C   0  0  0  0  0  0  0  0  0  0  0  0
   17.3798  -11.0388  -19.4703 O   0  0  0  0  0  0  0  0  0  0  0  0
   19.2699   -9.9447  -15.9225 C   0  0  0  0  0  0  0  0  0  0  0  0
   18.7800   -9.7697  -14.8011 O   0  0  0  0  0  0  0  0  0  0  0  0
   16.1645   -9.1476  -19.6248 O   0  0  0  0  0  0  0  0  0  0  0  0
   22.4807  -11.8691  -16.4721 C   0  0  0  0  0  0  0  0  0  0  0  0
   23.2208  -10.7573  -15.7854 C   0  0  2  0  0  0  0  0  0  0  0  0
   24.5048  -11.3254  -15.1510 C   0  0  0  0  0  0  0  0  0  0  0  0
   22.4974  -10.0553  -14.7045 C   0  0  0  0  0  0  0  0  0  0  0  0
   21.4228   -9.0939  -15.0736 C   0  0  2  0  0  0  0  0  0  0  0  0
   20.6207   -9.5842  -16.1588 N   0  0  0  0  0  0  0  0  0  0  0  0
   21.9050   -7.7442  -15.3692 C   0  0  0  0  0  0  0  0  0  0  0  0
   22.6971   -7.5455  -16.3086 O   0  0  0  0  0  0  0  0  0  0  0  0
   20.2635   -5.0620  -16.6206 C   0  0  0  0  0  0  0  0  0  0  0  0
   20.7053   -4.5079  -15.2829 C   0  0  1  0  0  0  0  0  0  0  0  0
   19.6830   -4.7646  -14.3712 O   0  0  0  0  0  0  0  0  0  0  0  0
   21.9216   -5.2902  -14.8135 C   0  0  2  0  0  0  0  0  0  0  0  0
   21.4707   -6.6560  -14.5848 N   0  0  0  0  0  0  0  0  0  0  0  0
   22.5183   -4.7131  -13.5885 C   0  0  0  0  0  0  0  0  0  0  0  0
   23.2200   -3.5301  -13.5423 O   0  0  0  0  0  0  0  0  0  0  0  0
   22.3675   -5.3580  -12.5185 O   0  0  0  0  0  0  0  0  0  0  0  0
  2  1  1  1
  2  3  1  0
  3  4  1  0
  4  8  1  0
  5  4  2  0
  6 14  1  0
  6  2  1  0
  7  6  2  0
 10  9  1  1
 10 12  1  0
 11 10  1  0
 13 12  1  6
 13 14  1  0
 15 16  2  0
 15 13  1  0
 18 17  1  6
 19 18  1  0
 20 18  1  0
 20 21  1  1
 21 15  1  0
 22 20  1  0
 23 22  1  0
 24 22  2  0
M  END
$$$$
