DLT.pdb
     RDKit          3D

 24 23  0  0  1  0  0  0  0  0999 V2000
   18.5030  -11.8361  -18.0112 N   0  0  0  0  0  0  0  0  0  0  0  0
   19.3789  -10.7605  -18.3462 C   0  0  1  0  0  0  0  0  0  0  0  0
   18.8990   -9.9495  -19.5285 C   0  0  0  0  0  0  0  0  0  0  0  0
   18.8293  -10.7964  -20.7480 C   0  0  0  0  0  0  0  0  0  0  0  0
   17.8907  -10.6500  -21.5576 O   0  0  0  0  0  0  0  0  0  0  0  0
   19.4942   -9.8470  -17.1919 C   0  0  0  0  0  0  0  0  0  0  0  0
   18.5213   -9.5818  -16.4768 O   0  0  0  0  0  0  0  0  0  0  0  0
   19.7775  -11.7711  -21.0474 O   0  0  0  0  0  0  0  0  0  0  0  0
   21.3143   -9.6686  -12.9631 C   0  0  0  0  0  0  0  0  0  0  0  0
   22.2183   -9.6574  -14.1622 C   0  0  2  0  0  0  0  0  0  0  0  0
   23.6832   -9.7089  -13.6874 C   0  0  0  0  0  0  0  0  0  0  0  0
   22.1110   -8.4849  -15.0557 C   0  0  0  0  0  0  0  0  0  0  0  0
   20.8612   -8.3007  -15.8427 C   0  0  2  0  0  0  0  0  0  0  0  0
   20.7537   -9.2635  -16.9025 N   0  0  0  0  0  0  0  0  0  0  0  0
   20.6803   -6.9468  -16.3676 C   0  0  0  0  0  0  0  0  0  0  0  0
   21.5872   -6.3909  -17.0139 O   0  0  0  0  0  0  0  0  0  0  0  0
   18.6822   -5.8018  -18.8537 C   0  0  0  0  0  0  0  0  0  0  0  0
   18.1375   -5.0172  -17.6793 C   0  0  1  0  0  0  0  0  0  0  0  0
   17.1064   -5.7709  -17.1215 O   0  0  0  0  0  0  0  0  0  0  0  0
   19.2260   -4.9093  -16.6233 C   0  0  2  0  0  0  0  0  0  0  0  0
   19.4687   -6.2620  -16.1411 N   0  0  0  0  0  0  0  0  0  0  0  0
   18.8411   -4.0086  -15.5143 C   0  0  0  0  0  0  0  0  0  0  0  0
   18.7826   -2.6365  -15.6048 O   0  0  0  0  0  0  0  0  0  0  0  0
   18.5483   -4.5455  -14.4145 O   0  0  0  0  0  0  0  0  0  0  0  0
  2  1  1  1
  2  3  1  0
  3  4  1  0
  4  8  1  0
  5  4  2  0
  6 14  1  0
  6  2  1  0
  7  6  2  0
 10  9  1  1
 10 12  1  0
 11 10  1  0
 13 12  1  6
 13 14  1  0
 15 16  2  0
 15 13  1  0
 18 17  1  6
 19 18  1  0
 20 18  1  0
 20 21  1  1
 21 15  1  0
 22 20  1  0
 23 22  1  0
 24 22  2  0
M  END
$$$$
