DLT.pdb
     RDKit          3D

 24 23  0  0  1  0  0  0  0  0999 V2000
   16.5201   -9.5824  -13.4030 N   0  0  0  0  0  0  0  0  0  0  0  0
   17.1224   -9.0180  -12.2389 C   0  0  1  0  0  0  0  0  0  0  0  0
   18.3314   -8.1650  -12.5496 C   0  0  0  0  0  0  0  0  0  0  0  0
   19.4107   -8.9901  -13.1526 C   0  0  0  0  0  0  0  0  0  0  0  0
   20.2895   -8.4516  -13.8566 O   0  0  0  0  0  0  0  0  0  0  0  0
   16.1374   -8.1650  -11.5443 C   0  0  0  0  0  0  0  0  0  0  0  0
   15.3863   -7.4054  -12.1664 O   0  0  0  0  0  0  0  0  0  0  0  0
   19.5001  -10.3679  -12.9720 O   0  0  0  0  0  0  0  0  0  0  0  0
   12.2334   -8.9077   -9.8829 C   0  0  0  0  0  0  0  0  0  0  0  0
   13.3755   -9.3902   -9.0355 C   0  0  2  0  0  0  0  0  0  0  0  0
   12.8126  -10.1529   -7.8209 C   0  0  0  0  0  0  0  0  0  0  0  0
   14.2770   -8.3516   -8.4940 C   0  0  0  0  0  0  0  0  0  0  0  0
   15.0268   -7.4904   -9.4487 C   0  0  2  0  0  0  0  0  0  0  0  0
   16.0564   -8.2235  -10.1299 N   0  0  0  0  0  0  0  0  0  0  0  0
   15.5812   -6.2763   -8.8488 C   0  0  0  0  0  0  0  0  0  0  0  0
   16.5642   -6.3371   -8.0876 O   0  0  0  0  0  0  0  0  0  0  0  0
   17.1526   -3.5143  -10.4437 C   0  0  0  0  0  0  0  0  0  0  0  0
   15.9069   -2.9267   -9.8157 C   0  0  1  0  0  0  0  0  0  0  0  0
   14.8747   -3.0599  -10.7426 O   0  0  0  0  0  0  0  0  0  0  0  0
   15.5286   -3.7720   -8.6098 C   0  0  2  0  0  0  0  0  0  0  0  0
   14.9992   -5.0238   -9.1332 N   0  0  0  0  0  0  0  0  0  0  0  0
   14.5392   -3.0957   -7.7419 C   0  0  0  0  0  0  0  0  0  0  0  0
   14.8324   -2.0694   -6.8731 O   0  0  0  0  0  0  0  0  0  0  0  0
   13.3479   -3.4951   -7.8110 O   0  0  0  0  0  0  0  0  0  0  0  0
  2  1  1  6
  2  3  1  0
  3  4  1  0
  4  8  1  0
  5  4  2  0
  6 14  1  0
  6  2  1  0
  7  6  2  0
 10  9  1  1
 10 12  1  0
 11 10  1  0
 13 12  1  1
 13 14  1  0
 15 16  2  0
 15 13  1  0
 18 17  1  6
 19 18  1  0
 20 18  1  0
 20 21  1  6
 21 15  1  0
 22 20  1  0
 23 22  1  0
 24 22  2  0
M  END
$$$$
