DLT.pdb
     RDKit          3D

 24 23  0  0  1  0  0  0  0  0999 V2000
   23.2639   -5.6475  -17.1715 N   0  0  0  0  0  0  0  0  0  0  0  0
   23.5393   -6.5230  -16.0788 C   0  0  1  0  0  0  0  0  0  0  0  0
   22.5831   -6.3473  -14.9209 C   0  0  0  0  0  0  0  0  0  0  0  0
   22.8136   -5.0423  -14.2478 C   0  0  0  0  0  0  0  0  0  0  0  0
   23.5625   -4.1924  -14.7720 O   0  0  0  0  0  0  0  0  0  0  0  0
   23.4373   -7.9230  -16.5370 C   0  0  0  0  0  0  0  0  0  0  0  0
   22.8703   -8.2178  -17.5952 O   0  0  0  0  0  0  0  0  0  0  0  0
   22.2254   -4.7039  -13.0318 O   0  0  0  0  0  0  0  0  0  0  0  0
   26.8324  -10.6400  -17.6134 C   0  0  0  0  0  0  0  0  0  0  0  0
   26.5664  -10.6358  -16.1353 C   0  0  2  0  0  0  0  0  0  0  0  0
   27.5497  -11.6005  -15.4452 C   0  0  0  0  0  0  0  0  0  0  0  0
   25.2119  -11.0468  -15.7099 C   0  0  0  0  0  0  0  0  0  0  0  0
   24.0405  -10.2949  -16.2371 C   0  0  2  0  0  0  0  0  0  0  0  0
   24.0055   -8.9485  -15.7396 N   0  0  0  0  0  0  0  0  0  0  0  0
   22.7548  -10.9543  -16.0062 C   0  0  0  0  0  0  0  0  0  0  0  0
   22.2383  -10.9577  -14.8737 O   0  0  0  0  0  0  0  0  0  0  0  0
   19.6076  -10.1375  -17.2062 C   0  0  0  0  0  0  0  0  0  0  0  0
   19.8180  -11.5180  -17.7905 C   0  0  1  0  0  0  0  0  0  0  0  0
   20.4219  -11.3521  -19.0356 O   0  0  0  0  0  0  0  0  0  0  0  0
   20.8103  -12.2673  -16.9155 C   0  0  2  0  0  0  0  0  0  0  0  0
   22.0915  -11.5931  -17.0741 N   0  0  0  0  0  0  0  0  0  0  0  0
   20.9107  -13.6971  -17.2830 C   0  0  0  0  0  0  0  0  0  0  0  0
   19.9182  -14.6288  -17.0802 O   0  0  0  0  0  0  0  0  0  0  0  0
   21.9841  -14.0777  -17.8183 O   0  0  0  0  0  0  0  0  0  0  0  0
  2  1  1  6
  2  3  1  0
  3  4  1  0
  4  8  1  0
  5  4  2  0
  6 14  1  0
  6  2  1  0
  7  6  2  0
 10  9  1  6
 10 12  1  0
 11 10  1  0
 13 12  1  1
 13 14  1  0
 15 16  2  0
 15 13  1  0
 18 17  1  1
 19 18  1  0
 20 18  1  0
 20 21  1  6
 21 15  1  0
 22 20  1  0
 23 22  1  0
 24 22  2  0
M  END
$$$$
