PHL.pdb
     RDKit          3D

 26 27  0  0  1  0  0  0  0  0999 V2000
    7.2913  -14.5979   19.4053 N   0  0  0  0  0  0  0  0  0  0  0  0
    6.8376  -13.3868   20.0481 C   0  0  0  0  0  0  0  0  0  0  0  0
    8.0335  -12.4771   20.1808 C   0  0  0  0  0  0  0  0  0  0  0  0
    9.1356  -13.1880   19.4323 C   0  0  0  0  0  0  0  0  0  0  0  0
    8.7367  -14.6243   19.5181 C   0  0  1  0  0  0  0  0  0  0  0  0
    9.1267  -15.2664   20.8007 C   0  0  0  0  0  0  0  0  0  0  0  0
   10.3291  -15.3079   21.1304 O   0  0  0  0  0  0  0  0  0  0  0  0
    8.1861  -15.8452   21.6863 N   0  0  0  0  0  0  0  0  0  0  0  0
    8.5713  -16.5851   22.8802 C   0  0  1  0  0  0  0  0  0  0  0  0
    9.6793  -17.5623   22.4774 C   0  0  0  0  0  0  0  0  0  0  0  0
    9.1079  -18.7473   21.7888 C   0  0  0  0  0  0  0  0  0  0  0  0
    7.9999  -19.4867   22.1463 C   0  0  0  0  0  0  0  0  0  0  0  0
    7.7963  -20.4828   21.2780 N   0  0  0  0  0  0  0  0  0  0  0  0
    8.7839  -20.3731   20.3631 C   0  0  0  0  0  0  0  0  0  0  0  0
    9.5783  -19.3250   20.6691 N   0  0  0  0  0  0  0  0  0  0  0  0
    9.0590  -15.7006   23.9463 C   0  0  0  0  0  0  0  0  0  0  0  0
   10.2759  -15.3972   24.0019 O   0  0  0  0  0  0  0  0  0  0  0  0
    7.3197  -11.7010   25.2599 C   0  0  0  0  0  0  0  0  0  0  0  0
    6.7235  -12.8480   25.9984 C   0  0  2  0  0  0  0  0  0  0  0  0
    5.6736  -12.2967   26.9779 C   0  0  0  0  0  0  0  0  0  0  0  0
    7.6779  -13.6324   26.8057 C   0  0  0  0  0  0  0  0  0  0  0  0
    8.6539  -14.4988   26.1012 C   0  0  2  0  0  0  0  0  0  0  0  0
    8.1729  -15.1756   24.9262 N   0  0  0  0  0  0  0  0  0  0  0  0
    9.4019  -15.4065   27.0103 C   0  0  0  0  0  0  0  0  0  0  0  0
   10.1882  -14.9326   28.0553 O   0  0  0  0  0  0  0  0  0  0  0  0
    9.3556  -16.6553   26.8726 O   0  0  0  0  0  0  0  0  0  0  0  0
  1  2  1  0
  3  2  1  0
  4  5  1  0
  4  3  1  0
  5  1  1  0
  5  6  1  1
  6  8  1  0
  7  6  2  0
  9  8  1  0
 10 11  1  0
  9 10  1  6
 11 12  2  0
 13 12  1  0
 14 13  1  0
 15 14  2  0
 15 11  1  0
 16  9  1  0
 17 16  2  0
 19 18  1  1
 19 21  1  0
 20 19  1  0
 22 21  1  1
 22 24  1  0
 22 23  1  0
 23 16  1  0
 24 25  1  0
 26 24  2  0
M  END
$$$$
