PHL.pdb
     RDKit          3D

 26 27  0  0  1  0  0  0  0  0999 V2000
    9.3599  -14.1346   18.6652 N   0  0  0  0  0  0  0  0  0  0  0  0
    8.1626  -14.2657   17.8682 C   0  0  0  0  0  0  0  0  0  0  0  0
    7.1635  -13.2664   18.3959 C   0  0  0  0  0  0  0  0  0  0  0  0
    7.9316  -12.4679   19.4220 C   0  0  0  0  0  0  0  0  0  0  0  0
    8.9925  -13.4179   19.8711 C   0  0  1  0  0  0  0  0  0  0  0  0
    8.5211  -14.3804   20.9010 C   0  0  0  0  0  0  0  0  0  0  0  0
    7.3743  -14.2629   21.3776 O   0  0  0  0  0  0  0  0  0  0  0  0
    9.3216  -15.4454   21.3795 N   0  0  0  0  0  0  0  0  0  0  0  0
    8.8912  -16.3474   22.4390 C   0  0  1  0  0  0  0  0  0  0  0  0
    9.6150  -17.6804   22.2297 C   0  0  0  0  0  0  0  0  0  0  0  0
    9.1273  -18.3539   20.9994 C   0  0  0  0  0  0  0  0  0  0  0  0
    7.8369  -18.4119   20.5161 C   0  0  0  0  0  0  0  0  0  0  0  0
    7.7898  -19.1113   19.3775 N   0  0  0  0  0  0  0  0  0  0  0  0
    9.0614  -19.4993   19.1381 C   0  0  0  0  0  0  0  0  0  0  0  0
    9.8722  -19.0429   20.1167 N   0  0  0  0  0  0  0  0  0  0  0  0
    9.2041  -15.8220   23.7743 C   0  0  0  0  0  0  0  0  0  0  0  0
   10.3460  -15.3590   24.0143 O   0  0  0  0  0  0  0  0  0  0  0  0
    8.1661  -12.1076   26.1496 C   0  0  0  0  0  0  0  0  0  0  0  0
    7.1697  -13.2081   26.0370 C   0  0  2  0  0  0  0  0  0  0  0  0
    5.8441  -12.7217   26.6470 C   0  0  0  0  0  0  0  0  0  0  0  0
    7.5289  -14.4485   26.7514 C   0  0  0  0  0  0  0  0  0  0  0  0
    8.5300  -15.3533   26.1361 C   0  0  2  0  0  0  0  0  0  0  0  0
    8.2310  -15.8268   24.8107 N   0  0  0  0  0  0  0  0  0  0  0  0
    8.9729  -16.4466   27.0407 C   0  0  0  0  0  0  0  0  0  0  0  0
    9.6166  -16.1996   28.2487 O   0  0  0  0  0  0  0  0  0  0  0  0
    8.7827  -17.6549   26.7498 O   0  0  0  0  0  0  0  0  0  0  0  0
  1  2  1  0
  3  2  1  0
  4  5  1  0
  4  3  1  0
  5  1  1  0
  5  6  1  1
  6  8  1  0
  7  6  2  0
  9  8  1  0
 10 11  1  0
  9 10  1  6
 11 12  2  0
 13 12  1  0
 14 13  1  0
 15 14  2  0
 15 11  1  0
 16  9  1  0
 17 16  2  0
 19 18  1  1
 19 21  1  0
 20 19  1  0
 22 21  1  1
 22 24  1  0
 22 23  1  0
 23 16  1  0
 24 25  1  0
 26 24  2  0
M  END
$$$$
