PHL.pdb
     RDKit          3D

 26 27  0  0  1  0  0  0  0  0999 V2000
    8.3801  -14.6328   18.1160 N   0  0  0  0  0  0  0  0  0  0  0  0
    7.1159  -13.9348   18.1324 C   0  0  0  0  0  0  0  0  0  0  0  0
    7.2760  -12.7428   19.0427 C   0  0  0  0  0  0  0  0  0  0  0  0
    8.7431  -12.7328   19.4000 C   0  0  0  0  0  0  0  0  0  0  0  0
    9.1395  -14.1656   19.2596 C   0  0  1  0  0  0  0  0  0  0  0  0
    8.8043  -14.9871   20.4521 C   0  0  0  0  0  0  0  0  0  0  0  0
    7.6154  -15.0942   20.8143 O   0  0  0  0  0  0  0  0  0  0  0  0
    9.7834  -15.6685   21.2143 N   0  0  0  0  0  0  0  0  0  0  0  0
    9.4790  -16.3637   22.4575 C   0  0  1  0  0  0  0  0  0  0  0  0
   10.4187  -17.5690   22.5517 C   0  0  0  0  0  0  0  0  0  0  0  0
   10.1536  -18.5276   21.4491 C   0  0  0  0  0  0  0  0  0  0  0  0
    8.9336  -18.9447   20.9596 C   0  0  0  0  0  0  0  0  0  0  0  0
    9.0988  -19.8171   19.9599 N   0  0  0  0  0  0  0  0  0  0  0  0
   10.4349  -19.9533   19.8154 C   0  0  0  0  0  0  0  0  0  0  0  0
   11.0752  -19.1751   20.7141 N   0  0  0  0  0  0  0  0  0  0  0  0
    9.6637  -15.5027   23.6328 C   0  0  0  0  0  0  0  0  0  0  0  0
   10.0647  -14.3219   23.4883 O   0  0  0  0  0  0  0  0  0  0  0  0
    5.7231  -12.9384   26.3178 C   0  0  0  0  0  0  0  0  0  0  0  0
    7.0778  -13.4584   26.6510 C   0  0  2  0  0  0  0  0  0  0  0  0
    8.0191  -12.2581   26.8486 C   0  0  0  0  0  0  0  0  0  0  0  0
    7.6925  -14.3056   25.6106 C   0  0  0  0  0  0  0  0  0  0  0  0
    8.8724  -15.1270   25.9747 C   0  0  2  0  0  0  0  0  0  0  0  0
    9.3951  -15.9833   24.9434 N   0  0  0  0  0  0  0  0  0  0  0  0
    8.7223  -15.8332   27.2741 C   0  0  0  0  0  0  0  0  0  0  0  0
    8.0509  -17.0459   27.3900 O   0  0  0  0  0  0  0  0  0  0  0  0
    9.2010  -15.3599   28.3360 O   0  0  0  0  0  0  0  0  0  0  0  0
  1  2  1  0
  3  2  1  0
  4  5  1  0
  4  3  1  0
  5  1  1  0
  5  6  1  1
  6  8  1  0
  7  6  2  0
  9  8  1  0
 10 11  1  0
  9 10  1  1
 11 12  2  0
 13 12  1  0
 14 13  1  0
 15 14  2  0
 15 11  1  0
 16  9  1  0
 17 16  2  0
 19 18  1  6
 19 21  1  0
 20 19  1  0
 22 21  1  6
 22 24  1  0
 22 23  1  0
 23 16  1  0
 24 25  1  0
 26 24  2  0
M  END
$$$$
