PHL.pdb
     RDKit          3D

 26 27  0  0  1  0  0  0  0  0999 V2000
    7.0655  -18.4915   19.2872 N   0  0  0  0  0  0  0  0  0  0  0  0
    7.2313  -19.5981   20.2004 C   0  0  0  0  0  0  0  0  0  0  0  0
    6.6023  -19.1938   21.5104 C   0  0  0  0  0  0  0  0  0  0  0  0
    5.9405  -17.8679   21.2200 C   0  0  0  0  0  0  0  0  0  0  0  0
    6.7456  -17.3244   20.0860 C   0  0  1  0  0  0  0  0  0  0  0  0
    8.0004  -16.6581   20.5230 C   0  0  0  0  0  0  0  0  0  0  0  0
    8.9582  -16.5630   19.7295 O   0  0  0  0  0  0  0  0  0  0  0  0
    8.1693  -16.1145   21.8192 N   0  0  0  0  0  0  0  0  0  0  0  0
    8.8473  -14.8495   22.0668 C   0  0  1  0  0  0  0  0  0  0  0  0
    8.0127  -13.7451   21.4123 C   0  0  0  0  0  0  0  0  0  0  0  0
    8.1902  -13.7582   19.9381 C   0  0  0  0  0  0  0  0  0  0  0  0
    9.2621  -13.2917   19.2063 C   0  0  0  0  0  0  0  0  0  0  0  0
    9.0576  -13.4771   17.8981 N   0  0  0  0  0  0  0  0  0  0  0  0
    7.8459  -14.0661   17.8010 C   0  0  0  0  0  0  0  0  0  0  0  0
    7.3191  -14.2373   19.0324 N   0  0  0  0  0  0  0  0  0  0  0  0
    8.9933  -14.5713   23.5014 C   0  0  0  0  0  0  0  0  0  0  0  0
    9.7781  -13.6714   23.8891 O   0  0  0  0  0  0  0  0  0  0  0  0
    7.7640  -11.8903   26.2568 C   0  0  0  0  0  0  0  0  0  0  0  0
    6.8963  -13.0660   25.9716 C   0  0  2  0  0  0  0  0  0  0  0  0
    5.5009  -12.7876   26.5557 C   0  0  0  0  0  0  0  0  0  0  0  0
    7.3537  -14.3362   26.5675 C   0  0  0  0  0  0  0  0  0  0  0  0
    8.4304  -15.0910   25.8816 C   0  0  2  0  0  0  0  0  0  0  0  0
    8.2570  -15.3070   24.4697 N   0  0  0  0  0  0  0  0  0  0  0  0
    8.8320  -16.3300   26.5981 C   0  0  0  0  0  0  0  0  0  0  0  0
    9.0154  -17.5434   25.9433 O   0  0  0  0  0  0  0  0  0  0  0  0
    9.0253  -16.3348   27.8404 O   0  0  0  0  0  0  0  0  0  0  0  0
  1  2  1  0
  3  2  1  0
  4  5  1  0
  4  3  1  0
  5  1  1  0
  5  6  1  1
  6  8  1  0
  7  6  2  0
  9  8  1  0
 10 11  1  0
  9 10  1  6
 11 12  2  0
 13 12  1  0
 14 13  1  0
 15 14  2  0
 15 11  1  0
 16  9  1  0
 17 16  2  0
 19 18  1  1
 19 21  1  0
 20 19  1  0
 22 21  1  1
 22 24  1  0
 22 23  1  0
 23 16  1  0
 24 25  1  0
 26 24  2  0
M  END
$$$$
