PHL.pdb
     RDKit          3D

 26 27  0  0  1  0  0  0  0  0999 V2000
    8.7142  -14.9590   18.7804 N   0  0  0  0  0  0  0  0  0  0  0  0
    7.6716  -14.3129   18.0180 C   0  0  0  0  0  0  0  0  0  0  0  0
    7.6689  -12.8565   18.4105 C   0  0  0  0  0  0  0  0  0  0  0  0
    8.8715  -12.7043   19.3111 C   0  0  0  0  0  0  0  0  0  0  0  0
    9.0497  -14.0738   19.8788 C   0  0  1  0  0  0  0  0  0  0  0  0
    8.1575  -14.3509   21.0349 C   0  0  0  0  0  0  0  0  0  0  0  0
    7.7561  -13.4075   21.7456 O   0  0  0  0  0  0  0  0  0  0  0  0
    7.7304  -15.6559   21.3791 N   0  0  0  0  0  0  0  0  0  0  0  0
    8.3566  -16.4437   22.4320 C   0  0  1  0  0  0  0  0  0  0  0  0
    9.5663  -17.1531   21.8171 C   0  0  0  0  0  0  0  0  0  0  0  0
   10.0247  -18.2613   22.6927 C   0  0  0  0  0  0  0  0  0  0  0  0
    9.4236  -18.7472   23.8349 C   0  0  0  0  0  0  0  0  0  0  0  0
   10.1354  -19.7542   24.3517 N   0  0  0  0  0  0  0  0  0  0  0  0
   11.1961  -19.9071   23.5294 C   0  0  0  0  0  0  0  0  0  0  0  0
   11.1320  -19.0061   22.5257 N   0  0  0  0  0  0  0  0  0  0  0  0
    8.7951  -15.6114   23.5598 C   0  0  0  0  0  0  0  0  0  0  0  0
    9.9044  -15.0257   23.5129 O   0  0  0  0  0  0  0  0  0  0  0  0
    7.9216  -11.7512   25.4477 C   0  0  0  0  0  0  0  0  0  0  0  0
    7.0290  -12.8745   25.8451 C   0  0  2  0  0  0  0  0  0  0  0  0
    5.8918  -12.3034   26.7091 C   0  0  0  0  0  0  0  0  0  0  0  0
    7.6762  -13.9293   26.6492 C   0  0  0  0  0  0  0  0  0  0  0  0
    8.5078  -14.9396   25.9510 C   0  0  2  0  0  0  0  0  0  0  0  0
    7.9812  -15.4537   24.7147 N   0  0  0  0  0  0  0  0  0  0  0  0
    9.0032  -16.0177   26.8465 C   0  0  0  0  0  0  0  0  0  0  0  0
    9.7500  -15.7526   27.9896 O   0  0  0  0  0  0  0  0  0  0  0  0
    8.7661  -17.2289   26.6067 O   0  0  0  0  0  0  0  0  0  0  0  0
  1  2  1  0
  3  2  1  0
  4  5  1  0
  4  3  1  0
  5  1  1  0
  5  6  1  1
  6  8  1  0
  7  6  2  0
  9  8  1  0
 10 11  1  0
  9 10  1  6
 11 12  2  0
 13 12  1  0
 14 13  1  0
 15 14  2  0
 15 11  1  0
 16  9  1  0
 17 16  2  0
 19 18  1  1
 19 21  1  0
 20 19  1  0
 22 21  1  1
 22 24  1  0
 22 23  1  0
 23 16  1  0
 24 25  1  0
 26 24  2  0
M  END
$$$$
