PHL.pdb
     RDKit          3D

 26 27  0  0  1  0  0  0  0  0999 V2000
    9.3997  -14.3370   18.7918 N   0  0  0  0  0  0  0  0  0  0  0  0
    8.2525  -14.5045   17.9306 C   0  0  0  0  0  0  0  0  0  0  0  0
    7.2132  -13.5044   18.3722 C   0  0  0  0  0  0  0  0  0  0  0  0
    7.9112  -12.6693   19.4190 C   0  0  0  0  0  0  0  0  0  0  0  0
    8.9547  -13.5934   19.9544 C   0  0  1  0  0  0  0  0  0  0  0  0
    8.4349  -14.5343   20.9810 C   0  0  0  0  0  0  0  0  0  0  0  0
    7.2894  -14.3694   21.4467 O   0  0  0  0  0  0  0  0  0  0  0  0
    9.1868  -15.6302   21.4684 N   0  0  0  0  0  0  0  0  0  0  0  0
    8.8195  -16.3750   22.6649 C   0  0  1  0  0  0  0  0  0  0  0  0
    9.5787  -17.7043   22.6297 C   0  0  0  0  0  0  0  0  0  0  0  0
    9.2033  -18.4904   21.4272 C   0  0  0  0  0  0  0  0  0  0  0  0
    7.9521  -18.9420   21.0627 C   0  0  0  0  0  0  0  0  0  0  0  0
    8.0108  -19.6172   19.9102 N   0  0  0  0  0  0  0  0  0  0  0  0
    9.3101  -19.5927   19.5419 C   0  0  0  0  0  0  0  0  0  0  0  0
   10.0334  -18.9123   20.4569 N   0  0  0  0  0  0  0  0  0  0  0  0
    9.1575  -15.6477   23.8952 C   0  0  0  0  0  0  0  0  0  0  0  0
   10.3470  -15.3153   24.1205 O   0  0  0  0  0  0  0  0  0  0  0  0
    6.1502  -11.7930   26.7820 C   0  0  0  0  0  0  0  0  0  0  0  0
    7.4123  -12.4927   26.4160 C   0  0  2  0  0  0  0  0  0  0  0  0
    7.5728  -12.4284   24.8876 C   0  0  0  0  0  0  0  0  0  0  0  0
    7.4605  -13.9215   26.7821 C   0  0  0  0  0  0  0  0  0  0  0  0
    8.4864  -14.7805   26.1423 C   0  0  2  0  0  0  0  0  0  0  0  0
    8.1560  -15.3090   24.8455 N   0  0  0  0  0  0  0  0  0  0  0  0
    9.0387  -15.8183   27.0520 C   0  0  0  0  0  0  0  0  0  0  0  0
    9.8177  -15.5005   28.1596 O   0  0  0  0  0  0  0  0  0  0  0  0
    8.8231  -17.0417   26.8575 O   0  0  0  0  0  0  0  0  0  0  0  0
  1  2  1  0
  3  2  1  0
  4  5  1  0
  4  3  1  0
  5  1  1  0
  5  6  1  1
  6  8  1  0
  7  6  2  0
  9  8  1  0
 10 11  1  0
  9 10  1  1
 11 12  2  0
 13 12  1  0
 14 13  1  0
 15 14  2  0
 15 11  1  0
 16  9  1  0
 17 16  2  0
 19 18  1  6
 19 21  1  0
 20 19  1  0
 22 21  1  1
 22 24  1  0
 22 23  1  0
 23 16  1  0
 24 25  1  0
 26 24  2  0
M  END
$$$$
