PHL.pdb
     RDKit          3D

 26 27  0  0  1  0  0  0  0  0999 V2000
    9.4656  -14.4186   18.3303 N   0  0  0  0  0  0  0  0  0  0  0  0
    8.2958  -14.6426   17.5135 C   0  0  0  0  0  0  0  0  0  0  0  0
    7.2684  -13.6130   17.9135 C   0  0  0  0  0  0  0  0  0  0  0  0
    7.9941  -12.7096   18.8818 C   0  0  0  0  0  0  0  0  0  0  0  0
    9.0517  -13.5967   19.4509 C   0  0  1  0  0  0  0  0  0  0  0  0
    8.5598  -14.4645   20.5529 C   0  0  0  0  0  0  0  0  0  0  0  0
    7.4506  -14.2322   21.0742 O   0  0  0  0  0  0  0  0  0  0  0  0
    9.2991  -15.5636   21.0525 N   0  0  0  0  0  0  0  0  0  0  0  0
    8.8904  -16.3285   22.2226 C   0  0  1  0  0  0  0  0  0  0  0  0
    9.7395  -17.6023   22.2582 C   0  0  0  0  0  0  0  0  0  0  0  0
    9.3626  -18.5143   21.1486 C   0  0  0  0  0  0  0  0  0  0  0  0
    8.3501  -19.4505   21.1236 C   0  0  0  0  0  0  0  0  0  0  0  0
    8.3194  -20.0820   19.9456 N   0  0  0  0  0  0  0  0  0  0  0  0
    9.3211  -19.5410   19.2186 C   0  0  0  0  0  0  0  0  0  0  0  0
    9.9535  -18.5931   19.9431 N   0  0  0  0  0  0  0  0  0  0  0  0
    9.0797  -15.5761   23.4696 C   0  0  0  0  0  0  0  0  0  0  0  0
   10.1970  -15.0672   23.7316 O   0  0  0  0  0  0  0  0  0  0  0  0
    5.9063  -12.1761   27.5325 C   0  0  0  0  0  0  0  0  0  0  0  0
    7.1625  -12.8637   27.1255 C   0  0  2  0  0  0  0  0  0  0  0  0
    8.2181  -11.7907   26.8093 C   0  0  0  0  0  0  0  0  0  0  0  0
    7.0480  -13.7064   25.9194 C   0  0  0  0  0  0  0  0  0  0  0  0
    8.1623  -14.6296   25.5943 C   0  0  2  0  0  0  0  0  0  0  0  0
    8.0134  -15.4104   24.3951 N   0  0  0  0  0  0  0  0  0  0  0  0
    8.6065  -15.4499   26.7517 C   0  0  0  0  0  0  0  0  0  0  0  0
    8.6467  -16.8396   26.7086 O   0  0  0  0  0  0  0  0  0  0  0  0
    8.9690  -14.9172   27.8314 O   0  0  0  0  0  0  0  0  0  0  0  0
  1  2  1  0
  3  2  1  0
  4  5  1  0
  4  3  1  0
  5  1  1  0
  5  6  1  1
  6  8  1  0
  7  6  2  0
  9  8  1  0
 10 11  1  0
  9 10  1  1
 11 12  2  0
 13 12  1  0
 14 13  1  0
 15 14  2  0
 15 11  1  0
 16  9  1  0
 17 16  2  0
 19 18  1  6
 19 21  1  0
 20 19  1  0
 22 21  1  1
 22 24  1  0
 22 23  1  0
 23 16  1  0
 24 25  1  0
 26 24  2  0
M  END
$$$$
