PHL.pdb
     RDKit          3D

 26 27  0  0  1  0  0  0  0  0999 V2000
    9.3511  -14.6105   18.1739 N   0  0  0  0  0  0  0  0  0  0  0  0
    8.1529  -14.6717   17.3700 C   0  0  0  0  0  0  0  0  0  0  0  0
    7.2629  -13.5354   17.8084 C   0  0  0  0  0  0  0  0  0  0  0  0
    8.1044  -12.7499   18.7857 C   0  0  0  0  0  0  0  0  0  0  0  0
    9.0537  -13.7719   19.3188 C   0  0  1  0  0  0  0  0  0  0  0  0
    8.4737  -14.6001   20.4083 C   0  0  0  0  0  0  0  0  0  0  0  0
    7.3827  -14.2746   20.9180 O   0  0  0  0  0  0  0  0  0  0  0  0
    9.1073  -15.7630   20.9084 N   0  0  0  0  0  0  0  0  0  0  0  0
    8.6601  -16.4564   22.1087 C   0  0  1  0  0  0  0  0  0  0  0  0
    9.4483  -17.7657   22.2034 C   0  0  0  0  0  0  0  0  0  0  0  0
    9.0397  -18.7024   21.1260 C   0  0  0  0  0  0  0  0  0  0  0  0
    7.9002  -18.6614   20.3502 C   0  0  0  0  0  0  0  0  0  0  0  0
    7.8822  -19.6788   19.4830 N   0  0  0  0  0  0  0  0  0  0  0  0
    9.0201  -20.3697   19.7118 C   0  0  0  0  0  0  0  0  0  0  0  0
    9.7219  -19.7820   20.7044 N   0  0  0  0  0  0  0  0  0  0  0  0
    8.8811  -15.6600   23.3227 C   0  0  0  0  0  0  0  0  0  0  0  0
    9.9557  -15.0283   23.4714 O   0  0  0  0  0  0  0  0  0  0  0  0
    5.7166  -12.0100   27.0189 C   0  0  0  0  0  0  0  0  0  0  0  0
    6.9761  -12.7580   26.7530 C   0  0  2  0  0  0  0  0  0  0  0  0
    8.0786  -11.7399   26.4157 C   0  0  0  0  0  0  0  0  0  0  0  0
    6.9135  -13.6987   25.6176 C   0  0  0  0  0  0  0  0  0  0  0  0
    8.0118  -14.6816   25.4532 C   0  0  2  0  0  0  0  0  0  0  0  0
    7.8936  -15.5891   24.3429 N   0  0  0  0  0  0  0  0  0  0  0  0
    8.3761  -15.3769   26.7156 C   0  0  0  0  0  0  0  0  0  0  0  0
    9.4456  -14.9720   27.5075 O   0  0  0  0  0  0  0  0  0  0  0  0
    7.7263  -16.3717   27.1265 O   0  0  0  0  0  0  0  0  0  0  0  0
  1  2  1  0
  3  2  1  0
  4  5  1  0
  4  3  1  0
  5  1  1  0
  5  6  1  1
  6  8  1  0
  7  6  2  0
  9  8  1  0
 10 11  1  0
  9 10  1  1
 11 12  2  0
 13 12  1  0
 14 13  1  0
 15 14  2  0
 15 11  1  0
 16  9  1  0
 17 16  2  0
 19 18  1  6
 19 21  1  0
 20 19  1  0
 22 21  1  1
 22 24  1  0
 22 23  1  0
 23 16  1  0
 24 25  1  0
 26 24  2  0
M  END
$$$$
