PHL.pdb
     RDKit          3D

 26 27  0  0  1  0  0  0  0  0999 V2000
    8.8521  -14.3487   18.5979 N   0  0  0  0  0  0  0  0  0  0  0  0
    7.4513  -14.1431   18.3128 C   0  0  0  0  0  0  0  0  0  0  0  0
    6.9871  -12.9887   19.1656 C   0  0  0  0  0  0  0  0  0  0  0  0
    8.2463  -12.4675   19.8162 C   0  0  0  0  0  0  0  0  0  0  0  0
    9.1381  -13.6648   19.8441 C   0  0  1  0  0  0  0  0  0  0  0  0
    8.8649  -14.5740   20.9878 C   0  0  0  0  0  0  0  0  0  0  0  0
    7.6926  -14.7349   21.3828 O   0  0  0  0  0  0  0  0  0  0  0  0
    9.8860  -15.2815   21.6665 N   0  0  0  0  0  0  0  0  0  0  0  0
    9.6268  -16.1468   22.8091 C   0  0  1  0  0  0  0  0  0  0  0  0
   10.5676  -17.3497   22.6970 C   0  0  0  0  0  0  0  0  0  0  0  0
   10.2954  -18.1136   21.4531 C   0  0  0  0  0  0  0  0  0  0  0  0
    9.2837  -19.0204   21.2160 C   0  0  0  0  0  0  0  0  0  0  0  0
    9.3648  -19.5043   19.9722 N   0  0  0  0  0  0  0  0  0  0  0  0
   10.4371  -18.8986   19.4173 C   0  0  0  0  0  0  0  0  0  0  0  0
   11.0017  -18.0574   20.3100 N   0  0  0  0  0  0  0  0  0  0  0  0
    9.8563  -15.4601   24.0869 C   0  0  0  0  0  0  0  0  0  0  0  0
   10.8444  -14.6973   24.2203 O   0  0  0  0  0  0  0  0  0  0  0  0
    7.1743  -12.3597   25.4472 C   0  0  0  0  0  0  0  0  0  0  0  0
    7.1710  -13.6758   26.1433 C   0  0  2  0  0  0  0  0  0  0  0  0
    5.9998  -13.6903   27.1403 C   0  0  0  0  0  0  0  0  0  0  0  0
    8.3885  -13.9702   26.9237 C   0  0  0  0  0  0  0  0  0  0  0  0
    9.2542  -15.0919   26.4856 C   0  0  2  0  0  0  0  0  0  0  0  0
    8.9740  -15.6430   25.1864 N   0  0  0  0  0  0  0  0  0  0  0  0
    9.4267  -16.1443   27.5212 C   0  0  0  0  0  0  0  0  0  0  0  0
    9.1498  -17.4849   27.2747 O   0  0  0  0  0  0  0  0  0  0  0  0
    9.8347  -15.8650   28.6772 O   0  0  0  0  0  0  0  0  0  0  0  0
  1  2  1  0
  3  2  1  0
  4  5  1  0
  4  3  1  0
  5  1  1  0
  5  6  1  1
  6  8  1  0
  7  6  2  0
  9  8  1  0
 10 11  1  0
  9 10  1  6
 11 12  2  0
 13 12  1  0
 14 13  1  0
 15 14  2  0
 15 11  1  0
 16  9  1  0
 17 16  2  0
 19 18  1  1
 19 21  1  0
 20 19  1  0
 22 21  1  1
 22 24  1  0
 22 23  1  0
 23 16  1  0
 24 25  1  0
 26 24  2  0
M  END
$$$$
