PHL.pdb
     RDKit          3D

 26 27  0  0  1  0  0  0  0  0999 V2000
    9.1537  -14.7200   18.1116 N   0  0  0  0  0  0  0  0  0  0  0  0
    7.8622  -14.4925   17.5066 C   0  0  0  0  0  0  0  0  0  0  0  0
    7.2637  -13.2798   18.1748 C   0  0  0  0  0  0  0  0  0  0  0  0
    8.3636  -12.7576   19.0680 C   0  0  0  0  0  0  0  0  0  0  0  0
    9.1785  -13.9753   19.3555 C   0  0  1  0  0  0  0  0  0  0  0  0
    8.6193  -14.8111   20.4501 C   0  0  0  0  0  0  0  0  0  0  0  0
    7.4545  -14.6090   20.8484 O   0  0  0  0  0  0  0  0  0  0  0  0
    9.3540  -15.8457   21.0775 N   0  0  0  0  0  0  0  0  0  0  0  0
    8.8763  -16.5560   22.2559 C   0  0  1  0  0  0  0  0  0  0  0  0
    9.7183  -17.8269   22.3990 C   0  0  0  0  0  0  0  0  0  0  0  0
    9.3827  -18.8009   21.3295 C   0  0  0  0  0  0  0  0  0  0  0  0
    8.3231  -18.7641   20.4475 C   0  0  0  0  0  0  0  0  0  0  0  0
    8.3538  -19.8199   19.6277 N   0  0  0  0  0  0  0  0  0  0  0  0
    9.4423  -20.5310   19.9939 C   0  0  0  0  0  0  0  0  0  0  0  0
   10.0663  -19.9175   21.0223 N   0  0  0  0  0  0  0  0  0  0  0  0
    8.9952  -15.7470   23.4759 C   0  0  0  0  0  0  0  0  0  0  0  0
   10.1235  -15.3516   23.8586 O   0  0  0  0  0  0  0  0  0  0  0  0
    5.6024  -12.0938   27.1977 C   0  0  0  0  0  0  0  0  0  0  0  0
    6.8776  -12.7876   26.8674 C   0  0  2  0  0  0  0  0  0  0  0  0
    7.9515  -11.7196   26.5992 C   0  0  0  0  0  0  0  0  0  0  0  0
    6.8279  -13.6422   25.6653 C   0  0  0  0  0  0  0  0  0  0  0  0
    7.9416  -14.5923   25.4274 C   0  0  2  0  0  0  0  0  0  0  0  0
    7.8479  -15.3991   24.2398 N   0  0  0  0  0  0  0  0  0  0  0  0
    8.3022  -15.3921   26.6274 C   0  0  0  0  0  0  0  0  0  0  0  0
    9.3507  -15.0394   27.4706 O   0  0  0  0  0  0  0  0  0  0  0  0
    7.6682  -16.4332   26.9355 O   0  0  0  0  0  0  0  0  0  0  0  0
  1  2  1  0
  3  2  1  0
  4  5  1  0
  4  3  1  0
  5  1  1  0
  5  6  1  1
  6  8  1  0
  7  6  2  0
  9  8  1  0
 10 11  1  0
  9 10  1  1
 11 12  2  0
 13 12  1  0
 14 13  1  0
 15 14  2  0
 15 11  1  0
 16  9  1  0
 17 16  2  0
 19 18  1  6
 19 21  1  0
 20 19  1  0
 22 21  1  1
 22 24  1  0
 22 23  1  0
 23 16  1  0
 24 25  1  0
 26 24  2  0
M  END
$$$$
