PHL.pdb
     RDKit          3D

 26 27  0  0  1  0  0  0  0  0999 V2000
    9.3939  -14.2727   18.5462 N   0  0  0  0  0  0  0  0  0  0  0  0
    8.2134  -14.3733   17.7202 C   0  0  0  0  0  0  0  0  0  0  0  0
    7.2421  -13.3237   18.2002 C   0  0  0  0  0  0  0  0  0  0  0  0
    8.0150  -12.5344   19.2298 C   0  0  0  0  0  0  0  0  0  0  0  0
    9.0246  -13.5160   19.7267 C   0  0  1  0  0  0  0  0  0  0  0  0
    8.4880  -14.4363   20.7632 C   0  0  0  0  0  0  0  0  0  0  0  0
    7.2730  -14.4089   21.0448 O   0  0  0  0  0  0  0  0  0  0  0  0
    9.2999  -15.3616   21.4623 N   0  0  0  0  0  0  0  0  0  0  0  0
    8.8125  -16.1592   22.5793 C   0  0  1  0  0  0  0  0  0  0  0  0
    9.4112  -17.5615   22.4380 C   0  0  0  0  0  0  0  0  0  0  0  0
    8.9576  -18.2002   21.1766 C   0  0  0  0  0  0  0  0  0  0  0  0
    7.7211  -18.7421   20.8943 C   0  0  0  0  0  0  0  0  0  0  0  0
    7.6907  -19.2264   19.6484 N   0  0  0  0  0  0  0  0  0  0  0  0
    8.9185  -18.9890   19.1377 C   0  0  0  0  0  0  0  0  0  0  0  0
    9.6865  -18.3688   20.0590 N   0  0  0  0  0  0  0  0  0  0  0  0
    9.1971  -15.5884   23.8766 C   0  0  0  0  0  0  0  0  0  0  0  0
   10.3891  -15.2556   24.0867 O   0  0  0  0  0  0  0  0  0  0  0  0
    7.7736  -11.7611   25.5638 C   0  0  0  0  0  0  0  0  0  0  0  0
    6.9423  -12.9386   25.9368 C   0  0  2  0  0  0  0  0  0  0  0  0
    5.7171  -12.4348   26.7183 C   0  0  0  0  0  0  0  0  0  0  0  0
    7.6148  -13.9257   26.8037 C   0  0  0  0  0  0  0  0  0  0  0  0
    8.5964  -14.8524   26.1895 C   0  0  2  0  0  0  0  0  0  0  0  0
    8.2380  -15.4031   24.9094 N   0  0  0  0  0  0  0  0  0  0  0  0
    9.0994  -15.8880   27.1298 C   0  0  0  0  0  0  0  0  0  0  0  0
    9.7405  -15.5648   28.3211 O   0  0  0  0  0  0  0  0  0  0  0  0
    8.9656  -17.1143   26.8864 O   0  0  0  0  0  0  0  0  0  0  0  0
  1  2  1  0
  3  2  1  0
  4  5  1  0
  4  3  1  0
  5  1  1  0
  5  6  1  1
  6  8  1  0
  7  6  2  0
  9  8  1  0
 10 11  1  0
  9 10  1  6
 11 12  2  0
 13 12  1  0
 14 13  1  0
 15 14  2  0
 15 11  1  0
 16  9  1  0
 17 16  2  0
 19 18  1  1
 19 21  1  0
 20 19  1  0
 22 21  1  1
 22 24  1  0
 22 23  1  0
 23 16  1  0
 24 25  1  0
 26 24  2  0
M  END
$$$$
