PHL.pdb
     RDKit          3D

 26 27  0  0  1  0  0  0  0  0999 V2000
    6.2722  -18.0680   21.2655 N   0  0  0  0  0  0  0  0  0  0  0  0
    6.3066  -18.1432   19.8236 C   0  0  0  0  0  0  0  0  0  0  0  0
    6.9233  -19.4711   19.4606 C   0  0  0  0  0  0  0  0  0  0  0  0
    7.0794  -20.1899   20.7794 C   0  0  0  0  0  0  0  0  0  0  0  0
    7.1876  -19.0748   21.7665 C   0  0  1  0  0  0  0  0  0  0  0  0
    8.5568  -18.5039   21.8597 C   0  0  0  0  0  0  0  0  0  0  0  0
    9.5455  -19.2645   21.8482 O   0  0  0  0  0  0  0  0  0  0  0  0
    8.8032  -17.1137   21.9629 N   0  0  0  0  0  0  0  0  0  0  0  0
   10.0728  -16.5647   22.4191 C   0  0  1  0  0  0  0  0  0  0  0  0
   10.7138  -15.8416   21.2313 C   0  0  0  0  0  0  0  0  0  0  0  0
   11.0222  -16.7994   20.1392 C   0  0  0  0  0  0  0  0  0  0  0  0
   12.1314  -17.6079   20.0050 C   0  0  0  0  0  0  0  0  0  0  0  0
   12.0534  -18.3351   18.8858 N   0  0  0  0  0  0  0  0  0  0  0  0
   10.8847  -17.9840   18.3066 C   0  0  0  0  0  0  0  0  0  0  0  0
   10.2591  -17.0558   19.0619 N   0  0  0  0  0  0  0  0  0  0  0  0
    9.9005  -15.6236   23.5333 C   0  0  0  0  0  0  0  0  0  0  0  0
    9.9867  -14.3879   23.3295 O   0  0  0  0  0  0  0  0  0  0  0  0
    6.2231  -12.7673   26.2497 C   0  0  0  0  0  0  0  0  0  0  0  0
    7.5389  -13.3850   26.5719 C   0  0  2  0  0  0  0  0  0  0  0  0
    8.5671  -12.2568   26.7609 C   0  0  0  0  0  0  0  0  0  0  0  0
    8.0813  -14.2749   25.5270 C   0  0  0  0  0  0  0  0  0  0  0  0
    9.1788  -15.2039   25.8902 C   0  0  2  0  0  0  0  0  0  0  0  0
    9.6356  -16.0876   24.8507 N   0  0  0  0  0  0  0  0  0  0  0  0
    8.9507  -15.9137   27.1762 C   0  0  0  0  0  0  0  0  0  0  0  0
    8.3825  -17.1818   27.2369 O   0  0  0  0  0  0  0  0  0  0  0  0
    9.2648  -15.3928   28.2766 O   0  0  0  0  0  0  0  0  0  0  0  0
  1  2  1  0
  3  2  1  0
  4  5  1  0
  4  3  1  0
  5  1  1  0
  5  6  1  6
  6  8  1  0
  7  6  2  0
  9  8  1  0
 10 11  1  0
  9 10  1  6
 11 12  2  0
 13 12  1  0
 14 13  1  0
 15 14  2  0
 15 11  1  0
 16  9  1  0
 17 16  2  0
 19 18  1  6
 19 21  1  0
 20 19  1  0
 22 21  1  6
 22 24  1  0
 22 23  1  0
 23 16  1  0
 24 25  1  0
 26 24  2  0
M  END
$$$$
