LQM.pdb
     RDKit          3D

 26 25  0  0  1  0  0  0  0  0999 V2000
   17.6634  -23.9410  -13.9597 C   0  0  0  0  0  0  0  0  0  0  0  0
   18.4101  -24.6954  -12.9065 C   0  0  1  0  0  0  0  0  0  0  0  0
   19.7735  -25.1466  -13.3862 C   0  0  0  0  0  0  0  0  0  0  0  0
   18.5031  -23.9359  -11.6038 C   0  0  0  0  0  0  0  0  0  0  0  0
   19.2223  -24.7194  -10.5548 C   0  0  2  0  0  0  0  0  0  0  0  0
   18.8342  -26.1121  -10.6608 N   0  0  0  0  0  0  0  0  0  0  0  0
   18.9289  -24.2417   -9.1811 C   0  0  0  0  0  0  0  0  0  0  0  0
   19.0732  -23.0284   -8.8849 O   0  0  0  0  0  0  0  0  0  0  0  0
   13.8668  -23.3443   -8.9618 N   0  0  0  0  0  0  0  0  0  0  0  0
   14.7266  -22.4197   -8.3337 C   0  0  0  0  0  0  0  0  0  0  0  0
   14.3579  -21.1995   -8.3678 O   0  0  0  0  0  0  0  0  0  0  0  0
   15.9875  -22.7946   -7.6644 C   0  0  0  0  0  0  0  0  0  0  0  0
   16.2143  -24.2624   -7.8274 C   0  0  0  0  0  0  0  0  0  0  0  0
   17.4758  -24.7466   -7.1734 C   0  0  2  0  0  0  0  0  0  0  0  0
   18.4790  -25.1086   -8.1462 N   0  0  0  0  0  0  0  0  0  0  0  0
   17.2408  -25.8060   -6.1794 C   0  0  0  0  0  0  0  0  0  0  0  0
   16.9139  -26.9581   -6.6273 O   0  0  0  0  0  0  0  0  0  0  0  0
   21.1244  -27.9393   -0.6424 C   0  0  0  0  0  0  0  0  0  0  0  0
   19.5964  -26.9863   -0.7959 S   0  0  0  0  0  0  0  0  0  0  0  0
   18.8480  -27.1761   -2.4268 C   0  0  0  0  0  0  0  0  0  0  0  0
   17.4991  -26.5204   -2.5050 C   0  0  0  0  0  0  0  0  0  0  0  0
   16.9250  -26.7173   -3.9072 C   0  0  2  0  0  0  0  0  0  0  0  0
   17.3461  -25.6541   -4.7935 N   0  0  0  0  0  0  0  0  0  0  0  0
   15.4509  -26.8153   -3.8591 C   0  0  0  0  0  0  0  0  0  0  0  0
   14.8776  -27.9639   -3.3513 O   0  0  0  0  0  0  0  0  0  0  0  0
   14.7080  -25.8949   -4.2617 O   0  0  0  0  0  0  0  0  0  0  0  0
  2  4  1  0
  2  1  1  6
  3  2  1  0
  4  5  1  0
  5  6  1  1
  7  8  2  0
  7  5  1  0
  9 10  1  0
 10 12  1  0
 10 11  2  0
 12 13  1  0
 14 13  1  6
 14 15  1  0
 15  7  1  0
 16 17  2  0
 16 14  1  0
 19 18  1  0
 20 19  1  0
 20 21  1  0
 22 21  1  1
 22 23  1  0
 23 16  1  0
 24 22  1  0
 25 24  1  0
 26 24  2  0
M  END
$$$$
