LQM.pdb
     RDKit          3D

 26 25  0  0  1  0  0  0  0  0999 V2000
   16.9103  -12.8709    2.9411 C   0  0  0  0  0  0  0  0  0  0  0  0
   17.1998  -14.3358    2.8640 C   0  0  1  0  0  0  0  0  0  0  0  0
   18.3939  -14.6359    1.9829 C   0  0  0  0  0  0  0  0  0  0  0  0
   17.3413  -14.9724    4.2268 C   0  0  0  0  0  0  0  0  0  0  0  0
   17.7879  -16.3947    4.1312 C   0  0  2  0  0  0  0  0  0  0  0  0
   16.7400  -17.1742    3.5023 N   0  0  0  0  0  0  0  0  0  0  0  0
   18.0994  -16.9875    5.4552 C   0  0  0  0  0  0  0  0  0  0  0  0
   18.8224  -16.3674    6.2759 O   0  0  0  0  0  0  0  0  0  0  0  0
   15.9843  -22.6465    7.6197 N   0  0  0  0  0  0  0  0  0  0  0  0
   16.5567  -22.0241    8.7483 C   0  0  0  0  0  0  0  0  0  0  0  0
   16.4563  -22.6593    9.8493 O   0  0  0  0  0  0  0  0  0  0  0  0
   17.2406  -20.7169    8.7064 C   0  0  0  0  0  0  0  0  0  0  0  0
   17.1368  -20.1504    7.3277 C   0  0  0  0  0  0  0  0  0  0  0  0
   17.7943  -18.8087    7.1837 C   0  0  2  0  0  0  0  0  0  0  0  0
   17.6098  -18.2605    5.8611 N   0  0  0  0  0  0  0  0  0  0  0  0
   19.2038  -18.8081    7.6066 C   0  0  0  0  0  0  0  0  0  0  0  0
   20.0540  -19.3014    6.7888 O   0  0  0  0  0  0  0  0  0  0  0  0
   25.6398  -15.9319   10.8253 C   0  0  0  0  0  0  0  0  0  0  0  0
   23.8833  -15.7236   10.4543 S   0  0  0  0  0  0  0  0  0  0  0  0
   23.1151  -17.2766    9.9501 C   0  0  0  0  0  0  0  0  0  0  0  0
   21.6777  -17.0900    9.5573 C   0  0  0  0  0  0  0  0  0  0  0  0
   21.0849  -18.4418    9.1624 C   0  0  2  0  0  0  0  0  0  0  0  0
   19.6842  -18.3141    8.8233 N   0  0  0  0  0  0  0  0  0  0  0  0
   21.2815  -19.4335   10.2407 C   0  0  0  0  0  0  0  0  0  0  0  0
   22.2994  -20.3577   10.1159 O   0  0  0  0  0  0  0  0  0  0  0  0
   20.5586  -19.4628   11.2595 O   0  0  0  0  0  0  0  0  0  0  0  0
  2  4  1  0
  2  1  1  1
  3  2  1  0
  4  5  1  0
  5  6  1  1
  7  8  2  0
  7  5  1  0
  9 10  1  0
 10 12  1  0
 10 11  2  0
 12 13  1  0
 14 13  1  6
 14 15  1  0
 15  7  1  0
 16 17  2  0
 16 14  1  0
 19 18  1  0
 20 19  1  0
 20 21  1  0
 22 21  1  1
 22 23  1  0
 23 16  1  0
 24 22  1  0
 25 24  1  0
 26 24  2  0
M  END
$$$$
