LQM.pdb
     RDKit          3D

 26 25  0  0  1  0  0  0  0  0999 V2000
   21.8045  -17.6924  -16.8910 C   0  0  0  0  0  0  0  0  0  0  0  0
   21.6269  -18.7738  -15.8737 C   0  0  1  0  0  0  0  0  0  0  0  0
   20.4860  -19.7054  -16.2246 C   0  0  0  0  0  0  0  0  0  0  0  0
   22.9040  -19.5358  -15.6070 C   0  0  0  0  0  0  0  0  0  0  0  0
   23.0381  -19.9069  -14.1663 C   0  0  2  0  0  0  0  0  0  0  0  0
   22.8058  -18.7286  -13.3547 N   0  0  0  0  0  0  0  0  0  0  0  0
   24.3755  -20.4600  -13.8393 C   0  0  0  0  0  0  0  0  0  0  0  0
   24.7474  -21.5569  -14.3284 O   0  0  0  0  0  0  0  0  0  0  0  0
   28.9749  -21.0480  -14.7807 N   0  0  0  0  0  0  0  0  0  0  0  0
   28.3785  -19.8671  -15.2693 C   0  0  0  0  0  0  0  0  0  0  0  0
   28.5188  -19.6437  -16.5168 O   0  0  0  0  0  0  0  0  0  0  0  0
   27.6277  -18.9169  -14.4258 C   0  0  0  0  0  0  0  0  0  0  0  0
   27.6905  -19.3658  -13.0021 C   0  0  0  0  0  0  0  0  0  0  0  0
   26.5914  -20.3176  -12.6284 C   0  0  2  0  0  0  0  0  0  0  0  0
   25.2904  -19.7967  -12.9746 N   0  0  0  0  0  0  0  0  0  0  0  0
   26.6685  -20.7679  -11.2295 C   0  0  0  0  0  0  0  0  0  0  0  0
   27.7589  -21.3234  -10.8593 O   0  0  0  0  0  0  0  0  0  0  0  0
   28.5509  -19.4027   -4.3505 C   0  0  0  0  0  0  0  0  0  0  0  0
   28.3012  -19.0579   -6.1069 S   0  0  0  0  0  0  0  0  0  0  0  0
   27.1031  -20.1852   -6.8484 C   0  0  0  0  0  0  0  0  0  0  0  0
   26.9989  -19.9953   -8.3345 C   0  0  0  0  0  0  0  0  0  0  0  0
   25.9127  -20.9184   -8.8844 C   0  0  2  0  0  0  0  0  0  0  0  0
   25.6511  -20.6372  -10.2793 N   0  0  0  0  0  0  0  0  0  0  0  0
   24.6773  -20.8085   -8.0802 C   0  0  0  0  0  0  0  0  0  0  0  0
   24.6848  -21.2808   -6.7831 O   0  0  0  0  0  0  0  0  0  0  0  0
   23.6288  -20.3032   -8.5345 O   0  0  0  0  0  0  0  0  0  0  0  0
  2  4  1  0
  2  1  1  6
  3  2  1  0
  4  5  1  0
  5  6  1  1
  7  8  2  0
  7  5  1  0
  9 10  1  0
 10 12  1  0
 10 11  2  0
 12 13  1  0
 14 13  1  1
 14 15  1  0
 15  7  1  0
 16 17  2  0
 16 14  1  0
 19 18  1  0
 20 19  1  0
 20 21  1  0
 22 21  1  1
 22 23  1  0
 23 16  1  0
 24 22  1  0
 25 24  1  0
 26 24  2  0
M  END
$$$$
