LQM.pdb
     RDKit          3D

 26 25  0  0  1  0  0  0  0  0999 V2000
   18.3820  -20.7684   -0.0644 C   0  0  0  0  0  0  0  0  0  0  0  0
   17.1395  -20.9869    0.7383 C   0  0  1  0  0  0  0  0  0  0  0  0
   17.0205  -22.4146    1.2284 C   0  0  0  0  0  0  0  0  0  0  0  0
   16.9981  -19.9973    1.8711 C   0  0  0  0  0  0  0  0  0  0  0  0
   15.7215  -20.1920    2.6219 C   0  0  2  0  0  0  0  0  0  0  0  0
   14.6087  -19.9182    1.7342 N   0  0  0  0  0  0  0  0  0  0  0  0
   15.6162  -19.3109    3.8110 C   0  0  0  0  0  0  0  0  0  0  0  0
   15.1227  -18.1592    3.7079 O   0  0  0  0  0  0  0  0  0  0  0  0
   16.9816  -20.6415    9.7780 N   0  0  0  0  0  0  0  0  0  0  0  0
   16.2588  -19.4343    9.8724 C   0  0  0  0  0  0  0  0  0  0  0  0
   16.2361  -18.8835   11.0221 O   0  0  0  0  0  0  0  0  0  0  0  0
   15.5549  -18.8079    8.7364 C   0  0  0  0  0  0  0  0  0  0  0  0
   15.7297  -19.6572    7.5196 C   0  0  0  0  0  0  0  0  0  0  0  0
   15.9913  -18.8644    6.2721 C   0  0  2  0  0  0  0  0  0  0  0  0
   16.0574  -19.7096    5.1038 N   0  0  0  0  0  0  0  0  0  0  0  0
   17.1525  -17.9682    6.3905 C   0  0  0  0  0  0  0  0  0  0  0  0
   18.2800  -18.4265    5.9988 O   0  0  0  0  0  0  0  0  0  0  0  0
   20.5615  -10.9447    6.1461 C   0  0  0  0  0  0  0  0  0  0  0  0
   19.0167  -11.8527    6.3812 S   0  0  0  0  0  0  0  0  0  0  0  0
   19.3045  -13.6198    6.6066 C   0  0  0  0  0  0  0  0  0  0  0  0
   18.0218  -14.4007    6.6153 C   0  0  0  0  0  0  0  0  0  0  0  0
   18.3265  -15.8647    6.9291 C   0  0  2  0  0  0  0  0  0  0  0  0
   17.1211  -16.6640    6.8937 N   0  0  0  0  0  0  0  0  0  0  0  0
   19.0068  -15.9882    8.2356 C   0  0  0  0  0  0  0  0  0  0  0  0
   20.3805  -16.1235    8.2593 O   0  0  0  0  0  0  0  0  0  0  0  0
   18.3812  -15.9739    9.3171 O   0  0  0  0  0  0  0  0  0  0  0  0
  2  4  1  0
  2  1  1  1
  3  2  1  0
  4  5  1  0
  5  6  1  6
  7  8  2  0
  7  5  1  0
  9 10  1  0
 10 12  1  0
 10 11  2  0
 12 13  1  0
 14 13  1  1
 14 15  1  0
 15  7  1  0
 16 17  2  0
 16 14  1  0
 19 18  1  0
 20 19  1  0
 20 21  1  0
 22 21  1  1
 22 23  1  0
 23 16  1  0
 24 22  1  0
 25 24  1  0
 26 24  2  0
M  END
$$$$
