LQM.pdb
     RDKit          3D

 26 25  0  0  1  0  0  0  0  0999 V2000
   19.6688  -19.0004  -20.2930 C   0  0  0  0  0  0  0  0  0  0  0  0
   20.3084  -18.3469  -19.1099 C   0  0  1  0  0  0  0  0  0  0  0  0
   19.3125  -17.5581  -18.2861 C   0  0  0  0  0  0  0  0  0  0  0  0
   21.0855  -19.3223  -18.2571 C   0  0  0  0  0  0  0  0  0  0  0  0
   21.8115  -18.6337  -17.1480 C   0  0  2  0  0  0  0  0  0  0  0  0
   22.6139  -17.5632  -17.7059 N   0  0  0  0  0  0  0  0  0  0  0  0
   22.6952  -19.5501  -16.3859 C   0  0  0  0  0  0  0  0  0  0  0  0
   22.2337  -20.6043  -15.8796 O   0  0  0  0  0  0  0  0  0  0  0  0
   28.6428  -20.4350  -17.6398 N   0  0  0  0  0  0  0  0  0  0  0  0
   28.2932  -19.2179  -17.0192 C   0  0  0  0  0  0  0  0  0  0  0  0
   29.1216  -18.2590  -17.1605 O   0  0  0  0  0  0  0  0  0  0  0  0
   27.0539  -19.0186  -16.2428 C   0  0  0  0  0  0  0  0  0  0  0  0
   26.2993  -20.3066  -16.1799 C   0  0  0  0  0  0  0  0  0  0  0  0
   24.9724  -20.1867  -15.4882 C   0  0  2  0  0  0  0  0  0  0  0  0
   24.0810  -19.2938  -16.1895 N   0  0  0  0  0  0  0  0  0  0  0  0
   25.0941  -19.8597  -14.0586 C   0  0  0  0  0  0  0  0  0  0  0  0
   24.8724  -18.6465  -13.7212 O   0  0  0  0  0  0  0  0  0  0  0  0
   20.6226  -21.2352  -10.2077 C   0  0  0  0  0  0  0  0  0  0  0  0
   21.5675  -19.7741   -9.7191 S   0  0  0  0  0  0  0  0  0  0  0  0
   23.3329  -19.9818  -10.0296 C   0  0  0  0  0  0  0  0  0  0  0  0
   23.6241  -20.2045  -11.4860 C   0  0  0  0  0  0  0  0  0  0  0  0
   25.1189  -20.4651  -11.6657 C   0  0  2  0  0  0  0  0  0  0  0  0
   25.4304  -20.7640  -13.0465 N   0  0  0  0  0  0  0  0  0  0  0  0
   25.5706  -21.5528  -10.7724 C   0  0  0  0  0  0  0  0  0  0  0  0
   25.6084  -22.8427  -11.2628 O   0  0  0  0  0  0  0  0  0  0  0  0
   25.9188  -21.3439   -9.5908 O   0  0  0  0  0  0  0  0  0  0  0  0
  2  4  1  0
  2  1  1  6
  3  2  1  0
  4  5  1  0
  5  6  1  6
  7  8  2  0
  7  5  1  0
  9 10  1  0
 10 12  1  0
 10 11  2  0
 12 13  1  0
 14 13  1  6
 14 15  1  0
 15  7  1  0
 16 17  2  0
 16 14  1  0
 19 18  1  0
 20 19  1  0
 20 21  1  0
 22 21  1  6
 22 23  1  0
 23 16  1  0
 24 22  1  0
 25 24  1  0
 26 24  2  0
M  END
$$$$
