LQM.pdb
     RDKit          3D

 26 25  0  0  1  0  0  0  0  0999 V2000
   20.4848  -12.6886  -21.7984 C   0  0  0  0  0  0  0  0  0  0  0  0
   20.9178  -12.6715  -20.3673 C   0  0  1  0  0  0  0  0  0  0  0  0
   21.9436  -13.7443  -20.0687 C   0  0  0  0  0  0  0  0  0  0  0  0
   21.3932  -11.3088  -19.9205 C   0  0  0  0  0  0  0  0  0  0  0  0
   21.6178  -11.2558  -18.4446 C   0  0  2  0  0  0  0  0  0  0  0  0
   20.8594  -12.3193  -17.8162 N   0  0  0  0  0  0  0  0  0  0  0  0
   21.2114   -9.9589  -17.8495 C   0  0  0  0  0  0  0  0  0  0  0  0
   21.7356   -8.8861  -18.2431 O   0  0  0  0  0  0  0  0  0  0  0  0
   16.0227   -9.0242  -14.2666 N   0  0  0  0  0  0  0  0  0  0  0  0
   16.5478   -7.7328  -14.4796 C   0  0  0  0  0  0  0  0  0  0  0  0
   15.8303   -6.7618  -14.0695 O   0  0  0  0  0  0  0  0  0  0  0  0
   17.8450   -7.4715  -15.1333 C   0  0  0  0  0  0  0  0  0  0  0  0
   18.4512   -8.7684  -15.5611 C   0  0  0  0  0  0  0  0  0  0  0  0
   19.7569   -8.6062  -16.2837 C   0  0  2  0  0  0  0  0  0  0  0  0
   20.2294   -9.8583  -16.8246 N   0  0  0  0  0  0  0  0  0  0  0  0
   20.7780   -7.9128  -15.4823 C   0  0  0  0  0  0  0  0  0  0  0  0
   21.8436   -8.5656  -15.2120 O   0  0  0  0  0  0  0  0  0  0  0  0
   26.5784   -3.8153  -16.5900 C   0  0  0  0  0  0  0  0  0  0  0  0
   25.0906   -4.7489  -17.0157 S   0  0  0  0  0  0  0  0  0  0  0  0
   23.9740   -4.9107  -15.6074 C   0  0  0  0  0  0  0  0  0  0  0  0
   22.7592   -5.7265  -15.9454 C   0  0  0  0  0  0  0  0  0  0  0  0
   21.8684   -5.8377  -14.7089 C   0  0  2  0  0  0  0  0  0  0  0  0
   20.6765   -6.6056  -14.9965 N   0  0  0  0  0  0  0  0  0  0  0  0
   21.5237   -4.4969  -14.1911 C   0  0  0  0  0  0  0  0  0  0  0  0
   22.3609   -3.9066  -13.2657 O   0  0  0  0  0  0  0  0  0  0  0  0
   20.5019   -3.8811  -14.5625 O   0  0  0  0  0  0  0  0  0  0  0  0
  2  4  1  0
  2  1  1  6
  3  2  1  0
  4  5  1  0
  5  6  1  1
  7  8  2  0
  7  5  1  0
  9 10  1  0
 10 12  1  0
 10 11  2  0
 12 13  1  0
 14 13  1  1
 14 15  1  0
 15  7  1  0
 16 17  2  0
 16 14  1  0
 19 18  1  0
 20 19  1  0
 20 21  1  0
 22 21  1  6
 22 23  1  0
 23 16  1  0
 24 22  1  0
 25 24  1  0
 26 24  2  0
M  END
$$$$
