LQM.pdb
     RDKit          3D

 26 25  0  0  1  0  0  0  0  0999 V2000
   20.7347  -19.2380  -17.2842 C   0  0  0  0  0  0  0  0  0  0  0  0
   21.5775  -18.8464  -16.1127 C   0  0  1  0  0  0  0  0  0  0  0  0
   20.8239  -17.9693  -15.1354 C   0  0  0  0  0  0  0  0  0  0  0  0
   22.2023  -20.0366  -15.4230 C   0  0  0  0  0  0  0  0  0  0  0  0
   23.0452  -19.6249  -14.2605 C   0  0  2  0  0  0  0  0  0  0  0  0
   23.8893  -18.5169  -14.6621 N   0  0  0  0  0  0  0  0  0  0  0  0
   23.9035  -20.7254  -13.7570 C   0  0  0  0  0  0  0  0  0  0  0  0
   23.3914  -21.8091  -13.3776 O   0  0  0  0  0  0  0  0  0  0  0  0
   30.0800  -21.1734  -12.7100 N   0  0  0  0  0  0  0  0  0  0  0  0
   29.4290  -20.1249  -13.3922 C   0  0  0  0  0  0  0  0  0  0  0  0
   30.0893  -19.0409  -13.5140 O   0  0  0  0  0  0  0  0  0  0  0  0
   28.0661  -20.2292  -13.9490 C   0  0  0  0  0  0  0  0  0  0  0  0
   27.5469  -21.6122  -13.7252 C   0  0  0  0  0  0  0  0  0  0  0  0
   26.1732  -21.6424  -13.1206 C   0  0  2  0  0  0  0  0  0  0  0  0
   25.3203  -20.6190  -13.6766 N   0  0  0  0  0  0  0  0  0  0  0  0
   26.1896  -21.6297  -11.6492 C   0  0  0  0  0  0  0  0  0  0  0  0
   26.9810  -22.4514  -11.0718 O   0  0  0  0  0  0  0  0  0  0  0  0
   29.1161  -20.2576   -5.9237 C   0  0  0  0  0  0  0  0  0  0  0  0
   27.7338  -19.2257   -6.4630 S   0  0  0  0  0  0  0  0  0  0  0  0
   26.4498  -20.1966   -7.2783 C   0  0  0  0  0  0  0  0  0  0  0  0
   26.5528  -20.1192   -8.7746 C   0  0  0  0  0  0  0  0  0  0  0  0
   25.4339  -20.9513   -9.3993 C   0  0  2  0  0  0  0  0  0  0  0  0
   25.4140  -20.7961  -10.8376 N   0  0  0  0  0  0  0  0  0  0  0  0
   24.1263  -20.5954   -8.8090 C   0  0  0  0  0  0  0  0  0  0  0  0
   23.8988  -20.8800   -7.4775 O   0  0  0  0  0  0  0  0  0  0  0  0
   23.2220  -20.0463   -9.4738 O   0  0  0  0  0  0  0  0  0  0  0  0
  2  4  1  0
  2  1  1  6
  3  2  1  0
  4  5  1  0
  5  6  1  6
  7  8  2  0
  7  5  1  0
  9 10  1  0
 10 12  1  0
 10 11  2  0
 12 13  1  0
 14 13  1  6
 14 15  1  0
 15  7  1  0
 16 17  2  0
 16 14  1  0
 19 18  1  0
 20 19  1  0
 20 21  1  0
 22 21  1  1
 22 23  1  0
 23 16  1  0
 24 22  1  0
 25 24  1  0
 26 24  2  0
M  END
$$$$
