LQM.pdb
     RDKit          3D

 26 25  0  0  1  0  0  0  0  0999 V2000
   19.7979  -14.9609  -19.1229 C   0  0  0  0  0  0  0  0  0  0  0  0
   19.0122  -13.7667  -18.6839 C   0  0  1  0  0  0  0  0  0  0  0  0
   18.0537  -14.0964  -17.5592 C   0  0  0  0  0  0  0  0  0  0  0  0
   19.8918  -12.5885  -18.3365 C   0  0  0  0  0  0  0  0  0  0  0  0
   19.0952  -11.4335  -17.8237 C   0  0  2  0  0  0  0  0  0  0  0  0
   18.0864  -11.0867  -18.8052 N   0  0  0  0  0  0  0  0  0  0  0  0
   19.9305  -10.2382  -17.5497 C   0  0  0  0  0  0  0  0  0  0  0  0
   20.9038  -10.3102  -16.7572 O   0  0  0  0  0  0  0  0  0  0  0  0
   18.8120   -4.3231  -18.7837 N   0  0  0  0  0  0  0  0  0  0  0  0
   20.2197   -4.3022  -18.7033 C   0  0  0  0  0  0  0  0  0  0  0  0
   20.7561   -3.1532  -18.5699 O   0  0  0  0  0  0  0  0  0  0  0  0
   21.0637   -5.5115  -18.7652 C   0  0  0  0  0  0  0  0  0  0  0  0
   20.1905   -6.7143  -18.9179 C   0  0  0  0  0  0  0  0  0  0  0  0
   20.4987   -7.8034  -17.9318 C   0  0  2  0  0  0  0  0  0  0  0  0
   19.6830   -8.9736  -18.1533 N   0  0  0  0  0  0  0  0  0  0  0  0
   20.4640   -7.3437  -16.5344 C   0  0  0  0  0  0  0  0  0  0  0  0
   19.3162   -7.2770  -15.9751 O   0  0  0  0  0  0  0  0  0  0  0  0
   22.3892  -10.4201  -11.9018 C   0  0  0  0  0  0  0  0  0  0  0  0
   22.2828   -8.8659  -10.9856 S   0  0  0  0  0  0  0  0  0  0  0  0
   21.8641   -7.4795  -12.0622 C   0  0  0  0  0  0  0  0  0  0  0  0
   21.9621   -7.8476  -13.5149 C   0  0  0  0  0  0  0  0  0  0  0  0
   21.4396   -6.6894  -14.3634 C   0  0  2  0  0  0  0  0  0  0  0  0
   21.5789   -6.9767  -15.7744 N   0  0  0  0  0  0  0  0  0  0  0  0
   22.1269   -5.4299  -14.0080 C   0  0  0  0  0  0  0  0  0  0  0  0
   23.1916   -5.0129  -14.7815 O   0  0  0  0  0  0  0  0  0  0  0  0
   21.7767   -4.7315  -13.0329 O   0  0  0  0  0  0  0  0  0  0  0  0
  2  4  1  0
  2  1  1  1
  3  2  1  0
  4  5  1  0
  5  6  1  6
  7  8  2  0
  7  5  1  0
  9 10  1  0
 10 12  1  0
 10 11  2  0
 12 13  1  0
 14 13  1  6
 14 15  1  0
 15  7  1  0
 16 17  2  0
 16 14  1  0
 19 18  1  0
 20 19  1  0
 20 21  1  0
 22 21  1  1
 22 23  1  0
 23 16  1  0
 24 22  1  0
 25 24  1  0
 26 24  2  0
M  END
$$$$
