LQM.pdb
     RDKit          3D

 26 25  0  0  1  0  0  0  0  0999 V2000
   20.0453  -17.3605  -14.9735 C   0  0  0  0  0  0  0  0  0  0  0  0
   18.9915  -16.4495  -15.5171 C   0  0  1  0  0  0  0  0  0  0  0  0
   17.9281  -16.1289  -14.4880 C   0  0  0  0  0  0  0  0  0  0  0  0
   19.5681  -15.1944  -16.1293 C   0  0  0  0  0  0  0  0  0  0  0  0
   18.5011  -14.3019  -16.6739 C   0  0  2  0  0  0  0  0  0  0  0  0
   17.8639  -14.9631  -17.7956 N   0  0  0  0  0  0  0  0  0  0  0  0
   19.0268  -12.9897  -17.1246 C   0  0  0  0  0  0  0  0  0  0  0  0
   19.5574  -12.8721  -18.2582 O   0  0  0  0  0  0  0  0  0  0  0  0
   16.6323   -7.3007  -16.6571 N   0  0  0  0  0  0  0  0  0  0  0  0
   16.7334   -8.1456  -15.5326 C   0  0  0  0  0  0  0  0  0  0  0  0
   16.0713   -7.7891  -14.5029 O   0  0  0  0  0  0  0  0  0  0  0  0
   17.5441   -9.3786  -15.5023 C   0  0  0  0  0  0  0  0  0  0  0  0
   18.2413   -9.5422  -16.8136 C   0  0  0  0  0  0  0  0  0  0  0  0
   19.3858  -10.5122  -16.7631 C   0  0  2  0  0  0  0  0  0  0  0  0
   18.9619  -11.8186  -16.3187 N   0  0  0  0  0  0  0  0  0  0  0  0
   20.5413  -10.0031  -16.0073 C   0  0  0  0  0  0  0  0  0  0  0  0
   20.5404  -10.2021  -14.7444 O   0  0  0  0  0  0  0  0  0  0  0  0
   26.4644  -11.3312  -16.0287 C   0  0  0  0  0  0  0  0  0  0  0  0
   26.6143   -9.7619  -15.1449 S   0  0  0  0  0  0  0  0  0  0  0  0
   25.0226   -8.9267  -14.9855 C   0  0  0  0  0  0  0  0  0  0  0  0
   23.9695   -9.5559  -15.8518 C   0  0  0  0  0  0  0  0  0  0  0  0
   22.6626   -8.7793  -15.6987 C   0  0  2  0  0  0  0  0  0  0  0  0
   21.6329   -9.3237  -16.5568 N   0  0  0  0  0  0  0  0  0  0  0  0
   22.8743   -7.3418  -15.9702 C   0  0  0  0  0  0  0  0  0  0  0  0
   23.2094   -6.5098  -14.9208 O   0  0  0  0  0  0  0  0  0  0  0  0
   22.7606   -6.8558  -17.1156 O   0  0  0  0  0  0  0  0  0  0  0  0
  2  4  1  0
  2  1  1  1
  3  2  1  0
  4  5  1  0
  5  6  1  6
  7  8  2  0
  7  5  1  0
  9 10  1  0
 10 12  1  0
 10 11  2  0
 12 13  1  0
 14 13  1  1
 14 15  1  0
 15  7  1  0
 16 17  2  0
 16 14  1  0
 19 18  1  0
 20 19  1  0
 20 21  1  0
 22 21  1  6
 22 23  1  0
 23 16  1  0
 24 22  1  0
 25 24  1  0
 26 24  2  0
M  END
$$$$
