LQM.pdb
     RDKit          3D

 26 25  0  0  1  0  0  0  0  0999 V2000
   30.7711  -22.4609  -18.4551 C   0  0  0  0  0  0  0  0  0  0  0  0
   29.4412  -21.9132  -18.8641 C   0  0  1  0  0  0  0  0  0  0  0  0
   28.5061  -22.9961  -19.3595 C   0  0  0  0  0  0  0  0  0  0  0  0
   28.7991  -21.0778  -17.7814 C   0  0  0  0  0  0  0  0  0  0  0  0
   27.4649  -20.5542  -18.2023 C   0  0  2  0  0  0  0  0  0  0  0  0
   27.6610  -19.4991  -19.1767 N   0  0  0  0  0  0  0  0  0  0  0  0
   26.6753  -20.0187  -17.0660 C   0  0  0  0  0  0  0  0  0  0  0  0
   27.0460  -18.9764  -16.4686 O   0  0  0  0  0  0  0  0  0  0  0  0
   22.3653  -17.5454  -16.1835 N   0  0  0  0  0  0  0  0  0  0  0  0
   21.9614  -18.2591  -15.0362 C   0  0  0  0  0  0  0  0  0  0  0  0
   21.2459  -17.6158  -14.1995 O   0  0  0  0  0  0  0  0  0  0  0  0
   22.3206  -19.6669  -14.7763 C   0  0  0  0  0  0  0  0  0  0  0  0
   23.2040  -20.1609  -15.8755 C   0  0  0  0  0  0  0  0  0  0  0  0
   24.6649  -20.1105  -15.5340 C   0  0  2  0  0  0  0  0  0  0  0  0
   25.4829  -20.6395  -16.5992 N   0  0  0  0  0  0  0  0  0  0  0  0
   24.9737  -20.7143  -14.2280 C   0  0  0  0  0  0  0  0  0  0  0  0
   24.9229  -21.9897  -14.1532 O   0  0  0  0  0  0  0  0  0  0  0  0
   27.2623  -20.4189   -6.6605 C   0  0  0  0  0  0  0  0  0  0  0  0
   26.8344  -19.4620   -8.1327 S   0  0  0  0  0  0  0  0  0  0  0  0
   26.1943  -20.5123   -9.4531 C   0  0  0  0  0  0  0  0  0  0  0  0
   26.1060  -19.7788  -10.7606 C   0  0  0  0  0  0  0  0  0  0  0  0
   25.5179  -20.7093  -11.8203 C   0  0  2  0  0  0  0  0  0  0  0  0
   25.3163  -20.0091  -13.0702 N   0  0  0  0  0  0  0  0  0  0  0  0
   24.2572  -21.3150  -11.3421 C   0  0  0  0  0  0  0  0  0  0  0  0
   24.2806  -22.6118  -10.8695 O   0  0  0  0  0  0  0  0  0  0  0  0
   23.1734  -20.6933  -11.3511 O   0  0  0  0  0  0  0  0  0  0  0  0
  2  4  1  0
  2  1  1  1
  3  2  1  0
  4  5  1  0
  5  6  1  6
  7  8  2  0
  7  5  1  0
  9 10  1  0
 10 12  1  0
 10 11  2  0
 12 13  1  0
 14 13  1  6
 14 15  1  0
 15  7  1  0
 16 17  2  0
 16 14  1  0
 19 18  1  0
 20 19  1  0
 20 21  1  0
 22 21  1  1
 22 23  1  0
 23 16  1  0
 24 22  1  0
 25 24  1  0
 26 24  2  0
M  END
$$$$
