LQM.pdb
     RDKit          3D

 26 25  0  0  1  0  0  0  0  0999 V2000
   23.6391  -12.0717  -18.0948 C   0  0  0  0  0  0  0  0  0  0  0  0
   22.6763  -12.8241  -17.2329 C   0  0  1  0  0  0  0  0  0  0  0  0
   23.0392  -12.7411  -15.7653 C   0  0  0  0  0  0  0  0  0  0  0  0
   21.2412  -12.4182  -17.4739 C   0  0  0  0  0  0  0  0  0  0  0  0
   20.3021  -13.1261  -16.5528 C   0  0  2  0  0  0  0  0  0  0  0  0
   20.2507  -14.5271  -16.9210 N   0  0  0  0  0  0  0  0  0  0  0  0
   18.9283  -12.5671  -16.5947 C   0  0  0  0  0  0  0  0  0  0  0  0
   18.4451  -12.1468  -17.6766 O   0  0  0  0  0  0  0  0  0  0  0  0
   14.1441  -14.8228  -13.4830 N   0  0  0  0  0  0  0  0  0  0  0  0
   13.5759  -13.7612  -14.2171 C   0  0  0  0  0  0  0  0  0  0  0  0
   12.3019  -13.7165  -14.2422 O   0  0  0  0  0  0  0  0  0  0  0  0
   14.3676  -12.7396  -14.9298 C   0  0  0  0  0  0  0  0  0  0  0  0
   15.8182  -13.0845  -14.8330 C   0  0  0  0  0  0  0  0  0  0  0  0
   16.7166  -12.0670  -15.4742 C   0  0  2  0  0  0  0  0  0  0  0  0
   18.1003  -12.4770  -15.4409 N   0  0  0  0  0  0  0  0  0  0  0  0
   16.5151  -10.7068  -14.9500 C   0  0  0  0  0  0  0  0  0  0  0  0
   16.9581  -10.4677  -13.7747 O   0  0  0  0  0  0  0  0  0  0  0  0
   10.0091   -8.1922  -13.1450 C   0  0  0  0  0  0  0  0  0  0  0  0
   11.5501   -9.1241  -12.9934 S   0  0  0  0  0  0  0  0  0  0  0  0
   12.8117   -8.5254  -14.1363 C   0  0  0  0  0  0  0  0  0  0  0  0
   14.1052   -9.2736  -13.9864 C   0  0  0  0  0  0  0  0  0  0  0  0
   15.1578   -8.6457  -14.8987 C   0  0  2  0  0  0  0  0  0  0  0  0
   15.8822   -9.6621  -15.6304 N   0  0  0  0  0  0  0  0  0  0  0  0
   16.0810   -7.7924  -14.1210 C   0  0  0  0  0  0  0  0  0  0  0  0
   15.7260   -6.4811  -13.8756 O   0  0  0  0  0  0  0  0  0  0  0  0
   17.1696   -8.2178  -13.6792 O   0  0  0  0  0  0  0  0  0  0  0  0
  2  4  1  0
  2  1  1  6
  3  2  1  0
  4  5  1  0
  5  6  1  6
  7  8  2  0
  7  5  1  0
  9 10  1  0
 10 12  1  0
 10 11  2  0
 12 13  1  0
 14 13  1  1
 14 15  1  0
 15  7  1  0
 16 17  2  0
 16 14  1  0
 19 18  1  0
 20 19  1  0
 20 21  1  0
 22 21  1  1
 22 23  1  0
 23 16  1  0
 24 22  1  0
 25 24  1  0
 26 24  2  0
M  END
$$$$
