LQM.pdb
     RDKit          3D

 26 25  0  0  1  0  0  0  0  0999 V2000
   28.0666  -16.2493  -17.0545 C   0  0  0  0  0  0  0  0  0  0  0  0
   27.9501  -17.6174  -16.4624 C   0  0  1  0  0  0  0  0  0  0  0  0
   29.2932  -18.3075  -16.3517 C   0  0  0  0  0  0  0  0  0  0  0  0
   27.2148  -17.6184  -15.1426 C   0  0  0  0  0  0  0  0  0  0  0  0
   27.2571  -18.9590  -14.4849 C   0  0  2  0  0  0  0  0  0  0  0  0
   26.6992  -19.9437  -15.3906 N   0  0  0  0  0  0  0  0  0  0  0  0
   26.4999  -18.9954  -13.2094 C   0  0  0  0  0  0  0  0  0  0  0  0
   26.4806  -17.9920  -12.4520 O   0  0  0  0  0  0  0  0  0  0  0  0
   21.2745  -22.2004  -12.5412 N   0  0  0  0  0  0  0  0  0  0  0  0
   21.5288  -20.9457  -13.1327 C   0  0  0  0  0  0  0  0  0  0  0  0
   20.6002  -20.4752  -13.8690 O   0  0  0  0  0  0  0  0  0  0  0  0
   22.7791  -20.1855  -12.9402 C   0  0  0  0  0  0  0  0  0  0  0  0
   23.6143  -20.8650  -11.9041 C   0  0  0  0  0  0  0  0  0  0  0  0
   24.9084  -20.1577  -11.6241 C   0  0  2  0  0  0  0  0  0  0  0  0
   25.7710  -20.1401  -12.7814 N   0  0  0  0  0  0  0  0  0  0  0  0
   25.5883  -20.6542  -10.4171 C   0  0  0  0  0  0  0  0  0  0  0  0
   26.1430  -21.8034  -10.4963 O   0  0  0  0  0  0  0  0  0  0  0  0
   29.6958  -18.8830   -5.4710 C   0  0  0  0  0  0  0  0  0  0  0  0
   28.2136  -19.5527   -4.6832 S   0  0  0  0  0  0  0  0  0  0  0  0
   27.2356  -20.5466   -5.8287 C   0  0  0  0  0  0  0  0  0  0  0  0
   26.8835  -19.7841   -7.0737 C   0  0  0  0  0  0  0  0  0  0  0  0
   26.0530  -20.6784   -7.9929 C   0  0  2  0  0  0  0  0  0  0  0  0
   25.6756  -19.9737   -9.1988 N   0  0  0  0  0  0  0  0  0  0  0  0
   24.8622  -21.1933   -7.2845 C   0  0  0  0  0  0  0  0  0  0  0  0
   25.0361  -22.1360   -6.2911 O   0  0  0  0  0  0  0  0  0  0  0  0
   23.7059  -20.8042   -7.5542 O   0  0  0  0  0  0  0  0  0  0  0  0
  2  4  1  0
  2  1  1  1
  3  2  1  0
  4  5  1  0
  5  6  1  6
  7  8  2  0
  7  5  1  0
  9 10  1  0
 10 12  1  0
 10 11  2  0
 12 13  1  0
 14 13  1  6
 14 15  1  0
 15  7  1  0
 16 17  2  0
 16 14  1  0
 19 18  1  0
 20 19  1  0
 20 21  1  0
 22 21  1  1
 22 23  1  0
 23 16  1  0
 24 22  1  0
 25 24  1  0
 26 24  2  0
M  END
$$$$
