LQM.pdb
     RDKit          3D

 26 25  0  0  1  0  0  0  0  0999 V2000
   16.2457  -15.4974  -15.7720 C   0  0  0  0  0  0  0  0  0  0  0  0
   15.9475  -14.0323  -15.7937 C   0  0  1  0  0  0  0  0  0  0  0  0
   15.2463  -13.5740  -14.5325 C   0  0  0  0  0  0  0  0  0  0  0  0
   17.1708  -13.1948  -16.0846 C   0  0  0  0  0  0  0  0  0  0  0  0
   16.8697  -11.7330  -16.0243 C   0  0  2  0  0  0  0  0  0  0  0  0
   15.8678  -11.4187  -17.0237 N   0  0  0  0  0  0  0  0  0  0  0  0
   18.0678  -10.8909  -16.2631 C   0  0  0  0  0  0  0  0  0  0  0  0
   19.0901  -11.0200  -15.5427 O   0  0  0  0  0  0  0  0  0  0  0  0
   19.0477   -7.0629  -21.2946 N   0  0  0  0  0  0  0  0  0  0  0  0
   20.2267   -6.9563  -20.5283 C   0  0  0  0  0  0  0  0  0  0  0  0
   21.1530   -6.2333  -21.0234 O   0  0  0  0  0  0  0  0  0  0  0  0
   20.4228   -7.6230  -19.2262 C   0  0  0  0  0  0  0  0  0  0  0  0
   19.1887   -8.3881  -18.8737 C   0  0  0  0  0  0  0  0  0  0  0  0
   19.2693   -9.0656  -17.5366 C   0  0  2  0  0  0  0  0  0  0  0  0
   18.1260   -9.9134  -17.2955 N   0  0  0  0  0  0  0  0  0  0  0  0
   19.5255   -8.1302  -16.4298 C   0  0  0  0  0  0  0  0  0  0  0  0
   18.5068   -7.5712  -15.8965 O   0  0  0  0  0  0  0  0  0  0  0  0
   22.7047   -9.1043  -11.1696 C   0  0  0  0  0  0  0  0  0  0  0  0
   22.6001   -7.3025  -11.0753 S   0  0  0  0  0  0  0  0  0  0  0  0
   21.7022   -6.6081  -12.4781 C   0  0  0  0  0  0  0  0  0  0  0  0
   21.6810   -7.5461  -13.6507 C   0  0  0  0  0  0  0  0  0  0  0  0
   20.9096   -6.8978  -14.7993 C   0  0  2  0  0  0  0  0  0  0  0  0
   20.7859   -7.8064  -15.9184 N   0  0  0  0  0  0  0  0  0  0  0  0
   21.5526   -5.6323  -15.2118 C   0  0  0  0  0  0  0  0  0  0  0  0
   21.2269   -4.4716  -14.5393 O   0  0  0  0  0  0  0  0  0  0  0  0
   22.3796   -5.5786  -16.1469 O   0  0  0  0  0  0  0  0  0  0  0  0
  2  4  1  0
  2  1  1  1
  3  2  1  0
  4  5  1  0
  5  6  1  6
  7  8  2  0
  7  5  1  0
  9 10  1  0
 10 12  1  0
 10 11  2  0
 12 13  1  0
 14 13  1  6
 14 15  1  0
 15  7  1  0
 16 17  2  0
 16 14  1  0
 19 18  1  0
 20 19  1  0
 20 21  1  0
 22 21  1  1
 22 23  1  0
 23 16  1  0
 24 22  1  0
 25 24  1  0
 26 24  2  0
M  END
$$$$
