LQM.pdb
     RDKit          3D

 26 25  0  0  1  0  0  0  0  0999 V2000
   28.3152  -36.7994  -14.7847 C   0  0  0  0  0  0  0  0  0  0  0  0
   27.1534  -35.9439  -14.3921 C   0  0  1  0  0  0  0  0  0  0  0  0
   25.8968  -36.7573  -14.1649 C   0  0  0  0  0  0  0  0  0  0  0  0
   27.4604  -35.0544  -13.2100 C   0  0  0  0  0  0  0  0  0  0  0  0
   26.3299  -34.1268  -12.9052 C   0  0  2  0  0  0  0  0  0  0  0  0
   26.2728  -33.1039  -13.9307 N   0  0  0  0  0  0  0  0  0  0  0  0
   26.4669  -33.4726  -11.5806 C   0  0  0  0  0  0  0  0  0  0  0  0
   27.2060  -32.4651  -11.4418 O   0  0  0  0  0  0  0  0  0  0  0  0
   22.1588  -33.1388   -7.0811 N   0  0  0  0  0  0  0  0  0  0  0  0
   23.2906  -32.5366   -6.4936 C   0  0  0  0  0  0  0  0  0  0  0  0
   23.0980  -31.9532   -5.3763 O   0  0  0  0  0  0  0  0  0  0  0  0
   24.6369  -32.5546   -7.0980 C   0  0  0  0  0  0  0  0  0  0  0  0
   24.5618  -33.1869   -8.4497 C   0  0  0  0  0  0  0  0  0  0  0  0
   25.8980  -33.3189   -9.1209 C   0  0  2  0  0  0  0  0  0  0  0  0
   25.7862  -33.9372  -10.4205 N   0  0  0  0  0  0  0  0  0  0  0  0
   26.9101  -33.9650   -8.2702 C   0  0  0  0  0  0  0  0  0  0  0  0
   26.8965  -35.2426   -8.2228 O   0  0  0  0  0  0  0  0  0  0  0  0
   33.0509  -32.5070   -7.5927 C   0  0  0  0  0  0  0  0  0  0  0  0
   32.9027  -33.7331   -6.2732 S   0  0  0  0  0  0  0  0  0  0  0  0
   31.1990  -34.2889   -6.0618 C   0  0  0  0  0  0  0  0  0  0  0  0
   30.2329  -33.4473   -6.8453 C   0  0  0  0  0  0  0  0  0  0  0  0
   28.8319  -34.0447   -6.7232 C   0  0  2  0  0  0  0  0  0  0  0  0
   27.8791  -33.2975   -7.5150 N   0  0  0  0  0  0  0  0  0  0  0  0
   28.4121  -34.1069   -5.3072 C   0  0  0  0  0  0  0  0  0  0  0  0
   29.0894  -34.9508   -4.4499 O   0  0  0  0  0  0  0  0  0  0  0  0
   27.4667  -33.4223   -4.8614 O   0  0  0  0  0  0  0  0  0  0  0  0
  2  4  1  0
  2  1  1  1
  3  2  1  0
  4  5  1  0
  5  6  1  6
  7  8  2  0
  7  5  1  0
  9 10  1  0
 10 12  1  0
 10 11  2  0
 12 13  1  0
 14 13  1  1
 14 15  1  0
 15  7  1  0
 16 17  2  0
 16 14  1  0
 19 18  1  0
 20 19  1  0
 20 21  1  0
 22 21  1  1
 22 23  1  0
 23 16  1  0
 24 22  1  0
 25 24  1  0
 26 24  2  0
M  END
$$$$
