TRE.pdb
     RDKit          3D

 28 27  0  0  1  0  0  0  0  0999 V2000
   10.2486  -13.4099   18.6728 C   0  0  0  0  0  0  0  0  0  0  0  0
    8.9417  -12.7117   18.8719 C   0  0  1  0  0  0  0  0  0  0  0  0
    8.7458  -11.8124   17.8248 O   0  0  0  0  0  0  0  0  0  0  0  0
    7.7824  -13.6586   19.0444 C   0  0  2  0  0  0  0  0  0  0  0  0
    6.5807  -12.8609   19.1405 N   0  0  0  0  0  0  0  0  0  0  0  0
    7.9208  -14.5454   20.2148 C   0  0  0  0  0  0  0  0  0  0  0  0
    7.6735  -14.0786   21.3671 O   0  0  0  0  0  0  0  0  0  0  0  0
    9.7832  -19.8744   16.8053 N   0  0  0  0  0  0  0  0  0  0  0  0
   10.7070  -20.5175   17.6687 C   0  0  0  0  0  0  0  0  0  0  0  0
   11.8282  -20.9670   17.2367 N   0  0  0  0  0  0  0  0  0  0  0  0
   10.4211  -20.6909   19.0660 N   0  0  0  0  0  0  0  0  0  0  0  0
    9.2154  -20.1285   19.6313 C   0  0  0  0  0  0  0  0  0  0  0  0
    9.4859  -18.7300   20.1900 C   0  0  0  0  0  0  0  0  0  0  0  0
    8.1804  -18.1860   20.7548 C   0  0  0  0  0  0  0  0  0  0  0  0
    8.3826  -16.7812   21.2857 C   0  0  2  0  0  0  0  0  0  0  0  0
    8.3141  -15.8942   20.1410 N   0  0  0  0  0  0  0  0  0  0  0  0
    9.6684  -16.7027   21.9876 C   0  0  0  0  0  0  0  0  0  0  0  0
   10.7270  -16.4819   21.3499 O   0  0  0  0  0  0  0  0  0  0  0  0
   12.5369  -21.3046   17.9078 N   0  0  0  0  0  0  0  0  0  0  0  0
    9.7692  -16.8703   23.3946 C   0  0  2  0  0  0  0  0  0  0  0  0
   11.0580  -16.6322   24.0738 C   0  0  0  0  0  0  0  0  0  0  0  0
   10.8022  -16.5626   25.5472 C   0  0  0  0  0  0  0  0  0  0  0  0
    9.5671  -15.8253   25.9468 C   0  0  0  0  0  0  0  0  0  0  0  0
    9.3563  -15.6624   27.3808 O   0  0  0  0  0  0  0  0  0  0  0  0
    8.7888  -14.6539   27.8486 C   0  0  0  0  0  0  0  0  0  0  0  0
   12.0310  -17.6732   23.6738 O   0  0  0  0  0  0  0  0  0  0  0  0
   13.4112  -17.4437   23.8171 O   0  0  0  0  0  0  0  0  0  0  0  0
    9.7914  -16.6423   28.2535 O   0  0  0  0  0  0  0  0  0  0  0  0
  2  1  1  6
  2  3  1  0
  4  2  1  0
  4  6  1  0
  4  5  1  1
  6  7  2  0
  9 10  2  0
  9  8  1  0
 11  9  1  0
 12 11  1  0
 13 12  1  0
 14 13  1  0
 15 14  1  6
 16  6  1  0
 16 15  1  0
 17 15  1  0
 17 19  1  0
 18 17  2  0
 20 19  1  0
 20 21  1  1
 21 22  1  0
 22 23  1  0
 23 24  2  0
 23 27  1  0
 25 26  1  0
 25 20  1  0
 28 25  2  0
M  END
$$$$
