TRE.pdb
     RDKit          3D

 28 27  0  0  1  0  0  0  0  0999 V2000
    6.7993  -10.8225   26.5558 C   0  0  0  0  0  0  0  0  0  0  0  0
    7.3552  -12.1347   26.1035 C   0  0  1  0  0  0  0  0  0  0  0  0
    8.1951  -12.6360   27.0968 O   0  0  0  0  0  0  0  0  0  0  0  0
    6.2921  -13.1209   25.6941 C   0  0  2  0  0  0  0  0  0  0  0  0
    5.4083  -13.3006   26.8237 N   0  0  0  0  0  0  0  0  0  0  0  0
    6.8376  -14.4142   25.2412 C   0  0  0  0  0  0  0  0  0  0  0  0
    6.9334  -15.3627   26.0767 O   0  0  0  0  0  0  0  0  0  0  0  0
    8.8336  -14.1688   16.9472 N   0  0  0  0  0  0  0  0  0  0  0  0
    8.5670  -13.2403   17.9860 C   0  0  0  0  0  0  0  0  0  0  0  0
    8.8303  -11.9918   17.8539 N   0  0  0  0  0  0  0  0  0  0  0  0
    7.9896  -13.6645   19.2313 N   0  0  0  0  0  0  0  0  0  0  0  0
    8.4675  -14.8667   19.8762 C   0  0  0  0  0  0  0  0  0  0  0  0
    8.4473  -14.7044   21.3975 C   0  0  0  0  0  0  0  0  0  0  0  0
    7.8095  -15.9504   21.9974 C   0  0  0  0  0  0  0  0  0  0  0  0
    7.8980  -15.9097   23.5096 C   0  0  2  0  0  0  0  0  0  0  0  0
    7.2657  -14.6733   23.9263 N   0  0  0  0  0  0  0  0  0  0  0  0
    9.3037  -15.9942   23.9209 C   0  0  0  0  0  0  0  0  0  0  0  0
    9.9959  -14.9529   24.0326 O   0  0  0  0  0  0  0  0  0  0  0  0
    8.6402  -11.3433   18.6349 N   0  0  0  0  0  0  0  0  0  0  0  0
    9.9310  -17.2366   24.2056 C   0  0  1  0  0  0  0  0  0  0  0  0
   11.3122  -17.2615   24.7257 C   0  0  0  0  0  0  0  0  0  0  0  0
   11.3739  -18.2638   25.8361 C   0  0  0  0  0  0  0  0  0  0  0  0
   10.5395  -17.9441   27.0320 C   0  0  0  0  0  0  0  0  0  0  0  0
   10.6280  -18.8853   28.1427 O   0  0  0  0  0  0  0  0  0  0  0  0
   11.7242  -19.3376   28.5316 C   0  0  0  0  0  0  0  0  0  0  0  0
   12.2568  -17.5232   23.6169 O   0  0  0  0  0  0  0  0  0  0  0  0
   13.6437  -17.5063   23.8503 O   0  0  0  0  0  0  0  0  0  0  0  0
    9.4759  -19.2940   28.7884 O   0  0  0  0  0  0  0  0  0  0  0  0
  2  1  1  1
  2  3  1  0
  4  2  1  0
  4  6  1  0
  4  5  1  1
  6  7  2  0
  9 10  2  0
  9  8  1  0
 11  9  1  0
 12 11  1  0
 13 12  1  0
 14 13  1  0
 15 14  1  6
 16  6  1  0
 16 15  1  0
 17 15  1  0
 17 19  1  0
 18 17  2  0
 20 19  1  0
 20 21  1  6
 21 22  1  0
 22 23  1  0
 23 24  2  0
 23 27  1  0
 25 26  1  0
 25 20  1  0
 28 25  2  0
M  END
$$$$
