TRE.pdb
     RDKit          3D

 28 27  0  0  1  0  0  0  0  0999 V2000
   16.4556  -21.3914   13.7767 C   0  0  0  0  0  0  0  0  0  0  0  0
   16.2156  -20.1396   12.9952 C   0  0  1  0  0  0  0  0  0  0  0  0
   16.8520  -20.2494   11.7597 O   0  0  0  0  0  0  0  0  0  0  0  0
   14.7555  -19.7918   12.8638 C   0  0  2  0  0  0  0  0  0  0  0  0
   14.6604  -18.6357   12.0013 N   0  0  0  0  0  0  0  0  0  0  0  0
   14.0959  -19.5386   14.1585 C   0  0  0  0  0  0  0  0  0  0  0  0
   14.5339  -18.6041   14.8944 O   0  0  0  0  0  0  0  0  0  0  0  0
    7.5250  -23.6623   16.3418 N   0  0  0  0  0  0  0  0  0  0  0  0
    7.5392  -22.4156   17.0184 C   0  0  0  0  0  0  0  0  0  0  0  0
    6.9229  -22.2490   18.1311 N   0  0  0  0  0  0  0  0  0  0  0  0
    8.2473  -21.2867   16.4811 N   0  0  0  0  0  0  0  0  0  0  0  0
    8.9200  -21.3967   15.2065 C   0  0  0  0  0  0  0  0  0  0  0  0
   10.1142  -20.4422   15.1454 C   0  0  0  0  0  0  0  0  0  0  0  0
   11.2159  -21.0060   16.0331 C   0  0  0  0  0  0  0  0  0  0  0  0
   12.4439  -20.1202   15.9729 C   0  0  2  0  0  0  0  0  0  0  0  0
   12.9973  -20.2730   14.6415 N   0  0  0  0  0  0  0  0  0  0  0  0
   13.3851  -20.5146   17.0268 C   0  0  0  0  0  0  0  0  0  0  0  0
   14.0500  -21.5740   16.9198 O   0  0  0  0  0  0  0  0  0  0  0  0
    6.9670  -21.3343   18.6086 N   0  0  0  0  0  0  0  0  0  0  0  0
   13.5810  -19.7283   18.1935 C   0  0  2  0  0  0  0  0  0  0  0  0
   14.5262  -20.1783   19.2342 C   0  0  0  0  0  0  0  0  0  0  0  0
   15.7944  -19.3976   19.0808 C   0  0  0  0  0  0  0  0  0  0  0  0
   16.8763  -19.7398   20.0508 C   0  0  0  0  0  0  0  0  0  0  0  0
   18.1459  -19.0469   19.8623 O   0  0  0  0  0  0  0  0  0  0  0  0
   18.3953  -18.4101   18.8183 C   0  0  0  0  0  0  0  0  0  0  0  0
   13.8942  -20.0563   20.5669 O   0  0  0  0  0  0  0  0  0  0  0  0
   12.6395  -19.4350   20.7005 O   0  0  0  0  0  0  0  0  0  0  0  0
   19.1044  -19.0894   20.8576 O   0  0  0  0  0  0  0  0  0  0  0  0
  2  1  1  6
  2  3  1  0
  4  2  1  0
  4  6  1  0
  4  5  1  6
  6  7  2  0
  9 10  2  0
  9  8  1  0
 11  9  1  0
 12 11  1  0
 13 12  1  0
 14 13  1  0
 15 14  1  6
 16  6  1  0
 16 15  1  0
 17 15  1  0
 17 19  1  0
 18 17  2  0
 20 19  1  0
 20 21  1  6
 21 22  1  0
 22 23  1  0
 23 24  2  0
 23 27  1  0
 25 26  1  0
 25 20  1  0
 28 25  2  0
M  END
$$$$
