TRE.pdb
     RDKit          3D

 28 27  0  0  1  0  0  0  0  0999 V2000
   13.3855  -16.9122   17.7047 C   0  0  0  0  0  0  0  0  0  0  0  0
   14.5402  -15.9648   17.6400 C   0  0  1  0  0  0  0  0  0  0  0  0
   15.2416  -16.1875   16.4560 O   0  0  0  0  0  0  0  0  0  0  0  0
   14.1362  -14.5231   17.8095 C   0  0  2  0  0  0  0  0  0  0  0  0
   15.3321  -13.7200   17.6902 N   0  0  0  0  0  0  0  0  0  0  0  0
   13.4469  -14.2551   19.0856 C   0  0  0  0  0  0  0  0  0  0  0  0
   14.1136  -14.3076   20.1624 O   0  0  0  0  0  0  0  0  0  0  0  0
    7.8557  -16.3884   18.3150 N   0  0  0  0  0  0  0  0  0  0  0  0
    7.4663  -15.5335   17.2520 C   0  0  0  0  0  0  0  0  0  0  0  0
    7.0890  -16.0013   16.1186 N   0  0  0  0  0  0  0  0  0  0  0  0
    7.4798  -14.1049   17.4046 N   0  0  0  0  0  0  0  0  0  0  0  0
    8.0291  -13.5122   18.6030 C   0  0  0  0  0  0  0  0  0  0  0  0
    9.4372  -14.0476   18.8701 C   0  0  0  0  0  0  0  0  0  0  0  0
    9.9697  -13.3714   20.1265 C   0  0  0  0  0  0  0  0  0  0  0  0
   11.3590  -13.8831   20.4499 C   0  0  2  0  0  0  0  0  0  0  0  0
   12.0799  -13.9402   19.1933 N   0  0  0  0  0  0  0  0  0  0  0  0
   11.2592  -15.1913   21.1063 C   0  0  0  0  0  0  0  0  0  0  0  0
   11.0205  -16.2230   20.4320 O   0  0  0  0  0  0  0  0  0  0  0  0
    6.8336  -15.3525   15.3567 N   0  0  0  0  0  0  0  0  0  0  0  0
   11.4255  -15.3442   22.5088 C   0  0  1  0  0  0  0  0  0  0  0  0
   11.4093  -16.6925   23.1092 C   0  0  0  0  0  0  0  0  0  0  0  0
   12.7741  -16.9757   23.6555 C   0  0  0  0  0  0  0  0  0  0  0  0
   13.8459  -17.1594   22.6326 C   0  0  0  0  0  0  0  0  0  0  0  0
   15.1949  -17.3594   23.1499 O   0  0  0  0  0  0  0  0  0  0  0  0
   15.4185  -18.1084   24.1228 C   0  0  0  0  0  0  0  0  0  0  0  0
   10.3233  -16.7782   24.1110 O   0  0  0  0  0  0  0  0  0  0  0  0
    9.4635  -15.6844   24.3175 O   0  0  0  0  0  0  0  0  0  0  0  0
   16.2603  -16.7086   22.5561 O   0  0  0  0  0  0  0  0  0  0  0  0
  2  1  1  6
  2  3  1  0
  4  2  1  0
  4  6  1  0
  4  5  1  1
  6  7  2  0
  9 10  2  0
  9  8  1  0
 11  9  1  0
 12 11  1  0
 13 12  1  0
 14 13  1  0
 15 14  1  6
 16  6  1  0
 16 15  1  0
 17 15  1  0
 17 19  1  0
 18 17  2  0
 20 19  1  0
 20 21  1  1
 21 22  1  0
 22 23  1  0
 23 24  2  0
 23 27  1  0
 25 26  1  0
 25 20  1  0
 28 25  2  0
M  END
$$$$
