TRE.pdb
     RDKit          3D

 28 27  0  0  1  0  0  0  0  0999 V2000
    8.9801  -17.7659   13.0199 C   0  0  0  0  0  0  0  0  0  0  0  0
    9.4855  -17.1250   14.2725 C   0  0  1  0  0  0  0  0  0  0  0  0
   10.7954  -17.5453   14.4982 O   0  0  0  0  0  0  0  0  0  0  0  0
    9.3534  -15.6241   14.2671 C   0  0  2  0  0  0  0  0  0  0  0  0
   10.1456  -15.1223   13.1671 N   0  0  0  0  0  0  0  0  0  0  0  0
    9.7602  -14.9966   15.5384 C   0  0  0  0  0  0  0  0  0  0  0  0
   10.9941  -14.8072   15.7583 O   0  0  0  0  0  0  0  0  0  0  0  0
    6.8881  -15.2487   22.9557 N   0  0  0  0  0  0  0  0  0  0  0  0
    7.5300  -13.9931   23.1103 C   0  0  0  0  0  0  0  0  0  0  0  0
    8.3489  -13.7722   24.0727 N   0  0  0  0  0  0  0  0  0  0  0  0
    7.2864  -12.9161   22.1911 N   0  0  0  0  0  0  0  0  0  0  0  0
    7.0259  -13.2010   20.7981 C   0  0  0  0  0  0  0  0  0  0  0  0
    8.3240  -13.5583   20.0713 C   0  0  0  0  0  0  0  0  0  0  0  0
    7.9974  -13.7756   18.5997 C   0  0  0  0  0  0  0  0  0  0  0  0
    9.2677  -14.0185   17.8100 C   0  0  2  0  0  0  0  0  0  0  0  0
    8.8608  -14.5871   16.5398 N   0  0  0  0  0  0  0  0  0  0  0  0
   10.1554  -14.9054   18.5698 C   0  0  0  0  0  0  0  0  0  0  0  0
    9.9154  -16.1357   18.6395 O   0  0  0  0  0  0  0  0  0  0  0  0
    8.7971  -12.8459   24.1608 N   0  0  0  0  0  0  0  0  0  0  0  0
   11.3050  -14.4187   19.2478 C   0  0  2  0  0  0  0  0  0  0  0  0
   12.2338  -15.3659   19.8951 C   0  0  0  0  0  0  0  0  0  0  0  0
   13.5821  -14.7195   19.9685 C   0  0  0  0  0  0  0  0  0  0  0  0
   14.6287  -15.5052   20.6869 C   0  0  0  0  0  0  0  0  0  0  0  0
   15.9250  -14.8539   20.8381 O   0  0  0  0  0  0  0  0  0  0  0  0
   16.1370  -13.7068   20.3943 C   0  0  0  0  0  0  0  0  0  0  0  0
   11.6867  -15.7823   21.2057 O   0  0  0  0  0  0  0  0  0  0  0  0
   11.9444  -17.0728   21.7020 O   0  0  0  0  0  0  0  0  0  0  0  0
   16.9520  -15.5135   21.4872 O   0  0  0  0  0  0  0  0  0  0  0  0
  2  1  1  6
  2  3  1  0
  4  2  1  0
  4  6  1  0
  4  5  1  6
  6  7  2  0
  9 10  2  0
  9  8  1  0
 11  9  1  0
 12 11  1  0
 13 12  1  0
 14 13  1  0
 15 14  1  1
 16  6  1  0
 16 15  1  0
 17 15  1  0
 17 19  1  0
 18 17  2  0
 20 19  1  0
 20 21  1  6
 21 22  1  0
 22 23  1  0
 23 24  2  0
 23 27  1  0
 25 26  1  0
 25 20  1  0
 28 25  2  0
M  END
$$$$
