TRE.pdb
     RDKit          3D

 28 27  0  0  1  0  0  0  0  0999 V2000
   11.5733  -19.6105   18.4759 C   0  0  0  0  0  0  0  0  0  0  0  0
   11.1851  -18.9242   19.7462 C   0  0  1  0  0  0  0  0  0  0  0  0
   11.8287  -19.5501   20.8127 O   0  0  0  0  0  0  0  0  0  0  0  0
   11.4285  -17.4376   19.7168 C   0  0  2  0  0  0  0  0  0  0  0  0
   12.8206  -17.2319   19.3864 N   0  0  0  0  0  0  0  0  0  0  0  0
   11.0822  -16.7632   20.9820 C   0  0  0  0  0  0  0  0  0  0  0  0
   12.0088  -16.4953   21.8045 O   0  0  0  0  0  0  0  0  0  0  0  0
    8.5702  -11.3165   20.3509 N   0  0  0  0  0  0  0  0  0  0  0  0
    8.3037  -12.3521   19.4188 C   0  0  0  0  0  0  0  0  0  0  0  0
    9.0501  -12.5394   18.3924 N   0  0  0  0  0  0  0  0  0  0  0  0
    7.1827  -13.2345   19.5891 N   0  0  0  0  0  0  0  0  0  0  0  0
    7.3252  -14.4388   20.3758 C   0  0  0  0  0  0  0  0  0  0  0  0
    7.9182  -14.1162   21.7488 C   0  0  0  0  0  0  0  0  0  0  0  0
    7.9792  -15.4083   22.5528 C   0  0  0  0  0  0  0  0  0  0  0  0
    9.4107  -15.8942   22.6583 C   0  0  2  0  0  0  0  0  0  0  0  0
    9.7752  -16.3904   21.3457 N   0  0  0  0  0  0  0  0  0  0  0  0
    9.5035  -16.9235   23.6995 C   0  0  0  0  0  0  0  0  0  0  0  0
    9.4698  -18.1406   23.3934 O   0  0  0  0  0  0  0  0  0  0  0  0
    8.8133  -13.2834   17.7164 N   0  0  0  0  0  0  0  0  0  0  0  0
    9.6334  -16.5931   25.0750 C   0  0  1  0  0  0  0  0  0  0  0  0
   10.2928  -17.5361   25.9994 C   0  0  0  0  0  0  0  0  0  0  0  0
   11.6609  -17.8303   25.4673 C   0  0  0  0  0  0  0  0  0  0  0  0
   12.0966  -19.2539   25.5779 C   0  0  0  0  0  0  0  0  0  0  0  0
   13.4741  -19.5324   25.1875 O   0  0  0  0  0  0  0  0  0  0  0  0
   14.0357  -18.8981   24.2710 C   0  0  0  0  0  0  0  0  0  0  0  0
   10.2802  -16.9796   27.3707 O   0  0  0  0  0  0  0  0  0  0  0  0
   10.5561  -17.8085   28.4730 O   0  0  0  0  0  0  0  0  0  0  0  0
   14.1854  -20.5212   25.8413 O   0  0  0  0  0  0  0  0  0  0  0  0
  2  1  1  6
  2  3  1  0
  4  2  1  0
  4  6  1  0
  4  5  1  1
  6  7  2  0
  9 10  2  0
  9  8  1  0
 11  9  1  0
 12 11  1  0
 13 12  1  0
 14 13  1  0
 15 14  1  6
 16  6  1  0
 16 15  1  0
 17 15  1  0
 17 19  1  0
 18 17  2  0
 20 19  1  0
 20 21  1  6
 21 22  1  0
 22 23  1  0
 23 24  2  0
 23 27  1  0
 25 26  1  0
 25 20  1  0
 28 25  2  0
M  END
$$$$
