TRE.pdb
     RDKit          3D

 28 27  0  0  1  0  0  0  0  0999 V2000
    7.0238  -22.6253   18.7591 C   0  0  0  0  0  0  0  0  0  0  0  0
    7.8998  -21.5990   19.4029 C   0  0  1  0  0  0  0  0  0  0  0  0
    9.1712  -22.1408   19.5856 O   0  0  0  0  0  0  0  0  0  0  0  0
    7.9313  -20.2912   18.6554 C   0  0  2  0  0  0  0  0  0  0  0  0
    8.5002  -20.5496   17.3519 N   0  0  0  0  0  0  0  0  0  0  0  0
    8.6826  -19.2340   19.3577 C   0  0  0  0  0  0  0  0  0  0  0  0
    9.9402  -19.1772   19.2091 O   0  0  0  0  0  0  0  0  0  0  0  0
    8.0866  -11.2282   20.6835 N   0  0  0  0  0  0  0  0  0  0  0  0
    8.6393  -12.3234   19.9711 C   0  0  0  0  0  0  0  0  0  0  0  0
    9.1208  -12.1815   18.7905 N   0  0  0  0  0  0  0  0  0  0  0  0
    8.6810  -13.6391   20.5467 N   0  0  0  0  0  0  0  0  0  0  0  0
    8.1975  -13.8541   21.8919 C   0  0  0  0  0  0  0  0  0  0  0  0
    8.5484  -15.2647   22.3695 C   0  0  0  0  0  0  0  0  0  0  0  0
    7.8624  -16.2613   21.4445 C   0  0  0  0  0  0  0  0  0  0  0  0
    8.8443  -17.3258   20.9984 C   0  0  2  0  0  0  0  0  0  0  0  0
    8.0922  -18.2690   20.1942 N   0  0  0  0  0  0  0  0  0  0  0  0
    9.4604  -17.9487   22.1751 C   0  0  0  0  0  0  0  0  0  0  0  0
    8.7599  -18.5998   22.9883 O   0  0  0  0  0  0  0  0  0  0  0  0
    9.5335  -12.9943   18.3051 N   0  0  0  0  0  0  0  0  0  0  0  0
   10.8520  -17.8436   22.4403 C   0  0  2  0  0  0  0  0  0  0  0  0
   11.4321  -18.5308   23.6108 C   0  0  0  0  0  0  0  0  0  0  0  0
   12.9233  -18.4463   23.5089 C   0  0  0  0  0  0  0  0  0  0  0  0
   13.5294  -19.1991   22.3710 C   0  0  0  0  0  0  0  0  0  0  0  0
   14.9852  -19.1671   22.2872 O   0  0  0  0  0  0  0  0  0  0  0  0
   15.6999  -19.1706   23.3103 C   0  0  0  0  0  0  0  0  0  0  0  0
   10.8737  -17.9537   24.8540 O   0  0  0  0  0  0  0  0  0  0  0  0
   10.6821  -18.7651   25.9867 O   0  0  0  0  0  0  0  0  0  0  0  0
   15.6000  -19.1319   21.0495 O   0  0  0  0  0  0  0  0  0  0  0  0
  2  1  1  6
  2  3  1  0
  4  2  1  0
  4  6  1  0
  4  5  1  6
  6  7  2  0
  9 10  2  0
  9  8  1  0
 11  9  1  0
 12 11  1  0
 13 12  1  0
 14 13  1  0
 15 14  1  1
 16  6  1  0
 16 15  1  0
 17 15  1  0
 17 19  1  0
 18 17  2  0
 20 19  1  0
 20 21  1  6
 21 22  1  0
 22 23  1  0
 23 24  2  0
 23 27  1  0
 25 26  1  0
 25 20  1  0
 28 25  2  0
M  END
$$$$
