TRE.pdb
     RDKit          3D

 28 27  0  0  1  0  0  0  0  0999 V2000
    9.7676  -15.5886   17.7891 C   0  0  0  0  0  0  0  0  0  0  0  0
    9.4836  -14.1208   17.7741 C   0  0  1  0  0  0  0  0  0  0  0  0
    9.3383  -13.7023   16.4523 O   0  0  0  0  0  0  0  0  0  0  0  0
    8.3089  -13.7340   18.6347 C   0  0  2  0  0  0  0  0  0  0  0  0
    8.0973  -12.3138   18.4679 N   0  0  0  0  0  0  0  0  0  0  0  0
    8.4889  -14.0760   20.0581 C   0  0  0  0  0  0  0  0  0  0  0  0
    9.3074  -13.3990   20.7499 O   0  0  0  0  0  0  0  0  0  0  0  0
    2.5132  -19.2375   22.6327 N   0  0  0  0  0  0  0  0  0  0  0  0
    3.2142  -19.4420   21.4165 C   0  0  0  0  0  0  0  0  0  0  0  0
    2.7917  -20.2662   20.5289 N   0  0  0  0  0  0  0  0  0  0  0  0
    4.4297  -18.7311   21.1311 N   0  0  0  0  0  0  0  0  0  0  0  0
    4.9416  -17.7670   22.0787 C   0  0  0  0  0  0  0  0  0  0  0  0
    6.2256  -17.1243   21.5504 C   0  0  0  0  0  0  0  0  0  0  0  0
    6.6939  -16.0955   22.5710 C   0  0  0  0  0  0  0  0  0  0  0  0
    7.9859  -15.4503   22.1117 C   0  0  2  0  0  0  0  0  0  0  0  0
    7.8054  -15.1173   20.7122 N   0  0  0  0  0  0  0  0  0  0  0  0
    9.1023  -16.3754   22.3350 C   0  0  0  0  0  0  0  0  0  0  0  0
    9.2375  -17.3930   21.6123 O   0  0  0  0  0  0  0  0  0  0  0  0
    3.3125  -20.3767   19.6440 N   0  0  0  0  0  0  0  0  0  0  0  0
   10.0617  -16.1633   23.3609 C   0  0  1  0  0  0  0  0  0  0  0  0
   11.0347  -17.2236   23.6893 C   0  0  0  0  0  0  0  0  0  0  0  0
   12.4053  -16.7140   23.3679 C   0  0  0  0  0  0  0  0  0  0  0  0
   12.5152  -15.9329   22.1004 C   0  0  0  0  0  0  0  0  0  0  0  0
   13.8487  -15.4484   21.7623 O   0  0  0  0  0  0  0  0  0  0  0  0
   14.3001  -14.3873   22.2397 C   0  0  0  0  0  0  0  0  0  0  0  0
   10.8567  -17.6437   25.0972 O   0  0  0  0  0  0  0  0  0  0  0  0
   11.6229  -18.6995   25.6227 O   0  0  0  0  0  0  0  0  0  0  0  0
   14.6416  -16.1737   20.8926 O   0  0  0  0  0  0  0  0  0  0  0  0
  2  1  1  6
  2  3  1  0
  4  2  1  0
  4  6  1  0
  4  5  1  1
  6  7  2  0
  9 10  2  0
  9  8  1  0
 11  9  1  0
 12 11  1  0
 13 12  1  0
 14 13  1  0
 15 14  1  6
 16  6  1  0
 16 15  1  0
 17 15  1  0
 17 19  1  0
 18 17  2  0
 20 19  1  0
 20 21  1  1
 21 22  1  0
 22 23  1  0
 23 24  2  0
 23 27  1  0
 25 26  1  0
 25 20  1  0
 28 25  2  0
M  END
$$$$
