TRE.pdb
     RDKit          3D

 28 27  0  0  1  0  0  0  0  0999 V2000
    7.0777  -10.7745   25.9784 C   0  0  0  0  0  0  0  0  0  0  0  0
    7.5556  -12.1589   25.6782 C   0  0  1  0  0  0  0  0  0  0  0  0
    8.1458  -12.6914   26.8234 O   0  0  0  0  0  0  0  0  0  0  0  0
    6.4790  -13.0503   25.1155 C   0  0  2  0  0  0  0  0  0  0  0  0
    5.3881  -13.0652   26.0637 N   0  0  0  0  0  0  0  0  0  0  0  0
    6.9449  -14.4197   24.8273 C   0  0  0  0  0  0  0  0  0  0  0  0
    6.7116  -15.3347   25.6729 O   0  0  0  0  0  0  0  0  0  0  0  0
    9.3641  -12.4196   19.8639 N   0  0  0  0  0  0  0  0  0  0  0  0
    8.2755  -12.7558   19.0188 C   0  0  0  0  0  0  0  0  0  0  0  0
    7.6997  -11.8758   18.2841 N   0  0  0  0  0  0  0  0  0  0  0  0
    7.7738  -14.1005   18.9531 N   0  0  0  0  0  0  0  0  0  0  0  0
    8.3908  -15.1406   19.7448 C   0  0  0  0  0  0  0  0  0  0  0  0
    7.9277  -15.0536   21.2005 C   0  0  0  0  0  0  0  0  0  0  0  0
    8.6297  -16.1531   21.9864 C   0  0  0  0  0  0  0  0  0  0  0  0
    8.2227  -16.0979   23.4451 C   0  0  2  0  0  0  0  0  0  0  0  0
    7.6412  -14.7875   23.6613 N   0  0  0  0  0  0  0  0  0  0  0  0
    9.3957  -16.3442   24.2910 C   0  0  0  0  0  0  0  0  0  0  0  0
   10.1128  -15.3882   24.6755 O   0  0  0  0  0  0  0  0  0  0  0  0
    6.8564  -12.1314   17.7454 N   0  0  0  0  0  0  0  0  0  0  0  0
    9.7640  -17.6524   24.7043 C   0  0  1  0  0  0  0  0  0  0  0  0
   10.9360  -17.8447   25.5810 C   0  0  0  0  0  0  0  0  0  0  0  0
   10.4792  -18.5464   26.8220 C   0  0  0  0  0  0  0  0  0  0  0  0
   11.5652  -18.9517   27.7628 C   0  0  0  0  0  0  0  0  0  0  0  0
   11.1394  -19.6714   28.9578 O   0  0  0  0  0  0  0  0  0  0  0  0
   10.2872  -19.1989   29.7377 C   0  0  0  0  0  0  0  0  0  0  0  0
   12.0018  -18.5539   24.8385 O   0  0  0  0  0  0  0  0  0  0  0  0
   13.3238  -18.5461   25.3187 O   0  0  0  0  0  0  0  0  0  0  0  0
   11.6863  -20.9083   29.2445 O   0  0  0  0  0  0  0  0  0  0  0  0
  2  1  1  1
  2  3  1  0
  4  2  1  0
  4  6  1  0
  4  5  1  1
  6  7  2  0
  9 10  2  0
  9  8  1  0
 11  9  1  0
 12 11  1  0
 13 12  1  0
 14 13  1  0
 15 14  1  6
 16  6  1  0
 16 15  1  0
 17 15  1  0
 17 19  1  0
 18 17  2  0
 20 19  1  0
 20 21  1  1
 21 22  1  0
 22 23  1  0
 23 24  2  0
 23 27  1  0
 25 26  1  0
 25 20  1  0
 28 25  2  0
M  END
$$$$
