VVH.pdb
     RDKit          3D

 25 25  0  0  1  0  0  0  0  0999 V2000
    9.0771  -19.4653   18.2123 C   0  0  0  0  0  0  0  0  0  0  0  0
    7.9243  -18.7288   17.6093 C   0  0  2  0  0  0  0  0  0  0  0  0
    7.3699  -19.5214   16.4569 C   0  0  0  0  0  0  0  0  0  0  0  0
    8.2624  -17.3315   17.1700 C   0  0  2  0  0  0  0  0  0  0  0  0
    9.2339  -17.4425   16.0960 N   0  0  0  0  0  0  0  0  0  0  0  0
    8.8265  -16.5142   18.2729 C   0  0  0  0  0  0  0  0  0  0  0  0
   10.0679  -16.4426   18.4598 O   0  0  0  0  0  0  0  0  0  0  0  0
    7.9288  -13.0799   21.7413 C   0  0  0  0  0  0  0  0  0  0  0  0
    7.4988  -13.9275   20.5681 C   0  0  1  0  0  0  0  0  0  0  0  0
    7.1980  -13.0993   19.3474 C   0  0  0  0  0  0  0  0  0  0  0  0
    8.5167  -15.0181   20.2776 C   0  0  2  0  0  0  0  0  0  0  0  0
    7.9950  -15.7820   19.1597 N   0  0  0  0  0  0  0  0  0  0  0  0
    8.6621  -15.8640   21.4917 C   0  0  0  0  0  0  0  0  0  0  0  0
    7.9024  -16.8439   21.6834 O   0  0  0  0  0  0  0  0  0  0  0  0
    9.6545  -15.5847   22.4522 N   0  0  0  0  0  0  0  0  0  0  0  0
   10.5108  -16.6688   22.9140 C   0  0  1  0  0  0  0  0  0  0  0  0
   11.2486  -17.3006   21.7786 C   0  0  0  0  0  0  0  0  0  0  0  0
   11.9667  -18.5043   22.2329 C   0  0  0  0  0  0  0  0  0  0  0  0
   12.0172  -19.1043   23.4672 C   0  0  0  0  0  0  0  0  0  0  0  0
   12.8247  -20.1760   23.4452 N   0  0  0  0  0  0  0  0  0  0  0  0
   13.3007  -20.2757   22.1992 C   0  0  0  0  0  0  0  0  0  0  0  0
   12.7911  -19.2732   21.4570 N   0  0  0  0  0  0  0  0  0  0  0  0
   11.4074  -16.2219   23.9899 C   0  0  0  0  0  0  0  0  0  0  0  0
   12.1204  -15.0125   23.9198 O   0  0  0  0  0  0  0  0  0  0  0  0
   11.5777  -16.8967   25.0179 O   0  0  0  0  0  0  0  0  0  0  0  0
  2  1  1  6
  2  3  1  0
  4  2  1  0
  4  5  1  6
  6 12  1  0
  6  4  1  0
  7  6  2  0
  9 11  1  0
  9  8  1  1
 10  9  1  0
 11 12  1  6
 13 11  1  0
 14 13  2  0
 15 13  1  0
 16 15  1  0
 16 17  1  6
 18 17  1  0
 18 22  1  0
 19 20  1  0
 19 18  2  0
 20 21  1  0
 21 22  2  0
 23 16  1  0
 23 24  1  0
 25 23  2  0
M  END
$$$$
