VVH.pdb
     RDKit          3D

 25 25  0  0  1  0  0  0  0  0999 V2000
    8.0810  -12.1627   18.5566 C   0  0  0  0  0  0  0  0  0  0  0  0
    7.9680  -13.3058   19.5134 C   0  0  2  0  0  0  0  0  0  0  0  0
    8.3954  -12.8571   20.8843 C   0  0  0  0  0  0  0  0  0  0  0  0
    8.7434  -14.5237   19.0948 C   0  0  2  0  0  0  0  0  0  0  0  0
    8.2077  -14.9549   17.8154 N   0  0  0  0  0  0  0  0  0  0  0  0
    8.6354  -15.6279   20.0806 C   0  0  0  0  0  0  0  0  0  0  0  0
    7.6294  -16.3818   20.1046 O   0  0  0  0  0  0  0  0  0  0  0  0
   10.8449  -18.5030   20.4656 C   0  0  0  0  0  0  0  0  0  0  0  0
   10.8546  -17.7905   21.7967 C   0  0  1  0  0  0  0  0  0  0  0  0
   12.0969  -16.9622   21.9900 C   0  0  0  0  0  0  0  0  0  0  0  0
    9.5896  -16.9702   21.9886 C   0  0  2  0  0  0  0  0  0  0  0  0
    9.6563  -15.8799   21.0336 N   0  0  0  0  0  0  0  0  0  0  0  0
    9.5616  -16.4654   23.3869 C   0  0  0  0  0  0  0  0  0  0  0  0
   10.2872  -15.5026   23.7342 O   0  0  0  0  0  0  0  0  0  0  0  0
    8.7210  -17.0560   24.3514 N   0  0  0  0  0  0  0  0  0  0  0  0
    8.7064  -16.5080   25.7011 C   0  0  1  0  0  0  0  0  0  0  0  0
    7.3180  -16.1650   26.1337 C   0  0  0  0  0  0  0  0  0  0  0  0
    7.1039  -14.7081   26.0814 C   0  0  0  0  0  0  0  0  0  0  0  0
    7.9898  -13.6799   25.8714 C   0  0  0  0  0  0  0  0  0  0  0  0
    7.3676  -12.4925   25.9340 N   0  0  0  0  0  0  0  0  0  0  0  0
    6.0781  -12.7444   26.1844 C   0  0  0  0  0  0  0  0  0  0  0  0
    5.9049  -14.0776   26.2758 N   0  0  0  0  0  0  0  0  0  0  0  0
    9.3878  -17.4014   26.6491 C   0  0  0  0  0  0  0  0  0  0  0  0
    9.7765  -18.7074   26.3040 O   0  0  0  0  0  0  0  0  0  0  0  0
    9.6536  -17.0412   27.8069 O   0  0  0  0  0  0  0  0  0  0  0  0
  2  1  1  6
  2  3  1  0
  4  2  1  0
  4  5  1  6
  6 12  1  0
  6  4  1  0
  7  6  2  0
  9 11  1  0
  9  8  1  6
 10  9  1  0
 11 12  1  6
 13 11  1  0
 14 13  2  0
 15 13  1  0
 16 15  1  0
 16 17  1  1
 18 17  1  0
 18 22  1  0
 19 20  1  0
 19 18  2  0
 20 21  1  0
 21 22  2  0
 23 16  1  0
 23 24  1  0
 25 23  2  0
M  END
$$$$
