VVH.pdb
     RDKit          3D

 25 25  0  0  1  0  0  0  0  0999 V2000
    7.1836  -19.4105   15.9509 C   0  0  0  0  0  0  0  0  0  0  0  0
    7.9480  -18.6060   16.9526 C   0  0  2  0  0  0  0  0  0  0  0  0
    7.4450  -18.9176   18.3357 C   0  0  0  0  0  0  0  0  0  0  0  0
    7.9032  -17.1248   16.6997 C   0  0  2  0  0  0  0  0  0  0  0  0
    8.5348  -16.8897   15.4130 N   0  0  0  0  0  0  0  0  0  0  0  0
    8.6077  -16.3511   17.7521 C   0  0  0  0  0  0  0  0  0  0  0  0
    9.8617  -16.3693   17.8429 O   0  0  0  0  0  0  0  0  0  0  0  0
    8.0352  -13.2425   21.6157 C   0  0  0  0  0  0  0  0  0  0  0  0
    7.5423  -13.8713   20.3346 C   0  0  1  0  0  0  0  0  0  0  0  0
    7.1420  -12.8412   19.3121 C   0  0  0  0  0  0  0  0  0  0  0  0
    8.5590  -14.8559   19.7806 C   0  0  2  0  0  0  0  0  0  0  0  0
    7.9016  -15.5614   18.6964 N   0  0  0  0  0  0  0  0  0  0  0  0
    8.9577  -15.7861   20.8700 C   0  0  0  0  0  0  0  0  0  0  0  0
    8.1347  -16.6055   21.3447 O   0  0  0  0  0  0  0  0  0  0  0  0
   10.2662  -15.7682   21.3924 N   0  0  0  0  0  0  0  0  0  0  0  0
   10.6220  -16.7267   22.4300 C   0  0  1  0  0  0  0  0  0  0  0  0
   12.0274  -17.2074   22.2676 C   0  0  0  0  0  0  0  0  0  0  0  0
   12.3949  -18.1158   23.3680 C   0  0  0  0  0  0  0  0  0  0  0  0
   12.5139  -17.8861   24.7167 C   0  0  0  0  0  0  0  0  0  0  0  0
   12.9032  -18.9985   25.3587 N   0  0  0  0  0  0  0  0  0  0  0  0
   13.0383  -19.9528   24.4312 C   0  0  0  0  0  0  0  0  0  0  0  0
   12.7347  -19.4338   23.2253 N   0  0  0  0  0  0  0  0  0  0  0  0
   10.3632  -16.1842   23.7716 C   0  0  0  0  0  0  0  0  0  0  0  0
   10.8242  -14.9180   24.1717 O   0  0  0  0  0  0  0  0  0  0  0  0
    9.7208  -16.8239   24.6197 O   0  0  0  0  0  0  0  0  0  0  0  0
  2  1  1  6
  2  3  1  0
  4  2  1  0
  4  5  1  6
  6 12  1  0
  6  4  1  0
  7  6  2  0
  9 11  1  0
  9  8  1  1
 10  9  1  0
 11 12  1  6
 13 11  1  0
 14 13  2  0
 15 13  1  0
 16 15  1  0
 16 17  1  1
 18 17  1  0
 18 22  1  0
 19 20  1  0
 19 18  2  0
 20 21  1  0
 21 22  2  0
 23 16  1  0
 23 24  1  0
 25 23  2  0
M  END
$$$$
