VVH.pdb
     RDKit          3D

 25 25  0  0  1  0  0  0  0  0999 V2000
    7.6569  -14.1377   20.2555 C   0  0  0  0  0  0  0  0  0  0  0  0
    7.5081  -14.9129   21.5251 C   0  0  2  0  0  0  0  0  0  0  0  0
    8.8612  -15.1155   22.1509 C   0  0  0  0  0  0  0  0  0  0  0  0
    6.8087  -16.2320   21.3499 C   0  0  2  0  0  0  0  0  0  0  0  0
    5.5289  -15.9588   20.7198 N   0  0  0  0  0  0  0  0  0  0  0  0
    6.5922  -16.9318   22.6406 C   0  0  0  0  0  0  0  0  0  0  0  0
    5.8412  -16.4469   23.5250 O   0  0  0  0  0  0  0  0  0  0  0  0
    6.6886  -20.9261   25.3981 C   0  0  0  0  0  0  0  0  0  0  0  0
    6.6277  -20.1609   24.0980 C   0  0  1  0  0  0  0  0  0  0  0  0
    5.2375  -20.1284   23.5211 C   0  0  0  0  0  0  0  0  0  0  0  0
    7.2100  -18.7659   24.2552 C   0  0  2  0  0  0  0  0  0  0  0  0
    7.2191  -18.1712   22.9318 N   0  0  0  0  0  0  0  0  0  0  0  0
    8.5864  -18.8878   24.8046 C   0  0  0  0  0  0  0  0  0  0  0  0
    9.4908  -19.4538   24.1445 O   0  0  0  0  0  0  0  0  0  0  0  0
    8.9050  -18.3712   26.0762 N   0  0  0  0  0  0  0  0  0  0  0  0
   10.2571  -18.5487   26.5884 C   0  0  1  0  0  0  0  0  0  0  0  0
   11.0217  -17.2653   26.5616 C   0  0  0  0  0  0  0  0  0  0  0  0
   11.3337  -16.8767   25.1750 C   0  0  0  0  0  0  0  0  0  0  0  0
   11.0767  -17.5154   23.9867 C   0  0  0  0  0  0  0  0  0  0  0  0
   11.5655  -16.8148   22.9518 N   0  0  0  0  0  0  0  0  0  0  0  0
   12.1408  -15.7207   23.4629 C   0  0  0  0  0  0  0  0  0  0  0  0
   12.0083  -15.7453   24.8036 N   0  0  0  0  0  0  0  0  0  0  0  0
   10.2478  -19.1718   27.9199 C   0  0  0  0  0  0  0  0  0  0  0  0
    9.0561  -19.4427   28.6143 O   0  0  0  0  0  0  0  0  0  0  0  0
   11.2998  -19.4900   28.4970 O   0  0  0  0  0  0  0  0  0  0  0  0
  2  1  1  6
  2  3  1  0
  4  2  1  0
  4  5  1  1
  6 12  1  0
  6  4  1  0
  7  6  2  0
  9 11  1  0
  9  8  1  1
 10  9  1  0
 11 12  1  6
 13 11  1  0
 14 13  2  0
 15 13  1  0
 16 15  1  0
 16 17  1  1
 18 17  1  0
 18 22  1  0
 19 20  1  0
 19 18  2  0
 20 21  1  0
 21 22  2  0
 23 16  1  0
 23 24  1  0
 25 23  2  0
M  END
$$$$
