VVH.pdb
     RDKit          3D

 25 25  0  0  1  0  0  0  0  0999 V2000
    8.7134  -19.5826   19.8859 C   0  0  0  0  0  0  0  0  0  0  0  0
    7.4445  -18.8935   20.2733 C   0  0  2  0  0  0  0  0  0  0  0  0
    6.4048  -19.9204   20.6311 C   0  0  0  0  0  0  0  0  0  0  0  0
    6.9179  -17.9591   19.2200 C   0  0  2  0  0  0  0  0  0  0  0  0
    6.5850  -18.7653   18.0586 N   0  0  0  0  0  0  0  0  0  0  0  0
    7.9077  -16.9202   18.8414 C   0  0  0  0  0  0  0  0  0  0  0  0
    8.7618  -17.1325   17.9433 O   0  0  0  0  0  0  0  0  0  0  0  0
    9.5026  -12.2595   19.5859 C   0  0  0  0  0  0  0  0  0  0  0  0
    8.4496  -13.3357   19.6971 C   0  0  1  0  0  0  0  0  0  0  0  0
    7.1842  -12.9717   18.9671 C   0  0  0  0  0  0  0  0  0  0  0  0
    8.9940  -14.6832   19.2526 C   0  0  2  0  0  0  0  0  0  0  0  0
    7.9338  -15.6492   19.4722 N   0  0  0  0  0  0  0  0  0  0  0  0
   10.1947  -15.0006   20.0702 C   0  0  0  0  0  0  0  0  0  0  0  0
   10.0971  -15.1772   21.3084 O   0  0  0  0  0  0  0  0  0  0  0  0
   11.4666  -15.1099   19.4736 N   0  0  0  0  0  0  0  0  0  0  0  0
   12.5850  -15.5747   20.2830 C   0  0  1  0  0  0  0  0  0  0  0  0
   13.1742  -16.8301   19.7269 C   0  0  0  0  0  0  0  0  0  0  0  0
   12.2859  -17.9774   19.9833 C   0  0  0  0  0  0  0  0  0  0  0  0
   11.1523  -18.0778   20.7520 C   0  0  0  0  0  0  0  0  0  0  0  0
   10.6674  -19.3289   20.7277 N   0  0  0  0  0  0  0  0  0  0  0  0
   11.4827  -20.0444   19.9450 C   0  0  0  0  0  0  0  0  0  0  0  0
   12.4638  -19.2412   19.4891 N   0  0  0  0  0  0  0  0  0  0  0  0
   13.5876  -14.5157   20.4695 C   0  0  0  0  0  0  0  0  0  0  0  0
   13.5651  -13.3211   19.7291 O   0  0  0  0  0  0  0  0  0  0  0  0
   14.5074  -14.6282   21.2955 O   0  0  0  0  0  0  0  0  0  0  0  0
  2  1  1  6
  2  3  1  0
  4  2  1  0
  4  5  1  6
  6 12  1  0
  6  4  1  0
  7  6  2  0
  9 11  1  0
  9  8  1  6
 10  9  1  0
 11 12  1  1
 13 11  1  0
 14 13  2  0
 15 13  1  0
 16 15  1  0
 16 17  1  6
 18 17  1  0
 18 22  1  0
 19 20  1  0
 19 18  2  0
 20 21  1  0
 21 22  2  0
 23 16  1  0
 23 24  1  0
 25 23  2  0
M  END
$$$$
