VVH.pdb
     RDKit          3D

 25 25  0  0  1  0  0  0  0  0999 V2000
    8.2936  -19.7046   19.0514 C   0  0  0  0  0  0  0  0  0  0  0  0
    7.1190  -18.9074   18.5824 C   0  0  2  0  0  0  0  0  0  0  0  0
    6.2933  -19.7383   17.6383 C   0  0  0  0  0  0  0  0  0  0  0  0
    7.4925  -17.6003   17.9408 C   0  0  2  0  0  0  0  0  0  0  0  0
    8.2964  -17.9103   16.7714 N   0  0  0  0  0  0  0  0  0  0  0  0
    8.2601  -16.7208   18.8572 C   0  0  0  0  0  0  0  0  0  0  0  0
    9.5171  -16.7451   18.8804 O   0  0  0  0  0  0  0  0  0  0  0  0
    7.9919  -13.0242   22.1918 C   0  0  0  0  0  0  0  0  0  0  0  0
    7.3815  -13.8868   21.1134 C   0  0  1  0  0  0  0  0  0  0  0  0
    6.8998  -13.0756   19.9402 C   0  0  0  0  0  0  0  0  0  0  0  0
    8.3368  -14.9895   20.6874 C   0  0  2  0  0  0  0  0  0  0  0  0
    7.6135  -15.8193   19.7421 N   0  0  0  0  0  0  0  0  0  0  0  0
    8.7345  -15.7622   21.8939 C   0  0  0  0  0  0  0  0  0  0  0  0
    7.9373  -16.5713   22.4268 O   0  0  0  0  0  0  0  0  0  0  0  0
   10.0129  -15.6033   22.4646 N   0  0  0  0  0  0  0  0  0  0  0  0
   10.4068  -16.4773   23.5613 C   0  0  1  0  0  0  0  0  0  0  0  0
   11.2841  -17.5883   23.0832 C   0  0  0  0  0  0  0  0  0  0  0  0
   10.5515  -18.8667   23.0896 C   0  0  0  0  0  0  0  0  0  0  0  0
   10.7100  -19.9857   23.8697 C   0  0  0  0  0  0  0  0  0  0  0  0
    9.8380  -20.9426   23.5161 N   0  0  0  0  0  0  0  0  0  0  0  0
    9.1115  -20.4497   22.5070 C   0  0  0  0  0  0  0  0  0  0  0  0
    9.5315  -19.1977   22.2392 N   0  0  0  0  0  0  0  0  0  0  0  0
   11.0123  -15.7149   24.6628 C   0  0  0  0  0  0  0  0  0  0  0  0
   10.8655  -16.0938   26.0084 O   0  0  0  0  0  0  0  0  0  0  0  0
   11.6862  -14.6935   24.4541 O   0  0  0  0  0  0  0  0  0  0  0  0
  2  1  1  6
  2  3  1  0
  4  2  1  0
  4  5  1  6
  6 12  1  0
  6  4  1  0
  7  6  2  0
  9 11  1  0
  9  8  1  1
 10  9  1  0
 11 12  1  6
 13 11  1  0
 14 13  2  0
 15 13  1  0
 16 15  1  0
 16 17  1  6
 18 17  1  0
 18 22  1  0
 19 20  1  0
 19 18  2  0
 20 21  1  0
 21 22  2  0
 23 16  1  0
 23 24  1  0
 25 23  2  0
M  END
$$$$
