VVH.pdb
     RDKit          3D

 25 25  0  0  1  0  0  0  0  0999 V2000
    8.0825  -17.1218   21.6761 C   0  0  0  0  0  0  0  0  0  0  0  0
    6.8718  -16.2490   21.5887 C   0  0  2  0  0  0  0  0  0  0  0  0
    6.1041  -16.5796   20.3378 C   0  0  0  0  0  0  0  0  0  0  0  0
    7.1810  -14.7789   21.6410 C   0  0  2  0  0  0  0  0  0  0  0  0
    7.9745  -14.4651   20.4656 N   0  0  0  0  0  0  0  0  0  0  0  0
    7.9301  -14.4029   22.8658 C   0  0  0  0  0  0  0  0  0  0  0  0
    9.1832  -14.3000   22.8555 O   0  0  0  0  0  0  0  0  0  0  0  0
    7.5937  -13.0545   27.6535 C   0  0  0  0  0  0  0  0  0  0  0  0
    6.9900  -13.2501   26.2836 C   0  0  1  0  0  0  0  0  0  0  0  0
    6.4336  -11.9703   25.7186 C   0  0  0  0  0  0  0  0  0  0  0  0
    7.9814  -13.9053   25.3361 C   0  0  2  0  0  0  0  0  0  0  0  0
    7.2692  -14.1446   24.0948 N   0  0  0  0  0  0  0  0  0  0  0  0
    8.4487  -15.1777   25.9474 C   0  0  0  0  0  0  0  0  0  0  0  0
    7.6301  -16.0756   26.2603 O   0  0  0  0  0  0  0  0  0  0  0  0
    9.8186  -15.4031   26.1883 N   0  0  0  0  0  0  0  0  0  0  0  0
   10.2289  -16.6682   26.7824 C   0  0  1  0  0  0  0  0  0  0  0  0
   11.5430  -17.1245   26.2368 C   0  0  0  0  0  0  0  0  0  0  0  0
   11.4615  -17.3114   24.7775 C   0  0  0  0  0  0  0  0  0  0  0  0
   10.7723  -18.2347   24.0302 C   0  0  0  0  0  0  0  0  0  0  0  0
   11.0055  -18.0597   22.7202 N   0  0  0  0  0  0  0  0  0  0  0  0
   11.8454  -17.0243   22.6121 C   0  0  0  0  0  0  0  0  0  0  0  0
   12.1289  -16.5631   23.8460 N   0  0  0  0  0  0  0  0  0  0  0  0
   10.2221  -16.5974   28.2508 C   0  0  0  0  0  0  0  0  0  0  0  0
   10.1766  -17.7472   29.0581 O   0  0  0  0  0  0  0  0  0  0  0  0
   10.2565  -15.5110   28.8503 O   0  0  0  0  0  0  0  0  0  0  0  0
  2  1  1  6
  2  3  1  0
  4  2  1  0
  4  5  1  6
  6 12  1  0
  6  4  1  0
  7  6  2  0
  9 11  1  0
  9  8  1  1
 10  9  1  0
 11 12  1  6
 13 11  1  0
 14 13  2  0
 15 13  1  0
 16 15  1  0
 16 17  1  6
 18 17  1  0
 18 22  1  0
 19 20  1  0
 19 18  2  0
 20 21  1  0
 21 22  2  0
 23 16  1  0
 23 24  1  0
 25 23  2  0
M  END
$$$$
