VVH.pdb
     RDKit          3D

 25 25  0  0  1  0  0  0  0  0999 V2000
    8.9408  -19.6804   16.3747 C   0  0  0  0  0  0  0  0  0  0  0  0
    9.3301  -18.7104   17.4436 C   0  0  2  0  0  0  0  0  0  0  0  0
    8.8514  -19.2149   18.7777 C   0  0  0  0  0  0  0  0  0  0  0  0
    8.8324  -17.3127   17.2023 C   0  0  2  0  0  0  0  0  0  0  0  0
    9.3676  -16.8813   15.9228 N   0  0  0  0  0  0  0  0  0  0  0  0
    9.2584  -16.3703   18.2667 C   0  0  0  0  0  0  0  0  0  0  0  0
   10.4696  -16.0711   18.4234 O   0  0  0  0  0  0  0  0  0  0  0  0
    7.7439  -13.4578   22.0218 C   0  0  0  0  0  0  0  0  0  0  0  0
    7.5098  -14.1638   20.7079 C   0  0  1  0  0  0  0  0  0  0  0  0
    7.0861  -13.2143   19.6190 C   0  0  0  0  0  0  0  0  0  0  0  0
    8.7223  -14.9863   20.3039 C   0  0  2  0  0  0  0  0  0  0  0  0
    8.3236  -15.7690   19.1490 N   0  0  0  0  0  0  0  0  0  0  0  0
    9.1025  -15.8595   21.4458 C   0  0  0  0  0  0  0  0  0  0  0  0
    8.3740  -16.8231   21.7845 O   0  0  0  0  0  0  0  0  0  0  0  0
   10.2873  -15.6246   22.1715 N   0  0  0  0  0  0  0  0  0  0  0  0
   10.5969  -16.4816   23.3081 C   0  0  1  0  0  0  0  0  0  0  0  0
   12.0369  -16.8802   23.3123 C   0  0  0  0  0  0  0  0  0  0  0  0
   12.3528  -17.6943   22.1255 C   0  0  0  0  0  0  0  0  0  0  0  0
   11.8355  -18.8925   21.6981 C   0  0  0  0  0  0  0  0  0  0  0  0
   12.4369  -19.2973   20.5687 N   0  0  0  0  0  0  0  0  0  0  0  0
   13.3452  -18.3656   20.2591 C   0  0  0  0  0  0  0  0  0  0  0  0
   13.3053  -17.3924   21.1902 N   0  0  0  0  0  0  0  0  0  0  0  0
   10.1794  -15.8629   24.5746 C   0  0  0  0  0  0  0  0  0  0  0  0
    9.5715  -14.5966   24.6277 O   0  0  0  0  0  0  0  0  0  0  0  0
   10.3456  -16.4342   25.6641 O   0  0  0  0  0  0  0  0  0  0  0  0
  2  1  1  6
  2  3  1  0
  4  2  1  0
  4  5  1  6
  6 12  1  0
  6  4  1  0
  7  6  2  0
  9 11  1  0
  9  8  1  1
 10  9  1  0
 11 12  1  6
 13 11  1  0
 14 13  2  0
 15 13  1  0
 16 15  1  0
 16 17  1  1
 18 17  1  0
 18 22  1  0
 19 20  1  0
 19 18  2  0
 20 21  1  0
 21 22  2  0
 23 16  1  0
 23 24  1  0
 25 23  2  0
M  END
$$$$
