VVH.pdb
     RDKit          3D

 25 25  0  0  1  0  0  0  0  0999 V2000
    6.9570  -16.8430   19.7283 C   0  0  0  0  0  0  0  0  0  0  0  0
    7.5726  -16.5346   21.0552 C   0  0  2  0  0  0  0  0  0  0  0  0
    6.8796  -17.3308   22.1272 C   0  0  0  0  0  0  0  0  0  0  0  0
    7.5641  -15.0716   21.4005 C   0  0  2  0  0  0  0  0  0  0  0  0
    8.2178  -14.3694   20.3100 N   0  0  0  0  0  0  0  0  0  0  0  0
    8.2715  -14.7882   22.6740 C   0  0  0  0  0  0  0  0  0  0  0  0
    9.5274  -14.7610   22.7280 O   0  0  0  0  0  0  0  0  0  0  0  0
    7.7785  -13.1194   27.3307 C   0  0  0  0  0  0  0  0  0  0  0  0
    7.2153  -13.4527   25.9701 C   0  0  1  0  0  0  0  0  0  0  0  0
    6.6844  -12.2359   25.2600 C   0  0  0  0  0  0  0  0  0  0  0  0
    8.2308  -14.2049   25.1258 C   0  0  2  0  0  0  0  0  0  0  0  0
    7.5660  -14.5369   23.8795 N   0  0  0  0  0  0  0  0  0  0  0  0
    8.6441  -15.4285   25.8627 C   0  0  0  0  0  0  0  0  0  0  0  0
    7.7941  -16.2829   26.2114 O   0  0  0  0  0  0  0  0  0  0  0  0
    9.9968  -15.6552   26.1853 N   0  0  0  0  0  0  0  0  0  0  0  0
   10.3450  -16.8341   26.9669 C   0  0  1  0  0  0  0  0  0  0  0  0
   11.6241  -17.4432   26.4920 C   0  0  0  0  0  0  0  0  0  0  0  0
   11.5120  -17.8491   25.0801 C   0  0  0  0  0  0  0  0  0  0  0  0
   10.5694  -18.6170   24.4413 C   0  0  0  0  0  0  0  0  0  0  0  0
   10.8714  -18.7618   23.1417 N   0  0  0  0  0  0  0  0  0  0  0  0
   12.0089  -18.0900   22.9320 C   0  0  0  0  0  0  0  0  0  0  0  0
   12.4066  -17.5344   24.0934 N   0  0  0  0  0  0  0  0  0  0  0  0
   10.3628  -16.5361   28.4064 C   0  0  0  0  0  0  0  0  0  0  0  0
   10.5338  -17.5367   29.3787 O   0  0  0  0  0  0  0  0  0  0  0  0
   10.2265  -15.3784   28.8332 O   0  0  0  0  0  0  0  0  0  0  0  0
  2  1  1  6
  2  3  1  0
  4  2  1  0
  4  5  1  6
  6 12  1  0
  6  4  1  0
  7  6  2  0
  9 11  1  0
  9  8  1  1
 10  9  1  0
 11 12  1  6
 13 11  1  0
 14 13  2  0
 15 13  1  0
 16 15  1  0
 16 17  1  6
 18 17  1  0
 18 22  1  0
 19 20  1  0
 19 18  2  0
 20 21  1  0
 21 22  2  0
 23 16  1  0
 23 24  1  0
 25 23  2  0
M  END
$$$$
