VVH.pdb
     RDKit          3D

 25 25  0  0  1  0  0  0  0  0999 V2000
    6.4982  -15.5455   19.7359 C   0  0  0  0  0  0  0  0  0  0  0  0
    7.2440  -15.4489   21.0280 C   0  0  2  0  0  0  0  0  0  0  0  0
    6.6732  -16.4337   22.0118 C   0  0  0  0  0  0  0  0  0  0  0  0
    7.2560  -14.0660   21.6174 C   0  0  2  0  0  0  0  0  0  0  0  0
    7.7493  -13.1657   20.5898 N   0  0  0  0  0  0  0  0  0  0  0  0
    8.1193  -13.9730   22.8210 C   0  0  0  0  0  0  0  0  0  0  0  0
    9.3721  -13.9340   22.7210 O   0  0  0  0  0  0  0  0  0  0  0  0
    7.4866  -11.6299   26.0035 C   0  0  0  0  0  0  0  0  0  0  0  0
    7.5864  -13.0934   26.3608 C   0  0  1  0  0  0  0  0  0  0  0  0
    6.2355  -13.7163   26.5921 C   0  0  0  0  0  0  0  0  0  0  0  0
    8.3937  -13.8570   25.3238 C   0  0  2  0  0  0  0  0  0  0  0  0
    7.5723  -13.9244   24.1296 N   0  0  0  0  0  0  0  0  0  0  0  0
    8.6863  -15.2134   25.8581 C   0  0  0  0  0  0  0  0  0  0  0  0
    7.7631  -16.0447   26.0336 O   0  0  0  0  0  0  0  0  0  0  0  0
   10.0044  -15.5948   26.1785 N   0  0  0  0  0  0  0  0  0  0  0  0
   10.2395  -16.9286   26.7147 C   0  0  1  0  0  0  0  0  0  0  0  0
   11.5495  -17.4779   26.2513 C   0  0  0  0  0  0  0  0  0  0  0  0
   11.5336  -17.6963   24.7942 C   0  0  0  0  0  0  0  0  0  0  0  0
   10.5207  -17.5519   23.8782 C   0  0  0  0  0  0  0  0  0  0  0  0
   10.9372  -17.8887   22.6477 N   0  0  0  0  0  0  0  0  0  0  0  0
   12.2195  -18.2526   22.7597 C   0  0  0  0  0  0  0  0  0  0  0  0
   12.5923  -18.1413   24.0497 N   0  0  0  0  0  0  0  0  0  0  0  0
   10.1060  -16.9485   28.1786 C   0  0  0  0  0  0  0  0  0  0  0  0
    9.9611  -15.7731   28.9358 O   0  0  0  0  0  0  0  0  0  0  0  0
   10.1150  -18.0121   28.8187 O   0  0  0  0  0  0  0  0  0  0  0  0
  2  1  1  6
  2  3  1  0
  4  2  1  0
  4  5  1  6
  6 12  1  0
  6  4  1  0
  7  6  2  0
  9 11  1  0
  9  8  1  6
 10  9  1  0
 11 12  1  6
 13 11  1  0
 14 13  2  0
 15 13  1  0
 16 15  1  0
 16 17  1  1
 18 17  1  0
 18 22  1  0
 19 20  1  0
 19 18  2  0
 20 21  1  0
 21 22  2  0
 23 16  1  0
 23 24  1  0
 25 23  2  0
M  END
$$$$
