VVH.pdb
     RDKit          3D

 25 25  0  0  1  0  0  0  0  0999 V2000
    7.4527  -17.7895   22.6213 C   0  0  0  0  0  0  0  0  0  0  0  0
    6.3540  -16.8014   22.3943 C   0  0  2  0  0  0  0  0  0  0  0  0
    5.4631  -17.2877   21.2839 C   0  0  0  0  0  0  0  0  0  0  0  0
    6.8428  -15.4099   22.1031 C   0  0  2  0  0  0  0  0  0  0  0  0
    7.6064  -15.4727   20.8691 N   0  0  0  0  0  0  0  0  0  0  0  0
    7.6949  -14.8716   23.1924 C   0  0  0  0  0  0  0  0  0  0  0  0
    8.9482  -14.9585   23.1406 O   0  0  0  0  0  0  0  0  0  0  0  0
    7.8187  -12.3366   27.4775 C   0  0  0  0  0  0  0  0  0  0  0  0
    7.0865  -12.8324   26.2537 C   0  0  1  0  0  0  0  0  0  0  0  0
    6.5971  -11.7031   25.3867 C   0  0  0  0  0  0  0  0  0  0  0  0
    7.9338  -13.8225   25.4717 C   0  0  2  0  0  0  0  0  0  0  0  0
    7.1363  -14.2389   24.3333 N   0  0  0  0  0  0  0  0  0  0  0  0
    8.2555  -14.9723   26.3580 C   0  0  0  0  0  0  0  0  0  0  0  0
    7.3405  -15.6659   26.8636 O   0  0  0  0  0  0  0  0  0  0  0  0
    9.5927  -15.3079   26.6493 N   0  0  0  0  0  0  0  0  0  0  0  0
    9.8589  -16.4601   27.4999 C   0  0  1  0  0  0  0  0  0  0  0  0
   10.8483  -17.3849   26.8687 C   0  0  0  0  0  0  0  0  0  0  0  0
   10.2281  -18.1272   25.7572 C   0  0  0  0  0  0  0  0  0  0  0  0
    8.9140  -18.2287   25.3713 C   0  0  0  0  0  0  0  0  0  0  0  0
    8.7886  -19.0412   24.3106 N   0  0  0  0  0  0  0  0  0  0  0  0
   10.0181  -19.4697   24.0043 C   0  0  0  0  0  0  0  0  0  0  0  0
   10.8966  -18.9259   24.8694 N   0  0  0  0  0  0  0  0  0  0  0  0
   10.2577  -16.0460   28.8529 C   0  0  0  0  0  0  0  0  0  0  0  0
   10.0934  -16.8797   29.9727 O   0  0  0  0  0  0  0  0  0  0  0  0
   10.7617  -14.9328   29.0711 O   0  0  0  0  0  0  0  0  0  0  0  0
  2  1  1  6
  2  3  1  0
  4  2  1  0
  4  5  1  6
  6 12  1  0
  6  4  1  0
  7  6  2  0
  9 11  1  0
  9  8  1  1
 10  9  1  0
 11 12  1  6
 13 11  1  0
 14 13  2  0
 15 13  1  0
 16 15  1  0
 16 17  1  6
 18 17  1  0
 18 22  1  0
 19 20  1  0
 19 18  2  0
 20 21  1  0
 21 22  2  0
 23 16  1  0
 23 24  1  0
 25 23  2  0
M  END
$$$$
