VVH.pdb
     RDKit          3D

 25 25  0  0  1  0  0  0  0  0999 V2000
   10.0070  -18.9760   15.9757 C   0  0  0  0  0  0  0  0  0  0  0  0
   10.0023  -18.2756   17.2965 C   0  0  2  0  0  0  0  0  0  0  0  0
    8.8225  -18.7395   18.1064 C   0  0  0  0  0  0  0  0  0  0  0  0
   10.0056  -16.7764   17.1860 C   0  0  2  0  0  0  0  0  0  0  0  0
   11.1954  -16.4035   16.4410 N   0  0  0  0  0  0  0  0  0  0  0  0
   10.0176  -16.1128   18.5134 C   0  0  0  0  0  0  0  0  0  0  0  0
   11.0512  -16.1100   19.2295 O   0  0  0  0  0  0  0  0  0  0  0  0
    7.5038  -13.1452   21.6267 C   0  0  0  0  0  0  0  0  0  0  0  0
    7.6945  -13.8093   20.2843 C   0  0  1  0  0  0  0  0  0  0  0  0
    7.8278  -12.8081   19.1678 C   0  0  0  0  0  0  0  0  0  0  0  0
    8.8605  -14.7836   20.3154 C   0  0  2  0  0  0  0  0  0  0  0  0
    8.8703  -15.4562   19.0298 N   0  0  0  0  0  0  0  0  0  0  0  0
    8.6430  -15.7449   21.4288 C   0  0  0  0  0  0  0  0  0  0  0  0
    7.9701  -16.7887   21.2505 O   0  0  0  0  0  0  0  0  0  0  0  0
    9.1869  -15.5056   22.7064 N   0  0  0  0  0  0  0  0  0  0  0  0
    9.9948  -16.5437   23.3322 C   0  0  1  0  0  0  0  0  0  0  0  0
   11.0933  -16.9978   22.4269 C   0  0  0  0  0  0  0  0  0  0  0  0
   11.8381  -18.1141   23.0351 C   0  0  0  0  0  0  0  0  0  0  0  0
   11.6619  -18.7602   24.2341 C   0  0  0  0  0  0  0  0  0  0  0  0
   12.5930  -19.7111   24.4063 N   0  0  0  0  0  0  0  0  0  0  0  0
   13.3760  -19.6862   23.3221 C   0  0  0  0  0  0  0  0  0  0  0  0
   12.9318  -18.7271   22.4864 N   0  0  0  0  0  0  0  0  0  0  0  0
   10.4897  -16.1162   24.6489 C   0  0  0  0  0  0  0  0  0  0  0  0
   10.6780  -17.0187   25.7099 O   0  0  0  0  0  0  0  0  0  0  0  0
   10.7663  -14.9296   24.8865 O   0  0  0  0  0  0  0  0  0  0  0  0
  2  1  1  6
  2  3  1  0
  4  2  1  0
  4  5  1  6
  6 12  1  0
  6  4  1  0
  7  6  2  0
  9 11  1  0
  9  8  1  1
 10  9  1  0
 11 12  1  6
 13 11  1  0
 14 13  2  0
 15 13  1  0
 16 15  1  0
 16 17  1  6
 18 17  1  0
 18 22  1  0
 19 20  1  0
 19 18  2  0
 20 21  1  0
 21 22  2  0
 23 16  1  0
 23 24  1  0
 25 23  2  0
M  END
$$$$
