VVH.pdb
     RDKit          3D

 25 25  0  0  1  0  0  0  0  0999 V2000
    7.9332  -15.4479   20.3931 C   0  0  0  0  0  0  0  0  0  0  0  0
    6.9138  -14.3613   20.5169 C   0  0  2  0  0  0  0  0  0  0  0  0
    6.3069  -14.0865   19.1680 C   0  0  0  0  0  0  0  0  0  0  0  0
    7.4519  -13.0929   21.1179 C   0  0  2  0  0  0  0  0  0  0  0  0
    8.5304  -12.6349   20.2595 N   0  0  0  0  0  0  0  0  0  0  0  0
    7.9609  -13.2937   22.4975 C   0  0  0  0  0  0  0  0  0  0  0  0
    9.1732  -13.5490   22.7124 O   0  0  0  0  0  0  0  0  0  0  0  0
    6.8460  -13.1788   27.3551 C   0  0  0  0  0  0  0  0  0  0  0  0
    6.5241  -12.8730   25.9120 C   0  0  1  0  0  0  0  0  0  0  0  0
    6.3408  -11.3984   25.6697 C   0  0  0  0  0  0  0  0  0  0  0  0
    7.5610  -13.4771   24.9793 C   0  0  2  0  0  0  0  0  0  0  0  0
    7.1072  -13.2069   23.6278 N   0  0  0  0  0  0  0  0  0  0  0  0
    7.6394  -14.9383   25.2432 C   0  0  0  0  0  0  0  0  0  0  0  0
    6.6496  -15.6803   25.0333 O   0  0  0  0  0  0  0  0  0  0  0  0
    8.8247  -15.5213   25.7338 N   0  0  0  0  0  0  0  0  0  0  0  0
    8.8293  -16.9427   26.0524 C   0  0  1  0  0  0  0  0  0  0  0  0
    8.6151  -17.7748   24.8300 C   0  0  0  0  0  0  0  0  0  0  0  0
    9.7101  -17.5704   23.8655 C   0  0  0  0  0  0  0  0  0  0  0  0
   10.8333  -16.7837   23.9395 C   0  0  0  0  0  0  0  0  0  0  0  0
   11.5563  -16.8751   22.8126 N   0  0  0  0  0  0  0  0  0  0  0  0
   10.9065  -17.7196   22.0040 C   0  0  0  0  0  0  0  0  0  0  0  0
    9.7906  -18.1468   22.6268 N   0  0  0  0  0  0  0  0  0  0  0  0
   10.0445  -17.3227   26.7873 C   0  0  0  0  0  0  0  0  0  0  0  0
   11.0834  -16.4112   27.0436 O   0  0  0  0  0  0  0  0  0  0  0  0
   10.2108  -18.4747   27.2188 O   0  0  0  0  0  0  0  0  0  0  0  0
  2  1  1  6
  2  3  1  0
  4  2  1  0
  4  5  1  6
  6 12  1  0
  6  4  1  0
  7  6  2  0
  9 11  1  0
  9  8  1  1
 10  9  1  0
 11 12  1  6
 13 11  1  0
 14 13  2  0
 15 13  1  0
 16 15  1  0
 16 17  1  6
 18 17  1  0
 18 22  1  0
 19 20  1  0
 19 18  2  0
 20 21  1  0
 21 22  2  0
 23 16  1  0
 23 24  1  0
 25 23  2  0
M  END
$$$$
