HLS.pdb
     RDKit          3D

 25 25  0  0  1  0  0  0  0  0999 V2000
   21.2412  -13.4825  -16.0614 N   0  0  0  0  0  0  0  0  0  0  0  0
   21.2550  -12.2857  -16.8622 C   0  0  1  0  0  0  0  0  0  0  0  0
   19.8351  -11.8961  -17.2113 C   0  0  0  0  0  0  0  0  0  0  0  0
   19.2775  -12.9697  -18.0744 C   0  0  0  0  0  0  0  0  0  0  0  0
   19.6637  -13.2215  -19.3601 C   0  0  0  0  0  0  0  0  0  0  0  0
   18.9327  -14.2669  -19.8070 N   0  0  0  0  0  0  0  0  0  0  0  0
   18.1074  -14.6610  -18.8238 C   0  0  0  0  0  0  0  0  0  0  0  0
   18.3194  -13.8635  -17.7587 N   0  0  0  0  0  0  0  0  0  0  0  0
   21.9468  -11.2048  -16.1076 C   0  0  0  0  0  0  0  0  0  0  0  0
   21.5271  -10.8719  -14.9474 O   0  0  0  0  0  0  0  0  0  0  0  0
   26.1735  -11.0637  -14.8394 C   0  0  0  0  0  0  0  0  0  0  0  0
   25.9857  -10.6567  -16.3088 C   0  0  2  0  0  0  0  0  0  0  0  0
   27.3830  -10.5119  -16.8729 C   0  0  0  0  0  0  0  0  0  0  0  0
   25.2044   -9.3985  -16.3516 C   0  0  0  0  0  0  0  0  0  0  0  0
   23.7570   -9.4852  -16.0354 C   0  0  2  0  0  0  0  0  0  0  0  0
   23.0695  -10.5584  -16.6959 N   0  0  0  0  0  0  0  0  0  0  0  0
   23.0026   -8.2154  -16.1897 C   0  0  0  0  0  0  0  0  0  0  0  0
   22.6822   -7.7738  -17.3226 O   0  0  0  0  0  0  0  0  0  0  0  0
   22.1864   -5.7430  -12.7681 O   0  0  0  0  0  0  0  0  0  0  0  0
   21.2047   -5.9639  -13.7509 C   0  0  0  0  0  0  0  0  0  0  0  0
   21.9192   -6.2415  -15.0551 C   0  0  2  0  0  0  0  0  0  0  0  0
   22.6341   -7.4823  -15.0418 N   0  0  0  0  0  0  0  0  0  0  0  0
   22.7740   -5.1016  -15.4640 C   0  0  0  0  0  0  0  0  0  0  0  0
   22.1829   -3.8616  -15.7417 O   0  0  0  0  0  0  0  0  0  0  0  0
   24.0109   -5.1698  -15.5811 O   0  0  0  0  0  0  0  0  0  0  0  0
  2  1  1  1
  2  9  1  0
  3  2  1  0
  4  3  1  0
  5  4  2  0
  6  5  1  0
  7  6  1  0
  7  8  2  0
  8  4  1  0
  9 10  2  0
 12 11  1  1
 12 14  1  0
 12 13  1  0
 15 14  1  6
 16  9  1  0
 16 15  1  0
 17 15  1  0
 17 18  2  0
 19 20  1  0
 21 20  1  1
 21 22  1  0
 22 17  1  0
 23 24  1  0
 23 21  1  0
 25 23  2  0
M  END
$$$$
