HLS.pdb
     RDKit          3D

 25 25  0  0  1  0  0  0  0  0999 V2000
   14.7909  -21.6473    1.6622 N   0  0  0  0  0  0  0  0  0  0  0  0
   14.7828  -20.3472    2.2815 C   0  0  1  0  0  0  0  0  0  0  0  0
   13.8972  -20.3785    3.5081 C   0  0  0  0  0  0  0  0  0  0  0  0
   12.4883  -20.4410    3.0396 C   0  0  0  0  0  0  0  0  0  0  0  0
   12.0897  -20.3298    1.7380 C   0  0  0  0  0  0  0  0  0  0  0  0
   10.7424  -20.4363    1.7148 N   0  0  0  0  0  0  0  0  0  0  0  0
   10.3070  -20.6103    2.9731 C   0  0  0  0  0  0  0  0  0  0  0  0
   11.3804  -20.6132    3.7875 N   0  0  0  0  0  0  0  0  0  0  0  0
   16.1795  -19.9657    2.6274 C   0  0  0  0  0  0  0  0  0  0  0  0
   17.0339  -20.8729    2.9103 O   0  0  0  0  0  0  0  0  0  0  0  0
   19.6380  -15.1853    2.5840 C   0  0  0  0  0  0  0  0  0  0  0  0
   19.8257  -16.6938    2.3614 C   0  0  2  0  0  0  0  0  0  0  0  0
   20.8619  -16.8177    1.2648 C   0  0  0  0  0  0  0  0  0  0  0  0
   18.5154  -17.2816    1.9972 C   0  0  0  0  0  0  0  0  0  0  0  0
   17.8581  -18.1541    3.0018 C   0  0  2  0  0  0  0  0  0  0  0  0
   16.5397  -18.5892    2.6365 N   0  0  0  0  0  0  0  0  0  0  0  0
   17.8627  -17.6281    4.3905 C   0  0  0  0  0  0  0  0  0  0  0  0
   17.2494  -16.5740    4.6970 O   0  0  0  0  0  0  0  0  0  0  0  0
   17.4518  -19.7772    7.5684 O   0  0  0  0  0  0  0  0  0  0  0  0
   17.4688  -18.3709    7.5849 C   0  0  0  0  0  0  0  0  0  0  0  0
   18.6576  -17.9193    6.7655 C   0  0  2  0  0  0  0  0  0  0  0  0
   18.5705  -18.3228    5.3942 N   0  0  0  0  0  0  0  0  0  0  0  0
   19.9388  -18.3222    7.3925 C   0  0  0  0  0  0  0  0  0  0  0  0
   20.2504  -17.8642    8.6798 O   0  0  0  0  0  0  0  0  0  0  0  0
   20.7788  -19.0572    6.8424 O   0  0  0  0  0  0  0  0  0  0  0  0
  2  1  1  1
  2  9  1  0
  3  2  1  0
  4  3  1  0
  5  4  2  0
  6  5  1  0
  7  6  1  0
  7  8  2  0
  8  4  1  0
  9 10  2  0
 12 11  1  6
 12 14  1  0
 12 13  1  0
 15 14  1  6
 16  9  1  0
 16 15  1  0
 17 15  1  0
 17 18  2  0
 19 20  1  0
 21 20  1  1
 21 22  1  0
 22 17  1  0
 23 24  1  0
 23 21  1  0
 25 23  2  0
M  END
$$$$
