HLS.pdb
     RDKit          3D

 25 25  0  0  1  0  0  0  0  0999 V2000
   26.3465  -20.1890  -16.6407 N   0  0  0  0  0  0  0  0  0  0  0  0
   25.5361  -19.3178  -15.8295 C   0  0  1  0  0  0  0  0  0  0  0  0
   24.7291  -18.4021  -16.7239 C   0  0  0  0  0  0  0  0  0  0  0  0
   25.6857  -17.5058  -17.4239 C   0  0  0  0  0  0  0  0  0  0  0  0
   25.9306  -17.5171  -18.7675 C   0  0  0  0  0  0  0  0  0  0  0  0
   26.8548  -16.5637  -19.0205 N   0  0  0  0  0  0  0  0  0  0  0  0
   27.1814  -15.9689  -17.8618 C   0  0  0  0  0  0  0  0  0  0  0  0
   26.4627  -16.5480  -16.8803 N   0  0  0  0  0  0  0  0  0  0  0  0
   24.6554  -20.1449  -14.9597 C   0  0  0  0  0  0  0  0  0  0  0  0
   24.0197  -21.1350  -15.4583 O   0  0  0  0  0  0  0  0  0  0  0  0
   25.9523  -22.1810  -11.3707 C   0  0  0  0  0  0  0  0  0  0  0  0
   25.5740  -20.7379  -11.0041 C   0  0  2  0  0  0  0  0  0  0  0  0
   25.9344  -20.5814   -9.5422 C   0  0  0  0  0  0  0  0  0  0  0  0
   24.1297  -20.5477  -11.2741 C   0  0  0  0  0  0  0  0  0  0  0  0
   23.6944  -20.5656  -12.6927 C   0  0  2  0  0  0  0  0  0  0  0  0
   24.5371  -19.8156  -13.5805 N   0  0  0  0  0  0  0  0  0  0  0  0
   22.2681  -20.2183  -12.9172 C   0  0  0  0  0  0  0  0  0  0  0  0
   21.7938  -19.1138  -12.5483 O   0  0  0  0  0  0  0  0  0  0  0  0
   18.5169  -19.9930  -15.4310 O   0  0  0  0  0  0  0  0  0  0  0  0
   19.8727  -20.3362  -15.2810 C   0  0  0  0  0  0  0  0  0  0  0  0
   20.0475  -20.9086  -13.8916 C   0  0  2  0  0  0  0  0  0  0  0  0
   21.4200  -21.1457  -13.5588 N   0  0  0  0  0  0  0  0  0  0  0  0
   19.2006  -22.1072  -13.6834 C   0  0  0  0  0  0  0  0  0  0  0  0
   17.9068  -21.9558  -13.1665 O   0  0  0  0  0  0  0  0  0  0  0  0
   19.5668  -23.2680  -13.9418 O   0  0  0  0  0  0  0  0  0  0  0  0
  2  1  1  6
  2  9  1  0
  3  2  1  0
  4  3  1  0
  5  4  2  0
  6  5  1  0
  7  6  1  0
  7  8  2  0
  8  4  1  0
  9 10  2  0
 12 11  1  1
 12 14  1  0
 12 13  1  0
 15 14  1  1
 16  9  1  0
 16 15  1  0
 17 15  1  0
 17 18  2  0
 19 20  1  0
 21 20  1  6
 21 22  1  0
 22 17  1  0
 23 24  1  0
 23 21  1  0
 25 23  2  0
M  END
$$$$
