HLS.pdb
     RDKit          3D

 25 25  0  0  1  0  0  0  0  0999 V2000
   21.1956  -12.7433  -16.2820 N   0  0  0  0  0  0  0  0  0  0  0  0
   20.4594  -11.5348  -16.5492 C   0  0  1  0  0  0  0  0  0  0  0  0
   19.1724  -11.5420  -15.7534 C   0  0  0  0  0  0  0  0  0  0  0  0
   18.2969  -12.5950  -16.3306 C   0  0  0  0  0  0  0  0  0  0  0  0
   18.0915  -13.8297  -15.7841 C   0  0  0  0  0  0  0  0  0  0  0  0
   17.2389  -14.4962  -16.5941 N   0  0  0  0  0  0  0  0  0  0  0  0
   16.9177  -13.6973  -17.6244 C   0  0  0  0  0  0  0  0  0  0  0  0
   17.5681  -12.5285  -17.4624 N   0  0  0  0  0  0  0  0  0  0  0  0
   21.3085  -10.3625  -16.2018 C   0  0  0  0  0  0  0  0  0  0  0  0
   21.9538  -10.3506  -15.0989 O   0  0  0  0  0  0  0  0  0  0  0  0
   24.9131   -6.5769  -19.1483 C   0  0  0  0  0  0  0  0  0  0  0  0
   24.2009   -6.8055  -17.8064 C   0  0  2  0  0  0  0  0  0  0  0  0
   25.3026   -7.0467  -16.7967 C   0  0  0  0  0  0  0  0  0  0  0  0
   23.2799   -7.9567  -17.9535 C   0  0  0  0  0  0  0  0  0  0  0  0
   22.2696   -8.1606  -16.8858 C   0  0  2  0  0  0  0  0  0  0  0  0
   21.3863   -9.2699  -17.1099 N   0  0  0  0  0  0  0  0  0  0  0  0
   21.4946   -6.9497  -16.5139 C   0  0  0  0  0  0  0  0  0  0  0  0
   20.4484   -6.6229  -17.1301 O   0  0  0  0  0  0  0  0  0  0  0  0
   21.2737   -3.1437  -13.4873 O   0  0  0  0  0  0  0  0  0  0  0  0
   22.0190   -4.2797  -13.8514 C   0  0  0  0  0  0  0  0  0  0  0  0
   21.3578   -4.8884  -15.0683 C   0  0  2  0  0  0  0  0  0  0  0  0
   21.9379   -6.1424  -15.4448 N   0  0  0  0  0  0  0  0  0  0  0  0
   21.3025   -3.9299  -16.1976 C   0  0  0  0  0  0  0  0  0  0  0  0
   20.0663   -3.4017  -16.5937 O   0  0  0  0  0  0  0  0  0  0  0  0
   22.3019   -3.5515  -16.8351 O   0  0  0  0  0  0  0  0  0  0  0  0
  2  1  1  1
  2  9  1  0
  3  2  1  0
  4  3  1  0
  5  4  2  0
  6  5  1  0
  7  6  1  0
  7  8  2  0
  8  4  1  0
  9 10  2  0
 12 11  1  6
 12 14  1  0
 12 13  1  0
 15 14  1  6
 16  9  1  0
 16 15  1  0
 17 15  1  0
 17 18  2  0
 19 20  1  0
 21 20  1  1
 21 22  1  0
 22 17  1  0
 23 24  1  0
 23 21  1  0
 25 23  2  0
M  END
$$$$
