HLS.pdb
     RDKit          3D

 25 25  0  0  1  0  0  0  0  0999 V2000
   24.9667  -15.7484  -18.7805 N   0  0  0  0  0  0  0  0  0  0  0  0
   23.9901  -14.6902  -18.7930 C   0  0  1  0  0  0  0  0  0  0  0  0
   22.5999  -15.2864  -18.7510 C   0  0  0  0  0  0  0  0  0  0  0  0
   22.4077  -16.0586  -20.0060 C   0  0  0  0  0  0  0  0  0  0  0  0
   22.6153  -17.4019  -20.1393 C   0  0  0  0  0  0  0  0  0  0  0  0
   22.3364  -17.7315  -21.4201 N   0  0  0  0  0  0  0  0  0  0  0  0
   21.9625  -16.6201  -22.0743 C   0  0  0  0  0  0  0  0  0  0  0  0
   22.0064  -15.5916  -21.2050 N   0  0  0  0  0  0  0  0  0  0  0  0
   24.2331  -13.7917  -17.6312 C   0  0  0  0  0  0  0  0  0  0  0  0
   25.0892  -14.1217  -16.7417 O   0  0  0  0  0  0  0  0  0  0  0  0
   27.1300   -9.6485  -16.0985 C   0  0  0  0  0  0  0  0  0  0  0  0
   25.7059  -10.0694  -15.7050 C   0  0  2  0  0  0  0  0  0  0  0  0
   25.7808  -10.4379  -14.2386 C   0  0  0  0  0  0  0  0  0  0  0  0
   25.2932  -11.1982  -16.5714 C   0  0  0  0  0  0  0  0  0  0  0  0
   23.8532  -11.5571  -16.5817 C   0  0  2  0  0  0  0  0  0  0  0  0
   23.5030  -12.5746  -17.5320 N   0  0  0  0  0  0  0  0  0  0  0  0
   22.9195  -10.4073  -16.6878 C   0  0  0  0  0  0  0  0  0  0  0  0
   22.8626   -9.6991  -17.7253 O   0  0  0  0  0  0  0  0  0  0  0  0
   19.1524   -8.1587  -14.6028 O   0  0  0  0  0  0  0  0  0  0  0  0
   20.0803   -9.2089  -14.4823 C   0  0  0  0  0  0  0  0  0  0  0  0
   21.0880   -9.0579  -15.6005 C   0  0  2  0  0  0  0  0  0  0  0  0
   22.0737  -10.0967  -15.6018 N   0  0  0  0  0  0  0  0  0  0  0  0
   21.6933   -7.7049  -15.6122 C   0  0  0  0  0  0  0  0  0  0  0  0
   21.0022   -6.6457  -16.2161 O   0  0  0  0  0  0  0  0  0  0  0  0
   22.8001   -7.4363  -15.1109 O   0  0  0  0  0  0  0  0  0  0  0  0
  2  1  1  1
  2  9  1  0
  3  2  1  0
  4  3  1  0
  5  4  2  0
  6  5  1  0
  7  6  1  0
  7  8  2  0
  8  4  1  0
  9 10  2  0
 12 11  1  6
 12 14  1  0
 12 13  1  0
 15 14  1  6
 16  9  1  0
 16 15  1  0
 17 15  1  0
 17 18  2  0
 19 20  1  0
 21 20  1  1
 21 22  1  0
 22 17  1  0
 23 24  1  0
 23 21  1  0
 25 23  2  0
M  END
$$$$
