HLS.pdb
     RDKit          3D

 25 25  0  0  1  0  0  0  0  0999 V2000
   22.2604  -15.6253  -16.5841 N   0  0  0  0  0  0  0  0  0  0  0  0
   22.4815  -14.4758  -17.4228 C   0  0  1  0  0  0  0  0  0  0  0  0
   21.2956  -14.2881  -18.3439 C   0  0  0  0  0  0  0  0  0  0  0  0
   21.2843  -15.4299  -19.2948 C   0  0  0  0  0  0  0  0  0  0  0  0
   21.7916  -15.3990  -20.5626 C   0  0  0  0  0  0  0  0  0  0  0  0
   21.5952  -16.6196  -21.1091 N   0  0  0  0  0  0  0  0  0  0  0  0
   20.9790  -17.3973  -20.2044 C   0  0  0  0  0  0  0  0  0  0  0  0
   20.7879  -16.6659  -19.0891 N   0  0  0  0  0  0  0  0  0  0  0  0
   22.6971  -13.2809  -16.5616 C   0  0  0  0  0  0  0  0  0  0  0  0
   21.8869  -13.0333  -15.6049 O   0  0  0  0  0  0  0  0  0  0  0  0
   26.6144  -12.2993  -14.6933 C   0  0  0  0  0  0  0  0  0  0  0  0
   26.5099  -11.7190  -16.1120 C   0  0  2  0  0  0  0  0  0  0  0  0
   27.8714  -11.1290  -16.4118 C   0  0  0  0  0  0  0  0  0  0  0  0
   25.4205  -10.7150  -16.1299 C   0  0  0  0  0  0  0  0  0  0  0  0
   24.0268  -11.2222  -16.0785 C   0  0  2  0  0  0  0  0  0  0  0  0
   23.8085  -12.4312  -16.8212 N   0  0  0  0  0  0  0  0  0  0  0  0
   22.9806  -10.2197  -16.4037 C   0  0  0  0  0  0  0  0  0  0  0  0
   22.6874   -9.9365  -17.5932 O   0  0  0  0  0  0  0  0  0  0  0  0
   19.5571  -10.1693  -15.4597 O   0  0  0  0  0  0  0  0  0  0  0  0
   19.9678   -8.9485  -14.8945 C   0  0  0  0  0  0  0  0  0  0  0  0
   21.2839   -8.5684  -15.5364 C   0  0  2  0  0  0  0  0  0  0  0  0
   22.2959   -9.5657  -15.3574 N   0  0  0  0  0  0  0  0  0  0  0  0
   21.7341   -7.2233  -15.1061 C   0  0  0  0  0  0  0  0  0  0  0  0
   20.8959   -6.1185  -15.3082 O   0  0  0  0  0  0  0  0  0  0  0  0
   22.8318   -7.0002  -14.5643 O   0  0  0  0  0  0  0  0  0  0  0  0
  2  1  1  1
  2  9  1  0
  3  2  1  0
  4  3  1  0
  5  4  2  0
  6  5  1  0
  7  6  1  0
  7  8  2  0
  8  4  1  0
  9 10  2  0
 12 11  1  1
 12 14  1  0
 12 13  1  0
 15 14  1  6
 16  9  1  0
 16 15  1  0
 17 15  1  0
 17 18  2  0
 19 20  1  0
 21 20  1  1
 21 22  1  0
 22 17  1  0
 23 24  1  0
 23 21  1  0
 25 23  2  0
M  END
$$$$
