HLS.pdb
     RDKit          3D

 25 25  0  0  1  0  0  0  0  0999 V2000
   26.4708  -21.0044  -16.7025 N   0  0  0  0  0  0  0  0  0  0  0  0
   25.6762  -20.0308  -15.9992 C   0  0  1  0  0  0  0  0  0  0  0  0
   24.8790  -19.2165  -16.9948 C   0  0  0  0  0  0  0  0  0  0  0  0
   25.8100  -18.2426  -17.6217 C   0  0  0  0  0  0  0  0  0  0  0  0
   26.6666  -18.5258  -18.6471 C   0  0  0  0  0  0  0  0  0  0  0  0
   27.3414  -17.3914  -18.9384 N   0  0  0  0  0  0  0  0  0  0  0  0
   26.9172  -16.4198  -18.1142 C   0  0  0  0  0  0  0  0  0  0  0  0
   25.9758  -16.9431  -17.3048 N   0  0  0  0  0  0  0  0  0  0  0  0
   24.7872  -20.7351  -15.0350 C   0  0  0  0  0  0  0  0  0  0  0  0
   24.4666  -21.9548  -15.2414 O   0  0  0  0  0  0  0  0  0  0  0  0
   25.6481  -22.3606  -11.4140 C   0  0  0  0  0  0  0  0  0  0  0  0
   25.4377  -20.8436  -11.2937 C   0  0  2  0  0  0  0  0  0  0  0  0
   25.9165  -20.4750   -9.9057 C   0  0  0  0  0  0  0  0  0  0  0  0
   24.0026  -20.5493  -11.5148 C   0  0  0  0  0  0  0  0  0  0  0  0
   23.4890  -20.6697  -12.9019 C   0  0  2  0  0  0  0  0  0  0  0  0
   24.3079  -20.0327  -13.8942 N   0  0  0  0  0  0  0  0  0  0  0  0
   22.0661  -20.2846  -13.0812 C   0  0  0  0  0  0  0  0  0  0  0  0
   21.2072  -20.5055  -12.1897 O   0  0  0  0  0  0  0  0  0  0  0  0
   21.0119  -17.0695  -14.9373 O   0  0  0  0  0  0  0  0  0  0  0  0
   20.2338  -18.0902  -15.5126 C   0  0  0  0  0  0  0  0  0  0  0  0
   20.3143  -19.2944  -14.6003 C   0  0  2  0  0  0  0  0  0  0  0  0
   21.6619  -19.6560  -14.2780 N   0  0  0  0  0  0  0  0  0  0  0  0
   19.5348  -20.4371  -15.1329 C   0  0  0  0  0  0  0  0  0  0  0  0
   18.1710  -20.2719  -15.4100 O   0  0  0  0  0  0  0  0  0  0  0  0
   20.0183  -21.5615  -15.3571 O   0  0  0  0  0  0  0  0  0  0  0  0
  2  1  1  6
  2  9  1  0
  3  2  1  0
  4  3  1  0
  5  4  2  0
  6  5  1  0
  7  6  1  0
  7  8  2  0
  8  4  1  0
  9 10  2  0
 12 11  1  1
 12 14  1  0
 12 13  1  0
 15 14  1  1
 16  9  1  0
 16 15  1  0
 17 15  1  0
 17 18  2  0
 19 20  1  0
 21 20  1  6
 21 22  1  0
 22 17  1  0
 23 24  1  0
 23 21  1  0
 25 23  2  0
M  END
$$$$
