HLS.pdb
     RDKit          3D

 25 25  0  0  1  0  0  0  0  0999 V2000
   17.4647  -10.8492  -15.9598 N   0  0  0  0  0  0  0  0  0  0  0  0
   18.2317   -9.9136  -16.7410 C   0  0  1  0  0  0  0  0  0  0  0  0
   17.2928   -8.9901  -17.4863 C   0  0  0  0  0  0  0  0  0  0  0  0
   16.7518   -9.7452  -18.6462 C   0  0  0  0  0  0  0  0  0  0  0  0
   17.1983  -10.9668  -19.0632 C   0  0  0  0  0  0  0  0  0  0  0  0
   16.4631  -11.3226  -20.1402 N   0  0  0  0  0  0  0  0  0  0  0  0
   15.5764  -10.3462  -20.3921 C   0  0  0  0  0  0  0  0  0  0  0  0
   15.7539   -9.3765  -19.4737 N   0  0  0  0  0  0  0  0  0  0  0  0
   19.1385   -9.1549  -15.8365 C   0  0  0  0  0  0  0  0  0  0  0  0
   18.7366   -8.8184  -14.6710 O   0  0  0  0  0  0  0  0  0  0  0  0
   22.6215   -9.8467  -13.4313 C   0  0  0  0  0  0  0  0  0  0  0  0
   22.9640   -9.8467  -14.9289 C   0  0  2  0  0  0  0  0  0  0  0  0
   24.4107  -10.2838  -15.0156 C   0  0  0  0  0  0  0  0  0  0  0  0
   22.7313   -8.4849  -15.4641 C   0  0  0  0  0  0  0  0  0  0  0  0
   21.3291   -8.0008  -15.5065 C   0  0  2  0  0  0  0  0  0  0  0  0
   20.4441   -8.8162  -16.2893 N   0  0  0  0  0  0  0  0  0  0  0  0
   21.1688   -6.5695  -15.8682 C   0  0  0  0  0  0  0  0  0  0  0  0
   21.0148   -6.2055  -17.0619 O   0  0  0  0  0  0  0  0  0  0  0  0
   20.8761   -2.0268  -14.1633 O   0  0  0  0  0  0  0  0  0  0  0  0
   21.0014   -3.3809  -13.8038 C   0  0  0  0  0  0  0  0  0  0  0  0
   21.1899   -4.1755  -15.0773 C   0  0  2  0  0  0  0  0  0  0  0  0
   21.1892   -5.5898  -14.8529 N   0  0  0  0  0  0  0  0  0  0  0  0
   22.3829   -3.7239  -15.8322 C   0  0  0  0  0  0  0  0  0  0  0  0
   22.2242   -2.8379  -16.9065 O   0  0  0  0  0  0  0  0  0  0  0  0
   23.5450   -4.0852  -15.5728 O   0  0  0  0  0  0  0  0  0  0  0  0
  2  1  1  1
  2  9  1  0
  3  2  1  0
  4  3  1  0
  5  4  2  0
  6  5  1  0
  7  6  1  0
  7  8  2  0
  8  4  1  0
  9 10  2  0
 12 11  1  1
 12 14  1  0
 12 13  1  0
 15 14  1  6
 16  9  1  0
 16 15  1  0
 17 15  1  0
 17 18  2  0
 19 20  1  0
 21 20  1  1
 21 22  1  0
 22 17  1  0
 23 24  1  0
 23 21  1  0
 25 23  2  0
M  END
$$$$
