HLS.pdb
     RDKit          3D

 25 25  0  0  1  0  0  0  0  0999 V2000
   27.4780  -20.1612  -16.3159 N   0  0  0  0  0  0  0  0  0  0  0  0
   26.3950  -19.3936  -15.7576 C   0  0  1  0  0  0  0  0  0  0  0  0
   25.6646  -18.6705  -16.8682 C   0  0  0  0  0  0  0  0  0  0  0  0
   26.6049  -17.6758  -17.4466 C   0  0  0  0  0  0  0  0  0  0  0  0
   27.1975  -16.6606  -16.7511 C   0  0  0  0  0  0  0  0  0  0  0  0
   27.9780  -15.9760  -17.6166 N   0  0  0  0  0  0  0  0  0  0  0  0
   27.8767  -16.5492  -18.8267 C   0  0  0  0  0  0  0  0  0  0  0  0
   27.0326  -17.5941  -18.7222 N   0  0  0  0  0  0  0  0  0  0  0  0
   25.4863  -20.3074  -15.0123 C   0  0  0  0  0  0  0  0  0  0  0  0
   25.1920  -21.4497  -15.5037 O   0  0  0  0  0  0  0  0  0  0  0  0
   26.1326  -22.2733  -11.1643 C   0  0  0  0  0  0  0  0  0  0  0  0
   25.7333  -20.7978  -11.0109 C   0  0  2  0  0  0  0  0  0  0  0  0
   25.8866  -20.4856   -9.5376 C   0  0  0  0  0  0  0  0  0  0  0  0
   24.3452  -20.6332  -11.5023 C   0  0  0  0  0  0  0  0  0  0  0  0
   24.1235  -20.7456  -12.9653 C   0  0  2  0  0  0  0  0  0  0  0  0
   24.9590  -19.8892  -13.7587 N   0  0  0  0  0  0  0  0  0  0  0  0
   22.7073  -20.6308  -13.3972 C   0  0  0  0  0  0  0  0  0  0  0  0
   22.1575  -19.5117  -13.5597 O   0  0  0  0  0  0  0  0  0  0  0  0
   18.7130  -23.1164  -14.6349 O   0  0  0  0  0  0  0  0  0  0  0  0
   20.0393  -23.2305  -14.1808 C   0  0  0  0  0  0  0  0  0  0  0  0
   20.5516  -21.8326  -13.9129 C   0  0  2  0  0  0  0  0  0  0  0  0
   21.9555  -21.8015  -13.6321 N   0  0  0  0  0  0  0  0  0  0  0  0
   19.7518  -21.1473  -12.8700 C   0  0  0  0  0  0  0  0  0  0  0  0
   18.7006  -20.3026  -13.2515 O   0  0  0  0  0  0  0  0  0  0  0  0
   19.9529  -21.2724  -11.6484 O   0  0  0  0  0  0  0  0  0  0  0  0
  2  1  1  6
  2  9  1  0
  3  2  1  0
  4  3  1  0
  5  4  2  0
  6  5  1  0
  7  6  1  0
  7  8  2  0
  8  4  1  0
  9 10  2  0
 12 11  1  1
 12 14  1  0
 12 13  1  0
 15 14  1  1
 16  9  1  0
 16 15  1  0
 17 15  1  0
 17 18  2  0
 19 20  1  0
 21 20  1  1
 21 22  1  0
 22 17  1  0
 23 24  1  0
 23 21  1  0
 25 23  2  0
M  END
$$$$
