HLS.pdb
     RDKit          3D

 25 25  0  0  1  0  0  0  0  0999 V2000
   17.1986  -11.8052  -16.5420 N   0  0  0  0  0  0  0  0  0  0  0  0
   18.2594  -11.0007  -17.0911 C   0  0  1  0  0  0  0  0  0  0  0  0
   17.8516  -10.4926  -18.4569 C   0  0  0  0  0  0  0  0  0  0  0  0
   17.7780  -11.6661  -19.3656 C   0  0  0  0  0  0  0  0  0  0  0  0
   18.8542  -12.2860  -19.9340 C   0  0  0  0  0  0  0  0  0  0  0  0
   18.3851  -13.3036  -20.6899 N   0  0  0  0  0  0  0  0  0  0  0  0
   17.0456  -13.3208  -20.5972 C   0  0  0  0  0  0  0  0  0  0  0  0
   16.6724  -12.3142  -19.7831 N   0  0  0  0  0  0  0  0  0  0  0  0
   18.5508   -9.8788  -16.1569 C   0  0  0  0  0  0  0  0  0  0  0  0
   17.6093   -9.3781  -15.4529 O   0  0  0  0  0  0  0  0  0  0  0  0
   21.2057   -9.3882  -12.4895 C   0  0  0  0  0  0  0  0  0  0  0  0
   21.9435   -9.4972  -13.8326 C   0  0  2  0  0  0  0  0  0  0  0  0
   23.4153   -9.5625  -13.4845 C   0  0  0  0  0  0  0  0  0  0  0  0
   21.5898   -8.3200  -14.6599 C   0  0  0  0  0  0  0  0  0  0  0  0
   20.2167   -8.2702  -15.2207 C   0  0  2  0  0  0  0  0  0  0  0  0
   19.8808   -9.3818  -16.0648 N   0  0  0  0  0  0  0  0  0  0  0  0
   19.8536   -6.9909  -15.8815 C   0  0  0  0  0  0  0  0  0  0  0  0
   20.2838   -6.6958  -17.0256 O   0  0  0  0  0  0  0  0  0  0  0  0
   16.9863   -3.1020  -15.7945 O   0  0  0  0  0  0  0  0  0  0  0  0
   17.2415   -4.3780  -15.2606 C   0  0  0  0  0  0  0  0  0  0  0  0
   18.6203   -4.7977  -15.7206 C   0  0  2  0  0  0  0  0  0  0  0  0
   19.0063   -6.0806  -15.2148 N   0  0  0  0  0  0  0  0  0  0  0  0
   19.6324   -3.7519  -15.4395 C   0  0  0  0  0  0  0  0  0  0  0  0
   20.7818   -4.0834  -14.7095 O   0  0  0  0  0  0  0  0  0  0  0  0
   19.5310   -2.5701  -15.8157 O   0  0  0  0  0  0  0  0  0  0  0  0
  2  1  1  1
  2  9  1  0
  3  2  1  0
  4  3  1  0
  5  4  2  0
  6  5  1  0
  7  6  1  0
  7  8  2  0
  8  4  1  0
  9 10  2  0
 12 11  1  1
 12 14  1  0
 12 13  1  0
 15 14  1  6
 16  9  1  0
 16 15  1  0
 17 15  1  0
 17 18  2  0
 19 20  1  0
 21 20  1  1
 21 22  1  0
 22 17  1  0
 23 24  1  0
 23 21  1  0
 25 23  2  0
M  END
$$$$
