HLS.pdb
     RDKit          3D

 25 25  0  0  1  0  0  0  0  0999 V2000
   23.6852   -8.3789  -16.9126 N   0  0  0  0  0  0  0  0  0  0  0  0
   23.7959   -9.6934  -16.3351 C   0  0  1  0  0  0  0  0  0  0  0  0
   22.4140  -10.2829  -16.1546 C   0  0  0  0  0  0  0  0  0  0  0  0
   21.6937   -9.4370  -15.1676 C   0  0  0  0  0  0  0  0  0  0  0  0
   21.9912   -9.3596  -13.8369 C   0  0  0  0  0  0  0  0  0  0  0  0
   21.1201   -8.4919  -13.2752 N   0  0  0  0  0  0  0  0  0  0  0  0
   20.2959   -8.0362  -14.2323 C   0  0  0  0  0  0  0  0  0  0  0  0
   20.6485   -8.6172  -15.3956 N   0  0  0  0  0  0  0  0  0  0  0  0
   24.6394  -10.5428  -17.2201 C   0  0  0  0  0  0  0  0  0  0  0  0
   24.7386  -10.2621  -18.4628 O   0  0  0  0  0  0  0  0  0  0  0  0
   29.2269  -11.8632  -17.4441 C   0  0  0  0  0  0  0  0  0  0  0  0
   28.4204  -12.2940  -16.2096 C   0  0  2  0  0  0  0  0  0  0  0  0
   29.3978  -13.0361  -15.3233 C   0  0  0  0  0  0  0  0  0  0  0  0
   27.2852  -13.1333  -16.6595 C   0  0  0  0  0  0  0  0  0  0  0  0
   26.2157  -12.4676  -17.4439 C   0  0  2  0  0  0  0  0  0  0  0  0
   25.3239  -11.6585  -16.6622 N   0  0  0  0  0  0  0  0  0  0  0  0
   25.4461  -13.3633  -18.3442 C   0  0  0  0  0  0  0  0  0  0  0  0
   24.5302  -14.1062  -17.9077 O   0  0  0  0  0  0  0  0  0  0  0  0
   25.1751  -12.4655  -22.3202 O   0  0  0  0  0  0  0  0  0  0  0  0
   24.2669  -13.3272  -21.6791 C   0  0  0  0  0  0  0  0  0  0  0  0
   25.0523  -14.1714  -20.6999 C   0  0  2  0  0  0  0  0  0  0  0  0
   25.7451  -13.3862  -19.7230 N   0  0  0  0  0  0  0  0  0  0  0  0
   25.9479  -15.1257  -21.3959 C   0  0  0  0  0  0  0  0  0  0  0  0
   25.4041  -16.0450  -22.3032 O   0  0  0  0  0  0  0  0  0  0  0  0
   27.1799  -15.1692  -21.2272 O   0  0  0  0  0  0  0  0  0  0  0  0
  2  1  1  6
  2  9  1  0
  3  2  1  0
  4  3  1  0
  5  4  2  0
  6  5  1  0
  7  6  1  0
  7  8  2  0
  8  4  1  0
  9 10  2  0
 12 11  1  6
 12 14  1  0
 12 13  1  0
 15 14  1  1
 16  9  1  0
 16 15  1  0
 17 15  1  0
 17 18  2  0
 19 20  1  0
 21 20  1  6
 21 22  1  0
 22 17  1  0
 23 24  1  0
 23 21  1  0
 25 23  2  0
M  END
$$$$
