HLS.pdb
     RDKit          3D

 25 25  0  0  1  0  0  0  0  0999 V2000
   17.8781  -11.9880  -16.7708 N   0  0  0  0  0  0  0  0  0  0  0  0
   18.8441  -11.2078  -17.5001 C   0  0  1  0  0  0  0  0  0  0  0  0
   18.2129  -10.6845  -18.7720 C   0  0  0  0  0  0  0  0  0  0  0  0
   17.9519  -11.8521  -19.6534 C   0  0  0  0  0  0  0  0  0  0  0  0
   16.7200  -12.3881  -19.8999 C   0  0  0  0  0  0  0  0  0  0  0  0
   16.8913  -13.4300  -20.7438 N   0  0  0  0  0  0  0  0  0  0  0  0
   18.2005  -13.5439  -21.0198 C   0  0  0  0  0  0  0  0  0  0  0  0
   18.8524  -12.5739  -20.3495 N   0  0  0  0  0  0  0  0  0  0  0  0
   19.3248  -10.0970  -16.6333 C   0  0  0  0  0  0  0  0  0  0  0  0
   18.4964   -9.4651  -15.8934 O   0  0  0  0  0  0  0  0  0  0  0  0
   22.1191   -9.7790  -13.1892 C   0  0  0  0  0  0  0  0  0  0  0  0
   22.8527   -9.9957  -14.5215 C   0  0  2  0  0  0  0  0  0  0  0  0
   24.3125  -10.1669  -14.1593 C   0  0  0  0  0  0  0  0  0  0  0  0
   22.5997   -8.8245  -15.3930 C   0  0  0  0  0  0  0  0  0  0  0  0
   21.2177   -8.6407  -15.9017 C   0  0  2  0  0  0  0  0  0  0  0  0
   20.7064   -9.7575  -16.6448 N   0  0  0  0  0  0  0  0  0  0  0  0
   20.9839   -7.3756  -16.6433 C   0  0  0  0  0  0  0  0  0  0  0  0
   21.3086   -7.2515  -17.8518 O   0  0  0  0  0  0  0  0  0  0  0  0
   18.3634   -3.5419  -17.2825 O   0  0  0  0  0  0  0  0  0  0  0  0
   18.5628   -4.7826  -16.6505 C   0  0  0  0  0  0  0  0  0  0  0  0
   20.0538   -5.0325  -16.5963 C   0  0  2  0  0  0  0  0  0  0  0  0
   20.3839   -6.2832  -15.9818 N   0  0  0  0  0  0  0  0  0  0  0  0
   20.7774   -3.8935  -15.9829 C   0  0  0  0  0  0  0  0  0  0  0  0
   21.4525   -2.9820  -16.8060 O   0  0  0  0  0  0  0  0  0  0  0  0
   20.8290   -3.6842  -14.7575 O   0  0  0  0  0  0  0  0  0  0  0  0
  2  1  1  1
  2  9  1  0
  3  2  1  0
  4  3  1  0
  5  4  2  0
  6  5  1  0
  7  6  1  0
  7  8  2  0
  8  4  1  0
  9 10  2  0
 12 11  1  1
 12 14  1  0
 12 13  1  0
 15 14  1  6
 16  9  1  0
 16 15  1  0
 17 15  1  0
 17 18  2  0
 19 20  1  0
 21 20  1  1
 21 22  1  0
 22 17  1  0
 23 24  1  0
 23 21  1  0
 25 23  2  0
M  END
$$$$
