HLS.pdb
     RDKit          3D

 25 25  0  0  1  0  0  0  0  0999 V2000
   34.3439  -38.9599   -7.2199 N   0  0  0  0  0  0  0  0  0  0  0  0
   33.0886  -39.0013   -6.5154 C   0  0  1  0  0  0  0  0  0  0  0  0
   32.8649  -40.3930   -5.9649 C   0  0  0  0  0  0  0  0  0  0  0  0
   32.6148  -41.2944   -7.1196 C   0  0  0  0  0  0  0  0  0  0  0  0
   33.4077  -42.3471   -7.4781 C   0  0  0  0  0  0  0  0  0  0  0  0
   32.8546  -42.9192   -8.5708 N   0  0  0  0  0  0  0  0  0  0  0  0
   31.7407  -42.2403   -8.8894 C   0  0  0  0  0  0  0  0  0  0  0  0
   31.5933  -41.2415   -7.9973 N   0  0  0  0  0  0  0  0  0  0  0  0
   33.1075  -37.9825   -5.4301 C   0  0  0  0  0  0  0  0  0  0  0  0
   34.1594  -37.8301   -4.7207 O   0  0  0  0  0  0  0  0  0  0  0  0
   33.3131  -33.6168   -5.3543 C   0  0  0  0  0  0  0  0  0  0  0  0
   31.9793  -34.2316   -5.8049 C   0  0  2  0  0  0  0  0  0  0  0  0
   31.1689  -33.0814   -6.3634 C   0  0  0  0  0  0  0  0  0  0  0  0
   31.3429  -34.8821   -4.6357 C   0  0  0  0  0  0  0  0  0  0  0  0
   31.9092  -36.1780   -4.1861 C   0  0  2  0  0  0  0  0  0  0  0  0
   31.9466  -37.1924   -5.2013 N   0  0  0  0  0  0  0  0  0  0  0  0
   31.3220  -36.7205   -2.9347 C   0  0  0  0  0  0  0  0  0  0  0  0
   30.3353  -37.4997   -2.9545 O   0  0  0  0  0  0  0  0  0  0  0  0
   32.5675  -35.0708    0.7259 O   0  0  0  0  0  0  0  0  0  0  0  0
   32.3178  -36.4550    0.7204 C   0  0  0  0  0  0  0  0  0  0  0  0
   31.3582  -36.7411   -0.4136 C   0  0  2  0  0  0  0  0  0  0  0  0
   31.8796  -36.3563   -1.6907 N   0  0  0  0  0  0  0  0  0  0  0  0
   30.0174  -36.1650   -0.1541 C   0  0  0  0  0  0  0  0  0  0  0  0
   29.4401  -35.3084   -1.1012 O   0  0  0  0  0  0  0  0  0  0  0  0
   29.3512  -36.3942    0.8716 O   0  0  0  0  0  0  0  0  0  0  0  0
  2  1  1  1
  2  9  1  0
  3  2  1  0
  4  3  1  0
  5  4  2  0
  6  5  1  0
  7  6  1  0
  7  8  2  0
  8  4  1  0
  9 10  2  0
 12 11  1  1
 12 14  1  0
 12 13  1  0
 15 14  1  6
 16  9  1  0
 16 15  1  0
 17 15  1  0
 17 18  2  0
 19 20  1  0
 21 20  1  1
 21 22  1  0
 22 17  1  0
 23 24  1  0
 23 21  1  0
 25 23  2  0
M  END
$$$$
