HLS.pdb
     RDKit          3D

 25 25  0  0  1  0  0  0  0  0999 V2000
   27.3253  -20.6530  -16.1671 N   0  0  0  0  0  0  0  0  0  0  0  0
   26.6429  -19.7214  -15.3067 C   0  0  1  0  0  0  0  0  0  0  0  0
   26.0206  -18.6248  -16.1435 C   0  0  0  0  0  0  0  0  0  0  0  0
   27.1266  -17.7840  -16.6707 C   0  0  0  0  0  0  0  0  0  0  0  0
   28.4538  -17.9881  -16.4208 C   0  0  0  0  0  0  0  0  0  0  0  0
   29.1429  -17.0233  -17.0699 N   0  0  0  0  0  0  0  0  0  0  0  0
   28.2675  -16.2329  -17.7117 C   0  0  0  0  0  0  0  0  0  0  0  0
   27.0280  -16.7005  -17.4663 N   0  0  0  0  0  0  0  0  0  0  0  0
   25.6154  -20.4536  -14.5166 C   0  0  0  0  0  0  0  0  0  0  0  0
   24.9806  -21.4270  -15.0482 O   0  0  0  0  0  0  0  0  0  0  0  0
   26.3063  -22.3577  -10.7137 C   0  0  0  0  0  0  0  0  0  0  0  0
   25.9597  -20.8805  -10.4732 C   0  0  2  0  0  0  0  0  0  0  0  0
   26.1494  -20.6544   -8.9884 C   0  0  0  0  0  0  0  0  0  0  0  0
   24.5696  -20.6440  -10.9280 C   0  0  0  0  0  0  0  0  0  0  0  0
   24.3201  -20.6606  -12.3908 C   0  0  2  0  0  0  0  0  0  0  0  0
   25.3575  -20.0535  -13.1758 N   0  0  0  0  0  0  0  0  0  0  0  0
   22.9899  -20.1488  -12.8076 C   0  0  0  0  0  0  0  0  0  0  0  0
   22.8286  -18.9567  -13.1740 O   0  0  0  0  0  0  0  0  0  0  0  0
   19.9538  -20.6948  -15.8712 O   0  0  0  0  0  0  0  0  0  0  0  0
   21.1195  -20.9474  -15.1258 C   0  0  0  0  0  0  0  0  0  0  0  0
   20.7422  -20.9079  -13.6613 C   0  0  2  0  0  0  0  0  0  0  0  0
   21.8765  -21.0155  -12.7939 N   0  0  0  0  0  0  0  0  0  0  0  0
   19.6897  -21.9012  -13.3407 C   0  0  0  0  0  0  0  0  0  0  0  0
   18.3850  -21.4625  -13.0774 O   0  0  0  0  0  0  0  0  0  0  0  0
   19.8880  -23.1284  -13.2874 O   0  0  0  0  0  0  0  0  0  0  0  0
  2  1  1  6
  2  9  1  0
  3  2  1  0
  4  3  1  0
  5  4  2  0
  6  5  1  0
  7  6  1  0
  7  8  2  0
  8  4  1  0
  9 10  2  0
 12 11  1  1
 12 14  1  0
 12 13  1  0
 15 14  1  1
 16  9  1  0
 16 15  1  0
 17 15  1  0
 17 18  2  0
 19 20  1  0
 21 20  1  6
 21 22  1  0
 22 17  1  0
 23 24  1  0
 23 21  1  0
 25 23  2  0
M  END
$$$$
