HLS.pdb
     RDKit          3D

 25 25  0  0  1  0  0  0  0  0999 V2000
   19.8049  -12.4962  -18.2818 N   0  0  0  0  0  0  0  0  0  0  0  0
   20.4840  -11.2264  -18.2989 C   0  0  1  0  0  0  0  0  0  0  0  0
   19.4684  -10.1099  -18.1890 C   0  0  0  0  0  0  0  0  0  0  0  0
   18.6066  -10.1703  -19.3981 C   0  0  0  0  0  0  0  0  0  0  0  0
   19.0607  -10.3207  -20.6774 C   0  0  0  0  0  0  0  0  0  0  0  0
   17.9829  -10.3300  -21.4931 N   0  0  0  0  0  0  0  0  0  0  0  0
   16.8789  -10.1886  -20.7419 C   0  0  0  0  0  0  0  0  0  0  0  0
   17.2624  -10.0905  -19.4540 N   0  0  0  0  0  0  0  0  0  0  0  0
   21.4632  -11.1846  -17.1784 C   0  0  0  0  0  0  0  0  0  0  0  0
   21.1462  -11.6704  -16.0398 O   0  0  0  0  0  0  0  0  0  0  0  0
   26.4965   -9.6533  -15.3841 C   0  0  0  0  0  0  0  0  0  0  0  0
   26.1030  -11.1072  -15.6864 C   0  0  2  0  0  0  0  0  0  0  0  0
   27.3788  -11.7903  -16.1306 C   0  0  0  0  0  0  0  0  0  0  0  0
   25.0492  -11.1020  -16.7278 C   0  0  0  0  0  0  0  0  0  0  0  0
   23.7303  -10.5307  -16.3584 C   0  0  2  0  0  0  0  0  0  0  0  0
   22.7422  -10.6008  -17.3975 N   0  0  0  0  0  0  0  0  0  0  0  0
   23.7769   -9.1634  -15.7808 C   0  0  0  0  0  0  0  0  0  0  0  0
   24.4529   -8.9061  -14.7522 O   0  0  0  0  0  0  0  0  0  0  0  0
   21.3606   -6.1007  -17.4625 O   0  0  0  0  0  0  0  0  0  0  0  0
   22.6979   -5.8120  -17.1359 C   0  0  0  0  0  0  0  0  0  0  0  0
   23.1057   -6.7445  -16.0166 C   0  0  2  0  0  0  0  0  0  0  0  0
   23.0472   -8.1241  -16.3959 N   0  0  0  0  0  0  0  0  0  0  0  0
   22.3497   -6.4684  -14.7719 C   0  0  0  0  0  0  0  0  0  0  0  0
   22.4116   -5.1920  -14.1964 O   0  0  0  0  0  0  0  0  0  0  0  0
   21.6459   -7.3115  -14.1869 O   0  0  0  0  0  0  0  0  0  0  0  0
  2  1  1  1
  2  9  1  0
  3  2  1  0
  4  3  1  0
  5  4  2  0
  6  5  1  0
  7  6  1  0
  7  8  2  0
  8  4  1  0
  9 10  2  0
 12 11  1  6
 12 14  1  0
 12 13  1  0
 15 14  1  6
 16  9  1  0
 16 15  1  0
 17 15  1  0
 17 18  2  0
 19 20  1  0
 21 20  1  6
 21 22  1  0
 22 17  1  0
 23 24  1  0
 23 21  1  0
 25 23  2  0
M  END
$$$$
