LQN.pdb
     RDKit          3D

 26 25  0  0  1  0  0  0  0  0999 V2000
    7.5437  -11.9762   19.9487 C   0  0  0  0  0  0  0  0  0  0  0  0
    8.0808  -13.3064   19.5520 C   0  0  1  0  0  0  0  0  0  0  0  0
    9.2295  -13.2137   18.5723 C   0  0  0  0  0  0  0  0  0  0  0  0
    8.3184  -14.2565   20.6717 C   0  0  0  0  0  0  0  0  0  0  0  0
    8.7500  -15.6253   20.3165 C   0  0  2  0  0  0  0  0  0  0  0  0
    7.7175  -16.4447   19.7305 N   0  0  0  0  0  0  0  0  0  0  0  0
    9.1830  -16.3148   21.5649 C   0  0  0  0  0  0  0  0  0  0  0  0
    8.2603  -16.7646   22.3124 O   0  0  0  0  0  0  0  0  0  0  0  0
   14.1040  -19.7692   22.6959 N   0  0  0  0  0  0  0  0  0  0  0  0
   13.5089  -19.6958   23.9938 C   0  0  0  0  0  0  0  0  0  0  0  0
   13.9408  -20.5265   24.8469 O   0  0  0  0  0  0  0  0  0  0  0  0
   12.4496  -18.7041   24.3162 C   0  0  0  0  0  0  0  0  0  0  0  0
   12.1688  -17.9010   23.0929 C   0  0  0  0  0  0  0  0  0  0  0  0
   10.8600  -17.1575   23.1455 C   0  0  2  0  0  0  0  0  0  0  0  0
   10.5447  -16.4796   21.9334 N   0  0  0  0  0  0  0  0  0  0  0  0
   10.9159  -16.1704   24.2589 C   0  0  0  0  0  0  0  0  0  0  0  0
   11.4188  -15.0549   24.0775 O   0  0  0  0  0  0  0  0  0  0  0  0
   10.2796  -13.7822   28.5634 N   0  0  0  0  0  0  0  0  0  0  0  0
    9.1972  -13.7896   27.6408 C   0  0  0  0  0  0  0  0  0  0  0  0
    8.2960  -12.9327   27.7472 O   0  0  0  0  0  0  0  0  0  0  0  0
    9.1532  -14.8001   26.5799 C   0  0  0  0  0  0  0  0  0  0  0  0
   10.3941  -15.6468   26.5866 C   0  0  2  0  0  0  0  0  0  0  0  0
   10.3588  -16.6014   25.5174 N   0  0  0  0  0  0  0  0  0  0  0  0
   10.5084  -16.3519   27.8951 C   0  0  0  0  0  0  0  0  0  0  0  0
   10.8556  -15.6247   29.0152 O   0  0  0  0  0  0  0  0  0  0  0  0
   10.2883  -17.5795   27.9475 O   0  0  0  0  0  0  0  0  0  0  0  0
  2  1  1  1
  3  2  1  0
  4  2  1  0
  4  5  1  0
  5  6  1  1
  7  8  2  0
  7  5  1  0
  9 10  1  0
 10 12  1  0
 11 10  2  0
 12 13  1  0
 14 13  1  6
 14 15  1  0
 15  7  1  0
 16 17  2  0
 16 14  1  0
 18 19  1  0
 19 20  2  0
 19 21  1  0
 22 21  1  1
 22 23  1  0
 23 16  1  0
 24 22  1  0
 25 24  1  0
 26 24  2  0
M  END
$$$$
