LQN.pdb
     RDKit          3D

 26 25  0  0  1  0  0  0  0  0999 V2000
    6.6036  -10.8494   26.1435 C   0  0  0  0  0  0  0  0  0  0  0  0
    6.9162  -12.3014   26.2400 C   0  0  1  0  0  0  0  0  0  0  0  0
    6.3771  -12.9413   27.5002 C   0  0  0  0  0  0  0  0  0  0  0  0
    6.6601  -13.0911   25.0057 C   0  0  0  0  0  0  0  0  0  0  0  0
    7.1669  -14.4796   24.9743 C   0  0  2  0  0  0  0  0  0  0  0  0
    8.4455  -14.6642   25.6164 N   0  0  0  0  0  0  0  0  0  0  0  0
    7.3453  -14.8773   23.5490 C   0  0  0  0  0  0  0  0  0  0  0  0
    6.2949  -14.9165   22.8365 O   0  0  0  0  0  0  0  0  0  0  0  0
    8.2180  -11.9721   19.1914 N   0  0  0  0  0  0  0  0  0  0  0  0
    8.1595  -13.2483   18.5496 C   0  0  0  0  0  0  0  0  0  0  0  0
    7.8081  -13.2387   17.3327 O   0  0  0  0  0  0  0  0  0  0  0  0
    8.4914  -14.5050   19.2707 C   0  0  0  0  0  0  0  0  0  0  0  0
    8.3911  -14.2480   20.7350 C   0  0  0  0  0  0  0  0  0  0  0  0
    8.6942  -15.4555   21.5826 C   0  0  2  0  0  0  0  0  0  0  0  0
    8.6058  -15.2024   22.9812 N   0  0  0  0  0  0  0  0  0  0  0  0
   10.0657  -15.9354   21.2570 C   0  0  0  0  0  0  0  0  0  0  0  0
   10.2459  -16.7093   20.3090 O   0  0  0  0  0  0  0  0  0  0  0  0
   12.5393  -15.4180   19.3071 N   0  0  0  0  0  0  0  0  0  0  0  0
   13.4825  -14.7833   20.1616 C   0  0  0  0  0  0  0  0  0  0  0  0
   14.3239  -14.0022   19.6719 O   0  0  0  0  0  0  0  0  0  0  0  0
   13.4554  -15.0533   21.6020 C   0  0  0  0  0  0  0  0  0  0  0  0
   12.4059  -16.0729   21.9422 C   0  0  2  0  0  0  0  0  0  0  0  0
   11.1266  -15.4454   22.1022 N   0  0  0  0  0  0  0  0  0  0  0  0
   12.7870  -16.7795   23.1983 C   0  0  0  0  0  0  0  0  0  0  0  0
   11.9709  -17.7877   23.6689 O   0  0  0  0  0  0  0  0  0  0  0  0
   13.8318  -16.4444   23.7935 O   0  0  0  0  0  0  0  0  0  0  0  0
  2  1  1  6
  3  2  1  0
  4  2  1  0
  4  5  1  0
  5  6  1  1
  7  8  2  0
  7  5  1  0
  9 10  1  0
 10 12  1  0
 11 10  2  0
 12 13  1  0
 14 13  1  6
 14 15  1  0
 15  7  1  0
 16 17  2  0
 16 14  1  0
 18 19  1  0
 19 20  2  0
 19 21  1  0
 22 21  1  1
 22 23  1  0
 23 16  1  0
 24 22  1  0
 25 24  1  0
 26 24  2  0
M  END
$$$$
