LQN.pdb
     RDKit          3D

 26 25  0  0  1  0  0  0  0  0999 V2000
    5.2899  -11.9626   26.8876 C   0  0  0  0  0  0  0  0  0  0  0  0
    6.6263  -12.2969   26.3243 C   0  0  1  0  0  0  0  0  0  0  0  0
    7.7712  -11.7913   27.1738 C   0  0  0  0  0  0  0  0  0  0  0  0
    6.7905  -13.7027   25.8662 C   0  0  0  0  0  0  0  0  0  0  0  0
    8.1649  -14.1620   25.5733 C   0  0  2  0  0  0  0  0  0  0  0  0
    8.8917  -13.3240   24.6511 N   0  0  0  0  0  0  0  0  0  0  0  0
    8.0803  -15.5114   24.9461 C   0  0  0  0  0  0  0  0  0  0  0  0
    7.3143  -16.3515   25.5117 O   0  0  0  0  0  0  0  0  0  0  0  0
    8.3714  -17.3758   19.0782 N   0  0  0  0  0  0  0  0  0  0  0  0
    7.8960  -16.1932   19.7261 C   0  0  0  0  0  0  0  0  0  0  0  0
    7.3942  -15.3118   18.9672 O   0  0  0  0  0  0  0  0  0  0  0  0
    7.9874  -16.0148   21.1988 C   0  0  0  0  0  0  0  0  0  0  0  0
    8.4957  -17.2820   21.7957 C   0  0  0  0  0  0  0  0  0  0  0  0
    8.7007  -17.2084   23.2860 C   0  0  2  0  0  0  0  0  0  0  0  0
    8.8022  -15.8762   23.7787 N   0  0  0  0  0  0  0  0  0  0  0  0
    9.9404  -17.9559   23.6351 C   0  0  0  0  0  0  0  0  0  0  0  0
   10.1040  -19.1136   23.2312 O   0  0  0  0  0  0  0  0  0  0  0  0
   14.1970  -17.9377   22.4477 N   0  0  0  0  0  0  0  0  0  0  0  0
   13.5349  -16.9576   23.2376 C   0  0  0  0  0  0  0  0  0  0  0  0
   13.1593  -15.8932   22.7048 O   0  0  0  0  0  0  0  0  0  0  0  0
   13.3025  -17.2085   24.6629 C   0  0  0  0  0  0  0  0  0  0  0  0
   12.0438  -18.0005   24.8753 C   0  0  2  0  0  0  0  0  0  0  0  0
   10.8983  -17.2503   24.4501 N   0  0  0  0  0  0  0  0  0  0  0  0
   11.9149  -18.3529   26.3180 C   0  0  0  0  0  0  0  0  0  0  0  0
   12.8980  -19.1222   26.9060 O   0  0  0  0  0  0  0  0  0  0  0  0
   10.9242  -17.9455   26.9590 O   0  0  0  0  0  0  0  0  0  0  0  0
  2  1  1  1
  3  2  1  0
  4  2  1  0
  4  5  1  0
  5  6  1  6
  7  8  2  0
  7  5  1  0
  9 10  1  0
 10 12  1  0
 11 10  2  0
 12 13  1  0
 14 13  1  6
 14 15  1  0
 15  7  1  0
 16 17  2  0
 16 14  1  0
 18 19  1  0
 19 20  2  0
 19 21  1  0
 22 21  1  1
 22 23  1  0
 23 16  1  0
 24 22  1  0
 25 24  1  0
 26 24  2  0
M  END
$$$$
