LQN.pdb
     RDKit          3D

 26 25  0  0  1  0  0  0  0  0999 V2000
    7.3645  -12.4104   21.7431 C   0  0  0  0  0  0  0  0  0  0  0  0
    7.6313  -13.4702   20.7327 C   0  0  1  0  0  0  0  0  0  0  0  0
    8.0958  -12.9181   19.4032 C   0  0  0  0  0  0  0  0  0  0  0  0
    8.4321  -14.6258   21.2186 C   0  0  0  0  0  0  0  0  0  0  0  0
    8.6965  -15.7171   20.2568 C   0  0  2  0  0  0  0  0  0  0  0  0
    7.5346  -16.4939   19.8995 N   0  0  0  0  0  0  0  0  0  0  0  0
    9.6649  -16.6625   20.8810 C   0  0  0  0  0  0  0  0  0  0  0  0
    9.1692  -17.6583   21.4934 O   0  0  0  0  0  0  0  0  0  0  0  0
   15.2482  -18.3210   19.3401 N   0  0  0  0  0  0  0  0  0  0  0  0
   15.2356  -18.8096   20.6836 C   0  0  0  0  0  0  0  0  0  0  0  0
   16.0968  -19.6977   20.9561 O   0  0  0  0  0  0  0  0  0  0  0  0
   14.2698  -18.3033   21.6936 C   0  0  0  0  0  0  0  0  0  0  0  0
   13.3709  -17.3162   21.0318 C   0  0  0  0  0  0  0  0  0  0  0  0
   11.9201  -17.4761   21.4033 C   0  0  2  0  0  0  0  0  0  0  0  0
   11.0735  -16.4929   20.8163 N   0  0  0  0  0  0  0  0  0  0  0  0
   11.7964  -17.4076   22.8856 C   0  0  0  0  0  0  0  0  0  0  0  0
   11.0464  -16.5753   23.4100 O   0  0  0  0  0  0  0  0  0  0  0  0
    9.8363  -18.3073   27.3552 N   0  0  0  0  0  0  0  0  0  0  0  0
   10.5272  -19.2735   26.5730 C   0  0  0  0  0  0  0  0  0  0  0  0
   10.8595  -20.3584   27.0931 O   0  0  0  0  0  0  0  0  0  0  0  0
   10.8397  -18.9846   25.1704 C   0  0  0  0  0  0  0  0  0  0  0  0
   12.2552  -18.5051   25.0186 C   0  0  2  0  0  0  0  0  0  0  0  0
   12.5898  -18.3521   23.6327 N   0  0  0  0  0  0  0  0  0  0  0  0
   13.1824  -19.4793   25.6615 C   0  0  0  0  0  0  0  0  0  0  0  0
   13.6188  -19.2342   26.9474 O   0  0  0  0  0  0  0  0  0  0  0  0
   13.5416  -20.4910   25.0245 O   0  0  0  0  0  0  0  0  0  0  0  0
  2  1  1  1
  3  2  1  0
  4  2  1  0
  4  5  1  0
  5  6  1  1
  7  8  2  0
  7  5  1  0
  9 10  1  0
 10 12  1  0
 11 10  2  0
 12 13  1  0
 14 13  1  1
 14 15  1  0
 15  7  1  0
 16 17  2  0
 16 14  1  0
 18 19  1  0
 19 20  2  0
 19 21  1  0
 22 21  1  6
 22 23  1  0
 23 16  1  0
 24 22  1  0
 25 24  1  0
 26 24  2  0
M  END
$$$$
