LQN.pdb
     RDKit          3D

 26 25  0  0  1  0  0  0  0  0999 V2000
    5.6880  -11.2054   26.0201 C   0  0  0  0  0  0  0  0  0  0  0  0
    6.7337  -12.2463   26.2153 C   0  0  1  0  0  0  0  0  0  0  0  0
    7.0782  -12.4750   27.6703 C   0  0  0  0  0  0  0  0  0  0  0  0
    6.5374  -13.4994   25.4380 C   0  0  0  0  0  0  0  0  0  0  0  0
    7.6551  -14.4670   25.4221 C   0  0  2  0  0  0  0  0  0  0  0  0
    8.9472  -13.8930   25.7085 N   0  0  0  0  0  0  0  0  0  0  0  0
    7.7435  -15.0527   24.0544 C   0  0  0  0  0  0  0  0  0  0  0  0
    6.7997  -15.8289   23.7089 O   0  0  0  0  0  0  0  0  0  0  0  0
    8.8621  -12.9891   18.5299 N   0  0  0  0  0  0  0  0  0  0  0  0
    7.6605  -13.0580   19.3016 C   0  0  0  0  0  0  0  0  0  0  0  0
    6.6960  -12.3500   18.8857 O   0  0  0  0  0  0  0  0  0  0  0  0
    7.5554  -13.9093   20.5154 C   0  0  0  0  0  0  0  0  0  0  0  0
    8.8557  -14.6098   20.7130 C   0  0  0  0  0  0  0  0  0  0  0  0
    8.8847  -15.4986   21.9285 C   0  0  2  0  0  0  0  0  0  0  0  0
    8.8100  -14.7815   23.1566 N   0  0  0  0  0  0  0  0  0  0  0  0
   10.1396  -16.2999   21.9044 C   0  0  0  0  0  0  0  0  0  0  0  0
   10.3120  -17.1608   21.0331 O   0  0  0  0  0  0  0  0  0  0  0  0
   13.7410  -14.2657   20.7660 N   0  0  0  0  0  0  0  0  0  0  0  0
   13.5361  -15.6112   21.1786 C   0  0  0  0  0  0  0  0  0  0  0  0
   13.3966  -16.5020   20.3155 O   0  0  0  0  0  0  0  0  0  0  0  0
   13.4913  -15.9346   22.6076 C   0  0  0  0  0  0  0  0  0  0  0  0
   12.3001  -16.7904   22.9322 C   0  0  2  0  0  0  0  0  0  0  0  0
   11.1011  -16.0042   22.9379 N   0  0  0  0  0  0  0  0  0  0  0  0
   12.4953  -17.4307   24.2642 C   0  0  0  0  0  0  0  0  0  0  0  0
   13.6268  -18.1911   24.4780 O   0  0  0  0  0  0  0  0  0  0  0  0
   11.6341  -17.2650   25.1524 O   0  0  0  0  0  0  0  0  0  0  0  0
  2  1  1  1
  3  2  1  0
  4  2  1  0
  4  5  1  0
  5  6  1  6
  7  8  2  0
  7  5  1  0
  9 10  1  0
 10 12  1  0
 11 10  2  0
 12 13  1  0
 14 13  1  6
 14 15  1  0
 15  7  1  0
 16 17  2  0
 16 14  1  0
 18 19  1  0
 19 20  2  0
 19 21  1  0
 22 21  1  1
 22 23  1  0
 23 16  1  0
 24 22  1  0
 25 24  1  0
 26 24  2  0
M  END
$$$$
