LQN.pdb
     RDKit          3D

 26 25  0  0  1  0  0  0  0  0999 V2000
    6.1114  -12.7142   19.1238 C   0  0  0  0  0  0  0  0  0  0  0  0
    7.3364  -13.5421   19.2947 C   0  0  1  0  0  0  0  0  0  0  0  0
    8.5304  -12.9961   18.5435 C   0  0  0  0  0  0  0  0  0  0  0  0
    7.6387  -13.9504   20.6928 C   0  0  0  0  0  0  0  0  0  0  0  0
    8.8267  -14.8043   20.9056 C   0  0  2  0  0  0  0  0  0  0  0  0
    8.7703  -16.0838   20.2416 N   0  0  0  0  0  0  0  0  0  0  0  0
    8.9408  -15.0869   22.3646 C   0  0  0  0  0  0  0  0  0  0  0  0
    8.9100  -14.0817   23.1399 O   0  0  0  0  0  0  0  0  0  0  0  0
    6.7986  -19.6036   25.9076 N   0  0  0  0  0  0  0  0  0  0  0  0
    7.5979  -18.8534   26.8254 C   0  0  0  0  0  0  0  0  0  0  0  0
    7.5127  -19.1981   28.0413 O   0  0  0  0  0  0  0  0  0  0  0  0
    8.4726  -17.7392   26.3751 C   0  0  0  0  0  0  0  0  0  0  0  0
    8.3487  -17.6121   24.8956 C   0  0  0  0  0  0  0  0  0  0  0  0
    9.2490  -16.5608   24.3018 C   0  0  2  0  0  0  0  0  0  0  0  0
    9.0781  -16.3960   22.8977 N   0  0  0  0  0  0  0  0  0  0  0  0
   10.6640  -16.9294   24.5835 C   0  0  0  0  0  0  0  0  0  0  0  0
   11.0980  -16.8941   25.7414 O   0  0  0  0  0  0  0  0  0  0  0  0
   15.7782  -15.5640   24.9650 N   0  0  0  0  0  0  0  0  0  0  0  0
   14.9784  -16.5052   24.2599 C   0  0  0  0  0  0  0  0  0  0  0  0
   15.5274  -17.4708   23.6908 O   0  0  0  0  0  0  0  0  0  0  0  0
   13.5239  -16.3303   24.2101 C   0  0  0  0  0  0  0  0  0  0  0  0
   12.8470  -17.5680   23.6939 C   0  0  2  0  0  0  0  0  0  0  0  0
   11.4579  -17.3157   23.4433 N   0  0  0  0  0  0  0  0  0  0  0  0
   12.9930  -18.6675   24.6899 C   0  0  0  0  0  0  0  0  0  0  0  0
   13.6980  -19.7990   24.3340 O   0  0  0  0  0  0  0  0  0  0  0  0
   12.4764  -18.5399   25.8191 O   0  0  0  0  0  0  0  0  0  0  0  0
  2  1  1  1
  3  2  1  0
  4  2  1  0
  4  5  1  0
  5  6  1  6
  7  8  2  0
  7  5  1  0
  9 10  1  0
 10 12  1  0
 11 10  2  0
 12 13  1  0
 14 13  1  6
 14 15  1  0
 15  7  1  0
 16 17  2  0
 16 14  1  0
 18 19  1  0
 19 20  2  0
 19 21  1  0
 22 21  1  1
 22 23  1  0
 23 16  1  0
 24 22  1  0
 25 24  1  0
 26 24  2  0
M  END
$$$$
