LQN.pdb
     RDKit          3D

 26 25  0  0  1  0  0  0  0  0999 V2000
    5.4740  -11.7674   26.1646 C   0  0  0  0  0  0  0  0  0  0  0  0
    6.7793  -12.4698   26.0303 C   0  0  1  0  0  0  0  0  0  0  0  0
    7.7389  -12.1581   27.1573 C   0  0  0  0  0  0  0  0  0  0  0  0
    6.6921  -13.9166   25.6953 C   0  0  0  0  0  0  0  0  0  0  0  0
    7.8890  -14.7441   25.9567 C   0  0  2  0  0  0  0  0  0  0  0  0
    9.1436  -14.0559   25.7738 N   0  0  0  0  0  0  0  0  0  0  0  0
    7.8851  -15.8838   24.9961 C   0  0  0  0  0  0  0  0  0  0  0  0
    6.8056  -16.5469   24.9090 O   0  0  0  0  0  0  0  0  0  0  0  0
    9.9988  -18.6916   18.7090 N   0  0  0  0  0  0  0  0  0  0  0  0
    9.2034  -17.9959   19.6721 C   0  0  0  0  0  0  0  0  0  0  0  0
    8.5213  -17.0256   19.2274 O   0  0  0  0  0  0  0  0  0  0  0  0
    9.1822  -18.3912   21.1048 C   0  0  0  0  0  0  0  0  0  0  0  0
    9.1409  -17.1537   21.9339 C   0  0  0  0  0  0  0  0  0  0  0  0
    8.9499  -17.4177   23.4043 C   0  0  2  0  0  0  0  0  0  0  0  0
    9.0082  -16.2403   24.2033 N   0  0  0  0  0  0  0  0  0  0  0  0
    9.9997  -18.3709   23.8588 C   0  0  0  0  0  0  0  0  0  0  0  0
   10.0415  -19.5177   23.3971 O   0  0  0  0  0  0  0  0  0  0  0  0
   13.5167  -18.7445   22.9628 N   0  0  0  0  0  0  0  0  0  0  0  0
   13.7324  -17.8382   24.0375 C   0  0  0  0  0  0  0  0  0  0  0  0
   14.3229  -16.7602   23.8204 O   0  0  0  0  0  0  0  0  0  0  0  0
   13.2605  -18.1800   25.3825 C   0  0  0  0  0  0  0  0  0  0  0  0
   11.8961  -18.8066   25.3348 C   0  0  2  0  0  0  0  0  0  0  0  0
   10.9283  -17.8704   24.8422 N   0  0  0  0  0  0  0  0  0  0  0  0
   11.5113  -19.2660   26.6998 C   0  0  0  0  0  0  0  0  0  0  0  0
   10.8224  -18.4001   27.5242 O   0  0  0  0  0  0  0  0  0  0  0  0
   11.8198  -20.4193   27.0645 O   0  0  0  0  0  0  0  0  0  0  0  0
  2  1  1  1
  3  2  1  0
  4  2  1  0
  4  5  1  0
  5  6  1  6
  7  8  2  0
  7  5  1  0
  9 10  1  0
 10 12  1  0
 11 10  2  0
 12 13  1  0
 14 13  1  6
 14 15  1  0
 15  7  1  0
 16 17  2  0
 16 14  1  0
 18 19  1  0
 19 20  2  0
 19 21  1  0
 22 21  1  1
 22 23  1  0
 23 16  1  0
 24 22  1  0
 25 24  1  0
 26 24  2  0
M  END
$$$$
