LQN.pdb
     RDKit          3D

 26 25  0  0  1  0  0  0  0  0999 V2000
    7.1476  -10.9846   25.9383 C   0  0  0  0  0  0  0  0  0  0  0  0
    6.7601  -12.2856   26.5484 C   0  0  1  0  0  0  0  0  0  0  0  0
    5.5222  -12.1898   27.4125 C   0  0  0  0  0  0  0  0  0  0  0  0
    6.7593  -13.4486   25.6208 C   0  0  0  0  0  0  0  0  0  0  0  0
    8.0613  -14.0906   25.3408 C   0  0  2  0  0  0  0  0  0  0  0  0
    9.0696  -13.1977   24.8239 N   0  0  0  0  0  0  0  0  0  0  0  0
    7.8490  -15.1391   24.3030 C   0  0  0  0  0  0  0  0  0  0  0  0
    6.7063  -15.1648   23.7498 O   0  0  0  0  0  0  0  0  0  0  0  0
    8.2588  -14.4708   19.2461 N   0  0  0  0  0  0  0  0  0  0  0  0
    8.0949  -13.8142   20.5055 C   0  0  0  0  0  0  0  0  0  0  0  0
    7.8370  -12.5752   20.4527 O   0  0  0  0  0  0  0  0  0  0  0  0
    8.2204  -14.5453   21.7936 C   0  0  0  0  0  0  0  0  0  0  0  0
    8.5423  -15.9697   21.4968 C   0  0  0  0  0  0  0  0  0  0  0  0
    8.6774  -16.8277   22.7272 C   0  0  2  0  0  0  0  0  0  0  0  0
    8.8464  -16.0770   23.9255 N   0  0  0  0  0  0  0  0  0  0  0  0
    9.8432  -17.7369   22.5499 C   0  0  0  0  0  0  0  0  0  0  0  0
    9.9946  -18.3557   21.4895 O   0  0  0  0  0  0  0  0  0  0  0  0
   12.4996  -18.2080   26.2400 N   0  0  0  0  0  0  0  0  0  0  0  0
   11.1930  -18.6426   26.5959 C   0  0  0  0  0  0  0  0  0  0  0  0
   10.7998  -18.5016   27.7721 O   0  0  0  0  0  0  0  0  0  0  0  0
   10.3269  -19.2488   25.5806 C   0  0  0  0  0  0  0  0  0  0  0  0
   10.9417  -19.1475   24.2137 C   0  0  2  0  0  0  0  0  0  0  0  0
   10.7470  -17.8354   23.6694 N   0  0  0  0  0  0  0  0  0  0  0  0
   10.3290  -20.1674   23.3155 C   0  0  0  0  0  0  0  0  0  0  0  0
   11.1000  -21.2304   22.8916 O   0  0  0  0  0  0  0  0  0  0  0  0
    9.1370  -20.0371   22.9686 O   0  0  0  0  0  0  0  0  0  0  0  0
  2  1  1  6
  3  2  1  0
  4  2  1  0
  4  5  1  0
  5  6  1  6
  7  8  2  0
  7  5  1  0
  9 10  1  0
 10 12  1  0
 11 10  2  0
 12 13  1  0
 14 13  1  6
 14 15  1  0
 15  7  1  0
 16 17  2  0
 16 14  1  0
 18 19  1  0
 19 20  2  0
 19 21  1  0
 22 21  1  1
 22 23  1  0
 23 16  1  0
 24 22  1  0
 25 24  1  0
 26 24  2  0
M  END
$$$$
