LQN.pdb
     RDKit          3D

 26 25  0  0  1  0  0  0  0  0999 V2000
    7.9585  -11.9872   19.3089 C   0  0  0  0  0  0  0  0  0  0  0  0
    8.3323  -13.0246   20.3085 C   0  0  1  0  0  0  0  0  0  0  0  0
    7.3184  -13.1676   21.4219 C   0  0  0  0  0  0  0  0  0  0  0  0
    8.7903  -14.3207   19.7398 C   0  0  0  0  0  0  0  0  0  0  0  0
    9.1737  -15.3807   20.6965 C   0  0  2  0  0  0  0  0  0  0  0  0
    9.0540  -15.0056   22.0843 N   0  0  0  0  0  0  0  0  0  0  0  0
   10.6079  -15.7160   20.4686 C   0  0  0  0  0  0  0  0  0  0  0  0
   10.8567  -16.8948   20.0671 O   0  0  0  0  0  0  0  0  0  0  0  0
   16.3836  -13.5816   19.6602 N   0  0  0  0  0  0  0  0  0  0  0  0
   15.8889  -14.2922   18.5225 C   0  0  0  0  0  0  0  0  0  0  0  0
   16.7626  -14.6821   17.6924 O   0  0  0  0  0  0  0  0  0  0  0  0
   14.4383  -14.5541   18.3310 C   0  0  0  0  0  0  0  0  0  0  0  0
   13.7090  -14.0660   19.5352 C   0  0  0  0  0  0  0  0  0  0  0  0
   12.9895  -15.1539   20.2883 C   0  0  2  0  0  0  0  0  0  0  0  0
   11.6679  -14.7943   20.6780 N   0  0  0  0  0  0  0  0  0  0  0  0
   13.7814  -15.4992   21.5012 C   0  0  0  0  0  0  0  0  0  0  0  0
   13.6192  -14.8665   22.5516 O   0  0  0  0  0  0  0  0  0  0  0  0
   13.8113  -18.1733   24.0958 N   0  0  0  0  0  0  0  0  0  0  0  0
   14.8102  -18.9654   23.4653 C   0  0  0  0  0  0  0  0  0  0  0  0
   14.8117  -20.2014   23.6392 O   0  0  0  0  0  0  0  0  0  0  0  0
   15.8223  -18.3230   22.6219 C   0  0  0  0  0  0  0  0  0  0  0  0
   15.5605  -16.8498   22.4887 C   0  0  2  0  0  0  0  0  0  0  0  0
   14.7167  -16.5878   21.3595 N   0  0  0  0  0  0  0  0  0  0  0  0
   16.8548  -16.1261   22.3358 C   0  0  0  0  0  0  0  0  0  0  0  0
   16.9767  -14.8597   22.8701 O   0  0  0  0  0  0  0  0  0  0  0  0
   17.7954  -16.6800   21.7303 O   0  0  0  0  0  0  0  0  0  0  0  0
  2  1  1  6
  3  2  1  0
  4  2  1  0
  4  5  1  0
  5  6  1  1
  7  8  2  0
  7  5  1  0
  9 10  1  0
 10 12  1  0
 11 10  2  0
 12 13  1  0
 14 13  1  1
 14 15  1  0
 15  7  1  0
 16 17  2  0
 16 14  1  0
 18 19  1  0
 19 20  2  0
 19 21  1  0
 22 21  1  6
 22 23  1  0
 23 16  1  0
 24 22  1  0
 25 24  1  0
 26 24  2  0
M  END
$$$$
