LQN.pdb
     RDKit          3D

 26 25  0  0  1  0  0  0  0  0999 V2000
    8.1635  -12.4118   27.9171 C   0  0  0  0  0  0  0  0  0  0  0  0
    7.1596  -13.2625   27.2215 C   0  0  1  0  0  0  0  0  0  0  0  0
    5.8825  -12.5223   26.8909 C   0  0  0  0  0  0  0  0  0  0  0  0
    7.6888  -14.0829   26.0991 C   0  0  0  0  0  0  0  0  0  0  0  0
    6.7248  -14.9367   25.3728 C   0  0  2  0  0  0  0  0  0  0  0  0
    6.4080  -16.1783   26.0354 N   0  0  0  0  0  0  0  0  0  0  0  0
    7.3232  -15.2976   24.0563 C   0  0  0  0  0  0  0  0  0  0  0  0
    7.3083  -16.5289   23.7463 O   0  0  0  0  0  0  0  0  0  0  0  0
    6.5976  -12.8563   18.8238 N   0  0  0  0  0  0  0  0  0  0  0  0
    7.6002  -13.8530   18.6104 C   0  0  0  0  0  0  0  0  0  0  0  0
    7.4256  -14.6056   17.6066 O   0  0  0  0  0  0  0  0  0  0  0  0
    8.7724  -13.9925   19.5135 C   0  0  0  0  0  0  0  0  0  0  0  0
    8.3595  -13.5871   20.8867 C   0  0  0  0  0  0  0  0  0  0  0  0
    8.2268  -14.7424   21.8437 C   0  0  2  0  0  0  0  0  0  0  0  0
    7.8896  -14.3445   23.1688 N   0  0  0  0  0  0  0  0  0  0  0  0
    9.5135  -15.4915   21.8693 C   0  0  0  0  0  0  0  0  0  0  0  0
    9.9265  -16.0549   20.8484 O   0  0  0  0  0  0  0  0  0  0  0  0
   14.5867  -16.0561   22.3083 N   0  0  0  0  0  0  0  0  0  0  0  0
   13.8839  -15.8706   23.5307 C   0  0  0  0  0  0  0  0  0  0  0  0
   14.3919  -16.2750   24.5967 O   0  0  0  0  0  0  0  0  0  0  0  0
   12.5759  -15.2089   23.5241 C   0  0  0  0  0  0  0  0  0  0  0  0
   11.4855  -16.1686   23.1411 C   0  0  2  0  0  0  0  0  0  0  0  0
   10.2131  -15.5077   23.1303 N   0  0  0  0  0  0  0  0  0  0  0  0
   11.4609  -17.3048   24.1058 C   0  0  0  0  0  0  0  0  0  0  0  0
   12.2253  -18.4220   23.8384 O   0  0  0  0  0  0  0  0  0  0  0  0
   10.7520  -17.2200   25.1298 O   0  0  0  0  0  0  0  0  0  0  0  0
  2  1  1  6
  3  2  1  0
  4  2  1  0
  4  5  1  0
  5  6  1  1
  7  8  2  0
  7  5  1  0
  9 10  1  0
 10 12  1  0
 11 10  2  0
 12 13  1  0
 14 13  1  6
 14 15  1  0
 15  7  1  0
 16 17  2  0
 16 14  1  0
 18 19  1  0
 19 20  2  0
 19 21  1  0
 22 21  1  1
 22 23  1  0
 23 16  1  0
 24 22  1  0
 25 24  1  0
 26 24  2  0
M  END
$$$$
