RLC.pdb
     RDKit          3D

 26 25  0  0  1  0  0  0  0  0999 V2000
   19.1994  -15.2415  -23.7676 N   0  0  0  0  0  0  0  0  0  0  0  0
   18.1178  -14.3172  -23.7738 C   0  0  0  0  0  0  0  0  0  0  0  0
   16.9776  -14.6818  -24.2658 N   0  0  0  0  0  0  0  0  0  0  0  0
   18.2565  -12.9943  -23.2513 N   0  0  0  0  0  0  0  0  0  0  0  0
   19.5801  -12.5224  -22.7922 C   0  0  0  0  0  0  0  0  0  0  0  0
   19.5021  -11.0785  -22.4095 C   0  0  0  0  0  0  0  0  0  0  0  0
   19.5208  -10.7604  -20.9583 C   0  0  0  0  0  0  0  0  0  0  0  0
   20.6976  -11.3348  -20.2606 C   0  0  2  0  0  0  0  0  0  0  0  0
   20.6701  -12.7637  -20.2963 N   0  0  0  0  0  0  0  0  0  0  0  0
   20.8414  -10.8068  -18.8720 C   0  0  0  0  0  0  0  0  0  0  0  0
   19.8455  -10.8679  -18.0969 O   0  0  0  0  0  0  0  0  0  0  0  0
   16.1756  -14.0278  -24.3280 C   0  0  0  0  0  0  0  0  0  0  0  0
   22.7326  -10.1768  -14.0286 C   0  0  2  0  0  0  0  0  0  0  0  0
   23.6972   -9.5958  -15.0210 C   0  0  0  0  0  0  0  0  0  0  0  0
   25.0860  -10.1413  -14.6123 C   0  0  0  0  0  0  0  0  0  0  0  0
   23.4331  -10.1386  -16.3666 C   0  0  1  0  0  0  0  0  0  0  0  0
   22.0830   -9.7184  -16.9749 N   0  0  0  0  0  0  0  0  0  0  0  0
   22.0231  -10.2354  -18.3361 C   0  0  0  0  0  0  0  0  0  0  0  0
   21.8508   -8.2849  -16.8930 O   0  0  0  0  0  0  0  0  0  0  0  0
   22.5252   -7.4880  -17.5962 N   0  0  0  0  0  0  0  0  0  0  0  0
   20.8652   -7.6716  -16.0349 C   0  0  1  0  0  0  0  0  0  0  0  0
   20.7443   -6.2177  -16.0460 C   0  0  0  0  0  0  0  0  0  0  0  0
   19.7779   -5.7377  -17.0891 S   0  0  0  0  0  0  0  0  0  0  0  0
   19.3394   -3.9794  -16.8622 C   0  0  0  0  0  0  0  0  0  0  0  0
   20.2291   -5.7685  -14.7274 O   0  0  0  0  0  0  0  0  0  0  0  0
   20.2290   -4.4371  -14.3429 O   0  0  0  0  0  0  0  0  0  0  0  0
  2  3  2  0
  2  1  1  0
  4  2  1  0
  5  4  1  0
  6  5  1  0
  7  6  1  0
  8  7  1  0
  8  9  1  1
 10 17  1  0
 10  8  1  0
 11 10  2  0
 13 12  1  1
 14 13  1  0
 15 13  1  0
 16 17  1  0
 16 15  1  1
 18 16  1  0
 19 18  2  0
 20 18  1  0
 21 24  1  0
 21 20  1  0
 21 22  1  1
 23 22  1  0
 24 25  1  0
 26 24  2  0
M  END
$$$$
