RLC.pdb
     RDKit          3D

 26 25  0  0  1  0  0  0  0  0999 V2000
   17.0188  -15.3678  -13.3085 N   0  0  0  0  0  0  0  0  0  0  0  0
   16.2586  -15.5055  -14.5033 C   0  0  0  0  0  0  0  0  0  0  0  0
   15.6427  -16.6197  -14.7357 N   0  0  0  0  0  0  0  0  0  0  0  0
   16.1570  -14.4451  -15.4559 N   0  0  0  0  0  0  0  0  0  0  0  0
   16.7514  -13.1262  -15.1511 C   0  0  0  0  0  0  0  0  0  0  0  0
   15.8713  -12.3776  -14.2012 C   0  0  0  0  0  0  0  0  0  0  0  0
   16.3230  -11.0258  -13.7815 C   0  0  0  0  0  0  0  0  0  0  0  0
   15.3820  -10.3743  -12.8373 C   0  0  2  0  0  0  0  0  0  0  0  0
   14.0523  -10.3624  -13.3622 N   0  0  0  0  0  0  0  0  0  0  0  0
   15.8424   -9.0132  -12.4335 C   0  0  0  0  0  0  0  0  0  0  0  0
   15.4895   -8.0237  -13.1355 O   0  0  0  0  0  0  0  0  0  0  0  0
   15.1396  -16.7900  -15.6261 C   0  0  0  0  0  0  0  0  0  0  0  0
   15.1179   -6.4457   -7.9545 C   0  0  1  0  0  0  0  0  0  0  0  0
   15.3790   -6.7553   -9.3998 C   0  0  0  0  0  0  0  0  0  0  0  0
   15.0508   -5.4516  -10.1653 C   0  0  0  0  0  0  0  0  0  0  0  0
   16.8173   -6.9972   -9.6177 C   0  0  2  0  0  0  0  0  0  0  0  0
   17.1906   -7.3972  -11.0564 N   0  0  0  0  0  0  0  0  0  0  0  0
   16.6538   -8.7288  -11.3062 C   0  0  0  0  0  0  0  0  0  0  0  0
   18.6178   -7.2938  -11.3169 O   0  0  0  0  0  0  0  0  0  0  0  0
   19.4528   -7.6834  -10.4594 N   0  0  0  0  0  0  0  0  0  0  0  0
   19.1827   -6.7591  -12.5329 C   0  0  1  0  0  0  0  0  0  0  0  0
   20.6311   -6.8026  -12.7026 C   0  0  0  0  0  0  0  0  0  0  0  0
   21.0350   -7.5708  -13.9270 S   0  0  0  0  0  0  0  0  0  0  0  0
   20.2043   -9.1943  -14.0247 C   0  0  0  0  0  0  0  0  0  0  0  0
   21.1377   -5.4159  -12.8648 O   0  0  0  0  0  0  0  0  0  0  0  0
   22.4882   -5.1077  -12.8261 O   0  0  0  0  0  0  0  0  0  0  0  0
  2  3  2  0
  2  1  1  0
  4  2  1  0
  5  4  1  0
  6  5  1  0
  7  6  1  0
  8  7  1  0
  8  9  1  6
 10 17  1  0
 10  8  1  0
 11 10  2  0
 13 12  1  6
 14 13  1  0
 15 13  1  0
 16 17  1  0
 16 15  1  6
 18 16  1  0
 19 18  2  0
 20 18  1  0
 21 24  1  0
 21 20  1  0
 21 22  1  1
 23 22  1  0
 24 25  1  0
 26 24  2  0
M  END
$$$$
