RLC.pdb
     RDKit          3D

 26 25  0  0  1  0  0  0  0  0999 V2000
   31.1298  -25.2347  -15.7607 N   0  0  0  0  0  0  0  0  0  0  0  0
   29.7630  -25.3269  -16.1451 C   0  0  0  0  0  0  0  0  0  0  0  0
   29.0856  -26.3817  -15.8233 N   0  0  0  0  0  0  0  0  0  0  0  0
   29.1167  -24.2847  -16.8789 N   0  0  0  0  0  0  0  0  0  0  0  0
   29.8280  -23.0127  -17.1267 C   0  0  0  0  0  0  0  0  0  0  0  0
   29.2601  -21.9336  -16.2603 C   0  0  0  0  0  0  0  0  0  0  0  0
   28.0479  -22.2680  -15.4690 C   0  0  0  0  0  0  0  0  0  0  0  0
   27.0153  -21.2040  -15.5249 C   0  0  2  0  0  0  0  0  0  0  0  0
   27.5805  -19.9227  -15.2377 N   0  0  0  0  0  0  0  0  0  0  0  0
   25.8424  -21.5121  -14.6548 C   0  0  0  0  0  0  0  0  0  0  0  0
   25.2081  -22.5864  -14.8547 O   0  0  0  0  0  0  0  0  0  0  0  0
   28.0985  -26.5064  -16.1145 C   0  0  0  0  0  0  0  0  0  0  0  0
   25.8175  -19.9969   -9.4873 C   0  0  1  0  0  0  0  0  0  0  0  0
   25.6599  -20.7781  -10.7593 C   0  0  0  0  0  0  0  0  0  0  0  0
   25.5447  -22.2574  -10.3215 C   0  0  0  0  0  0  0  0  0  0  0  0
   24.3750  -20.4491  -11.4038 C   0  0  2  0  0  0  0  0  0  0  0  0
   24.1949  -21.0375  -12.8146 N   0  0  0  0  0  0  0  0  0  0  0  0
   25.3719  -20.6894  -13.6003 C   0  0  0  0  0  0  0  0  0  0  0  0
   22.9456  -20.6310  -13.4386 O   0  0  0  0  0  0  0  0  0  0  0  0
   22.7976  -19.4557  -13.8640 N   0  0  0  0  0  0  0  0  0  0  0  0
   21.8098  -21.5031  -13.6209 C   0  0  1  0  0  0  0  0  0  0  0  0
   20.6169  -20.9632  -14.2645 C   0  0  0  0  0  0  0  0  0  0  0  0
   20.2720  -21.6988  -15.5264 S   0  0  0  0  0  0  0  0  0  0  0  0
   19.5402  -20.5971  -16.7858 C   0  0  0  0  0  0  0  0  0  0  0  0
   19.4641  -21.1095  -13.3396 O   0  0  0  0  0  0  0  0  0  0  0  0
   18.3454  -20.2947  -13.4102 O   0  0  0  0  0  0  0  0  0  0  0  0
  2  3  2  0
  2  1  1  0
  4  2  1  0
  5  4  1  0
  6  5  1  0
  7  6  1  0
  8  7  1  0
  8  9  1  1
 10 17  1  0
 10  8  1  0
 11 10  2  0
 13 12  1  6
 14 13  1  0
 15 13  1  0
 16 17  1  0
 16 15  1  1
 18 16  1  0
 19 18  2  0
 20 18  1  0
 21 24  1  0
 21 20  1  0
 21 22  1  1
 23 22  1  0
 24 25  1  0
 26 24  2  0
M  END
$$$$
