RLC.pdb
     RDKit          3D

 26 25  0  0  1  0  0  0  0  0999 V2000
   22.2212  -14.5903  -20.4585 N   0  0  0  0  0  0  0  0  0  0  0  0
   22.4262  -14.0046  -21.7389 C   0  0  0  0  0  0  0  0  0  0  0  0
   22.4271  -14.7627  -22.7879 N   0  0  0  0  0  0  0  0  0  0  0  0
   22.6321  -12.5995  -21.8985 N   0  0  0  0  0  0  0  0  0  0  0  0
   22.4684  -11.6981  -20.7383 C   0  0  0  0  0  0  0  0  0  0  0  0
   21.0145  -11.4882  -20.4566 C   0  0  0  0  0  0  0  0  0  0  0  0
   20.6660  -10.5611  -19.3491 C   0  0  0  0  0  0  0  0  0  0  0  0
   21.3632  -10.8934  -18.0823 C   0  0  2  0  0  0  0  0  0  0  0  0
   21.3462  -12.3022  -17.8399 N   0  0  0  0  0  0  0  0  0  0  0  0
   20.8306  -10.1145  -16.9259 C   0  0  0  0  0  0  0  0  0  0  0  0
   19.5804  -10.0783  -16.7470 O   0  0  0  0  0  0  0  0  0  0  0  0
   22.5954  -14.3811  -23.7370 C   0  0  0  0  0  0  0  0  0  0  0  0
   23.1307  -10.3325  -12.2490 C   0  0  1  0  0  0  0  0  0  0  0  0
   22.5958  -10.1006  -13.6321 C   0  0  0  0  0  0  0  0  0  0  0  0
   22.0596  -11.4738  -14.1011 C   0  0  0  0  0  0  0  0  0  0  0  0
   21.4232   -9.2077  -13.5822 C   0  0  2  0  0  0  0  0  0  0  0  0
   21.0284   -8.5898  -14.9355 N   0  0  0  0  0  0  0  0  0  0  0  0
   21.6221   -9.4013  -15.9903 C   0  0  0  0  0  0  0  0  0  0  0  0
   21.3720   -7.1797  -15.0318 O   0  0  0  0  0  0  0  0  0  0  0  0
   22.4727   -6.8236  -15.5277 N   0  0  0  0  0  0  0  0  0  0  0  0
   20.5163   -6.1053  -14.5877 C   0  0  1  0  0  0  0  0  0  0  0  0
   20.9828   -4.7330  -14.7544 C   0  0  0  0  0  0  0  0  0  0  0  0
   19.8528   -3.7453  -14.7427 S   0  0  0  0  0  0  0  0  0  0  0  0
   18.5246   -4.2071  -15.9080 C   0  0  0  0  0  0  0  0  0  0  0  0
   21.8803   -4.3898  -13.6218 O   0  0  0  0  0  0  0  0  0  0  0  0
   22.5302   -3.1693  -13.5309 O   0  0  0  0  0  0  0  0  0  0  0  0
  2  3  2  0
  2  1  1  0
  4  2  1  0
  5  4  1  0
  6  5  1  0
  7  6  1  0
  8  7  1  0
  8  9  1  1
 10 17  1  0
 10  8  1  0
 11 10  2  0
 13 12  1  6
 14 13  1  0
 15 13  1  0
 16 17  1  0
 16 15  1  6
 18 16  1  0
 19 18  2  0
 20 18  1  0
 21 24  1  0
 21 20  1  0
 21 22  1  1
 23 22  1  0
 24 25  1  0
 26 24  2  0
M  END
$$$$
