RLC.pdb
     RDKit          3D

 26 25  0  0  1  0  0  0  0  0999 V2000
   21.7927  -29.8363  -15.5982 N   0  0  0  0  0  0  0  0  0  0  0  0
   23.1426  -29.6163  -15.2061 C   0  0  0  0  0  0  0  0  0  0  0  0
   24.0727  -30.3761  -15.6886 N   0  0  0  0  0  0  0  0  0  0  0  0
   23.5001  -28.5778  -14.2918 N   0  0  0  0  0  0  0  0  0  0  0  0
   22.4563  -27.6731  -13.7653 C   0  0  0  0  0  0  0  0  0  0  0  0
   22.2004  -26.5678  -14.7401 C   0  0  0  0  0  0  0  0  0  0  0  0
   22.1927  -25.1815  -14.2056 C   0  0  0  0  0  0  0  0  0  0  0  0
   23.2770  -24.3423  -14.7725 C   0  0  2  0  0  0  0  0  0  0  0  0
   24.5436  -24.9964  -14.6647 N   0  0  0  0  0  0  0  0  0  0  0  0
   23.2962  -22.9724  -14.1805 C   0  0  0  0  0  0  0  0  0  0  0  0
   22.1996  -22.3615  -14.0368 O   0  0  0  0  0  0  0  0  0  0  0  0
   25.0721  -30.2315  -15.4540 C   0  0  0  0  0  0  0  0  0  0  0  0
   26.9449  -21.2269  -10.3725 C   0  0  1  0  0  0  0  0  0  0  0  0
   25.6383  -21.4121  -11.0877 C   0  0  0  0  0  0  0  0  0  0  0  0
   24.5850  -20.6922  -10.2128 C   0  0  0  0  0  0  0  0  0  0  0  0
   25.6538  -20.6895  -12.3731 C   0  0  2  0  0  0  0  0  0  0  0  0
   24.4118  -20.9179  -13.2533 N   0  0  0  0  0  0  0  0  0  0  0  0
   24.4609  -22.2858  -13.7534 C   0  0  0  0  0  0  0  0  0  0  0  0
   24.2786  -19.9242  -14.3070 O   0  0  0  0  0  0  0  0  0  0  0  0
   25.2982  -19.4714  -14.8898 N   0  0  0  0  0  0  0  0  0  0  0  0
   23.0169  -19.3909  -14.7627 C   0  0  1  0  0  0  0  0  0  0  0  0
   23.0271  -18.4190  -15.8508 C   0  0  0  0  0  0  0  0  0  0  0  0
   23.0748  -19.0779  -17.1984 S   0  0  0  0  0  0  0  0  0  0  0  0
   21.8719  -20.4450  -17.3377 C   0  0  0  0  0  0  0  0  0  0  0  0
   21.7757  -17.6212  -15.7940 O   0  0  0  0  0  0  0  0  0  0  0  0
   21.5477  -16.5345  -16.6230 O   0  0  0  0  0  0  0  0  0  0  0  0
  2  3  2  0
  2  1  1  0
  4  2  1  0
  5  4  1  0
  6  5  1  0
  7  6  1  0
  8  7  1  0
  8  9  1  1
 10 17  1  0
 10  8  1  0
 11 10  2  0
 13 12  1  1
 14 13  1  0
 15 13  1  0
 16 17  1  0
 16 15  1  1
 18 16  1  0
 19 18  2  0
 20 18  1  0
 21 24  1  0
 21 20  1  0
 21 22  1  6
 23 22  1  0
 24 25  1  0
 26 24  2  0
M  END
$$$$
