RLC.pdb
     RDKit          3D

 26 25  0  0  1  0  0  0  0  0999 V2000
   26.0465  -18.7941  -19.0857 N   0  0  0  0  0  0  0  0  0  0  0  0
   25.0288  -17.9981  -18.4897 C   0  0  0  0  0  0  0  0  0  0  0  0
   24.2406  -17.3074  -19.2491 N   0  0  0  0  0  0  0  0  0  0  0  0
   24.8534  -17.9399  -17.0727 N   0  0  0  0  0  0  0  0  0  0  0  0
   25.7898  -18.6645  -16.1875 C   0  0  0  0  0  0  0  0  0  0  0  0
   25.3656  -20.0928  -16.0562 C   0  0  0  0  0  0  0  0  0  0  0  0
   24.6574  -20.4770  -14.8079 C   0  0  0  0  0  0  0  0  0  0  0  0
   25.5870  -20.8240  -13.7048 C   0  0  2  0  0  0  0  0  0  0  0  0
   26.5137  -21.8338  -14.1114 N   0  0  0  0  0  0  0  0  0  0  0  0
   24.8623  -21.1929  -12.4533 C   0  0  0  0  0  0  0  0  0  0  0  0
   24.4984  -22.3928  -12.2978 O   0  0  0  0  0  0  0  0  0  0  0  0
   23.5004  -16.6971  -18.8561 C   0  0  0  0  0  0  0  0  0  0  0  0
   26.2123  -18.9898   -7.6947 C   0  0  1  0  0  0  0  0  0  0  0  0
   25.8020  -19.9930   -8.7330 C   0  0  0  0  0  0  0  0  0  0  0  0
   25.9761  -21.3753   -8.0605 C   0  0  0  0  0  0  0  0  0  0  0  0
   24.3616  -19.8664   -9.0231 C   0  0  2  0  0  0  0  0  0  0  0  0
   23.8629  -20.7363  -10.1909 N   0  0  0  0  0  0  0  0  0  0  0  0
   24.5444  -20.2966  -11.4017 C   0  0  0  0  0  0  0  0  0  0  0  0
   22.4136  -20.7359  -10.3138 O   0  0  0  0  0  0  0  0  0  0  0  0
   21.8426  -19.9671  -11.1306 N   0  0  0  0  0  0  0  0  0  0  0  0
   21.5351  -21.5838   -9.5436 C   0  0  1  0  0  0  0  0  0  0  0  0
   20.1084  -21.5629   -9.8479 C   0  0  0  0  0  0  0  0  0  0  0  0
   19.3427  -22.5716   -9.0424 S   0  0  0  0  0  0  0  0  0  0  0  0
   20.0606  -24.2456   -9.1762 C   0  0  0  0  0  0  0  0  0  0  0  0
   19.5645  -20.2231   -9.5088 O   0  0  0  0  0  0  0  0  0  0  0  0
   18.2396  -19.8807   -9.7273 O   0  0  0  0  0  0  0  0  0  0  0  0
  2  3  2  0
  2  1  1  0
  4  2  1  0
  5  4  1  0
  6  5  1  0
  7  6  1  0
  8  7  1  0
  8  9  1  6
 10 17  1  0
 10  8  1  0
 11 10  2  0
 13 12  1  6
 14 13  1  0
 15 13  1  0
 16 17  1  0
 16 15  1  1
 18 16  1  0
 19 18  2  0
 20 18  1  0
 21 24  1  0
 21 20  1  0
 21 22  1  1
 23 22  1  0
 24 25  1  0
 26 24  2  0
M  END
$$$$
