RLC.pdb
     RDKit          3D

 26 25  0  0  1  0  0  0  0  0999 V2000
   19.6086  -23.2369   -6.8352 N   0  0  0  0  0  0  0  0  0  0  0  0
   18.9115  -23.1193   -8.0700 C   0  0  0  0  0  0  0  0  0  0  0  0
   17.6173  -23.1252   -8.0682 N   0  0  0  0  0  0  0  0  0  0  0  0
   19.6028  -22.9952   -9.3145 N   0  0  0  0  0  0  0  0  0  0  0  0
   21.0190  -22.5716   -9.3275 C   0  0  0  0  0  0  0  0  0  0  0  0
   21.1114  -21.0941   -9.1133 C   0  0  0  0  0  0  0  0  0  0  0  0
   22.4610  -20.4795   -9.2043 C   0  0  0  0  0  0  0  0  0  0  0  0
   23.3627  -21.2105  -10.1285 C   0  0  2  0  0  0  0  0  0  0  0  0
   24.4639  -21.7881   -9.4233 N   0  0  0  0  0  0  0  0  0  0  0  0
   23.8073  -20.3593  -11.2712 C   0  0  0  0  0  0  0  0  0  0  0  0
   23.3442  -19.1877  -11.3671 O   0  0  0  0  0  0  0  0  0  0  0  0
   17.0697  -23.0170   -8.9419 C   0  0  0  0  0  0  0  0  0  0  0  0
   27.5722  -20.4452  -11.7858 C   0  0  2  0  0  0  0  0  0  0  0  0
   27.5116  -19.7205  -13.0988 C   0  0  0  0  0  0  0  0  0  0  0  0
   28.8257  -20.0838  -13.8299 C   0  0  0  0  0  0  0  0  0  0  0  0
   26.4245  -20.2661  -13.9327 C   0  0  2  0  0  0  0  0  0  0  0  0
   25.0059  -19.9285  -13.4399 N   0  0  0  0  0  0  0  0  0  0  0  0
   24.7253  -20.7584  -12.2753 C   0  0  0  0  0  0  0  0  0  0  0  0
   24.0033  -20.0481  -14.4868 O   0  0  0  0  0  0  0  0  0  0  0  0
   23.1285  -20.9515  -14.4325 N   0  0  0  0  0  0  0  0  0  0  0  0
   23.9225  -19.1762  -15.6344 C   0  0  1  0  0  0  0  0  0  0  0  0
   22.6023  -18.7857  -16.1173 C   0  0  0  0  0  0  0  0  0  0  0  0
   21.8553  -17.9554  -15.1148 S   0  0  0  0  0  0  0  0  0  0  0  0
   20.0920  -17.7707  -15.5530 C   0  0  0  0  0  0  0  0  0  0  0  0
   22.7633  -17.9601  -17.3413 O   0  0  0  0  0  0  0  0  0  0  0  0
   22.1129  -18.2551  -18.5289 O   0  0  0  0  0  0  0  0  0  0  0  0
  2  3  2  0
  2  1  1  0
  4  2  1  0
  5  4  1  0
  6  5  1  0
  7  6  1  0
  8  7  1  0
  8  9  1  1
 10 17  1  0
 10  8  1  0
 11 10  2  0
 13 12  1  1
 14 13  1  0
 15 13  1  0
 16 17  1  0
 16 15  1  1
 18 16  1  0
 19 18  2  0
 20 18  1  0
 21 24  1  0
 21 20  1  0
 21 22  1  6
 23 22  1  0
 24 25  1  0
 26 24  2  0
M  END
$$$$
