RLC.pdb
     RDKit          3D

 26 25  0  0  1  0  0  0  0  0999 V2000
   19.0939  -24.1049  -15.9733 N   0  0  0  0  0  0  0  0  0  0  0  0
   20.2960  -24.8538  -15.8367 C   0  0  0  0  0  0  0  0  0  0  0  0
   20.2261  -26.1174  -15.5655 N   0  0  0  0  0  0  0  0  0  0  0  0
   21.5808  -24.2475  -15.9905 N   0  0  0  0  0  0  0  0  0  0  0  0
   21.6828  -22.8676  -16.5111 C   0  0  0  0  0  0  0  0  0  0  0  0
   20.6005  -22.0193  -15.9226 C   0  0  0  0  0  0  0  0  0  0  0  0
   21.0197  -20.7857  -15.2084 C   0  0  0  0  0  0  0  0  0  0  0  0
   21.6296  -21.0682  -13.8857 C   0  0  2  0  0  0  0  0  0  0  0  0
   20.6872  -20.8641  -12.8303 N   0  0  0  0  0  0  0  0  0  0  0  0
   22.8917  -20.3005  -13.6726 C   0  0  0  0  0  0  0  0  0  0  0  0
   22.8230  -19.0435  -13.5659 O   0  0  0  0  0  0  0  0  0  0  0  0
   21.0668  -26.7240  -15.5699 C   0  0  0  0  0  0  0  0  0  0  0  0
   26.9921  -22.3645  -10.7188 C   0  0  1  0  0  0  0  0  0  0  0  0
   25.9200  -21.5188  -11.3421 C   0  0  0  0  0  0  0  0  0  0  0  0
   25.7157  -20.3323  -10.3707 C   0  0  0  0  0  0  0  0  0  0  0  0
   26.4060  -20.9267  -12.6022 C   0  0  2  0  0  0  0  0  0  0  0  0
   25.3735  -20.0591  -13.3443 N   0  0  0  0  0  0  0  0  0  0  0  0
   24.1857  -20.8716  -13.5735 C   0  0  0  0  0  0  0  0  0  0  0  0
   25.9076  -19.4648  -14.5596 O   0  0  0  0  0  0  0  0  0  0  0  0
   25.8919  -20.1049  -15.6433 N   0  0  0  0  0  0  0  0  0  0  0  0
   26.4786  -18.1409  -14.6307 C   0  0  1  0  0  0  0  0  0  0  0  0
   26.9285  -17.6483  -15.9282 C   0  0  0  0  0  0  0  0  0  0  0  0
   27.1948  -16.1713  -15.9120 S   0  0  0  0  0  0  0  0  0  0  0  0
   26.1089  -15.2903  -14.7372 C   0  0  0  0  0  0  0  0  0  0  0  0
   28.2036  -18.3225  -16.2822 O   0  0  0  0  0  0  0  0  0  0  0  0
   28.8317  -19.2196  -15.4332 O   0  0  0  0  0  0  0  0  0  0  0  0
  2  3  2  0
  2  1  1  0
  4  2  1  0
  5  4  1  0
  6  5  1  0
  7  6  1  0
  8  7  1  0
  8  9  1  1
 10 17  1  0
 10  8  1  0
 11 10  2  0
 13 12  1  1
 14 13  1  0
 15 13  1  0
 16 17  1  0
 16 15  1  1
 18 16  1  0
 19 18  2  0
 20 18  1  0
 21 24  1  0
 21 20  1  0
 21 22  1  6
 23 22  1  0
 24 25  1  0
 26 24  2  0
M  END
$$$$
