RLC.pdb
     RDKit          3D

 26 25  0  0  1  0  0  0  0  0999 V2000
   29.8761  -16.4160  -17.8764 N   0  0  0  0  0  0  0  0  0  0  0  0
   29.3421  -17.6838  -18.2397 C   0  0  0  0  0  0  0  0  0  0  0  0
   30.0596  -18.4911  -18.9527 N   0  0  0  0  0  0  0  0  0  0  0  0
   28.0322  -18.0906  -17.8384 N   0  0  0  0  0  0  0  0  0  0  0  0
   27.2695  -17.2641  -16.8789 C   0  0  0  0  0  0  0  0  0  0  0  0
   27.3540  -17.8624  -15.5107 C   0  0  0  0  0  0  0  0  0  0  0  0
   26.3767  -18.9306  -15.1770 C   0  0  0  0  0  0  0  0  0  0  0  0
   26.9730  -20.0201  -14.3652 C   0  0  2  0  0  0  0  0  0  0  0  0
   27.5882  -21.0051  -15.1988 N   0  0  0  0  0  0  0  0  0  0  0  0
   25.9885  -20.6180  -13.4161 C   0  0  0  0  0  0  0  0  0  0  0  0
   25.3601  -21.6549  -13.7718 O   0  0  0  0  0  0  0  0  0  0  0  0
   29.7107  -19.4249  -19.2375 C   0  0  0  0  0  0  0  0  0  0  0  0
   26.2592  -19.7857   -7.9499 C   0  0  1  0  0  0  0  0  0  0  0  0
   26.1433  -20.4005   -9.3143 C   0  0  0  0  0  0  0  0  0  0  0  0
   26.2336  -21.9279   -9.0860 C   0  0  0  0  0  0  0  0  0  0  0  0
   24.7996  -20.1568   -9.8709 C   0  0  2  0  0  0  0  0  0  0  0  0
   24.6043  -20.6482  -11.3164 N   0  0  0  0  0  0  0  0  0  0  0  0
   25.6948  -20.1156  -12.1232 C   0  0  0  0  0  0  0  0  0  0  0  0
   23.2877  -20.3296  -11.8460 O   0  0  0  0  0  0  0  0  0  0  0  0
   23.0117  -19.1555  -12.2062 N   0  0  0  0  0  0  0  0  0  0  0  0
   22.2228  -21.2916  -12.0021 C   0  0  1  0  0  0  0  0  0  0  0  0
   21.0164  -20.8817  -12.7129 C   0  0  0  0  0  0  0  0  0  0  0  0
   20.8087  -21.6663  -13.9754 S   0  0  0  0  0  0  0  0  0  0  0  0
   20.7936  -23.4669  -13.6706 C   0  0  0  0  0  0  0  0  0  0  0  0
   19.8388  -21.1277  -11.8420 O   0  0  0  0  0  0  0  0  0  0  0  0
   18.5622  -20.7082  -12.1808 O   0  0  0  0  0  0  0  0  0  0  0  0
  2  3  2  0
  2  1  1  0
  4  2  1  0
  5  4  1  0
  6  5  1  0
  7  6  1  0
  8  7  1  0
  8  9  1  6
 10 17  1  0
 10  8  1  0
 11 10  2  0
 13 12  1  6
 14 13  1  0
 15 13  1  0
 16 17  1  0
 16 15  1  1
 18 16  1  0
 19 18  2  0
 20 18  1  0
 21 24  1  0
 21 20  1  0
 21 22  1  1
 23 22  1  0
 24 25  1  0
 26 24  2  0
M  END
$$$$
