RLC.pdb
     RDKit          3D

 26 25  0  0  1  0  0  0  0  0999 V2000
   25.0641  -20.0296  -13.7957 N   0  0  0  0  0  0  0  0  0  0  0  0
   24.9499  -18.7349  -14.3748 C   0  0  0  0  0  0  0  0  0  0  0  0
   25.4196  -17.7127  -13.7348 N   0  0  0  0  0  0  0  0  0  0  0  0
   24.3290  -18.5320  -15.6458 N   0  0  0  0  0  0  0  0  0  0  0  0
   23.6484  -19.6594  -16.3176 C   0  0  0  0  0  0  0  0  0  0  0  0
   23.0817  -19.2065  -17.6257 C   0  0  0  0  0  0  0  0  0  0  0  0
   21.8687  -18.3499  -17.5781 C   0  0  0  0  0  0  0  0  0  0  0  0
   21.8003  -17.3895  -18.7071 C   0  0  2  0  0  0  0  0  0  0  0  0
   22.4003  -17.9355  -19.8842 N   0  0  0  0  0  0  0  0  0  0  0  0
   22.3701  -16.0576  -18.3480 C   0  0  0  0  0  0  0  0  0  0  0  0
   21.8463  -15.4139  -17.3953 O   0  0  0  0  0  0  0  0  0  0  0  0
   25.2878  -16.7443  -14.0809 C   0  0  0  0  0  0  0  0  0  0  0  0
   27.5286  -15.5977  -17.4112 C   0  0  1  0  0  0  0  0  0  0  0  0
   26.0319  -15.4867  -17.4335 C   0  0  0  0  0  0  0  0  0  0  0  0
   25.6400  -14.9314  -16.0438 C   0  0  0  0  0  0  0  0  0  0  0  0
   25.6110  -14.4629  -18.4079 C   0  0  2  0  0  0  0  0  0  0  0  0
   24.0913  -14.2283  -18.4770 N   0  0  0  0  0  0  0  0  0  0  0  0
   23.4723  -15.4422  -18.9936 C   0  0  0  0  0  0  0  0  0  0  0  0
   23.7398  -13.0365  -19.2329 O   0  0  0  0  0  0  0  0  0  0  0  0
   23.8715  -13.0126  -20.4845 N   0  0  0  0  0  0  0  0  0  0  0  0
   23.2272  -11.8237  -18.6411 C   0  0  1  0  0  0  0  0  0  0  0  0
   22.8853  -10.7124  -19.5224 C   0  0  0  0  0  0  0  0  0  0  0  0
   21.7393   -9.9010  -18.9923 S   0  0  0  0  0  0  0  0  0  0  0  0
   20.2685  -10.9291  -18.6533 C   0  0  0  0  0  0  0  0  0  0  0  0
   24.0565   -9.8052  -19.6280 O   0  0  0  0  0  0  0  0  0  0  0  0
   24.0658   -8.6957  -20.4583 O   0  0  0  0  0  0  0  0  0  0  0  0
  2  3  2  0
  2  1  1  0
  4  2  1  0
  5  4  1  0
  6  5  1  0
  7  6  1  0
  8  7  1  0
  8  9  1  6
 10 17  1  0
 10  8  1  0
 11 10  2  0
 13 12  1  1
 14 13  1  0
 15 13  1  0
 16 17  1  0
 16 15  1  1
 18 16  1  0
 19 18  2  0
 20 18  1  0
 21 24  1  0
 21 20  1  0
 21 22  1  6
 23 22  1  0
 24 25  1  0
 26 24  2  0
M  END
$$$$
