RLC.pdb
     RDKit          3D

 26 25  0  0  1  0  0  0  0  0999 V2000
   19.6336  -11.4603  -16.1935 N   0  0  0  0  0  0  0  0  0  0  0  0
   18.9330  -12.6381  -15.8108 C   0  0  0  0  0  0  0  0  0  0  0  0
   19.0278  -13.6976  -16.5478 N   0  0  0  0  0  0  0  0  0  0  0  0
   18.1253  -12.6827  -14.6327 N   0  0  0  0  0  0  0  0  0  0  0  0
   17.7606  -11.4256  -13.9456 C   0  0  0  0  0  0  0  0  0  0  0  0
   16.6019  -10.7827  -14.6395 C   0  0  0  0  0  0  0  0  0  0  0  0
   16.1090   -9.4959  -14.0842 C   0  0  0  0  0  0  0  0  0  0  0  0
   15.2855   -9.6762  -12.8632 C   0  0  2  0  0  0  0  0  0  0  0  0
   14.1240  -10.4632  -13.1375 N   0  0  0  0  0  0  0  0  0  0  0  0
   14.9465   -8.3748  -12.2159 C   0  0  0  0  0  0  0  0  0  0  0  0
   14.0059   -7.6856  -12.7024 O   0  0  0  0  0  0  0  0  0  0  0  0
   18.5167  -14.5699  -16.3182 C   0  0  0  0  0  0  0  0  0  0  0  0
   14.8730   -7.4279   -6.7952 C   0  0  1  0  0  0  0  0  0  0  0  0
   14.5489   -7.4536   -8.2605 C   0  0  0  0  0  0  0  0  0  0  0  0
   13.1602   -6.7835   -8.3862 C   0  0  0  0  0  0  0  0  0  0  0  0
   15.4815   -6.5864   -9.0043 C   0  0  2  0  0  0  0  0  0  0  0  0
   15.2398   -6.5375  -10.5236 N   0  0  0  0  0  0  0  0  0  0  0  0
   15.5987   -7.8366  -11.0778 C   0  0  0  0  0  0  0  0  0  0  0  0
   15.9258   -5.4280  -11.1670 O   0  0  0  0  0  0  0  0  0  0  0  0
   17.1783   -5.4381  -11.2917 N   0  0  0  0  0  0  0  0  0  0  0  0
   15.2599   -4.2637  -11.7006 C   0  0  1  0  0  0  0  0  0  0  0  0
   16.0739   -3.2170  -12.3092 C   0  0  0  0  0  0  0  0  0  0  0  0
   15.7657   -3.0353  -13.7668 S   0  0  0  0  0  0  0  0  0  0  0  0
   16.6749   -1.6266  -14.4909 C   0  0  0  0  0  0  0  0  0  0  0  0
   15.7825   -1.9274  -11.6327 O   0  0  0  0  0  0  0  0  0  0  0  0
   14.6316   -1.7206  -10.8891 O   0  0  0  0  0  0  0  0  0  0  0  0
  2  3  2  0
  2  1  1  0
  4  2  1  0
  5  4  1  0
  6  5  1  0
  7  6  1  0
  8  7  1  0
  8  9  1  6
 10 17  1  0
 10  8  1  0
 11 10  2  0
 13 12  1  1
 14 13  1  0
 15 13  1  0
 16 17  1  0
 16 15  1  1
 18 16  1  0
 19 18  2  0
 20 18  1  0
 21 24  1  0
 21 20  1  0
 21 22  1  1
 23 22  1  0
 24 25  1  0
 26 24  2  0
M  END
$$$$
