MIM.pdb
     RDKit          3D

 25 24  0  0  1  0  0  0  0  0999 V2000
   17.8316  -15.6397  -21.2748 C   0  0  0  0  0  0  0  0  0  0  0  0
   17.4171  -16.6614  -19.8584 S   0  0  0  0  0  0  0  0  0  0  0  0
   18.1253  -15.9696  -18.3409 C   0  0  0  0  0  0  0  0  0  0  0  0
   18.5883  -14.5644  -18.5929 C   0  0  0  0  0  0  0  0  0  0  0  0
   19.1976  -14.0283  -17.3266 C   0  0  2  0  0  0  0  0  0  0  0  0
   18.6120  -14.6806  -16.1992 N   0  0  0  0  0  0  0  0  0  0  0  0
   19.0646  -12.5477  -17.2716 C   0  0  0  0  0  0  0  0  0  0  0  0
   19.5057  -11.8463  -18.2186 O   0  0  0  0  0  0  0  0  0  0  0  0
   14.6491  -10.5447  -15.7809 C   0  0  0  0  0  0  0  0  0  0  0  0
   15.8661  -10.2757  -16.6406 C   0  0  0  0  0  0  0  0  0  0  0  0
   17.0062   -9.9340  -15.7189 C   0  0  2  0  0  0  0  0  0  0  0  0
   17.0945   -8.4349  -15.5684 C   0  0  0  0  0  0  0  0  0  0  0  0
   18.3392  -10.4328  -16.2226 C   0  0  2  0  0  0  0  0  0  0  0  0
   18.4547  -11.8705  -16.1865 N   0  0  0  0  0  0  0  0  0  0  0  0
   19.4627   -9.8855  -15.3836 C   0  0  0  0  0  0  0  0  0  0  0  0
   19.8587  -10.4634  -14.3353 O   0  0  0  0  0  0  0  0  0  0  0  0
   26.2624  -10.7579  -14.3777 C   0  0  0  0  0  0  0  0  0  0  0  0
   24.6511  -10.8608  -15.1584 S   0  0  0  0  0  0  0  0  0  0  0  0
   23.6926   -9.3965  -14.7776 C   0  0  0  0  0  0  0  0  0  0  0  0
   22.2972   -9.4499  -15.2417 C   0  0  0  0  0  0  0  0  0  0  0  0
   21.4047   -8.2824  -15.0634 C   0  0  2  0  0  0  0  0  0  0  0  0
   20.1304   -8.6873  -15.7369 N   0  0  0  0  0  0  0  0  0  0  0  0
   21.8305   -6.9853  -15.5433 C   0  0  0  0  0  0  0  0  0  0  0  0
   21.5468   -6.5349  -16.8137 O   0  0  0  0  0  0  0  0  0  0  0  0
   22.5058   -6.1669  -14.8221 O   0  0  0  0  0  0  0  0  0  0  0  0
  1  2  1  0
  3  2  1  0
  4  5  1  0
  4  3  1  0
  5  6  1  1
  7  8  2  0
  7  5  1  0
  9 10  1  0
 11 13  1  0
 11 10  1  0
 11 12  1  6
 13 14  1  1
 14  7  1  0
 15 22  1  0
 15 13  1  0
 16 15  2  0
 18 17  1  0
 19 20  1  0
 19 18  1  0
 21 20  1  6
 21 22  1  0
 23 21  1  0
 24 23  1  0
 25 23  2  0
M  END
$$$$
