MIM.pdb
     RDKit          3D

 25 24  0  0  1  0  0  0  0  0999 V2000
   24.1040  -24.8125  -19.2842 C   0  0  0  0  0  0  0  0  0  0  0  0
   25.3268  -26.0771  -19.6412 S   0  0  0  0  0  0  0  0  0  0  0  0
   26.9629  -25.5706  -19.0501 C   0  0  0  0  0  0  0  0  0  0  0  0
   26.8152  -24.6875  -17.8456 C   0  0  0  0  0  0  0  0  0  0  0  0
   28.1701  -24.1450  -17.4825 C   0  0  2  0  0  0  0  0  0  0  0  0
   29.0053  -25.2087  -17.0236 N   0  0  0  0  0  0  0  0  0  0  0  0
   28.0408  -23.0428  -16.4919 C   0  0  0  0  0  0  0  0  0  0  0  0
   28.4256  -23.2206  -15.3071 O   0  0  0  0  0  0  0  0  0  0  0  0
   28.8238  -18.9730  -18.4135 C   0  0  0  0  0  0  0  0  0  0  0  0
   28.9049  -19.0174  -16.9022 C   0  0  0  0  0  0  0  0  0  0  0  0
   27.5317  -19.3519  -16.3837 C   0  0  2  0  0  0  0  0  0  0  0  0
   27.1565  -18.3741  -15.2971 C   0  0  0  0  0  0  0  0  0  0  0  0
   27.4435  -20.7456  -15.8098 C   0  0  2  0  0  0  0  0  0  0  0  0
   27.4957  -21.7761  -16.8181 N   0  0  0  0  0  0  0  0  0  0  0  0
   26.1491  -20.9320  -15.0645 C   0  0  0  0  0  0  0  0  0  0  0  0
   25.0724  -21.2205  -15.6540 O   0  0  0  0  0  0  0  0  0  0  0  0
   23.4120  -20.8546   -7.6047 C   0  0  0  0  0  0  0  0  0  0  0  0
   24.7648  -20.9159   -8.7806 S   0  0  0  0  0  0  0  0  0  0  0  0
   24.1232  -20.8844  -10.4525 C   0  0  0  0  0  0  0  0  0  0  0  0
   25.1594  -20.8793  -11.4975 C   0  0  0  0  0  0  0  0  0  0  0  0
   24.7787  -20.8989  -12.9279 C   0  0  2  0  0  0  0  0  0  0  0  0
   26.0820  -20.7905  -13.6568 N   0  0  0  0  0  0  0  0  0  0  0  0
   23.8464  -19.9108  -13.4265 C   0  0  0  0  0  0  0  0  0  0  0  0
   22.5096  -20.1824  -13.6173 O   0  0  0  0  0  0  0  0  0  0  0  0
   24.1999  -18.7156  -13.7305 O   0  0  0  0  0  0  0  0  0  0  0  0
  1  2  1  0
  3  2  1  0
  4  5  1  0
  4  3  1  0
  5  6  1  1
  7  8  2  0
  7  5  1  0
  9 10  1  0
 11 13  1  0
 11 10  1  0
 11 12  1  1
 13 14  1  6
 14  7  1  0
 15 22  1  0
 15 13  1  0
 16 15  2  0
 18 17  1  0
 19 20  1  0
 19 18  1  0
 21 20  1  1
 21 22  1  0
 23 21  1  0
 24 23  1  0
 25 23  2  0
M  END
$$$$
