MIM.pdb
     RDKit          3D

 25 24  0  0  1  0  0  0  0  0999 V2000
   14.5101  -25.1691  -13.9495 C   0  0  0  0  0  0  0  0  0  0  0  0
   14.6827  -24.1278  -15.4013 S   0  0  0  0  0  0  0  0  0  0  0  0
   16.3178  -23.3483  -15.4393 C   0  0  0  0  0  0  0  0  0  0  0  0
   17.1871  -23.9423  -14.3697 C   0  0  0  0  0  0  0  0  0  0  0  0
   18.5029  -23.2138  -14.3647 C   0  0  2  0  0  0  0  0  0  0  0  0
   19.3012  -23.6583  -15.4622 N   0  0  0  0  0  0  0  0  0  0  0  0
   19.1827  -23.3769  -13.0516 C   0  0  0  0  0  0  0  0  0  0  0  0
   20.0456  -24.2808  -12.9040 O   0  0  0  0  0  0  0  0  0  0  0  0
   21.5440  -20.2313   -8.5283 C   0  0  0  0  0  0  0  0  0  0  0  0
   20.8946  -21.5576   -8.8626 C   0  0  0  0  0  0  0  0  0  0  0  0
   20.3231  -21.4459  -10.2508 C   0  0  2  0  0  0  0  0  0  0  0  0
   19.2879  -20.3481  -10.2778 C   0  0  0  0  0  0  0  0  0  0  0  0
   19.6650  -22.7212  -10.7199 C   0  0  2  0  0  0  0  0  0  0  0  0
   18.9047  -22.5510  -11.9342 N   0  0  0  0  0  0  0  0  0  0  0  0
   18.7101  -23.2402   -9.6785 C   0  0  0  0  0  0  0  0  0  0  0  0
   17.5174  -22.8381   -9.6035 O   0  0  0  0  0  0  0  0  0  0  0  0
   17.1526  -29.0976   -9.4052 C   0  0  0  0  0  0  0  0  0  0  0  0
   17.4846  -28.8727   -7.6572 S   0  0  0  0  0  0  0  0  0  0  0  0
   17.3121  -27.1445   -7.2196 C   0  0  0  0  0  0  0  0  0  0  0  0
   18.1707  -26.2358   -7.9960 C   0  0  0  0  0  0  0  0  0  0  0  0
   18.1399  -24.7779   -7.7409 C   0  0  2  0  0  0  0  0  0  0  0  0
   19.1118  -24.2111   -8.7287 N   0  0  0  0  0  0  0  0  0  0  0  0
   18.4357  -24.2846   -6.4130 C   0  0  0  0  0  0  0  0  0  0  0  0
   19.7096  -23.9437   -6.0153 O   0  0  0  0  0  0  0  0  0  0  0  0
   17.5343  -24.1355   -5.5123 O   0  0  0  0  0  0  0  0  0  0  0  0
  1  2  1  0
  3  2  1  0
  4  5  1  0
  4  3  1  0
  5  6  1  6
  7  8  2  0
  7  5  1  0
  9 10  1  0
 11 13  1  0
 11 10  1  0
 11 12  1  1
 13 14  1  6
 14  7  1  0
 15 22  1  0
 15 13  1  0
 16 15  2  0
 18 17  1  0
 19 20  1  0
 19 18  1  0
 21 20  1  1
 21 22  1  0
 23 21  1  0
 24 23  1  0
 25 23  2  0
M  END
$$$$
