MIM.pdb
     RDKit          3D

 25 24  0  0  1  0  0  0  0  0999 V2000
   24.7868  -27.7875  -18.1294 C   0  0  0  0  0  0  0  0  0  0  0  0
   25.5146  -26.8432  -16.7875 S   0  0  0  0  0  0  0  0  0  0  0  0
   26.2367  -25.3016  -17.4079 C   0  0  0  0  0  0  0  0  0  0  0  0
   26.8459  -24.5341  -16.2709 C   0  0  0  0  0  0  0  0  0  0  0  0
   27.4200  -23.2539  -16.8126 C   0  0  2  0  0  0  0  0  0  0  0  0
   28.6290  -23.5321  -17.5200 N   0  0  0  0  0  0  0  0  0  0  0  0
   27.6049  -22.2629  -15.7188 C   0  0  0  0  0  0  0  0  0  0  0  0
   28.7345  -22.1321  -15.1800 O   0  0  0  0  0  0  0  0  0  0  0  0
   26.9719  -17.1907  -16.0769 C   0  0  0  0  0  0  0  0  0  0  0  0
   27.4252  -18.5860  -15.7021 C   0  0  0  0  0  0  0  0  0  0  0  0
   26.5381  -19.0665  -14.5848 C   0  0  2  0  0  0  0  0  0  0  0  0
   26.7437  -18.1915  -13.3725 C   0  0  0  0  0  0  0  0  0  0  0  0
   26.8191  -20.4948  -14.1840 C   0  0  2  0  0  0  0  0  0  0  0  0
   26.5545  -21.4406  -15.2407 N   0  0  0  0  0  0  0  0  0  0  0  0
   25.9601  -20.8972  -13.0153 C   0  0  0  0  0  0  0  0  0  0  0  0
   24.8209  -21.4156  -13.1686 O   0  0  0  0  0  0  0  0  0  0  0  0
   28.3884  -19.7700   -7.2166 C   0  0  0  0  0  0  0  0  0  0  0  0
   26.8483  -20.4916   -6.6479 S   0  0  0  0  0  0  0  0  0  0  0  0
   25.6783  -20.5802   -8.0011 C   0  0  0  0  0  0  0  0  0  0  0  0
   26.2990  -20.6361   -9.3342 C   0  0  0  0  0  0  0  0  0  0  0  0
   25.4879  -20.9839  -10.5227 C   0  0  2  0  0  0  0  0  0  0  0  0
   26.3963  -20.7102  -11.6808 N   0  0  0  0  0  0  0  0  0  0  0  0
   24.2125  -20.3309  -10.7258 C   0  0  0  0  0  0  0  0  0  0  0  0
   23.0202  -20.8910  -10.3233 O   0  0  0  0  0  0  0  0  0  0  0  0
   24.1023  -19.1884  -11.2989 O   0  0  0  0  0  0  0  0  0  0  0  0
  1  2  1  0
  3  2  1  0
  4  5  1  0
  4  3  1  0
  5  6  1  1
  7  8  2  0
  7  5  1  0
  9 10  1  0
 11 13  1  0
 11 10  1  0
 11 12  1  1
 13 14  1  6
 14  7  1  0
 15 22  1  0
 15 13  1  0
 16 15  2  0
 18 17  1  0
 19 20  1  0
 19 18  1  0
 21 20  1  1
 21 22  1  0
 23 21  1  0
 24 23  1  0
 25 23  2  0
M  END
$$$$
