MIM.pdb
     RDKit          3D

 25 24  0  0  1  0  0  0  0  0999 V2000
   27.3456  -18.2353   -6.0715 C   0  0  0  0  0  0  0  0  0  0  0  0
   27.8246  -19.9373   -5.7622 S   0  0  0  0  0  0  0  0  0  0  0  0
   28.0330  -20.8370   -7.3211 C   0  0  0  0  0  0  0  0  0  0  0  0
   27.1387  -20.2450   -8.3710 C   0  0  0  0  0  0  0  0  0  0  0  0
   27.2573  -21.0728   -9.6210 C   0  0  2  0  0  0  0  0  0  0  0  0
   28.6240  -21.1283  -10.0315 N   0  0  0  0  0  0  0  0  0  0  0  0
   26.3561  -20.5463  -10.6810 C   0  0  0  0  0  0  0  0  0  0  0  0
   26.3661  -19.3181  -10.9548 O   0  0  0  0  0  0  0  0  0  0  0  0
   27.5571  -21.5524  -15.2348 C   0  0  0  0  0  0  0  0  0  0  0  0
   26.9782  -20.9246  -13.9845 C   0  0  0  0  0  0  0  0  0  0  0  0
   25.5436  -21.3679  -13.8766 C   0  0  2  0  0  0  0  0  0  0  0  0
   24.7708  -20.8516  -15.0656 C   0  0  0  0  0  0  0  0  0  0  0  0
   24.8659  -20.8659  -12.6243 C   0  0  2  0  0  0  0  0  0  0  0  0
   25.4680  -21.3715  -11.4147 N   0  0  0  0  0  0  0  0  0  0  0  0
   23.4204  -21.2850  -12.5983 C   0  0  0  0  0  0  0  0  0  0  0  0
   23.0724  -22.4765  -12.3768 O   0  0  0  0  0  0  0  0  0  0  0  0
   18.2031  -19.5527   -9.2392 C   0  0  0  0  0  0  0  0  0  0  0  0
   17.9403  -18.9074  -10.8917 S   0  0  0  0  0  0  0  0  0  0  0  0
   18.7137  -19.9821  -12.0978 C   0  0  0  0  0  0  0  0  0  0  0  0
   20.1847  -19.9422  -12.0877 C   0  0  0  0  0  0  0  0  0  0  0  0
   20.9623  -20.8019  -13.0084 C   0  0  2  0  0  0  0  0  0  0  0  0
   22.3784  -20.3524  -12.8234 N   0  0  0  0  0  0  0  0  0  0  0  0
   20.6258  -20.8190  -14.4157 C   0  0  0  0  0  0  0  0  0  0  0  0
   19.6412  -21.6316  -14.9329 O   0  0  0  0  0  0  0  0  0  0  0  0
   21.2237  -20.0834  -15.2803 O   0  0  0  0  0  0  0  0  0  0  0  0
  1  2  1  0
  3  2  1  0
  4  5  1  0
  4  3  1  0
  5  6  1  6
  7  8  2  0
  7  5  1  0
  9 10  1  0
 11 13  1  0
 11 10  1  0
 11 12  1  6
 13 14  1  1
 14  7  1  0
 15 22  1  0
 15 13  1  0
 16 15  2  0
 18 17  1  0
 19 20  1  0
 19 18  1  0
 21 20  1  1
 21 22  1  0
 23 21  1  0
 24 23  1  0
 25 23  2  0
M  END
$$$$
