MIM.pdb
     RDKit          3D

 25 24  0  0  1  0  0  0  0  0999 V2000
   31.8463  -11.7765  -18.6513 C   0  0  0  0  0  0  0  0  0  0  0  0
   32.8613  -13.2213  -18.9745 S   0  0  0  0  0  0  0  0  0  0  0  0
   31.8404  -14.6074  -19.5396 C   0  0  0  0  0  0  0  0  0  0  0  0
   30.5400  -14.0905  -20.0820 C   0  0  0  0  0  0  0  0  0  0  0  0
   29.7163  -15.2612  -20.5434 C   0  0  2  0  0  0  0  0  0  0  0  0
   30.4177  -15.9670  -21.5678 N   0  0  0  0  0  0  0  0  0  0  0  0
   28.3656  -14.8098  -20.9732 C   0  0  0  0  0  0  0  0  0  0  0  0
   28.1608  -14.5157  -22.1794 O   0  0  0  0  0  0  0  0  0  0  0  0
   23.5152  -16.9189  -19.8852 C   0  0  0  0  0  0  0  0  0  0  0  0
   24.6633  -16.2432  -20.6049 C   0  0  0  0  0  0  0  0  0  0  0  0
   24.8176  -14.8649  -20.0195 C   0  0  2  0  0  0  0  0  0  0  0  0
   23.5953  -14.0431  -20.3482 C   0  0  0  0  0  0  0  0  0  0  0  0
   26.0286  -14.1341  -20.5477 C   0  0  2  0  0  0  0  0  0  0  0  0
   27.2738  -14.6907  -20.0777 N   0  0  0  0  0  0  0  0  0  0  0  0
   26.0076  -12.6917  -20.1180 C   0  0  0  0  0  0  0  0  0  0  0  0
   25.1528  -11.8747  -20.5560 O   0  0  0  0  0  0  0  0  0  0  0  0
   25.1128  -10.6840  -14.4459 C   0  0  0  0  0  0  0  0  0  0  0  0
   26.6692   -9.8389  -14.7282 S   0  0  0  0  0  0  0  0  0  0  0  0
   26.9184   -9.5869  -16.4838 C   0  0  0  0  0  0  0  0  0  0  0  0
   26.8261  -10.8147  -17.2898 C   0  0  0  0  0  0  0  0  0  0  0  0
   26.9257  -10.7497  -18.7654 C   0  0  2  0  0  0  0  0  0  0  0  0
   26.9546  -12.1834  -19.1955 N   0  0  0  0  0  0  0  0  0  0  0  0
   28.0237  -10.0267  -19.3702 C   0  0  0  0  0  0  0  0  0  0  0  0
   28.0322   -8.6544  -19.4887 O   0  0  0  0  0  0  0  0  0  0  0  0
   29.0627  -10.6126  -19.8427 O   0  0  0  0  0  0  0  0  0  0  0  0
  1  2  1  0
  3  2  1  0
  4  5  1  0
  4  3  1  0
  5  6  1  6
  7  8  2  0
  7  5  1  0
  9 10  1  0
 11 13  1  0
 11 10  1  0
 11 12  1  6
 13 14  1  1
 14  7  1  0
 15 22  1  0
 15 13  1  0
 16 15  2  0
 18 17  1  0
 19 20  1  0
 19 18  1  0
 21 20  1  1
 21 22  1  0
 23 21  1  0
 24 23  1  0
 25 23  2  0
M  END
$$$$
