MIM.pdb
     RDKit          3D

 25 24  0  0  1  0  0  0  0  0999 V2000
   27.9666  -18.1939   -5.2587 C   0  0  0  0  0  0  0  0  0  0  0  0
   28.5150  -19.8767   -4.9599 S   0  0  0  0  0  0  0  0  0  0  0  0
   28.2642  -20.9026   -6.4321 C   0  0  0  0  0  0  0  0  0  0  0  0
   27.3915  -20.1758   -7.4133 C   0  0  0  0  0  0  0  0  0  0  0  0
   27.2575  -21.0208   -8.6502 C   0  0  2  0  0  0  0  0  0  0  0  0
   28.5545  -21.3412   -9.1548 N   0  0  0  0  0  0  0  0  0  0  0  0
   26.3981  -20.3393   -9.6551 C   0  0  0  0  0  0  0  0  0  0  0  0
   26.3621  -19.0821   -9.6951 O   0  0  0  0  0  0  0  0  0  0  0  0
   26.2700  -18.2563  -14.1090 C   0  0  0  0  0  0  0  0  0  0  0  0
   25.7675  -19.6844  -14.1348 C   0  0  0  0  0  0  0  0  0  0  0  0
   26.2316  -20.3516  -12.8676 C   0  0  2  0  0  0  0  0  0  0  0  0
   26.6323  -21.7747  -13.1704 C   0  0  0  0  0  0  0  0  0  0  0  0
   25.1681  -20.3829  -11.7963 C   0  0  2  0  0  0  0  0  0  0  0  0
   25.6008  -21.0453  -10.5899 N   0  0  0  0  0  0  0  0  0  0  0  0
   23.9471  -21.1173  -12.2814 C   0  0  0  0  0  0  0  0  0  0  0  0
   23.9512  -22.3614  -12.4865 O   0  0  0  0  0  0  0  0  0  0  0  0
   19.1593  -19.6907   -9.4058 C   0  0  0  0  0  0  0  0  0  0  0  0
   19.0008  -21.4278   -9.8223 S   0  0  0  0  0  0  0  0  0  0  0  0
   20.2779  -21.8960  -10.9875 C   0  0  0  0  0  0  0  0  0  0  0  0
   20.4765  -20.9358  -12.0848 C   0  0  0  0  0  0  0  0  0  0  0  0
   21.5410  -21.1580  -13.0893 C   0  0  2  0  0  0  0  0  0  0  0  0
   22.7293  -20.4384  -12.5312 N   0  0  0  0  0  0  0  0  0  0  0  0
   21.3154  -20.7563  -14.4612 C   0  0  0  0  0  0  0  0  0  0  0  0
   21.5158  -19.4656  -14.8984 O   0  0  0  0  0  0  0  0  0  0  0  0
   20.9084  -21.5717  -15.3641 O   0  0  0  0  0  0  0  0  0  0  0  0
  1  2  1  0
  3  2  1  0
  4  5  1  0
  4  3  1  0
  5  6  1  6
  7  8  2  0
  7  5  1  0
  9 10  1  0
 11 13  1  0
 11 10  1  0
 11 12  1  6
 13 14  1  1
 14  7  1  0
 15 22  1  0
 15 13  1  0
 16 15  2  0
 18 17  1  0
 19 20  1  0
 19 18  1  0
 21 20  1  1
 21 22  1  0
 23 21  1  0
 24 23  1  0
 25 23  2  0
M  END
$$$$
