MIM.pdb
     RDKit          3D

 25 24  0  0  1  0  0  0  0  0999 V2000
   26.1478  -17.2125  -18.1033 C   0  0  0  0  0  0  0  0  0  0  0  0
   27.6339  -16.7732  -17.1976 S   0  0  0  0  0  0  0  0  0  0  0  0
   28.3139  -18.2192  -16.3434 C   0  0  0  0  0  0  0  0  0  0  0  0
   27.1956  -19.0489  -15.7835 C   0  0  0  0  0  0  0  0  0  0  0  0
   27.7886  -20.1323  -14.9252 C   0  0  2  0  0  0  0  0  0  0  0  0
   28.4745  -21.0756  -15.7495 N   0  0  0  0  0  0  0  0  0  0  0  0
   26.7378  -20.7597  -14.0796 C   0  0  0  0  0  0  0  0  0  0  0  0
   26.1238  -21.7749  -14.4987 O   0  0  0  0  0  0  0  0  0  0  0  0
   26.5585  -20.5907   -8.5275 C   0  0  0  0  0  0  0  0  0  0  0  0
   26.4818  -21.1884   -9.9166 C   0  0  0  0  0  0  0  0  0  0  0  0
   25.2969  -20.5719  -10.6110 C   0  0  2  0  0  0  0  0  0  0  0  0
   24.0255  -21.1190  -10.0097 C   0  0  0  0  0  0  0  0  0  0  0  0
   25.2723  -20.8544  -12.0940 C   0  0  2  0  0  0  0  0  0  0  0  0
   26.3838  -20.2646  -12.7999 N   0  0  0  0  0  0  0  0  0  0  0  0
   24.0188  -20.3031  -12.7189 C   0  0  0  0  0  0  0  0  0  0  0  0
   23.7954  -19.0643  -12.7912 O   0  0  0  0  0  0  0  0  0  0  0  0
   22.3751  -22.4618  -17.9298 C   0  0  0  0  0  0  0  0  0  0  0  0
   20.7296  -21.7818  -17.7144 S   0  0  0  0  0  0  0  0  0  0  0  0
   20.6130  -20.9535  -16.1307 C   0  0  0  0  0  0  0  0  0  0  0  0
   21.7344  -21.2314  -15.2192 C   0  0  0  0  0  0  0  0  0  0  0  0
   21.7810  -20.6055  -13.8784 C   0  0  2  0  0  0  0  0  0  0  0  0
   23.0263  -21.1580  -13.2577 N   0  0  0  0  0  0  0  0  0  0  0  0
   20.6600  -20.7735  -12.9788 C   0  0  0  0  0  0  0  0  0  0  0  0
   19.5285  -19.9912  -13.0498 O   0  0  0  0  0  0  0  0  0  0  0  0
   20.6435  -21.6581  -12.0498 O   0  0  0  0  0  0  0  0  0  0  0  0
  1  2  1  0
  3  2  1  0
  4  5  1  0
  4  3  1  0
  5  6  1  6
  7  8  2  0
  7  5  1  0
  9 10  1  0
 11 13  1  0
 11 10  1  0
 11 12  1  1
 13 14  1  6
 14  7  1  0
 15 22  1  0
 15 13  1  0
 16 15  2  0
 18 17  1  0
 19 20  1  0
 19 18  1  0
 21 20  1  6
 21 22  1  0
 23 21  1  0
 24 23  1  0
 25 23  2  0
M  END
$$$$
