MIM.pdb
     RDKit          3D

 25 24  0  0  1  0  0  0  0  0999 V2000
   31.0023  -20.2737  -18.5189 C   0  0  0  0  0  0  0  0  0  0  0  0
   30.7703  -22.0536  -18.5141 S   0  0  0  0  0  0  0  0  0  0  0  0
   29.4570  -22.5249  -17.3583 C   0  0  0  0  0  0  0  0  0  0  0  0
   28.9125  -21.2998  -16.6835 C   0  0  0  0  0  0  0  0  0  0  0  0
   27.5338  -21.6109  -16.1695 C   0  0  2  0  0  0  0  0  0  0  0  0
   26.6702  -21.9135  -17.2660 N   0  0  0  0  0  0  0  0  0  0  0  0
   27.0285  -20.4942  -15.3266 C   0  0  0  0  0  0  0  0  0  0  0  0
   27.0573  -19.3165  -15.7689 O   0  0  0  0  0  0  0  0  0  0  0  0
   22.5741  -18.2861  -14.7918 C   0  0  0  0  0  0  0  0  0  0  0  0
   23.0035  -19.2493  -13.7052 C   0  0  0  0  0  0  0  0  0  0  0  0
   24.1297  -20.0825  -14.2564 C   0  0  2  0  0  0  0  0  0  0  0  0
   23.7867  -21.5448  -14.1102 C   0  0  0  0  0  0  0  0  0  0  0  0
   25.4421  -19.8370  -13.5516 C   0  0  2  0  0  0  0  0  0  0  0  0
   26.5054  -20.6899  -14.0243 N   0  0  0  0  0  0  0  0  0  0  0  0
   25.3067  -20.0895  -12.0739 C   0  0  0  0  0  0  0  0  0  0  0  0
   24.4385  -19.5044  -11.3712 O   0  0  0  0  0  0  0  0  0  0  0  0
   29.8299  -19.8514   -7.2832 C   0  0  0  0  0  0  0  0  0  0  0  0
   28.2716  -18.9638   -7.2964 S   0  0  0  0  0  0  0  0  0  0  0  0
   26.9610  -20.0385   -7.8755 C   0  0  0  0  0  0  0  0  0  0  0  0
   27.0042  -20.3208   -9.3191 C   0  0  0  0  0  0  0  0  0  0  0  0
   26.0223  -21.2450   -9.9300 C   0  0  2  0  0  0  0  0  0  0  0  0
   26.1552  -21.0027  -11.4014 N   0  0  0  0  0  0  0  0  0  0  0  0
   24.6323  -21.1634   -9.5360 C   0  0  0  0  0  0  0  0  0  0  0  0
   24.1646  -21.6914   -8.3529 O   0  0  0  0  0  0  0  0  0  0  0  0
   23.7380  -20.5989  -10.2624 O   0  0  0  0  0  0  0  0  0  0  0  0
  1  2  1  0
  3  2  1  0
  4  5  1  0
  4  3  1  0
  5  6  1  6
  7  8  2  0
  7  5  1  0
  9 10  1  0
 11 13  1  0
 11 10  1  0
 11 12  1  1
 13 14  1  6
 14  7  1  0
 15 22  1  0
 15 13  1  0
 16 15  2  0
 18 17  1  0
 19 20  1  0
 19 18  1  0
 21 20  1  1
 21 22  1  0
 23 21  1  0
 24 23  1  0
 25 23  2  0
M  END
$$$$
