MIM.pdb
     RDKit          3D

 25 24  0  0  1  0  0  0  0  0999 V2000
    9.5311   -8.6171   -6.3933 C   0  0  0  0  0  0  0  0  0  0  0  0
    8.0686   -7.8403   -5.7007 S   0  0  0  0  0  0  0  0  0  0  0  0
    8.2929   -7.5159   -3.9323 C   0  0  0  0  0  0  0  0  0  0  0  0
    8.9268   -6.1690   -3.7408 C   0  0  0  0  0  0  0  0  0  0  0  0
    9.2609   -6.0015   -2.2840 C   0  0  2  0  0  0  0  0  0  0  0  0
    8.0648   -5.7588   -1.5425 N   0  0  0  0  0  0  0  0  0  0  0  0
   10.2801   -4.9330   -2.1036 C   0  0  0  0  0  0  0  0  0  0  0  0
    9.9197   -3.7811   -1.7480 O   0  0  0  0  0  0  0  0  0  0  0  0
   14.4323   -5.1276    1.0639 C   0  0  0  0  0  0  0  0  0  0  0  0
   13.2193   -4.8022    0.2180 C   0  0  0  0  0  0  0  0  0  0  0  0
   13.7110   -4.4210   -1.1528 C   0  0  2  0  0  0  0  0  0  0  0  0
   14.6280   -3.2277   -1.0403 C   0  0  0  0  0  0  0  0  0  0  0  0
   12.5915   -4.0631   -2.1004 C   0  0  2  0  0  0  0  0  0  0  0  0
   11.6647   -5.1477   -2.3153 N   0  0  0  0  0  0  0  0  0  0  0  0
   13.1389   -3.6853   -3.4507 C   0  0  0  0  0  0  0  0  0  0  0  0
   13.3200   -4.5374   -4.3623 O   0  0  0  0  0  0  0  0  0  0  0  0
   12.3877   -4.3245   -9.4041 C   0  0  0  0  0  0  0  0  0  0  0  0
   11.6339   -3.0319   -8.4155 S   0  0  0  0  0  0  0  0  0  0  0  0
   12.8895   -2.1781   -7.4656 C   0  0  0  0  0  0  0  0  0  0  0  0
   12.8615   -2.4728   -6.0241 C   0  0  0  0  0  0  0  0  0  0  0  0
   13.9264   -1.9567   -5.1346 C   0  0  2  0  0  0  0  0  0  0  0  0
   13.4779   -2.3453   -3.7601 N   0  0  0  0  0  0  0  0  0  0  0  0
   14.2584   -0.5486   -5.1699 C   0  0  0  0  0  0  0  0  0  0  0  0
   15.0527    0.0016   -6.1516 O   0  0  0  0  0  0  0  0  0  0  0  0
   13.8412    0.2842   -4.2877 O   0  0  0  0  0  0  0  0  0  0  0  0
  1  2  1  0
  3  2  1  0
  4  5  1  0
  4  3  1  0
  5  6  1  1
  7  8  2  0
  7  5  1  0
  9 10  1  0
 11 13  1  0
 11 10  1  0
 11 12  1  1
 13 14  1  6
 14  7  1  0
 15 22  1  0
 15 13  1  0
 16 15  2  0
 18 17  1  0
 19 20  1  0
 19 18  1  0
 21 20  1  6
 21 22  1  0
 23 21  1  0
 24 23  1  0
 25 23  2  0
M  END
$$$$
