MIM.pdb
     RDKit          3D

 25 24  0  0  1  0  0  0  0  0999 V2000
   13.4054  -29.5013   -5.1317 C   0  0  0  0  0  0  0  0  0  0  0  0
   15.1213  -29.6900   -5.6237 S   0  0  0  0  0  0  0  0  0  0  0  0
   15.8612  -28.0786   -5.9961 C   0  0  0  0  0  0  0  0  0  0  0  0
   15.7387  -27.1769   -4.8025 C   0  0  0  0  0  0  0  0  0  0  0  0
   16.2648  -25.8180   -5.1749 C   0  0  2  0  0  0  0  0  0  0  0  0
   17.6695  -25.8982   -5.4195 N   0  0  0  0  0  0  0  0  0  0  0  0
   15.9160  -24.8204   -4.1280 C   0  0  0  0  0  0  0  0  0  0  0  0
   16.7872  -24.4607   -3.2943 O   0  0  0  0  0  0  0  0  0  0  0  0
   12.3390  -20.7628   -5.0364 C   0  0  0  0  0  0  0  0  0  0  0  0
   13.6147  -21.4426   -4.5855 C   0  0  0  0  0  0  0  0  0  0  0  0
   13.2810  -22.2796   -3.3796 C   0  0  2  0  0  0  0  0  0  0  0  0
   13.0295  -21.3750   -2.1981 C   0  0  0  0  0  0  0  0  0  0  0  0
   14.3849  -23.2399   -3.0069 C   0  0  2  0  0  0  0  0  0  0  0  0
   14.6276  -24.2411   -4.0169 N   0  0  0  0  0  0  0  0  0  0  0  0
   14.0432  -23.9756   -1.7390 C   0  0  0  0  0  0  0  0  0  0  0  0
   13.1452  -24.8599   -1.6989 O   0  0  0  0  0  0  0  0  0  0  0  0
   17.9284  -27.1183    1.0437 C   0  0  0  0  0  0  0  0  0  0  0  0
   17.0999  -26.8679    2.6144 S   0  0  0  0  0  0  0  0  0  0  0  0
   15.5889  -25.9386    2.3672 C   0  0  0  0  0  0  0  0  0  0  0  0
   15.5355  -25.1985    1.0964 C   0  0  0  0  0  0  0  0  0  0  0  0
   14.3397  -24.3992    0.7463 C   0  0  2  0  0  0  0  0  0  0  0  0
   14.7203  -23.7053   -0.5246 N   0  0  0  0  0  0  0  0  0  0  0  0
   13.8234  -23.4415    1.7004 C   0  0  0  0  0  0  0  0  0  0  0  0
   13.0562  -23.8127    2.7825 O   0  0  0  0  0  0  0  0  0  0  0  0
   14.0392  -22.1806    1.6028 O   0  0  0  0  0  0  0  0  0  0  0  0
  1  2  1  0
  3  2  1  0
  4  5  1  0
  4  3  1  0
  5  6  1  1
  7  8  2  0
  7  5  1  0
  9 10  1  0
 11 13  1  0
 11 10  1  0
 11 12  1  1
 13 14  1  6
 14  7  1  0
 15 22  1  0
 15 13  1  0
 16 15  2  0
 18 17  1  0
 19 20  1  0
 19 18  1  0
 21 20  1  1
 21 22  1  0
 23 21  1  0
 24 23  1  0
 25 23  2  0
M  END
$$$$
