FIV.pdb
     RDKit          3D

 27 27  0  0  1  0  0  0  0  0999 V2000
   28.1284  -18.7642  -16.7604 N   0  0  0  0  0  0  0  0  0  0  0  0
   27.5877  -18.2142  -15.5330 C   0  0  1  0  0  0  0  0  0  0  0  0
   26.3331  -17.4425  -15.9217 C   0  0  0  0  0  0  0  0  0  0  0  0
   26.7412  -16.1338  -16.4520 C   0  0  0  0  0  0  0  0  0  0  0  0
   27.4842  -15.2771  -15.6764 C   0  0  0  0  0  0  0  0  0  0  0  0
   27.8607  -14.0598  -16.1769 C   0  0  0  0  0  0  0  0  0  0  0  0
   27.4925  -13.6973  -17.4592 C   0  0  0  0  0  0  0  0  0  0  0  0
   26.7422  -14.5540  -18.2520 C   0  0  0  0  0  0  0  0  0  0  0  0
   26.3768  -15.7687  -17.7282 C   0  0  0  0  0  0  0  0  0  0  0  0
   27.1378  -19.3496  -14.6929 C   0  0  0  0  0  0  0  0  0  0  0  0
   26.3646  -20.2151  -15.1449 O   0  0  0  0  0  0  0  0  0  0  0  0
   30.4984  -21.0964  -10.9342 C   0  0  0  0  0  0  0  0  0  0  0  0
   29.3919  -21.0681  -11.9355 C   0  0  0  0  0  0  0  0  0  0  0  0
   28.0412  -20.7499  -11.3595 C   0  0  2  0  0  0  0  0  0  0  0  0
   27.5906  -21.7448  -10.3382 C   0  0  0  0  0  0  0  0  0  0  0  0
   27.0379  -20.5671  -12.4778 C   0  0  2  0  0  0  0  0  0  0  0  0
   27.5526  -19.5216  -13.3387 N   0  0  0  0  0  0  0  0  0  0  0  0
   25.6865  -20.2446  -11.9560 C   0  0  0  0  0  0  0  0  0  0  0  0
   25.5357  -19.1388  -11.3738 O   0  0  0  0  0  0  0  0  0  0  0  0
   22.0989  -22.3578  -12.9981 C   0  0  0  0  0  0  0  0  0  0  0  0
   22.2193  -20.8819  -12.6862 C   0  0  2  0  0  0  0  0  0  0  0  0
   22.6036  -20.1008  -13.9270 C   0  0  0  0  0  0  0  0  0  0  0  0
   23.2593  -20.6230  -11.6205 C   0  0  2  0  0  0  0  0  0  0  0  0
   24.5655  -21.0877  -12.0671 N   0  0  0  0  0  0  0  0  0  0  0  0
   22.8515  -21.3848  -10.4016 C   0  0  0  0  0  0  0  0  0  0  0  0
   23.5029  -22.3878  -10.0118 O   0  0  0  0  0  0  0  0  0  0  0  0
   21.7428  -21.0151   -9.6572 O   0  0  0  0  0  0  0  0  0  0  0  0
  2  1  1  6
  3  2  1  0
  4  5  2  0
  4  3  1  0
  6  5  1  0
  7  6  2  0
  8  7  1  0
  8  9  2  0
  9  4  1  0
 10 17  1  0
 10  2  1  0
 11 10  2  0
 13 14  1  0
 13 12  1  0
 14 16  1  0
 14 15  1  1
 16 17  1  6
 18 16  1  0
 19 18  2  0
 21 20  1  6
 21 23  1  0
 22 21  1  0
 23 25  1  0
 23 24  1  6
 24 18  1  0
 25 27  1  0
 26 25  2  0
M  END
$$$$
