FIV.pdb
     RDKit          3D

 27 27  0  0  1  0  0  0  0  0999 V2000
   25.3671  -18.0112  -16.2066 N   0  0  0  0  0  0  0  0  0  0  0  0
   26.2955  -18.3498  -15.1460 C   0  0  1  0  0  0  0  0  0  0  0  0
   27.0287  -17.0634  -14.7872 C   0  0  0  0  0  0  0  0  0  0  0  0
   28.0094  -16.7802  -15.8447 C   0  0  0  0  0  0  0  0  0  0  0  0
   29.0686  -17.6312  -16.0484 C   0  0  0  0  0  0  0  0  0  0  0  0
   29.9782  -17.3610  -17.0351 C   0  0  0  0  0  0  0  0  0  0  0  0
   29.8280  -16.2344  -17.8222 C   0  0  0  0  0  0  0  0  0  0  0  0
   28.7624  -15.3675  -17.6261 C   0  0  0  0  0  0  0  0  0  0  0  0
   27.8638  -15.6596  -16.6308 C   0  0  0  0  0  0  0  0  0  0  0  0
   25.4976  -18.7236  -13.9540 C   0  0  0  0  0  0  0  0  0  0  0  0
   24.5424  -18.0199  -13.5751 O   0  0  0  0  0  0  0  0  0  0  0  0
   22.3587  -21.9088  -14.4739 C   0  0  0  0  0  0  0  0  0  0  0  0
   23.2175  -20.8931  -13.7966 C   0  0  0  0  0  0  0  0  0  0  0  0
   24.0294  -21.4303  -12.6522 C   0  0  2  0  0  0  0  0  0  0  0  0
   23.1952  -22.0887  -11.6003 C   0  0  0  0  0  0  0  0  0  0  0  0
   24.9145  -20.3365  -12.0946 C   0  0  2  0  0  0  0  0  0  0  0  0
   25.7663  -19.8905  -13.1784 N   0  0  0  0  0  0  0  0  0  0  0  0
   25.6993  -20.8072  -10.9263 C   0  0  0  0  0  0  0  0  0  0  0  0
   26.4170  -21.8297  -11.0806 O   0  0  0  0  0  0  0  0  0  0  0  0
   26.3734  -18.6265   -7.3330 C   0  0  0  0  0  0  0  0  0  0  0  0
   27.2253  -19.7823   -7.8108 C   0  0  2  0  0  0  0  0  0  0  0  0
   28.3197  -19.2947   -8.7391 C   0  0  0  0  0  0  0  0  0  0  0  0
   26.4004  -20.8120   -8.5482 C   0  0  2  0  0  0  0  0  0  0  0  0
   25.6961  -20.1907   -9.6615 N   0  0  0  0  0  0  0  0  0  0  0  0
   25.4069  -21.3674   -7.5803 C   0  0  0  0  0  0  0  0  0  0  0  0
   24.1801  -21.1110   -7.6865 O   0  0  0  0  0  0  0  0  0  0  0  0
   25.7998  -22.1840   -6.5320 O   0  0  0  0  0  0  0  0  0  0  0  0
  2  1  1  6
  3  2  1  0
  4  5  2  0
  4  3  1  0
  6  5  1  0
  7  6  2  0
  8  7  1  0
  8  9  2  0
  9  4  1  0
 10 17  1  0
 10  2  1  0
 11 10  2  0
 13 14  1  0
 13 12  1  0
 14 16  1  0
 14 15  1  1
 16 17  1  6
 18 16  1  0
 19 18  2  0
 21 20  1  6
 21 23  1  0
 22 21  1  0
 23 25  1  0
 23 24  1  6
 24 18  1  0
 25 27  1  0
 26 25  2  0
M  END
$$$$
