FIV.pdb
     RDKit          3D

 27 27  0  0  1  0  0  0  0  0999 V2000
   27.3986  -18.8107  -17.3021 N   0  0  0  0  0  0  0  0  0  0  0  0
   26.7878  -18.2806  -16.0990 C   0  0  1  0  0  0  0  0  0  0  0  0
   25.7400  -17.2731  -16.5548 C   0  0  0  0  0  0  0  0  0  0  0  0
   26.4298  -16.0399  -16.9596 C   0  0  0  0  0  0  0  0  0  0  0  0
   26.5265  -15.7090  -18.2895 C   0  0  0  0  0  0  0  0  0  0  0  0
   27.1704  -14.5589  -18.6592 C   0  0  0  0  0  0  0  0  0  0  0  0
   27.7205  -13.7356  -17.6943 C   0  0  0  0  0  0  0  0  0  0  0  0
   27.6294  -14.0593  -16.3480 C   0  0  0  0  0  0  0  0  0  0  0  0
   26.9791  -15.2173  -16.0023 C   0  0  0  0  0  0  0  0  0  0  0  0
   26.0488  -19.3874  -15.4463 C   0  0  0  0  0  0  0  0  0  0  0  0
   25.5592  -20.3154  -16.1174 O   0  0  0  0  0  0  0  0  0  0  0  0
   28.1870  -21.3692  -11.1928 C   0  0  0  0  0  0  0  0  0  0  0  0
   27.3358  -21.1560  -12.4003 C   0  0  0  0  0  0  0  0  0  0  0  0
   25.8974  -20.8440  -12.0987 C   0  0  2  0  0  0  0  0  0  0  0  0
   25.2292  -21.8986  -11.2758 C   0  0  0  0  0  0  0  0  0  0  0  0
   25.1563  -20.5518  -13.3856 C   0  0  2  0  0  0  0  0  0  0  0  0
   25.8538  -19.4605  -14.0348 N   0  0  0  0  0  0  0  0  0  0  0  0
   23.7288  -20.2313  -13.1366 C   0  0  0  0  0  0  0  0  0  0  0  0
   23.4738  -19.2633  -12.3735 O   0  0  0  0  0  0  0  0  0  0  0  0
   20.4974  -21.6426  -15.5349 C   0  0  0  0  0  0  0  0  0  0  0  0
   20.5599  -20.3234  -14.7960 C   0  0  2  0  0  0  0  0  0  0  0  0
   21.2764  -19.2769  -15.6259 C   0  0  0  0  0  0  0  0  0  0  0  0
   21.2835  -20.4604  -13.4761 C   0  0  2  0  0  0  0  0  0  0  0  0
   22.6440  -20.9333  -13.6935 N   0  0  0  0  0  0  0  0  0  0  0  0
   20.5354  -21.4609  -12.6564 C   0  0  0  0  0  0  0  0  0  0  0  0
   20.9356  -22.6488  -12.5533 O   0  0  0  0  0  0  0  0  0  0  0  0
   19.3754  -21.1172  -11.9809 O   0  0  0  0  0  0  0  0  0  0  0  0
  2  1  1  6
  3  2  1  0
  4  5  2  0
  4  3  1  0
  6  5  1  0
  7  6  2  0
  8  7  1  0
  8  9  2  0
  9  4  1  0
 10 17  1  0
 10  2  1  0
 11 10  2  0
 13 14  1  0
 13 12  1  0
 14 16  1  0
 14 15  1  6
 16 17  1  1
 18 16  1  0
 19 18  2  0
 21 20  1  6
 21 23  1  0
 22 21  1  0
 23 25  1  0
 23 24  1  6
 24 18  1  0
 25 27  1  0
 26 25  2  0
M  END
$$$$
