FIV.pdb
     RDKit          3D

 27 27  0  0  1  0  0  0  0  0999 V2000
   22.9851  -11.3137  -16.0494 N   0  0  0  0  0  0  0  0  0  0  0  0
   21.7468  -10.7168  -16.5095 C   0  0  1  0  0  0  0  0  0  0  0  0
   20.6612  -11.7668  -16.3098 C   0  0  0  0  0  0  0  0  0  0  0  0
   20.6520  -12.6512  -17.4837 C   0  0  0  0  0  0  0  0  0  0  0  0
   21.2283  -13.8964  -17.4132 C   0  0  0  0  0  0  0  0  0  0  0  0
   21.2161  -14.7146  -18.5106 C   0  0  0  0  0  0  0  0  0  0  0  0
   20.6246  -14.2858  -19.6843 C   0  0  0  0  0  0  0  0  0  0  0  0
   20.0393  -13.0305  -19.7677 C   0  0  0  0  0  0  0  0  0  0  0  0
   20.0642  -12.2284  -18.6544 C   0  0  0  0  0  0  0  0  0  0  0  0
   21.4209   -9.5978  -15.5937 C   0  0  0  0  0  0  0  0  0  0  0  0
   21.6014   -9.7006  -14.3657 O   0  0  0  0  0  0  0  0  0  0  0  0
   22.5260   -4.1381  -14.1728 C   0  0  0  0  0  0  0  0  0  0  0  0
   21.4219   -5.1381  -14.2671 C   0  0  0  0  0  0  0  0  0  0  0  0
   21.7195   -6.3091  -15.1602 C   0  0  2  0  0  0  0  0  0  0  0  0
   22.1324   -5.9041  -16.5391 C   0  0  0  0  0  0  0  0  0  0  0  0
   20.5456   -7.2644  -15.1600 C   0  0  2  0  0  0  0  0  0  0  0  0
   20.8897   -8.3547  -16.0499 N   0  0  0  0  0  0  0  0  0  0  0  0
   19.2879   -6.5892  -15.5661 C   0  0  0  0  0  0  0  0  0  0  0  0
   19.2430   -6.0866  -16.7193 O   0  0  0  0  0  0  0  0  0  0  0  0
   15.6747   -7.4021  -13.7374 C   0  0  0  0  0  0  0  0  0  0  0  0
   15.7759   -6.8689  -15.1501 C   0  0  2  0  0  0  0  0  0  0  0  0
   15.9831   -8.0002  -16.1371 C   0  0  0  0  0  0  0  0  0  0  0  0
   16.9231   -5.8956  -15.2950 C   0  0  2  0  0  0  0  0  0  0  0  0
   18.1457   -6.4728  -14.7529 N   0  0  0  0  0  0  0  0  0  0  0  0
   16.5691   -4.6669  -14.5221 C   0  0  0  0  0  0  0  0  0  0  0  0
   17.0860   -4.4315  -13.3998 O   0  0  0  0  0  0  0  0  0  0  0  0
   15.6599   -3.7433  -15.0123 O   0  0  0  0  0  0  0  0  0  0  0  0
  2  1  1  1
  3  2  1  0
  4  5  2  0
  4  3  1  0
  6  5  1  0
  7  6  2  0
  8  7  1  0
  8  9  2  0
  9  4  1  0
 10 17  1  0
 10  2  1  0
 11 10  2  0
 13 14  1  0
 13 12  1  0
 14 16  1  0
 14 15  1  6
 16 17  1  6
 18 16  1  0
 19 18  2  0
 21 20  1  1
 21 23  1  0
 22 21  1  0
 23 25  1  0
 23 24  1  1
 24 18  1  0
 25 27  1  0
 26 25  2  0
M  END
$$$$
