FIV.pdb
     RDKit          3D

 27 27  0  0  1  0  0  0  0  0999 V2000
   28.1782  -20.5350  -14.6866 N   0  0  0  0  0  0  0  0  0  0  0  0
   27.3702  -19.6906  -13.8289 C   0  0  1  0  0  0  0  0  0  0  0  0
   26.4276  -18.9209  -14.7454 C   0  0  0  0  0  0  0  0  0  0  0  0
   27.2033  -17.8836  -15.4402 C   0  0  0  0  0  0  0  0  0  0  0  0
   27.6367  -16.7732  -14.7569 C   0  0  0  0  0  0  0  0  0  0  0  0
   28.3586  -15.8112  -15.4105 C   0  0  0  0  0  0  0  0  0  0  0  0
   28.6487  -15.9600  -16.7540 C   0  0  0  0  0  0  0  0  0  0  0  0
   28.2165  -17.0770  -17.4548 C   0  0  0  0  0  0  0  0  0  0  0  0
   27.4945  -18.0276  -16.7778 C   0  0  0  0  0  0  0  0  0  0  0  0
   26.5183  -20.5769  -13.0008 C   0  0  0  0  0  0  0  0  0  0  0  0
   26.2296  -21.7273  -13.3809 O   0  0  0  0  0  0  0  0  0  0  0  0
   26.7109  -20.2520   -7.7135 C   0  0  0  0  0  0  0  0  0  0  0  0
   26.4363  -20.8029   -9.0733 C   0  0  0  0  0  0  0  0  0  0  0  0
   25.0473  -20.5386   -9.5814 C   0  0  2  0  0  0  0  0  0  0  0  0
   23.9861  -21.1832   -8.7482 C   0  0  0  0  0  0  0  0  0  0  0  0
   24.9549  -20.9226  -11.0425 C   0  0  2  0  0  0  0  0  0  0  0  0
   25.9841  -20.1782  -11.7394 N   0  0  0  0  0  0  0  0  0  0  0  0
   23.6036  -20.6572  -11.5957 C   0  0  0  0  0  0  0  0  0  0  0  0
   23.2645  -19.4552  -11.7530 O   0  0  0  0  0  0  0  0  0  0  0  0
   22.3392  -21.4658  -14.9049 C   0  0  0  0  0  0  0  0  0  0  0  0
   21.2894  -21.9587  -13.9327 C   0  0  2  0  0  0  0  0  0  0  0  0
   19.8962  -21.6932  -14.4670 C   0  0  0  0  0  0  0  0  0  0  0  0
   21.4190  -21.2833  -12.5867 C   0  0  2  0  0  0  0  0  0  0  0  0
   22.6782  -21.6541  -11.9555 N   0  0  0  0  0  0  0  0  0  0  0  0
   20.2817  -21.7521  -11.7385 C   0  0  0  0  0  0  0  0  0  0  0  0
   19.1417  -21.2284  -11.8297 O   0  0  0  0  0  0  0  0  0  0  0  0
   20.4408  -22.7791  -10.8221 O   0  0  0  0  0  0  0  0  0  0  0  0
  2  1  1  6
  3  2  1  0
  4  5  2  0
  4  3  1  0
  6  5  1  0
  7  6  2  0
  8  7  1  0
  8  9  2  0
  9  4  1  0
 10 17  1  0
 10  2  1  0
 11 10  2  0
 13 14  1  0
 13 12  1  0
 14 16  1  0
 14 15  1  1
 16 17  1  6
 18 16  1  0
 19 18  2  0
 21 20  1  6
 21 23  1  0
 22 21  1  0
 23 25  1  0
 23 24  1  1
 24 18  1  0
 25 27  1  0
 26 25  2  0
M  END
$$$$
