FIV.pdb
     RDKit          3D

 27 27  0  0  1  0  0  0  0  0999 V2000
   28.6760  -20.0354  -14.8736 N   0  0  0  0  0  0  0  0  0  0  0  0
   27.6383  -19.2892  -14.1896 C   0  0  1  0  0  0  0  0  0  0  0  0
   26.7876  -18.6398  -15.2738 C   0  0  0  0  0  0  0  0  0  0  0  0
   27.4388  -17.3876  -15.6841 C   0  0  0  0  0  0  0  0  0  0  0  0
   28.0362  -17.2934  -16.9178 C   0  0  0  0  0  0  0  0  0  0  0  0
   28.6408  -16.1240  -17.2931 C   0  0  0  0  0  0  0  0  0  0  0  0
   28.6482  -15.0434  -16.4308 C   0  0  0  0  0  0  0  0  0  0  0  0
   28.0482  -15.1265  -15.1824 C   0  0  0  0  0  0  0  0  0  0  0  0
   27.4486  -16.3092  -14.8287 C   0  0  0  0  0  0  0  0  0  0  0  0
   26.7632  -20.2670  -13.5001 C   0  0  0  0  0  0  0  0  0  0  0  0
   26.5271  -21.3821  -14.0021 O   0  0  0  0  0  0  0  0  0  0  0  0
   26.7038  -20.3227   -8.1671 C   0  0  0  0  0  0  0  0  0  0  0  0
   26.5397  -20.7966   -9.5730 C   0  0  0  0  0  0  0  0  0  0  0  0
   25.1698  -20.5720  -10.1479 C   0  0  2  0  0  0  0  0  0  0  0  0
   24.0969  -21.3062   -9.4093 C   0  0  0  0  0  0  0  0  0  0  0  0
   25.1781  -20.8861  -11.6284 C   0  0  2  0  0  0  0  0  0  0  0  0
   26.1467  -20.0000  -12.2415 N   0  0  0  0  0  0  0  0  0  0  0  0
   23.8290  -20.7384  -12.2288 C   0  0  0  0  0  0  0  0  0  0  0  0
   23.3251  -19.5851  -12.2521 O   0  0  0  0  0  0  0  0  0  0  0  0
   22.5826  -22.5188  -15.5349 C   0  0  0  0  0  0  0  0  0  0  0  0
   21.5010  -22.5330  -14.4765 C   0  0  2  0  0  0  0  0  0  0  0  0
   20.1507  -22.2106  -15.0848 C   0  0  0  0  0  0  0  0  0  0  0  0
   21.7818  -21.5281  -13.3829 C   0  0  2  0  0  0  0  0  0  0  0  0
   23.0768  -21.7959  -12.7723 N   0  0  0  0  0  0  0  0  0  0  0  0
   20.7082  -21.6737  -12.3539 C   0  0  0  0  0  0  0  0  0  0  0  0
   20.7263  -22.6172  -11.5224 O   0  0  0  0  0  0  0  0  0  0  0  0
   19.6552  -20.7762  -12.2781 O   0  0  0  0  0  0  0  0  0  0  0  0
  2  1  1  6
  3  2  1  0
  4  5  2  0
  4  3  1  0
  6  5  1  0
  7  6  2  0
  8  7  1  0
  8  9  2  0
  9  4  1  0
 10 17  1  0
 10  2  1  0
 11 10  2  0
 13 14  1  0
 13 12  1  0
 14 16  1  0
 14 15  1  1
 16 17  1  6
 18 16  1  0
 19 18  2  0
 21 20  1  6
 21 23  1  0
 22 21  1  0
 23 25  1  0
 23 24  1  1
 24 18  1  0
 25 27  1  0
 26 25  2  0
M  END
$$$$
