FIV.pdb
     RDKit          3D

 27 27  0  0  1  0  0  0  0  0999 V2000
   22.8865  -21.8724  -14.9118 N   0  0  0  0  0  0  0  0  0  0  0  0
   23.4927  -20.6807  -14.3515 C   0  0  1  0  0  0  0  0  0  0  0  0
   22.3726  -19.9076  -13.6672 C   0  0  0  0  0  0  0  0  0  0  0  0
   21.6218  -19.1739  -14.6961 C   0  0  0  0  0  0  0  0  0  0  0  0
   20.3504  -19.5693  -15.0349 C   0  0  0  0  0  0  0  0  0  0  0  0
   19.6571  -18.8812  -15.9940 C   0  0  0  0  0  0  0  0  0  0  0  0
   20.2380  -17.7925  -16.6175 C   0  0  0  0  0  0  0  0  0  0  0  0
   21.5213  -17.3838  -16.2838 C   0  0  0  0  0  0  0  0  0  0  0  0
   22.1962  -18.0894  -15.3194 C   0  0  0  0  0  0  0  0  0  0  0  0
   24.4205  -21.1115  -13.2788 C   0  0  0  0  0  0  0  0  0  0  0  0
   24.1035  -22.0133  -12.4804 O   0  0  0  0  0  0  0  0  0  0  0  0
   29.5574  -21.3686  -14.4481 C   0  0  0  0  0  0  0  0  0  0  0  0
   28.2233  -21.5466  -13.8028 C   0  0  0  0  0  0  0  0  0  0  0  0
   28.0219  -20.7299  -12.5578 C   0  0  2  0  0  0  0  0  0  0  0  0
   29.0652  -20.9819  -11.5168 C   0  0  0  0  0  0  0  0  0  0  0  0
   26.6159  -20.9316  -12.0351 C   0  0  2  0  0  0  0  0  0  0  0  0
   25.7115  -20.5328  -13.0944 N   0  0  0  0  0  0  0  0  0  0  0  0
   26.3803  -20.1686  -10.7842 C   0  0  0  0  0  0  0  0  0  0  0  0
   26.2131  -18.9250  -10.8834 O   0  0  0  0  0  0  0  0  0  0  0  0
   25.0944  -21.7915   -7.0783 C   0  0  0  0  0  0  0  0  0  0  0  0
   24.9207  -20.3638   -7.5490 C   0  0  2  0  0  0  0  0  0  0  0  0
   23.6938  -20.2344   -8.4293 C   0  0  0  0  0  0  0  0  0  0  0  0
   26.1215  -19.8885   -8.3344 C   0  0  2  0  0  0  0  0  0  0  0  0
   26.3311  -20.7384   -9.4987 N   0  0  0  0  0  0  0  0  0  0  0  0
   27.3104  -19.9782   -7.4339 C   0  0  0  0  0  0  0  0  0  0  0  0
   28.1494  -20.9077   -7.5530 O   0  0  0  0  0  0  0  0  0  0  0  0
   27.5320  -19.0423   -6.4364 O   0  0  0  0  0  0  0  0  0  0  0  0
  2  1  1  1
  3  2  1  0
  4  5  2  0
  4  3  1  0
  6  5  1  0
  7  6  2  0
  8  7  1  0
  8  9  2  0
  9  4  1  0
 10 17  1  0
 10  2  1  0
 11 10  2  0
 13 14  1  0
 13 12  1  0
 14 16  1  0
 14 15  1  1
 16 17  1  6
 18 16  1  0
 19 18  2  0
 21 20  1  6
 21 23  1  0
 22 21  1  0
 23 25  1  0
 23 24  1  6
 24 18  1  0
 25 27  1  0
 26 25  2  0
M  END
$$$$
