FIV.pdb
     RDKit          3D

 27 27  0  0  1  0  0  0  0  0999 V2000
   20.4342  -20.8130  -11.5016 N   0  0  0  0  0  0  0  0  0  0  0  0
   21.0970  -21.4447  -12.6255 C   0  0  1  0  0  0  0  0  0  0  0  0
   20.1990  -21.2235  -13.8361 C   0  0  0  0  0  0  0  0  0  0  0  0
   19.0726  -22.1642  -13.7541 C   0  0  0  0  0  0  0  0  0  0  0  0
   17.7874  -21.6923  -13.6392 C   0  0  0  0  0  0  0  0  0  0  0  0
   16.7433  -22.5744  -13.5634 C   0  0  0  0  0  0  0  0  0  0  0  0
   16.9853  -23.9350  -13.6025 C   0  0  0  0  0  0  0  0  0  0  0  0
   18.2789  -24.4235  -13.7183 C   0  0  0  0  0  0  0  0  0  0  0  0
   19.3090  -23.5197  -13.7927 C   0  0  0  0  0  0  0  0  0  0  0  0
   22.3475  -20.6936  -12.8886 C   0  0  0  0  0  0  0  0  0  0  0  0
   22.4016  -19.4602  -12.7242 O   0  0  0  0  0  0  0  0  0  0  0  0
   26.3543  -21.4927  -10.2319 C   0  0  0  0  0  0  0  0  0  0  0  0
   25.3680  -21.0155  -11.2456 C   0  0  0  0  0  0  0  0  0  0  0  0
   25.8251  -21.1548  -12.6700 C   0  0  2  0  0  0  0  0  0  0  0  0
   27.1788  -20.5673  -12.9110 C   0  0  0  0  0  0  0  0  0  0  0  0
   24.7723  -20.5954  -13.6025 C   0  0  2  0  0  0  0  0  0  0  0  0
   23.5469  -21.3219  -13.3383 N   0  0  0  0  0  0  0  0  0  0  0  0
   25.1864  -20.6992  -15.0238 C   0  0  0  0  0  0  0  0  0  0  0  0
   25.4469  -21.8462  -15.4722 O   0  0  0  0  0  0  0  0  0  0  0  0
   24.6843  -17.5887  -17.8481 C   0  0  0  0  0  0  0  0  0  0  0  0
   24.7022  -19.0612  -18.1969 C   0  0  2  0  0  0  0  0  0  0  0  0
   23.3171  -19.6616  -18.0614 C   0  0  0  0  0  0  0  0  0  0  0  0
   25.6442  -19.8323  -17.3010 C   0  0  2  0  0  0  0  0  0  0  0  0
   25.3075  -19.6066  -15.9020 N   0  0  0  0  0  0  0  0  0  0  0  0
   27.0264  -19.3306  -17.5662 C   0  0  0  0  0  0  0  0  0  0  0  0
   27.5379  -18.4254  -16.8584 O   0  0  0  0  0  0  0  0  0  0  0  0
   27.7940  -19.8433  -18.5996 O   0  0  0  0  0  0  0  0  0  0  0  0
  2  1  1  1
  3  2  1  0
  4  5  2  0
  4  3  1  0
  6  5  1  0
  7  6  2  0
  8  7  1  0
  8  9  2  0
  9  4  1  0
 10 17  1  0
 10  2  1  0
 11 10  2  0
 13 14  1  0
 13 12  1  0
 14 16  1  0
 14 15  1  1
 16 17  1  6
 18 16  1  0
 19 18  2  0
 21 20  1  1
 21 23  1  0
 22 21  1  0
 23 25  1  0
 23 24  1  1
 24 18  1  0
 25 27  1  0
 26 25  2  0
M  END
$$$$
