FIV.pdb
     RDKit          3D

 27 27  0  0  1  0  0  0  0  0999 V2000
   28.1259  -20.9440   -9.2452 N   0  0  0  0  0  0  0  0  0  0  0  0
   26.7318  -20.6695   -8.9578 C   0  0  1  0  0  0  0  0  0  0  0  0
   26.7047  -19.3847   -8.1395 C   0  0  0  0  0  0  0  0  0  0  0  0
   27.3434  -19.6493   -6.8424 C   0  0  0  0  0  0  0  0  0  0  0  0
   28.5427  -19.0558   -6.5308 C   0  0  0  0  0  0  0  0  0  0  0  0
   29.1317  -19.3069   -5.3209 C   0  0  0  0  0  0  0  0  0  0  0  0
   28.5187  -20.1556   -4.4180 C   0  0  0  0  0  0  0  0  0  0  0  0
   27.3074  -20.7608   -4.7213 C   0  0  0  0  0  0  0  0  0  0  0  0
   26.7366  -20.4936   -5.9404 C   0  0  0  0  0  0  0  0  0  0  0  0
   26.0611  -20.3617  -10.2433 C   0  0  0  0  0  0  0  0  0  0  0  0
   26.3038  -19.3052  -10.8566 O   0  0  0  0  0  0  0  0  0  0  0  0
   26.9817  -22.9150  -14.2311 C   0  0  0  0  0  0  0  0  0  0  0  0
   26.4191  -21.9453  -13.2456 C   0  0  0  0  0  0  0  0  0  0  0  0
   24.9258  -22.0108  -13.0932 C   0  0  2  0  0  0  0  0  0  0  0  0
   24.2002  -21.9430  -14.3988 C   0  0  0  0  0  0  0  0  0  0  0  0
   24.4643  -20.9532  -12.1139 C   0  0  2  0  0  0  0  0  0  0  0  0
   25.1126  -21.2379  -10.8499 N   0  0  0  0  0  0  0  0  0  0  0  0
   22.9857  -20.9282  -11.9889 C   0  0  0  0  0  0  0  0  0  0  0  0
   22.4531  -21.7605  -11.2092 O   0  0  0  0  0  0  0  0  0  0  0  0
   20.6371  -17.5755  -12.2139 C   0  0  0  0  0  0  0  0  0  0  0  0
   20.0691  -18.7843  -12.9255 C   0  0  2  0  0  0  0  0  0  0  0  0
   18.5724  -18.8815  -12.7070 C   0  0  0  0  0  0  0  0  0  0  0  0
   20.7049  -20.0655  -12.4369 C   0  0  2  0  0  0  0  0  0  0  0  0
   22.1408  -20.0406  -12.6802 N   0  0  0  0  0  0  0  0  0  0  0  0
   20.0910  -21.1915  -13.2034 C   0  0  0  0  0  0  0  0  0  0  0  0
   19.1377  -21.8601  -12.7279 O   0  0  0  0  0  0  0  0  0  0  0  0
   20.5486  -21.5399  -14.4641 O   0  0  0  0  0  0  0  0  0  0  0  0
  2  1  1  6
  3  2  1  0
  4  5  2  0
  4  3  1  0
  6  5  1  0
  7  6  2  0
  8  7  1  0
  8  9  2  0
  9  4  1  0
 10 17  1  0
 10  2  1  0
 11 10  2  0
 13 14  1  0
 13 12  1  0
 14 16  1  0
 14 15  1  6
 16 17  1  1
 18 16  1  0
 19 18  2  0
 21 20  1  1
 21 23  1  0
 22 21  1  0
 23 25  1  0
 23 24  1  6
 24 18  1  0
 25 27  1  0
 26 25  2  0
M  END
$$$$
