FIV.pdb
     RDKit          3D

 27 27  0  0  1  0  0  0  0  0999 V2000
   24.1858  -21.7895  -12.8773 N   0  0  0  0  0  0  0  0  0  0  0  0
   24.2484  -20.7066  -11.9156 C   0  0  1  0  0  0  0  0  0  0  0  0
   22.8621  -20.6019  -11.2927 C   0  0  0  0  0  0  0  0  0  0  0  0
   21.9460  -20.0405  -12.2958 C   0  0  0  0  0  0  0  0  0  0  0  0
   20.7694  -20.6851  -12.5919 C   0  0  0  0  0  0  0  0  0  0  0  0
   19.9210  -20.1565  -13.5272 C   0  0  0  0  0  0  0  0  0  0  0  0
   20.2507  -18.9775  -14.1696 C   0  0  0  0  0  0  0  0  0  0  0  0
   21.4361  -18.3174  -13.8790 C   0  0  0  0  0  0  0  0  0  0  0  0
   22.2702  -18.8669  -12.9379 C   0  0  0  0  0  0  0  0  0  0  0  0
   25.1655  -21.1247  -10.8287 C   0  0  0  0  0  0  0  0  0  0  0  0
   24.9197  -22.1275  -10.1321 O   0  0  0  0  0  0  0  0  0  0  0  0
   29.9997  -21.5124  -12.2305 C   0  0  0  0  0  0  0  0  0  0  0  0
   28.7210  -21.5991  -11.4653 C   0  0  0  0  0  0  0  0  0  0  0  0
   28.6967  -20.7852  -10.2026 C   0  0  2  0  0  0  0  0  0  0  0  0
   29.8133  -21.1220   -9.2669 C   0  0  0  0  0  0  0  0  0  0  0  0
   27.3357  -20.8942   -9.5495 C   0  0  2  0  0  0  0  0  0  0  0  0
   26.3658  -20.4198  -10.5156 N   0  0  0  0  0  0  0  0  0  0  0  0
   27.2743  -20.1320   -8.2776 C   0  0  0  0  0  0  0  0  0  0  0  0
   26.9299  -18.9229   -8.3393 O   0  0  0  0  0  0  0  0  0  0  0  0
   27.3930  -19.7843   -3.3390 C   0  0  0  0  0  0  0  0  0  0  0  0
   27.5304  -20.6447   -4.5763 C   0  0  2  0  0  0  0  0  0  0  0  0
   28.8091  -21.4569   -4.5259 C   0  0  0  0  0  0  0  0  0  0  0  0
   27.5482  -19.8080   -5.8349 C   0  0  2  0  0  0  0  0  0  0  0  0
   27.5737  -20.6667   -7.0111 N   0  0  0  0  0  0  0  0  0  0  0  0
   28.7879  -18.9746   -5.8018 C   0  0  0  0  0  0  0  0  0  0  0  0
   29.8371  -19.3438   -6.3891 O   0  0  0  0  0  0  0  0  0  0  0  0
   28.8271  -17.7666   -5.1241 O   0  0  0  0  0  0  0  0  0  0  0  0
  2  1  1  6
  3  2  1  0
  4  5  2  0
  4  3  1  0
  6  5  1  0
  7  6  2  0
  8  7  1  0
  8  9  2  0
  9  4  1  0
 10 17  1  0
 10  2  1  0
 11 10  2  0
 13 14  1  0
 13 12  1  0
 14 16  1  0
 14 15  1  1
 16 17  1  6
 18 16  1  0
 19 18  2  0
 21 20  1  1
 21 23  1  0
 22 21  1  0
 23 25  1  0
 23 24  1  6
 24 18  1  0
 25 27  1  0
 26 25  2  0
M  END
$$$$
