HDH.pdb
     RDKit          3D

 29 30  0  0  1  0  0  0  0  0999 V2000
    7.6726  -16.7553   20.1840 N   0  0  0  0  0  0  0  0  0  0  0  0
    8.7432  -16.0756   20.8443 C   0  0  1  0  0  0  0  0  0  0  0  0
    8.2205  -14.6989   21.2628 C   0  0  0  0  0  0  0  0  0  0  0  0
    7.9210  -13.8788   20.0634 C   0  0  0  0  0  0  0  0  0  0  0  0
    6.7218  -13.3740   19.6401 C   0  0  0  0  0  0  0  0  0  0  0  0
    6.8928  -12.6840   18.5023 N   0  0  0  0  0  0  0  0  0  0  0  0
    8.2138  -12.7550   18.2057 C   0  0  0  0  0  0  0  0  0  0  0  0
    8.8374  -13.4793   19.1520 N   0  0  0  0  0  0  0  0  0  0  0  0
    9.0939  -16.7851   22.1260 C   0  0  0  0  0  0  0  0  0  0  0  0
    8.2205  -17.2553   22.8782 O   0  0  0  0  0  0  0  0  0  0  0  0
   10.4444  -16.9234   22.4885 N   0  0  0  0  0  0  0  0  0  0  0  0
   10.9132  -17.6119   23.6749 C   0  0  1  0  0  0  0  0  0  0  0  0
   12.3770  -17.8820   23.5038 C   0  0  0  0  0  0  0  0  0  0  0  0
   12.9613  -18.7219   24.5768 C   0  0  0  0  0  0  0  0  0  0  0  0
   12.2983  -19.6384   25.0998 O   0  0  0  0  0  0  0  0  0  0  0  0
   10.5420  -16.9293   24.9148 C   0  0  0  0  0  0  0  0  0  0  0  0
   10.8501  -15.7256   25.1042 O   0  0  0  0  0  0  0  0  0  0  0  0
   14.2593  -18.4838   25.0018 O   0  0  0  0  0  0  0  0  0  0  0  0
    9.8216  -17.5533   25.9796 N   0  0  0  0  0  0  0  0  0  0  0  0
    9.4943  -16.8713   27.2246 C   0  0  1  0  0  0  0  0  0  0  0  0
    8.0311  -16.6640   27.3868 C   0  0  0  0  0  0  0  0  0  0  0  0
    7.5993  -15.4742   26.6285 C   0  0  0  0  0  0  0  0  0  0  0  0
    8.4940  -14.5461   26.0771 C   0  0  0  0  0  0  0  0  0  0  0  0
    7.7874  -13.5916   25.4580 N   0  0  0  0  0  0  0  0  0  0  0  0
    6.4811  -13.8622   25.5853 C   0  0  0  0  0  0  0  0  0  0  0  0
    6.3892  -15.0027   26.2951 N   0  0  0  0  0  0  0  0  0  0  0  0
   10.0593  -17.5468   28.3878 C   0  0  0  0  0  0  0  0  0  0  0  0
    9.9079  -16.9387   29.6496 O   0  0  0  0  0  0  0  0  0  0  0  0
   10.6705  -18.6226   28.3759 O   0  0  0  0  0  0  0  0  0  0  0  0
  2  1  1  1
  3  2  1  0
  4  3  1  0
  5  4  2  0
  6  7  1  0
  6  5  1  0
  7  8  2  0
  8  4  1  0
  9 10  2  0
  9  2  1  0
 11  9  1  0
 12 11  1  0
 12 13  1  6
 14 18  1  0
 14 13  1  0
 15 14  2  0
 16 12  1  0
 16 17  2  0
 19 16  1  0
 20 21  1  1
 20 19  1  0
 22 21  1  0
 22 26  1  0
 23 24  1  0
 23 22  2  0
 24 25  1  0
 25 26  2  0
 27 20  1  0
 28 27  1  0
 29 27  2  0
M  END
$$$$
