HDH.pdb
     RDKit          3D

 29 30  0  0  1  0  0  0  0  0999 V2000
    9.1804  -17.8866   15.2777 N   0  0  0  0  0  0  0  0  0  0  0  0
   10.4264  -17.7197   15.9587 C   0  0  1  0  0  0  0  0  0  0  0  0
   10.9141  -16.2965   15.6755 C   0  0  0  0  0  0  0  0  0  0  0  0
   11.5080  -16.2194   14.3182 C   0  0  0  0  0  0  0  0  0  0  0  0
   11.7467  -17.2251   13.4218 C   0  0  0  0  0  0  0  0  0  0  0  0
   12.2972  -16.7218   12.3066 N   0  0  0  0  0  0  0  0  0  0  0  0
   12.4065  -15.3848   12.5028 C   0  0  0  0  0  0  0  0  0  0  0  0
   11.9281  -15.0799   13.7222 N   0  0  0  0  0  0  0  0  0  0  0  0
   10.2150  -17.7890   17.4485 C   0  0  0  0  0  0  0  0  0  0  0  0
    9.0836  -17.6901   17.9580 O   0  0  0  0  0  0  0  0  0  0  0  0
   11.3234  -17.9705   18.2929 N   0  0  0  0  0  0  0  0  0  0  0  0
   11.2452  -18.1455   19.7298 C   0  0  1  0  0  0  0  0  0  0  0  0
   11.9518  -19.4198   20.0788 C   0  0  0  0  0  0  0  0  0  0  0  0
   11.9488  -19.7296   21.5287 C   0  0  0  0  0  0  0  0  0  0  0  0
   10.8785  -19.9343   22.1334 O   0  0  0  0  0  0  0  0  0  0  0  0
   11.6808  -16.9627   20.4731 C   0  0  0  0  0  0  0  0  0  0  0  0
   12.8086  -16.9296   21.0269 O   0  0  0  0  0  0  0  0  0  0  0  0
   13.1501  -19.7919   22.2176 O   0  0  0  0  0  0  0  0  0  0  0  0
   10.8867  -15.7846   20.6267 N   0  0  0  0  0  0  0  0  0  0  0  0
   10.3648  -15.3399   21.9121 C   0  0  1  0  0  0  0  0  0  0  0  0
    8.8789  -15.2954   21.9331 C   0  0  0  0  0  0  0  0  0  0  0  0
    8.3792  -14.4738   20.8140 C   0  0  0  0  0  0  0  0  0  0  0  0
    9.2205  -13.8398   19.8887 C   0  0  0  0  0  0  0  0  0  0  0  0
    8.4596  -13.1783   19.0071 N   0  0  0  0  0  0  0  0  0  0  0  0
    7.1694  -13.3571   19.3220 C   0  0  0  0  0  0  0  0  0  0  0  0
    7.1427  -14.1420   20.4156 N   0  0  0  0  0  0  0  0  0  0  0  0
   10.8803  -16.1353   23.0211 C   0  0  0  0  0  0  0  0  0  0  0  0
   10.5813  -15.7202   24.3337 O   0  0  0  0  0  0  0  0  0  0  0  0
   11.5680  -17.1592   22.9212 O   0  0  0  0  0  0  0  0  0  0  0  0
  2  1  1  6
  3  2  1  0
  4  3  1  0
  5  4  2  0
  6  7  1  0
  6  5  1  0
  7  8  2  0
  8  4  1  0
  9 10  2  0
  9  2  1  0
 11  9  1  0
 12 11  1  0
 12 13  1  1
 14 18  1  0
 14 13  1  0
 15 14  2  0
 16 12  1  0
 16 17  2  0
 19 16  1  0
 20 21  1  6
 20 19  1  0
 22 21  1  0
 22 26  1  0
 23 24  1  0
 23 22  2  0
 24 25  1  0
 25 26  2  0
 27 20  1  0
 28 27  1  0
 29 27  2  0
M  END
$$$$
