HDH.pdb
     RDKit          3D

 29 30  0  0  1  0  0  0  0  0999 V2000
    9.7839  -15.5522   19.2586 N   0  0  0  0  0  0  0  0  0  0  0  0
    9.0218  -14.9567   20.3115 C   0  0  1  0  0  0  0  0  0  0  0  0
    7.5572  -14.9476   19.8658 C   0  0  0  0  0  0  0  0  0  0  0  0
    7.4504  -14.4615   18.4682 C   0  0  0  0  0  0  0  0  0  0  0  0
    7.4919  -13.1785   17.9947 C   0  0  0  0  0  0  0  0  0  0  0  0
    7.3589  -13.1798   16.6597 N   0  0  0  0  0  0  0  0  0  0  0  0
    7.2322  -14.4776   16.2883 C   0  0  0  0  0  0  0  0  0  0  0  0
    7.2877  -15.2548   17.3845 N   0  0  0  0  0  0  0  0  0  0  0  0
    9.0683  -15.8274   21.5399 C   0  0  0  0  0  0  0  0  0  0  0  0
    8.3066  -15.6423   22.5069 O   0  0  0  0  0  0  0  0  0  0  0  0
    9.9964  -16.8806   21.6019 N   0  0  0  0  0  0  0  0  0  0  0  0
   10.1172  -17.8087   22.7088 C   0  0  1  0  0  0  0  0  0  0  0  0
   10.8521  -19.0189   22.2185 C   0  0  0  0  0  0  0  0  0  0  0  0
   12.2723  -18.7618   21.8795 C   0  0  0  0  0  0  0  0  0  0  0  0
   12.5940  -17.7700   21.1969 O   0  0  0  0  0  0  0  0  0  0  0  0
   10.6646  -17.1887   23.9160 C   0  0  0  0  0  0  0  0  0  0  0  0
   11.5515  -16.3015   23.8387 O   0  0  0  0  0  0  0  0  0  0  0  0
   13.2516  -19.6348   22.3274 O   0  0  0  0  0  0  0  0  0  0  0  0
   10.2505  -17.5288   25.2408 N   0  0  0  0  0  0  0  0  0  0  0  0
   10.6289  -16.7543   26.4153 C   0  0  1  0  0  0  0  0  0  0  0  0
    9.5327  -15.8649   26.8820 C   0  0  0  0  0  0  0  0  0  0  0  0
    9.9827  -15.0685   28.0397 C   0  0  0  0  0  0  0  0  0  0  0  0
    9.9521  -15.5424   29.3589 C   0  0  0  0  0  0  0  0  0  0  0  0
   10.4238  -14.5830   30.1656 N   0  0  0  0  0  0  0  0  0  0  0  0
   10.7561  -13.5152   29.4274 C   0  0  0  0  0  0  0  0  0  0  0  0
   10.4821  -13.8288   28.1471 N   0  0  0  0  0  0  0  0  0  0  0  0
   11.1142  -17.6004   27.5002 C   0  0  0  0  0  0  0  0  0  0  0  0
   12.0789  -17.0688   28.3785 O   0  0  0  0  0  0  0  0  0  0  0  0
   10.7553  -18.7621   27.7301 O   0  0  0  0  0  0  0  0  0  0  0  0
  2  1  1  6
  3  2  1  0
  4  3  1  0
  5  4  2  0
  6  7  1  0
  6  5  1  0
  7  8  2  0
  8  4  1  0
  9 10  2  0
  9  2  1  0
 11  9  1  0
 12 11  1  0
 12 13  1  6
 14 18  1  0
 14 13  1  0
 15 14  2  0
 16 12  1  0
 16 17  2  0
 19 16  1  0
 20 21  1  1
 20 19  1  0
 22 21  1  0
 22 26  1  0
 23 24  1  0
 23 22  2  0
 24 25  1  0
 25 26  2  0
 27 20  1  0
 28 27  1  0
 29 27  2  0
M  END
$$$$
