HDH.pdb
     RDKit          3D

 29 30  0  0  1  0  0  0  0  0999 V2000
    9.0981  -16.2817   18.4114 N   0  0  0  0  0  0  0  0  0  0  0  0
   10.2503  -16.1534   19.2481 C   0  0  1  0  0  0  0  0  0  0  0  0
   10.4401  -14.6622   19.5378 C   0  0  0  0  0  0  0  0  0  0  0  0
    9.1664  -13.9327   19.3226 C   0  0  0  0  0  0  0  0  0  0  0  0
    8.8151  -12.6723   19.7225 C   0  0  0  0  0  0  0  0  0  0  0  0
    7.5655  -12.3967   19.3190 N   0  0  0  0  0  0  0  0  0  0  0  0
    7.1251  -13.4955   18.6579 C   0  0  0  0  0  0  0  0  0  0  0  0
    8.0954  -14.4267   18.6600 N   0  0  0  0  0  0  0  0  0  0  0  0
    9.9932  -16.7986   20.5849 C   0  0  0  0  0  0  0  0  0  0  0  0
    8.8495  -17.1325   20.9454 O   0  0  0  0  0  0  0  0  0  0  0  0
   11.0717  -17.0328   21.4545 N   0  0  0  0  0  0  0  0  0  0  0  0
   11.0173  -17.8880   22.6237 C   0  0  1  0  0  0  0  0  0  0  0  0
   12.2821  -18.6899   22.6685 C   0  0  0  0  0  0  0  0  0  0  0  0
   12.0845  -20.0991   23.0846 C   0  0  0  0  0  0  0  0  0  0  0  0
   12.8324  -20.9997   22.6571 O   0  0  0  0  0  0  0  0  0  0  0  0
   10.6935  -17.1580   23.8499 C   0  0  0  0  0  0  0  0  0  0  0  0
   11.3787  -16.1677   24.2096 O   0  0  0  0  0  0  0  0  0  0  0  0
   11.0562  -20.4168   23.9584 O   0  0  0  0  0  0  0  0  0  0  0  0
    9.6067  -17.4986   24.7131 N   0  0  0  0  0  0  0  0  0  0  0  0
    9.3349  -16.8001   25.9623 C   0  0  1  0  0  0  0  0  0  0  0  0
    7.8960  -16.4593   26.1169 C   0  0  0  0  0  0  0  0  0  0  0  0
    7.5712  -15.2557   25.3277 C   0  0  0  0  0  0  0  0  0  0  0  0
    8.5362  -14.4922   24.6555 C   0  0  0  0  0  0  0  0  0  0  0  0
    7.9194  -13.4753   24.0399 N   0  0  0  0  0  0  0  0  0  0  0  0
    6.6040  -13.5490   24.2844 C   0  0  0  0  0  0  0  0  0  0  0  0
    6.4148  -14.6306   25.0635 N   0  0  0  0  0  0  0  0  0  0  0  0
    9.8262  -17.5353   27.1227 C   0  0  0  0  0  0  0  0  0  0  0  0
   10.5486  -18.7242   26.9007 O   0  0  0  0  0  0  0  0  0  0  0  0
    9.6681  -17.2117   28.3065 O   0  0  0  0  0  0  0  0  0  0  0  0
  2  1  1  6
  3  2  1  0
  4  3  1  0
  5  4  2  0
  6  7  1  0
  6  5  1  0
  7  8  2  0
  8  4  1  0
  9 10  2  0
  9  2  1  0
 11  9  1  0
 12 11  1  0
 12 13  1  1
 14 18  1  0
 14 13  1  0
 15 14  2  0
 16 12  1  0
 16 17  2  0
 19 16  1  0
 20 21  1  1
 20 19  1  0
 22 21  1  0
 22 26  1  0
 23 24  1  0
 23 22  2  0
 24 25  1  0
 25 26  2  0
 27 20  1  0
 28 27  1  0
 29 27  2  0
M  END
$$$$
