HDH.pdb
     RDKit          3D

 29 30  0  0  1  0  0  0  0  0999 V2000
   10.4249  -22.9918   19.1844 N   0  0  0  0  0  0  0  0  0  0  0  0
   11.5045  -22.4808   19.9701 C   0  0  1  0  0  0  0  0  0  0  0  0
   11.4580  -20.9538   19.8711 C   0  0  0  0  0  0  0  0  0  0  0  0
   11.7863  -20.5201   18.4909 C   0  0  0  0  0  0  0  0  0  0  0  0
   12.5571  -21.1459   17.5495 C   0  0  0  0  0  0  0  0  0  0  0  0
   12.5951  -20.4106   16.4279 N   0  0  0  0  0  0  0  0  0  0  0  0
   11.8402  -19.3098   16.6654 C   0  0  0  0  0  0  0  0  0  0  0  0
   11.3498  -19.3759   17.9160 N   0  0  0  0  0  0  0  0  0  0  0  0
   11.2824  -22.8015   21.4251 C   0  0  0  0  0  0  0  0  0  0  0  0
   10.1694  -22.6671   21.9662 O   0  0  0  0  0  0  0  0  0  0  0  0
   12.3590  -23.2665   22.1992 N   0  0  0  0  0  0  0  0  0  0  0  0
   12.3057  -23.5015   23.6286 C   0  0  1  0  0  0  0  0  0  0  0  0
   13.5155  -24.2984   24.0110 C   0  0  0  0  0  0  0  0  0  0  0  0
   13.5402  -24.7046   25.4366 C   0  0  0  0  0  0  0  0  0  0  0  0
   14.5341  -24.4651   26.1493 O   0  0  0  0  0  0  0  0  0  0  0  0
   12.0914  -22.2769   24.4005 C   0  0  0  0  0  0  0  0  0  0  0  0
   12.0825  -21.1537   23.8367 O   0  0  0  0  0  0  0  0  0  0  0  0
   12.4452  -25.3576   25.9812 O   0  0  0  0  0  0  0  0  0  0  0  0
   11.8812  -22.2559   25.8138 N   0  0  0  0  0  0  0  0  0  0  0  0
   11.4531  -21.0654   26.5361 C   0  0  1  0  0  0  0  0  0  0  0  0
   10.0551  -20.6791   26.2093 C   0  0  0  0  0  0  0  0  0  0  0  0
   10.0239  -19.8916   24.9620 C   0  0  0  0  0  0  0  0  0  0  0  0
   11.0458  -19.0098   24.5824 C   0  0  0  0  0  0  0  0  0  0  0  0
   10.7142  -18.4559   23.4090 N   0  0  0  0  0  0  0  0  0  0  0  0
    9.5279  -18.9399   23.0165 C   0  0  0  0  0  0  0  0  0  0  0  0
    9.1284  -19.8048   23.9679 N   0  0  0  0  0  0  0  0  0  0  0  0
   11.6356  -21.2000   27.9773 C   0  0  0  0  0  0  0  0  0  0  0  0
   11.3294  -20.0933   28.7935 O   0  0  0  0  0  0  0  0  0  0  0  0
   12.0407  -22.2102   28.5659 O   0  0  0  0  0  0  0  0  0  0  0  0
  2  1  1  6
  3  2  1  0
  4  3  1  0
  5  4  2  0
  6  7  1  0
  6  5  1  0
  7  8  2  0
  8  4  1  0
  9 10  2  0
  9  2  1  0
 11  9  1  0
 12 11  1  0
 12 13  1  1
 14 18  1  0
 14 13  1  0
 15 14  2  0
 16 12  1  0
 16 17  2  0
 19 16  1  0
 20 21  1  1
 20 19  1  0
 22 21  1  0
 22 26  1  0
 23 24  1  0
 23 22  2  0
 24 25  1  0
 25 26  2  0
 27 20  1  0
 28 27  1  0
 29 27  2  0
M  END
$$$$
