HDH.pdb
     RDKit          3D

 29 30  0  0  1  0  0  0  0  0999 V2000
    9.0860  -17.1548   17.8272 N   0  0  0  0  0  0  0  0  0  0  0  0
   10.0608  -16.4270   18.5782 C   0  0  1  0  0  0  0  0  0  0  0  0
    9.3031  -15.4824   19.5149 C   0  0  0  0  0  0  0  0  0  0  0  0
    8.8959  -14.2563   18.7857 C   0  0  0  0  0  0  0  0  0  0  0  0
    9.4648  -13.0121   18.8037 C   0  0  0  0  0  0  0  0  0  0  0  0
    8.7824  -12.1862   17.9960 N   0  0  0  0  0  0  0  0  0  0  0  0
    7.7729  -12.9181   17.4636 C   0  0  0  0  0  0  0  0  0  0  0  0
    7.8416  -14.1731   17.9423 N   0  0  0  0  0  0  0  0  0  0  0  0
   10.8266  -17.3632   19.4761 C   0  0  0  0  0  0  0  0  0  0  0  0
   10.3300  -18.4238   19.8980 O   0  0  0  0  0  0  0  0  0  0  0  0
   12.1403  -17.0352   19.8518 N   0  0  0  0  0  0  0  0  0  0  0  0
   12.9243  -17.7636   20.8296 C   0  0  1  0  0  0  0  0  0  0  0  0
   14.3720  -17.5809   20.4894 C   0  0  0  0  0  0  0  0  0  0  0  0
   15.2871  -18.4356   21.2831 C   0  0  0  0  0  0  0  0  0  0  0  0
   14.9554  -19.5918   21.6090 O   0  0  0  0  0  0  0  0  0  0  0  0
   12.5585  -17.4407   22.2092 C   0  0  0  0  0  0  0  0  0  0  0  0
   12.9109  -16.3530   22.7310 O   0  0  0  0  0  0  0  0  0  0  0  0
   16.5247  -17.9420   21.6660 O   0  0  0  0  0  0  0  0  0  0  0  0
   11.7949  -18.3065   23.0514 N   0  0  0  0  0  0  0  0  0  0  0  0
   11.3989  -17.9502   24.4073 C   0  0  1  0  0  0  0  0  0  0  0  0
    9.9289  -18.0443   24.6091 C   0  0  0  0  0  0  0  0  0  0  0  0
    9.2348  -17.0612   23.7554 C   0  0  0  0  0  0  0  0  0  0  0  0
    9.7097  -15.7602   23.5368 C   0  0  0  0  0  0  0  0  0  0  0  0
    8.8554  -15.1279   22.7219 N   0  0  0  0  0  0  0  0  0  0  0  0
    7.8541  -15.9608   22.4064 C   0  0  0  0  0  0  0  0  0  0  0  0
    8.1021  -17.1224   23.0405 N   0  0  0  0  0  0  0  0  0  0  0  0
   12.1159  -18.7269   25.4128 C   0  0  0  0  0  0  0  0  0  0  0  0
   13.0379  -19.6968   24.9723 O   0  0  0  0  0  0  0  0  0  0  0  0
   11.9922  -18.6161   26.6390 O   0  0  0  0  0  0  0  0  0  0  0  0
  2  1  1  1
  3  2  1  0
  4  3  1  0
  5  4  2  0
  6  7  1  0
  6  5  1  0
  7  8  2  0
  8  4  1  0
  9 10  2  0
  9  2  1  0
 11  9  1  0
 12 11  1  0
 12 13  1  1
 14 18  1  0
 14 13  1  0
 15 14  2  0
 16 12  1  0
 16 17  2  0
 19 16  1  0
 20 21  1  6
 20 19  1  0
 22 21  1  0
 22 26  1  0
 23 24  1  0
 23 22  2  0
 24 25  1  0
 25 26  2  0
 27 20  1  0
 28 27  1  0
 29 27  2  0
M  END
$$$$
