HDH.pdb
     RDKit          3D

 29 30  0  0  1  0  0  0  0  0999 V2000
    9.5630  -16.3340   18.2087 N   0  0  0  0  0  0  0  0  0  0  0  0
   10.6683  -16.2330   19.1099 C   0  0  1  0  0  0  0  0  0  0  0  0
   11.0291  -14.7497   19.2250 C   0  0  0  0  0  0  0  0  0  0  0  0
    9.7988  -13.9332   19.3679 C   0  0  0  0  0  0  0  0  0  0  0  0
    8.4925  -14.3386   19.4004 C   0  0  0  0  0  0  0  0  0  0  0  0
    7.6876  -13.2749   19.5447 N   0  0  0  0  0  0  0  0  0  0  0  0
    8.4957  -12.1879   19.6037 C   0  0  0  0  0  0  0  0  0  0  0  0
    9.7757  -12.5867   19.4965 N   0  0  0  0  0  0  0  0  0  0  0  0
   10.2489  -16.6587   20.4927 C   0  0  0  0  0  0  0  0  0  0  0  0
    9.0510  -16.7712   20.8116 O   0  0  0  0  0  0  0  0  0  0  0  0
   11.2341  -16.9384   21.4548 N   0  0  0  0  0  0  0  0  0  0  0  0
   10.9620  -17.3578   22.8154 C   0  0  1  0  0  0  0  0  0  0  0  0
   12.0235  -18.3355   23.2183 C   0  0  0  0  0  0  0  0  0  0  0  0
   13.4051  -17.8497   22.9875 C   0  0  0  0  0  0  0  0  0  0  0  0
   13.6145  -16.6764   22.6232 O   0  0  0  0  0  0  0  0  0  0  0  0
   10.7652  -16.2331   23.7305 C   0  0  0  0  0  0  0  0  0  0  0  0
   10.9131  -15.0488   23.3363 O   0  0  0  0  0  0  0  0  0  0  0  0
   14.4743  -18.7110   23.1795 O   0  0  0  0  0  0  0  0  0  0  0  0
   10.4003  -16.3816   25.1042 N   0  0  0  0  0  0  0  0  0  0  0  0
    9.5399  -15.4375   25.8046 C   0  0  1  0  0  0  0  0  0  0  0  0
    8.2349  -15.2467   25.1184 C   0  0  0  0  0  0  0  0  0  0  0  0
    7.4340  -14.2279   25.8238 C   0  0  0  0  0  0  0  0  0  0  0  0
    7.9135  -13.4932   26.9175 C   0  0  0  0  0  0  0  0  0  0  0  0
    6.9478  -12.6592   27.3246 N   0  0  0  0  0  0  0  0  0  0  0  0
    5.8707  -12.8230   26.5445 C   0  0  0  0  0  0  0  0  0  0  0  0
    6.1849  -13.7744   25.6450 N   0  0  0  0  0  0  0  0  0  0  0  0
    9.3469  -15.8016   27.2042 C   0  0  0  0  0  0  0  0  0  0  0  0
    9.6432  -14.8392   28.1894 O   0  0  0  0  0  0  0  0  0  0  0  0
    8.9406  -16.8938   27.6201 O   0  0  0  0  0  0  0  0  0  0  0  0
  2  1  1  6
  3  2  1  0
  4  3  1  0
  5  4  2  0
  6  7  1  0
  6  5  1  0
  7  8  2  0
  8  4  1  0
  9 10  2  0
  9  2  1  0
 11  9  1  0
 12 11  1  0
 12 13  1  1
 14 18  1  0
 14 13  1  0
 15 14  2  0
 16 12  1  0
 16 17  2  0
 19 16  1  0
 20 21  1  6
 20 19  1  0
 22 21  1  0
 22 26  1  0
 23 24  1  0
 23 22  2  0
 24 25  1  0
 25 26  2  0
 27 20  1  0
 28 27  1  0
 29 27  2  0
M  END
$$$$
