HDH.pdb
     RDKit          3D

 29 30  0  0  1  0  0  0  0  0999 V2000
    8.6666  -17.6522   17.4594 N   0  0  0  0  0  0  0  0  0  0  0  0
    9.6792  -16.8300   18.0447 C   0  0  1  0  0  0  0  0  0  0  0  0
    8.9917  -15.5712   18.5801 C   0  0  0  0  0  0  0  0  0  0  0  0
    8.5225  -14.7262   17.4547 C   0  0  0  0  0  0  0  0  0  0  0  0
    8.6328  -14.9425   16.1082 C   0  0  0  0  0  0  0  0  0  0  0  0
    8.0714  -13.9267   15.4350 N   0  0  0  0  0  0  0  0  0  0  0  0
    7.6026  -13.0614   16.3675 C   0  0  0  0  0  0  0  0  0  0  0  0
    7.8760  -13.5459   17.5920 N   0  0  0  0  0  0  0  0  0  0  0  0
   10.2697  -17.5152   19.2493 C   0  0  0  0  0  0  0  0  0  0  0  0
    9.6734  -18.4328   19.8426 O   0  0  0  0  0  0  0  0  0  0  0  0
   11.5300  -17.1113   19.7215 N   0  0  0  0  0  0  0  0  0  0  0  0
   12.1958  -17.6748   20.8793 C   0  0  1  0  0  0  0  0  0  0  0  0
   13.6735  -17.6029   20.6426 C   0  0  0  0  0  0  0  0  0  0  0  0
   14.4791  -18.3262   21.6554 C   0  0  0  0  0  0  0  0  0  0  0  0
   15.5677  -17.8654   22.0501 O   0  0  0  0  0  0  0  0  0  0  0  0
   11.7337  -17.0956   22.1412 C   0  0  0  0  0  0  0  0  0  0  0  0
   12.0432  -15.9204   22.4617 O   0  0  0  0  0  0  0  0  0  0  0  0
   14.0152  -19.5279   22.1679 O   0  0  0  0  0  0  0  0  0  0  0  0
   10.9187  -17.7945   23.0842 N   0  0  0  0  0  0  0  0  0  0  0  0
   10.4786  -17.2081   24.3430 C   0  0  1  0  0  0  0  0  0  0  0  0
    9.0010  -17.0567   24.4091 C   0  0  0  0  0  0  0  0  0  0  0  0
    8.5458  -16.0723   23.4086 C   0  0  0  0  0  0  0  0  0  0  0  0
    9.1972  -14.8525   23.1770 C   0  0  0  0  0  0  0  0  0  0  0  0
    8.5372  -14.1951   22.2147 N   0  0  0  0  0  0  0  0  0  0  0  0
    7.4928  -14.9344   21.8170 C   0  0  0  0  0  0  0  0  0  0  0  0
    7.5160  -16.0636   22.5501 N   0  0  0  0  0  0  0  0  0  0  0  0
   10.9816  -17.9428   25.4987 C   0  0  0  0  0  0  0  0  0  0  0  0
   11.8099  -19.0589   25.2691 O   0  0  0  0  0  0  0  0  0  0  0  0
   10.7481  -17.6775   26.6846 O   0  0  0  0  0  0  0  0  0  0  0  0
  2  1  1  1
  3  2  1  0
  4  3  1  0
  5  4  2  0
  6  7  1  0
  6  5  1  0
  7  8  2  0
  8  4  1  0
  9 10  2  0
  9  2  1  0
 11  9  1  0
 12 11  1  0
 12 13  1  6
 14 18  1  0
 14 13  1  0
 15 14  2  0
 16 12  1  0
 16 17  2  0
 19 16  1  0
 20 21  1  6
 20 19  1  0
 22 21  1  0
 22 26  1  0
 23 24  1  0
 23 22  2  0
 24 25  1  0
 25 26  2  0
 27 20  1  0
 28 27  1  0
 29 27  2  0
M  END
$$$$
