HDH.pdb
     RDKit          3D

 29 30  0  0  1  0  0  0  0  0999 V2000
    9.1358  -13.9491   19.6502 N   0  0  0  0  0  0  0  0  0  0  0  0
    7.9465  -14.5396   20.1803 C   0  0  1  0  0  0  0  0  0  0  0  0
    7.2827  -15.3253   19.0464 C   0  0  0  0  0  0  0  0  0  0  0  0
    7.4550  -14.6096   17.7584 C   0  0  0  0  0  0  0  0  0  0  0  0
    8.1405  -13.4546   17.4974 C   0  0  0  0  0  0  0  0  0  0  0  0
    8.0451  -13.1514   16.1940 N   0  0  0  0  0  0  0  0  0  0  0  0
    7.2914  -14.1259   15.6279 C   0  0  0  0  0  0  0  0  0  0  0  0
    6.9335  -15.0100   16.5761 N   0  0  0  0  0  0  0  0  0  0  0  0
    8.2995  -15.5601   21.2306 C   0  0  0  0  0  0  0  0  0  0  0  0
    7.4293  -16.2325   21.8137 O   0  0  0  0  0  0  0  0  0  0  0  0
    9.6488  -15.7633   21.5663 N   0  0  0  0  0  0  0  0  0  0  0  0
   10.1095  -16.5862   22.6671 C   0  0  1  0  0  0  0  0  0  0  0  0
   11.4545  -17.1359   22.3013 C   0  0  0  0  0  0  0  0  0  0  0  0
   12.0224  -18.0561   23.3156 C   0  0  0  0  0  0  0  0  0  0  0  0
   11.3731  -18.3578   24.3356 O   0  0  0  0  0  0  0  0  0  0  0  0
   10.0417  -15.9016   23.9586 C   0  0  0  0  0  0  0  0  0  0  0  0
   10.0837  -14.6472   24.0254 O   0  0  0  0  0  0  0  0  0  0  0  0
   13.2895  -18.5857   23.1258 O   0  0  0  0  0  0  0  0  0  0  0  0
    9.9259  -16.5793   25.2113 N   0  0  0  0  0  0  0  0  0  0  0  0
    9.0734  -16.1076   26.2945 C   0  0  1  0  0  0  0  0  0  0  0  0
    7.6777  -15.8588   25.8468 C   0  0  0  0  0  0  0  0  0  0  0  0
    7.3192  -14.4440   26.0633 C   0  0  0  0  0  0  0  0  0  0  0  0
    8.1647  -13.5242   26.6995 C   0  0  0  0  0  0  0  0  0  0  0  0
    7.5476  -12.3361   26.7370 N   0  0  0  0  0  0  0  0  0  0  0  0
    6.3458  -12.4488   26.1551 C   0  0  0  0  0  0  0  0  0  0  0  0
    6.2275  -13.7290   25.7553 N   0  0  0  0  0  0  0  0  0  0  0  0
    9.1019  -17.0015   27.4472 C   0  0  0  0  0  0  0  0  0  0  0  0
    9.1810  -18.3883   27.2125 O   0  0  0  0  0  0  0  0  0  0  0  0
    9.0627  -16.6553   28.6345 O   0  0  0  0  0  0  0  0  0  0  0  0
  2  1  1  6
  3  2  1  0
  4  3  1  0
  5  4  2  0
  6  7  1  0
  6  5  1  0
  7  8  2  0
  8  4  1  0
  9 10  2  0
  9  2  1  0
 11  9  1  0
 12 11  1  0
 12 13  1  6
 14 18  1  0
 14 13  1  0
 15 14  2  0
 16 12  1  0
 16 17  2  0
 19 16  1  0
 20 21  1  6
 20 19  1  0
 22 21  1  0
 22 26  1  0
 23 24  1  0
 23 22  2  0
 24 25  1  0
 25 26  2  0
 27 20  1  0
 28 27  1  0
 29 27  2  0
M  END
$$$$
