HDH.pdb
     RDKit          3D

 29 30  0  0  1  0  0  0  0  0999 V2000
    7.8659  -18.1062   18.7669 N   0  0  0  0  0  0  0  0  0  0  0  0
    8.7853  -17.0633   19.1000 C   0  0  1  0  0  0  0  0  0  0  0  0
    7.9628  -15.8048   19.3888 C   0  0  0  0  0  0  0  0  0  0  0  0
    7.9957  -14.8923   18.2196 C   0  0  0  0  0  0  0  0  0  0  0  0
    8.5594  -15.0867   16.9882 C   0  0  0  0  0  0  0  0  0  0  0  0
    8.3598  -14.0060   16.2186 N   0  0  0  0  0  0  0  0  0  0  0  0
    7.6628  -13.1213   16.9735 C   0  0  0  0  0  0  0  0  0  0  0  0
    7.4420  -13.6584   18.1866 N   0  0  0  0  0  0  0  0  0  0  0  0
    9.4945  -17.3908   20.3880 C   0  0  0  0  0  0  0  0  0  0  0  0
    9.0137  -18.1803   21.2217 O   0  0  0  0  0  0  0  0  0  0  0  0
   10.7353  -16.7909   20.6620 N   0  0  0  0  0  0  0  0  0  0  0  0
   11.5155  -17.0215   21.8617 C   0  0  1  0  0  0  0  0  0  0  0  0
   12.9652  -16.9688   21.4870 C   0  0  0  0  0  0  0  0  0  0  0  0
   13.8880  -17.1459   22.6338 C   0  0  0  0  0  0  0  0  0  0  0  0
   15.0042  -16.5919   22.6439 O   0  0  0  0  0  0  0  0  0  0  0  0
   11.1229  -16.1542   22.9730 C   0  0  0  0  0  0  0  0  0  0  0  0
   11.1768  -14.9032   22.8636 O   0  0  0  0  0  0  0  0  0  0  0  0
   13.5035  -17.9367   23.7057 O   0  0  0  0  0  0  0  0  0  0  0  0
   10.6603  -16.6405   24.2346 N   0  0  0  0  0  0  0  0  0  0  0  0
    9.7637  -15.8836   25.0980 C   0  0  1  0  0  0  0  0  0  0  0  0
    8.5294  -15.4521   24.3904 C   0  0  0  0  0  0  0  0  0  0  0  0
    7.7097  -14.5994   25.2725 C   0  0  0  0  0  0  0  0  0  0  0  0
    8.1527  -13.3721   25.7857 C   0  0  0  0  0  0  0  0  0  0  0  0
    7.1789  -12.8533   26.5448 N   0  0  0  0  0  0  0  0  0  0  0  0
    6.1313  -13.6888   26.5438 C   0  0  0  0  0  0  0  0  0  0  0  0
    6.4722  -14.7365   25.7699 N   0  0  0  0  0  0  0  0  0  0  0  0
    9.4391  -16.6057   26.3235 C   0  0  0  0  0  0  0  0  0  0  0  0
    8.9216  -15.8738   27.4103 O   0  0  0  0  0  0  0  0  0  0  0  0
    9.5758  -17.8218   26.5066 O   0  0  0  0  0  0  0  0  0  0  0  0
  2  1  1  1
  3  2  1  0
  4  3  1  0
  5  4  2  0
  6  7  1  0
  6  5  1  0
  7  8  2  0
  8  4  1  0
  9 10  2  0
  9  2  1  0
 11  9  1  0
 12 11  1  0
 12 13  1  6
 14 18  1  0
 14 13  1  0
 15 14  2  0
 16 12  1  0
 16 17  2  0
 19 16  1  0
 20 21  1  6
 20 19  1  0
 22 21  1  0
 22 26  1  0
 23 24  1  0
 23 22  2  0
 24 25  1  0
 25 26  2  0
 27 20  1  0
 28 27  1  0
 29 27  2  0
M  END
$$$$
