HDH.pdb
     RDKit          3D

 29 30  0  0  1  0  0  0  0  0999 V2000
    9.0784  -17.6835   19.4744 N   0  0  0  0  0  0  0  0  0  0  0  0
   10.0393  -16.8475   20.1240 C   0  0  1  0  0  0  0  0  0  0  0  0
    9.2865  -15.6388   20.6862 C   0  0  0  0  0  0  0  0  0  0  0  0
    8.7654  -14.8000   19.5791 C   0  0  0  0  0  0  0  0  0  0  0  0
    9.3261  -14.5341   18.3597 C   0  0  0  0  0  0  0  0  0  0  0  0
    8.5210  -13.7263   17.6531 N   0  0  0  0  0  0  0  0  0  0  0  0
    7.4416  -13.4806   18.4360 C   0  0  0  0  0  0  0  0  0  0  0  0
    7.5896  -14.1315   19.6036 N   0  0  0  0  0  0  0  0  0  0  0  0
   10.6193  -17.5580   21.3190 C   0  0  0  0  0  0  0  0  0  0  0  0
   10.1246  -18.6104   21.7630 O   0  0  0  0  0  0  0  0  0  0  0  0
   11.7518  -17.0220   21.9551 N   0  0  0  0  0  0  0  0  0  0  0  0
   12.4574  -17.6542   23.0523 C   0  0  1  0  0  0  0  0  0  0  0  0
   13.9116  -17.7086   22.6957 C   0  0  0  0  0  0  0  0  0  0  0  0
   14.5108  -16.3815   22.4166 C   0  0  0  0  0  0  0  0  0  0  0  0
   14.2605  -15.7811   21.3536 O   0  0  0  0  0  0  0  0  0  0  0  0
   12.1519  -17.0510   24.3500 C   0  0  0  0  0  0  0  0  0  0  0  0
   12.9194  -17.2130   25.3321 O   0  0  0  0  0  0  0  0  0  0  0  0
   15.3584  -15.8036   23.3491 O   0  0  0  0  0  0  0  0  0  0  0  0
   10.9932  -16.2534   24.6017 N   0  0  0  0  0  0  0  0  0  0  0  0
    9.9745  -16.6169   25.5776 C   0  0  1  0  0  0  0  0  0  0  0  0
    8.6575  -16.8895   24.9438 C   0  0  0  0  0  0  0  0  0  0  0  0
    8.1427  -15.6678   24.2962 C   0  0  0  0  0  0  0  0  0  0  0  0
    8.8427  -14.4531   24.2770 C   0  0  0  0  0  0  0  0  0  0  0  0
    8.1072  -13.5498   23.6162 N   0  0  0  0  0  0  0  0  0  0  0  0
    6.9678  -14.1263   23.2097 C   0  0  0  0  0  0  0  0  0  0  0  0
    7.0090  -15.4046   23.6304 N   0  0  0  0  0  0  0  0  0  0  0  0
   10.3913  -17.7333   26.4192 C   0  0  0  0  0  0  0  0  0  0  0  0
   11.5658  -18.4284   26.0698 O   0  0  0  0  0  0  0  0  0  0  0  0
    9.8037  -18.1385   27.4301 O   0  0  0  0  0  0  0  0  0  0  0  0
  2  1  1  1
  3  2  1  0
  4  3  1  0
  5  4  2  0
  6  7  1  0
  6  5  1  0
  7  8  2  0
  8  4  1  0
  9 10  2  0
  9  2  1  0
 11  9  1  0
 12 11  1  0
 12 13  1  6
 14 18  1  0
 14 13  1  0
 15 14  2  0
 16 12  1  0
 16 17  2  0
 19 16  1  0
 20 21  1  6
 20 19  1  0
 22 21  1  0
 22 26  1  0
 23 24  1  0
 23 22  2  0
 24 25  1  0
 25 26  2  0
 27 20  1  0
 28 27  1  0
 29 27  2  0
M  END
$$$$
