HDH.pdb
     RDKit          3D

 29 30  0  0  1  0  0  0  0  0999 V2000
    6.6522  -16.6656   21.0786 N   0  0  0  0  0  0  0  0  0  0  0  0
    7.9089  -16.0972   21.4554 C   0  0  1  0  0  0  0  0  0  0  0  0
    7.6532  -14.6367   21.8366 C   0  0  0  0  0  0  0  0  0  0  0  0
    7.7118  -13.7750   20.6303 C   0  0  0  0  0  0  0  0  0  0  0  0
    7.2165  -14.0097   19.3767 C   0  0  0  0  0  0  0  0  0  0  0  0
    7.4858  -12.9670   18.5766 N   0  0  0  0  0  0  0  0  0  0  0  0
    8.1580  -12.0658   19.3345 C   0  0  0  0  0  0  0  0  0  0  0  0
    8.2951  -12.5555   20.5796 N   0  0  0  0  0  0  0  0  0  0  0  0
    8.4224  -16.7608   22.7065 C   0  0  0  0  0  0  0  0  0  0  0  0
    7.6570  -17.2968   23.5288 O   0  0  0  0  0  0  0  0  0  0  0  0
    9.8048  -16.7784   22.9579 N   0  0  0  0  0  0  0  0  0  0  0  0
   10.4206  -17.3512   24.1386 C   0  0  1  0  0  0  0  0  0  0  0  0
   11.7410  -17.9328   23.7346 C   0  0  0  0  0  0  0  0  0  0  0  0
   12.4242  -18.6796   24.8179 C   0  0  0  0  0  0  0  0  0  0  0  0
   13.6594  -18.6018   24.9634 O   0  0  0  0  0  0  0  0  0  0  0  0
   10.4638  -16.4214   25.2676 C   0  0  0  0  0  0  0  0  0  0  0  0
   11.0831  -15.3312   25.1806 O   0  0  0  0  0  0  0  0  0  0  0  0
   11.6795  -19.4724   25.6775 O   0  0  0  0  0  0  0  0  0  0  0  0
    9.8264  -16.6666   26.5229 N   0  0  0  0  0  0  0  0  0  0  0  0
    9.8728  -15.7268   27.6350 C   0  0  1  0  0  0  0  0  0  0  0  0
    8.5163  -15.3551   28.1169 C   0  0  0  0  0  0  0  0  0  0  0  0
    7.8486  -14.4825   27.1321 C   0  0  0  0  0  0  0  0  0  0  0  0
    8.5448  -13.6534   26.2411 C   0  0  0  0  0  0  0  0  0  0  0  0
    7.6532  -12.9966   25.4878 N   0  0  0  0  0  0  0  0  0  0  0  0
    6.4173  -13.3643   25.8523 C   0  0  0  0  0  0  0  0  0  0  0  0
    6.5574  -14.2618   26.8462 N   0  0  0  0  0  0  0  0  0  0  0  0
   10.7032  -16.2120   28.7321 C   0  0  0  0  0  0  0  0  0  0  0  0
   10.8948  -15.3697   29.8450 O   0  0  0  0  0  0  0  0  0  0  0  0
   11.2672  -17.3121   28.7832 O   0  0  0  0  0  0  0  0  0  0  0  0
  2  1  1  1
  3  2  1  0
  4  3  1  0
  5  4  2  0
  6  7  1  0
  6  5  1  0
  7  8  2  0
  8  4  1  0
  9 10  2  0
  9  2  1  0
 11  9  1  0
 12 11  1  0
 12 13  1  6
 14 18  1  0
 14 13  1  0
 15 14  2  0
 16 12  1  0
 16 17  2  0
 19 16  1  0
 20 21  1  1
 20 19  1  0
 22 21  1  0
 22 26  1  0
 23 24  1  0
 23 22  2  0
 24 25  1  0
 25 26  2  0
 27 20  1  0
 28 27  1  0
 29 27  2  0
M  END
$$$$
