FFP.pdb
     RDKit          3D

 30 32  0  0  1  0  0  0  0  0999 V2000
   10.2607  -17.9808   21.1487 N   0  0  0  0  0  0  0  0  0  0  0  0
    9.9951  -16.6155   20.7729 C   0  0  1  0  0  0  0  0  0  0  0  0
    8.7305  -16.4868   19.9506 C   0  0  0  0  0  0  0  0  0  0  0  0
    8.4945  -15.0410   19.7012 C   0  0  0  0  0  0  0  0  0  0  0  0
    7.4447  -14.3427   20.2262 C   0  0  0  0  0  0  0  0  0  0  0  0
    7.2522  -12.9853   19.9719 C   0  0  0  0  0  0  0  0  0  0  0  0
    8.1523  -12.3366   19.1661 C   0  0  0  0  0  0  0  0  0  0  0  0
    9.2347  -13.0066   18.6106 C   0  0  0  0  0  0  0  0  0  0  0  0
    9.3842  -14.3407   18.8879 C   0  0  0  0  0  0  0  0  0  0  0  0
    9.9258  -15.8032   22.0140 C   0  0  0  0  0  0  0  0  0  0  0  0
   10.6899  -14.8031   22.1048 O   0  0  0  0  0  0  0  0  0  0  0  0
    9.0624  -16.0750   23.0986 N   0  0  0  0  0  0  0  0  0  0  0  0
    8.9028  -15.1475   24.2318 C   0  0  1  0  0  0  0  0  0  0  0  0
    7.3873  -14.9227   24.3641 C   0  0  0  0  0  0  0  0  0  0  0  0
    7.1067  -13.9029   25.4089 C   0  0  0  0  0  0  0  0  0  0  0  0
    6.4916  -14.2523   26.5865 C   0  0  0  0  0  0  0  0  0  0  0  0
    6.2360  -13.2771   27.5579 C   0  0  0  0  0  0  0  0  0  0  0  0
    6.5917  -11.9582   27.3577 C   0  0  0  0  0  0  0  0  0  0  0  0
    7.2038  -11.6134   26.1847 C   0  0  0  0  0  0  0  0  0  0  0  0
    7.4584  -12.5847   25.2169 C   0  0  0  0  0  0  0  0  0  0  0  0
    9.3310  -15.8387   25.4734 C   0  0  0  0  0  0  0  0  0  0  0  0
    9.1267  -17.1047   25.5202 O   0  0  0  0  0  0  0  0  0  0  0  0
    9.9381  -15.1939   26.5787 N   0  0  0  0  0  0  0  0  0  0  0  0
    9.9338  -13.7647   26.8258 C   0  0  0  0  0  0  0  0  0  0  0  0
   11.1955  -13.5725   27.7035 C   0  0  0  0  0  0  0  0  0  0  0  0
   11.0362  -14.7940   28.5883 C   0  0  0  0  0  0  0  0  0  0  0  0
   10.6693  -15.8673   27.6266 C   0  0  1  0  0  0  0  0  0  0  0  0
    9.8827  -16.9619   28.2439 C   0  0  0  0  0  0  0  0  0  0  0  0
    8.5488  -17.1605   28.0267 O   0  0  0  0  0  0  0  0  0  0  0  0
   10.5002  -17.7442   29.0113 O   0  0  0  0  0  0  0  0  0  0  0  0
  2  1  1  1
  2  3  1  0
  2 10  1  0
  3  4  1  0
  4  9  1  0
  4  5  2  0
  5  6  1  0
  6  7  2  0
  8  7  1  0
  9  8  2  0
 10 11  2  0
 12 13  1  0
 12 10  1  0
 13 14  1  1
 14 15  1  0
 15 16  2  0
 16 17  1  0
 18 17  2  0
 19 18  1  0
 20 19  2  0
 20 15  1  0
 21 13  1  0
 21 22  2  0
 23 21  1  0
 24 23  1  0
 25 24  1  0
 26 25  1  0
 26 27  1  0
 27 28  1  1
 27 23  1  0
 28 29  1  0
 30 28  2  0
M  END
$$$$
