FFP.pdb
     RDKit          3D

 30 32  0  0  1  0  0  0  0  0999 V2000
    4.7275  -20.3596   22.7310 N   0  0  0  0  0  0  0  0  0  0  0  0
    5.7414  -20.0785   23.7153 C   0  0  1  0  0  0  0  0  0  0  0  0
    7.0355  -20.8085   23.4244 C   0  0  0  0  0  0  0  0  0  0  0  0
    6.9501  -22.1538   24.0499 C   0  0  0  0  0  0  0  0  0  0  0  0
    6.9725  -23.3216   23.3420 C   0  0  0  0  0  0  0  0  0  0  0  0
    6.8904  -24.5685   23.9607 C   0  0  0  0  0  0  0  0  0  0  0  0
    6.7836  -24.6152   25.3269 C   0  0  0  0  0  0  0  0  0  0  0  0
    6.7570  -23.4530   26.0872 C   0  0  0  0  0  0  0  0  0  0  0  0
    6.8405  -22.2496   25.4363 C   0  0  0  0  0  0  0  0  0  0  0  0
    5.9413  -18.6077   23.7611 C   0  0  0  0  0  0  0  0  0  0  0  0
    5.8146  -17.9640   22.6832 O   0  0  0  0  0  0  0  0  0  0  0  0
    6.2634  -17.8821   24.9296 N   0  0  0  0  0  0  0  0  0  0  0  0
    6.5555  -16.4385   24.9066 C   0  0  1  0  0  0  0  0  0  0  0  0
    6.7625  -16.0412   26.3776 C   0  0  0  0  0  0  0  0  0  0  0  0
    7.0539  -14.5871   26.4827 C   0  0  0  0  0  0  0  0  0  0  0  0
    6.0365  -13.6638   26.4891 C   0  0  0  0  0  0  0  0  0  0  0  0
    6.3315  -12.2990   26.5888 C   0  0  0  0  0  0  0  0  0  0  0  0
    7.6354  -11.8544   26.6819 C   0  0  0  0  0  0  0  0  0  0  0  0
    8.6458  -12.7755   26.6753 C   0  0  0  0  0  0  0  0  0  0  0  0
    8.3521  -14.1351   26.5760 C   0  0  0  0  0  0  0  0  0  0  0  0
    7.8608  -16.2303   24.2316 C   0  0  0  0  0  0  0  0  0  0  0  0
    8.8078  -17.0301   24.5633 O   0  0  0  0  0  0  0  0  0  0  0  0
    8.1100  -15.2246   23.2658 N   0  0  0  0  0  0  0  0  0  0  0  0
    7.1746  -14.1904   22.8671 C   0  0  0  0  0  0  0  0  0  0  0  0
    7.6605  -13.8306   21.4410 C   0  0  0  0  0  0  0  0  0  0  0  0
    9.1539  -13.8541   21.7050 C   0  0  0  0  0  0  0  0  0  0  0  0
    9.3380  -15.0855   22.5183 C   0  0  1  0  0  0  0  0  0  0  0  0
   10.5279  -15.0309   23.4010 C   0  0  0  0  0  0  0  0  0  0  0  0
   10.4655  -14.9597   24.7637 O   0  0  0  0  0  0  0  0  0  0  0  0
   11.6540  -15.0525   22.8410 O   0  0  0  0  0  0  0  0  0  0  0  0
  2  1  1  6
  2  3  1  0
  2 10  1  0
  3  4  1  0
  4  9  1  0
  4  5  2  0
  5  6  1  0
  6  7  2  0
  8  7  1  0
  9  8  2  0
 10 11  2  0
 12 13  1  0
 12 10  1  0
 13 14  1  1
 14 15  1  0
 15 16  2  0
 16 17  1  0
 18 17  2  0
 19 18  1  0
 20 19  2  0
 20 15  1  0
 21 13  1  0
 21 22  2  0
 23 21  1  0
 24 23  1  0
 25 24  1  0
 26 25  1  0
 26 27  1  0
 27 28  1  1
 27 23  1  0
 28 29  1  0
 30 28  2  0
M  END
$$$$
