FFP.pdb
     RDKit          3D

 30 32  0  0  1  0  0  0  0  0999 V2000
    8.2131  -19.5915   21.0661 N   0  0  0  0  0  0  0  0  0  0  0  0
    8.2073  -19.5820   22.5068 C   0  0  1  0  0  0  0  0  0  0  0  0
    9.3090  -20.4435   23.0866 C   0  0  0  0  0  0  0  0  0  0  0  0
    8.8812  -21.8627   22.9804 C   0  0  0  0  0  0  0  0  0  0  0  0
    9.3849  -22.7394   22.0623 C   0  0  0  0  0  0  0  0  0  0  0  0
    8.9611  -24.0659   21.9895 C   0  0  0  0  0  0  0  0  0  0  0  0
    8.0057  -24.4969   22.8736 C   0  0  0  0  0  0  0  0  0  0  0  0
    7.4655  -23.6402   23.8242 C   0  0  0  0  0  0  0  0  0  0  0  0
    7.9121  -22.3447   23.8588 C   0  0  0  0  0  0  0  0  0  0  0  0
    8.3215  -18.1715   22.9568 C   0  0  0  0  0  0  0  0  0  0  0  0
    9.1534  -17.4312   22.3634 O   0  0  0  0  0  0  0  0  0  0  0  0
    7.5617  -17.6038   24.0038 N   0  0  0  0  0  0  0  0  0  0  0  0
    7.8628  -16.2765   24.5673 C   0  0  1  0  0  0  0  0  0  0  0  0
    6.5593  -15.8140   25.2395 C   0  0  0  0  0  0  0  0  0  0  0  0
    6.7307  -14.4541   25.8153 C   0  0  0  0  0  0  0  0  0  0  0  0
    6.8984  -13.3606   25.0008 C   0  0  0  0  0  0  0  0  0  0  0  0
    7.0583  -12.0882   25.5625 C   0  0  0  0  0  0  0  0  0  0  0  0
    7.0512  -11.9050   26.9310 C   0  0  0  0  0  0  0  0  0  0  0  0
    6.8840  -12.9951   27.7391 C   0  0  0  0  0  0  0  0  0  0  0  0
    6.7248  -14.2626   27.1797 C   0  0  0  0  0  0  0  0  0  0  0  0
    8.8577  -16.4391   25.6565 C   0  0  0  0  0  0  0  0  0  0  0  0
    8.5409  -17.2471   26.6017 O   0  0  0  0  0  0  0  0  0  0  0  0
   10.1051  -15.7700   25.7064 N   0  0  0  0  0  0  0  0  0  0  0  0
   10.5729  -14.7890   24.7459 C   0  0  0  0  0  0  0  0  0  0  0  0
   12.1121  -14.8889   24.8875 C   0  0  0  0  0  0  0  0  0  0  0  0
   12.1873  -15.0018   26.3981 C   0  0  0  0  0  0  0  0  0  0  0  0
   11.1110  -15.9756   26.7221 C   0  0  1  0  0  0  0  0  0  0  0  0
   10.5664  -15.8113   28.0912 C   0  0  0  0  0  0  0  0  0  0  0  0
   11.2661  -16.0917   29.2304 O   0  0  0  0  0  0  0  0  0  0  0  0
    9.3863  -15.3867   28.1876 O   0  0  0  0  0  0  0  0  0  0  0  0
  2  1  1  6
  2  3  1  0
  2 10  1  0
  3  4  1  0
  4  9  1  0
  4  5  2  0
  5  6  1  0
  6  7  2  0
  8  7  1  0
  9  8  2  0
 10 11  2  0
 12 13  1  0
 12 10  1  0
 13 14  1  1
 14 15  1  0
 15 16  2  0
 16 17  1  0
 18 17  2  0
 19 18  1  0
 20 19  2  0
 20 15  1  0
 21 13  1  0
 21 22  2  0
 23 21  1  0
 24 23  1  0
 25 24  1  0
 26 25  1  0
 26 27  1  0
 27 28  1  1
 27 23  1  0
 28 29  1  0
 30 28  2  0
M  END
$$$$
