FFP.pdb
     RDKit          3D

 30 32  0  0  1  0  0  0  0  0999 V2000
    9.4598  -18.0220   21.3040 N   0  0  0  0  0  0  0  0  0  0  0  0
    9.3765  -16.6931   20.7537 C   0  0  1  0  0  0  0  0  0  0  0  0
    8.1876  -16.5325   19.8303 C   0  0  0  0  0  0  0  0  0  0  0  0
    8.0962  -15.0987   19.4503 C   0  0  0  0  0  0  0  0  0  0  0  0
    8.8368  -14.5300   18.4537 C   0  0  0  0  0  0  0  0  0  0  0  0
    8.7267  -13.1800   18.1224 C   0  0  0  0  0  0  0  0  0  0  0  0
    7.8421  -12.4038   18.8261 C   0  0  0  0  0  0  0  0  0  0  0  0
    7.0685  -12.9396   19.8477 C   0  0  0  0  0  0  0  0  0  0  0  0
    7.2101  -14.2716   20.1388 C   0  0  0  0  0  0  0  0  0  0  0  0
    9.3255  -15.7309   21.8836 C   0  0  0  0  0  0  0  0  0  0  0  0
    9.3226  -14.4997   21.6069 O   0  0  0  0  0  0  0  0  0  0  0  0
    9.2802  -16.1015   23.2461 N   0  0  0  0  0  0  0  0  0  0  0  0
    9.0582  -15.1217   24.3234 C   0  0  1  0  0  0  0  0  0  0  0  0
    7.5624  -14.7717   24.2539 C   0  0  0  0  0  0  0  0  0  0  0  0
    7.2187  -13.7690   25.2964 C   0  0  0  0  0  0  0  0  0  0  0  0
    7.5359  -12.4428   25.1295 C   0  0  0  0  0  0  0  0  0  0  0  0
    7.2037  -11.5140   26.1229 C   0  0  0  0  0  0  0  0  0  0  0  0
    6.5577  -11.9042   27.2791 C   0  0  0  0  0  0  0  0  0  0  0  0
    6.2433  -13.2248   27.4424 C   0  0  0  0  0  0  0  0  0  0  0  0
    6.5741  -14.1501   26.4530 C   0  0  0  0  0  0  0  0  0  0  0  0
    9.2674  -15.7972   25.6283 C   0  0  0  0  0  0  0  0  0  0  0  0
    8.7701  -16.9742   25.7468 O   0  0  0  0  0  0  0  0  0  0  0  0
    9.9689  -15.2287   26.7195 N   0  0  0  0  0  0  0  0  0  0  0  0
   10.0339  -13.8141   27.0330 C   0  0  0  0  0  0  0  0  0  0  0  0
   11.3564  -13.7084   27.8324 C   0  0  0  0  0  0  0  0  0  0  0  0
   11.2098  -14.9659   28.6677 C   0  0  0  0  0  0  0  0  0  0  0  0
   10.7412  -15.9774   27.6834 C   0  0  1  0  0  0  0  0  0  0  0  0
    9.9563  -17.0737   28.2999 C   0  0  0  0  0  0  0  0  0  0  0  0
   10.4872  -18.0201   29.1296 O   0  0  0  0  0  0  0  0  0  0  0  0
    8.7286  -17.1170   28.0297 O   0  0  0  0  0  0  0  0  0  0  0  0
  2  1  1  1
  2  3  1  0
  2 10  1  0
  3  4  1  0
  4  9  1  0
  4  5  2  0
  5  6  1  0
  6  7  2  0
  8  7  1  0
  9  8  2  0
 10 11  2  0
 12 13  1  0
 12 10  1  0
 13 14  1  1
 14 15  1  0
 15 16  2  0
 16 17  1  0
 18 17  2  0
 19 18  1  0
 20 19  2  0
 20 15  1  0
 21 13  1  0
 21 22  2  0
 23 21  1  0
 24 23  1  0
 25 24  1  0
 26 25  1  0
 26 27  1  0
 27 28  1  1
 27 23  1  0
 28 29  1  0
 30 28  2  0
M  END
$$$$
