FFP.pdb
     RDKit          3D

 30 32  0  0  1  0  0  0  0  0999 V2000
    4.7866  -16.2334   21.3913 N   0  0  0  0  0  0  0  0  0  0  0  0
    6.0993  -16.7704   21.6446 C   0  0  1  0  0  0  0  0  0  0  0  0
    6.9994  -16.6705   20.4314 C   0  0  0  0  0  0  0  0  0  0  0  0
    7.2269  -15.2291   20.1503 C   0  0  0  0  0  0  0  0  0  0  0  0
    7.5860  -14.3186   21.1027 C   0  0  0  0  0  0  0  0  0  0  0  0
    7.7918  -12.9720   20.8049 C   0  0  0  0  0  0  0  0  0  0  0  0
    7.6258  -12.5559   19.5089 C   0  0  0  0  0  0  0  0  0  0  0  0
    7.2613  -13.4468   18.5077 C   0  0  0  0  0  0  0  0  0  0  0  0
    7.0696  -14.7611   18.8466 C   0  0  0  0  0  0  0  0  0  0  0  0
    6.6718  -16.0518   22.8112 C   0  0  0  0  0  0  0  0  0  0  0  0
    6.5625  -14.7950   22.8383 O   0  0  0  0  0  0  0  0  0  0  0  0
    7.3298  -16.6807   23.8916 N   0  0  0  0  0  0  0  0  0  0  0  0
    8.2773  -15.9648   24.7631 C   0  0  1  0  0  0  0  0  0  0  0  0
    7.5133  -15.7097   26.0730 C   0  0  0  0  0  0  0  0  0  0  0  0
    8.3651  -14.9522   27.0274 C   0  0  0  0  0  0  0  0  0  0  0  0
    8.4951  -13.5884   26.9258 C   0  0  0  0  0  0  0  0  0  0  0  0
    9.3020  -12.8932   27.8344 C   0  0  0  0  0  0  0  0  0  0  0  0
    9.9775  -13.5537   28.8412 C   0  0  0  0  0  0  0  0  0  0  0  0
    9.8462  -14.9111   28.9399 C   0  0  0  0  0  0  0  0  0  0  0  0
    9.0425  -15.6037   28.0350 C   0  0  0  0  0  0  0  0  0  0  0  0
    9.3931  -16.8821   25.1039 C   0  0  0  0  0  0  0  0  0  0  0  0
    9.0749  -17.9629   25.7182 O   0  0  0  0  0  0  0  0  0  0  0  0
   10.7533  -16.6363   24.7943 N   0  0  0  0  0  0  0  0  0  0  0  0
   11.2645  -15.4529   24.1298 C   0  0  0  0  0  0  0  0  0  0  0  0
   12.5807  -15.9670   23.4952 C   0  0  0  0  0  0  0  0  0  0  0  0
   13.0667  -16.8161   24.6542 C   0  0  0  0  0  0  0  0  0  0  0  0
   11.8414  -17.5405   25.0848 C   0  0  1  0  0  0  0  0  0  0  0  0
   11.8703  -17.9419   26.5117 C   0  0  0  0  0  0  0  0  0  0  0  0
   12.6842  -18.9169   27.0146 O   0  0  0  0  0  0  0  0  0  0  0  0
   11.0901  -17.3354   27.2900 O   0  0  0  0  0  0  0  0  0  0  0  0
  2  1  1  6
  2  3  1  0
  2 10  1  0
  3  4  1  0
  4  9  1  0
  4  5  2  0
  5  6  1  0
  6  7  2  0
  8  7  1  0
  9  8  2  0
 10 11  2  0
 12 13  1  0
 12 10  1  0
 13 14  1  1
 14 15  1  0
 15 16  2  0
 16 17  1  0
 18 17  2  0
 19 18  1  0
 20 19  2  0
 20 15  1  0
 21 13  1  0
 21 22  2  0
 23 21  1  0
 24 23  1  0
 25 24  1  0
 26 25  1  0
 26 27  1  0
 27 28  1  1
 27 23  1  0
 28 29  1  0
 30 28  2  0
M  END
$$$$
