FFP.pdb
     RDKit          3D

 30 32  0  0  1  0  0  0  0  0999 V2000
    5.3923  -18.5963   21.0883 N   0  0  0  0  0  0  0  0  0  0  0  0
    6.1091  -17.3557   21.2390 C   0  0  1  0  0  0  0  0  0  0  0  0
    5.5812  -16.2773   20.3168 C   0  0  0  0  0  0  0  0  0  0  0  0
    6.5818  -15.1792   20.2801 C   0  0  0  0  0  0  0  0  0  0  0  0
    6.4298  -13.9928   20.9392 C   0  0  0  0  0  0  0  0  0  0  0  0
    7.3890  -12.9823   20.8836 C   0  0  0  0  0  0  0  0  0  0  0  0
    8.5209  -13.1951   20.1395 C   0  0  0  0  0  0  0  0  0  0  0  0
    8.7178  -14.3862   19.4527 C   0  0  0  0  0  0  0  0  0  0  0  0
    7.7481  -15.3514   19.5361 C   0  0  0  0  0  0  0  0  0  0  0  0
    6.0242  -16.9467   22.6640 C   0  0  0  0  0  0  0  0  0  0  0  0
    4.9934  -16.3205   23.0349 O   0  0  0  0  0  0  0  0  0  0  0  0
    7.0193  -17.2118   23.6310 N   0  0  0  0  0  0  0  0  0  0  0  0
    7.7565  -16.1382   24.3194 C   0  0  1  0  0  0  0  0  0  0  0  0
    6.9137  -15.7952   25.5589 C   0  0  0  0  0  0  0  0  0  0  0  0
    7.5327  -14.6699   26.3079 C   0  0  0  0  0  0  0  0  0  0  0  0
    8.4890  -14.9035   27.2662 C   0  0  0  0  0  0  0  0  0  0  0  0
    9.0599  -13.8303   27.9605 C   0  0  0  0  0  0  0  0  0  0  0  0
    8.6801  -12.5283   27.7018 C   0  0  0  0  0  0  0  0  0  0  0  0
    7.7281  -12.2989   26.7475 C   0  0  0  0  0  0  0  0  0  0  0  0
    7.1593  -13.3678   26.0558 C   0  0  0  0  0  0  0  0  0  0  0  0
    9.0364  -16.6926   24.8267 C   0  0  0  0  0  0  0  0  0  0  0  0
    8.9489  -17.7166   25.5952 O   0  0  0  0  0  0  0  0  0  0  0  0
   10.3144  -16.1676   24.5152 N   0  0  0  0  0  0  0  0  0  0  0  0
   10.5649  -14.9578   23.7555 C   0  0  0  0  0  0  0  0  0  0  0  0
   11.9842  -15.2069   23.1870 C   0  0  0  0  0  0  0  0  0  0  0  0
   12.6115  -15.8222   24.4233 C   0  0  0  0  0  0  0  0  0  0  0  0
   11.5694  -16.7703   24.8996 C   0  0  1  0  0  0  0  0  0  0  0  0
   11.6410  -17.0343   26.3567 C   0  0  0  0  0  0  0  0  0  0  0  0
   12.6256  -17.7703   26.9522 O   0  0  0  0  0  0  0  0  0  0  0  0
   10.7297  -16.5416   27.0702 O   0  0  0  0  0  0  0  0  0  0  0  0
  2  1  1  1
  2  3  1  0
  2 10  1  0
  3  4  1  0
  4  9  1  0
  4  5  2  0
  5  6  1  0
  6  7  2  0
  8  7  1  0
  9  8  2  0
 10 11  2  0
 12 13  1  0
 12 10  1  0
 13 14  1  1
 14 15  1  0
 15 16  2  0
 16 17  1  0
 18 17  2  0
 19 18  1  0
 20 19  2  0
 20 15  1  0
 21 13  1  0
 21 22  2  0
 23 21  1  0
 24 23  1  0
 25 24  1  0
 26 25  1  0
 26 27  1  0
 27 28  1  1
 27 23  1  0
 28 29  1  0
 30 28  2  0
M  END
$$$$
