FFP.pdb
     RDKit          3D

 30 32  0  0  1  0  0  0  0  0999 V2000
    7.9993  -18.1782   21.3487 N   0  0  0  0  0  0  0  0  0  0  0  0
    8.2663  -16.8217   20.9432 C   0  0  1  0  0  0  0  0  0  0  0  0
    7.3670  -16.3788   19.8088 C   0  0  0  0  0  0  0  0  0  0  0  0
    7.7381  -14.9850   19.4508 C   0  0  0  0  0  0  0  0  0  0  0  0
    8.6940  -14.6684   18.5282 C   0  0  0  0  0  0  0  0  0  0  0  0
    9.0183  -13.3488   18.2154 C   0  0  0  0  0  0  0  0  0  0  0  0
    8.3499  -12.3404   18.8607 C   0  0  0  0  0  0  0  0  0  0  0  0
    7.3703  -12.6156   19.8062 C   0  0  0  0  0  0  0  0  0  0  0  0
    7.0846  -13.9276   20.0817 C   0  0  0  0  0  0  0  0  0  0  0  0
    8.1147  -15.9484   22.1346 C   0  0  0  0  0  0  0  0  0  0  0  0
    8.1289  -14.6997   21.9532 O   0  0  0  0  0  0  0  0  0  0  0  0
    7.9557  -16.4218   23.4562 N   0  0  0  0  0  0  0  0  0  0  0  0
    8.1896  -15.5681   24.6336 C   0  0  1  0  0  0  0  0  0  0  0  0
    6.8020  -15.3460   25.2579 C   0  0  0  0  0  0  0  0  0  0  0  0
    6.8296  -14.1739   26.1722 C   0  0  0  0  0  0  0  0  0  0  0  0
    6.2199  -12.9936   25.8224 C   0  0  0  0  0  0  0  0  0  0  0  0
    6.2571  -11.9013   26.6972 C   0  0  0  0  0  0  0  0  0  0  0  0
    6.8994  -11.9836   27.9166 C   0  0  0  0  0  0  0  0  0  0  0  0
    7.5053  -13.1597   28.2621 C   0  0  0  0  0  0  0  0  0  0  0  0
    7.4683  -14.2478   27.3908 C   0  0  0  0  0  0  0  0  0  0  0  0
    8.9753  -16.3391   25.6290 C   0  0  0  0  0  0  0  0  0  0  0  0
    8.6685  -17.5781   25.7609 O   0  0  0  0  0  0  0  0  0  0  0  0
   10.0184  -15.7961   26.4184 N   0  0  0  0  0  0  0  0  0  0  0  0
   10.3393  -14.3864   26.5347 C   0  0  0  0  0  0  0  0  0  0  0  0
   11.8358  -14.4151   26.9333 C   0  0  0  0  0  0  0  0  0  0  0  0
   11.7788  -15.5663   27.9192 C   0  0  0  0  0  0  0  0  0  0  0  0
   10.9340  -16.5721   27.2218 C   0  0  1  0  0  0  0  0  0  0  0  0
   10.2275  -17.4871   28.1501 C   0  0  0  0  0  0  0  0  0  0  0  0
   10.8554  -18.4044   28.9439 O   0  0  0  0  0  0  0  0  0  0  0  0
    8.9736  -17.3970   28.1942 O   0  0  0  0  0  0  0  0  0  0  0  0
  2  1  1  1
  2  3  1  0
  2 10  1  0
  3  4  1  0
  4  9  1  0
  4  5  2  0
  5  6  1  0
  6  7  2  0
  8  7  1  0
  9  8  2  0
 10 11  2  0
 12 13  1  0
 12 10  1  0
 13 14  1  1
 14 15  1  0
 15 16  2  0
 16 17  1  0
 18 17  2  0
 19 18  1  0
 20 19  2  0
 20 15  1  0
 21 13  1  0
 21 22  2  0
 23 21  1  0
 24 23  1  0
 25 24  1  0
 26 25  1  0
 26 27  1  0
 27 28  1  1
 27 23  1  0
 28 29  1  0
 30 28  2  0
M  END
$$$$
