FFP.pdb
     RDKit          3D

 30 32  0  0  1  0  0  0  0  0999 V2000
    4.4710  -20.6946   24.3293 N   0  0  0  0  0  0  0  0  0  0  0  0
    5.8618  -20.3222   24.2787 C   0  0  1  0  0  0  0  0  0  0  0  0
    6.5718  -20.9316   23.0886 C   0  0  0  0  0  0  0  0  0  0  0  0
    7.9990  -20.5225   23.1509 C   0  0  0  0  0  0  0  0  0  0  0  0
    8.5587  -19.5950   22.3192 C   0  0  0  0  0  0  0  0  0  0  0  0
    9.9027  -19.2336   22.4045 C   0  0  0  0  0  0  0  0  0  0  0  0
   10.6824  -19.8346   23.3590 C   0  0  0  0  0  0  0  0  0  0  0  0
   10.1558  -20.7832   24.2263 C   0  0  0  0  0  0  0  0  0  0  0  0
    8.8293  -21.1074   24.1058 C   0  0  0  0  0  0  0  0  0  0  0  0
    5.9395  -18.8394   24.2617 C   0  0  0  0  0  0  0  0  0  0  0  0
    5.3255  -18.2296   23.3433 O   0  0  0  0  0  0  0  0  0  0  0  0
    6.6541  -18.0667   25.2041 N   0  0  0  0  0  0  0  0  0  0  0  0
    6.7884  -16.6045   25.0863 C   0  0  1  0  0  0  0  0  0  0  0  0
    7.0310  -16.1009   26.5189 C   0  0  0  0  0  0  0  0  0  0  0  0
    7.0079  -14.6148   26.5536 C   0  0  0  0  0  0  0  0  0  0  0  0
    5.8200  -13.9311   26.6476 C   0  0  0  0  0  0  0  0  0  0  0  0
    5.8194  -12.5315   26.6789 C   0  0  0  0  0  0  0  0  0  0  0  0
    6.9977  -11.8145   26.6169 C   0  0  0  0  0  0  0  0  0  0  0  0
    8.1784  -12.4977   26.5234 C   0  0  0  0  0  0  0  0  0  0  0  0
    8.1792  -13.8918   26.4922 C   0  0  0  0  0  0  0  0  0  0  0  0
    8.0255  -16.3027   24.3240 C   0  0  0  0  0  0  0  0  0  0  0  0
    9.0767  -16.9569   24.6614 O   0  0  0  0  0  0  0  0  0  0  0  0
    8.1057  -15.3582   23.2715 N   0  0  0  0  0  0  0  0  0  0  0  0
    7.1236  -14.3295   22.9873 C   0  0  0  0  0  0  0  0  0  0  0  0
    7.3471  -14.0605   21.4783 C   0  0  0  0  0  0  0  0  0  0  0  0
    8.8633  -14.0992   21.4701 C   0  0  0  0  0  0  0  0  0  0  0  0
    9.1796  -15.2862   22.3083 C   0  0  1  0  0  0  0  0  0  0  0  0
   10.5099  -15.2059   22.9577 C   0  0  0  0  0  0  0  0  0  0  0  0
   10.6971  -15.1279   24.3086 O   0  0  0  0  0  0  0  0  0  0  0  0
   11.5145  -15.2113   22.2007 O   0  0  0  0  0  0  0  0  0  0  0  0
  2  1  1  6
  2  3  1  0
  2 10  1  0
  3  4  1  0
  4  9  1  0
  4  5  2  0
  5  6  1  0
  6  7  2  0
  8  7  1  0
  9  8  2  0
 10 11  2  0
 12 13  1  0
 12 10  1  0
 13 14  1  1
 14 15  1  0
 15 16  2  0
 16 17  1  0
 18 17  2  0
 19 18  1  0
 20 19  2  0
 20 15  1  0
 21 13  1  0
 21 22  2  0
 23 21  1  0
 24 23  1  0
 25 24  1  0
 26 25  1  0
 26 27  1  0
 27 28  1  1
 27 23  1  0
 28 29  1  0
 30 28  2  0
M  END
$$$$
