FFP.pdb
     RDKit          3D

 30 32  0  0  1  0  0  0  0  0999 V2000
    3.6589  -18.1270   22.2009 N   0  0  0  0  0  0  0  0  0  0  0  0
    4.9059  -18.5732   22.7680 C   0  0  1  0  0  0  0  0  0  0  0  0
    5.9834  -18.7367   21.7171 C   0  0  0  0  0  0  0  0  0  0  0  0
    6.1884  -17.4169   21.0657 C   0  0  0  0  0  0  0  0  0  0  0  0
    5.4851  -16.2928   21.3926 C   0  0  0  0  0  0  0  0  0  0  0  0
    5.7025  -15.0688   20.7610 C   0  0  0  0  0  0  0  0  0  0  0  0
    6.6570  -14.9999   19.7789 C   0  0  0  0  0  0  0  0  0  0  0  0
    7.3963  -16.1177   19.4137 C   0  0  0  0  0  0  0  0  0  0  0  0
    7.1485  -17.2999   20.0618 C   0  0  0  0  0  0  0  0  0  0  0  0
    5.3071  -17.6011   23.8164 C   0  0  0  0  0  0  0  0  0  0  0  0
    4.5557  -16.6068   24.0139 O   0  0  0  0  0  0  0  0  0  0  0  0
    6.4727  -17.7151   24.6065 N   0  0  0  0  0  0  0  0  0  0  0  0
    7.0546  -16.5680   25.3245 C   0  0  1  0  0  0  0  0  0  0  0  0
    7.8969  -17.1803   26.4559 C   0  0  0  0  0  0  0  0  0  0  0  0
    8.5374  -16.1066   27.2607 C   0  0  0  0  0  0  0  0  0  0  0  0
    7.7766  -15.1692   27.9162 C   0  0  0  0  0  0  0  0  0  0  0  0
    8.3987  -14.1661   28.6689 C   0  0  0  0  0  0  0  0  0  0  0  0
    9.7739  -14.0963   28.7689 C   0  0  0  0  0  0  0  0  0  0  0  0
   10.5285  -15.0306   28.1153 C   0  0  0  0  0  0  0  0  0  0  0  0
    9.9090  -16.0299   27.3655 C   0  0  0  0  0  0  0  0  0  0  0  0
    8.0093  -15.8789   24.4210 C   0  0  0  0  0  0  0  0  0  0  0  0
    8.8025  -16.6313   23.7491 O   0  0  0  0  0  0  0  0  0  0  0  0
    8.0886  -14.4735   24.2633 N   0  0  0  0  0  0  0  0  0  0  0  0
    7.3195  -13.4980   25.0119 C   0  0  0  0  0  0  0  0  0  0  0  0
    7.2996  -12.2806   24.0544 C   0  0  0  0  0  0  0  0  0  0  0  0
    8.7395  -12.3481   23.5826 C   0  0  0  0  0  0  0  0  0  0  0  0
    8.9446  -13.7969   23.3170 C   0  0  1  0  0  0  0  0  0  0  0  0
   10.3603  -14.2195   23.4406 C   0  0  0  0  0  0  0  0  0  0  0  0
   11.3223  -13.9492   22.5092 O   0  0  0  0  0  0  0  0  0  0  0  0
   10.6738  -14.8652   24.4735 O   0  0  0  0  0  0  0  0  0  0  0  0
  2  1  1  6
  2  3  1  0
  2 10  1  0
  3  4  1  0
  4  9  1  0
  4  5  2  0
  5  6  1  0
  6  7  2  0
  8  7  1  0
  9  8  2  0
 10 11  2  0
 12 13  1  0
 12 10  1  0
 13 14  1  1
 14 15  1  0
 15 16  2  0
 16 17  1  0
 18 17  2  0
 19 18  1  0
 20 19  2  0
 20 15  1  0
 21 13  1  0
 21 22  2  0
 23 21  1  0
 24 23  1  0
 25 24  1  0
 26 25  1  0
 26 27  1  0
 27 28  1  1
 27 23  1  0
 28 29  1  0
 30 28  2  0
M  END
$$$$
