FFP.pdb
     RDKit          3D

 30 32  0  0  1  0  0  0  0  0999 V2000
   11.0649  -16.5238   20.0284 N   0  0  0  0  0  0  0  0  0  0  0  0
   10.4477  -17.2213   21.1277 C   0  0  1  0  0  0  0  0  0  0  0  0
   11.2722  -18.4055   21.5857 C   0  0  0  0  0  0  0  0  0  0  0  0
   11.0723  -19.5057   20.6069 C   0  0  0  0  0  0  0  0  0  0  0  0
    9.9809  -20.3267   20.6018 C   0  0  0  0  0  0  0  0  0  0  0  0
    9.8242  -21.3506   19.6684 C   0  0  0  0  0  0  0  0  0  0  0  0
   10.8041  -21.5329   18.7266 C   0  0  0  0  0  0  0  0  0  0  0  0
   11.9312  -20.7218   18.6940 C   0  0  0  0  0  0  0  0  0  0  0  0
   12.0429  -19.7278   19.6313 C   0  0  0  0  0  0  0  0  0  0  0  0
   10.2326  -16.2464   22.2269 C   0  0  0  0  0  0  0  0  0  0  0  0
   11.2043  -15.5139   22.5608 O   0  0  0  0  0  0  0  0  0  0  0  0
    9.0140  -16.0846   22.9231 N   0  0  0  0  0  0  0  0  0  0  0  0
    8.8515  -15.1066   24.0126 C   0  0  1  0  0  0  0  0  0  0  0  0
    7.3629  -14.7211   23.9954 C   0  0  0  0  0  0  0  0  0  0  0  0
    7.0992  -13.6395   24.9808 C   0  0  0  0  0  0  0  0  0  0  0  0
    7.5036  -12.3496   24.7355 C   0  0  0  0  0  0  0  0  0  0  0  0
    7.2458  -11.3452   25.6760 C   0  0  0  0  0  0  0  0  0  0  0  0
    6.5874  -11.6238   26.8572 C   0  0  0  0  0  0  0  0  0  0  0  0
    6.1862  -12.9085   27.0986 C   0  0  0  0  0  0  0  0  0  0  0  0
    6.4429  -13.9091   26.1618 C   0  0  0  0  0  0  0  0  0  0  0  0
    9.0882  -15.7951   25.3059 C   0  0  0  0  0  0  0  0  0  0  0  0
    8.8083  -17.0468   25.3448 O   0  0  0  0  0  0  0  0  0  0  0  0
    9.5945  -15.1623   26.4676 N   0  0  0  0  0  0  0  0  0  0  0  0
    9.6212  -13.7313   26.7026 C   0  0  0  0  0  0  0  0  0  0  0  0
   10.7842  -13.5794   27.7143 C   0  0  0  0  0  0  0  0  0  0  0  0
   10.4776  -14.7833   28.5843 C   0  0  0  0  0  0  0  0  0  0  0  0
   10.1764  -15.8522   27.5952 C   0  0  1  0  0  0  0  0  0  0  0  0
    9.2819  -16.9074   28.1285 C   0  0  0  0  0  0  0  0  0  0  0  0
    9.6493  -17.8066   29.0889 O   0  0  0  0  0  0  0  0  0  0  0  0
    8.1180  -16.9607   27.6543 O   0  0  0  0  0  0  0  0  0  0  0  0
  2  1  1  6
  2  3  1  0
  2 10  1  0
  3  4  1  0
  4  9  1  0
  4  5  2  0
  5  6  1  0
  6  7  2  0
  8  7  1  0
  9  8  2  0
 10 11  2  0
 12 13  1  0
 12 10  1  0
 13 14  1  1
 14 15  1  0
 15 16  2  0
 16 17  1  0
 18 17  2  0
 19 18  1  0
 20 19  2  0
 20 15  1  0
 21 13  1  0
 21 22  2  0
 23 21  1  0
 24 23  1  0
 25 24  1  0
 26 25  1  0
 26 27  1  0
 27 28  1  1
 27 23  1  0
 28 29  1  0
 30 28  2  0
M  END
$$$$
