FFP.pdb
     RDKit          3D

 30 32  0  0  1  0  0  0  0  0999 V2000
   11.4404  -16.7283   20.4108 N   0  0  0  0  0  0  0  0  0  0  0  0
   10.4609  -17.2773   21.3134 C   0  0  1  0  0  0  0  0  0  0  0  0
   10.8713  -18.6354   21.8418 C   0  0  0  0  0  0  0  0  0  0  0  0
   10.2580  -19.6688   20.9674 C   0  0  0  0  0  0  0  0  0  0  0  0
    9.0798  -20.2989   21.2503 C   0  0  0  0  0  0  0  0  0  0  0  0
    8.5315  -21.2650   20.4075 C   0  0  0  0  0  0  0  0  0  0  0  0
    9.2045  -21.5877   19.2572 C   0  0  0  0  0  0  0  0  0  0  0  0
   10.4059  -20.9725   18.9292 C   0  0  0  0  0  0  0  0  0  0  0  0
   10.9072  -20.0286   19.7875 C   0  0  0  0  0  0  0  0  0  0  0  0
   10.2533  -16.3021   22.4138 C   0  0  0  0  0  0  0  0  0  0  0  0
   11.2558  -15.6516   22.8190 O   0  0  0  0  0  0  0  0  0  0  0  0
    9.0097  -16.0542   23.0365 N   0  0  0  0  0  0  0  0  0  0  0  0
    8.8460  -15.0470   24.0989 C   0  0  1  0  0  0  0  0  0  0  0  0
    7.3530  -14.6793   24.0853 C   0  0  0  0  0  0  0  0  0  0  0  0
    7.0609  -13.6707   25.1379 C   0  0  0  0  0  0  0  0  0  0  0  0
    6.3818  -14.0210   26.2796 C   0  0  0  0  0  0  0  0  0  0  0  0
    6.1165  -13.0566   27.2590 C   0  0  0  0  0  0  0  0  0  0  0  0
    6.5259  -11.7473   27.1025 C   0  0  0  0  0  0  0  0  0  0  0  0
    7.2015  -11.4016   25.9651 C   0  0  0  0  0  0  0  0  0  0  0  0
    7.4659  -12.3622   24.9894 C   0  0  0  0  0  0  0  0  0  0  0  0
    9.1033  -15.6948   25.4092 C   0  0  0  0  0  0  0  0  0  0  0  0
    8.7612  -16.9273   25.5124 O   0  0  0  0  0  0  0  0  0  0  0  0
    9.6916  -15.0439   26.5211 N   0  0  0  0  0  0  0  0  0  0  0  0
    9.8541  -13.6102   26.6679 C   0  0  0  0  0  0  0  0  0  0  0  0
   11.0491  -13.5069   27.6481 C   0  0  0  0  0  0  0  0  0  0  0  0
   10.6539  -14.6238   28.5952 C   0  0  0  0  0  0  0  0  0  0  0  0
   10.2338  -15.7168   27.6784 C   0  0  1  0  0  0  0  0  0  0  0  0
    9.2592  -16.6514   28.2906 C   0  0  0  0  0  0  0  0  0  0  0  0
    9.5705  -17.5392   29.2809 O   0  0  0  0  0  0  0  0  0  0  0  0
    8.0791  -16.6081   27.8572 O   0  0  0  0  0  0  0  0  0  0  0  0
  2  1  1  6
  2  3  1  0
  2 10  1  0
  3  4  1  0
  4  9  1  0
  4  5  2  0
  5  6  1  0
  6  7  2  0
  8  7  1  0
  9  8  2  0
 10 11  2  0
 12 13  1  0
 12 10  1  0
 13 14  1  1
 14 15  1  0
 15 16  2  0
 16 17  1  0
 18 17  2  0
 19 18  1  0
 20 19  2  0
 20 15  1  0
 21 13  1  0
 21 22  2  0
 23 21  1  0
 24 23  1  0
 25 24  1  0
 26 25  1  0
 26 27  1  0
 27 28  1  1
 27 23  1  0
 28 29  1  0
 30 28  2  0
M  END
$$$$
