FFP.pdb
     RDKit          3D

 30 32  0  0  1  0  0  0  0  0999 V2000
    9.2182  -18.1379   26.0285 N   0  0  0  0  0  0  0  0  0  0  0  0
    7.8200  -17.8918   26.2740 C   0  0  1  0  0  0  0  0  0  0  0  0
    7.5625  -17.4380   27.6952 C   0  0  0  0  0  0  0  0  0  0  0  0
    8.5619  -16.3894   28.0268 C   0  0  0  0  0  0  0  0  0  0  0  0
    8.3410  -15.0520   27.8602 C   0  0  0  0  0  0  0  0  0  0  0  0
    9.3013  -14.0934   28.1817 C   0  0  0  0  0  0  0  0  0  0  0  0
   10.5060  -14.5163   28.6817 C   0  0  0  0  0  0  0  0  0  0  0  0
   10.7744  -15.8663   28.8677 C   0  0  0  0  0  0  0  0  0  0  0  0
    9.8008  -16.7731   28.5379 C   0  0  0  0  0  0  0  0  0  0  0  0
    7.3503  -16.8881   25.2855 C   0  0  0  0  0  0  0  0  0  0  0  0
    6.1051  -16.7462   25.1390 O   0  0  0  0  0  0  0  0  0  0  0  0
    8.2037  -16.0823   24.4992 N   0  0  0  0  0  0  0  0  0  0  0  0
    7.6890  -15.0957   23.5340 C   0  0  1  0  0  0  0  0  0  0  0  0
    8.3933  -13.7750   23.8867 C   0  0  0  0  0  0  0  0  0  0  0  0
    7.7689  -13.1631   25.0892 C   0  0  0  0  0  0  0  0  0  0  0  0
    8.5113  -12.3981   25.9559 C   0  0  0  0  0  0  0  0  0  0  0  0
    7.9049  -11.8305   27.0828 C   0  0  0  0  0  0  0  0  0  0  0  0
    6.5634  -12.0238   27.3463 C   0  0  0  0  0  0  0  0  0  0  0  0
    5.8271  -12.7856   26.4820 C   0  0  0  0  0  0  0  0  0  0  0  0
    6.4310  -13.3510   25.3594 C   0  0  0  0  0  0  0  0  0  0  0  0
    8.1609  -15.4697   22.1775 C   0  0  0  0  0  0  0  0  0  0  0  0
    8.6718  -16.6404   22.0545 O   0  0  0  0  0  0  0  0  0  0  0  0
    8.0783  -14.6273   21.0417 N   0  0  0  0  0  0  0  0  0  0  0  0
    7.4378  -13.3266   21.0035 C   0  0  0  0  0  0  0  0  0  0  0  0
    7.0775  -13.1744   19.5047 C   0  0  0  0  0  0  0  0  0  0  0  0
    8.3563  -13.7357   18.9129 C   0  0  0  0  0  0  0  0  0  0  0  0
    8.6124  -14.9460   19.7382 C   0  0  1  0  0  0  0  0  0  0  0  0
   10.0455  -15.3215   19.7967 C   0  0  0  0  0  0  0  0  0  0  0  0
   10.6747  -16.0832   18.8533 O   0  0  0  0  0  0  0  0  0  0  0  0
   10.7041  -14.9031   20.7833 O   0  0  0  0  0  0  0  0  0  0  0  0
  2  1  1  1
  2  3  1  0
  2 10  1  0
  3  4  1  0
  4  9  1  0
  4  5  2  0
  5  6  1  0
  6  7  2  0
  8  7  1  0
  9  8  2  0
 10 11  2  0
 12 13  1  0
 12 10  1  0
 13 14  1  1
 14 15  1  0
 15 16  2  0
 16 17  1  0
 18 17  2  0
 19 18  1  0
 20 19  2  0
 20 15  1  0
 21 13  1  0
 21 22  2  0
 23 21  1  0
 24 23  1  0
 25 24  1  0
 26 25  1  0
 26 27  1  0
 27 28  1  1
 27 23  1  0
 28 29  1  0
 30 28  2  0
M  END
$$$$
