FFP.pdb
     RDKit          3D

 30 32  0  0  1  0  0  0  0  0999 V2000
    9.0742  -17.2945   20.7494 N   0  0  0  0  0  0  0  0  0  0  0  0
   10.3056  -16.5806   20.9727 C   0  0  1  0  0  0  0  0  0  0  0  0
   10.6441  -15.6554   19.8232 C   0  0  0  0  0  0  0  0  0  0  0  0
    9.5026  -14.7220   19.6383 C   0  0  0  0  0  0  0  0  0  0  0  0
    8.3838  -15.0264   18.9164 C   0  0  0  0  0  0  0  0  0  0  0  0
    7.3298  -14.1266   18.7625 C   0  0  0  0  0  0  0  0  0  0  0  0
    7.4278  -12.8960   19.3595 C   0  0  0  0  0  0  0  0  0  0  0  0
    8.5468  -12.5433   20.1029 C   0  0  0  0  0  0  0  0  0  0  0  0
    9.5586  -13.4598   20.2273 C   0  0  0  0  0  0  0  0  0  0  0  0
   10.1805  -15.8391   22.2532 C   0  0  0  0  0  0  0  0  0  0  0  0
   11.1351  -15.0865   22.5917 O   0  0  0  0  0  0  0  0  0  0  0  0
    9.0653  -15.9201   23.1167 N   0  0  0  0  0  0  0  0  0  0  0  0
    8.8877  -15.0126   24.2633 C   0  0  1  0  0  0  0  0  0  0  0  0
    7.3683  -14.8160   24.3958 C   0  0  0  0  0  0  0  0  0  0  0  0
    7.0706  -13.7636   25.4029 C   0  0  0  0  0  0  0  0  0  0  0  0
    6.5125  -14.0874   26.6157 C   0  0  0  0  0  0  0  0  0  0  0  0
    6.2396  -13.0818   27.5506 C   0  0  0  0  0  0  0  0  0  0  0  0
    6.5216  -11.7577   27.2792 C   0  0  0  0  0  0  0  0  0  0  0  0
    7.0771  -11.4385   26.0713 C   0  0  0  0  0  0  0  0  0  0  0  0
    7.3489  -12.4401   25.1399 C   0  0  0  0  0  0  0  0  0  0  0  0
    9.3255  -15.7150   25.4953 C   0  0  0  0  0  0  0  0  0  0  0  0
    9.1628  -16.9877   25.5139 O   0  0  0  0  0  0  0  0  0  0  0  0
    9.8992  -15.0736   26.6203 N   0  0  0  0  0  0  0  0  0  0  0  0
    9.8883  -13.6451   26.8710 C   0  0  0  0  0  0  0  0  0  0  0  0
   11.1229  -13.4562   27.7871 C   0  0  0  0  0  0  0  0  0  0  0  0
   10.9361  -14.6800   28.6633 C   0  0  0  0  0  0  0  0  0  0  0  0
   10.5978  -15.7505   27.6879 C   0  0  1  0  0  0  0  0  0  0  0  0
    9.7923  -16.8462   28.2781 C   0  0  0  0  0  0  0  0  0  0  0  0
    8.4860  -17.0899   27.9616 O   0  0  0  0  0  0  0  0  0  0  0  0
   10.3654  -17.5850   29.1195 O   0  0  0  0  0  0  0  0  0  0  0  0
  2  1  1  6
  2  3  1  0
  2 10  1  0
  3  4  1  0
  4  9  1  0
  4  5  2  0
  5  6  1  0
  6  7  2  0
  8  7  1  0
  9  8  2  0
 10 11  2  0
 12 13  1  0
 12 10  1  0
 13 14  1  1
 14 15  1  0
 15 16  2  0
 16 17  1  0
 18 17  2  0
 19 18  1  0
 20 19  2  0
 20 15  1  0
 21 13  1  0
 21 22  2  0
 23 21  1  0
 24 23  1  0
 25 24  1  0
 26 25  1  0
 26 27  1  0
 27 28  1  1
 27 23  1  0
 28 29  1  0
 30 28  2  0
M  END
$$$$
