FFP.pdb
     RDKit          3D

 30 32  0  0  1  0  0  0  0  0999 V2000
    7.0745  -17.2091   20.5550 N   0  0  0  0  0  0  0  0  0  0  0  0
    8.3823  -16.9703   21.1103 C   0  0  1  0  0  0  0  0  0  0  0  0
    9.3455  -16.4171   20.0817 C   0  0  0  0  0  0  0  0  0  0  0  0
    8.8762  -15.0592   19.7018 C   0  0  0  0  0  0  0  0  0  0  0  0
    9.3955  -13.9060   20.2172 C   0  0  0  0  0  0  0  0  0  0  0  0
    8.9316  -12.6467   19.8388 C   0  0  0  0  0  0  0  0  0  0  0  0
    7.9190  -12.5723   18.9172 C   0  0  0  0  0  0  0  0  0  0  0  0
    7.3608  -13.7188   18.3666 C   0  0  0  0  0  0  0  0  0  0  0  0
    7.8484  -14.9353   18.7682 C   0  0  0  0  0  0  0  0  0  0  0  0
    8.2291  -16.0510   22.2664 C   0  0  0  0  0  0  0  0  0  0  0  0
    7.8889  -14.8595   22.0283 O   0  0  0  0  0  0  0  0  0  0  0  0
    8.4385  -16.4212   23.6136 N   0  0  0  0  0  0  0  0  0  0  0  0
    8.4265  -15.4402   24.7124 C   0  0  1  0  0  0  0  0  0  0  0  0
    6.9538  -15.3247   25.1395 C   0  0  0  0  0  0  0  0  0  0  0  0
    6.7686  -14.1575   26.0415 C   0  0  0  0  0  0  0  0  0  0  0  0
    6.3985  -12.9328   25.5412 C   0  0  0  0  0  0  0  0  0  0  0  0
    6.2292  -11.8458   26.4071 C   0  0  0  0  0  0  0  0  0  0  0  0
    6.4278  -11.9776   27.7671 C   0  0  0  0  0  0  0  0  0  0  0  0
    6.7962  -13.1978   28.2622 C   0  0  0  0  0  0  0  0  0  0  0  0
    6.9648  -14.2805   27.3997 C   0  0  0  0  0  0  0  0  0  0  0  0
    9.1517  -16.0183   25.8711 C   0  0  0  0  0  0  0  0  0  0  0  0
    9.1298  -17.2970   25.9768 O   0  0  0  0  0  0  0  0  0  0  0  0
    9.8493  -15.2553   26.8393 N   0  0  0  0  0  0  0  0  0  0  0  0
    9.7839  -13.8133   26.9812 C   0  0  0  0  0  0  0  0  0  0  0  0
   11.1303  -13.4831   27.6722 C   0  0  0  0  0  0  0  0  0  0  0  0
   11.1617  -14.6372   28.6558 C   0  0  0  0  0  0  0  0  0  0  0  0
   10.7474  -15.8021   27.8295 C   0  0  1  0  0  0  0  0  0  0  0  0
   10.1162  -16.8854   28.6206 C   0  0  0  0  0  0  0  0  0  0  0  0
    8.7960  -17.2251   28.5337 O   0  0  0  0  0  0  0  0  0  0  0  0
   10.8591  -17.5181   29.4145 O   0  0  0  0  0  0  0  0  0  0  0  0
  2  1  1  6
  2  3  1  0
  2 10  1  0
  3  4  1  0
  4  9  1  0
  4  5  2  0
  5  6  1  0
  6  7  2  0
  8  7  1  0
  9  8  2  0
 10 11  2  0
 12 13  1  0
 12 10  1  0
 13 14  1  1
 14 15  1  0
 15 16  2  0
 16 17  1  0
 18 17  2  0
 19 18  1  0
 20 19  2  0
 20 15  1  0
 21 13  1  0
 21 22  2  0
 23 21  1  0
 24 23  1  0
 25 24  1  0
 26 25  1  0
 26 27  1  0
 27 28  1  1
 27 23  1  0
 28 29  1  0
 30 28  2  0
M  END
$$$$
