FFP.pdb
     RDKit          3D

 30 32  0  0  1  0  0  0  0  0999 V2000
   11.4081  -16.5834   20.1385 N   0  0  0  0  0  0  0  0  0  0  0  0
   11.0877  -17.2514   21.3742 C   0  0  1  0  0  0  0  0  0  0  0  0
   12.2500  -18.0675   21.8985 C   0  0  0  0  0  0  0  0  0  0  0  0
   12.1531  -19.4286   21.3101 C   0  0  0  0  0  0  0  0  0  0  0  0
   13.0852  -20.4074   21.5064 C   0  0  0  0  0  0  0  0  0  0  0  0
   12.9638  -21.6753   20.9389 C   0  0  0  0  0  0  0  0  0  0  0  0
   11.8680  -21.9404   20.1584 C   0  0  0  0  0  0  0  0  0  0  0  0
   10.8951  -20.9755   19.9315 C   0  0  0  0  0  0  0  0  0  0  0  0
   11.0560  -19.7431   20.5096 C   0  0  0  0  0  0  0  0  0  0  0  0
   10.6559  -16.2221   22.3536 C   0  0  0  0  0  0  0  0  0  0  0  0
   11.3659  -15.1852   22.4675 O   0  0  0  0  0  0  0  0  0  0  0  0
    9.5044  -16.3263   23.1655 N   0  0  0  0  0  0  0  0  0  0  0  0
    9.1292  -15.2871   24.1397 C   0  0  1  0  0  0  0  0  0  0  0  0
    7.6046  -15.1358   24.0070 C   0  0  0  0  0  0  0  0  0  0  0  0
    7.1100  -14.0760   24.9251 C   0  0  0  0  0  0  0  0  0  0  0  0
    7.4190  -12.7553   24.7072 C   0  0  0  0  0  0  0  0  0  0  0  0
    6.9436  -11.7723   25.5833 C   0  0  0  0  0  0  0  0  0  0  0  0
    6.1629  -12.1029   26.6730 C   0  0  0  0  0  0  0  0  0  0  0  0
    5.8569  -13.4183   26.8872 C   0  0  0  0  0  0  0  0  0  0  0  0
    6.3305  -14.3976   26.0147 C   0  0  0  0  0  0  0  0  0  0  0  0
    9.3783  -15.8077   25.5070 C   0  0  0  0  0  0  0  0  0  0  0  0
    9.2612  -17.0759   25.6639 O   0  0  0  0  0  0  0  0  0  0  0  0
    9.7306  -15.0021   26.6174 N   0  0  0  0  0  0  0  0  0  0  0  0
    9.6110  -13.5580   26.6811 C   0  0  0  0  0  0  0  0  0  0  0  0
   10.6701  -13.1807   27.7465 C   0  0  0  0  0  0  0  0  0  0  0  0
   10.4021  -14.3034   28.7305 C   0  0  0  0  0  0  0  0  0  0  0  0
   10.2781  -15.5009   27.8574 C   0  0  1  0  0  0  0  0  0  0  0  0
    9.4406  -16.5717   28.4488 C   0  0  0  0  0  0  0  0  0  0  0  0
    9.8043  -17.3126   29.5372 O   0  0  0  0  0  0  0  0  0  0  0  0
    8.3312  -16.7958   27.8998 O   0  0  0  0  0  0  0  0  0  0  0  0
  2  1  1  6
  2  3  1  0
  2 10  1  0
  3  4  1  0
  4  9  1  0
  4  5  2  0
  5  6  1  0
  6  7  2  0
  8  7  1  0
  9  8  2  0
 10 11  2  0
 12 13  1  0
 12 10  1  0
 13 14  1  1
 14 15  1  0
 15 16  2  0
 16 17  1  0
 18 17  2  0
 19 18  1  0
 20 19  2  0
 20 15  1  0
 21 13  1  0
 21 22  2  0
 23 21  1  0
 24 23  1  0
 25 24  1  0
 26 25  1  0
 26 27  1  0
 27 28  1  1
 27 23  1  0
 28 29  1  0
 30 28  2  0
M  END
$$$$
