NCS.pdb
     RDKit          3D

 21 20  0  0  1  0  0  0  0  0999 V2000
    5.7621  -20.3774   18.0484 N   0  0  0  0  0  0  0  0  0  0  0  0
    5.7062  -19.0618   18.5997 C   0  0  0  0  0  0  0  0  0  0  0  0
    4.6770  -18.3990   18.3881 O   0  0  0  0  0  0  0  0  0  0  0  0
    6.8383  -18.5380   19.3834 C   0  0  0  0  0  0  0  0  0  0  0  0
    7.3635  -17.3069   18.6890 C   0  0  2  0  0  0  0  0  0  0  0  0
    8.2075  -17.7368   17.6018 N   0  0  0  0  0  0  0  0  0  0  0  0
    8.1497  -16.5241   19.6846 C   0  0  0  0  0  0  0  0  0  0  0  0
    9.2259  -15.9579   19.3780 O   0  0  0  0  0  0  0  0  0  0  0  0
    7.6767  -16.4149   21.0027 N   0  0  0  0  0  0  0  0  0  0  0  0
    8.2968  -15.5282   21.9375 C   0  0  1  0  0  0  0  0  0  0  0  0
    7.3017  -14.7415   22.7593 C   0  0  0  0  0  0  0  0  0  0  0  0
    8.0809  -13.9238   24.1678 S   0  0  0  0  0  0  0  0  0  0  0  0
    9.0962  -16.3429   22.8889 C   0  0  0  0  0  0  0  0  0  0  0  0
    8.5942  -17.3386   23.4448 O   0  0  0  0  0  0  0  0  0  0  0  0
   12.8138  -16.3726   22.4488 O   0  0  0  0  0  0  0  0  0  0  0  0
   12.6796  -16.6024   23.8055 C   0  0  0  0  0  0  0  0  0  0  0  0
   11.2074  -16.9368   24.0491 C   0  0  2  0  0  0  0  0  0  0  0  0
   10.4456  -16.0363   23.2081 N   0  0  0  0  0  0  0  0  0  0  0  0
   10.9462  -16.7375   25.4742 C   0  0  0  0  0  0  0  0  0  0  0  0
   10.1099  -15.8905   25.8776 O   0  0  0  0  0  0  0  0  0  0  0  0
   11.6250  -17.4888   26.4211 O   0  0  0  0  0  0  0  0  0  0  0  0
  2  1  1  0
  2  4  1  0
  3  2  2  0
  5  6  1  6
  5  7  1  0
  5  4  1  0
  7  9  1  0
  7  8  2  0
  9 10  1  0
 10 13  1  0
 10 11  1  1
 12 11  1  0
 13 18  1  0
 13 14  2  0
 15 16  1  0
 17 16  1  1
 17 19  1  0
 18 17  1  0
 19 21  1  0
 20 19  2  0
M  END
$$$$
