NCS.pdb
     RDKit          3D

 21 20  0  0  1  0  0  0  0  0999 V2000
    7.7052  -17.2439   19.3538 N   0  0  0  0  0  0  0  0  0  0  0  0
    8.4552  -16.0413   19.1836 C   0  0  0  0  0  0  0  0  0  0  0  0
    8.8502  -15.7742   18.0364 O   0  0  0  0  0  0  0  0  0  0  0  0
    8.7340  -15.1719   20.3397 C   0  0  0  0  0  0  0  0  0  0  0  0
    8.2250  -15.8600   21.5811 C   0  0  2  0  0  0  0  0  0  0  0  0
    6.7873  -15.9270   21.4935 N   0  0  0  0  0  0  0  0  0  0  0  0
    8.6407  -15.0427   22.7565 C   0  0  0  0  0  0  0  0  0  0  0  0
    9.8469  -14.7974   22.9966 O   0  0  0  0  0  0  0  0  0  0  0  0
    7.6588  -14.5315   23.6211 N   0  0  0  0  0  0  0  0  0  0  0  0
    8.0183  -13.8812   24.8427 C   0  0  1  0  0  0  0  0  0  0  0  0
    6.9140  -13.0125   25.4000 C   0  0  0  0  0  0  0  0  0  0  0  0
    7.3040  -12.3958   27.0515 S   0  0  0  0  0  0  0  0  0  0  0  0
    8.3009  -14.9276   25.8590 C   0  0  0  0  0  0  0  0  0  0  0  0
    7.4166  -15.7395   26.1926 O   0  0  0  0  0  0  0  0  0  0  0  0
   11.7044  -16.4620   26.3459 O   0  0  0  0  0  0  0  0  0  0  0  0
   10.6591  -17.1143   26.9731 C   0  0  0  0  0  0  0  0  0  0  0  0
    9.7476  -16.0290   27.5473 C   0  0  2  0  0  0  0  0  0  0  0  0
    9.5666  -15.0549   26.4905 N   0  0  0  0  0  0  0  0  0  0  0  0
   10.4196  -15.4727   28.7210 C   0  0  0  0  0  0  0  0  0  0  0  0
   10.6908  -14.2484   28.8050 O   0  0  0  0  0  0  0  0  0  0  0  0
   10.7756  -16.2956   29.7782 O   0  0  0  0  0  0  0  0  0  0  0  0
  2  1  1  0
  2  4  1  0
  3  2  2  0
  5  6  1  6
  5  7  1  0
  5  4  1  0
  7  9  1  0
  7  8  2  0
  9 10  1  0
 10 13  1  0
 10 11  1  1
 12 11  1  0
 13 18  1  0
 13 14  2  0
 15 16  1  0
 17 16  1  6
 17 19  1  0
 18 17  1  0
 19 21  1  0
 20 19  2  0
M  END
$$$$
