NCS.pdb
     RDKit          3D

 21 20  0  0  1  0  0  0  0  0999 V2000
    7.3908  -13.5471   14.3102 N   0  0  0  0  0  0  0  0  0  0  0  0
    8.2203  -14.1013   15.3312 C   0  0  0  0  0  0  0  0  0  0  0  0
    9.4496  -13.9986   15.1844 O   0  0  0  0  0  0  0  0  0  0  0  0
    7.6148  -14.7624   16.5002 C   0  0  0  0  0  0  0  0  0  0  0  0
    8.1046  -14.0640   17.7436 C   0  0  2  0  0  0  0  0  0  0  0  0
    8.9066  -12.9381   17.3333 N   0  0  0  0  0  0  0  0  0  0  0  0
    8.9259  -15.0376   18.5180 C   0  0  0  0  0  0  0  0  0  0  0  0
    8.4432  -16.1110   18.9511 O   0  0  0  0  0  0  0  0  0  0  0  0
   10.2770  -14.7495   18.7722 N   0  0  0  0  0  0  0  0  0  0  0  0
   11.0987  -15.6585   19.5090 C   0  0  1  0  0  0  0  0  0  0  0  0
   12.5639  -15.5572   19.1518 C   0  0  0  0  0  0  0  0  0  0  0  0
   13.2118  -13.8920   19.4109 S   0  0  0  0  0  0  0  0  0  0  0  0
   10.9807  -15.3246   20.9521 C   0  0  0  0  0  0  0  0  0  0  0  0
   11.2400  -14.1754   21.3579 O   0  0  0  0  0  0  0  0  0  0  0  0
    9.2744  -15.7540   25.2151 O   0  0  0  0  0  0  0  0  0  0  0  0
    9.2213  -16.0819   23.8730 C   0  0  0  0  0  0  0  0  0  0  0  0
   10.6446  -15.9415   23.3317 C   0  0  2  0  0  0  0  0  0  0  0  0
   10.5748  -16.2770   21.9242 N   0  0  0  0  0  0  0  0  0  0  0  0
   11.4915  -16.8605   24.0914 C   0  0  0  0  0  0  0  0  0  0  0  0
   11.8258  -17.9807   23.6300 O   0  0  0  0  0  0  0  0  0  0  0  0
   11.9484  -16.5096   25.3523 O   0  0  0  0  0  0  0  0  0  0  0  0
  2  1  1  0
  2  4  1  0
  3  2  2  0
  5  6  1  6
  5  7  1  0
  5  4  1  0
  7  9  1  0
  7  8  2  0
  9 10  1  0
 10 13  1  0
 10 11  1  6
 12 11  1  0
 13 18  1  0
 13 14  2  0
 15 16  1  0
 17 16  1  1
 17 19  1  0
 18 17  1  0
 19 21  1  0
 20 19  2  0
M  END
$$$$
