NCS.pdb
     RDKit          3D

 21 20  0  0  1  0  0  0  0  0999 V2000
    5.4893  -16.9307   19.6915 N   0  0  0  0  0  0  0  0  0  0  0  0
    6.8996  -16.7426   19.8073 C   0  0  0  0  0  0  0  0  0  0  0  0
    7.5794  -16.8841   18.7771 O   0  0  0  0  0  0  0  0  0  0  0  0
    7.4966  -16.3953   21.1085 C   0  0  0  0  0  0  0  0  0  0  0  0
    7.5771  -14.8927   21.2047 C   0  0  2  0  0  0  0  0  0  0  0  0
    8.4287  -14.4248   20.1393 N   0  0  0  0  0  0  0  0  0  0  0  0
    8.1642  -14.5531   22.5321 C   0  0  0  0  0  0  0  0  0  0  0  0
    9.3790  -14.7374   22.7833 O   0  0  0  0  0  0  0  0  0  0  0  0
    7.3388  -14.0119   23.5316 N   0  0  0  0  0  0  0  0  0  0  0  0
    7.8511  -13.7244   24.8352 C   0  0  1  0  0  0  0  0  0  0  0  0
    6.9446  -12.8253   25.6442 C   0  0  0  0  0  0  0  0  0  0  0  0
    7.4898  -12.6781   27.3591 S   0  0  0  0  0  0  0  0  0  0  0  0
    7.9679  -15.0048   25.5801 C   0  0  0  0  0  0  0  0  0  0  0  0
    6.9679  -15.7272   25.7553 O   0  0  0  0  0  0  0  0  0  0  0  0
   11.0697  -17.1549   25.4702 O   0  0  0  0  0  0  0  0  0  0  0  0
    9.8974  -17.7306   25.9240 C   0  0  0  0  0  0  0  0  0  0  0  0
    9.2409  -16.7106   26.8552 C   0  0  2  0  0  0  0  0  0  0  0  0
    9.1989  -15.4631   26.1200 N   0  0  0  0  0  0  0  0  0  0  0  0
   10.0643  -16.6296   28.0611 C   0  0  0  0  0  0  0  0  0  0  0  0
   10.6162  -15.5556   28.4099 O   0  0  0  0  0  0  0  0  0  0  0  0
   10.2549  -17.7506   28.8540 O   0  0  0  0  0  0  0  0  0  0  0  0
  2  1  1  0
  2  4  1  0
  3  2  2  0
  5  6  1  6
  5  7  1  0
  5  4  1  0
  7  9  1  0
  7  8  2  0
  9 10  1  0
 10 13  1  0
 10 11  1  1
 12 11  1  0
 13 18  1  0
 13 14  2  0
 15 16  1  0
 17 16  1  6
 17 19  1  0
 18 17  1  0
 19 21  1  0
 20 19  2  0
M  END
$$$$
