NCS.pdb
     RDKit          3D

 21 20  0  0  1  0  0  0  0  0999 V2000
    8.1087  -18.1539   16.0759 N   0  0  0  0  0  0  0  0  0  0  0  0
    8.2317  -18.9352   17.2643 C   0  0  0  0  0  0  0  0  0  0  0  0
    8.8119  -20.0295   17.1687 O   0  0  0  0  0  0  0  0  0  0  0  0
    7.6831  -18.4383   18.5379 C   0  0  0  0  0  0  0  0  0  0  0  0
    6.8375  -19.5292   19.1451 C   0  0  2  0  0  0  0  0  0  0  0  0
    5.7005  -19.7405   18.2838 N   0  0  0  0  0  0  0  0  0  0  0  0
    6.3959  -19.0658   20.4913 C   0  0  0  0  0  0  0  0  0  0  0  0
    5.3898  -18.3320   20.6398 O   0  0  0  0  0  0  0  0  0  0  0  0
    7.1230  -19.4589   21.6271 N   0  0  0  0  0  0  0  0  0  0  0  0
    6.7074  -19.0711   22.9392 C   0  0  1  0  0  0  0  0  0  0  0  0
    6.5630  -20.2405   23.8859 C   0  0  0  0  0  0  0  0  0  0  0  0
    6.4393  -19.7088   25.6069 S   0  0  0  0  0  0  0  0  0  0  0  0
    7.7486  -18.1778   23.5100 C   0  0  0  0  0  0  0  0  0  0  0  0
    8.9506  -18.5037   23.4721 O   0  0  0  0  0  0  0  0  0  0  0  0
    8.8283  -14.0823   25.7668 O   0  0  0  0  0  0  0  0  0  0  0  0
    7.8206  -14.8706   25.2428 C   0  0  0  0  0  0  0  0  0  0  0  0
    8.4845  -16.1543   24.7428 C   0  0  2  0  0  0  0  0  0  0  0  0
    7.4355  -16.9321   24.1159 N   0  0  0  0  0  0  0  0  0  0  0  0
    9.0679  -16.8233   25.9050 C   0  0  0  0  0  0  0  0  0  0  0  0
   10.1651  -16.4543   26.3944 O   0  0  0  0  0  0  0  0  0  0  0  0
    8.4137  -17.8921   26.4978 O   0  0  0  0  0  0  0  0  0  0  0  0
  2  1  1  0
  2  4  1  0
  3  2  2  0
  5  6  1  6
  5  7  1  0
  5  4  1  0
  7  9  1  0
  7  8  2  0
  9 10  1  0
 10 13  1  0
 10 11  1  1
 12 11  1  0
 13 18  1  0
 13 14  2  0
 15 16  1  0
 17 16  1  1
 17 19  1  0
 18 17  1  0
 19 21  1  0
 20 19  2  0
M  END
$$$$
