NCS.pdb
     RDKit          3D

 21 20  0  0  1  0  0  0  0  0999 V2000
    8.2082  -14.8054   13.4477 N   0  0  0  0  0  0  0  0  0  0  0  0
    8.6106  -15.6380   14.5352 C   0  0  0  0  0  0  0  0  0  0  0  0
    8.4989  -16.8660   14.3838 O   0  0  0  0  0  0  0  0  0  0  0  0
    9.1333  -15.0371   15.7745 C   0  0  0  0  0  0  0  0  0  0  0  0
    9.5383  -16.1522   16.7052 C   0  0  2  0  0  0  0  0  0  0  0  0
    8.4526  -17.0995   16.7616 N   0  0  0  0  0  0  0  0  0  0  0  0
    9.7835  -15.5559   18.0493 C   0  0  0  0  0  0  0  0  0  0  0  0
   10.9424  -15.4130   18.5066 O   0  0  0  0  0  0  0  0  0  0  0  0
    8.6904  -15.1415   18.8281 N   0  0  0  0  0  0  0  0  0  0  0  0
    8.8754  -14.6633   20.1629 C   0  0  1  0  0  0  0  0  0  0  0  0
    7.6967  -13.8693   20.6776 C   0  0  0  0  0  0  0  0  0  0  0  0
    7.5328  -12.2782   19.8401 S   0  0  0  0  0  0  0  0  0  0  0  0
    9.0302  -15.8385   21.0589 C   0  0  0  0  0  0  0  0  0  0  0  0
    8.7604  -16.9843   20.6505 O   0  0  0  0  0  0  0  0  0  0  0  0
   12.5934  -17.4636   22.6843 O   0  0  0  0  0  0  0  0  0  0  0  0
   11.6849  -16.5857   22.1228 C   0  0  0  0  0  0  0  0  0  0  0  0
   10.3970  -16.7077   22.9383 C   0  0  2  0  0  0  0  0  0  0  0  0
    9.4842  -15.7204   22.3994 N   0  0  0  0  0  0  0  0  0  0  0  0
   10.7424  -16.4556   24.3369 C   0  0  0  0  0  0  0  0  0  0  0  0
   11.4624  -17.2519   24.9905 O   0  0  0  0  0  0  0  0  0  0  0  0
   10.2763  -15.3183   24.9780 O   0  0  0  0  0  0  0  0  0  0  0  0
  2  1  1  0
  2  4  1  0
  3  2  2  0
  5  6  1  1
  5  7  1  0
  5  4  1  0
  7  9  1  0
  7  8  2  0
  9 10  1  0
 10 13  1  0
 10 11  1  1
 12 11  1  0
 13 18  1  0
 13 14  2  0
 15 16  1  0
 17 16  1  6
 17 19  1  0
 18 17  1  0
 19 21  1  0
 20 19  2  0
M  END
$$$$
