NCS.pdb
     RDKit          3D

 21 20  0  0  1  0  0  0  0  0999 V2000
    2.7943  -20.4503   21.8634 N   0  0  0  0  0  0  0  0  0  0  0  0
    2.5954  -19.2017   21.2006 C   0  0  0  0  0  0  0  0  0  0  0  0
    1.4637  -18.9750   20.7409 O   0  0  0  0  0  0  0  0  0  0  0  0
    3.7056  -18.2407   21.0817 C   0  0  0  0  0  0  0  0  0  0  0  0
    4.8964  -18.8022   21.8167 C   0  0  2  0  0  0  0  0  0  0  0  0
    4.4869  -19.0932   23.1683 N   0  0  0  0  0  0  0  0  0  0  0  0
    5.9675  -17.7655   21.8056 C   0  0  0  0  0  0  0  0  0  0  0  0
    6.4315  -17.3070   20.7345 O   0  0  0  0  0  0  0  0  0  0  0  0
    6.4739  -17.2861   23.0250 N   0  0  0  0  0  0  0  0  0  0  0  0
    7.5543  -16.3500   23.0576 C   0  0  1  0  0  0  0  0  0  0  0  0
    7.4700  -15.3866   24.2193 C   0  0  0  0  0  0  0  0  0  0  0  0
    6.5515  -16.0801   25.6105 S   0  0  0  0  0  0  0  0  0  0  0  0
    8.8213  -17.1098   23.2161 C   0  0  0  0  0  0  0  0  0  0  0  0
    8.8637  -18.1238   23.9389 O   0  0  0  0  0  0  0  0  0  0  0  0
   12.0813  -16.0202   21.1692 O   0  0  0  0  0  0  0  0  0  0  0  0
   11.9887  -17.3821   21.3892 C   0  0  0  0  0  0  0  0  0  0  0  0
   11.2030  -17.5629   22.6886 C   0  0  2  0  0  0  0  0  0  0  0  0
   10.0251  -16.7286   22.5662 N   0  0  0  0  0  0  0  0  0  0  0  0
   12.0771  -17.1508   23.7863 C   0  0  0  0  0  0  0  0  0  0  0  0
   11.8560  -16.1039   24.4457 O   0  0  0  0  0  0  0  0  0  0  0  0
   13.1816  -17.9167   24.1257 O   0  0  0  0  0  0  0  0  0  0  0  0
  2  1  1  0
  2  4  1  0
  3  2  2  0
  5  6  1  1
  5  7  1  0
  5  4  1  0
  7  9  1  0
  7  8  2  0
  9 10  1  0
 10 13  1  0
 10 11  1  1
 12 11  1  0
 13 18  1  0
 13 14  2  0
 15 16  1  0
 17 16  1  6
 17 19  1  0
 18 17  1  0
 19 21  1  0
 20 19  2  0
M  END
$$$$
