NCS.pdb
     RDKit          3D

 21 20  0  0  1  0  0  0  0  0999 V2000
    7.4842  -13.1149   16.3948 N   0  0  0  0  0  0  0  0  0  0  0  0
    8.4106  -14.0414   16.9613 C   0  0  0  0  0  0  0  0  0  0  0  0
    8.7968  -14.9747   16.2381 O   0  0  0  0  0  0  0  0  0  0  0  0
    8.8723  -13.8723   18.3500 C   0  0  0  0  0  0  0  0  0  0  0  0
    8.8231  -15.2170   19.0306 C   0  0  2  0  0  0  0  0  0  0  0  0
    7.4462  -15.6430   19.0726 N   0  0  0  0  0  0  0  0  0  0  0  0
    9.3614  -15.0479   20.4104 C   0  0  0  0  0  0  0  0  0  0  0  0
   10.5513  -14.7105   20.6181 O   0  0  0  0  0  0  0  0  0  0  0  0
    8.5172  -15.2713   21.5106 N   0  0  0  0  0  0  0  0  0  0  0  0
    9.0189  -15.2146   22.8484 C   0  0  1  0  0  0  0  0  0  0  0  0
    7.9321  -15.0297   23.8825 C   0  0  0  0  0  0  0  0  0  0  0  0
    7.1209  -13.4235   23.7345 S   0  0  0  0  0  0  0  0  0  0  0  0
    9.6864  -16.5078   23.1482 C   0  0  0  0  0  0  0  0  0  0  0  0
    9.1092  -17.5864   22.9121 O   0  0  0  0  0  0  0  0  0  0  0  0
   13.5579  -16.6601   23.7682 O   0  0  0  0  0  0  0  0  0  0  0  0
   12.9755  -17.8544   23.3862 C   0  0  0  0  0  0  0  0  0  0  0  0
   11.5747  -17.8739   23.9992 C   0  0  2  0  0  0  0  0  0  0  0  0
   10.9897  -16.5812   23.7077 N   0  0  0  0  0  0  0  0  0  0  0  0
   11.7309  -18.1143   25.4333 C   0  0  0  0  0  0  0  0  0  0  0  0
   11.4389  -17.2356   26.2831 O   0  0  0  0  0  0  0  0  0  0  0  0
   12.2105  -19.3321   25.8899 O   0  0  0  0  0  0  0  0  0  0  0  0
  2  1  1  0
  2  4  1  0
  3  2  2  0
  5  6  1  1
  5  7  1  0
  5  4  1  0
  7  9  1  0
  7  8  2  0
  9 10  1  0
 10 13  1  0
 10 11  1  1
 12 11  1  0
 13 18  1  0
 13 14  2  0
 15 16  1  0
 17 16  1  6
 17 19  1  0
 18 17  1  0
 19 21  1  0
 20 19  2  0
M  END
$$$$
