NCS.pdb
     RDKit          3D

 21 20  0  0  1  0  0  0  0  0999 V2000
    7.9654  -17.2193   16.6031 N   0  0  0  0  0  0  0  0  0  0  0  0
    8.1947  -15.8593   16.9712 C   0  0  0  0  0  0  0  0  0  0  0  0
    9.3504  -15.4219   16.8433 O   0  0  0  0  0  0  0  0  0  0  0  0
    7.0865  -15.0321   17.4789 C   0  0  0  0  0  0  0  0  0  0  0  0
    7.6388  -13.6782   17.8475 C   0  0  2  0  0  0  0  0  0  0  0  0
    8.5841  -13.2924   16.8294 N   0  0  0  0  0  0  0  0  0  0  0  0
    8.3160  -13.8082   19.1691 C   0  0  0  0  0  0  0  0  0  0  0  0
    9.5629  -13.7349   19.2820 O   0  0  0  0  0  0  0  0  0  0  0  0
    7.5412  -14.0184   20.3217 N   0  0  0  0  0  0  0  0  0  0  0  0
    8.1473  -14.0875   21.6150 C   0  0  1  0  0  0  0  0  0  0  0  0
    7.1553  -13.9298   22.7445 C   0  0  0  0  0  0  0  0  0  0  0  0
    7.9229  -14.1731   24.3605 S   0  0  0  0  0  0  0  0  0  0  0  0
    8.7656  -15.4302   21.7659 C   0  0  0  0  0  0  0  0  0  0  0  0
    8.1304  -16.4566   21.4569 O   0  0  0  0  0  0  0  0  0  0  0  0
   12.6127  -15.8610   21.9111 O   0  0  0  0  0  0  0  0  0  0  0  0
   11.9003  -17.0068   21.6095 C   0  0  0  0  0  0  0  0  0  0  0  0
   10.6113  -16.9494   22.4303 C   0  0  2  0  0  0  0  0  0  0  0  0
   10.0849  -15.6106   22.2598 N   0  0  0  0  0  0  0  0  0  0  0  0
   10.9658  -17.2458   23.8179 C   0  0  0  0  0  0  0  0  0  0  0  0
   10.7306  -16.4309   24.7453 O   0  0  0  0  0  0  0  0  0  0  0  0
   11.5763  -18.4475   24.1420 O   0  0  0  0  0  0  0  0  0  0  0  0
  2  1  1  0
  2  4  1  0
  3  2  2  0
  5  6  1  6
  5  7  1  0
  5  4  1  0
  7  9  1  0
  7  8  2  0
  9 10  1  0
 10 13  1  0
 10 11  1  1
 12 11  1  0
 13 18  1  0
 13 14  2  0
 15 16  1  0
 17 16  1  6
 17 19  1  0
 18 17  1  0
 19 21  1  0
 20 19  2  0
M  END
$$$$
