NCS.pdb
     RDKit          3D

 21 20  0  0  1  0  0  0  0  0999 V2000
    5.8438  -17.2590   19.7157 N   0  0  0  0  0  0  0  0  0  0  0  0
    7.1743  -17.4090   20.2107 C   0  0  0  0  0  0  0  0  0  0  0  0
    8.0014  -17.9573   19.4634 O   0  0  0  0  0  0  0  0  0  0  0  0
    7.5231  -16.9236   21.5572 C   0  0  0  0  0  0  0  0  0  0  0  0
    8.0714  -15.5250   21.4272 C   0  0  2  0  0  0  0  0  0  0  0  0
    9.1488  -15.5580   20.4694 N   0  0  0  0  0  0  0  0  0  0  0  0
    8.5741  -15.1076   22.7670 C   0  0  0  0  0  0  0  0  0  0  0  0
    9.7639  -15.2983   23.1145 O   0  0  0  0  0  0  0  0  0  0  0  0
    7.6955  -14.4835   23.6679 N   0  0  0  0  0  0  0  0  0  0  0  0
    8.1528  -14.0158   24.9394 C   0  0  1  0  0  0  0  0  0  0  0  0
    7.1879  -13.0597   25.6022 C   0  0  0  0  0  0  0  0  0  0  0  0
    7.7260  -12.5944   27.2617 S   0  0  0  0  0  0  0  0  0  0  0  0
    8.2900  -15.1879   25.8424 C   0  0  0  0  0  0  0  0  0  0  0  0
    7.3068  -15.9110   26.0928 O   0  0  0  0  0  0  0  0  0  0  0  0
   11.4863  -17.1005   26.1200 O   0  0  0  0  0  0  0  0  0  0  0  0
   10.4046  -17.7359   26.7012 C   0  0  0  0  0  0  0  0  0  0  0  0
    9.5733  -16.6487   27.3835 C   0  0  2  0  0  0  0  0  0  0  0  0
    9.5226  -15.5383   26.4545 N   0  0  0  0  0  0  0  0  0  0  0  0
   10.2468  -16.3083   28.6363 C   0  0  0  0  0  0  0  0  0  0  0  0
   10.6348  -15.1375   28.8775 O   0  0  0  0  0  0  0  0  0  0  0  0
   10.4735  -17.2832   29.5954 O   0  0  0  0  0  0  0  0  0  0  0  0
  2  1  1  0
  2  4  1  0
  3  2  2  0
  5  6  1  6
  5  7  1  0
  5  4  1  0
  7  9  1  0
  7  8  2  0
  9 10  1  0
 10 13  1  0
 10 11  1  1
 12 11  1  0
 13 18  1  0
 13 14  2  0
 15 16  1  0
 17 16  1  6
 17 19  1  0
 18 17  1  0
 19 21  1  0
 20 19  2  0
M  END
$$$$
