NCS.pdb
     RDKit          3D

 21 20  0  0  1  0  0  0  0  0999 V2000
    8.0552  -15.8501   12.3029 N   0  0  0  0  0  0  0  0  0  0  0  0
    9.2212  -16.2703   13.0112 C   0  0  0  0  0  0  0  0  0  0  0  0
    9.7884  -17.3014   12.6132 O   0  0  0  0  0  0  0  0  0  0  0  0
    9.7086  -15.4929   14.1636 C   0  0  0  0  0  0  0  0  0  0  0  0
    9.4321  -16.2837   15.4173 C   0  0  2  0  0  0  0  0  0  0  0  0
    8.0069  -16.4816   15.5119 N   0  0  0  0  0  0  0  0  0  0  0  0
    9.9284  -15.4875   16.5757 C   0  0  0  0  0  0  0  0  0  0  0  0
   11.1424  -15.2030   16.7095 O   0  0  0  0  0  0  0  0  0  0  0  0
    9.0157  -15.0417   17.5459 N   0  0  0  0  0  0  0  0  0  0  0  0
    9.4647  -14.3835   18.7333 C   0  0  1  0  0  0  0  0  0  0  0  0
    8.3463  -13.7183   19.5022 C   0  0  0  0  0  0  0  0  0  0  0  0
    7.5166  -12.4450   18.5275 S   0  0  0  0  0  0  0  0  0  0  0  0
   10.0605  -15.4054   19.6325 C   0  0  0  0  0  0  0  0  0  0  0  0
    9.5082  -16.5118   19.7851 O   0  0  0  0  0  0  0  0  0  0  0  0
   13.6306  -14.7706   21.3662 O   0  0  0  0  0  0  0  0  0  0  0  0
   13.3415  -16.0910   21.0755 C   0  0  0  0  0  0  0  0  0  0  0  0
   11.8221  -16.2371   21.1691 C   0  0  2  0  0  0  0  0  0  0  0  0
   11.2650  -15.1799   20.3504 N   0  0  0  0  0  0  0  0  0  0  0  0
   11.4592  -16.1112   22.5802 C   0  0  0  0  0  0  0  0  0  0  0  0
   10.7536  -15.1577   22.9954 O   0  0  0  0  0  0  0  0  0  0  0  0
   11.8921  -17.0537   23.5001 O   0  0  0  0  0  0  0  0  0  0  0  0
  2  1  1  0
  2  4  1  0
  3  2  2  0
  5  6  1  1
  5  7  1  0
  5  4  1  0
  7  9  1  0
  7  8  2  0
  9 10  1  0
 10 13  1  0
 10 11  1  1
 12 11  1  0
 13 18  1  0
 13 14  2  0
 15 16  1  0
 17 16  1  1
 17 19  1  0
 18 17  1  0
 19 21  1  0
 20 19  2  0
M  END
$$$$
