NCS.pdb
     RDKit          3D

 21 20  0  0  1  0  0  0  0  0999 V2000
   -1.9717  -28.2391   25.9666 N   0  0  0  0  0  0  0  0  0  0  0  0
   -1.1626  -27.5510   26.9204 C   0  0  0  0  0  0  0  0  0  0  0  0
    0.0089  -27.9403   27.0595 O   0  0  0  0  0  0  0  0  0  0  0  0
   -1.7213  -26.4286   27.6937 C   0  0  0  0  0  0  0  0  0  0  0  0
   -3.1652  -26.2539   27.2959 C   0  0  2  0  0  0  0  0  0  0  0  0
   -3.1953  -25.6126   26.0048 N   0  0  0  0  0  0  0  0  0  0  0  0
   -3.8188  -25.3940   28.3232 C   0  0  0  0  0  0  0  0  0  0  0  0
   -3.8639  -25.7272   29.5314 O   0  0  0  0  0  0  0  0  0  0  0  0
   -4.4013  -24.1770   27.9325 N   0  0  0  0  0  0  0  0  0  0  0  0
   -5.0545  -23.3332   28.8843 C   0  0  1  0  0  0  0  0  0  0  0  0
   -4.9593  -21.8646   28.5393 C   0  0  0  0  0  0  0  0  0  0  0  0
   -5.9016  -20.8360   29.6855 S   0  0  0  0  0  0  0  0  0  0  0  0
   -6.4989  -23.6819   28.8984 C   0  0  0  0  0  0  0  0  0  0  0  0
   -7.1517  -23.7130   27.8377 O   0  0  0  0  0  0  0  0  0  0  0  0
   -8.0435  -25.1864   32.1436 O   0  0  0  0  0  0  0  0  0  0  0  0
   -8.7961  -25.4907   31.0244 C   0  0  0  0  0  0  0  0  0  0  0  0
   -8.6023  -24.3368   30.0398 C   0  0  2  0  0  0  0  0  0  0  0  0
   -7.1965  -23.9916   30.0960 N   0  0  0  0  0  0  0  0  0  0  0  0
   -9.4715  -23.2438   30.4742 C   0  0  0  0  0  0  0  0  0  0  0  0
   -9.0021  -22.1426   30.8571 O   0  0  0  0  0  0  0  0  0  0  0  0
  -10.8486  -23.4028   30.4723 O   0  0  0  0  0  0  0  0  0  0  0  0
  2  1  1  0
  2  4  1  0
  3  2  2  0
  5  6  1  6
  5  7  1  0
  5  4  1  0
  7  9  1  0
  7  8  2  0
  9 10  1  0
 10 13  1  0
 10 11  1  6
 12 11  1  0
 13 18  1  0
 13 14  2  0
 15 16  1  0
 17 16  1  1
 17 19  1  0
 18 17  1  0
 19 21  1  0
 20 19  2  0
M  END
$$$$
