NCS.pdb
     RDKit          3D

 21 20  0  0  1  0  0  0  0  0999 V2000
   -2.7228  -26.3257   28.0872 N   0  0  0  0  0  0  0  0  0  0  0  0
   -2.6225  -25.4454   29.2064 C   0  0  0  0  0  0  0  0  0  0  0  0
   -1.9927  -25.8529   30.1967 O   0  0  0  0  0  0  0  0  0  0  0  0
   -3.2505  -24.1136   29.1604 C   0  0  0  0  0  0  0  0  0  0  0  0
   -3.9888  -23.9851   27.8519 C   0  0  2  0  0  0  0  0  0  0  0  0
   -3.0482  -23.5409   26.8534 N   0  0  0  0  0  0  0  0  0  0  0  0
   -5.0708  -22.9766   28.0378 C   0  0  0  0  0  0  0  0  0  0  0  0
   -4.8214  -21.7516   28.1374 O   0  0  0  0  0  0  0  0  0  0  0  0
   -6.4069  -23.4050   28.1037 N   0  0  0  0  0  0  0  0  0  0  0  0
   -7.4823  -22.4632   28.1363 C   0  0  1  0  0  0  0  0  0  0  0  0
   -7.7952  -21.8725   26.7807 C   0  0  0  0  0  0  0  0  0  0  0  0
   -6.7503  -20.4493   26.4032 S   0  0  0  0  0  0  0  0  0  0  0  0
   -8.7057  -23.1723   28.5926 C   0  0  0  0  0  0  0  0  0  0  0  0
   -9.0425  -24.2517   28.0693 O   0  0  0  0  0  0  0  0  0  0  0  0
   -9.7051  -23.4361   32.2312 O   0  0  0  0  0  0  0  0  0  0  0  0
  -10.8610  -23.0750   31.5640 C   0  0  0  0  0  0  0  0  0  0  0  0
  -10.6576  -23.4578   30.0975 C   0  0  2  0  0  0  0  0  0  0  0  0
   -9.5380  -22.6681   29.6270 N   0  0  0  0  0  0  0  0  0  0  0  0
  -11.9017  -23.1528   29.3919 C   0  0  0  0  0  0  0  0  0  0  0  0
  -12.9754  -23.7464   29.6650 O   0  0  0  0  0  0  0  0  0  0  0  0
  -11.9218  -22.1904   28.3944 O   0  0  0  0  0  0  0  0  0  0  0  0
  2  1  1  0
  2  4  1  0
  3  2  2  0
  5  6  1  6
  5  7  1  0
  5  4  1  0
  7  9  1  0
  7  8  2  0
  9 10  1  0
 10 13  1  0
 10 11  1  6
 12 11  1  0
 13 18  1  0
 13 14  2  0
 15 16  1  0
 17 16  1  1
 17 19  1  0
 18 17  1  0
 19 21  1  0
 20 19  2  0
M  END
$$$$
