NCS.pdb
     RDKit          3D

 21 20  0  0  1  0  0  0  0  0999 V2000
    7.7061  -15.4525   11.4180 N   0  0  0  0  0  0  0  0  0  0  0  0
    8.9132  -15.6902   12.1420 C   0  0  0  0  0  0  0  0  0  0  0  0
    9.6489  -16.6058   11.7374 O   0  0  0  0  0  0  0  0  0  0  0  0
    9.2467  -14.8670   13.3173 C   0  0  0  0  0  0  0  0  0  0  0  0
    9.2776  -15.7645   14.5286 C   0  0  2  0  0  0  0  0  0  0  0  0
    7.9589  -16.3214   14.7019 N   0  0  0  0  0  0  0  0  0  0  0  0
    9.6518  -14.9282   15.7044 C   0  0  0  0  0  0  0  0  0  0  0  0
   10.7814  -14.3919   15.8005 O   0  0  0  0  0  0  0  0  0  0  0  0
    8.7176  -14.7326   16.7350 N   0  0  0  0  0  0  0  0  0  0  0  0
    9.0811  -14.0553   17.9408 C   0  0  1  0  0  0  0  0  0  0  0  0
    7.9019  -13.7802   18.8455 C   0  0  0  0  0  0  0  0  0  0  0  0
    8.4066  -13.0325   20.4095 S   0  0  0  0  0  0  0  0  0  0  0  0
   10.0145  -14.9278   18.6992 C   0  0  0  0  0  0  0  0  0  0  0  0
    9.8389  -16.1609   18.7345 O   0  0  0  0  0  0  0  0  0  0  0  0
   13.7715  -14.5619   18.7386 O   0  0  0  0  0  0  0  0  0  0  0  0
   13.4062  -14.6613   20.0683 C   0  0  0  0  0  0  0  0  0  0  0  0
   12.0274  -15.3223   20.0951 C   0  0  2  0  0  0  0  0  0  0  0  0
   11.1321  -14.4136   19.4087 N   0  0  0  0  0  0  0  0  0  0  0  0
   11.6670  -15.5197   21.4986 C   0  0  0  0  0  0  0  0  0  0  0  0
   10.6944  -14.9174   22.0190 O   0  0  0  0  0  0  0  0  0  0  0  0
   12.4007  -16.3867   22.2935 O   0  0  0  0  0  0  0  0  0  0  0  0
  2  1  1  0
  2  4  1  0
  3  2  2  0
  5  6  1  1
  5  7  1  0
  5  4  1  0
  7  9  1  0
  7  8  2  0
  9 10  1  0
 10 13  1  0
 10 11  1  1
 12 11  1  0
 13 18  1  0
 13 14  2  0
 15 16  1  0
 17 16  1  1
 17 19  1  0
 18 17  1  0
 19 21  1  0
 20 19  2  0
M  END
$$$$
