KNQ.pdb
     RDKit          3D

 27 26  0  0  1  0  0  0  0  0999 V2000
   28.1708  -18.5136  -16.5032 N   0  0  0  0  0  0  0  0  0  0  0  0
   27.4933  -18.0668  -15.3229 C   0  0  1  0  0  0  0  0  0  0  0  0
   26.3072  -17.1669  -15.6670 C   0  0  0  0  0  0  0  0  0  0  0  0
   26.6202  -16.0763  -16.6205 C   0  0  0  0  0  0  0  0  0  0  0  0
   26.9976  -16.4807  -18.0055 C   0  0  0  0  0  0  0  0  0  0  0  0
   27.2043  -15.1706  -18.7818 C   0  0  0  0  0  0  0  0  0  0  0  0
   28.5686  -14.7523  -18.6107 N   0  0  0  0  0  0  0  0  0  0  0  0
   26.8205  -19.2330  -14.6311 C   0  0  0  0  0  0  0  0  0  0  0  0
   26.6615  -20.2623  -15.3247 O   0  0  0  0  0  0  0  0  0  0  0  0
   24.9626  -20.8253   -9.1547 N   0  0  0  0  0  0  0  0  0  0  0  0
   25.6819  -21.2809  -10.2915 C   0  0  0  0  0  0  0  0  0  0  0  0
   25.8662  -22.5077  -10.5193 O   0  0  0  0  0  0  0  0  0  0  0  0
   26.2042  -20.2310  -11.1951 C   0  0  0  0  0  0  0  0  0  0  0  0
   25.7811  -20.3637  -12.6047 C   0  0  2  0  0  0  0  0  0  0  0  0
   26.3898  -19.2134  -13.3108 N   0  0  0  0  0  0  0  0  0  0  0  0
   24.3638  -20.4576  -12.9048 C   0  0  0  0  0  0  0  0  0  0  0  0
   23.7362  -19.3588  -13.1253 O   0  0  0  0  0  0  0  0  0  0  0  0
   20.3141  -18.6411  -10.7377 N   0  0  0  0  0  0  0  0  0  0  0  0
   19.4381  -19.4601  -11.4938 C   0  0  0  0  0  0  0  0  0  0  0  0
   18.2136  -19.2857  -11.4113 O   0  0  0  0  0  0  0  0  0  0  0  0
   20.0627  -20.5075  -12.3629 C   0  0  0  0  0  0  0  0  0  0  0  0
   21.5584  -20.5451  -12.2308 C   0  0  0  0  0  0  0  0  0  0  0  0
   22.1219  -21.5527  -13.1855 C   0  0  2  0  0  0  0  0  0  0  0  0
   23.5721  -21.6246  -12.9883 N   0  0  0  0  0  0  0  0  0  0  0  0
   21.8153  -21.1900  -14.6012 C   0  0  0  0  0  0  0  0  0  0  0  0
   20.7774  -21.5845  -15.1677 O   0  0  0  0  0  0  0  0  0  0  0  0
   22.7078  -20.4013  -15.2870 O   0  0  0  0  0  0  0  0  0  0  0  0
  2  1  1  6
  2  8  1  0
  3  2  1  0
  4  3  1  0
  4  5  1  0
  5  6  1  0
  7  6  1  0
  8  9  2  0
  8 15  1  0
 10 11  1  0
 11 12  2  0
 13 11  1  0
 14 13  1  1
 14 16  1  0
 15 14  1  0
 16 17  2  0
 19 21  1  0
 19 18  1  0
 20 19  2  0
 22 21  1  0
 23 22  1  1
 24 16  1  0
 24 23  1  0
 25 23  1  0
 25 27  1  0
 26 25  2  0
M  END
$$$$
