KNQ.pdb
     RDKit          3D

 27 26  0  0  1  0  0  0  0  0999 V2000
   28.1988  -24.2639  -16.7874 N   0  0  0  0  0  0  0  0  0  0  0  0
   26.8031  -24.3920  -17.0834 C   0  0  1  0  0  0  0  0  0  0  0  0
   26.3818  -25.8588  -17.1626 C   0  0  0  0  0  0  0  0  0  0  0  0
   27.1334  -26.6607  -18.1568 C   0  0  0  0  0  0  0  0  0  0  0  0
   28.3724  -27.3381  -17.6771 C   0  0  0  0  0  0  0  0  0  0  0  0
   28.9969  -27.9950  -18.9182 C   0  0  0  0  0  0  0  0  0  0  0  0
   30.2339  -28.6149  -18.5295 N   0  0  0  0  0  0  0  0  0  0  0  0
   25.9724  -23.8821  -15.9254 C   0  0  0  0  0  0  0  0  0  0  0  0
   25.1255  -24.6809  -15.4667 O   0  0  0  0  0  0  0  0  0  0  0  0
   24.6180  -21.3154  -11.6993 N   0  0  0  0  0  0  0  0  0  0  0  0
   25.8046  -20.7141  -12.1972 C   0  0  0  0  0  0  0  0  0  0  0  0
   26.4796  -19.8982  -11.5121 O   0  0  0  0  0  0  0  0  0  0  0  0
   26.2039  -21.1007  -13.5693 C   0  0  0  0  0  0  0  0  0  0  0  0
   25.3450  -22.1272  -14.1957 C   0  0  2  0  0  0  0  0  0  0  0  0
   26.1041  -22.6163  -15.3691 N   0  0  0  0  0  0  0  0  0  0  0  0
   23.9897  -21.7705  -14.5744 C   0  0  0  0  0  0  0  0  0  0  0  0
   23.8489  -20.9799  -15.5768 O   0  0  0  0  0  0  0  0  0  0  0  0
   18.2860  -23.2502  -12.1667 N   0  0  0  0  0  0  0  0  0  0  0  0
   17.9423  -22.4004  -13.2482 C   0  0  0  0  0  0  0  0  0  0  0  0
   16.7524  -22.1176  -13.4500 O   0  0  0  0  0  0  0  0  0  0  0  0
   19.0646  -21.8876  -14.0968 C   0  0  0  0  0  0  0  0  0  0  0  0
   20.4125  -22.2839  -13.5657 C   0  0  0  0  0  0  0  0  0  0  0  0
   21.4860  -21.6724  -14.4130 C   0  0  2  0  0  0  0  0  0  0  0  0
   22.7834  -22.1907  -13.9711 N   0  0  0  0  0  0  0  0  0  0  0  0
   21.4706  -20.1823  -14.3171 C   0  0  0  0  0  0  0  0  0  0  0  0
   21.9780  -19.5836  -13.3486 O   0  0  0  0  0  0  0  0  0  0  0  0
   20.8783  -19.4635  -15.3277 O   0  0  0  0  0  0  0  0  0  0  0  0
  2  1  1  1
  2  8  1  0
  3  2  1  0
  4  3  1  0
  4  5  1  0
  5  6  1  0
  7  6  1  0
  8  9  2  0
  8 15  1  0
 10 11  1  0
 11 12  2  0
 13 11  1  0
 14 13  1  6
 14 16  1  0
 15 14  1  0
 16 17  2  0
 19 21  1  0
 19 18  1  0
 20 19  2  0
 22 21  1  0
 23 22  1  1
 24 16  1  0
 24 23  1  0
 25 23  1  0
 25 27  1  0
 26 25  2  0
M  END
$$$$
