KNQ.pdb
     RDKit          3D

 27 26  0  0  1  0  0  0  0  0999 V2000
   28.6141  -10.6943  -21.0374 N   0  0  0  0  0  0  0  0  0  0  0  0
   27.7071  -10.3120  -19.9968 C   0  0  1  0  0  0  0  0  0  0  0  0
   27.1644  -11.5319  -19.2534 C   0  0  0  0  0  0  0  0  0  0  0  0
   26.8364  -12.6856  -20.1239 C   0  0  0  0  0  0  0  0  0  0  0  0
   26.3073  -13.9071  -19.4516 C   0  0  0  0  0  0  0  0  0  0  0  0
   26.1098  -14.9458  -20.5669 C   0  0  0  0  0  0  0  0  0  0  0  0
   25.5993  -16.1530  -19.9774 N   0  0  0  0  0  0  0  0  0  0  0  0
   28.4462   -9.5725  -18.9022 C   0  0  0  0  0  0  0  0  0  0  0  0
   27.7487   -9.1804  -17.9402 O   0  0  0  0  0  0  0  0  0  0  0  0
   32.1629   -7.7782  -15.8175 N   0  0  0  0  0  0  0  0  0  0  0  0
   32.7010   -8.8221  -16.6163 C   0  0  0  0  0  0  0  0  0  0  0  0
   33.8533   -9.2933  -16.4140 O   0  0  0  0  0  0  0  0  0  0  0  0
   31.8301   -9.3258  -17.7023 C   0  0  0  0  0  0  0  0  0  0  0  0
   30.5489   -8.6044  -17.8504 C   0  0  2  0  0  0  0  0  0  0  0  0
   29.8121   -9.3209  -18.9162 N   0  0  0  0  0  0  0  0  0  0  0  0
   30.5751   -7.1773  -18.1158 C   0  0  0  0  0  0  0  0  0  0  0  0
   31.2094   -6.4362  -17.2803 O   0  0  0  0  0  0  0  0  0  0  0  0
   34.5259   -4.8792  -20.3274 N   0  0  0  0  0  0  0  0  0  0  0  0
   33.8015   -3.6612  -20.3681 C   0  0  0  0  0  0  0  0  0  0  0  0
   34.4063   -2.5956  -20.5558 O   0  0  0  0  0  0  0  0  0  0  0  0
   32.3185   -3.7422  -20.1768 C   0  0  0  0  0  0  0  0  0  0  0  0
   31.8519   -5.1421  -19.8968 C   0  0  0  0  0  0  0  0  0  0  0  0
   30.3939   -5.1266  -19.5530 C   0  0  2  0  0  0  0  0  0  0  0  0
   29.9824   -6.4869  -19.1964 N   0  0  0  0  0  0  0  0  0  0  0  0
   29.5723   -4.6261  -20.6950 C   0  0  0  0  0  0  0  0  0  0  0  0
   29.2936   -3.4176  -20.8207 O   0  0  0  0  0  0  0  0  0  0  0  0
   29.1166   -5.5302  -21.6245 O   0  0  0  0  0  0  0  0  0  0  0  0
  2  1  1  6
  2  8  1  0
  3  2  1  0
  4  3  1  0
  4  5  1  0
  5  6  1  0
  7  6  1  0
  8  9  2  0
  8 15  1  0
 10 11  1  0
 11 12  2  0
 13 11  1  0
 14 13  1  6
 14 16  1  0
 15 14  1  0
 16 17  2  0
 19 21  1  0
 19 18  1  0
 20 19  2  0
 22 21  1  0
 23 22  1  6
 24 16  1  0
 24 23  1  0
 25 23  1  0
 25 27  1  0
 26 25  2  0
M  END
$$$$
