KNQ.pdb
     RDKit          3D

 27 26  0  0  1  0  0  0  0  0999 V2000
   22.4947  -19.3899  -15.4099 N   0  0  0  0  0  0  0  0  0  0  0  0
   23.8146  -19.3286  -15.9629 C   0  0  1  0  0  0  0  0  0  0  0  0
   23.9254  -18.2338  -17.0232 C   0  0  0  0  0  0  0  0  0  0  0  0
   22.6408  -17.8698  -17.6665 C   0  0  0  0  0  0  0  0  0  0  0  0
   22.2156  -18.6936  -18.8346 C   0  0  0  0  0  0  0  0  0  0  0  0
   20.9761  -17.9921  -19.4119 C   0  0  0  0  0  0  0  0  0  0  0  0
   20.3987  -18.8441  -20.4150 N   0  0  0  0  0  0  0  0  0  0  0  0
   24.8013  -18.8605  -14.9148 C   0  0  0  0  0  0  0  0  0  0  0  0
   25.3542  -17.7603  -15.1372 O   0  0  0  0  0  0  0  0  0  0  0  0
   25.8672  -21.8999  -10.7215 N   0  0  0  0  0  0  0  0  0  0  0  0
   25.2732  -20.7140  -11.2298 C   0  0  0  0  0  0  0  0  0  0  0  0
   24.0223  -20.5669  -11.2945 O   0  0  0  0  0  0  0  0  0  0  0  0
   26.2088  -19.6591  -11.6807 C   0  0  0  0  0  0  0  0  0  0  0  0
   26.4497  -19.6300  -13.1383 C   0  0  2  0  0  0  0  0  0  0  0  0
   25.1074  -19.5695  -13.7603 N   0  0  0  0  0  0  0  0  0  0  0  0
   27.2453  -20.6858  -13.7381 C   0  0  0  0  0  0  0  0  0  0  0  0
   27.5013  -21.7133  -13.0111 O   0  0  0  0  0  0  0  0  0  0  0  0
   25.5774  -24.2477  -14.5373 N   0  0  0  0  0  0  0  0  0  0  0  0
   25.5993  -24.5003  -15.9322 C   0  0  0  0  0  0  0  0  0  0  0  0
   25.4681  -25.6614  -16.3459 O   0  0  0  0  0  0  0  0  0  0  0  0
   25.7842  -23.3211  -16.8366 C   0  0  0  0  0  0  0  0  0  0  0  0
   26.0602  -22.0544  -16.0783 C   0  0  0  0  0  0  0  0  0  0  0  0
   27.5396  -21.8674  -15.9338 C   0  0  2  0  0  0  0  0  0  0  0  0
   27.7829  -20.7292  -15.0438 N   0  0  0  0  0  0  0  0  0  0  0  0
   28.1885  -21.6299  -17.2575 C   0  0  0  0  0  0  0  0  0  0  0  0
   28.2239  -20.4964  -17.7750 O   0  0  0  0  0  0  0  0  0  0  0  0
   28.7570  -22.6958  -17.9130 O   0  0  0  0  0  0  0  0  0  0  0  0
  2  1  1  1
  2  8  1  0
  3  2  1  0
  4  3  1  0
  4  5  1  0
  5  6  1  0
  7  6  1  0
  8  9  2  0
  8 15  1  0
 10 11  1  0
 11 12  2  0
 13 11  1  0
 14 13  1  1
 14 16  1  0
 15 14  1  0
 16 17  2  0
 19 21  1  0
 19 18  1  0
 20 19  2  0
 22 21  1  0
 23 22  1  6
 24 16  1  0
 24 23  1  0
 25 23  1  0
 25 27  1  0
 26 25  2  0
M  END
$$$$
