KNQ.pdb
     RDKit          3D

 27 26  0  0  1  0  0  0  0  0999 V2000
   21.5986  -25.6792  -15.1016 N   0  0  0  0  0  0  0  0  0  0  0  0
   20.2300  -25.3719  -14.8110 C   0  0  1  0  0  0  0  0  0  0  0  0
   19.7759  -26.0259  -13.5068 C   0  0  0  0  0  0  0  0  0  0  0  0
   20.1878  -27.4413  -13.3536 C   0  0  0  0  0  0  0  0  0  0  0  0
   19.9457  -28.0728  -12.0245 C   0  0  0  0  0  0  0  0  0  0  0  0
   20.5742  -29.4729  -12.1062 C   0  0  0  0  0  0  0  0  0  0  0  0
   20.4019  -30.1223  -10.8358 N   0  0  0  0  0  0  0  0  0  0  0  0
   20.0779  -23.8982  -14.5004 C   0  0  0  0  0  0  0  0  0  0  0  0
   18.9123  -23.5056  -14.2703 O   0  0  0  0  0  0  0  0  0  0  0  0
   21.1639  -19.1080  -12.9465 N   0  0  0  0  0  0  0  0  0  0  0  0
   22.3910  -19.8214  -12.9987 C   0  0  0  0  0  0  0  0  0  0  0  0
   23.4552  -19.3592  -12.5042 O   0  0  0  0  0  0  0  0  0  0  0  0
   22.3488  -21.1409  -13.6686 C   0  0  0  0  0  0  0  0  0  0  0  0
   21.0055  -21.5619  -14.1180 C   0  0  2  0  0  0  0  0  0  0  0  0
   21.1339  -22.9970  -14.4590 N   0  0  0  0  0  0  0  0  0  0  0  0
   20.3684  -20.8331  -15.1999 C   0  0  0  0  0  0  0  0  0  0  0  0
   20.9010  -20.9273  -16.3649 O   0  0  0  0  0  0  0  0  0  0  0  0
   14.8072  -17.9489  -16.1412 N   0  0  0  0  0  0  0  0  0  0  0  0
   15.5202  -17.6731  -17.3352 C   0  0  0  0  0  0  0  0  0  0  0  0
   14.9276  -17.1650  -18.2981 O   0  0  0  0  0  0  0  0  0  0  0  0
   16.9764  -18.0217  -17.3568 C   0  0  0  0  0  0  0  0  0  0  0  0
   17.3852  -18.8511  -16.1732 C   0  0  0  0  0  0  0  0  0  0  0  0
   18.8605  -19.1064  -16.2241 C   0  0  2  0  0  0  0  0  0  0  0  0
   19.2154  -20.0195  -15.1344 N   0  0  0  0  0  0  0  0  0  0  0  0
   19.6358  -17.8363  -16.1006 C   0  0  0  0  0  0  0  0  0  0  0  0
   19.9560  -17.3704  -14.9895 O   0  0  0  0  0  0  0  0  0  0  0  0
   19.9993  -17.1724  -17.2478 O   0  0  0  0  0  0  0  0  0  0  0  0
  2  1  1  1
  2  8  1  0
  3  2  1  0
  4  3  1  0
  4  5  1  0
  5  6  1  0
  7  6  1  0
  8  9  2  0
  8 15  1  0
 10 11  1  0
 11 12  2  0
 13 11  1  0
 14 13  1  6
 14 16  1  0
 15 14  1  0
 16 17  2  0
 19 21  1  0
 19 18  1  0
 20 19  2  0
 22 21  1  0
 23 22  1  1
 24 16  1  0
 24 23  1  0
 25 23  1  0
 25 27  1  0
 26 25  2  0
M  END
$$$$
