KNQ.pdb
     RDKit          3D

 27 26  0  0  1  0  0  0  0  0999 V2000
   27.9151  -19.9884  -17.4987 N   0  0  0  0  0  0  0  0  0  0  0  0
   27.5589  -19.2118  -16.3490 C   0  0  1  0  0  0  0  0  0  0  0  0
   26.7112  -18.0002  -16.7346 C   0  0  0  0  0  0  0  0  0  0  0  0
   27.3745  -17.0585  -17.6672 C   0  0  0  0  0  0  0  0  0  0  0  0
   27.9119  -17.6324  -18.9344 C   0  0  0  0  0  0  0  0  0  0  0  0
   28.4520  -16.4389  -19.7379 C   0  0  0  0  0  0  0  0  0  0  0  0
   29.0855  -16.9414  -20.9260 N   0  0  0  0  0  0  0  0  0  0  0  0
   26.6152  -19.9931  -15.4601 C   0  0  0  0  0  0  0  0  0  0  0  0
   25.8150  -20.7545  -16.0479 O   0  0  0  0  0  0  0  0  0  0  0  0
   25.7920  -22.8848  -10.7280 N   0  0  0  0  0  0  0  0  0  0  0  0
   25.5763  -21.4868  -10.8566 C   0  0  0  0  0  0  0  0  0  0  0  0
   24.7636  -20.8646  -10.1196 O   0  0  0  0  0  0  0  0  0  0  0  0
   26.3611  -20.8010  -11.9079 C   0  0  0  0  0  0  0  0  0  0  0  0
   25.6540  -20.6322  -13.1945 C   0  0  2  0  0  0  0  0  0  0  0  0
   26.5995  -19.9076  -14.0738 N   0  0  0  0  0  0  0  0  0  0  0  0
   24.3531  -19.9879  -13.1995 C   0  0  0  0  0  0  0  0  0  0  0  0
   24.3273  -18.7182  -13.3913 O   0  0  0  0  0  0  0  0  0  0  0  0
   22.4706  -18.6001  -17.4710 N   0  0  0  0  0  0  0  0  0  0  0  0
   21.1321  -18.5969  -17.0038 C   0  0  0  0  0  0  0  0  0  0  0  0
   20.2618  -17.9898  -17.6447 O   0  0  0  0  0  0  0  0  0  0  0  0
   20.8493  -19.3437  -15.7370 C   0  0  0  0  0  0  0  0  0  0  0  0
   22.0984  -19.8722  -15.0918 C   0  0  0  0  0  0  0  0  0  0  0  0
   21.8776  -20.0224  -13.6177 C   0  0  2  0  0  0  0  0  0  0  0  0
   23.0881  -20.5903  -13.0185 N   0  0  0  0  0  0  0  0  0  0  0  0
   20.7043  -20.9005  -13.3312 C   0  0  0  0  0  0  0  0  0  0  0  0
   20.8389  -22.1185  -13.1026 O   0  0  0  0  0  0  0  0  0  0  0  0
   19.4492  -20.3406  -13.3230 O   0  0  0  0  0  0  0  0  0  0  0  0
  2  1  1  6
  2  8  1  0
  3  2  1  0
  4  3  1  0
  4  5  1  0
  5  6  1  0
  7  6  1  0
  8  9  2  0
  8 15  1  0
 10 11  1  0
 11 12  2  0
 13 11  1  0
 14 13  1  1
 14 16  1  0
 15 14  1  0
 16 17  2  0
 19 21  1  0
 19 18  1  0
 20 19  2  0
 22 21  1  0
 23 22  1  6
 24 16  1  0
 24 23  1  0
 25 23  1  0
 25 27  1  0
 26 25  2  0
M  END
$$$$
