KNQ.pdb
     RDKit          3D

 27 26  0  0  1  0  0  0  0  0999 V2000
   26.7002  -21.0334  -19.7239 N   0  0  0  0  0  0  0  0  0  0  0  0
   27.4797  -20.8363  -18.5385 C   0  0  1  0  0  0  0  0  0  0  0  0
   28.7031  -19.9630  -18.8138 C   0  0  0  0  0  0  0  0  0  0  0  0
   29.5337  -20.4122  -19.9560 C   0  0  0  0  0  0  0  0  0  0  0  0
   30.9436  -20.7933  -19.6544 C   0  0  0  0  0  0  0  0  0  0  0  0
   31.6087  -21.0468  -21.0164 C   0  0  0  0  0  0  0  0  0  0  0  0
   32.9628  -21.4706  -20.7882 N   0  0  0  0  0  0  0  0  0  0  0  0
   26.7097  -20.0024  -17.5370 C   0  0  0  0  0  0  0  0  0  0  0  0
   27.3386  -19.6628  -16.5100 O   0  0  0  0  0  0  0  0  0  0  0  0
   24.0442  -16.6164  -19.4768 N   0  0  0  0  0  0  0  0  0  0  0  0
   24.2092  -16.7879  -18.0766 C   0  0  0  0  0  0  0  0  0  0  0  0
   24.7977  -15.9311  -17.3622 O   0  0  0  0  0  0  0  0  0  0  0  0
   23.6502  -18.0329  -17.5029 C   0  0  0  0  0  0  0  0  0  0  0  0
   24.6087  -18.8321  -16.7115 C   0  0  2  0  0  0  0  0  0  0  0  0
   25.3873  -19.6107  -17.7014 N   0  0  0  0  0  0  0  0  0  0  0  0
   24.1007  -19.6985  -15.6632 C   0  0  0  0  0  0  0  0  0  0  0  0
   23.5570  -20.8038  -16.0269 O   0  0  0  0  0  0  0  0  0  0  0  0
   25.4204  -20.1993   -9.5382 N   0  0  0  0  0  0  0  0  0  0  0  0
   24.4634  -21.2319   -9.7056 C   0  0  0  0  0  0  0  0  0  0  0  0
   24.2091  -21.9898   -8.7583 O   0  0  0  0  0  0  0  0  0  0  0  0
   23.8068  -21.3432  -11.0469 C   0  0  0  0  0  0  0  0  0  0  0  0
   24.3392  -20.3412  -12.0310 C   0  0  0  0  0  0  0  0  0  0  0  0
   23.5967  -20.4657  -13.3262 C   0  0  2  0  0  0  0  0  0  0  0  0
   24.1296  -19.4778  -14.2681 N   0  0  0  0  0  0  0  0  0  0  0  0
   22.1314  -20.2516  -13.1347 C   0  0  0  0  0  0  0  0  0  0  0  0
   21.6012  -19.1405  -13.3302 O   0  0  0  0  0  0  0  0  0  0  0  0
   21.3578  -21.3137  -12.7316 O   0  0  0  0  0  0  0  0  0  0  0  0
  2  1  1  6
  2  8  1  0
  3  2  1  0
  4  3  1  0
  4  5  1  0
  5  6  1  0
  7  6  1  0
  8  9  2  0
  8 15  1  0
 10 11  1  0
 11 12  2  0
 13 11  1  0
 14 13  1  6
 14 16  1  0
 15 14  1  0
 16 17  2  0
 19 21  1  0
 19 18  1  0
 20 19  2  0
 22 21  1  0
 23 22  1  1
 24 16  1  0
 24 23  1  0
 25 23  1  0
 25 27  1  0
 26 25  2  0
M  END
$$$$
