KNQ.pdb
     RDKit          3D

 27 26  0  0  1  0  0  0  0  0999 V2000
   19.6078  -14.8000  -17.6515 N   0  0  0  0  0  0  0  0  0  0  0  0
   20.3896  -14.6693  -16.4585 C   0  0  1  0  0  0  0  0  0  0  0  0
   21.3851  -15.8197  -16.3147 C   0  0  0  0  0  0  0  0  0  0  0  0
   20.7766  -17.1696  -16.3766 C   0  0  0  0  0  0  0  0  0  0  0  0
   21.3577  -18.1254  -17.3630 C   0  0  0  0  0  0  0  0  0  0  0  0
   20.4238  -19.3459  -17.3626 C   0  0  0  0  0  0  0  0  0  0  0  0
   20.8678  -20.2571  -18.3814 N   0  0  0  0  0  0  0  0  0  0  0  0
   21.3027  -13.4662  -16.5588 C   0  0  0  0  0  0  0  0  0  0  0  0
   22.0648  -13.2755  -15.5849 O   0  0  0  0  0  0  0  0  0  0  0  0
   23.6478  -13.4021  -20.3793 N   0  0  0  0  0  0  0  0  0  0  0  0
   23.8228  -12.5480  -19.2580 C   0  0  0  0  0  0  0  0  0  0  0  0
   24.7808  -12.6917  -18.4504 O   0  0  0  0  0  0  0  0  0  0  0  0
   22.8137  -11.4777  -19.0912 C   0  0  0  0  0  0  0  0  0  0  0  0
   22.2059  -11.4071  -17.7460 C   0  0  2  0  0  0  0  0  0  0  0  0
   21.3329  -12.5986  -17.6430 N   0  0  0  0  0  0  0  0  0  0  0  0
   21.4822  -10.2072  -17.3664 C   0  0  0  0  0  0  0  0  0  0  0  0
   20.2776  -10.0874  -17.7957 O   0  0  0  0  0  0  0  0  0  0  0  0
   17.6780   -9.3800  -14.0522 N   0  0  0  0  0  0  0  0  0  0  0  0
   17.8194   -7.9760  -14.1889 C   0  0  0  0  0  0  0  0  0  0  0  0
   16.9608   -7.2246  -13.7046 O   0  0  0  0  0  0  0  0  0  0  0  0
   19.0244   -7.4799  -14.9267 C   0  0  0  0  0  0  0  0  0  0  0  0
   19.8906   -8.5994  -15.4289 C   0  0  0  0  0  0  0  0  0  0  0  0
   21.0549   -8.0342  -16.1834 C   0  0  2  0  0  0  0  0  0  0  0  0
   21.9416   -9.1351  -16.5694 N   0  0  0  0  0  0  0  0  0  0  0  0
   21.8037   -7.0387  -15.3600 C   0  0  0  0  0  0  0  0  0  0  0  0
   21.2948   -5.9509  -15.0256 O   0  0  0  0  0  0  0  0  0  0  0  0
   23.0859   -7.3399  -14.9674 O   0  0  0  0  0  0  0  0  0  0  0  0
  2  1  1  6
  2  8  1  0
  3  2  1  0
  4  3  1  0
  4  5  1  0
  5  6  1  0
  7  6  1  0
  8  9  2  0
  8 15  1  0
 10 11  1  0
 11 12  2  0
 13 11  1  0
 14 13  1  6
 14 16  1  0
 15 14  1  0
 16 17  2  0
 19 21  1  0
 19 18  1  0
 20 19  2  0
 22 21  1  0
 23 22  1  1
 24 16  1  0
 24 23  1  0
 25 23  1  0
 25 27  1  0
 26 25  2  0
M  END
$$$$
