KNQ.pdb
     RDKit          3D

 27 26  0  0  1  0  0  0  0  0999 V2000
   22.0591  -12.4351  -20.8749 N   0  0  0  0  0  0  0  0  0  0  0  0
   20.7140  -11.9538  -20.9797 C   0  0  1  0  0  0  0  0  0  0  0  0
   19.7066  -13.1025  -20.9543 C   0  0  0  0  0  0  0  0  0  0  0  0
   20.0298  -14.1814  -19.9910 C   0  0  0  0  0  0  0  0  0  0  0  0
   19.1227  -15.3651  -19.9767 C   0  0  0  0  0  0  0  0  0  0  0  0
   19.6416  -16.2759  -18.8528 C   0  0  0  0  0  0  0  0  0  0  0  0
   18.8237  -17.4569  -18.8120 N   0  0  0  0  0  0  0  0  0  0  0  0
   20.3388  -11.1711  -19.7397 C   0  0  0  0  0  0  0  0  0  0  0  0
   19.2139  -10.6235  -19.7584 O   0  0  0  0  0  0  0  0  0  0  0  0
   20.3799   -9.1723  -14.9649 N   0  0  0  0  0  0  0  0  0  0  0  0
   21.3996  -10.1598  -15.0150 C   0  0  0  0  0  0  0  0  0  0  0  0
   22.0268  -10.5268  -13.9842 O   0  0  0  0  0  0  0  0  0  0  0  0
   21.6847  -10.7339  -16.3494 C   0  0  0  0  0  0  0  0  0  0  0  0
   20.8404  -10.2060  -17.4413 C   0  0  2  0  0  0  0  0  0  0  0  0
   21.1552  -11.0400  -18.6236 N   0  0  0  0  0  0  0  0  0  0  0  0
   20.9246   -8.7950  -17.7724 C   0  0  0  0  0  0  0  0  0  0  0  0
   21.6870   -8.4662  -18.7523 O   0  0  0  0  0  0  0  0  0  0  0  0
   17.2992   -4.7873  -19.5867 N   0  0  0  0  0  0  0  0  0  0  0  0
   18.2716   -3.8300  -19.2022 C   0  0  0  0  0  0  0  0  0  0  0  0
   18.2349   -2.6909  -19.6895 O   0  0  0  0  0  0  0  0  0  0  0  0
   19.3045   -4.2669  -18.2098 C   0  0  0  0  0  0  0  0  0  0  0  0
   19.1231   -5.6959  -17.7846 C   0  0  0  0  0  0  0  0  0  0  0  0
   20.4633   -6.3342  -17.5832 C   0  0  2  0  0  0  0  0  0  0  0  0
   20.2618   -7.7174  -17.1437 N   0  0  0  0  0  0  0  0  0  0  0  0
   21.2732   -5.5893  -16.5738 C   0  0  0  0  0  0  0  0  0  0  0  0
   21.2418   -5.8840  -15.3630 O   0  0  0  0  0  0  0  0  0  0  0  0
   22.0691   -4.5540  -17.0022 O   0  0  0  0  0  0  0  0  0  0  0  0
  2  1  1  1
  2  8  1  0
  3  2  1  0
  4  3  1  0
  4  5  1  0
  5  6  1  0
  7  6  1  0
  8  9  2  0
  8 15  1  0
 10 11  1  0
 11 12  2  0
 13 11  1  0
 14 13  1  1
 14 16  1  0
 15 14  1  0
 16 17  2  0
 19 21  1  0
 19 18  1  0
 20 19  2  0
 22 21  1  0
 23 22  1  1
 24 16  1  0
 24 23  1  0
 25 23  1  0
 25 27  1  0
 26 25  2  0
M  END
$$$$
