KNQ.pdb
     RDKit          3D

 27 26  0  0  1  0  0  0  0  0999 V2000
   24.4101  -24.9807  -14.4742 N   0  0  0  0  0  0  0  0  0  0  0  0
   23.0792  -24.4706  -14.6168 C   0  0  1  0  0  0  0  0  0  0  0  0
   22.1694  -24.9625  -13.4918 C   0  0  0  0  0  0  0  0  0  0  0  0
   21.9006  -26.4198  -13.5123 C   0  0  0  0  0  0  0  0  0  0  0  0
   20.9582  -26.9450  -12.4827 C   0  0  0  0  0  0  0  0  0  0  0  0
   20.7977  -28.4426  -12.7880 C   0  0  0  0  0  0  0  0  0  0  0  0
   19.9148  -29.0133  -11.8080 N   0  0  0  0  0  0  0  0  0  0  0  0
   23.0666  -22.9717  -14.4067 C   0  0  0  0  0  0  0  0  0  0  0  0
   21.9402  -22.4521  -14.2428 O   0  0  0  0  0  0  0  0  0  0  0  0
   25.5853  -22.2204  -12.4408 N   0  0  0  0  0  0  0  0  0  0  0  0
   26.3286  -21.1535  -13.0124 C   0  0  0  0  0  0  0  0  0  0  0  0
   27.5240  -20.9200  -12.6849 O   0  0  0  0  0  0  0  0  0  0  0  0
   25.6179  -20.3295  -14.0161 C   0  0  0  0  0  0  0  0  0  0  0  0
   24.2053  -20.7048  -14.2339 C   0  0  2  0  0  0  0  0  0  0  0  0
   24.2060  -22.1776  -14.3866 N   0  0  0  0  0  0  0  0  0  0  0  0
   23.4731  -20.0774  -15.3191 C   0  0  0  0  0  0  0  0  0  0  0  0
   23.7463  -20.4645  -16.5129 O   0  0  0  0  0  0  0  0  0  0  0  0
   18.0613  -16.7912  -13.9921 N   0  0  0  0  0  0  0  0  0  0  0  0
   18.4984  -17.0676  -15.3121 C   0  0  0  0  0  0  0  0  0  0  0  0
   17.6637  -17.1869  -16.2206 O   0  0  0  0  0  0  0  0  0  0  0  0
   19.9742  -17.2012  -15.5286 C   0  0  0  0  0  0  0  0  0  0  0  0
   20.3429  -18.5042  -16.1782 C   0  0  0  0  0  0  0  0  0  0  0  0
   21.8203  -18.5432  -16.4231 C   0  0  2  0  0  0  0  0  0  0  0  0
   22.4790  -19.0778  -15.2283 N   0  0  0  0  0  0  0  0  0  0  0  0
   22.3545  -17.1847  -16.7374 C   0  0  0  0  0  0  0  0  0  0  0  0
   23.0920  -16.5712  -15.9413 O   0  0  0  0  0  0  0  0  0  0  0  0
   22.0171  -16.6058  -17.9374 O   0  0  0  0  0  0  0  0  0  0  0  0
  2  1  1  1
  2  8  1  0
  3  2  1  0
  4  3  1  0
  4  5  1  0
  5  6  1  0
  7  6  1  0
  8  9  2  0
  8 15  1  0
 10 11  1  0
 11 12  2  0
 13 11  1  0
 14 13  1  6
 14 16  1  0
 15 14  1  0
 16 17  2  0
 19 21  1  0
 19 18  1  0
 20 19  2  0
 22 21  1  0
 23 22  1  1
 24 16  1  0
 24 23  1  0
 25 23  1  0
 25 27  1  0
 26 25  2  0
M  END
$$$$
