KNQ.pdb
     RDKit          3D

 27 26  0  0  1  0  0  0  0  0999 V2000
   20.2452  -21.6560  -16.4234 N   0  0  0  0  0  0  0  0  0  0  0  0
   19.9857  -20.8697  -15.2547 C   0  0  1  0  0  0  0  0  0  0  0  0
   20.1821  -21.6859  -13.9778 C   0  0  0  0  0  0  0  0  0  0  0  0
   19.4244  -22.9590  -13.9401 C   0  0  0  0  0  0  0  0  0  0  0  0
   19.8152  -23.9442  -12.8910 C   0  0  0  0  0  0  0  0  0  0  0  0
   18.8522  -25.1309  -13.0524 C   0  0  0  0  0  0  0  0  0  0  0  0
   19.1830  -26.1212  -12.0648 N   0  0  0  0  0  0  0  0  0  0  0  0
   21.0335  -19.7872  -15.1073 C   0  0  0  0  0  0  0  0  0  0  0  0
   20.9295  -19.0600  -14.0945 O   0  0  0  0  0  0  0  0  0  0  0  0
   23.9884  -19.7528  -13.7169 N   0  0  0  0  0  0  0  0  0  0  0  0
   24.8663  -19.7715  -14.8333 C   0  0  0  0  0  0  0  0  0  0  0  0
   25.9994  -20.3232  -14.7843 O   0  0  0  0  0  0  0  0  0  0  0  0
   24.3740  -19.1045  -16.0597 C   0  0  0  0  0  0  0  0  0  0  0  0
   23.0472  -18.4679  -15.9256 C   0  0  2  0  0  0  0  0  0  0  0  0
   22.0669  -19.5743  -16.0106 N   0  0  0  0  0  0  0  0  0  0  0  0
   22.6895  -17.3952  -16.8361 C   0  0  0  0  0  0  0  0  0  0  0  0
   21.9396  -17.6975  -17.8340 O   0  0  0  0  0  0  0  0  0  0  0  0
   19.9769  -12.3091  -15.7029 N   0  0  0  0  0  0  0  0  0  0  0  0
   20.1112  -12.1431  -17.1045 C   0  0  0  0  0  0  0  0  0  0  0  0
   19.5128  -11.2173  -17.6711 O   0  0  0  0  0  0  0  0  0  0  0  0
   20.9872  -13.1197  -17.8267 C   0  0  0  0  0  0  0  0  0  0  0  0
   21.5831  -14.1457  -16.9058 C   0  0  0  0  0  0  0  0  0  0  0  0
   22.5081  -15.0365  -17.6773 C   0  0  2  0  0  0  0  0  0  0  0  0
   23.0668  -16.0358  -16.7628 N   0  0  0  0  0  0  0  0  0  0  0  0
   23.6086  -14.2544  -18.3150 C   0  0  0  0  0  0  0  0  0  0  0  0
   24.6346  -13.9337  -17.6837 O   0  0  0  0  0  0  0  0  0  0  0  0
   23.4756  -13.8835  -19.6317 O   0  0  0  0  0  0  0  0  0  0  0  0
  2  1  1  6
  2  8  1  0
  3  2  1  0
  4  3  1  0
  4  5  1  0
  5  6  1  0
  7  6  1  0
  8  9  2  0
  8 15  1  0
 10 11  1  0
 11 12  2  0
 13 11  1  0
 14 13  1  6
 14 16  1  0
 15 14  1  0
 16 17  2  0
 19 21  1  0
 19 18  1  0
 20 19  2  0
 22 21  1  0
 23 22  1  1
 24 16  1  0
 24 23  1  0
 25 23  1  0
 25 27  1  0
 26 25  2  0
M  END
$$$$
