KNQ.pdb
     RDKit          3D

 27 26  0  0  1  0  0  0  0  0999 V2000
   27.7891  -21.9051  -15.9006 N   0  0  0  0  0  0  0  0  0  0  0  0
   26.6922  -20.9903  -16.0093 C   0  0  1  0  0  0  0  0  0  0  0  0
   26.0800  -21.0169  -17.4092 C   0  0  0  0  0  0  0  0  0  0  0  0
   26.9284  -20.4104  -18.4621 C   0  0  0  0  0  0  0  0  0  0  0  0
   27.3222  -18.9847  -18.2710 C   0  0  0  0  0  0  0  0  0  0  0  0
   28.0850  -18.5874  -19.5447 C   0  0  0  0  0  0  0  0  0  0  0  0
   28.6544  -17.2831  -19.3442 N   0  0  0  0  0  0  0  0  0  0  0  0
   25.5375  -21.4509  -15.1458 C   0  0  0  0  0  0  0  0  0  0  0  0
   25.0117  -22.5388  -15.4710 O   0  0  0  0  0  0  0  0  0  0  0  0
   25.8480  -22.5381  -11.6283 N   0  0  0  0  0  0  0  0  0  0  0  0
   25.3246  -21.3587  -11.0347 C   0  0  0  0  0  0  0  0  0  0  0  0
   25.7074  -20.9520   -9.9039 O   0  0  0  0  0  0  0  0  0  0  0  0
   24.3015  -20.6331  -11.8211 C   0  0  0  0  0  0  0  0  0  0  0  0
   23.9947  -21.2326  -13.1365 C   0  0  2  0  0  0  0  0  0  0  0  0
   25.0550  -20.7479  -14.0494 N   0  0  0  0  0  0  0  0  0  0  0  0
   22.6813  -21.0162  -13.7158 C   0  0  0  0  0  0  0  0  0  0  0  0
   22.2649  -19.8035  -13.7904 O   0  0  0  0  0  0  0  0  0  0  0  0
   19.0813  -23.7351  -10.4508 N   0  0  0  0  0  0  0  0  0  0  0  0
   18.0993  -22.9916  -11.1527 C   0  0  0  0  0  0  0  0  0  0  0  0
   16.9453  -22.9262  -10.7048 O   0  0  0  0  0  0  0  0  0  0  0  0
   18.5290  -22.3180  -12.4193 C   0  0  0  0  0  0  0  0  0  0  0  0
   20.0015  -22.4655  -12.6762 C   0  0  0  0  0  0  0  0  0  0  0  0
   20.3403  -21.8747  -14.0106 C   0  0  2  0  0  0  0  0  0  0  0  0
   21.7864  -21.9869  -14.2186 N   0  0  0  0  0  0  0  0  0  0  0  0
   19.9208  -20.4441  -14.0932 C   0  0  0  0  0  0  0  0  0  0  0  0
   20.5502  -19.5426  -13.5057 O   0  0  0  0  0  0  0  0  0  0  0  0
   18.8106  -20.1253  -14.8380 O   0  0  0  0  0  0  0  0  0  0  0  0
  2  1  1  6
  2  8  1  0
  3  2  1  0
  4  3  1  0
  4  5  1  0
  5  6  1  0
  7  6  1  0
  8  9  2  0
  8 15  1  0
 10 11  1  0
 11 12  2  0
 13 11  1  0
 14 13  1  1
 14 16  1  0
 15 14  1  0
 16 17  2  0
 19 21  1  0
 19 18  1  0
 20 19  2  0
 22 21  1  0
 23 22  1  1
 24 16  1  0
 24 23  1  0
 25 23  1  0
 25 27  1  0
 26 25  2  0
M  END
$$$$
