KNQ.pdb
     RDKit          3D

 27 26  0  0  1  0  0  0  0  0999 V2000
   26.1685  -21.7219  -13.6164 N   0  0  0  0  0  0  0  0  0  0  0  0
   25.8328  -20.4583  -13.0312 C   0  0  1  0  0  0  0  0  0  0  0  0
   26.7664  -20.1147  -11.8713 C   0  0  0  0  0  0  0  0  0  0  0  0
   26.3485  -20.6687  -10.5618 C   0  0  0  0  0  0  0  0  0  0  0  0
   24.9063  -20.5386  -10.2051 C   0  0  0  0  0  0  0  0  0  0  0  0
   24.7943  -20.9972   -8.7426 C   0  0  0  0  0  0  0  0  0  0  0  0
   23.4032  -21.0328   -8.3836 N   0  0  0  0  0  0  0  0  0  0  0  0
   26.1106  -19.3369  -14.0092 C   0  0  0  0  0  0  0  0  0  0  0  0
   25.8873  -18.1790  -13.5910 O   0  0  0  0  0  0  0  0  0  0  0  0
   29.8935  -17.9226  -18.4062 N   0  0  0  0  0  0  0  0  0  0  0  0
   28.6434  -17.6611  -17.7848 C   0  0  0  0  0  0  0  0  0  0  0  0
   27.9585  -16.6392  -18.0632 O   0  0  0  0  0  0  0  0  0  0  0  0
   28.1900  -18.6586  -16.7893 C   0  0  0  0  0  0  0  0  0  0  0  0
   26.8183  -18.4452  -16.2828 C   0  0  2  0  0  0  0  0  0  0  0  0
   26.5861  -19.5281  -15.3002 N   0  0  0  0  0  0  0  0  0  0  0  0
   25.7237  -18.3728  -17.2338 C   0  0  0  0  0  0  0  0  0  0  0  0
   25.6019  -19.3452  -18.0640 O   0  0  0  0  0  0  0  0  0  0  0  0
   22.2929  -20.3416  -14.3395 N   0  0  0  0  0  0  0  0  0  0  0  0
   21.2077  -19.7212  -15.0083 C   0  0  0  0  0  0  0  0  0  0  0  0
   20.0525  -20.1197  -14.8003 O   0  0  0  0  0  0  0  0  0  0  0  0
   21.5343  -18.5991  -15.9446 C   0  0  0  0  0  0  0  0  0  0  0  0
   23.0106  -18.3370  -16.0327 C   0  0  0  0  0  0  0  0  0  0  0  0
   23.3220  -17.6465  -17.3252 C   0  0  2  0  0  0  0  0  0  0  0  0
   24.7567  -17.3513  -17.3644 N   0  0  0  0  0  0  0  0  0  0  0  0
   22.5358  -16.3853  -17.4701 C   0  0  0  0  0  0  0  0  0  0  0  0
   21.2946  -16.3975  -17.5849 O   0  0  0  0  0  0  0  0  0  0  0  0
   23.2086  -15.1869  -17.4766 O   0  0  0  0  0  0  0  0  0  0  0  0
  2  1  1  6
  2  8  1  0
  3  2  1  0
  4  3  1  0
  4  5  1  0
  5  6  1  0
  7  6  1  0
  8  9  2  0
  8 15  1  0
 10 11  1  0
 11 12  2  0
 13 11  1  0
 14 13  1  6
 14 16  1  0
 15 14  1  0
 16 17  2  0
 19 21  1  0
 19 18  1  0
 20 19  2  0
 22 21  1  0
 23 22  1  1
 24 16  1  0
 24 23  1  0
 25 23  1  0
 25 27  1  0
 26 25  2  0
M  END
$$$$
