KNQ.pdb
     RDKit          3D

 27 26  0  0  1  0  0  0  0  0999 V2000
   12.9816  -10.4300  -16.8415 N   0  0  0  0  0  0  0  0  0  0  0  0
   13.3867   -9.8161  -15.6123 C   0  0  1  0  0  0  0  0  0  0  0  0
   12.9278  -10.6309  -14.4037 C   0  0  0  0  0  0  0  0  0  0  0  0
   11.4818  -10.5170  -14.0996 C   0  0  0  0  0  0  0  0  0  0  0  0
   10.9519  -11.3890  -13.0119 C   0  0  0  0  0  0  0  0  0  0  0  0
    9.4289  -11.1833  -13.0157 C   0  0  0  0  0  0  0  0  0  0  0  0
    8.8429  -12.1163  -12.0930 N   0  0  0  0  0  0  0  0  0  0  0  0
   14.8935   -9.8607  -15.4753 C   0  0  0  0  0  0  0  0  0  0  0  0
   15.3319  -10.0482  -14.3185 O   0  0  0  0  0  0  0  0  0  0  0  0
   16.6132  -12.3915  -16.0940 N   0  0  0  0  0  0  0  0  0  0  0  0
   17.3768  -12.1054  -17.2569 C   0  0  0  0  0  0  0  0  0  0  0  0
   17.7575  -13.0116  -18.0472 O   0  0  0  0  0  0  0  0  0  0  0  0
   17.7012  -10.6796  -17.4881 C   0  0  0  0  0  0  0  0  0  0  0  0
   17.2527   -9.7636  -16.4187 C   0  0  2  0  0  0  0  0  0  0  0  0
   15.7776   -9.7104  -16.5359 N   0  0  0  0  0  0  0  0  0  0  0  0
   17.8110   -8.4247  -16.3633 C   0  0  0  0  0  0  0  0  0  0  0  0
   17.2024   -7.5068  -17.0244 O   0  0  0  0  0  0  0  0  0  0  0  0
   22.2143   -5.7561  -12.6675 N   0  0  0  0  0  0  0  0  0  0  0  0
   21.7804   -4.6554  -13.4486 C   0  0  0  0  0  0  0  0  0  0  0  0
   22.2451   -3.5276  -13.2279 O   0  0  0  0  0  0  0  0  0  0  0  0
   20.7652   -4.9323  -14.5140 C   0  0  0  0  0  0  0  0  0  0  0  0
   20.3847   -6.3837  -14.5803 C   0  0  0  0  0  0  0  0  0  0  0  0
   19.3803   -6.5905  -15.6725 C   0  0  2  0  0  0  0  0  0  0  0  0
   18.9587   -7.9938  -15.6612 N   0  0  0  0  0  0  0  0  0  0  0  0
   19.9494   -6.2378  -17.0072 C   0  0  0  0  0  0  0  0  0  0  0  0
   20.5986   -7.0621  -17.6803 O   0  0  0  0  0  0  0  0  0  0  0  0
   19.7466   -4.9691  -17.4952 O   0  0  0  0  0  0  0  0  0  0  0  0
  2  1  1  6
  2  8  1  0
  3  2  1  0
  4  3  1  0
  4  5  1  0
  5  6  1  0
  7  6  1  0
  8  9  2  0
  8 15  1  0
 10 11  1  0
 11 12  2  0
 13 11  1  0
 14 13  1  6
 14 16  1  0
 15 14  1  0
 16 17  2  0
 19 21  1  0
 19 18  1  0
 20 19  2  0
 22 21  1  0
 23 22  1  1
 24 16  1  0
 24 23  1  0
 25 23  1  0
 25 27  1  0
 26 25  2  0
M  END
$$$$
