MGE.pdb
     RDKit          3D

 22 21  0  0  1  0  0  0  0  0999 V2000
    5.1561  -10.8388   26.8089 C   0  0  0  0  0  0  0  0  0  0  0  0
    6.5294  -11.9236   26.5016 S   0  0  0  0  0  0  0  0  0  0  0  0
    6.2304  -13.2896   25.4193 C   0  0  0  0  0  0  0  0  0  0  0  0
    7.3512  -14.1097   24.9386 C   0  0  0  0  0  0  0  0  0  0  0  0
    6.9876  -15.1782   23.9787 C   0  0  2  0  0  0  0  0  0  0  0  0
    6.1602  -16.1566   24.6790 N   0  0  0  0  0  0  0  0  0  0  0  0
    8.2318  -15.8950   23.4848 C   0  0  0  0  0  0  0  0  0  0  0  0
    8.6665  -16.8206   24.1738 O   0  0  0  0  0  0  0  0  0  0  0  0
    8.8739  -15.5163   22.2760 N   0  0  0  0  0  0  0  0  0  0  0  0
    9.9892  -16.2760   21.7225 C   0  0  0  0  0  0  0  0  0  0  0  0
   11.0875  -16.3884   22.7306 C   0  0  0  0  0  0  0  0  0  0  0  0
   12.0546  -15.5869   22.6884 O   0  0  0  0  0  0  0  0  0  0  0  0
   11.0951  -17.3695   23.7489 N   0  0  0  0  0  0  0  0  0  0  0  0
   12.1641  -17.3667   24.7244 C   0  0  1  0  0  0  0  0  0  0  0  0
   11.8417  -18.1513   25.9479 C   0  0  0  0  0  0  0  0  0  0  0  0
   12.9075  -18.2399   26.9804 C   0  0  0  0  0  0  0  0  0  0  0  0
   12.4857  -19.0048   28.1739 C   0  0  0  0  0  0  0  0  0  0  0  0
   11.2675  -19.2937   28.2929 O   0  0  0  0  0  0  0  0  0  0  0  0
   13.4120  -17.7659   24.0330 C   0  0  0  0  0  0  0  0  0  0  0  0
   13.4028  -18.6451   22.9567 O   0  0  0  0  0  0  0  0  0  0  0  0
   13.3458  -19.4279   29.1759 O   0  0  0  0  0  0  0  0  0  0  0  0
   14.5545  -17.3265   24.3856 O   0  0  0  0  0  0  0  0  0  0  0  0
  2  3  1  0
  2  1  1  0
  3  4  1  0
  4  5  1  0
  5  7  1  0
  5  6  1  1
  7  8  2  0
  9  7  1  0
  9 10  1  0
 10 11  1  0
 11 12  2  0
 11 13  1  0
 13 14  1  0
 14 19  1  0
 14 15  1  1
 15 16  1  0
 17 16  1  0
 18 17  2  0
 19 20  1  0
 21 17  1  0
 22 19  2  0
M  END
$$$$
