MGE.pdb
     RDKit          3D

 22 21  0  0  1  0  0  0  0  0999 V2000
    7.2567  -10.8715   26.0754 C   0  0  0  0  0  0  0  0  0  0  0  0
    6.5126  -12.2628   26.8923 S   0  0  0  0  0  0  0  0  0  0  0  0
    6.1924  -13.6867   25.8940 C   0  0  0  0  0  0  0  0  0  0  0  0
    7.3070  -14.4339   25.2947 C   0  0  0  0  0  0  0  0  0  0  0  0
    6.9156  -15.5986   24.4666 C   0  0  2  0  0  0  0  0  0  0  0  0
    6.3458  -16.6131   25.3489 N   0  0  0  0  0  0  0  0  0  0  0  0
    8.1336  -16.2048   23.7923 C   0  0  0  0  0  0  0  0  0  0  0  0
    8.7626  -17.0616   24.4173 O   0  0  0  0  0  0  0  0  0  0  0  0
    8.5368  -15.8023   22.4914 N   0  0  0  0  0  0  0  0  0  0  0  0
    9.7000  -16.3818   21.8290 C   0  0  0  0  0  0  0  0  0  0  0  0
   10.9293  -16.1471   22.6468 C   0  0  0  0  0  0  0  0  0  0  0  0
   11.7040  -15.2035   22.3481 O   0  0  0  0  0  0  0  0  0  0  0  0
   11.2729  -16.9478   23.7604 N   0  0  0  0  0  0  0  0  0  0  0  0
   12.4891  -16.6589   24.4898 C   0  0  1  0  0  0  0  0  0  0  0  0
   12.5569  -17.3450   25.8094 C   0  0  0  0  0  0  0  0  0  0  0  0
   11.4939  -17.0038   26.7910 C   0  0  0  0  0  0  0  0  0  0  0  0
   11.6137  -17.7668   28.0522 C   0  0  0  0  0  0  0  0  0  0  0  0
   12.3033  -18.8184   28.0457 O   0  0  0  0  0  0  0  0  0  0  0  0
   13.6341  -16.9198   23.5867 C   0  0  0  0  0  0  0  0  0  0  0  0
   13.5123  -17.7351   22.4677 O   0  0  0  0  0  0  0  0  0  0  0  0
   11.0149  -17.4001   29.2481 O   0  0  0  0  0  0  0  0  0  0  0  0
   14.7856  -16.4129   23.7858 O   0  0  0  0  0  0  0  0  0  0  0  0
  2  3  1  0
  2  1  1  0
  3  4  1  0
  4  5  1  0
  5  7  1  0
  5  6  1  1
  7  8  2  0
  9  7  1  0
  9 10  1  0
 10 11  1  0
 11 12  2  0
 11 13  1  0
 13 14  1  0
 14 19  1  0
 14 15  1  1
 15 16  1  0
 17 16  1  0
 18 17  2  0
 19 20  1  0
 21 17  1  0
 22 19  2  0
M  END
$$$$
