MGE.pdb
     RDKit          3D

 22 21  0  0  1  0  0  0  0  0999 V2000
    6.8861  -10.5096   28.2012 C   0  0  0  0  0  0  0  0  0  0  0  0
    6.2907  -11.4055   26.7870 S   0  0  0  0  0  0  0  0  0  0  0  0
    7.2412  -12.8088   26.2832 C   0  0  0  0  0  0  0  0  0  0  0  0
    6.8534  -13.5730   25.0893 C   0  0  0  0  0  0  0  0  0  0  0  0
    7.6642  -14.7841   24.8219 C   0  0  2  0  0  0  0  0  0  0  0  0
    9.0716  -14.4374   24.9988 N   0  0  0  0  0  0  0  0  0  0  0  0
    7.4784  -15.2420   23.3862 C   0  0  0  0  0  0  0  0  0  0  0  0
    6.4036  -15.7699   23.0919 O   0  0  0  0  0  0  0  0  0  0  0  0
    8.5016  -15.0713   22.4162 N   0  0  0  0  0  0  0  0  0  0  0  0
    8.6799  -16.0038   21.3089 C   0  0  0  0  0  0  0  0  0  0  0  0
    9.9596  -16.7595   21.4720 C   0  0  0  0  0  0  0  0  0  0  0  0
   10.3310  -17.5548   20.5725 O   0  0  0  0  0  0  0  0  0  0  0  0
   10.7899  -16.6236   22.6085 N   0  0  0  0  0  0  0  0  0  0  0  0
   12.0891  -17.2611   22.6144 C   0  0  1  0  0  0  0  0  0  0  0  0
   13.0397  -16.6609   21.6382 C   0  0  0  0  0  0  0  0  0  0  0  0
   13.4232  -15.2435   21.8699 C   0  0  0  0  0  0  0  0  0  0  0  0
   14.4190  -14.7532   20.8925 C   0  0  0  0  0  0  0  0  0  0  0  0
   14.0109  -14.4007   19.7564 O   0  0  0  0  0  0  0  0  0  0  0  0
   12.5696  -17.3019   24.0152 C   0  0  0  0  0  0  0  0  0  0  0  0
   13.7644  -17.9218   24.3609 O   0  0  0  0  0  0  0  0  0  0  0  0
   15.7791  -14.6546   21.1443 O   0  0  0  0  0  0  0  0  0  0  0  0
   11.9171  -16.7730   24.9729 O   0  0  0  0  0  0  0  0  0  0  0  0
  2  3  1  0
  2  1  1  0
  3  4  1  0
  4  5  1  0
  5  7  1  0
  5  6  1  6
  7  8  2  0
  9  7  1  0
  9 10  1  0
 10 11  1  0
 11 12  2  0
 11 13  1  0
 13 14  1  0
 14 19  1  0
 14 15  1  6
 15 16  1  0
 17 16  1  0
 18 17  2  0
 19 20  1  0
 21 17  1  0
 22 19  2  0
M  END
$$$$
