MGE.pdb
     RDKit          3D

 22 21  0  0  1  0  0  0  0  0999 V2000
    6.2666  -10.9745   25.7655 C   0  0  0  0  0  0  0  0  0  0  0  0
    6.9069  -12.4081   26.5974 S   0  0  0  0  0  0  0  0  0  0  0  0
    5.9433  -13.8860   26.4798 C   0  0  0  0  0  0  0  0  0  0  0  0
    6.0762  -14.7628   25.3079 C   0  0  0  0  0  0  0  0  0  0  0  0
    7.3173  -15.5707   25.2593 C   0  0  2  0  0  0  0  0  0  0  0  0
    8.3749  -14.8205   25.9307 N   0  0  0  0  0  0  0  0  0  0  0  0
    7.7508  -15.7932   23.8212 C   0  0  0  0  0  0  0  0  0  0  0  0
    7.0365  -16.5093   23.1159 O   0  0  0  0  0  0  0  0  0  0  0  0
    8.9339  -15.2016   23.3044 N   0  0  0  0  0  0  0  0  0  0  0  0
    9.7440  -15.8577   22.2842 C   0  0  0  0  0  0  0  0  0  0  0  0
   10.9647  -16.4594   22.9030 C   0  0  0  0  0  0  0  0  0  0  0  0
   12.0914  -15.9502   22.6775 O   0  0  0  0  0  0  0  0  0  0  0  0
   10.9166  -17.5945   23.7448 N   0  0  0  0  0  0  0  0  0  0  0  0
   11.8468  -17.6950   24.8489 C   0  0  1  0  0  0  0  0  0  0  0  0
   11.8233  -16.5054   25.7439 C   0  0  0  0  0  0  0  0  0  0  0  0
   10.9044  -16.5699   26.9107 C   0  0  0  0  0  0  0  0  0  0  0  0
   10.9572  -15.3522   27.7484 C   0  0  0  0  0  0  0  0  0  0  0  0
   11.7314  -14.4250   27.3986 O   0  0  0  0  0  0  0  0  0  0  0  0
   11.6138  -18.9932   25.5235 C   0  0  0  0  0  0  0  0  0  0  0  0
   12.6302  -19.6606   26.1966 O   0  0  0  0  0  0  0  0  0  0  0  0
   10.2071  -15.1614   28.8991 O   0  0  0  0  0  0  0  0  0  0  0  0
   10.4751  -19.5641   25.5234 O   0  0  0  0  0  0  0  0  0  0  0  0
  2  3  1  0
  2  1  1  0
  3  4  1  0
  4  5  1  0
  5  7  1  0
  5  6  1  1
  7  8  2  0
  9  7  1  0
  9 10  1  0
 10 11  1  0
 11 12  2  0
 11 13  1  0
 13 14  1  0
 14 19  1  0
 14 15  1  1
 15 16  1  0
 17 16  1  0
 18 17  2  0
 19 20  1  0
 21 17  1  0
 22 19  2  0
M  END
$$$$
