MGE.pdb
     RDKit          3D

 22 21  0  0  1  0  0  0  0  0999 V2000
    8.7218  -12.4619   22.5548 C   0  0  0  0  0  0  0  0  0  0  0  0
    7.4191  -12.3705   21.3500 S   0  0  0  0  0  0  0  0  0  0  0  0
    7.6609  -13.2818   19.8541 C   0  0  0  0  0  0  0  0  0  0  0  0
    8.4877  -12.7236   18.7750 C   0  0  0  0  0  0  0  0  0  0  0  0
    8.8491  -13.6747   17.6979 C   0  0  2  0  0  0  0  0  0  0  0  0
    7.6293  -14.3425   17.2525 N   0  0  0  0  0  0  0  0  0  0  0  0
    9.7931  -14.7409   18.2247 C   0  0  0  0  0  0  0  0  0  0  0  0
    9.2953  -15.8002   18.6129 O   0  0  0  0  0  0  0  0  0  0  0  0
   11.1967  -14.5298   18.2712 N   0  0  0  0  0  0  0  0  0  0  0  0
   12.1063  -15.5080   18.8573 C   0  0  0  0  0  0  0  0  0  0  0  0
   13.5071  -14.9858   18.8385 C   0  0  0  0  0  0  0  0  0  0  0  0
   13.7124  -13.7521   18.9624 O   0  0  0  0  0  0  0  0  0  0  0  0
   14.6352  -15.8244   18.6848 N   0  0  0  0  0  0  0  0  0  0  0  0
   15.9574  -15.2360   18.6813 C   0  0  1  0  0  0  0  0  0  0  0  0
   16.4076  -14.8007   20.0321 C   0  0  0  0  0  0  0  0  0  0  0  0
   16.1248  -15.7294   21.1579 C   0  0  0  0  0  0  0  0  0  0  0  0
   16.7848  -15.3202   22.4166 C   0  0  0  0  0  0  0  0  0  0  0  0
   17.6088  -14.3711   22.3726 O   0  0  0  0  0  0  0  0  0  0  0  0
   16.8705  -16.1732   17.9867 C   0  0  0  0  0  0  0  0  0  0  0  0
   16.4403  -17.4162   17.5379 O   0  0  0  0  0  0  0  0  0  0  0  0
   16.5559  -15.9139   23.6487 O   0  0  0  0  0  0  0  0  0  0  0  0
   18.0926  -15.8913   17.7639 O   0  0  0  0  0  0  0  0  0  0  0  0
  2  3  1  0
  2  1  1  0
  3  4  1  0
  4  5  1  0
  5  7  1  0
  5  6  1  1
  7  8  2  0
  9  7  1  0
  9 10  1  0
 10 11  1  0
 11 12  2  0
 11 13  1  0
 13 14  1  0
 14 19  1  0
 14 15  1  1
 15 16  1  0
 17 16  1  0
 18 17  2  0
 19 20  1  0
 21 17  1  0
 22 19  2  0
M  END
$$$$
