MGE.pdb
     RDKit          3D

 22 21  0  0  1  0  0  0  0  0999 V2000
    9.1628  -13.3700   29.3591 C   0  0  0  0  0  0  0  0  0  0  0  0
    8.6433  -13.2163   27.6669 S   0  0  0  0  0  0  0  0  0  0  0  0
    7.0682  -13.9082   27.2580 C   0  0  0  0  0  0  0  0  0  0  0  0
    6.4982  -13.7058   25.9186 C   0  0  0  0  0  0  0  0  0  0  0  0
    6.3950  -14.9254   25.0836 C   0  0  2  0  0  0  0  0  0  0  0  0
    6.5963  -16.0859   25.9468 N   0  0  0  0  0  0  0  0  0  0  0  0
    7.4860  -14.9407   24.0276 C   0  0  0  0  0  0  0  0  0  0  0  0
    7.9782  -13.8580   23.7023 O   0  0  0  0  0  0  0  0  0  0  0  0
    7.9251  -16.1539   23.4341 N   0  0  0  0  0  0  0  0  0  0  0  0
    9.1099  -16.2145   22.5854 C   0  0  0  0  0  0  0  0  0  0  0  0
   10.1491  -17.0876   23.2122 C   0  0  0  0  0  0  0  0  0  0  0  0
    9.8036  -18.1496   23.7886 O   0  0  0  0  0  0  0  0  0  0  0  0
   11.5277  -16.7740   23.1903 N   0  0  0  0  0  0  0  0  0  0  0  0
   12.4674  -17.6759   23.8211 C   0  0  1  0  0  0  0  0  0  0  0  0
   13.8330  -17.6036   23.2326 C   0  0  0  0  0  0  0  0  0  0  0  0
   14.4613  -16.2576   23.1753 C   0  0  0  0  0  0  0  0  0  0  0  0
   15.5328  -16.1691   22.1596 C   0  0  0  0  0  0  0  0  0  0  0  0
   16.1802  -17.2126   21.8885 O   0  0  0  0  0  0  0  0  0  0  0  0
   12.4013  -17.4516   25.2840 C   0  0  0  0  0  0  0  0  0  0  0  0
   11.6833  -16.3944   25.8303 O   0  0  0  0  0  0  0  0  0  0  0  0
   15.8740  -15.0085   21.4817 O   0  0  0  0  0  0  0  0  0  0  0  0
   12.9953  -18.2122   26.1155 O   0  0  0  0  0  0  0  0  0  0  0  0
  2  3  1  0
  2  1  1  0
  3  4  1  0
  4  5  1  0
  5  7  1  0
  5  6  1  1
  7  8  2  0
  9  7  1  0
  9 10  1  0
 10 11  1  0
 11 12  2  0
 11 13  1  0
 13 14  1  0
 14 19  1  0
 14 15  1  6
 15 16  1  0
 17 16  1  0
 18 17  2  0
 19 20  1  0
 21 17  1  0
 22 19  2  0
M  END
$$$$
