MGE.pdb
     RDKit          3D

 22 21  0  0  1  0  0  0  0  0999 V2000
    7.4705  -10.9047   19.2328 C   0  0  0  0  0  0  0  0  0  0  0  0
    6.6763  -12.1428   20.2295 S   0  0  0  0  0  0  0  0  0  0  0  0
    7.7210  -13.3916   20.9193 C   0  0  0  0  0  0  0  0  0  0  0  0
    7.1660  -14.3912   21.8426 C   0  0  0  0  0  0  0  0  0  0  0  0
    8.1197  -15.4289   22.2999 C   0  0  2  0  0  0  0  0  0  0  0  0
    8.6255  -16.1317   21.1241 N   0  0  0  0  0  0  0  0  0  0  0  0
    7.4159  -16.4473   23.1792 C   0  0  0  0  0  0  0  0  0  0  0  0
    7.1118  -17.5273   22.6676 O   0  0  0  0  0  0  0  0  0  0  0  0
    7.1167  -16.1702   24.5395 N   0  0  0  0  0  0  0  0  0  0  0  0
    6.6020  -17.1942   25.4417 C   0  0  0  0  0  0  0  0  0  0  0  0
    7.7298  -17.9927   26.0126 C   0  0  0  0  0  0  0  0  0  0  0  0
    7.4837  -18.9454   26.7945 O   0  0  0  0  0  0  0  0  0  0  0  0
    9.0857  -17.7258   25.7131 N   0  0  0  0  0  0  0  0  0  0  0  0
   10.1124  -18.5872   26.2594 C   0  0  1  0  0  0  0  0  0  0  0  0
   11.3763  -18.5623   25.4729 C   0  0  0  0  0  0  0  0  0  0  0  0
   11.9418  -17.2221   25.1663 C   0  0  0  0  0  0  0  0  0  0  0  0
   13.2100  -17.2960   24.4089 C   0  0  0  0  0  0  0  0  0  0  0  0
   13.1512  -17.5387   23.1764 O   0  0  0  0  0  0  0  0  0  0  0  0
   10.2609  -18.2627   27.6972 C   0  0  0  0  0  0  0  0  0  0  0  0
    9.6971  -17.1197   28.2513 O   0  0  0  0  0  0  0  0  0  0  0  0
   14.4662  -17.1145   24.9675 O   0  0  0  0  0  0  0  0  0  0  0  0
   10.9094  -19.0106   28.4990 O   0  0  0  0  0  0  0  0  0  0  0  0
  2  3  1  0
  2  1  1  0
  3  4  1  0
  4  5  1  0
  5  7  1  0
  5  6  1  6
  7  8  2  0
  9  7  1  0
  9 10  1  0
 10 11  1  0
 11 12  2  0
 11 13  1  0
 13 14  1  0
 14 19  1  0
 14 15  1  6
 15 16  1  0
 17 16  1  0
 18 17  2  0
 19 20  1  0
 21 17  1  0
 22 19  2  0
M  END
$$$$
