MGE.pdb
     RDKit          3D

 22 21  0  0  1  0  0  0  0  0999 V2000
    6.9956  -11.0159   26.5461 C   0  0  0  0  0  0  0  0  0  0  0  0
    7.3185  -12.6537   27.1547 S   0  0  0  0  0  0  0  0  0  0  0  0
    6.3094  -13.9517   26.5038 C   0  0  0  0  0  0  0  0  0  0  0  0
    6.3850  -14.3014   25.0784 C   0  0  0  0  0  0  0  0  0  0  0  0
    7.1365  -15.5405   24.7697 C   0  0  2  0  0  0  0  0  0  0  0  0
    8.2558  -15.6379   25.7024 N   0  0  0  0  0  0  0  0  0  0  0  0
    7.7101  -15.4783   23.3651 C   0  0  0  0  0  0  0  0  0  0  0  0
    6.9748  -15.0598   22.4682 O   0  0  0  0  0  0  0  0  0  0  0  0
    9.0423  -15.8867   23.0906 N   0  0  0  0  0  0  0  0  0  0  0  0
    9.6325  -15.7564   21.7630 C   0  0  0  0  0  0  0  0  0  0  0  0
   11.0960  -16.0569   21.8175 C   0  0  0  0  0  0  0  0  0  0  0  0
   11.5578  -17.0206   21.1560 O   0  0  0  0  0  0  0  0  0  0  0  0
   12.0054  -15.2987   22.5904 N   0  0  0  0  0  0  0  0  0  0  0  0
   12.6632  -15.9211   23.7192 C   0  0  1  0  0  0  0  0  0  0  0  0
   11.7102  -16.5085   24.7008 C   0  0  0  0  0  0  0  0  0  0  0  0
   12.3064  -17.1805   25.8852 C   0  0  0  0  0  0  0  0  0  0  0  0
   11.2875  -17.7567   26.7891 C   0  0  0  0  0  0  0  0  0  0  0  0
   11.3446  -18.9880   27.0385 O   0  0  0  0  0  0  0  0  0  0  0  0
   13.6802  -16.8605   23.1919 C   0  0  0  0  0  0  0  0  0  0  0  0
   15.0302  -16.7207   23.4912 O   0  0  0  0  0  0  0  0  0  0  0  0
   10.2683  -17.0285   27.3842 O   0  0  0  0  0  0  0  0  0  0  0  0
   13.3735  -17.8421   22.4403 O   0  0  0  0  0  0  0  0  0  0  0  0
  2  3  1  0
  2  1  1  0
  3  4  1  0
  4  5  1  0
  5  7  1  0
  5  6  1  1
  7  8  2  0
  9  7  1  0
  9 10  1  0
 10 11  1  0
 11 12  2  0
 11 13  1  0
 13 14  1  0
 14 19  1  0
 14 15  1  6
 15 16  1  0
 17 16  1  0
 18 17  2  0
 19 20  1  0
 21 17  1  0
 22 19  2  0
M  END
$$$$
