MGE.pdb
     RDKit          3D

 22 21  0  0  1  0  0  0  0  0999 V2000
    5.7675  -11.7502   27.1852 C   0  0  0  0  0  0  0  0  0  0  0  0
    6.9990  -12.6614   26.2851 S   0  0  0  0  0  0  0  0  0  0  0  0
    6.8541  -12.6572   24.5228 C   0  0  0  0  0  0  0  0  0  0  0  0
    7.9210  -13.2341   23.6929 C   0  0  0  0  0  0  0  0  0  0  0  0
    7.6280  -14.5706   23.1244 C   0  0  2  0  0  0  0  0  0  0  0  0
    7.0147  -15.3851   24.1697 N   0  0  0  0  0  0  0  0  0  0  0  0
    8.9118  -15.2593   22.6963 C   0  0  0  0  0  0  0  0  0  0  0  0
    9.8516  -14.5429   22.3438 O   0  0  0  0  0  0  0  0  0  0  0  0
    9.0295  -16.6745   22.6993 N   0  0  0  0  0  0  0  0  0  0  0  0
   10.2470  -17.3497   22.2642 C   0  0  0  0  0  0  0  0  0  0  0  0
   11.0313  -17.8135   23.4495 C   0  0  0  0  0  0  0  0  0  0  0  0
   12.1131  -18.4295   23.2768 O   0  0  0  0  0  0  0  0  0  0  0  0
   10.6105  -17.5913   24.7810 N   0  0  0  0  0  0  0  0  0  0  0  0
   11.4988  -17.9379   25.8697 C   0  0  1  0  0  0  0  0  0  0  0  0
   11.6047  -16.8695   26.9012 C   0  0  0  0  0  0  0  0  0  0  0  0
   10.4521  -16.7252   27.8289 C   0  0  0  0  0  0  0  0  0  0  0  0
   10.6538  -15.6552   28.8298 C   0  0  0  0  0  0  0  0  0  0  0  0
   11.1130  -15.9756   29.9559 O   0  0  0  0  0  0  0  0  0  0  0  0
   11.0935  -19.2675   26.3819 C   0  0  0  0  0  0  0  0  0  0  0  0
   11.9159  -20.0101   27.2208 O   0  0  0  0  0  0  0  0  0  0  0  0
   10.3702  -14.3156   28.6105 O   0  0  0  0  0  0  0  0  0  0  0  0
    9.9748  -19.7986   26.0831 O   0  0  0  0  0  0  0  0  0  0  0  0
  2  3  1  0
  2  1  1  0
  3  4  1  0
  4  5  1  0
  5  7  1  0
  5  6  1  1
  7  8  2  0
  9  7  1  0
  9 10  1  0
 10 11  1  0
 11 12  2  0
 11 13  1  0
 13 14  1  0
 14 19  1  0
 14 15  1  1
 15 16  1  0
 17 16  1  0
 18 17  2  0
 19 20  1  0
 21 17  1  0
 22 19  2  0
M  END
$$$$
