MGE.pdb
     RDKit          3D

 22 21  0  0  1  0  0  0  0  0999 V2000
    6.8844  -10.6610   25.7116 C   0  0  0  0  0  0  0  0  0  0  0  0
    7.3732  -12.3683   25.7696 S   0  0  0  0  0  0  0  0  0  0  0  0
    6.5192  -13.4719   24.6836 C   0  0  0  0  0  0  0  0  0  0  0  0
    6.7471  -13.4040   23.2333 C   0  0  0  0  0  0  0  0  0  0  0  0
    8.1080  -13.7845   22.7879 C   0  0  2  0  0  0  0  0  0  0  0  0
    8.2236  -13.4770   21.3651 N   0  0  0  0  0  0  0  0  0  0  0  0
    8.3244  -15.2780   22.9564 C   0  0  0  0  0  0  0  0  0  0  0  0
    7.9630  -16.0129   22.0346 O   0  0  0  0  0  0  0  0  0  0  0  0
    8.9194  -15.8123   24.1300 N   0  0  0  0  0  0  0  0  0  0  0  0
    9.4568  -17.1675   24.1758 C   0  0  0  0  0  0  0  0  0  0  0  0
    9.9345  -17.4866   25.5560 C   0  0  0  0  0  0  0  0  0  0  0  0
   10.1472  -16.5542   26.3714 O   0  0  0  0  0  0  0  0  0  0  0  0
   10.1647  -18.8092   26.0002 N   0  0  0  0  0  0  0  0  0  0  0  0
   10.6647  -19.0270   27.3407 C   0  0  1  0  0  0  0  0  0  0  0  0
    9.9096  -20.0730   28.0840 C   0  0  0  0  0  0  0  0  0  0  0  0
    8.4465  -20.1427   27.8304 C   0  0  0  0  0  0  0  0  0  0  0  0
    7.8135  -21.3251   28.4536 C   0  0  0  0  0  0  0  0  0  0  0  0
    8.5485  -22.1284   29.0830 O   0  0  0  0  0  0  0  0  0  0  0  0
   12.1261  -19.2524   27.2502 C   0  0  0  0  0  0  0  0  0  0  0  0
   12.7731  -19.3743   26.0263 O   0  0  0  0  0  0  0  0  0  0  0  0
    6.4579  -21.6103   28.3916 O   0  0  0  0  0  0  0  0  0  0  0  0
   12.8645  -19.3453   28.2841 O   0  0  0  0  0  0  0  0  0  0  0  0
  2  3  1  0
  2  1  1  0
  3  4  1  0
  4  5  1  0
  5  7  1  0
  5  6  1  6
  7  8  2  0
  9  7  1  0
  9 10  1  0
 10 11  1  0
 11 12  2  0
 11 13  1  0
 13 14  1  0
 14 19  1  0
 14 15  1  6
 15 16  1  0
 17 16  1  0
 18 17  2  0
 19 20  1  0
 21 17  1  0
 22 19  2  0
M  END
$$$$
