MGE.pdb
     RDKit          3D

 22 21  0  0  1  0  0  0  0  0999 V2000
    5.3580  -11.5130   27.7119 C   0  0  0  0  0  0  0  0  0  0  0  0
    6.7457  -12.2019   26.8420 S   0  0  0  0  0  0  0  0  0  0  0  0
    6.4250  -13.6264   25.8446 C   0  0  0  0  0  0  0  0  0  0  0  0
    7.5146  -14.2577   25.0870 C   0  0  0  0  0  0  0  0  0  0  0  0
    7.1309  -15.4578   24.3073 C   0  0  2  0  0  0  0  0  0  0  0  0
    6.6124  -16.4575   25.2368 N   0  0  0  0  0  0  0  0  0  0  0  0
    8.3451  -16.0544   23.6178 C   0  0  0  0  0  0  0  0  0  0  0  0
    8.6597  -17.2085   23.9171 O   0  0  0  0  0  0  0  0  0  0  0  0
    9.0934  -15.3142   22.6643 N   0  0  0  0  0  0  0  0  0  0  0  0
   10.2178  -15.8987   21.9420 C   0  0  0  0  0  0  0  0  0  0  0  0
   11.3677  -16.1218   22.8710 C   0  0  0  0  0  0  0  0  0  0  0  0
   12.5390  -16.1454   22.4161 O   0  0  0  0  0  0  0  0  0  0  0  0
   11.2025  -16.3120   24.2624 N   0  0  0  0  0  0  0  0  0  0  0  0
   12.3744  -16.4251   25.1039 C   0  0  1  0  0  0  0  0  0  0  0  0
   12.0600  -16.3551   26.5575 C   0  0  0  0  0  0  0  0  0  0  0  0
   11.2528  -15.1906   27.0073 C   0  0  0  0  0  0  0  0  0  0  0  0
   10.9618  -15.2220   28.4570 C   0  0  0  0  0  0  0  0  0  0  0  0
   11.5627  -16.0709   29.1641 O   0  0  0  0  0  0  0  0  0  0  0  0
   13.1237  -17.6310   24.6808 C   0  0  0  0  0  0  0  0  0  0  0  0
   12.5214  -18.6469   23.9483 O   0  0  0  0  0  0  0  0  0  0  0  0
   10.0673  -14.3749   29.0937 O   0  0  0  0  0  0  0  0  0  0  0  0
   14.3542  -17.8003   24.9635 O   0  0  0  0  0  0  0  0  0  0  0  0
  2  3  1  0
  2  1  1  0
  3  4  1  0
  4  5  1  0
  5  7  1  0
  5  6  1  1
  7  8  2  0
  9  7  1  0
  9 10  1  0
 10 11  1  0
 11 12  2  0
 11 13  1  0
 13 14  1  0
 14 19  1  0
 14 15  1  1
 15 16  1  0
 17 16  1  0
 18 17  2  0
 19 20  1  0
 21 17  1  0
 22 19  2  0
M  END
$$$$
