QIY.pdb
     RDKit          3D

 30 30  0  0  1  0  0  0  0  0999 V2000
   27.8805  -20.4296  -18.4735 N   0  0  0  0  0  0  0  0  0  0  0  0
   28.6666  -19.3762  -17.8832 C   0  0  0  0  0  0  0  0  0  0  0  0
   29.6825  -18.9658  -18.4916 O   0  0  0  0  0  0  0  0  0  0  0  0
   28.3016  -18.7772  -16.5950 C   0  0  0  0  0  0  0  0  0  0  0  0
   27.2532  -19.4674  -15.8105 C   0  0  0  0  0  0  0  0  0  0  0  0
   27.6829  -20.5726  -14.9140 C   0  0  2  0  0  0  0  0  0  0  0  0
   28.4143  -21.6443  -15.5272 N   0  0  0  0  0  0  0  0  0  0  0  0
   26.5195  -21.1357  -14.1364 C   0  0  0  0  0  0  0  0  0  0  0  0
   25.8793  -22.0906  -14.6382 O   0  0  0  0  0  0  0  0  0  0  0  0
   26.6570  -20.3701   -8.7019 C   0  0  0  0  0  0  0  0  0  0  0  0
   26.4636  -21.0847  -10.0225 C   0  0  0  0  0  0  0  0  0  0  0  0
   25.1400  -20.7166  -10.6544 C   0  0  2  0  0  0  0  0  0  0  0  0
   23.9839  -21.2793   -9.8559 C   0  0  0  0  0  0  0  0  0  0  0  0
   25.0737  -21.0606  -12.1063 C   0  0  2  0  0  0  0  0  0  0  0  0
   26.1819  -20.5790  -12.8724 N   0  0  0  0  0  0  0  0  0  0  0  0
   23.7674  -20.6354  -12.6468 C   0  0  0  0  0  0  0  0  0  0  0  0
   23.4566  -19.4216  -12.5652 O   0  0  0  0  0  0  0  0  0  0  0  0
   16.2913  -20.0212  -17.3167 O   0  0  0  0  0  0  0  0  0  0  0  0
   17.5081  -20.4256  -16.7856 C   0  0  0  0  0  0  0  0  0  0  0  0
   18.5928  -19.5769  -16.7646 C   0  0  0  0  0  0  0  0  0  0  0  0
   19.8111  -20.0035  -16.2247 C   0  0  0  0  0  0  0  0  0  0  0  0
   19.9869  -21.2595  -15.6997 C   0  0  0  0  0  0  0  0  0  0  0  0
   21.2578  -21.7557  -15.1129 C   0  0  0  0  0  0  0  0  0  0  0  0
   21.5762  -21.0577  -13.8077 C   0  0  2  0  0  0  0  0  0  0  0  0
   22.8369  -21.5160  -13.2555 N   0  0  0  0  0  0  0  0  0  0  0  0
   20.5018  -21.3713  -12.8419 C   0  0  0  0  0  0  0  0  0  0  0  0
   19.4437  -20.4976  -12.5927 O   0  0  0  0  0  0  0  0  0  0  0  0
   18.8738  -22.1101  -15.7290 C   0  0  0  0  0  0  0  0  0  0  0  0
   17.6761  -21.6882  -16.2607 C   0  0  0  0  0  0  0  0  0  0  0  0
   20.5027  -22.4434  -12.2051 O   0  0  0  0  0  0  0  0  0  0  0  0
  2  4  1  0
  2  1  1  0
  3  2  2  0
  5  6  1  0
  5  4  1  0
  6  7  1  6
  8  6  1  0
  8  9  2  0
 11 10  1  0
 12 11  1  0
 12 14  1  0
 12 13  1  1
 14 15  1  6
 15  8  1  0
 16 14  1  0
 17 16  2  0
 19 18  1  0
 19 29  2  0
 20 19  1  0
 21 20  2  0
 21 22  1  0
 22 28  2  0
 23 22  1  0
 24 25  1  0
 24 23  1  6
 25 16  1  0
 26 24  1  0
 27 26  1  0
 28 29  1  0
 30 26  2  0
M  END
$$$$
