QIY.pdb
     RDKit          3D

 30 30  0  0  1  0  0  0  0  0999 V2000
   34.3396  -19.9438  -18.8195 N   0  0  0  0  0  0  0  0  0  0  0  0
   33.8818  -19.1520  -19.9329 C   0  0  0  0  0  0  0  0  0  0  0  0
   34.5144  -18.1139  -20.2377 O   0  0  0  0  0  0  0  0  0  0  0  0
   32.7004  -19.5364  -20.7127 C   0  0  0  0  0  0  0  0  0  0  0  0
   32.0419  -20.8096  -20.3437 C   0  0  0  0  0  0  0  0  0  0  0  0
   32.7681  -22.0707  -20.6468 C   0  0  2  0  0  0  0  0  0  0  0  0
   33.0706  -22.3171  -22.0280 N   0  0  0  0  0  0  0  0  0  0  0  0
   32.0604  -23.2685  -20.0638 C   0  0  0  0  0  0  0  0  0  0  0  0
   31.3583  -23.9713  -20.8295 O   0  0  0  0  0  0  0  0  0  0  0  0
   34.4531  -26.2572  -16.1487 C   0  0  0  0  0  0  0  0  0  0  0  0
   33.6602  -25.7908  -17.3511 C   0  0  0  0  0  0  0  0  0  0  0  0
   32.2890  -25.2995  -16.9445 C   0  0  2  0  0  0  0  0  0  0  0  0
   31.5108  -26.3893  -16.2392 C   0  0  0  0  0  0  0  0  0  0  0  0
   31.5361  -24.6774  -18.0745 C   0  0  2  0  0  0  0  0  0  0  0  0
   32.2042  -23.5672  -18.6811 N   0  0  0  0  0  0  0  0  0  0  0  0
   30.1669  -24.3551  -17.6265 C   0  0  0  0  0  0  0  0  0  0  0  0
   30.0122  -23.3991  -16.8273 O   0  0  0  0  0  0  0  0  0  0  0  0
   21.3676  -23.7943  -16.8450 O   0  0  0  0  0  0  0  0  0  0  0  0
   22.6453  -24.1427  -17.2597 C   0  0  0  0  0  0  0  0  0  0  0  0
   23.2006  -25.3546  -16.9126 C   0  0  0  0  0  0  0  0  0  0  0  0
   24.4905  -25.6873  -17.3407 C   0  0  0  0  0  0  0  0  0  0  0  0
   25.2534  -24.8452  -18.1106 C   0  0  0  0  0  0  0  0  0  0  0  0
   26.6238  -25.1554  -18.5918 C   0  0  0  0  0  0  0  0  0  0  0  0
   27.6755  -24.7014  -17.6019 C   0  0  2  0  0  0  0  0  0  0  0  0
   29.0096  -25.0608  -18.0439 N   0  0  0  0  0  0  0  0  0  0  0  0
   27.4148  -25.3720  -16.3105 C   0  0  0  0  0  0  0  0  0  0  0  0
   26.7033  -24.7575  -15.2804 O   0  0  0  0  0  0  0  0  0  0  0  0
   24.6738  -23.6168  -18.4547 C   0  0  0  0  0  0  0  0  0  0  0  0
   23.4046  -23.2915  -18.0323 C   0  0  0  0  0  0  0  0  0  0  0  0
   27.8282  -26.5280  -16.0916 O   0  0  0  0  0  0  0  0  0  0  0  0
  2  4  1  0
  2  1  1  0
  3  2  2  0
  5  6  1  0
  5  4  1  0
  6  7  1  6
  8  6  1  0
  8  9  2  0
 11 10  1  0
 12 11  1  0
 12 14  1  0
 12 13  1  6
 14 15  1  1
 15  8  1  0
 16 14  1  0
 17 16  2  0
 19 18  1  0
 19 29  2  0
 20 19  1  0
 21 20  2  0
 21 22  1  0
 22 28  2  0
 23 22  1  0
 24 25  1  0
 24 23  1  6
 25 16  1  0
 26 24  1  0
 27 26  1  0
 28 29  1  0
 30 26  2  0
M  END
$$$$
