QIY.pdb
     RDKit          3D

 30 30  0  0  1  0  0  0  0  0999 V2000
   23.2794  -10.3991  -22.3573 N   0  0  0  0  0  0  0  0  0  0  0  0
   22.0104  -11.0059  -22.6694 C   0  0  0  0  0  0  0  0  0  0  0  0
   21.7635  -11.3148  -23.8587 O   0  0  0  0  0  0  0  0  0  0  0  0
   21.0105  -11.2700  -21.6292 C   0  0  0  0  0  0  0  0  0  0  0  0
   21.3791  -10.9101  -20.2416 C   0  0  0  0  0  0  0  0  0  0  0  0
   22.1782  -11.8953  -19.4665 C   0  0  2  0  0  0  0  0  0  0  0  0
   21.6137  -13.2074  -19.3279 N   0  0  0  0  0  0  0  0  0  0  0  0
   22.5466  -11.3580  -18.1060 C   0  0  0  0  0  0  0  0  0  0  0  0
   21.8103  -11.6531  -17.1343 O   0  0  0  0  0  0  0  0  0  0  0  0
   27.5444  -11.6149  -16.3097 C   0  0  0  0  0  0  0  0  0  0  0  0
   26.0506  -11.5414  -16.5444 C   0  0  0  0  0  0  0  0  0  0  0  0
   25.5420  -10.1257  -16.3901 C   0  0  2  0  0  0  0  0  0  0  0  0
   25.9202   -9.5591  -15.0386 C   0  0  0  0  0  0  0  0  0  0  0  0
   24.0859   -9.9949  -16.6953 C   0  0  2  0  0  0  0  0  0  0  0  0
   23.7022  -10.5425  -17.9601 N   0  0  0  0  0  0  0  0  0  0  0  0
   23.6791   -8.5859  -16.5267 C   0  0  0  0  0  0  0  0  0  0  0  0
   24.0947   -7.7432  -17.3596 O   0  0  0  0  0  0  0  0  0  0  0  0
   17.1985  -10.2948  -14.0469 O   0  0  0  0  0  0  0  0  0  0  0  0
   18.1355   -9.4080  -14.5584 C   0  0  0  0  0  0  0  0  0  0  0  0
   18.8624   -9.7136  -15.6879 C   0  0  0  0  0  0  0  0  0  0  0  0
   19.8026   -8.8060  -16.1880 C   0  0  0  0  0  0  0  0  0  0  0  0
   20.0453   -7.5921  -15.5951 C   0  0  0  0  0  0  0  0  0  0  0  0
   21.0287   -6.5956  -16.0905 C   0  0  0  0  0  0  0  0  0  0  0  0
   22.3703   -6.7527  -15.4068 C   0  0  2  0  0  0  0  0  0  0  0  0
   22.8443   -8.1219  -15.4782 N   0  0  0  0  0  0  0  0  0  0  0  0
   22.2091   -6.3879  -13.9834 C   0  0  0  0  0  0  0  0  0  0  0  0
   21.9615   -5.0785  -13.5718 O   0  0  0  0  0  0  0  0  0  0  0  0
   19.2976   -7.2970  -14.4474 C   0  0  0  0  0  0  0  0  0  0  0  0
   18.3732   -8.1915  -13.9571 C   0  0  0  0  0  0  0  0  0  0  0  0
   22.2906   -7.2496  -13.0857 O   0  0  0  0  0  0  0  0  0  0  0  0
  2  4  1  0
  2  1  1  0
  3  2  2  0
  5  6  1  0
  5  4  1  0
  6  7  1  1
  8  6  1  0
  8  9  2  0
 11 10  1  0
 12 11  1  0
 12 14  1  0
 12 13  1  1
 14 15  1  6
 15  8  1  0
 16 14  1  0
 17 16  2  0
 19 18  1  0
 19 29  2  0
 20 19  1  0
 21 20  2  0
 21 22  1  0
 22 28  2  0
 23 22  1  0
 24 25  1  0
 24 23  1  6
 25 16  1  0
 26 24  1  0
 27 26  1  0
 28 29  1  0
 30 26  2  0
M  END
$$$$
