QIY.pdb
     RDKit          3D

 30 30  0  0  1  0  0  0  0  0999 V2000
   26.7402  -27.3697  -17.3286 N   0  0  0  0  0  0  0  0  0  0  0  0
   27.9178  -28.1865  -17.4779 C   0  0  0  0  0  0  0  0  0  0  0  0
   27.7874  -29.3708  -17.8667 O   0  0  0  0  0  0  0  0  0  0  0  0
   29.2566  -27.6615  -17.1887 C   0  0  0  0  0  0  0  0  0  0  0  0
   29.3382  -26.2571  -16.7286 C   0  0  0  0  0  0  0  0  0  0  0  0
   29.8392  -25.2461  -17.6964 C   0  0  2  0  0  0  0  0  0  0  0  0
   31.2187  -25.3549  -18.0767 N   0  0  0  0  0  0  0  0  0  0  0  0
   29.5554  -23.8420  -17.2236 C   0  0  0  0  0  0  0  0  0  0  0  0
   30.4997  -23.1832  -16.7261 O   0  0  0  0  0  0  0  0  0  0  0  0
   28.0341  -20.0353  -20.2312 C   0  0  0  0  0  0  0  0  0  0  0  0
   28.5276  -20.9341  -19.1173 C   0  0  0  0  0  0  0  0  0  0  0  0
   27.4902  -21.0713  -18.0256 C   0  0  2  0  0  0  0  0  0  0  0  0
   27.0389  -19.7128  -17.5342 C   0  0  0  0  0  0  0  0  0  0  0  0
   27.9238  -21.9805  -16.9230 C   0  0  2  0  0  0  0  0  0  0  0  0
   28.2440  -23.3075  -17.3513 N   0  0  0  0  0  0  0  0  0  0  0  0
   26.9184  -21.9473  -15.8425 C   0  0  0  0  0  0  0  0  0  0  0  0
   25.8442  -22.5754  -16.0103 O   0  0  0  0  0  0  0  0  0  0  0  0
   22.7493  -20.5583   -8.1188 O   0  0  0  0  0  0  0  0  0  0  0  0
   23.6480  -20.5029   -9.1749 C   0  0  0  0  0  0  0  0  0  0  0  0
   23.3173  -19.8821  -10.3592 C   0  0  0  0  0  0  0  0  0  0  0  0
   24.2375  -19.8369  -11.4123 C   0  0  0  0  0  0  0  0  0  0  0  0
   25.4885  -20.3948  -11.3243 C   0  0  0  0  0  0  0  0  0  0  0  0
   26.4995  -20.3688  -12.4119 C   0  0  0  0  0  0  0  0  0  0  0  0
   26.0780  -21.2319  -13.5821 C   0  0  2  0  0  0  0  0  0  0  0  0
   27.0904  -21.2473  -14.6210 N   0  0  0  0  0  0  0  0  0  0  0  0
   24.8354  -20.6666  -14.1494 C   0  0  0  0  0  0  0  0  0  0  0  0
   24.8289  -19.5082  -14.9261 O   0  0  0  0  0  0  0  0  0  0  0  0
   25.8088  -21.0223  -10.1131 C   0  0  0  0  0  0  0  0  0  0  0  0
   24.9018  -21.0656   -9.0784 C   0  0  0  0  0  0  0  0  0  0  0  0
   23.7318  -21.2120  -13.9506 O   0  0  0  0  0  0  0  0  0  0  0  0
  2  4  1  0
  2  1  1  0
  3  2  2  0
  5  6  1  0
  5  4  1  0
  6  7  1  1
  8  6  1  0
  8  9  2  0
 11 10  1  0
 12 11  1  0
 12 14  1  0
 12 13  1  1
 14 15  1  6
 15  8  1  0
 16 14  1  0
 17 16  2  0
 19 18  1  0
 19 29  2  0
 20 19  1  0
 21 20  2  0
 21 22  1  0
 22 28  2  0
 23 22  1  0
 24 25  1  0
 24 23  1  1
 25 16  1  0
 26 24  1  0
 27 26  1  0
 28 29  1  0
 30 26  2  0
M  END
$$$$
