QIY.pdb
     RDKit          3D

 30 30  0  0  1  0  0  0  0  0999 V2000
   25.5278  -11.9160  -15.4265 N   0  0  0  0  0  0  0  0  0  0  0  0
   24.8525  -12.3484  -16.6236 C   0  0  0  0  0  0  0  0  0  0  0  0
   25.2831  -13.3568  -17.2305 O   0  0  0  0  0  0  0  0  0  0  0  0
   23.6774  -11.6383  -17.1399 C   0  0  0  0  0  0  0  0  0  0  0  0
   23.1609  -10.5184  -16.3215 C   0  0  0  0  0  0  0  0  0  0  0  0
   21.7400  -10.5826  -15.8895 C   0  0  2  0  0  0  0  0  0  0  0  0
   20.7712  -10.8378  -16.9170 N   0  0  0  0  0  0  0  0  0  0  0  0
   21.3426   -9.3501  -15.1160 C   0  0  0  0  0  0  0  0  0  0  0  0
   22.0691   -8.9932  -14.1578 O   0  0  0  0  0  0  0  0  0  0  0  0
   19.1102   -3.8219  -15.9659 C   0  0  0  0  0  0  0  0  0  0  0  0
   19.2205   -4.9917  -15.0111 C   0  0  0  0  0  0  0  0  0  0  0  0
   19.6152   -6.2565  -15.7398 C   0  0  2  0  0  0  0  0  0  0  0  0
   18.6735   -6.5337  -16.8918 C   0  0  0  0  0  0  0  0  0  0  0  0
   19.7845   -7.4252  -14.8253 C   0  0  2  0  0  0  0  0  0  0  0  0
   20.1716   -8.6335  -15.4863 N   0  0  0  0  0  0  0  0  0  0  0  0
   18.5679   -7.5787  -14.0033 C   0  0  0  0  0  0  0  0  0  0  0  0
   17.5640   -8.1251  -14.5233 O   0  0  0  0  0  0  0  0  0  0  0  0
   12.5763   -8.1431   -7.5824 O   0  0  0  0  0  0  0  0  0  0  0  0
   13.7602   -8.0769   -8.3035 C   0  0  0  0  0  0  0  0  0  0  0  0
   14.6901   -7.0912   -8.0562 C   0  0  0  0  0  0  0  0  0  0  0  0
   15.8778   -7.0415   -8.7943 C   0  0  0  0  0  0  0  0  0  0  0  0
   16.1733   -7.9497   -9.7800 C   0  0  0  0  0  0  0  0  0  0  0  0
   17.4206   -7.9401  -10.5863 C   0  0  0  0  0  0  0  0  0  0  0  0
   17.2217   -7.2282  -11.9075 C   0  0  2  0  0  0  0  0  0  0  0  0
   18.4611   -7.1459  -12.6569 N   0  0  0  0  0  0  0  0  0  0  0  0
   16.7539   -5.8544  -11.6264 C   0  0  0  0  0  0  0  0  0  0  0  0
   15.4001   -5.5258  -11.5594 O   0  0  0  0  0  0  0  0  0  0  0  0
   15.2170   -8.9456  -10.0189 C   0  0  0  0  0  0  0  0  0  0  0  0
   14.0491   -8.9925   -9.2915 C   0  0  0  0  0  0  0  0  0  0  0  0
   17.5641   -4.9256  -11.4370 O   0  0  0  0  0  0  0  0  0  0  0  0
  2  4  1  0
  2  1  1  0
  3  2  2  0
  5  6  1  0
  5  4  1  0
  6  7  1  6
  8  6  1  0
  8  9  2  0
 11 10  1  0
 12 11  1  0
 12 14  1  0
 12 13  1  6
 14 15  1  6
 15  8  1  0
 16 14  1  0
 17 16  2  0
 19 18  1  0
 19 29  2  0
 20 19  1  0
 21 20  2  0
 21 22  1  0
 22 28  2  0
 23 22  1  0
 24 25  1  0
 24 23  1  1
 25 16  1  0
 26 24  1  0
 27 26  1  0
 28 29  1  0
 30 26  2  0
M  END
$$$$
