QIY.pdb
     RDKit          3D

 30 30  0  0  1  0  0  0  0  0999 V2000
   26.3205  -20.2161  -18.6531 N   0  0  0  0  0  0  0  0  0  0  0  0
   27.6198  -19.6333  -18.4336 C   0  0  0  0  0  0  0  0  0  0  0  0
   28.3141  -19.3114  -19.4261 O   0  0  0  0  0  0  0  0  0  0  0  0
   28.1404  -19.4081  -17.0808 C   0  0  0  0  0  0  0  0  0  0  0  0
   27.2327  -19.7232  -15.9549 C   0  0  0  0  0  0  0  0  0  0  0  0
   27.6902  -20.7359  -14.9675 C   0  0  2  0  0  0  0  0  0  0  0  0
   28.4421  -21.8417  -15.4888 N   0  0  0  0  0  0  0  0  0  0  0  0
   26.5427  -21.2532  -14.1361 C   0  0  0  0  0  0  0  0  0  0  0  0
   25.9606  -22.2973  -14.5160 O   0  0  0  0  0  0  0  0  0  0  0  0
   26.7110  -20.5235   -8.7070 C   0  0  0  0  0  0  0  0  0  0  0  0
   26.5019  -21.1173  -10.0839 C   0  0  0  0  0  0  0  0  0  0  0  0
   25.2072  -20.6329  -10.6970 C   0  0  2  0  0  0  0  0  0  0  0  0
   24.0198  -21.0576   -9.8601 C   0  0  0  0  0  0  0  0  0  0  0  0
   25.0726  -21.0027  -12.1378 C   0  0  2  0  0  0  0  0  0  0  0  0
   26.1547  -20.5551  -12.9598 N   0  0  0  0  0  0  0  0  0  0  0  0
   23.7516  -20.5647  -12.6301 C   0  0  0  0  0  0  0  0  0  0  0  0
   23.4340  -19.3582  -12.4877 O   0  0  0  0  0  0  0  0  0  0  0  0
   15.7795  -19.9645  -16.3659 O   0  0  0  0  0  0  0  0  0  0  0  0
   17.0133  -20.4443  -15.9491 C   0  0  0  0  0  0  0  0  0  0  0  0
   17.1075  -21.5400  -15.1196 C   0  0  0  0  0  0  0  0  0  0  0  0
   18.3609  -22.0085  -14.7104 C   0  0  0  0  0  0  0  0  0  0  0  0
   19.5351  -21.4166  -15.1038 C   0  0  0  0  0  0  0  0  0  0  0  0
   20.8872  -21.8794  -14.6996 C   0  0  0  0  0  0  0  0  0  0  0  0
   21.4831  -20.9865  -13.6320 C   0  0  2  0  0  0  0  0  0  0  0  0
   22.8141  -21.4249  -13.2569 N   0  0  0  0  0  0  0  0  0  0  0  0
   20.6155  -21.0527  -12.4370 C   0  0  0  0  0  0  0  0  0  0  0  0
   20.6355  -22.1361  -11.5590 O   0  0  0  0  0  0  0  0  0  0  0  0
   19.4214  -20.3034  -15.9472 C   0  0  0  0  0  0  0  0  0  0  0  0
   18.1872  -19.8442  -16.3485 C   0  0  0  0  0  0  0  0  0  0  0  0
   19.8221  -20.1294  -12.1667 O   0  0  0  0  0  0  0  0  0  0  0  0
  2  4  1  0
  2  1  1  0
  3  2  2  0
  5  6  1  0
  5  4  1  0
  6  7  1  6
  8  6  1  0
  8  9  2  0
 11 10  1  0
 12 11  1  0
 12 14  1  0
 12 13  1  1
 14 15  1  6
 15  8  1  0
 16 14  1  0
 17 16  2  0
 19 18  1  0
 19 29  2  0
 20 19  1  0
 21 20  2  0
 21 22  1  0
 22 28  2  0
 23 22  1  0
 24 25  1  0
 24 23  1  6
 25 16  1  0
 26 24  1  0
 27 26  1  0
 28 29  1  0
 30 26  2  0
M  END
$$$$
