QIY.pdb
     RDKit          3D

 30 30  0  0  1  0  0  0  0  0999 V2000
   27.7112  -16.7069  -16.7432 N   0  0  0  0  0  0  0  0  0  0  0  0
   27.5679  -17.0471  -18.1360 C   0  0  0  0  0  0  0  0  0  0  0  0
   28.0956  -16.3053  -18.9974 O   0  0  0  0  0  0  0  0  0  0  0  0
   26.8245  -18.2378  -18.5617 C   0  0  0  0  0  0  0  0  0  0  0  0
   26.3033  -19.1178  -17.4918 C   0  0  0  0  0  0  0  0  0  0  0  0
   27.2829  -19.9653  -16.7625 C   0  0  2  0  0  0  0  0  0  0  0  0
   28.0797  -20.8519  -17.5618 N   0  0  0  0  0  0  0  0  0  0  0  0
   26.6205  -20.7438  -15.6532 C   0  0  0  0  0  0  0  0  0  0  0  0
   26.3835  -21.9606  -15.8443 O   0  0  0  0  0  0  0  0  0  0  0  0
   28.8303  -20.9740  -11.1145 C   0  0  0  0  0  0  0  0  0  0  0  0
   27.9952  -21.1105  -12.3699 C   0  0  0  0  0  0  0  0  0  0  0  0
   26.5429  -20.7888  -12.0978 C   0  0  2  0  0  0  0  0  0  0  0  0
   25.9892  -21.6722  -11.0006 C   0  0  0  0  0  0  0  0  0  0  0  0
   25.7052  -20.7933  -13.3344 C   0  0  2  0  0  0  0  0  0  0  0  0
   26.2857  -20.0892  -14.4362 N   0  0  0  0  0  0  0  0  0  0  0  0
   24.3448  -20.3271  -13.0009 C   0  0  0  0  0  0  0  0  0  0  0  0
   24.2248  -19.2622  -12.3466 O   0  0  0  0  0  0  0  0  0  0  0  0
   23.4702  -15.9240  -17.3939 O   0  0  0  0  0  0  0  0  0  0  0  0
   22.9102  -16.9787  -16.6867 C   0  0  0  0  0  0  0  0  0  0  0  0
   23.4638  -18.2392  -16.7317 C   0  0  0  0  0  0  0  0  0  0  0  0
   22.8842  -19.2897  -16.0116 C   0  0  0  0  0  0  0  0  0  0  0  0
   21.7608  -19.1249  -15.2404 C   0  0  0  0  0  0  0  0  0  0  0  0
   21.1127  -20.2069  -14.4562 C   0  0  0  0  0  0  0  0  0  0  0  0
   21.8371  -20.4561  -13.1504 C   0  0  2  0  0  0  0  0  0  0  0  0
   23.1591  -21.0096  -13.3751 N   0  0  0  0  0  0  0  0  0  0  0  0
   21.0505  -21.4300  -12.3641 C   0  0  0  0  0  0  0  0  0  0  0  0
   21.4836  -22.7379  -12.1473 O   0  0  0  0  0  0  0  0  0  0  0  0
   21.2105  -17.8368  -15.2056 C   0  0  0  0  0  0  0  0  0  0  0  0
   21.7823  -16.8049  -15.9150 C   0  0  0  0  0  0  0  0  0  0  0  0
   19.9550  -21.1135  -11.8595 O   0  0  0  0  0  0  0  0  0  0  0  0
  2  4  1  0
  2  1  1  0
  3  2  2  0
  5  6  1  0
  5  4  1  0
  6  7  1  6
  8  6  1  0
  8  9  2  0
 11 10  1  0
 12 11  1  0
 12 14  1  0
 12 13  1  1
 14 15  1  6
 15  8  1  0
 16 14  1  0
 17 16  2  0
 19 18  1  0
 19 29  2  0
 20 19  1  0
 21 20  2  0
 21 22  1  0
 22 28  2  0
 23 22  1  0
 24 25  1  0
 24 23  1  6
 25 16  1  0
 26 24  1  0
 27 26  1  0
 28 29  1  0
 30 26  2  0
M  END
$$$$
