QIY.pdb
     RDKit          3D

 30 30  0  0  1  0  0  0  0  0999 V2000
   21.9329  -28.6170  -14.3897 N   0  0  0  0  0  0  0  0  0  0  0  0
   22.6321  -27.8913  -15.4195 C   0  0  0  0  0  0  0  0  0  0  0  0
   23.8662  -27.7086  -15.2994 O   0  0  0  0  0  0  0  0  0  0  0  0
   21.9331  -27.3688  -16.5985 C   0  0  0  0  0  0  0  0  0  0  0  0
   20.4840  -27.6539  -16.6966 C   0  0  0  0  0  0  0  0  0  0  0  0
   19.5902  -26.5354  -17.0964 C   0  0  2  0  0  0  0  0  0  0  0  0
   19.8333  -25.9534  -18.3856 N   0  0  0  0  0  0  0  0  0  0  0  0
   19.5634  -25.4497  -16.0496 C   0  0  0  0  0  0  0  0  0  0  0  0
   20.1063  -24.3521  -16.3216 O   0  0  0  0  0  0  0  0  0  0  0  0
   16.2935  -21.5380  -14.3135 C   0  0  0  0  0  0  0  0  0  0  0  0
   17.2555  -22.4957  -13.6429 C   0  0  0  0  0  0  0  0  0  0  0  0
   17.5405  -23.6908  -14.5246 C   0  0  2  0  0  0  0  0  0  0  0  0
   16.2562  -24.3770  -14.9376 C   0  0  0  0  0  0  0  0  0  0  0  0
   18.5413  -24.6262  -13.9296 C   0  0  2  0  0  0  0  0  0  0  0  0
   18.9330  -25.6931  -14.7985 N   0  0  0  0  0  0  0  0  0  0  0  0
   18.0475  -25.0971  -12.6204 C   0  0  0  0  0  0  0  0  0  0  0  0
   17.0738  -25.8897  -12.6022 O   0  0  0  0  0  0  0  0  0  0  0  0
   17.2884  -27.2637   -4.0931 O   0  0  0  0  0  0  0  0  0  0  0  0
   17.7488  -26.7329   -5.2899 C   0  0  0  0  0  0  0  0  0  0  0  0
   17.8686  -25.3720   -5.4656 C   0  0  0  0  0  0  0  0  0  0  0  0
   18.3348  -24.8563   -6.6799 C   0  0  0  0  0  0  0  0  0  0  0  0
   18.6892  -25.6588   -7.7356 C   0  0  0  0  0  0  0  0  0  0  0  0
   19.1922  -25.1589   -9.0405 C   0  0  0  0  0  0  0  0  0  0  0  0
   18.1218  -25.2232  -10.1092 C   0  0  2  0  0  0  0  0  0  0  0  0
   18.6063  -24.7086  -11.3761 N   0  0  0  0  0  0  0  0  0  0  0  0
   16.9817  -24.3900   -9.6721 C   0  0  0  0  0  0  0  0  0  0  0  0
   15.8858  -24.9216   -8.9928 O   0  0  0  0  0  0  0  0  0  0  0  0
   18.5613  -27.0404   -7.5404 C   0  0  0  0  0  0  0  0  0  0  0  0
   18.1023  -27.5455   -6.3448 C   0  0  0  0  0  0  0  0  0  0  0  0
   16.9573  -23.1639   -9.8986 O   0  0  0  0  0  0  0  0  0  0  0  0
  2  4  1  0
  2  1  1  0
  3  2  2  0
  5  6  1  0
  5  4  1  0
  6  7  1  6
  8  6  1  0
  8  9  2  0
 11 10  1  0
 12 11  1  0
 12 14  1  0
 12 13  1  1
 14 15  1  6
 15  8  1  0
 16 14  1  0
 17 16  2  0
 19 18  1  0
 19 29  2  0
 20 19  1  0
 21 20  2  0
 21 22  1  0
 22 28  2  0
 23 22  1  0
 24 25  1  0
 24 23  1  1
 25 16  1  0
 26 24  1  0
 27 26  1  0
 28 29  1  0
 30 26  2  0
M  END
$$$$
