QIY.pdb
     RDKit          3D

 30 30  0  0  1  0  0  0  0  0999 V2000
   28.3892  -20.3913  -18.0428 N   0  0  0  0  0  0  0  0  0  0  0  0
   29.4366  -19.5963  -17.4536 C   0  0  0  0  0  0  0  0  0  0  0  0
   30.1907  -18.9358  -18.2057 O   0  0  0  0  0  0  0  0  0  0  0  0
   29.6337  -19.5431  -16.0010 C   0  0  0  0  0  0  0  0  0  0  0  0
   28.7118  -20.3515  -15.1719 C   0  0  0  0  0  0  0  0  0  0  0  0
   27.2780  -19.9593  -15.1586 C   0  0  2  0  0  0  0  0  0  0  0  0
   26.9962  -18.5797  -14.8809 N   0  0  0  0  0  0  0  0  0  0  0  0
   26.4752  -20.8353  -14.2294 C   0  0  0  0  0  0  0  0  0  0  0  0
   26.5906  -22.0792  -14.3422 O   0  0  0  0  0  0  0  0  0  0  0  0
   26.2273  -20.2453   -9.0223 C   0  0  0  0  0  0  0  0  0  0  0  0
   26.1532  -20.8554  -10.4059 C   0  0  0  0  0  0  0  0  0  0  0  0
   24.7740  -20.6894  -11.0033 C   0  0  2  0  0  0  0  0  0  0  0  0
   23.7389  -21.4380  -10.1916 C   0  0  0  0  0  0  0  0  0  0  0  0
   24.7282  -21.0176  -12.4596 C   0  0  2  0  0  0  0  0  0  0  0  0
   25.6200  -20.2388  -13.2628 N   0  0  0  0  0  0  0  0  0  0  0  0
   23.3288  -20.9608  -12.9264 C   0  0  0  0  0  0  0  0  0  0  0  0
   22.7504  -19.8464  -12.9373 O   0  0  0  0  0  0  0  0  0  0  0  0
   15.5294  -22.7901  -16.6806 O   0  0  0  0  0  0  0  0  0  0  0  0
   16.7959  -22.9166  -16.1275 C   0  0  0  0  0  0  0  0  0  0  0  0
   16.9679  -23.3780  -14.8411 C   0  0  0  0  0  0  0  0  0  0  0  0
   18.2533  -23.4985  -14.3014 C   0  0  0  0  0  0  0  0  0  0  0  0
   19.3842  -23.1716  -15.0072 C   0  0  0  0  0  0  0  0  0  0  0  0
   20.7677  -23.2861  -14.4794 C   0  0  0  0  0  0  0  0  0  0  0  0
   21.2213  -21.9971  -13.8276 C   0  0  2  0  0  0  0  0  0  0  0  0
   22.5932  -22.0912  -13.3654 N   0  0  0  0  0  0  0  0  0  0  0  0
   20.3520  -21.7385  -12.6603 C   0  0  0  0  0  0  0  0  0  0  0  0
   20.4992  -22.4225  -11.4538 O   0  0  0  0  0  0  0  0  0  0  0  0
   19.1916  -22.7040  -16.3139 C   0  0  0  0  0  0  0  0  0  0  0  0
   17.9260  -22.5862  -16.8428 C   0  0  0  0  0  0  0  0  0  0  0  0
   19.4417  -20.8879  -12.7126 O   0  0  0  0  0  0  0  0  0  0  0  0
  2  4  1  0
  2  1  1  0
  3  2  2  0
  5  6  1  0
  5  4  1  0
  6  7  1  1
  8  6  1  0
  8  9  2  0
 11 10  1  0
 12 11  1  0
 12 14  1  0
 12 13  1  1
 14 15  1  6
 15  8  1  0
 16 14  1  0
 17 16  2  0
 19 18  1  0
 19 29  2  0
 20 19  1  0
 21 20  2  0
 21 22  1  0
 22 28  2  0
 23 22  1  0
 24 25  1  0
 24 23  1  1
 25 16  1  0
 26 24  1  0
 27 26  1  0
 28 29  1  0
 30 26  2  0
M  END
$$$$
