QIY.pdb
     RDKit          3D

 30 30  0  0  1  0  0  0  0  0999 V2000
   28.5954  -19.5165  -16.3113 N   0  0  0  0  0  0  0  0  0  0  0  0
   28.3677  -20.0904  -17.6131 C   0  0  0  0  0  0  0  0  0  0  0  0
   29.2578  -19.9777  -18.4881 O   0  0  0  0  0  0  0  0  0  0  0  0
   27.1246  -20.8014  -17.9308 C   0  0  0  0  0  0  0  0  0  0  0  0
   26.1722  -21.0116  -16.8174 C   0  0  0  0  0  0  0  0  0  0  0  0
   26.5366  -22.0150  -15.7830 C   0  0  2  0  0  0  0  0  0  0  0  0
   26.7816  -23.3506  -16.2474 N   0  0  0  0  0  0  0  0  0  0  0  0
   25.5244  -22.0471  -14.6651 C   0  0  0  0  0  0  0  0  0  0  0  0
   24.5508  -22.8309  -14.7710 O   0  0  0  0  0  0  0  0  0  0  0  0
   27.0281  -20.7126   -9.4760 C   0  0  0  0  0  0  0  0  0  0  0  0
   26.4119  -21.3794  -10.6876 C   0  0  0  0  0  0  0  0  0  0  0  0
   25.2305  -20.5895  -11.2044 C   0  0  2  0  0  0  0  0  0  0  0  0
   24.1601  -20.4595  -10.1422 C   0  0  0  0  0  0  0  0  0  0  0  0
   24.7085  -21.1083  -12.5040 C   0  0  2  0  0  0  0  0  0  0  0  0
   25.6957  -21.2010  -13.5353 N   0  0  0  0  0  0  0  0  0  0  0  0
   23.5267  -20.3184  -12.9026 C   0  0  0  0  0  0  0  0  0  0  0  0
   23.6998  -19.1255  -13.2539 O   0  0  0  0  0  0  0  0  0  0  0  0
   16.8624  -16.9031  -17.0969 O   0  0  0  0  0  0  0  0  0  0  0  0
   17.9105  -17.6522  -16.5806 C   0  0  0  0  0  0  0  0  0  0  0  0
   17.8743  -19.0291  -16.5915 C   0  0  0  0  0  0  0  0  0  0  0  0
   18.9412  -19.7664  -16.0661 C   0  0  0  0  0  0  0  0  0  0  0  0
   20.0539  -19.1723  -15.5250 C   0  0  0  0  0  0  0  0  0  0  0  0
   21.2114  -19.9116  -14.9597 C   0  0  0  0  0  0  0  0  0  0  0  0
   21.0858  -20.0762  -13.4599 C   0  0  2  0  0  0  0  0  0  0  0  0
   22.2019  -20.8247  -12.9137 N   0  0  0  0  0  0  0  0  0  0  0  0
   19.8410  -20.8226  -13.1796 C   0  0  0  0  0  0  0  0  0  0  0  0
   18.6491  -20.1846  -12.8368 O   0  0  0  0  0  0  0  0  0  0  0  0
   20.0747  -17.7713  -15.5217 C   0  0  0  0  0  0  0  0  0  0  0  0
   19.0239  -17.0479  -16.0391 C   0  0  0  0  0  0  0  0  0  0  0  0
   19.8108  -22.0678  -13.2394 O   0  0  0  0  0  0  0  0  0  0  0  0
  2  4  1  0
  2  1  1  0
  3  2  2  0
  5  6  1  0
  5  4  1  0
  6  7  1  6
  8  6  1  0
  8  9  2  0
 11 10  1  0
 12 11  1  0
 12 14  1  0
 12 13  1  1
 14 15  1  6
 15  8  1  0
 16 14  1  0
 17 16  2  0
 19 18  1  0
 19 29  2  0
 20 19  1  0
 21 20  2  0
 21 22  1  0
 22 28  2  0
 23 22  1  0
 24 25  1  0
 24 23  1  6
 25 16  1  0
 26 24  1  0
 27 26  1  0
 28 29  1  0
 30 26  2  0
M  END
$$$$
