QIY.pdb
     RDKit          3D

 30 30  0  0  1  0  0  0  0  0999 V2000
   32.2772  -33.3267   -6.8215 N   0  0  0  0  0  0  0  0  0  0  0  0
   31.9504  -33.7050   -5.4701 C   0  0  0  0  0  0  0  0  0  0  0  0
   32.8260  -33.5896   -4.5809 O   0  0  0  0  0  0  0  0  0  0  0  0
   30.6214  -34.2159   -5.1171 C   0  0  0  0  0  0  0  0  0  0  0  0
   29.6270  -34.3020   -6.2101 C   0  0  0  0  0  0  0  0  0  0  0  0
   28.2127  -34.5598   -5.8321 C   0  0  2  0  0  0  0  0  0  0  0  0
   27.9767  -35.6827   -4.9701 N   0  0  0  0  0  0  0  0  0  0  0  0
   27.3267  -34.6626   -7.0487 C   0  0  0  0  0  0  0  0  0  0  0  0
   27.5746  -35.5625   -7.8866 O   0  0  0  0  0  0  0  0  0  0  0  0
   24.3933  -37.7696   -7.6889 C   0  0  0  0  0  0  0  0  0  0  0  0
   25.1818  -36.5319   -8.0610 C   0  0  0  0  0  0  0  0  0  0  0  0
   24.4012  -35.2737   -7.7537 C   0  0  2  0  0  0  0  0  0  0  0  0
   23.0234  -35.3255   -8.3780 C   0  0  0  0  0  0  0  0  0  0  0  0
   25.1521  -34.0273   -8.0903 C   0  0  2  0  0  0  0  0  0  0  0  0
   26.2484  -33.7506   -7.2137 N   0  0  0  0  0  0  0  0  0  0  0  0
   24.2018  -32.9032   -8.2021 C   0  0  0  0  0  0  0  0  0  0  0  0
   23.6221  -32.5087   -7.1604 O   0  0  0  0  0  0  0  0  0  0  0  0
   19.0605  -26.3754  -11.3614 O   0  0  0  0  0  0  0  0  0  0  0  0
   20.0590  -27.3240  -11.1906 C   0  0  0  0  0  0  0  0  0  0  0  0
   20.9020  -27.2819  -10.1021 C   0  0  0  0  0  0  0  0  0  0  0  0
   21.9026  -28.2476   -9.9477 C   0  0  0  0  0  0  0  0  0  0  0  0
   22.0935  -29.2641  -10.8501 C   0  0  0  0  0  0  0  0  0  0  0  0
   23.1378  -30.3130  -10.7273 C   0  0  0  0  0  0  0  0  0  0  0  0
   22.9177  -31.1743   -9.5018 C   0  0  2  0  0  0  0  0  0  0  0  0
   23.9010  -32.2375   -9.4178 N   0  0  0  0  0  0  0  0  0  0  0  0
   21.5757  -31.7862   -9.6020 C   0  0  0  0  0  0  0  0  0  0  0  0
   21.3466  -32.9733  -10.2972 O   0  0  0  0  0  0  0  0  0  0  0  0
   21.2277  -29.2923  -11.9514 C   0  0  0  0  0  0  0  0  0  0  0  0
   20.2439  -28.3411  -12.1012 C   0  0  0  0  0  0  0  0  0  0  0  0
   20.5852  -31.2554   -9.0615 O   0  0  0  0  0  0  0  0  0  0  0  0
  2  4  1  0
  2  1  1  0
  3  2  2  0
  5  6  1  0
  5  4  1  0
  6  7  1  6
  8  6  1  0
  8  9  2  0
 11 10  1  0
 12 11  1  0
 12 14  1  0
 12 13  1  6
 14 15  1  1
 15  8  1  0
 16 14  1  0
 17 16  2  0
 19 18  1  0
 19 29  2  0
 20 19  1  0
 21 20  2  0
 21 22  1  0
 22 28  2  0
 23 22  1  0
 24 25  1  0
 24 23  1  6
 25 16  1  0
 26 24  1  0
 27 26  1  0
 28 29  1  0
 30 26  2  0
M  END
$$$$
