QIY.pdb
     RDKit          3D

 30 30  0  0  1  0  0  0  0  0999 V2000
   18.5056  -14.3052  -20.8526 N   0  0  0  0  0  0  0  0  0  0  0  0
   19.3225  -13.8622  -21.9538 C   0  0  0  0  0  0  0  0  0  0  0  0
   19.1235  -14.3521  -23.0901 O   0  0  0  0  0  0  0  0  0  0  0  0
   20.3724  -12.8541  -21.7725 C   0  0  0  0  0  0  0  0  0  0  0  0
   20.6355  -12.4056  -20.3867 C   0  0  0  0  0  0  0  0  0  0  0  0
   21.7166  -11.4059  -20.1826 C   0  0  2  0  0  0  0  0  0  0  0  0
   23.0552  -11.8499  -20.4487 N   0  0  0  0  0  0  0  0  0  0  0  0
   21.6516  -10.7970  -18.8041 C   0  0  0  0  0  0  0  0  0  0  0  0
   20.5494  -10.3493  -18.4066 O   0  0  0  0  0  0  0  0  0  0  0  0
   25.0912  -12.9785  -15.1800 C   0  0  0  0  0  0  0  0  0  0  0  0
   23.8671  -12.4130  -15.8686 C   0  0  0  0  0  0  0  0  0  0  0  0
   23.8319  -10.9046  -15.7687 C   0  0  2  0  0  0  0  0  0  0  0  0
   23.7331  -10.4599  -14.3253 C   0  0  0  0  0  0  0  0  0  0  0  0
   22.7916  -10.2884  -16.6456 C   0  0  2  0  0  0  0  0  0  0  0  0
   22.8237  -10.7460  -18.0008 N   0  0  0  0  0  0  0  0  0  0  0  0
   22.8664   -8.8187  -16.5285 C   0  0  0  0  0  0  0  0  0  0  0  0
   23.8921   -8.2390  -16.9627 O   0  0  0  0  0  0  0  0  0  0  0  0
   21.6054   -0.2248  -16.6602 O   0  0  0  0  0  0  0  0  0  0  0  0
   21.5129   -1.6062  -16.7559 C   0  0  0  0  0  0  0  0  0  0  0  0
   20.3081   -2.2523  -16.5878 C   0  0  0  0  0  0  0  0  0  0  0  0
   20.2356   -3.6461  -16.6881 C   0  0  0  0  0  0  0  0  0  0  0  0
   21.3339   -4.4255  -16.9530 C   0  0  0  0  0  0  0  0  0  0  0  0
   21.3059   -5.9056  -17.0725 C   0  0  0  0  0  0  0  0  0  0  0  0
   21.9459   -6.5714  -15.8729 C   0  0  2  0  0  0  0  0  0  0  0  0
   21.8477   -8.0165  -15.9538 N   0  0  0  0  0  0  0  0  0  0  0  0
   21.2315   -6.1220  -14.6592 C   0  0  0  0  0  0  0  0  0  0  0  0
   20.2199   -6.8769  -14.0659 O   0  0  0  0  0  0  0  0  0  0  0  0
   22.5514   -3.7527  -17.1212 C   0  0  0  0  0  0  0  0  0  0  0  0
   22.6203   -2.3814  -17.0220 C   0  0  0  0  0  0  0  0  0  0  0  0
   21.5107   -5.0358  -14.1141 O   0  0  0  0  0  0  0  0  0  0  0  0
  2  4  1  0
  2  1  1  0
  3  2  2  0
  5  6  1  0
  5  4  1  0
  6  7  1  1
  8  6  1  0
  8  9  2  0
 11 10  1  0
 12 11  1  0
 12 14  1  0
 12 13  1  1
 14 15  1  6
 15  8  1  0
 16 14  1  0
 17 16  2  0
 19 18  1  0
 19 29  2  0
 20 19  1  0
 21 20  2  0
 21 22  1  0
 22 28  2  0
 23 22  1  0
 24 25  1  0
 24 23  1  6
 25 16  1  0
 26 24  1  0
 27 26  1  0
 28 29  1  0
 30 26  2  0
M  END
$$$$
