QIY.pdb
     RDKit          3D

 30 30  0  0  1  0  0  0  0  0999 V2000
   21.1927  -21.5016  -19.1858 N   0  0  0  0  0  0  0  0  0  0  0  0
   22.2676  -22.4608  -19.2100 C   0  0  0  0  0  0  0  0  0  0  0  0
   22.1195  -23.5193  -19.8645 O   0  0  0  0  0  0  0  0  0  0  0  0
   23.5239  -22.2227  -18.4911 C   0  0  0  0  0  0  0  0  0  0  0  0
   23.7066  -20.8817  -17.8918 C   0  0  0  0  0  0  0  0  0  0  0  0
   24.9839  -20.6170  -17.1788 C   0  0  2  0  0  0  0  0  0  0  0  0
   25.3858  -21.5924  -16.2058 N   0  0  0  0  0  0  0  0  0  0  0  0
   24.9910  -19.2454  -16.5511 C   0  0  0  0  0  0  0  0  0  0  0  0
   24.4831  -19.1135  -15.4119 O   0  0  0  0  0  0  0  0  0  0  0  0
   29.1575  -16.7441  -17.1999 C   0  0  0  0  0  0  0  0  0  0  0  0
   27.9552  -16.8269  -16.2835 C   0  0  0  0  0  0  0  0  0  0  0  0
   26.7821  -16.0593  -16.8505 C   0  0  2  0  0  0  0  0  0  0  0  0
   26.7039  -14.6711  -16.2526 C   0  0  0  0  0  0  0  0  0  0  0  0
   25.4956  -16.8122  -16.7575 C   0  0  2  0  0  0  0  0  0  0  0  0
   25.5648  -18.1517  -17.2555 N   0  0  0  0  0  0  0  0  0  0  0  0
   24.4210  -16.0165  -17.3830 C   0  0  0  0  0  0  0  0  0  0  0  0
   24.4984  -15.7755  -18.6128 O   0  0  0  0  0  0  0  0  0  0  0  0
   17.0932  -11.1767  -18.7801 O   0  0  0  0  0  0  0  0  0  0  0  0
   18.0622  -11.9982  -18.2212 C   0  0  0  0  0  0  0  0  0  0  0  0
   18.5002  -13.1287  -18.8749 C   0  0  0  0  0  0  0  0  0  0  0  0
   19.4781  -13.9442  -18.2945 C   0  0  0  0  0  0  0  0  0  0  0  0
   20.0398  -13.6684  -17.0729 C   0  0  0  0  0  0  0  0  0  0  0  0
   21.0820  -14.5005  -16.4192 C   0  0  0  0  0  0  0  0  0  0  0  0
   22.2878  -14.6850  -17.3158 C   0  0  2  0  0  0  0  0  0  0  0  0
   23.3013  -15.5045  -16.6788 N   0  0  0  0  0  0  0  0  0  0  0  0
   22.8683  -13.3533  -17.5895 C   0  0  0  0  0  0  0  0  0  0  0  0
   22.7334  -12.7198  -18.8247 O   0  0  0  0  0  0  0  0  0  0  0  0
   19.5831  -12.5150  -16.4215 C   0  0  0  0  0  0  0  0  0  0  0  0
   18.6209  -11.7143  -16.9943 C   0  0  0  0  0  0  0  0  0  0  0  0
   23.5096  -12.7392  -16.7139 O   0  0  0  0  0  0  0  0  0  0  0  0
  2  4  1  0
  2  1  1  0
  3  2  2  0
  5  6  1  0
  5  4  1  0
  6  7  1  1
  8  6  1  0
  8  9  2  0
 11 10  1  0
 12 11  1  0
 12 14  1  0
 12 13  1  1
 14 15  1  6
 15  8  1  0
 16 14  1  0
 17 16  2  0
 19 18  1  0
 19 29  2  0
 20 19  1  0
 21 20  2  0
 21 22  1  0
 22 28  2  0
 23 22  1  0
 24 25  1  0
 24 23  1  1
 25 16  1  0
 26 24  1  0
 27 26  1  0
 28 29  1  0
 30 26  2  0
M  END
$$$$
