QIY.pdb
     RDKit          3D

 30 30  0  0  1  0  0  0  0  0999 V2000
   28.1671  -16.6720  -16.2401 N   0  0  0  0  0  0  0  0  0  0  0  0
   28.0778  -16.9672  -17.6476 C   0  0  0  0  0  0  0  0  0  0  0  0
   28.7726  -16.3016  -18.4507 O   0  0  0  0  0  0  0  0  0  0  0  0
   27.1983  -18.0260  -18.1546 C   0  0  0  0  0  0  0  0  0  0  0  0
   26.5064  -18.8595  -17.1459 C   0  0  0  0  0  0  0  0  0  0  0  0
   27.1978  -20.0911  -16.6826 C   0  0  2  0  0  0  0  0  0  0  0  0
   27.5128  -21.0638  -17.6898 N   0  0  0  0  0  0  0  0  0  0  0  0
   26.4451  -20.7558  -15.5570 C   0  0  0  0  0  0  0  0  0  0  0  0
   25.6364  -21.6704  -15.8452 O   0  0  0  0  0  0  0  0  0  0  0  0
   28.7498  -21.0528  -10.5972 C   0  0  0  0  0  0  0  0  0  0  0  0
   27.9707  -21.3876  -11.8514 C   0  0  0  0  0  0  0  0  0  0  0  0
   26.5813  -20.7925  -11.8069 C   0  0  2  0  0  0  0  0  0  0  0  0
   25.7676  -21.4009  -10.6850 C   0  0  0  0  0  0  0  0  0  0  0  0
   25.8867  -20.8389  -13.1283 C   0  0  2  0  0  0  0  0  0  0  0  0
   26.6671  -20.3359  -14.2168 N   0  0  0  0  0  0  0  0  0  0  0  0
   24.5698  -20.1828  -13.0079 C   0  0  0  0  0  0  0  0  0  0  0  0
   24.5357  -18.9317  -12.9068 O   0  0  0  0  0  0  0  0  0  0  0  0
   17.1675  -17.2132  -16.1472 O   0  0  0  0  0  0  0  0  0  0  0  0
   18.3409  -17.8822  -15.8283 C   0  0  0  0  0  0  0  0  0  0  0  0
   18.4498  -19.2456  -15.9918 C   0  0  0  0  0  0  0  0  0  0  0  0
   19.6415  -19.9018  -15.6645 C   0  0  0  0  0  0  0  0  0  0  0  0
   20.7392  -19.2389  -15.1750 C   0  0  0  0  0  0  0  0  0  0  0  0
   22.0251  -19.8904  -14.8177 C   0  0  0  0  0  0  0  0  0  0  0  0
   22.0780  -20.2441  -13.3466 C   0  0  2  0  0  0  0  0  0  0  0  0
   23.3347  -20.8801  -12.9993 N   0  0  0  0  0  0  0  0  0  0  0  0
   20.9801  -21.1915  -13.0593 C   0  0  0  0  0  0  0  0  0  0  0  0
   19.7676  -20.7829  -12.5044 O   0  0  0  0  0  0  0  0  0  0  0  0
   20.6116  -17.8528  -15.0147 C   0  0  0  0  0  0  0  0  0  0  0  0
   19.4382  -17.2093  -15.3374 C   0  0  0  0  0  0  0  0  0  0  0  0
   21.1000  -22.4081  -13.3055 O   0  0  0  0  0  0  0  0  0  0  0  0
  2  4  1  0
  2  1  1  0
  3  2  2  0
  5  6  1  0
  5  4  1  0
  6  7  1  6
  8  6  1  0
  8  9  2  0
 11 10  1  0
 12 11  1  0
 12 14  1  0
 12 13  1  1
 14 15  1  6
 15  8  1  0
 16 14  1  0
 17 16  2  0
 19 18  1  0
 19 29  2  0
 20 19  1  0
 21 20  2  0
 21 22  1  0
 22 28  2  0
 23 22  1  0
 24 25  1  0
 24 23  1  6
 25 16  1  0
 26 24  1  0
 27 26  1  0
 28 29  1  0
 30 26  2  0
M  END
$$$$
