QIY.pdb
     RDKit          3D

 30 30  0  0  1  0  0  0  0  0999 V2000
   28.4117  -17.5738  -15.2629 N   0  0  0  0  0  0  0  0  0  0  0  0
   28.5594  -18.2026  -16.5509 C   0  0  0  0  0  0  0  0  0  0  0  0
   29.4156  -17.7540  -17.3486 O   0  0  0  0  0  0  0  0  0  0  0  0
   27.7353  -19.3513  -16.9422 C   0  0  0  0  0  0  0  0  0  0  0  0
   26.8810  -19.9492  -15.8916 C   0  0  0  0  0  0  0  0  0  0  0  0
   27.4855  -20.9999  -15.0313 C   0  0  2  0  0  0  0  0  0  0  0  0
   28.0202  -22.1481  -15.7061 N   0  0  0  0  0  0  0  0  0  0  0  0
   26.5296  -21.4477  -13.9537 C   0  0  0  0  0  0  0  0  0  0  0  0
   25.6782  -22.3218  -14.2442 O   0  0  0  0  0  0  0  0  0  0  0  0
   27.8135  -20.5714   -8.6192 C   0  0  0  0  0  0  0  0  0  0  0  0
   27.2763  -21.2617   -9.8550 C   0  0  0  0  0  0  0  0  0  0  0  0
   25.9672  -20.6480  -10.2983 C   0  0  2  0  0  0  0  0  0  0  0  0
   24.8781  -20.9007   -9.2781 C   0  0  0  0  0  0  0  0  0  0  0  0
   25.5782  -21.0471  -11.6840 C   0  0  2  0  0  0  0  0  0  0  0  0
   26.6155  -20.8766  -12.6544 N   0  0  0  0  0  0  0  0  0  0  0  0
   24.3228  -20.3630  -12.0518 C   0  0  0  0  0  0  0  0  0  0  0  0
   24.3671  -19.1336  -12.3034 O   0  0  0  0  0  0  0  0  0  0  0  0
   17.1312  -17.9402  -16.2411 O   0  0  0  0  0  0  0  0  0  0  0  0
   18.2897  -18.5148  -15.7374 C   0  0  0  0  0  0  0  0  0  0  0  0
   19.3698  -17.7399  -15.3766 C   0  0  0  0  0  0  0  0  0  0  0  0
   20.5290  -18.3383  -14.8707 C   0  0  0  0  0  0  0  0  0  0  0  0
   20.6496  -19.6961  -14.7102 C   0  0  0  0  0  0  0  0  0  0  0  0
   21.8563  -20.3761  -14.1744 C   0  0  0  0  0  0  0  0  0  0  0  0
   21.8822  -20.3495  -12.6609 C   0  0  2  0  0  0  0  0  0  0  0  0
   23.0638  -21.0102  -12.1395 N   0  0  0  0  0  0  0  0  0  0  0  0
   20.6887  -21.0676  -12.1656 C   0  0  0  0  0  0  0  0  0  0  0  0
   19.5494  -20.4006  -11.7159 O   0  0  0  0  0  0  0  0  0  0  0  0
   19.5420  -20.4697  -15.0820 C   0  0  0  0  0  0  0  0  0  0  0  0
   18.4025  -19.8788  -15.5797 C   0  0  0  0  0  0  0  0  0  0  0  0
   20.6568  -22.3137  -12.1306 O   0  0  0  0  0  0  0  0  0  0  0  0
  2  4  1  0
  2  1  1  0
  3  2  2  0
  5  6  1  0
  5  4  1  0
  6  7  1  6
  8  6  1  0
  8  9  2  0
 11 10  1  0
 12 11  1  0
 12 14  1  0
 12 13  1  1
 14 15  1  6
 15  8  1  0
 16 14  1  0
 17 16  2  0
 19 18  1  0
 19 29  2  0
 20 19  1  0
 21 20  2  0
 21 22  1  0
 22 28  2  0
 23 22  1  0
 24 25  1  0
 24 23  1  6
 25 16  1  0
 26 24  1  0
 27 26  1  0
 28 29  1  0
 30 26  2  0
M  END
$$$$
