QIY.pdb
     RDKit          3D

 30 30  0  0  1  0  0  0  0  0999 V2000
   28.3730  -22.7279  -21.5058 N   0  0  0  0  0  0  0  0  0  0  0  0
   28.3567  -24.1461  -21.2519 C   0  0  0  0  0  0  0  0  0  0  0  0
   28.1204  -24.9283  -22.2022 O   0  0  0  0  0  0  0  0  0  0  0  0
   28.6126  -24.6883  -19.9131 C   0  0  0  0  0  0  0  0  0  0  0  0
   28.7754  -23.7085  -18.8157 C   0  0  0  0  0  0  0  0  0  0  0  0
   27.5940  -23.4408  -17.9541 C   0  0  2  0  0  0  0  0  0  0  0  0
   26.3944  -23.0285  -18.6255 N   0  0  0  0  0  0  0  0  0  0  0  0
   27.9222  -22.4576  -16.8581 C   0  0  0  0  0  0  0  0  0  0  0  0
   28.9290  -22.6817  -16.1444 O   0  0  0  0  0  0  0  0  0  0  0  0
   27.5701  -17.1551  -17.7385 C   0  0  0  0  0  0  0  0  0  0  0  0
   27.9396  -18.5447  -17.2646 C   0  0  0  0  0  0  0  0  0  0  0  0
   27.1300  -18.9415  -16.0507 C   0  0  2  0  0  0  0  0  0  0  0  0
   27.3261  -17.9520  -14.9223 C   0  0  0  0  0  0  0  0  0  0  0  0
   27.3600  -20.3579  -15.6364 C   0  0  2  0  0  0  0  0  0  0  0  0
   27.0947  -21.3178  -16.6636 N   0  0  0  0  0  0  0  0  0  0  0  0
   26.6185  -20.6253  -14.3882 C   0  0  0  0  0  0  0  0  0  0  0  0
   25.3651  -20.6771  -14.4406 O   0  0  0  0  0  0  0  0  0  0  0  0
   24.4235  -20.0983   -5.8664 O   0  0  0  0  0  0  0  0  0  0  0  0
   25.1570  -20.1827   -7.0415 C   0  0  0  0  0  0  0  0  0  0  0  0
   25.8955  -19.1132   -7.4979 C   0  0  0  0  0  0  0  0  0  0  0  0
   26.6284  -19.2182   -8.6852 C   0  0  0  0  0  0  0  0  0  0  0  0
   26.6509  -20.3641   -9.4404 C   0  0  0  0  0  0  0  0  0  0  0  0
   27.4156  -20.5244  -10.7034 C   0  0  0  0  0  0  0  0  0  0  0  0
   26.4970  -20.7761  -11.8802 C   0  0  2  0  0  0  0  0  0  0  0  0
   27.2359  -20.8283  -13.1276 N   0  0  0  0  0  0  0  0  0  0  0  0
   25.5288  -19.6617  -11.9573 C   0  0  0  0  0  0  0  0  0  0  0  0
   25.8870  -18.3914  -12.4081 O   0  0  0  0  0  0  0  0  0  0  0  0
   25.8945  -21.4423   -8.9621 C   0  0  0  0  0  0  0  0  0  0  0  0
   25.1740  -21.3367   -7.7938 C   0  0  0  0  0  0  0  0  0  0  0  0
   24.3396  -19.8187  -11.6165 O   0  0  0  0  0  0  0  0  0  0  0  0
  2  4  1  0
  2  1  1  0
  3  2  2  0
  5  6  1  0
  5  4  1  0
  6  7  1  6
  8  6  1  0
  8  9  2  0
 11 10  1  0
 12 11  1  0
 12 14  1  0
 12 13  1  1
 14 15  1  6
 15  8  1  0
 16 14  1  0
 17 16  2  0
 19 18  1  0
 19 29  2  0
 20 19  1  0
 21 20  2  0
 21 22  1  0
 22 28  2  0
 23 22  1  0
 24 25  1  0
 24 23  1  1
 25 16  1  0
 26 24  1  0
 27 26  1  0
 28 29  1  0
 30 26  2  0
M  END
$$$$
