KHY.pdb
     RDKit          3D

 32 33  0  0  1  0  0  0  0  0999 V2000
   26.8003  -22.7604  -16.0644 N   0  0  0  0  0  0  0  0  0  0  0  0
   26.1045  -21.4188  -16.2624 C   0  0  1  0  0  0  0  0  0  0  0  0
   25.9718  -21.2612  -17.7160 C   0  0  0  0  0  0  0  0  0  0  0  0
   27.0915  -20.8519  -18.5671 C   0  0  0  0  0  0  0  0  0  0  0  0
   28.4370  -20.5945  -18.0473 C   0  0  0  0  0  0  0  0  0  0  0  0
   29.5012  -20.1358  -18.9449 C   0  0  0  0  0  0  0  0  0  0  0  0
   29.4638  -20.8591  -20.2387 N   0  0  0  0  0  0  0  0  0  0  0  0
   24.8438  -21.6113  -15.5023 C   0  0  0  0  0  0  0  0  0  0  0  0
   24.2086  -22.7353  -15.5381 O   0  0  0  0  0  0  0  0  0  0  0  0
   24.2091  -20.6452  -14.6824 N   0  0  0  0  0  0  0  0  0  0  0  0
   22.9904  -20.9445  -13.9335 C   0  0  1  0  0  0  0  0  0  0  0  0
   23.1173  -20.1150  -12.6459 C   0  0  0  0  0  0  0  0  0  0  0  0
   24.1476  -20.7802  -11.8085 C   0  0  0  0  0  0  0  0  0  0  0  0
   24.8485  -21.9379  -12.1020 C   0  0  0  0  0  0  0  0  0  0  0  0
   25.7102  -22.2380  -11.0902 N   0  0  0  0  0  0  0  0  0  0  0  0
   25.5436  -21.2723  -10.1764 C   0  0  0  0  0  0  0  0  0  0  0  0
   24.6177  -20.3935  -10.5838 N   0  0  0  0  0  0  0  0  0  0  0  0
   21.7596  -20.4830  -14.5908 C   0  0  0  0  0  0  0  0  0  0  0  0
   21.8028  -19.2868  -15.0407 O   0  0  0  0  0  0  0  0  0  0  0  0
   14.0952  -19.1362  -18.4264 O   0  0  0  0  0  0  0  0  0  0  0  0
   15.1911  -19.7691  -17.8306 C   0  0  0  0  0  0  0  0  0  0  0  0
   15.0982  -20.3675  -16.5899 C   0  0  0  0  0  0  0  0  0  0  0  0
   16.2258  -20.9873  -16.0397 C   0  0  0  0  0  0  0  0  0  0  0  0
   17.4244  -21.0094  -16.7156 C   0  0  0  0  0  0  0  0  0  0  0  0
   18.6000  -21.6505  -16.1134 C   0  0  0  0  0  0  0  0  0  0  0  0
   19.4280  -20.6292  -15.3833 C   0  0  2  0  0  0  0  0  0  0  0  0
   20.5846  -21.2521  -14.7467 N   0  0  0  0  0  0  0  0  0  0  0  0
   18.7020  -19.8974  -14.3300 C   0  0  0  0  0  0  0  0  0  0  0  0
   18.6153  -20.3336  -13.1526 O   0  0  0  0  0  0  0  0  0  0  0  0
   17.5040  -20.4103  -17.9485 C   0  0  0  0  0  0  0  0  0  0  0  0
   16.3893  -19.7839  -18.5200 C   0  0  0  0  0  0  0  0  0  0  0  0
   18.0691  -18.6795  -14.5763 O   0  0  0  0  0  0  0  0  0  0  0  0
  2  1  1  6
  3  2  1  0
  3  4  1  0
  5  4  1  0
  6  5  1  0
  7  6  1  0
  8  2  1  0
  8  9  2  0
 10  8  1  0
 11 18  1  0
 11 10  1  0
 12 13  1  0
 11 12  1  1
 13 17  1  0
 14 15  1  0
 14 13  2  0
 15 16  1  0
 16 17  2  0
 18 27  1  0
 19 18  2  0
 20 21  1  0
 21 31  2  0
 21 22  1  0
 22 23  2  0
 23 24  1  0
 24 25  1  0
 26 25  1  1
 26 28  1  0
 27 26  1  0
 28 29  2  0
 28 32  1  0
 30 24  2  0
 31 30  1  0
M  END
$$$$
