KHY.pdb
     RDKit          3D

 32 33  0  0  1  0  0  0  0  0999 V2000
   22.2119  -12.2900  -20.7748 N   0  0  0  0  0  0  0  0  0  0  0  0
   22.1216  -12.3614  -19.2550 C   0  0  1  0  0  0  0  0  0  0  0  0
   20.8911  -11.6411  -18.9050 C   0  0  0  0  0  0  0  0  0  0  0  0
   20.8185  -10.1785  -18.8755 C   0  0  0  0  0  0  0  0  0  0  0  0
   21.9213   -9.3336  -18.4097 C   0  0  0  0  0  0  0  0  0  0  0  0
   21.7767   -7.8751  -18.3870 C   0  0  0  0  0  0  0  0  0  0  0  0
   20.9723   -7.4315  -17.2231 N   0  0  0  0  0  0  0  0  0  0  0  0
   22.1186  -13.8266  -19.0157 C   0  0  0  0  0  0  0  0  0  0  0  0
   21.2323  -14.5898  -19.5633 O   0  0  0  0  0  0  0  0  0  0  0  0
   23.0359  -14.5406  -18.2049 N   0  0  0  0  0  0  0  0  0  0  0  0
   22.8910  -15.9716  -17.9465 C   0  0  1  0  0  0  0  0  0  0  0  0
   24.2339  -16.3876  -17.3254 C   0  0  0  0  0  0  0  0  0  0  0  0
   24.2387  -17.8717  -17.2716 C   0  0  0  0  0  0  0  0  0  0  0  0
   24.2648  -18.7503  -18.3417 C   0  0  0  0  0  0  0  0  0  0  0  0
   24.2616  -20.0378  -17.8962 N   0  0  0  0  0  0  0  0  0  0  0  0
   24.2338  -19.9566  -16.5591 C   0  0  0  0  0  0  0  0  0  0  0  0
   24.2198  -18.6757  -16.1655 N   0  0  0  0  0  0  0  0  0  0  0  0
   21.8659  -16.2945  -16.9443 C   0  0  0  0  0  0  0  0  0  0  0  0
   21.8494  -15.5275  -15.9213 O   0  0  0  0  0  0  0  0  0  0  0  0
   14.9473  -17.8793  -12.1525 O   0  0  0  0  0  0  0  0  0  0  0  0
   15.8645  -17.6267  -13.1779 C   0  0  0  0  0  0  0  0  0  0  0  0
   15.8748  -18.3684  -14.3423 C   0  0  0  0  0  0  0  0  0  0  0  0
   16.8142  -18.0734  -15.3367 C   0  0  0  0  0  0  0  0  0  0  0  0
   17.7267  -17.0565  -15.1720 C   0  0  0  0  0  0  0  0  0  0  0  0
   18.7147  -16.7738  -16.2206 C   0  0  0  0  0  0  0  0  0  0  0  0
   19.9802  -17.5429  -15.9586 C   0  0  2  0  0  0  0  0  0  0  0  0
   20.9393  -17.3566  -17.0433 N   0  0  0  0  0  0  0  0  0  0  0  0
   19.7881  -18.9957  -15.8017 C   0  0  0  0  0  0  0  0  0  0  0  0
   19.8021  -19.7809  -16.7852 O   0  0  0  0  0  0  0  0  0  0  0  0
   17.7064  -16.3264  -14.0093 C   0  0  0  0  0  0  0  0  0  0  0  0
   16.7758  -16.6026  -12.9997 C   0  0  0  0  0  0  0  0  0  0  0  0
   19.5796  -19.5847  -14.5552 O   0  0  0  0  0  0  0  0  0  0  0  0
  2  1  1  6
  3  2  1  0
  3  4  1  0
  5  4  1  0
  6  5  1  0
  7  6  1  0
  8  2  1  0
  8  9  2  0
 10  8  1  0
 11 18  1  0
 11 10  1  0
 12 13  1  0
 11 12  1  1
 13 17  1  0
 14 15  1  0
 14 13  2  0
 15 16  1  0
 16 17  2  0
 18 27  1  0
 19 18  2  0
 20 21  1  0
 21 31  2  0
 21 22  1  0
 22 23  2  0
 23 24  1  0
 24 25  1  0
 26 25  1  6
 26 28  1  0
 27 26  1  0
 28 29  2  0
 28 32  1  0
 30 24  2  0
 31 30  1  0
M  END
$$$$
