KHY.pdb
     RDKit          3D

 32 33  0  0  1  0  0  0  0  0999 V2000
   26.1758  -20.2999  -21.1821 N   0  0  0  0  0  0  0  0  0  0  0  0
   25.9250  -21.3202  -20.0779 C   0  0  1  0  0  0  0  0  0  0  0  0
   27.2546  -21.8064  -19.6892 C   0  0  0  0  0  0  0  0  0  0  0  0
   27.8078  -23.0664  -20.1911 C   0  0  0  0  0  0  0  0  0  0  0  0
   27.8935  -24.2813  -19.3764 C   0  0  0  0  0  0  0  0  0  0  0  0
   29.1519  -24.6421  -18.7169 C   0  0  0  0  0  0  0  0  0  0  0  0
   28.9836  -25.8328  -17.8495 N   0  0  0  0  0  0  0  0  0  0  0  0
   25.1988  -20.5087  -19.0688 C   0  0  0  0  0  0  0  0  0  0  0  0
   25.7964  -19.5715  -18.4113 O   0  0  0  0  0  0  0  0  0  0  0  0
   23.8328  -20.6448  -18.7161 N   0  0  0  0  0  0  0  0  0  0  0  0
   23.2158  -19.8252  -17.6755 C   0  0  1  0  0  0  0  0  0  0  0  0
   21.7057  -19.9516  -17.9319 C   0  0  0  0  0  0  0  0  0  0  0  0
   21.3231  -18.8123  -18.8042 C   0  0  0  0  0  0  0  0  0  0  0  0
   22.1264  -17.7605  -19.2117 C   0  0  0  0  0  0  0  0  0  0  0  0
   21.4220  -16.9091  -20.0087 N   0  0  0  0  0  0  0  0  0  0  0  0
   20.1908  -17.4306  -20.0939 C   0  0  0  0  0  0  0  0  0  0  0  0
   20.1097  -18.5643  -19.3842 N   0  0  0  0  0  0  0  0  0  0  0  0
   23.4369  -20.3283  -16.3125 C   0  0  0  0  0  0  0  0  0  0  0  0
   23.1795  -21.5697  -16.1461 O   0  0  0  0  0  0  0  0  0  0  0  0
   25.0499  -21.7368   -7.8566 O   0  0  0  0  0  0  0  0  0  0  0  0
   25.0121  -21.1583   -9.1295 C   0  0  0  0  0  0  0  0  0  0  0  0
   25.9987  -21.3968  -10.0654 C   0  0  0  0  0  0  0  0  0  0  0  0
   25.9120  -20.7925  -11.3246 C   0  0  0  0  0  0  0  0  0  0  0  0
   24.8596  -19.9652  -11.6440 C   0  0  0  0  0  0  0  0  0  0  0  0
   24.7958  -19.3278  -12.9651 C   0  0  0  0  0  0  0  0  0  0  0  0
   24.0202  -20.1936  -13.9193 C   0  0  2  0  0  0  0  0  0  0  0  0
   23.8972  -19.5525  -15.2250 N   0  0  0  0  0  0  0  0  0  0  0  0
   22.6544  -20.5201  -13.4722 C   0  0  0  0  0  0  0  0  0  0  0  0
   21.6874  -19.7348  -13.6524 O   0  0  0  0  0  0  0  0  0  0  0  0
   23.8850  -19.7358  -10.7044 C   0  0  0  0  0  0  0  0  0  0  0  0
   23.9497  -20.3292   -9.4374 C   0  0  0  0  0  0  0  0  0  0  0  0
   22.3537  -21.7173  -12.8238 O   0  0  0  0  0  0  0  0  0  0  0  0
  2  1  1  6
  3  2  1  0
  3  4  1  0
  5  4  1  0
  6  5  1  0
  7  6  1  0
  8  2  1  0
  8  9  2  0
 10  8  1  0
 11 18  1  0
 11 10  1  0
 12 13  1  0
 11 12  1  6
 13 17  1  0
 14 15  1  0
 14 13  2  0
 15 16  1  0
 16 17  2  0
 18 27  1  0
 19 18  2  0
 20 21  1  0
 21 31  2  0
 21 22  1  0
 22 23  2  0
 23 24  1  0
 24 25  1  0
 26 25  1  1
 26 28  1  0
 27 26  1  0
 28 29  2  0
 28 32  1  0
 30 24  2  0
 31 30  1  0
M  END
$$$$
