KHY.pdb
     RDKit          3D

 32 33  0  0  1  0  0  0  0  0999 V2000
   20.6005  -22.1580  -15.1523 N   0  0  0  0  0  0  0  0  0  0  0  0
   20.9597  -23.5554  -14.6612 C   0  0  1  0  0  0  0  0  0  0  0  0
   20.7468  -24.4388  -15.8144 C   0  0  0  0  0  0  0  0  0  0  0  0
   19.6289  -24.2610  -16.7441 C   0  0  0  0  0  0  0  0  0  0  0  0
   19.5446  -23.1423  -17.6866 C   0  0  0  0  0  0  0  0  0  0  0  0
   18.4049  -23.0308  -18.6017 C   0  0  0  0  0  0  0  0  0  0  0  0
   17.1183  -23.1861  -17.8814 N   0  0  0  0  0  0  0  0  0  0  0  0
   22.3657  -23.3742  -14.2203 C   0  0  0  0  0  0  0  0  0  0  0  0
   23.0923  -24.3850  -13.8766 O   0  0  0  0  0  0  0  0  0  0  0  0
   23.0575  -22.1407  -14.1265 N   0  0  0  0  0  0  0  0  0  0  0  0
   24.4148  -22.0521  -13.5924 C   0  0  1  0  0  0  0  0  0  0  0  0
   25.1131  -21.0164  -14.4879 C   0  0  0  0  0  0  0  0  0  0  0  0
   25.8013  -21.7754  -15.5630 C   0  0  0  0  0  0  0  0  0  0  0  0
   25.8648  -23.1508  -15.7108 C   0  0  0  0  0  0  0  0  0  0  0  0
   26.5856  -23.4740  -16.8208 N   0  0  0  0  0  0  0  0  0  0  0  0
   26.9657  -22.3062  -17.3565 C   0  0  0  0  0  0  0  0  0  0  0  0
   26.5094  -21.2814  -16.6236 N   0  0  0  0  0  0  0  0  0  0  0  0
   24.4827  -21.5149  -12.2262 C   0  0  0  0  0  0  0  0  0  0  0  0
   23.5616  -20.6799  -11.9271 O   0  0  0  0  0  0  0  0  0  0  0  0
   28.7238  -18.2064   -5.4558 O   0  0  0  0  0  0  0  0  0  0  0  0
   28.0956  -19.1203   -6.3083 C   0  0  0  0  0  0  0  0  0  0  0  0
   26.8427  -19.6297   -6.0308 C   0  0  0  0  0  0  0  0  0  0  0  0
   26.2596  -20.5413   -6.9181 C   0  0  0  0  0  0  0  0  0  0  0  0
   26.9150  -20.9373   -8.0615 C   0  0  0  0  0  0  0  0  0  0  0  0
   26.2927  -21.9075   -8.9710 C   0  0  0  0  0  0  0  0  0  0  0  0
   25.4183  -21.1954   -9.9660 C   0  0  2  0  0  0  0  0  0  0  0  0
   25.4641  -21.8542  -11.2679 N   0  0  0  0  0  0  0  0  0  0  0  0
   25.7747  -19.7827  -10.1882 C   0  0  0  0  0  0  0  0  0  0  0  0
   25.2676  -18.8517   -9.5098 O   0  0  0  0  0  0  0  0  0  0  0  0
   28.1607  -20.4238   -8.3259 C   0  0  0  0  0  0  0  0  0  0  0  0
   28.7649  -19.5100   -7.4533 C   0  0  0  0  0  0  0  0  0  0  0  0
   26.6940  -19.3953  -11.1624 O   0  0  0  0  0  0  0  0  0  0  0  0
  2  1  1  6
  3  2  1  0
  3  4  1  0
  5  4  1  0
  6  5  1  0
  7  6  1  0
  8  2  1  0
  8  9  2  0
 10  8  1  0
 11 18  1  0
 11 10  1  0
 12 13  1  0
 11 12  1  6
 13 17  1  0
 14 15  1  0
 14 13  2  0
 15 16  1  0
 16 17  2  0
 18 27  1  0
 19 18  2  0
 20 21  1  0
 21 31  2  0
 21 22  1  0
 22 23  2  0
 23 24  1  0
 24 25  1  0
 26 25  1  1
 26 28  1  0
 27 26  1  0
 28 29  2  0
 28 32  1  0
 30 24  2  0
 31 30  1  0
M  END
$$$$
