KHY.pdb
     RDKit          3D

 32 33  0  0  1  0  0  0  0  0999 V2000
   23.3044  -13.9495  -19.1947 N   0  0  0  0  0  0  0  0  0  0  0  0
   22.0201  -13.1865  -18.8920 C   0  0  1  0  0  0  0  0  0  0  0  0
   21.0633  -14.2024  -18.4360 C   0  0  0  0  0  0  0  0  0  0  0  0
   20.6958  -15.3593  -19.2559 C   0  0  0  0  0  0  0  0  0  0  0  0
   19.8248  -16.4346  -18.7744 C   0  0  0  0  0  0  0  0  0  0  0  0
   19.5355  -17.5902  -19.6285 C   0  0  0  0  0  0  0  0  0  0  0  0
   18.6393  -18.5541  -18.9457 N   0  0  0  0  0  0  0  0  0  0  0  0
   22.4771  -12.2072  -17.8740 C   0  0  0  0  0  0  0  0  0  0  0  0
   21.7831  -11.9797  -16.8088 O   0  0  0  0  0  0  0  0  0  0  0  0
   23.6672  -11.4396  -17.9311 N   0  0  0  0  0  0  0  0  0  0  0  0
   24.0092  -10.4623  -16.8998 C   0  0  1  0  0  0  0  0  0  0  0  0
   25.5047  -10.1824  -17.1168 C   0  0  0  0  0  0  0  0  0  0  0  0
   26.2398  -11.3697  -16.6114 C   0  0  0  0  0  0  0  0  0  0  0  0
   25.7072  -12.4790  -15.9762 C   0  0  0  0  0  0  0  0  0  0  0  0
   26.6951  -13.3624  -15.6603 N   0  0  0  0  0  0  0  0  0  0  0  0
   27.8317  -12.8035  -16.0971 C   0  0  0  0  0  0  0  0  0  0  0  0
   27.5838  -11.6163  -16.6670 N   0  0  0  0  0  0  0  0  0  0  0  0
   23.3299   -9.1687  -17.0571 C   0  0  0  0  0  0  0  0  0  0  0  0
   23.3445   -8.6911  -18.2432 O   0  0  0  0  0  0  0  0  0  0  0  0
   17.5708   -3.0576  -18.1920 O   0  0  0  0  0  0  0  0  0  0  0  0
   18.3396   -4.2038  -17.9646 C   0  0  0  0  0  0  0  0  0  0  0  0
   17.7822   -5.3661  -17.4700 C   0  0  0  0  0  0  0  0  0  0  0  0
   18.5972   -6.4844  -17.2612 C   0  0  0  0  0  0  0  0  0  0  0  0
   19.9440   -6.4434  -17.5410 C   0  0  0  0  0  0  0  0  0  0  0  0
   20.7846   -7.6226  -17.2992 C   0  0  0  0  0  0  0  0  0  0  0  0
   21.9123   -7.2709  -16.3684 C   0  0  2  0  0  0  0  0  0  0  0  0
   22.6902   -8.4555  -16.0185 N   0  0  0  0  0  0  0  0  0  0  0  0
   21.4849   -6.6499  -15.1019 C   0  0  0  0  0  0  0  0  0  0  0  0
   21.2641   -7.3300  -14.0662 O   0  0  0  0  0  0  0  0  0  0  0  0
   20.4863   -5.2816  -18.0320 C   0  0  0  0  0  0  0  0  0  0  0  0
   19.6912   -4.1493  -18.2495 C   0  0  0  0  0  0  0  0  0  0  0  0
   21.3003   -5.2735  -14.9774 O   0  0  0  0  0  0  0  0  0  0  0  0
  2  1  1  1
  3  2  1  0
  3  4  1  0
  5  4  1  0
  6  5  1  0
  7  6  1  0
  8  2  1  0
  8  9  2  0
 10  8  1  0
 11 18  1  0
 11 10  1  0
 12 13  1  0
 11 12  1  6
 13 17  1  0
 14 15  1  0
 14 13  2  0
 15 16  1  0
 16 17  2  0
 18 27  1  0
 19 18  2  0
 20 21  1  0
 21 31  2  0
 21 22  1  0
 22 23  2  0
 23 24  1  0
 24 25  1  0
 26 25  1  6
 26 28  1  0
 27 26  1  0
 28 29  2  0
 28 32  1  0
 30 24  2  0
 31 30  1  0
M  END
$$$$
