KHY.pdb
     RDKit          3D

 32 33  0  0  1  0  0  0  0  0999 V2000
   26.1081  -26.6960  -18.0905 N   0  0  0  0  0  0  0  0  0  0  0  0
   25.0272  -26.0020  -17.2700 C   0  0  1  0  0  0  0  0  0  0  0  0
   24.5892  -26.9975  -16.2839 C   0  0  0  0  0  0  0  0  0  0  0  0
   23.2383  -27.5638  -16.2862 C   0  0  0  0  0  0  0  0  0  0  0  0
   22.1053  -26.9233  -16.9592 C   0  0  0  0  0  0  0  0  0  0  0  0
   20.9490  -26.4634  -16.1846 C   0  0  0  0  0  0  0  0  0  0  0  0
   20.5274  -27.4800  -15.1908 N   0  0  0  0  0  0  0  0  0  0  0  0
   25.7552  -24.8226  -16.7377 C   0  0  0  0  0  0  0  0  0  0  0  0
   26.8793  -24.9576  -16.1164 O   0  0  0  0  0  0  0  0  0  0  0  0
   25.3390  -23.4715  -16.8374 N   0  0  0  0  0  0  0  0  0  0  0  0
   26.0942  -22.3808  -16.2245 C   0  0  1  0  0  0  0  0  0  0  0  0
   25.7246  -21.1427  -17.0568 C   0  0  0  0  0  0  0  0  0  0  0  0
   26.5759  -20.0286  -16.5673 C   0  0  0  0  0  0  0  0  0  0  0  0
   27.8555  -19.7038  -16.9853 C   0  0  0  0  0  0  0  0  0  0  0  0
   28.3129  -18.6156  -16.3051 N   0  0  0  0  0  0  0  0  0  0  0  0
   27.3229  -18.2691  -15.4716 C   0  0  0  0  0  0  0  0  0  0  0  0
   26.2786  -19.0972  -15.6110 N   0  0  0  0  0  0  0  0  0  0  0  0
   25.6867  -22.0762  -14.8458 C   0  0  0  0  0  0  0  0  0  0  0  0
   24.4358  -22.2010  -14.6117 O   0  0  0  0  0  0  0  0  0  0  0  0
   24.7367  -19.8928   -6.4871 O   0  0  0  0  0  0  0  0  0  0  0  0
   25.3332  -20.1597   -7.7238 C   0  0  0  0  0  0  0  0  0  0  0  0
   26.2307  -19.2839   -8.3014 C   0  0  0  0  0  0  0  0  0  0  0  0
   26.7987  -19.6000   -9.5407 C   0  0  0  0  0  0  0  0  0  0  0  0
   26.4768  -20.7691  -10.1916 C   0  0  0  0  0  0  0  0  0  0  0  0
   27.0713  -21.0742  -11.4990 C   0  0  0  0  0  0  0  0  0  0  0  0
   25.9902  -21.3716  -12.5012 C   0  0  2  0  0  0  0  0  0  0  0  0
   26.5599  -21.6717  -13.8112 N   0  0  0  0  0  0  0  0  0  0  0  0
   25.0226  -20.2770  -12.6956 C   0  0  0  0  0  0  0  0  0  0  0  0
   25.2829  -19.2754  -13.4119 O   0  0  0  0  0  0  0  0  0  0  0  0
   25.5826  -21.6315   -9.6069 C   0  0  0  0  0  0  0  0  0  0  0  0
   25.0010  -21.3373   -8.3672 C   0  0  0  0  0  0  0  0  0  0  0  0
   23.7630  -20.2872  -12.0976 O   0  0  0  0  0  0  0  0  0  0  0  0
  2  1  1  6
  3  2  1  0
  3  4  1  0
  5  4  1  0
  6  5  1  0
  7  6  1  0
  8  2  1  0
  8  9  2  0
 10  8  1  0
 11 18  1  0
 11 10  1  0
 12 13  1  0
 11 12  1  6
 13 17  1  0
 14 15  1  0
 14 13  2  0
 15 16  1  0
 16 17  2  0
 18 27  1  0
 19 18  2  0
 20 21  1  0
 21 31  2  0
 21 22  1  0
 22 23  2  0
 23 24  1  0
 24 25  1  0
 26 25  1  1
 26 28  1  0
 27 26  1  0
 28 29  2  0
 28 32  1  0
 30 24  2  0
 31 30  1  0
M  END
$$$$
