KHY.pdb
     RDKit          3D

 32 33  0  0  1  0  0  0  0  0999 V2000
   23.9530  -21.1438  -15.4783 N   0  0  0  0  0  0  0  0  0  0  0  0
   22.8390  -22.1800  -15.3863 C   0  0  1  0  0  0  0  0  0  0  0  0
   23.5216  -23.4734  -15.2576 C   0  0  0  0  0  0  0  0  0  0  0  0
   24.2914  -24.0676  -16.3530 C   0  0  0  0  0  0  0  0  0  0  0  0
   25.0055  -25.3409  -16.2280 C   0  0  0  0  0  0  0  0  0  0  0  0
   25.8938  -25.7988  -17.3003 C   0  0  0  0  0  0  0  0  0  0  0  0
   26.5448  -27.0838  -16.9489 N   0  0  0  0  0  0  0  0  0  0  0  0
   22.0822  -21.7128  -14.1976 C   0  0  0  0  0  0  0  0  0  0  0  0
   22.6936  -21.2757  -13.1473 O   0  0  0  0  0  0  0  0  0  0  0  0
   20.6712  -21.6832  -14.0665 N   0  0  0  0  0  0  0  0  0  0  0  0
   20.0163  -21.2431  -12.8365 C   0  0  1  0  0  0  0  0  0  0  0  0
   18.8133  -20.4159  -13.3168 C   0  0  0  0  0  0  0  0  0  0  0  0
   19.2976  -19.0243  -13.5017 C   0  0  0  0  0  0  0  0  0  0  0  0
   20.5889  -18.5550  -13.3289 C   0  0  0  0  0  0  0  0  0  0  0  0
   20.6456  -17.2195  -13.5924 N   0  0  0  0  0  0  0  0  0  0  0  0
   19.3975  -16.8646  -13.9260 C   0  0  0  0  0  0  0  0  0  0  0  0
   18.5782  -17.9240  -13.8787 N   0  0  0  0  0  0  0  0  0  0  0  0
   19.4569  -22.3403  -12.0347 C   0  0  0  0  0  0  0  0  0  0  0  0
   18.9782  -23.3144  -12.7108 O   0  0  0  0  0  0  0  0  0  0  0  0
   16.7540  -27.9898   -5.9605 O   0  0  0  0  0  0  0  0  0  0  0  0
   17.4414  -27.0001   -6.6708 C   0  0  0  0  0  0  0  0  0  0  0  0
   17.9514  -27.2333   -7.9325 C   0  0  0  0  0  0  0  0  0  0  0  0
   18.6309  -26.2077   -8.5993 C   0  0  0  0  0  0  0  0  0  0  0  0
   18.7983  -24.9718   -8.0176 C   0  0  0  0  0  0  0  0  0  0  0  0
   19.5288  -23.9143   -8.7274 C   0  0  0  0  0  0  0  0  0  0  0  0
   18.7874  -23.5233   -9.9761 C   0  0  2  0  0  0  0  0  0  0  0  0
   19.4202  -22.3777  -10.6227 N   0  0  0  0  0  0  0  0  0  0  0  0
   17.3745  -23.1654   -9.7581 C   0  0  0  0  0  0  0  0  0  0  0  0
   16.4470  -24.0085   -9.8720 O   0  0  0  0  0  0  0  0  0  0  0  0
   18.2869  -24.7527   -6.7624 C   0  0  0  0  0  0  0  0  0  0  0  0
   17.6029  -25.7633   -6.0750 C   0  0  0  0  0  0  0  0  0  0  0  0
   16.9828  -21.8723   -9.4132 O   0  0  0  0  0  0  0  0  0  0  0  0
  2  1  1  1
  3  2  1  0
  3  4  1  0
  5  4  1  0
  6  5  1  0
  7  6  1  0
  8  2  1  0
  8  9  2  0
 10  8  1  0
 11 18  1  0
 11 10  1  0
 12 13  1  0
 11 12  1  6
 13 17  1  0
 14 15  1  0
 14 13  2  0
 15 16  1  0
 16 17  2  0
 18 27  1  0
 19 18  2  0
 20 21  1  0
 21 31  2  0
 21 22  1  0
 22 23  2  0
 23 24  1  0
 24 25  1  0
 26 25  1  1
 26 28  1  0
 27 26  1  0
 28 29  2  0
 28 32  1  0
 30 24  2  0
 31 30  1  0
M  END
$$$$
