KHY.pdb
     RDKit          3D

 32 33  0  0  1  0  0  0  0  0999 V2000
   28.0710  -20.6423  -20.7958 N   0  0  0  0  0  0  0  0  0  0  0  0
   28.1567  -21.5630  -19.5841 C   0  0  1  0  0  0  0  0  0  0  0  0
   29.5856  -21.6404  -19.2557 C   0  0  0  0  0  0  0  0  0  0  0  0
   30.3792  -22.8505  -19.4822 C   0  0  0  0  0  0  0  0  0  0  0  0
   29.8898  -24.1961  -19.1709 C   0  0  0  0  0  0  0  0  0  0  0  0
   30.7051  -25.3716  -19.4903 C   0  0  0  0  0  0  0  0  0  0  0  0
   31.7319  -25.6144  -18.4484 N   0  0  0  0  0  0  0  0  0  0  0  0
   27.2917  -20.8609  -18.6028 C   0  0  0  0  0  0  0  0  0  0  0  0
   27.3355  -19.5766  -18.4743 O   0  0  0  0  0  0  0  0  0  0  0  0
   26.3559  -21.4707  -17.7304 N   0  0  0  0  0  0  0  0  0  0  0  0
   25.5116  -20.6883  -16.8301 C   0  0  1  0  0  0  0  0  0  0  0  0
   24.0767  -21.1042  -17.1910 C   0  0  0  0  0  0  0  0  0  0  0  0
   23.6548  -20.2444  -18.3259 C   0  0  0  0  0  0  0  0  0  0  0  0
   23.4329  -20.6333  -19.6363 C   0  0  0  0  0  0  0  0  0  0  0  0
   23.0558  -19.5625  -20.3896 N   0  0  0  0  0  0  0  0  0  0  0  0
   23.0444  -18.5178  -19.5510 C   0  0  0  0  0  0  0  0  0  0  0  0
   23.3979  -18.9012  -18.3165 N   0  0  0  0  0  0  0  0  0  0  0  0
   25.6840  -21.0248  -15.4100 C   0  0  0  0  0  0  0  0  0  0  0  0
   25.7527  -22.2760  -15.1554 O   0  0  0  0  0  0  0  0  0  0  0  0
   27.3059  -21.2384   -6.8535 O   0  0  0  0  0  0  0  0  0  0  0  0
   27.1610  -20.7990   -8.1735 C   0  0  0  0  0  0  0  0  0  0  0  0
   26.0758  -20.0449   -8.5731 C   0  0  0  0  0  0  0  0  0  0  0  0
   25.9801  -19.6310   -9.9065 C   0  0  0  0  0  0  0  0  0  0  0  0
   26.9500  -19.9636  -10.8243 C   0  0  0  0  0  0  0  0  0  0  0  0
   26.8225  -19.5334  -12.2223 C   0  0  0  0  0  0  0  0  0  0  0  0
   26.0843  -20.5745  -13.0178 C   0  0  2  0  0  0  0  0  0  0  0  0
   25.7742  -20.0859  -14.3579 N   0  0  0  0  0  0  0  0  0  0  0  0
   24.8118  -21.0112  -12.4161 C   0  0  0  0  0  0  0  0  0  0  0  0
   23.7283  -20.4098  -12.6361 O   0  0  0  0  0  0  0  0  0  0  0  0
   28.0241  -20.7143  -10.4145 C   0  0  0  0  0  0  0  0  0  0  0  0
   28.1422  -21.1403   -9.0856 C   0  0  0  0  0  0  0  0  0  0  0  0
   24.7340  -22.1156  -11.5684 O   0  0  0  0  0  0  0  0  0  0  0  0
  2  1  1  6
  3  2  1  0
  3  4  1  0
  5  4  1  0
  6  5  1  0
  7  6  1  0
  8  2  1  0
  8  9  2  0
 10  8  1  0
 11 18  1  0
 11 10  1  0
 12 13  1  0
 11 12  1  6
 13 17  1  0
 14 15  1  0
 14 13  2  0
 15 16  1  0
 16 17  2  0
 18 27  1  0
 19 18  2  0
 20 21  1  0
 21 31  2  0
 21 22  1  0
 22 23  2  0
 23 24  1  0
 24 25  1  0
 26 25  1  1
 26 28  1  0
 27 26  1  0
 28 29  2  0
 28 32  1  0
 30 24  2  0
 31 30  1  0
M  END
$$$$
