KHY.pdb
     RDKit          3D

 32 33  0  0  1  0  0  0  0  0999 V2000
   22.0677  -15.6108  -18.6395 N   0  0  0  0  0  0  0  0  0  0  0  0
   20.8367  -14.7160  -18.5534 C   0  0  1  0  0  0  0  0  0  0  0  0
   20.0945  -15.1890  -17.3784 C   0  0  0  0  0  0  0  0  0  0  0  0
   19.2996  -16.4192  -17.3944 C   0  0  0  0  0  0  0  0  0  0  0  0
   19.8462  -17.7178  -17.7967 C   0  0  0  0  0  0  0  0  0  0  0  0
   18.9663  -18.8833  -17.9229 C   0  0  0  0  0  0  0  0  0  0  0  0
   19.7091  -20.0684  -18.4153 N   0  0  0  0  0  0  0  0  0  0  0  0
   21.4450  -13.3657  -18.4495 C   0  0  0  0  0  0  0  0  0  0  0  0
   22.7045  -13.2188  -18.2047 O   0  0  0  0  0  0  0  0  0  0  0  0
   20.7649  -12.1314  -18.5994 N   0  0  0  0  0  0  0  0  0  0  0  0
   21.4732  -10.8533  -18.6166 C   0  0  1  0  0  0  0  0  0  0  0  0
   20.6600   -9.9764  -19.5819 C   0  0  0  0  0  0  0  0  0  0  0  0
   21.0782  -10.3521  -20.9564 C   0  0  0  0  0  0  0  0  0  0  0  0
   20.4512  -11.2440  -21.8102 C   0  0  0  0  0  0  0  0  0  0  0  0
   21.1300  -11.3269  -22.9886 N   0  0  0  0  0  0  0  0  0  0  0  0
   22.1704  -10.4918  -22.8648 C   0  0  0  0  0  0  0  0  0  0  0  0
   22.1590   -9.9006  -21.6623 N   0  0  0  0  0  0  0  0  0  0  0  0
   21.4626  -10.1497  -17.3264 C   0  0  0  0  0  0  0  0  0  0  0  0
   20.4913  -10.4541  -16.5525 O   0  0  0  0  0  0  0  0  0  0  0  0
   28.1252  -10.7458  -16.7177 O   0  0  0  0  0  0  0  0  0  0  0  0
   26.8751  -10.4387  -16.1705 C   0  0  0  0  0  0  0  0  0  0  0  0
   26.1441  -11.3705  -15.4609 C   0  0  0  0  0  0  0  0  0  0  0  0
   24.8985  -11.0105  -14.9344 C   0  0  0  0  0  0  0  0  0  0  0  0
   24.3918   -9.7435  -15.1127 C   0  0  0  0  0  0  0  0  0  0  0  0
   23.0754   -9.3909  -14.5663 C   0  0  0  0  0  0  0  0  0  0  0  0
   22.2864   -8.6119  -15.5822 C   0  0  2  0  0  0  0  0  0  0  0  0
   22.4222   -9.1990  -16.9118 N   0  0  0  0  0  0  0  0  0  0  0  0
   22.6746   -7.1949  -15.6981 C   0  0  0  0  0  0  0  0  0  0  0  0
   23.2107   -6.7326  -16.7388 O   0  0  0  0  0  0  0  0  0  0  0  0
   25.1283   -8.8261  -15.8207 C   0  0  0  0  0  0  0  0  0  0  0  0
   26.3775   -9.1626  -16.3572 C   0  0  0  0  0  0  0  0  0  0  0  0
   22.4708   -6.2841  -14.6621 O   0  0  0  0  0  0  0  0  0  0  0  0
  2  1  1  1
  3  2  1  0
  3  4  1  0
  5  4  1  0
  6  5  1  0
  7  6  1  0
  8  2  1  0
  8  9  2  0
 10  8  1  0
 11 18  1  0
 11 10  1  0
 12 13  1  0
 11 12  1  6
 13 17  1  0
 14 15  1  0
 14 13  2  0
 15 16  1  0
 16 17  2  0
 18 27  1  0
 19 18  2  0
 20 21  1  0
 21 31  2  0
 21 22  1  0
 22 23  2  0
 23 24  1  0
 24 25  1  0
 26 25  1  1
 26 28  1  0
 27 26  1  0
 28 29  2  0
 28 32  1  0
 30 24  2  0
 31 30  1  0
M  END
$$$$
