KHY.pdb
     RDKit          3D

 32 33  0  0  1  0  0  0  0  0999 V2000
   22.9208  -16.0403  -16.4689 N   0  0  0  0  0  0  0  0  0  0  0  0
   21.9016  -17.1498  -16.2379 C   0  0  1  0  0  0  0  0  0  0  0  0
   21.0671  -17.1679  -17.4456 C   0  0  0  0  0  0  0  0  0  0  0  0
   20.3017  -16.0004  -17.8891 C   0  0  0  0  0  0  0  0  0  0  0  0
   19.2895  -15.3459  -17.0560 C   0  0  0  0  0  0  0  0  0  0  0  0
   18.5588  -14.1793  -17.5598 C   0  0  0  0  0  0  0  0  0  0  0  0
   17.6190  -13.6512  -16.5418 N   0  0  0  0  0  0  0  0  0  0  0  0
   22.7758  -18.3303  -16.0228 C   0  0  0  0  0  0  0  0  0  0  0  0
   22.2762  -19.5123  -15.8770 O   0  0  0  0  0  0  0  0  0  0  0  0
   24.1915  -18.3180  -15.9559 N   0  0  0  0  0  0  0  0  0  0  0  0
   24.9623  -19.5158  -15.6293 C   0  0  1  0  0  0  0  0  0  0  0  0
   26.2350  -19.3981  -16.4829 C   0  0  0  0  0  0  0  0  0  0  0  0
   25.9085  -19.9616  -17.8175 C   0  0  0  0  0  0  0  0  0  0  0  0
   24.6969  -20.4883  -18.2327 C   0  0  0  0  0  0  0  0  0  0  0  0
   24.7820  -20.9064  -19.5266 N   0  0  0  0  0  0  0  0  0  0  0  0
   26.0380  -20.6403  -19.9096 C   0  0  0  0  0  0  0  0  0  0  0  0
   26.7265  -20.0773  -18.9073 N   0  0  0  0  0  0  0  0  0  0  0  0
   25.4168  -19.5685  -14.2328 C   0  0  0  0  0  0  0  0  0  0  0  0
   25.6984  -18.4347  -13.7127 O   0  0  0  0  0  0  0  0  0  0  0  0
   27.0048  -19.5112   -5.9502 O   0  0  0  0  0  0  0  0  0  0  0  0
   26.5236  -19.5961   -7.2608 C   0  0  0  0  0  0  0  0  0  0  0  0
   25.7593  -20.6643   -7.6863 C   0  0  0  0  0  0  0  0  0  0  0  0
   25.3031  -20.6993   -9.0088 C   0  0  0  0  0  0  0  0  0  0  0  0
   25.6041  -19.6865   -9.8906 C   0  0  0  0  0  0  0  0  0  0  0  0
   25.1295  -19.7504  -11.2785 C   0  0  0  0  0  0  0  0  0  0  0  0
   26.0356  -20.6310  -12.0941 C   0  0  2  0  0  0  0  0  0  0  0  0
   25.5537  -20.7481  -13.4671 N   0  0  0  0  0  0  0  0  0  0  0  0
   26.1821  -22.0019  -11.5734 C   0  0  0  0  0  0  0  0  0  0  0  0
   27.1359  -22.3319  -10.8213 O   0  0  0  0  0  0  0  0  0  0  0  0
   26.3653  -18.6299   -9.4553 C   0  0  0  0  0  0  0  0  0  0  0  0
   26.8333  -18.5723   -8.1365 C   0  0  0  0  0  0  0  0  0  0  0  0
   25.2732  -23.0129  -11.8833 O   0  0  0  0  0  0  0  0  0  0  0  0
  2  1  1  6
  3  2  1  0
  3  4  1  0
  5  4  1  0
  6  5  1  0
  7  6  1  0
  8  2  1  0
  8  9  2  0
 10  8  1  0
 11 18  1  0
 11 10  1  0
 12 13  1  0
 11 12  1  6
 13 17  1  0
 14 15  1  0
 14 13  2  0
 15 16  1  0
 16 17  2  0
 18 27  1  0
 19 18  2  0
 20 21  1  0
 21 31  2  0
 21 22  1  0
 22 23  2  0
 23 24  1  0
 24 25  1  0
 26 25  1  1
 26 28  1  0
 27 26  1  0
 28 29  2  0
 28 32  1  0
 30 24  2  0
 31 30  1  0
M  END
$$$$
