KHY.pdb
     RDKit          3D

 32 33  0  0  1  0  0  0  0  0999 V2000
   22.6642  -17.7608  -18.9592 N   0  0  0  0  0  0  0  0  0  0  0  0
   24.0529  -17.5912  -18.3543 C   0  0  1  0  0  0  0  0  0  0  0  0
   23.9689  -16.3849  -17.5218 C   0  0  0  0  0  0  0  0  0  0  0  0
   23.9689  -15.0356  -18.0918 C   0  0  0  0  0  0  0  0  0  0  0  0
   25.1402  -14.4445  -18.7441 C   0  0  0  0  0  0  0  0  0  0  0  0
   25.0435  -13.1317  -19.3891 C   0  0  0  0  0  0  0  0  0  0  0  0
   24.5889  -12.0937  -18.4328 N   0  0  0  0  0  0  0  0  0  0  0  0
   24.2340  -18.8773  -17.6352 C   0  0  0  0  0  0  0  0  0  0  0  0
   23.3174  -19.3372  -16.8502 O   0  0  0  0  0  0  0  0  0  0  0  0
   25.3688  -19.7229  -17.7125 N   0  0  0  0  0  0  0  0  0  0  0  0
   25.4776  -20.9481  -16.9234 C   0  0  1  0  0  0  0  0  0  0  0  0
   26.5476  -21.7788  -17.6494 C   0  0  0  0  0  0  0  0  0  0  0  0
   26.6451  -23.0739  -16.9293 C   0  0  0  0  0  0  0  0  0  0  0  0
   27.6117  -23.4545  -16.0137 C   0  0  0  0  0  0  0  0  0  0  0  0
   27.3667  -24.7175  -15.5653 N   0  0  0  0  0  0  0  0  0  0  0  0
   26.2557  -25.1159  -16.1992 C   0  0  0  0  0  0  0  0  0  0  0  0
   25.8089  -24.1525  -17.0165 N   0  0  0  0  0  0  0  0  0  0  0  0
   25.9874  -20.7355  -15.5616 C   0  0  0  0  0  0  0  0  0  0  0  0
   26.9404  -19.8881  -15.4672 O   0  0  0  0  0  0  0  0  0  0  0  0
   20.1650  -20.4338  -11.0005 O   0  0  0  0  0  0  0  0  0  0  0  0
   21.5064  -20.2700  -11.3617 C   0  0  0  0  0  0  0  0  0  0  0  0
   22.5071  -20.1747  -10.4153 C   0  0  0  0  0  0  0  0  0  0  0  0
   23.8332  -20.0117  -10.8315 C   0  0  0  0  0  0  0  0  0  0  0  0
   24.1547  -19.9449  -12.1679 C   0  0  0  0  0  0  0  0  0  0  0  0
   25.5503  -19.7570  -12.5833 C   0  0  0  0  0  0  0  0  0  0  0  0
   26.1084  -21.0473  -13.1174 C   0  0  2  0  0  0  0  0  0  0  0  0
   25.5054  -21.3852  -14.4031 N   0  0  0  0  0  0  0  0  0  0  0  0
   25.9095  -22.2090  -12.2326 C   0  0  0  0  0  0  0  0  0  0  0  0
   26.4828  -22.3037  -11.1162 O   0  0  0  0  0  0  0  0  0  0  0  0
   23.1503  -20.0405  -13.0992 C   0  0  0  0  0  0  0  0  0  0  0  0
   21.8157  -20.2041  -12.7074 C   0  0  0  0  0  0  0  0  0  0  0  0
   25.0750  -23.2706  -12.5806 O   0  0  0  0  0  0  0  0  0  0  0  0
  2  1  1  1
  3  2  1  0
  3  4  1  0
  5  4  1  0
  6  5  1  0
  7  6  1  0
  8  2  1  0
  8  9  2  0
 10  8  1  0
 11 18  1  0
 11 10  1  0
 12 13  1  0
 11 12  1  6
 13 17  1  0
 14 15  1  0
 14 13  2  0
 15 16  1  0
 16 17  2  0
 18 27  1  0
 19 18  2  0
 20 21  1  0
 21 31  2  0
 21 22  1  0
 22 23  2  0
 23 24  1  0
 24 25  1  0
 26 25  1  1
 26 28  1  0
 27 26  1  0
 28 29  2  0
 28 32  1  0
 30 24  2  0
 31 30  1  0
M  END
$$$$
