KHY.pdb
     RDKit          3D

 32 33  0  0  1  0  0  0  0  0999 V2000
   22.7071  -12.0634  -18.9184 N   0  0  0  0  0  0  0  0  0  0  0  0
   21.4202  -11.3873  -18.4603 C   0  0  1  0  0  0  0  0  0  0  0  0
   20.7545  -12.3670  -17.5929 C   0  0  0  0  0  0  0  0  0  0  0  0
   20.0451  -13.5329  -18.1248 C   0  0  0  0  0  0  0  0  0  0  0  0
   19.2848  -14.4584  -17.2807 C   0  0  0  0  0  0  0  0  0  0  0  0
   18.6198  -15.6228  -17.8728 C   0  0  0  0  0  0  0  0  0  0  0  0
   18.0617  -16.5140  -16.8275 N   0  0  0  0  0  0  0  0  0  0  0  0
   21.9354  -10.1627  -17.7978 C   0  0  0  0  0  0  0  0  0  0  0  0
   22.5470  -10.2262  -16.6621 O   0  0  0  0  0  0  0  0  0  0  0  0
   21.8332   -8.8397  -18.2958 N   0  0  0  0  0  0  0  0  0  0  0  0
   22.4336   -7.7021  -17.6023 C   0  0  1  0  0  0  0  0  0  0  0  0
   22.4028   -6.5635  -18.6342 C   0  0  0  0  0  0  0  0  0  0  0  0
   23.5957   -6.7394  -19.5010 C   0  0  0  0  0  0  0  0  0  0  0  0
   24.6221   -7.6551  -19.3406 C   0  0  0  0  0  0  0  0  0  0  0  0
   25.5407   -7.5147  -20.3369 N   0  0  0  0  0  0  0  0  0  0  0  0
   25.0858   -6.5185  -21.1089 C   0  0  0  0  0  0  0  0  0  0  0  0
   23.9286   -6.0423  -20.6295 N   0  0  0  0  0  0  0  0  0  0  0  0
   21.6517   -7.2258  -16.4528 C   0  0  0  0  0  0  0  0  0  0  0  0
   20.3830   -7.3054  -16.5916 O   0  0  0  0  0  0  0  0  0  0  0  0
   17.8113   -5.5267   -8.9738 O   0  0  0  0  0  0  0  0  0  0  0  0
   18.6872   -5.9657   -9.9721 C   0  0  0  0  0  0  0  0  0  0  0  0
   20.0572   -5.9269   -9.8051 C   0  0  0  0  0  0  0  0  0  0  0  0
   20.8883   -6.3789  -10.8362 C   0  0  0  0  0  0  0  0  0  0  0  0
   20.3617   -6.8609  -12.0128 C   0  0  0  0  0  0  0  0  0  0  0  0
   21.2515   -7.3149  -13.0888 C   0  0  0  0  0  0  0  0  0  0  0  0
   21.2823   -6.2985  -14.1968 C   0  0  2  0  0  0  0  0  0  0  0  0
   22.1983   -6.7085  -15.2569 N   0  0  0  0  0  0  0  0  0  0  0  0
   21.6946   -4.9485  -13.7730 C   0  0  0  0  0  0  0  0  0  0  0  0
   20.8584   -4.0353  -13.5472 O   0  0  0  0  0  0  0  0  0  0  0  0
   18.9977   -6.8939  -12.1668 C   0  0  0  0  0  0  0  0  0  0  0  0
   18.1453   -6.4473  -11.1492 C   0  0  0  0  0  0  0  0  0  0  0  0
   23.0344   -4.6042  -13.5978 O   0  0  0  0  0  0  0  0  0  0  0  0
  2  1  1  1
  3  2  1  0
  3  4  1  0
  5  4  1  0
  6  5  1  0
  7  6  1  0
  8  2  1  0
  8  9  2  0
 10  8  1  0
 11 18  1  0
 11 10  1  0
 12 13  1  0
 11 12  1  6
 13 17  1  0
 14 15  1  0
 14 13  2  0
 15 16  1  0
 16 17  2  0
 18 27  1  0
 19 18  2  0
 20 21  1  0
 21 31  2  0
 21 22  1  0
 22 23  2  0
 23 24  1  0
 24 25  1  0
 26 25  1  1
 26 28  1  0
 27 26  1  0
 28 29  2  0
 28 32  1  0
 30 24  2  0
 31 30  1  0
M  END
$$$$
