KHY.pdb
     RDKit          3D

 32 33  0  0  1  0  0  0  0  0999 V2000
   43.3111   -8.6076   -6.9144 N   0  0  0  0  0  0  0  0  0  0  0  0
   42.2108   -8.4097   -5.8783 C   0  0  1  0  0  0  0  0  0  0  0  0
   42.9094   -8.2283   -4.5999 C   0  0  0  0  0  0  0  0  0  0  0  0
   43.9192   -9.1725   -4.1158 C   0  0  0  0  0  0  0  0  0  0  0  0
   44.6193   -9.0077   -2.8392 C   0  0  0  0  0  0  0  0  0  0  0  0
   45.5480  -10.0388   -2.3668 C   0  0  0  0  0  0  0  0  0  0  0  0
   46.1389   -9.6725   -1.0571 N   0  0  0  0  0  0  0  0  0  0  0  0
   41.4952   -7.2238   -6.4127 C   0  0  0  0  0  0  0  0  0  0  0  0
   42.1110   -6.3366   -7.1210 O   0  0  0  0  0  0  0  0  0  0  0  0
   40.1215   -6.9269   -6.2299 N   0  0  0  0  0  0  0  0  0  0  0  0
   39.4950   -5.7534   -6.8351 C   0  0  1  0  0  0  0  0  0  0  0  0
   38.5945   -6.3262   -7.9410 C   0  0  0  0  0  0  0  0  0  0  0  0
   38.0232   -5.1660   -8.6710 C   0  0  0  0  0  0  0  0  0  0  0  0
   38.2603   -3.8231   -8.4299 C   0  0  0  0  0  0  0  0  0  0  0  0
   37.5571   -3.0541   -9.3076 N   0  0  0  0  0  0  0  0  0  0  0  0
   36.8891   -3.9153  -10.0867 C   0  0  0  0  0  0  0  0  0  0  0  0
   37.1521   -5.1786   -9.7252 N   0  0  0  0  0  0  0  0  0  0  0  0
   38.6018   -5.0208   -5.9267 C   0  0  0  0  0  0  0  0  0  0  0  0
   37.7286   -5.7401   -5.3305 O   0  0  0  0  0  0  0  0  0  0  0  0
   34.8110   -1.4282    0.6803 O   0  0  0  0  0  0  0  0  0  0  0  0
   35.6351   -1.9925   -0.2989 C   0  0  0  0  0  0  0  0  0  0  0  0
   36.9514   -1.6049   -0.4520 C   0  0  0  0  0  0  0  0  0  0  0  0
   37.7322   -2.2022   -1.4480 C   0  0  0  0  0  0  0  0  0  0  0  0
   37.2088   -3.1689   -2.2760 C   0  0  0  0  0  0  0  0  0  0  0  0
   38.0401   -3.7713   -3.3256 C   0  0  0  0  0  0  0  0  0  0  0  0
   37.7993   -3.0767   -4.6375 C   0  0  2  0  0  0  0  0  0  0  0  0
   38.6515   -3.6294   -5.6859 N   0  0  0  0  0  0  0  0  0  0  0  0
   38.0420   -1.6233   -4.6102 C   0  0  0  0  0  0  0  0  0  0  0  0
   39.1927   -1.1357   -4.7595 O   0  0  0  0  0  0  0  0  0  0  0  0
   35.8984   -3.5453   -2.1138 C   0  0  0  0  0  0  0  0  0  0  0  0
   35.0970   -2.9622   -1.1242 C   0  0  0  0  0  0  0  0  0  0  0  0
   37.0115   -0.7039   -4.4175 O   0  0  0  0  0  0  0  0  0  0  0  0
  2  1  1  6
  3  2  1  0
  3  4  1  0
  5  4  1  0
  6  5  1  0
  7  6  1  0
  8  2  1  0
  8  9  2  0
 10  8  1  0
 11 18  1  0
 11 10  1  0
 12 13  1  0
 11 12  1  6
 13 17  1  0
 14 15  1  0
 14 13  2  0
 15 16  1  0
 16 17  2  0
 18 27  1  0
 19 18  2  0
 20 21  1  0
 21 31  2  0
 21 22  1  0
 22 23  2  0
 23 24  1  0
 24 25  1  0
 26 25  1  1
 26 28  1  0
 27 26  1  0
 28 29  2  0
 28 32  1  0
 30 24  2  0
 31 30  1  0
M  END
$$$$
