ADW.pdb
     RDKit          3D

 28 29  0  0  1  0  0  0  0  0999 V2000
    8.5562  -12.5407   19.0309 C   0  0  0  0  0  0  0  0  0  0  0  0
    8.5522  -13.9162   18.4397 C   0  0  2  0  0  0  0  0  0  0  0  0
    7.3516  -14.1975   17.6825 N   0  0  0  0  0  0  0  0  0  0  0  0
    8.7366  -14.9943   19.4399 C   0  0  0  0  0  0  0  0  0  0  0  0
    7.6938  -15.4811   20.0110 O   0  0  0  0  0  0  0  0  0  0  0  0
   10.0271  -15.4775   19.7606 N   0  0  0  0  0  0  0  0  0  0  0  0
   10.1361  -16.5190   20.7229 C   0  0  1  0  0  0  0  0  0  0  0  0
   11.2638  -17.4849   20.4301 C   0  0  0  0  0  0  0  0  0  0  0  0
   11.1032  -18.2498   19.1984 C   0  0  0  0  0  0  0  0  0  0  0  0
   11.7599  -17.9402   18.1766 O   0  0  0  0  0  0  0  0  0  0  0  0
   10.3855  -15.9185   22.0629 C   0  0  0  0  0  0  0  0  0  0  0  0
   10.9762  -14.7910   22.0977 O   0  0  0  0  0  0  0  0  0  0  0  0
   10.2375  -19.3495   19.0623 O   0  0  0  0  0  0  0  0  0  0  0  0
    9.9966  -16.5405   23.2563 N   0  0  0  0  0  0  0  0  0  0  0  0
   10.1921  -15.8263   24.5357 C   0  0  1  0  0  0  0  0  0  0  0  0
    9.3273  -14.5814   24.3801 C   0  0  0  0  0  0  0  0  0  0  0  0
    8.0713  -14.6127   25.1249 C   0  0  0  0  0  0  0  0  0  0  0  0
    7.1844  -15.6587   25.2995 C   0  0  0  0  0  0  0  0  0  0  0  0
    6.2004  -15.1802   26.0817 N   0  0  0  0  0  0  0  0  0  0  0  0
    6.4197  -13.8908   26.4098 C   0  0  0  0  0  0  0  0  0  0  0  0
    5.7211  -12.9703   27.1841 C   0  0  0  0  0  0  0  0  0  0  0  0
    6.1876  -11.6893   27.3655 C   0  0  0  0  0  0  0  0  0  0  0  0
    7.3805  -11.2855   26.7708 C   0  0  0  0  0  0  0  0  0  0  0  0
    8.0682  -12.2042   26.0031 C   0  0  0  0  0  0  0  0  0  0  0  0
    7.5957  -13.4920   25.8234 C   0  0  0  0  0  0  0  0  0  0  0  0
    9.7543  -16.7262   25.5914 C   0  0  0  0  0  0  0  0  0  0  0  0
    9.1314  -17.7788   25.3921 O   0  0  0  0  0  0  0  0  0  0  0  0
   10.0367  -16.4203   26.9274 O   0  0  0  0  0  0  0  0  0  0  0  0
  2  1  1  1
  3  2  1  0
  4  6  1  0
  4  2  1  0
  5  4  2  0
  7  8  1  6
  7  6  1  0
  8  9  1  0
  9 10  2  0
 11  7  1  0
 11 14  1  0
 12 11  2  0
 13  9  1  0
 15 14  1  0
 15 26  1  0
 15 16  1  6
 17 16  1  0
 18 17  2  0
 19 20  1  0
 19 18  1  0
 20 25  2  0
 21 22  2  0
 21 20  1  0
 22 23  1  0
 23 24  2  0
 25 17  1  0
 25 24  1  0
 26 28  1  0
 27 26  2  0
M  END
$$$$
