ADW.pdb
     RDKit          3D

 28 29  0  0  1  0  0  0  0  0999 V2000
    7.0190  -12.9113   19.1547 C   0  0  0  0  0  0  0  0  0  0  0  0
    8.3843  -13.4789   19.3898 C   0  0  2  0  0  0  0  0  0  0  0  0
    8.9899  -14.0003   18.1834 N   0  0  0  0  0  0  0  0  0  0  0  0
    8.4178  -14.5393   20.4248 C   0  0  0  0  0  0  0  0  0  0  0  0
    7.8906  -14.2908   21.5696 O   0  0  0  0  0  0  0  0  0  0  0  0
    9.0152  -15.7947   20.1623 N   0  0  0  0  0  0  0  0  0  0  0  0
    8.8438  -16.8347   21.1172 C   0  0  1  0  0  0  0  0  0  0  0  0
    9.2821  -18.1903   20.6067 C   0  0  0  0  0  0  0  0  0  0  0  0
   10.6062  -18.2093   19.9949 C   0  0  0  0  0  0  0  0  0  0  0  0
   11.1479  -17.1371   19.6367 O   0  0  0  0  0  0  0  0  0  0  0  0
    9.6511  -16.5201   22.3287 C   0  0  0  0  0  0  0  0  0  0  0  0
   10.7800  -15.9590   22.1497 O   0  0  0  0  0  0  0  0  0  0  0  0
   11.3514  -19.3799   19.7678 O   0  0  0  0  0  0  0  0  0  0  0  0
    9.2148  -16.8132   23.6272 N   0  0  0  0  0  0  0  0  0  0  0  0
   10.0550  -16.4120   24.7752 C   0  0  1  0  0  0  0  0  0  0  0  0
    9.6657  -14.9569   25.0056 C   0  0  0  0  0  0  0  0  0  0  0  0
    8.2575  -14.7450   25.3300 C   0  0  0  0  0  0  0  0  0  0  0  0
    7.2032  -15.6374   25.2721 C   0  0  0  0  0  0  0  0  0  0  0  0
    6.1217  -14.9570   25.6921 N   0  0  0  0  0  0  0  0  0  0  0  0
    6.4375  -13.6858   26.0122 C   0  0  0  0  0  0  0  0  0  0  0  0
    5.6977  -12.6098   26.4920 C   0  0  0  0  0  0  0  0  0  0  0  0
    6.2884  -11.3947   26.7487 C   0  0  0  0  0  0  0  0  0  0  0  0
    7.6524  -11.2167   26.5305 C   0  0  0  0  0  0  0  0  0  0  0  0
    8.3802  -12.2887   26.0536 C   0  0  0  0  0  0  0  0  0  0  0  0
    7.7823  -13.5096   25.7969 C   0  0  0  0  0  0  0  0  0  0  0  0
    9.7152  -17.2998   25.8763 C   0  0  0  0  0  0  0  0  0  0  0  0
   10.1901  -17.2041   27.0169 O   0  0  0  0  0  0  0  0  0  0  0  0
    8.7975  -18.3370   25.6755 O   0  0  0  0  0  0  0  0  0  0  0  0
  2  1  1  6
  3  2  1  0
  4  6  1  0
  4  2  1  0
  5  4  2  0
  7  8  1  6
  7  6  1  0
  8  9  1  0
  9 10  2  0
 11  7  1  0
 11 14  1  0
 12 11  2  0
 13  9  1  0
 15 14  1  0
 15 26  1  0
 15 16  1  1
 17 16  1  0
 18 17  2  0
 19 20  1  0
 19 18  1  0
 20 25  2  0
 21 22  2  0
 21 20  1  0
 22 23  1  0
 23 24  2  0
 25 17  1  0
 25 24  1  0
 26 28  1  0
 27 26  2  0
M  END
$$$$
