ADW.pdb
     RDKit          3D

 28 29  0  0  1  0  0  0  0  0999 V2000
    7.0480  -13.6061   18.4137 C   0  0  0  0  0  0  0  0  0  0  0  0
    8.3446  -13.5769   19.1618 C   0  0  2  0  0  0  0  0  0  0  0  0
    9.4842  -13.3489   18.2997 N   0  0  0  0  0  0  0  0  0  0  0  0
    8.5995  -14.8003   19.9587 C   0  0  0  0  0  0  0  0  0  0  0  0
    7.6907  -15.1963   20.7756 O   0  0  0  0  0  0  0  0  0  0  0  0
    9.8126  -15.5164   19.8260 N   0  0  0  0  0  0  0  0  0  0  0  0
   10.0208  -16.6486   20.6611 C   0  0  1  0  0  0  0  0  0  0  0  0
   11.0821  -17.5902   20.1344 C   0  0  0  0  0  0  0  0  0  0  0  0
   10.7762  -18.1852   18.8381 C   0  0  0  0  0  0  0  0  0  0  0  0
    9.6307  -18.6407   18.6107 O   0  0  0  0  0  0  0  0  0  0  0  0
   10.4502  -16.1852   22.0099 C   0  0  0  0  0  0  0  0  0  0  0  0
   11.2633  -15.2067   22.0607 O   0  0  0  0  0  0  0  0  0  0  0  0
   11.6999  -18.2911   17.7832 O   0  0  0  0  0  0  0  0  0  0  0  0
    9.9949  -16.7775   23.1950 N   0  0  0  0  0  0  0  0  0  0  0  0
   10.1165  -16.0302   24.4646 C   0  0  1  0  0  0  0  0  0  0  0  0
    9.3130  -14.7616   24.2053 C   0  0  0  0  0  0  0  0  0  0  0  0
    8.0919  -14.6391   24.9972 C   0  0  0  0  0  0  0  0  0  0  0  0
    7.1026  -15.5765   25.2288 C   0  0  0  0  0  0  0  0  0  0  0  0
    6.2093  -14.9771   26.0361 N   0  0  0  0  0  0  0  0  0  0  0  0
    6.5826  -13.7142   26.3261 C   0  0  0  0  0  0  0  0  0  0  0  0
    6.0212  -12.7073   27.1047 C   0  0  0  0  0  0  0  0  0  0  0  0
    6.6332  -11.4831   27.2390 C   0  0  0  0  0  0  0  0  0  0  0  0
    7.8388  -11.2256   26.5909 C   0  0  0  0  0  0  0  0  0  0  0  0
    8.3897  -12.2293   25.8193 C   0  0  0  0  0  0  0  0  0  0  0  0
    7.7712  -13.4597   25.6870 C   0  0  0  0  0  0  0  0  0  0  0  0
    9.5651  -16.8803   25.5081 C   0  0  0  0  0  0  0  0  0  0  0  0
    8.8278  -17.8530   25.2935 O   0  0  0  0  0  0  0  0  0  0  0  0
    9.8642  -16.6175   26.8497 O   0  0  0  0  0  0  0  0  0  0  0  0
  2  1  1  6
  3  2  1  0
  4  6  1  0
  4  2  1  0
  5  4  2  0
  7  8  1  6
  7  6  1  0
  8  9  1  0
  9 10  2  0
 11  7  1  0
 11 14  1  0
 12 11  2  0
 13  9  1  0
 15 14  1  0
 15 26  1  0
 15 16  1  6
 17 16  1  0
 18 17  2  0
 19 20  1  0
 19 18  1  0
 20 25  2  0
 21 22  2  0
 21 20  1  0
 22 23  1  0
 23 24  2  0
 25 17  1  0
 25 24  1  0
 26 28  1  0
 27 26  2  0
M  END
$$$$
