ADW.pdb
     RDKit          3D

 28 29  0  0  1  0  0  0  0  0999 V2000
    8.0256  -12.6501   19.5181 C   0  0  0  0  0  0  0  0  0  0  0  0
    8.3643  -13.8889   18.7485 C   0  0  2  0  0  0  0  0  0  0  0  0
    7.2405  -14.4084   17.9995 N   0  0  0  0  0  0  0  0  0  0  0  0
    8.9100  -14.9810   19.5890 C   0  0  0  0  0  0  0  0  0  0  0  0
    8.0889  -15.8306   20.0933 O   0  0  0  0  0  0  0  0  0  0  0  0
   10.2996  -15.0880   19.8324 N   0  0  0  0  0  0  0  0  0  0  0  0
   10.7487  -16.0820   20.7450 C   0  0  1  0  0  0  0  0  0  0  0  0
   12.1935  -16.4784   20.5307 C   0  0  0  0  0  0  0  0  0  0  0  0
   12.4493  -17.1874   19.2817 C   0  0  0  0  0  0  0  0  0  0  0  0
   11.9154  -18.3019   19.0714 O   0  0  0  0  0  0  0  0  0  0  0  0
   10.6195  -15.5604   22.1341 C   0  0  0  0  0  0  0  0  0  0  0  0
   10.7035  -14.3002   22.2958 O   0  0  0  0  0  0  0  0  0  0  0  0
   13.2782  -16.7000   18.2558 O   0  0  0  0  0  0  0  0  0  0  0  0
   10.4106  -16.3943   23.2403 N   0  0  0  0  0  0  0  0  0  0  0  0
    9.7298  -15.8482   24.4333 C   0  0  1  0  0  0  0  0  0  0  0  0
    8.3510  -15.4668   23.9087 C   0  0  0  0  0  0  0  0  0  0  0  0
    7.4023  -15.0429   24.9351 C   0  0  0  0  0  0  0  0  0  0  0  0
    6.3915  -15.7643   25.5426 C   0  0  0  0  0  0  0  0  0  0  0  0
    5.8235  -14.9273   26.4290 N   0  0  0  0  0  0  0  0  0  0  0  0
    6.4219  -13.7190   26.4135 C   0  0  0  0  0  0  0  0  0  0  0  0
    6.2178  -12.5430   27.1280 C   0  0  0  0  0  0  0  0  0  0  0  0
    6.9995  -11.4320   26.9134 C   0  0  0  0  0  0  0  0  0  0  0  0
    8.0205  -11.4638   25.9665 C   0  0  0  0  0  0  0  0  0  0  0  0
    8.2168  -12.6341   25.2607 C   0  0  0  0  0  0  0  0  0  0  0  0
    7.4284  -13.7497   25.4798 C   0  0  0  0  0  0  0  0  0  0  0  0
    9.7145  -16.9068   25.4307 C   0  0  0  0  0  0  0  0  0  0  0  0
    9.7260  -18.1160   25.1597 O   0  0  0  0  0  0  0  0  0  0  0  0
    9.6872  -16.5801   26.7912 O   0  0  0  0  0  0  0  0  0  0  0  0
  2  1  1  1
  3  2  1  0
  4  6  1  0
  4  2  1  0
  5  4  2  0
  7  8  1  6
  7  6  1  0
  8  9  1  0
  9 10  2  0
 11  7  1  0
 11 14  1  0
 12 11  2  0
 13  9  1  0
 15 14  1  0
 15 26  1  0
 15 16  1  6
 17 16  1  0
 18 17  2  0
 19 20  1  0
 19 18  1  0
 20 25  2  0
 21 22  2  0
 21 20  1  0
 22 23  1  0
 23 24  2  0
 25 17  1  0
 25 24  1  0
 26 28  1  0
 27 26  2  0
M  END
$$$$
