ADW.pdb
     RDKit          3D

 28 29  0  0  1  0  0  0  0  0999 V2000
   12.0659  -19.7236   18.1251 C   0  0  0  0  0  0  0  0  0  0  0  0
   11.8054  -19.1219   19.4711 C   0  0  2  0  0  0  0  0  0  0  0  0
   11.1150  -20.0261   20.3654 N   0  0  0  0  0  0  0  0  0  0  0  0
   11.0473  -17.8494   19.4174 C   0  0  0  0  0  0  0  0  0  0  0  0
   11.5610  -16.8601   18.7789 O   0  0  0  0  0  0  0  0  0  0  0  0
    9.7895  -17.7234   20.0529 N   0  0  0  0  0  0  0  0  0  0  0  0
    9.1032  -16.4822   19.9475 C   0  0  1  0  0  0  0  0  0  0  0  0
    7.6773  -16.6292   19.4622 C   0  0  0  0  0  0  0  0  0  0  0  0
    7.4762  -17.6912   18.4826 C   0  0  0  0  0  0  0  0  0  0  0  0
    7.8816  -17.5449   17.3055 O   0  0  0  0  0  0  0  0  0  0  0  0
    9.0649  -15.8328   21.2874 C   0  0  0  0  0  0  0  0  0  0  0  0
    8.5036  -14.6928   21.3689 O   0  0  0  0  0  0  0  0  0  0  0  0
    6.8400  -18.9129   18.7657 O   0  0  0  0  0  0  0  0  0  0  0  0
    9.6121  -16.4256   22.4327 N   0  0  0  0  0  0  0  0  0  0  0  0
    9.5831  -15.6823   23.7101 C   0  0  1  0  0  0  0  0  0  0  0  0
    8.1006  -15.3981   23.9190 C   0  0  0  0  0  0  0  0  0  0  0  0
    7.7406  -14.9975   25.2766 C   0  0  0  0  0  0  0  0  0  0  0  0
    7.5794  -15.7797   26.4051 C   0  0  0  0  0  0  0  0  0  0  0  0
    7.2687  -14.9301   27.4004 N   0  0  0  0  0  0  0  0  0  0  0  0
    7.2264  -13.6561   26.9606 C   0  0  0  0  0  0  0  0  0  0  0  0
    6.9660  -12.4393   27.5824 C   0  0  0  0  0  0  0  0  0  0  0  0
    6.9990  -11.2570   26.8807 C   0  0  0  0  0  0  0  0  0  0  0  0
    7.2967  -11.2559   25.5201 C   0  0  0  0  0  0  0  0  0  0  0  0
    7.5535  -12.4672   24.9095 C   0  0  0  0  0  0  0  0  0  0  0  0
    7.5196  -13.6544   25.6190 C   0  0  0  0  0  0  0  0  0  0  0  0
   10.1692  -16.5530   24.7172 C   0  0  0  0  0  0  0  0  0  0  0  0
   10.2269  -17.7870   24.6192 O   0  0  0  0  0  0  0  0  0  0  0  0
   10.7140  -16.0008   25.8819 O   0  0  0  0  0  0  0  0  0  0  0  0
  2  1  1  6
  3  2  1  0
  4  6  1  0
  4  2  1  0
  5  4  2  0
  7  8  1  1
  7  6  1  0
  8  9  1  0
  9 10  2  0
 11  7  1  0
 11 14  1  0
 12 11  2  0
 13  9  1  0
 15 14  1  0
 15 26  1  0
 15 16  1  1
 17 16  1  0
 18 17  2  0
 19 20  1  0
 19 18  1  0
 20 25  2  0
 21 22  2  0
 21 20  1  0
 22 23  1  0
 23 24  2  0
 25 17  1  0
 25 24  1  0
 26 28  1  0
 27 26  2  0
M  END
$$$$
