ADW.pdb
     RDKit          3D

 28 29  0  0  1  0  0  0  0  0999 V2000
    8.1268  -12.4830   19.9693 C   0  0  0  0  0  0  0  0  0  0  0  0
    8.1066  -13.8226   19.3009 C   0  0  2  0  0  0  0  0  0  0  0  0
    6.8376  -14.1153   18.6701 N   0  0  0  0  0  0  0  0  0  0  0  0
    8.4472  -14.9450   20.2071 C   0  0  0  0  0  0  0  0  0  0  0  0
    7.5036  -15.4821   20.8937 O   0  0  0  0  0  0  0  0  0  0  0  0
    9.7771  -15.4153   20.3162 N   0  0  0  0  0  0  0  0  0  0  0  0
   10.0287  -16.5340   21.1575 C   0  0  1  0  0  0  0  0  0  0  0  0
   11.2647  -17.3119   20.7605 C   0  0  0  0  0  0  0  0  0  0  0  0
   11.1565  -18.0142   19.4865 C   0  0  0  0  0  0  0  0  0  0  0  0
   12.0476  -17.8765   18.6157 O   0  0  0  0  0  0  0  0  0  0  0  0
   10.2185  -16.0576   22.5558 C   0  0  0  0  0  0  0  0  0  0  0  0
   10.9238  -15.0112   22.7265 O   0  0  0  0  0  0  0  0  0  0  0  0
   10.0914  -18.8667   19.1459 O   0  0  0  0  0  0  0  0  0  0  0  0
    9.6557  -16.7087   23.6612 N   0  0  0  0  0  0  0  0  0  0  0  0
    9.8797  -16.1536   25.0127 C   0  0  1  0  0  0  0  0  0  0  0  0
    8.6249  -16.5629   25.7743 C   0  0  0  0  0  0  0  0  0  0  0  0
    7.4823  -15.6711   25.5938 C   0  0  0  0  0  0  0  0  0  0  0  0
    6.2277  -15.9500   25.0847 C   0  0  0  0  0  0  0  0  0  0  0  0
    5.5388  -14.7967   25.1514 N   0  0  0  0  0  0  0  0  0  0  0  0
    6.2906  -13.8076   25.6754 C   0  0  0  0  0  0  0  0  0  0  0  0
    6.0452  -12.4671   25.9548 C   0  0  0  0  0  0  0  0  0  0  0  0
    7.0130  -11.6649   26.5126 C   0  0  0  0  0  0  0  0  0  0  0  0
    8.2701  -12.1849   26.8111 C   0  0  0  0  0  0  0  0  0  0  0  0
    8.5068  -13.5159   26.5306 C   0  0  0  0  0  0  0  0  0  0  0  0
    7.5304  -14.3197   25.9696 C   0  0  0  0  0  0  0  0  0  0  0  0
   11.1041  -16.7552   25.5174 C   0  0  0  0  0  0  0  0  0  0  0  0
   11.6815  -17.7101   24.9785 O   0  0  0  0  0  0  0  0  0  0  0  0
   11.6989  -16.2513   26.6795 O   0  0  0  0  0  0  0  0  0  0  0  0
  2  1  1  1
  3  2  1  0
  4  6  1  0
  4  2  1  0
  5  4  2  0
  7  8  1  6
  7  6  1  0
  8  9  1  0
  9 10  2  0
 11  7  1  0
 11 14  1  0
 12 11  2  0
 13  9  1  0
 15 14  1  0
 15 26  1  0
 15 16  1  1
 17 16  1  0
 18 17  2  0
 19 20  1  0
 19 18  1  0
 20 25  2  0
 21 22  2  0
 21 20  1  0
 22 23  1  0
 23 24  2  0
 25 17  1  0
 25 24  1  0
 26 28  1  0
 27 26  2  0
M  END
$$$$
