ADW.pdb
     RDKit          3D

 28 29  0  0  1  0  0  0  0  0999 V2000
   10.4983  -21.4574   20.4177 C   0  0  0  0  0  0  0  0  0  0  0  0
   10.2026  -20.6652   21.6532 C   0  0  2  0  0  0  0  0  0  0  0  0
    8.7930  -20.6407   21.9795 N   0  0  0  0  0  0  0  0  0  0  0  0
   10.6926  -19.2675   21.5954 C   0  0  0  0  0  0  0  0  0  0  0  0
   11.9510  -19.0689   21.4301 O   0  0  0  0  0  0  0  0  0  0  0  0
    9.7998  -18.1769   21.7194 N   0  0  0  0  0  0  0  0  0  0  0  0
   10.3200  -16.8612   21.5743 C   0  0  1  0  0  0  0  0  0  0  0  0
    9.3517  -15.9080   20.9077 C   0  0  0  0  0  0  0  0  0  0  0  0
    8.8585  -16.3537   19.6092 C   0  0  0  0  0  0  0  0  0  0  0  0
    8.3381  -17.4879   19.4907 O   0  0  0  0  0  0  0  0  0  0  0  0
   10.6436  -16.3153   22.9218 C   0  0  0  0  0  0  0  0  0  0  0  0
   11.4379  -15.3215   22.9748 O   0  0  0  0  0  0  0  0  0  0  0  0
    8.9223  -15.5814   18.4359 O   0  0  0  0  0  0  0  0  0  0  0  0
   10.1108  -16.8476   24.1030 N   0  0  0  0  0  0  0  0  0  0  0  0
   10.5139  -16.2641   25.3999 C   0  0  1  0  0  0  0  0  0  0  0  0
    9.8821  -14.8776   25.3742 C   0  0  0  0  0  0  0  0  0  0  0  0
    8.4559  -14.8500   25.6880 C   0  0  0  0  0  0  0  0  0  0  0  0
    7.5490  -15.8927   25.7264 C   0  0  0  0  0  0  0  0  0  0  0  0
    6.3743  -15.3455   26.0867 N   0  0  0  0  0  0  0  0  0  0  0  0
    6.4923  -14.0160   26.2782 C   0  0  0  0  0  0  0  0  0  0  0  0
    5.5953  -13.0223   26.6563 C   0  0  0  0  0  0  0  0  0  0  0  0
    5.9939  -11.7126   26.7879 C   0  0  0  0  0  0  0  0  0  0  0  0
    7.3168  -11.3530   26.5420 C   0  0  0  0  0  0  0  0  0  0  0  0
    8.2013  -12.3443   26.1665 C   0  0  0  0  0  0  0  0  0  0  0  0
    7.7965  -13.6608   26.0355 C   0  0  0  0  0  0  0  0  0  0  0  0
    9.9876  -17.1381   26.4367 C   0  0  0  0  0  0  0  0  0  0  0  0
    9.3674  -18.1870   26.2112 O   0  0  0  0  0  0  0  0  0  0  0  0
   10.1746  -16.8098   27.7841 O   0  0  0  0  0  0  0  0  0  0  0  0
  2  1  1  6
  3  2  1  0
  4  6  1  0
  4  2  1  0
  5  4  2  0
  7  8  1  1
  7  6  1  0
  8  9  1  0
  9 10  2  0
 11  7  1  0
 11 14  1  0
 12 11  2  0
 13  9  1  0
 15 14  1  0
 15 26  1  0
 15 16  1  1
 17 16  1  0
 18 17  2  0
 19 20  1  0
 19 18  1  0
 20 25  2  0
 21 22  2  0
 21 20  1  0
 22 23  1  0
 23 24  2  0
 25 17  1  0
 25 24  1  0
 26 28  1  0
 27 26  2  0
M  END
$$$$
