ADW.pdb
     RDKit          3D

 28 29  0  0  1  0  0  0  0  0999 V2000
    6.5070  -14.4986   19.3088 C   0  0  0  0  0  0  0  0  0  0  0  0
    7.6939  -14.1721   20.1611 C   0  0  2  0  0  0  0  0  0  0  0  0
    8.7981  -13.6286   19.4000 N   0  0  0  0  0  0  0  0  0  0  0  0
    8.1932  -15.3220   20.9518 C   0  0  0  0  0  0  0  0  0  0  0  0
    7.3617  -15.9553   21.6987 O   0  0  0  0  0  0  0  0  0  0  0  0
    9.5509  -15.7149   20.8884 N   0  0  0  0  0  0  0  0  0  0  0  0
    9.9599  -16.8478   21.6448 C   0  0  1  0  0  0  0  0  0  0  0  0
   11.0987  -17.6118   21.0047 C   0  0  0  0  0  0  0  0  0  0  0  0
   11.5570  -18.7687   21.7661 C   0  0  0  0  0  0  0  0  0  0  0  0
   10.8532  -19.2269   22.6967 O   0  0  0  0  0  0  0  0  0  0  0  0
   10.4121  -16.3964   22.9902 C   0  0  0  0  0  0  0  0  0  0  0  0
   11.3889  -15.5808   23.0357 O   0  0  0  0  0  0  0  0  0  0  0  0
   12.7715  -19.4362   21.5285 O   0  0  0  0  0  0  0  0  0  0  0  0
    9.8077  -16.8294   24.1775 N   0  0  0  0  0  0  0  0  0  0  0  0
   10.3489  -16.3620   25.4712 C   0  0  1  0  0  0  0  0  0  0  0  0
    9.9024  -14.9065   25.5348 C   0  0  0  0  0  0  0  0  0  0  0  0
    8.4635  -14.7151   25.6961 C   0  0  0  0  0  0  0  0  0  0  0  0
    7.4346  -15.6183   25.5044 C   0  0  0  0  0  0  0  0  0  0  0  0
    6.3029  -14.9562   25.8045 N   0  0  0  0  0  0  0  0  0  0  0  0
    6.5631  -13.6862   26.1755 C   0  0  0  0  0  0  0  0  0  0  0  0
    5.7590  -12.6256   26.5798 C   0  0  0  0  0  0  0  0  0  0  0  0
    6.3002  -11.4077   26.9191 C   0  0  0  0  0  0  0  0  0  0  0  0
    7.6779  -11.2113   26.8633 C   0  0  0  0  0  0  0  0  0  0  0  0
    8.4698  -12.2681   26.4606 C   0  0  0  0  0  0  0  0  0  0  0  0
    7.9215  -13.4919   26.1204 C   0  0  0  0  0  0  0  0  0  0  0  0
    9.7668  -17.2080   26.5014 C   0  0  0  0  0  0  0  0  0  0  0  0
    9.9588  -17.0544   27.7160 O   0  0  0  0  0  0  0  0  0  0  0  0
    8.9311  -18.2703   26.1388 O   0  0  0  0  0  0  0  0  0  0  0  0
  2  1  1  6
  3  2  1  0
  4  6  1  0
  4  2  1  0
  5  4  2  0
  7  8  1  6
  7  6  1  0
  8  9  1  0
  9 10  2  0
 11  7  1  0
 11 14  1  0
 12 11  2  0
 13  9  1  0
 15 14  1  0
 15 26  1  0
 15 16  1  1
 17 16  1  0
 18 17  2  0
 19 20  1  0
 19 18  1  0
 20 25  2  0
 21 22  2  0
 21 20  1  0
 22 23  1  0
 23 24  2  0
 25 17  1  0
 25 24  1  0
 26 28  1  0
 27 26  2  0
M  END
$$$$
