ADW.pdb
     RDKit          3D

 28 29  0  0  1  0  0  0  0  0999 V2000
    6.8916  -13.3298   19.2392 C   0  0  0  0  0  0  0  0  0  0  0  0
    8.3173  -13.5383   19.6460 C   0  0  2  0  0  0  0  0  0  0  0  0
    9.1943  -13.7678   18.5180 N   0  0  0  0  0  0  0  0  0  0  0  0
    8.5041  -14.6442   20.6149 C   0  0  0  0  0  0  0  0  0  0  0  0
    7.7533  -14.6752   21.6569 O   0  0  0  0  0  0  0  0  0  0  0  0
    9.4840  -15.6422   20.4013 N   0  0  0  0  0  0  0  0  0  0  0  0
    9.5047  -16.7636   21.2758 C   0  0  1  0  0  0  0  0  0  0  0  0
   10.3492  -17.9076   20.7576 C   0  0  0  0  0  0  0  0  0  0  0  0
    9.9806  -18.3800   19.4276 C   0  0  0  0  0  0  0  0  0  0  0  0
   10.7077  -18.1123   18.4422 O   0  0  0  0  0  0  0  0  0  0  0  0
   10.0625  -16.3436   22.5914 C   0  0  0  0  0  0  0  0  0  0  0  0
   11.1004  -15.6060   22.5781 O   0  0  0  0  0  0  0  0  0  0  0  0
    8.8308  -19.1417   19.1538 O   0  0  0  0  0  0  0  0  0  0  0  0
    9.4916  -16.7242   23.8128 N   0  0  0  0  0  0  0  0  0  0  0  0
   10.2012  -16.4023   25.0689 C   0  0  1  0  0  0  0  0  0  0  0  0
    9.7962  -14.9590   25.3427 C   0  0  0  0  0  0  0  0  0  0  0  0
    8.3758  -14.7655   25.6228 C   0  0  0  0  0  0  0  0  0  0  0  0
    7.3208  -15.6387   25.4343 C   0  0  0  0  0  0  0  0  0  0  0  0
    6.2248  -14.9909   25.8681 N   0  0  0  0  0  0  0  0  0  0  0  0
    6.5323  -13.7582   26.3202 C   0  0  0  0  0  0  0  0  0  0  0  0
    5.7771  -12.7252   26.8658 C   0  0  0  0  0  0  0  0  0  0  0  0
    6.3616  -11.5451   27.2617 C   0  0  0  0  0  0  0  0  0  0  0  0
    7.7350  -11.3600   27.1221 C   0  0  0  0  0  0  0  0  0  0  0  0
    8.4781  -12.3892   26.5792 C   0  0  0  0  0  0  0  0  0  0  0  0
    7.8863  -13.5751   26.1824 C   0  0  0  0  0  0  0  0  0  0  0  0
    9.7368  -17.3502   26.0697 C   0  0  0  0  0  0  0  0  0  0  0  0
    8.8366  -18.1794   25.8753 O   0  0  0  0  0  0  0  0  0  0  0  0
   10.3191  -17.3592   27.3422 O   0  0  0  0  0  0  0  0  0  0  0  0
  2  1  1  6
  3  2  1  0
  4  6  1  0
  4  2  1  0
  5  4  2  0
  7  8  1  6
  7  6  1  0
  8  9  1  0
  9 10  2  0
 11  7  1  0
 11 14  1  0
 12 11  2  0
 13  9  1  0
 15 14  1  0
 15 26  1  0
 15 16  1  1
 17 16  1  0
 18 17  2  0
 19 20  1  0
 19 18  1  0
 20 25  2  0
 21 22  2  0
 21 20  1  0
 22 23  1  0
 23 24  2  0
 25 17  1  0
 25 24  1  0
 26 28  1  0
 27 26  2  0
M  END
$$$$
