ADW.pdb
     RDKit          3D

 28 29  0  0  1  0  0  0  0  0999 V2000
    8.2977  -12.5730   19.9092 C   0  0  0  0  0  0  0  0  0  0  0  0
    7.9752  -13.9252   19.3530 C   0  0  2  0  0  0  0  0  0  0  0  0
    6.6077  -14.0300   18.8917 N   0  0  0  0  0  0  0  0  0  0  0  0
    8.2348  -15.0355   20.2999 C   0  0  0  0  0  0  0  0  0  0  0  0
    7.2718  -15.4339   21.0511 O   0  0  0  0  0  0  0  0  0  0  0  0
    9.5100  -15.6433   20.3779 N   0  0  0  0  0  0  0  0  0  0  0  0
    9.6888  -16.7181   21.2919 C   0  0  1  0  0  0  0  0  0  0  0  0
   10.7803  -17.6798   20.8745 C   0  0  0  0  0  0  0  0  0  0  0  0
   10.5726  -18.3058   19.5733 C   0  0  0  0  0  0  0  0  0  0  0  0
   11.2034  -17.8951   18.5709 O   0  0  0  0  0  0  0  0  0  0  0  0
   10.0526  -16.1658   22.6264 C   0  0  0  0  0  0  0  0  0  0  0  0
   10.8059  -15.1394   22.6490 O   0  0  0  0  0  0  0  0  0  0  0  0
    9.6876  -19.3747   19.3467 O   0  0  0  0  0  0  0  0  0  0  0  0
    9.5996  -16.7264   23.8277 N   0  0  0  0  0  0  0  0  0  0  0  0
   10.1983  -16.2757   25.1018 C   0  0  1  0  0  0  0  0  0  0  0  0
    9.6660  -14.8566   25.2589 C   0  0  0  0  0  0  0  0  0  0  0  0
    8.2600  -14.7705   25.6447 C   0  0  0  0  0  0  0  0  0  0  0  0
    7.2885  -15.7539   25.6328 C   0  0  0  0  0  0  0  0  0  0  0  0
    6.1696  -15.1716   26.0999 N   0  0  0  0  0  0  0  0  0  0  0  0
    6.3838  -13.8760   26.4061 C   0  0  0  0  0  0  0  0  0  0  0  0
    5.5722  -12.8688   26.9179 C   0  0  0  0  0  0  0  0  0  0  0  0
    6.0621  -11.6047   27.1487 C   0  0  0  0  0  0  0  0  0  0  0  0
    7.3939  -11.3060   26.8711 C   0  0  0  0  0  0  0  0  0  0  0  0
    8.1933  -12.3103   26.3626 C   0  0  0  0  0  0  0  0  0  0  0  0
    7.6967  -13.5809   26.1322 C   0  0  0  0  0  0  0  0  0  0  0  0
    9.7438  -17.1984   26.1303 C   0  0  0  0  0  0  0  0  0  0  0  0
    8.9540  -18.1312   25.9259 O   0  0  0  0  0  0  0  0  0  0  0  0
   10.2061  -17.0585   27.4437 O   0  0  0  0  0  0  0  0  0  0  0  0
  2  1  1  1
  3  2  1  0
  4  6  1  0
  4  2  1  0
  5  4  2  0
  7  8  1  6
  7  6  1  0
  8  9  1  0
  9 10  2  0
 11  7  1  0
 11 14  1  0
 12 11  2  0
 13  9  1  0
 15 14  1  0
 15 26  1  0
 15 16  1  1
 17 16  1  0
 18 17  2  0
 19 20  1  0
 19 18  1  0
 20 25  2  0
 21 22  2  0
 21 20  1  0
 22 23  1  0
 23 24  2  0
 25 17  1  0
 25 24  1  0
 26 28  1  0
 27 26  2  0
M  END
$$$$
