ADW.pdb
     RDKit          3D

 28 29  0  0  1  0  0  0  0  0999 V2000
    8.5323  -12.4874   19.9389 C   0  0  0  0  0  0  0  0  0  0  0  0
    8.1391  -13.8385   19.4276 C   0  0  2  0  0  0  0  0  0  0  0  0
    6.7381  -13.9183   19.0744 N   0  0  0  0  0  0  0  0  0  0  0  0
    8.4473  -14.9430   20.3667 C   0  0  0  0  0  0  0  0  0  0  0  0
    7.5357  -15.3133   21.1927 O   0  0  0  0  0  0  0  0  0  0  0  0
    9.7129  -15.5756   20.3571 N   0  0  0  0  0  0  0  0  0  0  0  0
    9.9170  -16.6861   21.2218 C   0  0  1  0  0  0  0  0  0  0  0  0
   10.9770  -17.6436   20.7216 C   0  0  0  0  0  0  0  0  0  0  0  0
   10.6762  -18.2642   19.4361 C   0  0  0  0  0  0  0  0  0  0  0  0
    9.7848  -19.1419   19.3558 O   0  0  0  0  0  0  0  0  0  0  0  0
   10.3452  -16.1888   22.5588 C   0  0  0  0  0  0  0  0  0  0  0  0
   11.3084  -15.3567   22.5923 O   0  0  0  0  0  0  0  0  0  0  0  0
   11.3316  -17.9425   18.2344 O   0  0  0  0  0  0  0  0  0  0  0  0
    9.7329  -16.5970   23.7508 N   0  0  0  0  0  0  0  0  0  0  0  0
   10.2891  -16.1337   25.0396 C   0  0  1  0  0  0  0  0  0  0  0  0
    9.7132  -14.7307   25.1881 C   0  0  0  0  0  0  0  0  0  0  0  0
    8.2872  -14.6853   25.5007 C   0  0  0  0  0  0  0  0  0  0  0  0
    7.3416  -15.6902   25.4170 C   0  0  0  0  0  0  0  0  0  0  0  0
    6.1861  -15.1440   25.8362 N   0  0  0  0  0  0  0  0  0  0  0  0
    6.3528  -13.8509   26.1800 C   0  0  0  0  0  0  0  0  0  0  0  0
    5.4916  -12.8740   26.6689 C   0  0  0  0  0  0  0  0  0  0  0  0
    5.9382  -11.6044   26.9514 C   0  0  0  0  0  0  0  0  0  0  0  0
    7.2752  -11.2693   26.7508 C   0  0  0  0  0  0  0  0  0  0  0  0
    8.1240  -12.2436   26.2647 C   0  0  0  0  0  0  0  0  0  0  0  0
    7.6708  -13.5198   25.9821 C   0  0  0  0  0  0  0  0  0  0  0  0
    9.8373  -17.0722   26.0549 C   0  0  0  0  0  0  0  0  0  0  0  0
    9.0576  -18.0100   25.8353 O   0  0  0  0  0  0  0  0  0  0  0  0
   10.2905  -16.9428   27.3725 O   0  0  0  0  0  0  0  0  0  0  0  0
  2  1  1  1
  3  2  1  0
  4  6  1  0
  4  2  1  0
  5  4  2  0
  7  8  1  6
  7  6  1  0
  8  9  1  0
  9 10  2  0
 11  7  1  0
 11 14  1  0
 12 11  2  0
 13  9  1  0
 15 14  1  0
 15 26  1  0
 15 16  1  1
 17 16  1  0
 18 17  2  0
 19 20  1  0
 19 18  1  0
 20 25  2  0
 21 22  2  0
 21 20  1  0
 22 23  1  0
 23 24  2  0
 25 17  1  0
 25 24  1  0
 26 28  1  0
 27 26  2  0
M  END
$$$$
