ADW.pdb
     RDKit          3D

 28 29  0  0  1  0  0  0  0  0999 V2000
    8.4860  -12.3438   19.7675 C   0  0  0  0  0  0  0  0  0  0  0  0
    8.4723  -13.4958   18.8113 C   0  0  2  0  0  0  0  0  0  0  0  0
    7.3403  -13.4633   17.9105 N   0  0  0  0  0  0  0  0  0  0  0  0
    8.5025  -14.8206   19.4753 C   0  0  0  0  0  0  0  0  0  0  0  0
    7.4048  -15.4815   19.5677 O   0  0  0  0  0  0  0  0  0  0  0  0
    9.7082  -15.3471   19.9959 N   0  0  0  0  0  0  0  0  0  0  0  0
    9.6526  -16.5735   20.7141 C   0  0  1  0  0  0  0  0  0  0  0  0
   10.4852  -17.6700   20.0858 C   0  0  0  0  0  0  0  0  0  0  0  0
   11.8816  -17.3158   19.8564 C   0  0  0  0  0  0  0  0  0  0  0  0
   12.1710  -16.2313   19.2982 O   0  0  0  0  0  0  0  0  0  0  0  0
   10.1596  -16.3504   22.0966 C   0  0  0  0  0  0  0  0  0  0  0  0
   10.9694  -15.3838   22.2738 O   0  0  0  0  0  0  0  0  0  0  0  0
   12.9699  -18.1254   20.2272 O   0  0  0  0  0  0  0  0  0  0  0  0
    9.7792  -17.1508   23.1816 N   0  0  0  0  0  0  0  0  0  0  0  0
    9.8016  -16.5743   24.5425 C   0  0  1  0  0  0  0  0  0  0  0  0
    8.8022  -15.4273   24.4559 C   0  0  0  0  0  0  0  0  0  0  0  0
    8.4261  -14.8460   25.7420 C   0  0  0  0  0  0  0  0  0  0  0  0
    8.7413  -15.2712   27.0191 C   0  0  0  0  0  0  0  0  0  0  0  0
    8.1721  -14.3831   27.8536 N   0  0  0  0  0  0  0  0  0  0  0  0
    7.5169  -13.4217   27.1719 C   0  0  0  0  0  0  0  0  0  0  0  0
    6.7916  -12.3004   27.5613 C   0  0  0  0  0  0  0  0  0  0  0  0
    6.2207  -11.4613   26.6333 C   0  0  0  0  0  0  0  0  0  0  0  0
    6.3592  -11.7214   25.2720 C   0  0  0  0  0  0  0  0  0  0  0  0
    7.0798  -12.8364   24.8929 C   0  0  0  0  0  0  0  0  0  0  0  0
    7.6529  -13.6779   25.8296 C   0  0  0  0  0  0  0  0  0  0  0  0
    9.4101  -17.6363   25.4562 C   0  0  0  0  0  0  0  0  0  0  0  0
    8.5019  -18.4480   25.2284 O   0  0  0  0  0  0  0  0  0  0  0  0
   10.0778  -17.7846   26.6770 O   0  0  0  0  0  0  0  0  0  0  0  0
  2  1  1  1
  3  2  1  0
  4  6  1  0
  4  2  1  0
  5  4  2  0
  7  8  1  6
  7  6  1  0
  8  9  1  0
  9 10  2  0
 11  7  1  0
 11 14  1  0
 12 11  2  0
 13  9  1  0
 15 14  1  0
 15 26  1  0
 15 16  1  6
 17 16  1  0
 18 17  2  0
 19 20  1  0
 19 18  1  0
 20 25  2  0
 21 22  2  0
 21 20  1  0
 22 23  1  0
 23 24  2  0
 25 17  1  0
 25 24  1  0
 26 28  1  0
 27 26  2  0
M  END
$$$$
