ADW.pdb
     RDKit          3D

 28 29  0  0  1  0  0  0  0  0999 V2000
    7.1730  -19.5739   20.4540 C   0  0  0  0  0  0  0  0  0  0  0  0
    7.5172  -18.7092   21.6267 C   0  0  2  0  0  0  0  0  0  0  0  0
    7.1016  -17.3344   21.4507 N   0  0  0  0  0  0  0  0  0  0  0  0
    8.9586  -18.7206   21.9718 C   0  0  0  0  0  0  0  0  0  0  0  0
    9.5091  -19.8465   22.2540 O   0  0  0  0  0  0  0  0  0  0  0  0
    9.7124  -17.5234   21.9914 N   0  0  0  0  0  0  0  0  0  0  0  0
   11.0891  -17.6002   22.3401 C   0  0  1  0  0  0  0  0  0  0  0  0
   11.9652  -16.6846   21.5128 C   0  0  0  0  0  0  0  0  0  0  0  0
   12.2030  -17.1422   20.1482 C   0  0  0  0  0  0  0  0  0  0  0  0
   12.3566  -18.3639   19.9133 O   0  0  0  0  0  0  0  0  0  0  0  0
   11.2502  -17.2169   23.7703 C   0  0  0  0  0  0  0  0  0  0  0  0
   12.4357  -17.1654   24.2320 O   0  0  0  0  0  0  0  0  0  0  0  0
   12.2752  -16.2885   19.0333 O   0  0  0  0  0  0  0  0  0  0  0  0
   10.1632  -16.9160   24.6013 N   0  0  0  0  0  0  0  0  0  0  0  0
   10.4092  -16.6283   26.0301 C   0  0  1  0  0  0  0  0  0  0  0  0
    9.8651  -15.2156   26.2041 C   0  0  0  0  0  0  0  0  0  0  0  0
    8.4235  -15.0874   26.0074 C   0  0  0  0  0  0  0  0  0  0  0  0
    7.4812  -16.0730   25.7803 C   0  0  0  0  0  0  0  0  0  0  0  0
    6.2990  -15.4380   25.6896 N   0  0  0  0  0  0  0  0  0  0  0  0
    6.4453  -14.1070   25.8481 C   0  0  0  0  0  0  0  0  0  0  0  0
    5.5513  -13.0413   25.8489 C   0  0  0  0  0  0  0  0  0  0  0  0
    5.9796  -11.7498   26.0485 C   0  0  0  0  0  0  0  0  0  0  0  0
    7.3306  -11.4818   26.2555 C   0  0  0  0  0  0  0  0  0  0  0  0
    8.2122  -12.5443   26.2528 C   0  0  0  0  0  0  0  0  0  0  0  0
    7.7774  -13.8422   26.0519 C   0  0  0  0  0  0  0  0  0  0  0  0
    9.6931  -17.6392   26.7925 C   0  0  0  0  0  0  0  0  0  0  0  0
    9.6820  -17.6964   28.0303 O   0  0  0  0  0  0  0  0  0  0  0  0
    8.9580  -18.6240   26.1231 O   0  0  0  0  0  0  0  0  0  0  0  0
  2  1  1  6
  3  2  1  0
  4  6  1  0
  4  2  1  0
  5  4  2  0
  7  8  1  6
  7  6  1  0
  8  9  1  0
  9 10  2  0
 11  7  1  0
 11 14  1  0
 12 11  2  0
 13  9  1  0
 15 14  1  0
 15 26  1  0
 15 16  1  1
 17 16  1  0
 18 17  2  0
 19 20  1  0
 19 18  1  0
 20 25  2  0
 21 22  2  0
 21 20  1  0
 22 23  1  0
 23 24  2  0
 25 17  1  0
 25 24  1  0
 26 28  1  0
 27 26  2  0
M  END
$$$$
