ADW.pdb
     RDKit          3D

 28 29  0  0  1  0  0  0  0  0999 V2000
    6.6465  -14.1021   19.3112 C   0  0  0  0  0  0  0  0  0  0  0  0
    7.8200  -13.8922   20.2170 C   0  0  2  0  0  0  0  0  0  0  0  0
    9.0261  -13.5397   19.4994 N   0  0  0  0  0  0  0  0  0  0  0  0
    8.1169  -15.0559   21.0856 C   0  0  0  0  0  0  0  0  0  0  0  0
    7.1730  -15.5254   21.8198 O   0  0  0  0  0  0  0  0  0  0  0  0
    9.4065  -15.6375   21.1086 N   0  0  0  0  0  0  0  0  0  0  0  0
    9.6138  -16.7835   21.9248 C   0  0  1  0  0  0  0  0  0  0  0  0
   10.7898  -17.6263   21.4808 C   0  0  0  0  0  0  0  0  0  0  0  0
   10.8204  -18.9710   22.0456 C   0  0  0  0  0  0  0  0  0  0  0  0
   10.3273  -19.1881   23.1775 O   0  0  0  0  0  0  0  0  0  0  0  0
    9.8700  -16.3435   23.3245 C   0  0  0  0  0  0  0  0  0  0  0  0
   10.7016  -15.3946   23.4963 O   0  0  0  0  0  0  0  0  0  0  0  0
   11.3796  -20.0852   21.3952 O   0  0  0  0  0  0  0  0  0  0  0  0
    9.2367  -16.9260   24.4299 N   0  0  0  0  0  0  0  0  0  0  0  0
    9.6428  -16.5142   25.7902 C   0  0  1  0  0  0  0  0  0  0  0  0
    8.3256  -16.4770   26.5554 C   0  0  0  0  0  0  0  0  0  0  0  0
    7.3959  -15.4374   26.1214 C   0  0  0  0  0  0  0  0  0  0  0  0
    6.2654  -15.5491   25.3337 C   0  0  0  0  0  0  0  0  0  0  0  0
    5.7532  -14.3085   25.2470 N   0  0  0  0  0  0  0  0  0  0  0  0
    6.4986  -13.4223   25.9378 C   0  0  0  0  0  0  0  0  0  0  0  0
    6.3912  -12.0536   26.1620 C   0  0  0  0  0  0  0  0  0  0  0  0
    7.3097  -11.3821   26.9344 C   0  0  0  0  0  0  0  0  0  0  0  0
    8.3760  -12.0668   27.5124 C   0  0  0  0  0  0  0  0  0  0  0  0
    8.4767  -13.4249   27.2850 C   0  0  0  0  0  0  0  0  0  0  0  0
    7.5504  -14.0969   26.5076 C   0  0  0  0  0  0  0  0  0  0  0  0
   10.5815  -17.5161   26.2708 C   0  0  0  0  0  0  0  0  0  0  0  0
   10.8759  -18.5465   25.6484 O   0  0  0  0  0  0  0  0  0  0  0  0
   11.2134  -17.3408   27.5070 O   0  0  0  0  0  0  0  0  0  0  0  0
  2  1  1  6
  3  2  1  0
  4  6  1  0
  4  2  1  0
  5  4  2  0
  7  8  1  6
  7  6  1  0
  8  9  1  0
  9 10  2  0
 11  7  1  0
 11 14  1  0
 12 11  2  0
 13  9  1  0
 15 14  1  0
 15 26  1  0
 15 16  1  1
 17 16  1  0
 18 17  2  0
 19 20  1  0
 19 18  1  0
 20 25  2  0
 21 22  2  0
 21 20  1  0
 22 23  1  0
 23 24  2  0
 25 17  1  0
 25 24  1  0
 26 28  1  0
 27 26  2  0
M  END
$$$$
