ADW.pdb
     RDKit          3D

 28 29  0  0  1  0  0  0  0  0999 V2000
    6.7530  -16.5323   19.6341 C   0  0  0  0  0  0  0  0  0  0  0  0
    7.6675  -15.7198   20.4973 C   0  0  2  0  0  0  0  0  0  0  0  0
    8.6201  -14.9453   19.7314 N   0  0  0  0  0  0  0  0  0  0  0  0
    8.4136  -16.5229   21.4949 C   0  0  0  0  0  0  0  0  0  0  0  0
    7.7454  -17.2645   22.3036 O   0  0  0  0  0  0  0  0  0  0  0  0
    9.8263  -16.4761   21.5584 N   0  0  0  0  0  0  0  0  0  0  0  0
   10.4854  -17.3047   22.5079 C   0  0  1  0  0  0  0  0  0  0  0  0
   11.9520  -17.5144   22.1991 C   0  0  0  0  0  0  0  0  0  0  0  0
   12.2143  -18.2130   20.9456 C   0  0  0  0  0  0  0  0  0  0  0  0
   11.5966  -19.2695   20.6742 O   0  0  0  0  0  0  0  0  0  0  0  0
   10.3878  -16.6743   23.8538 C   0  0  0  0  0  0  0  0  0  0  0  0
   10.9371  -15.5359   24.0077 O   0  0  0  0  0  0  0  0  0  0  0  0
   13.1398  -17.7774   19.9807 O   0  0  0  0  0  0  0  0  0  0  0  0
    9.7234  -17.2803   24.9280 N   0  0  0  0  0  0  0  0  0  0  0  0
    9.7327  -16.6133   26.2471 C   0  0  1  0  0  0  0  0  0  0  0  0
    8.2592  -16.5756   26.6336 C   0  0  0  0  0  0  0  0  0  0  0  0
    7.4456  -15.6490   25.8509 C   0  0  0  0  0  0  0  0  0  0  0  0
    6.5964  -15.9112   24.7920 C   0  0  0  0  0  0  0  0  0  0  0  0
    6.0725  -14.7241   24.4377 N   0  0  0  0  0  0  0  0  0  0  0  0
    6.5445  -13.7293   25.2162 C   0  0  0  0  0  0  0  0  0  0  0  0
    6.3121  -12.3585   25.2596 C   0  0  0  0  0  0  0  0  0  0  0  0
    6.9364  -11.5572   26.1867 C   0  0  0  0  0  0  0  0  0  0  0  0
    7.8224  -12.1090   27.1089 C   0  0  0  0  0  0  0  0  0  0  0  0
    8.0487  -13.4700   27.0595 C   0  0  0  0  0  0  0  0  0  0  0  0
    7.4184  -14.2728   26.1255 C   0  0  0  0  0  0  0  0  0  0  0  0
   10.5571  -17.4287   27.1254 C   0  0  0  0  0  0  0  0  0  0  0  0
   10.7550  -17.1771   28.3226 O   0  0  0  0  0  0  0  0  0  0  0  0
   11.1804  -18.5775   26.6255 O   0  0  0  0  0  0  0  0  0  0  0  0
  2  1  1  6
  3  2  1  0
  4  6  1  0
  4  2  1  0
  5  4  2  0
  7  8  1  6
  7  6  1  0
  8  9  1  0
  9 10  2  0
 11  7  1  0
 11 14  1  0
 12 11  2  0
 13  9  1  0
 15 14  1  0
 15 26  1  0
 15 16  1  1
 17 16  1  0
 18 17  2  0
 19 20  1  0
 19 18  1  0
 20 25  2  0
 21 22  2  0
 21 20  1  0
 22 23  1  0
 23 24  2  0
 25 17  1  0
 25 24  1  0
 26 28  1  0
 27 26  2  0
M  END
$$$$
