ADW.pdb
     RDKit          3D

 28 29  0  0  1  0  0  0  0  0999 V2000
    9.0380  -18.1172   19.3307 C   0  0  0  0  0  0  0  0  0  0  0  0
    9.0538  -17.5111   20.6996 C   0  0  2  0  0  0  0  0  0  0  0  0
    8.7203  -16.1030   20.6930 N   0  0  0  0  0  0  0  0  0  0  0  0
   10.3426  -17.6822   21.4113 C   0  0  0  0  0  0  0  0  0  0  0  0
   10.7951  -18.8733   21.5753 O   0  0  0  0  0  0  0  0  0  0  0  0
   11.0590  -16.5642   21.8998 N   0  0  0  0  0  0  0  0  0  0  0  0
   12.2933  -16.7949   22.5677 C   0  0  1  0  0  0  0  0  0  0  0  0
   13.4063  -15.8858   22.0933 C   0  0  0  0  0  0  0  0  0  0  0  0
   14.7079  -16.1556   22.6943 C   0  0  0  0  0  0  0  0  0  0  0  0
   15.0880  -17.3379   22.8648 O   0  0  0  0  0  0  0  0  0  0  0  0
   12.1064  -16.5646   24.0273 C   0  0  0  0  0  0  0  0  0  0  0  0
   13.1272  -16.7006   24.7762 O   0  0  0  0  0  0  0  0  0  0  0  0
   15.6041  -15.1559   23.1122 O   0  0  0  0  0  0  0  0  0  0  0  0
   10.8722  -16.2089   24.5864 N   0  0  0  0  0  0  0  0  0  0  0  0
   10.7637  -16.0609   26.0532 C   0  0  1  0  0  0  0  0  0  0  0  0
   10.0889  -14.7051   26.2218 C   0  0  0  0  0  0  0  0  0  0  0  0
    8.6439  -14.7110   26.0092 C   0  0  0  0  0  0  0  0  0  0  0  0
    7.7949  -15.7826   25.8041 C   0  0  0  0  0  0  0  0  0  0  0  0
    6.5623  -15.2579   25.6843 N   0  0  0  0  0  0  0  0  0  0  0  0
    6.5887  -13.9150   25.8038 C   0  0  0  0  0  0  0  0  0  0  0  0
    5.6040  -12.9333   25.7649 C   0  0  0  0  0  0  0  0  0  0  0  0
    5.9142  -11.6035   25.9291 C   0  0  0  0  0  0  0  0  0  0  0  0
    7.2338  -11.2109   26.1392 C   0  0  0  0  0  0  0  0  0  0  0  0
    8.2059  -12.1906   26.1760 C   0  0  0  0  0  0  0  0  0  0  0  0
    7.8898  -13.5273   26.0107 C   0  0  0  0  0  0  0  0  0  0  0  0
    9.9716  -17.1830   26.5321 C   0  0  0  0  0  0  0  0  0  0  0  0
    9.4103  -18.0026   25.7913 O   0  0  0  0  0  0  0  0  0  0  0  0
    9.8117  -17.3844   27.9077 O   0  0  0  0  0  0  0  0  0  0  0  0
  2  1  1  6
  3  2  1  0
  4  6  1  0
  4  2  1  0
  5  4  2  0
  7  8  1  6
  7  6  1  0
  8  9  1  0
  9 10  2  0
 11  7  1  0
 11 14  1  0
 12 11  2  0
 13  9  1  0
 15 14  1  0
 15 26  1  0
 15 16  1  6
 17 16  1  0
 18 17  2  0
 19 20  1  0
 19 18  1  0
 20 25  2  0
 21 22  2  0
 21 20  1  0
 22 23  1  0
 23 24  2  0
 25 17  1  0
 25 24  1  0
 26 28  1  0
 27 26  2  0
M  END
$$$$
