ADW.pdb
     RDKit          3D

 28 29  0  0  1  0  0  0  0  0999 V2000
    7.0358  -13.9231   18.0511 C   0  0  0  0  0  0  0  0  0  0  0  0
    8.2583  -13.6532   18.8723 C   0  0  2  0  0  0  0  0  0  0  0  0
    9.3680  -13.1652   18.0820 N   0  0  0  0  0  0  0  0  0  0  0  0
    8.7211  -14.8248   19.6533 C   0  0  0  0  0  0  0  0  0  0  0  0
    7.8685  -15.4420   20.3898 O   0  0  0  0  0  0  0  0  0  0  0  0
   10.0676  -15.2552   19.5922 N   0  0  0  0  0  0  0  0  0  0  0  0
   10.4746  -16.3164   20.4471 C   0  0  1  0  0  0  0  0  0  0  0  0
   11.8481  -16.8571   20.1129 C   0  0  0  0  0  0  0  0  0  0  0  0
   11.9316  -17.5528   18.8334 C   0  0  0  0  0  0  0  0  0  0  0  0
   10.9598  -18.2292   18.4218 O   0  0  0  0  0  0  0  0  0  0  0  0
   10.5074  -15.8233   21.8521 C   0  0  0  0  0  0  0  0  0  0  0  0
   10.9990  -14.6662   22.0545 O   0  0  0  0  0  0  0  0  0  0  0  0
   13.0586  -17.5223   17.9932 O   0  0  0  0  0  0  0  0  0  0  0  0
   10.0228  -16.5748   22.9304 N   0  0  0  0  0  0  0  0  0  0  0  0
    9.5546  -15.8718   24.1435 C   0  0  1  0  0  0  0  0  0  0  0  0
    8.1956  -15.3208   23.7293 C   0  0  0  0  0  0  0  0  0  0  0  0
    7.3701  -14.8372   24.8329 C   0  0  0  0  0  0  0  0  0  0  0  0
    6.3885  -15.5000   25.5459 C   0  0  0  0  0  0  0  0  0  0  0  0
    5.9478  -14.6243   26.4667 N   0  0  0  0  0  0  0  0  0  0  0  0
    6.5987  -13.4471   26.3731 C   0  0  0  0  0  0  0  0  0  0  0  0
    6.5196  -12.2530   27.0823 C   0  0  0  0  0  0  0  0  0  0  0  0
    7.3292  -11.1847   26.7748 C   0  0  0  0  0  0  0  0  0  0  0  0
    8.2528  -11.2791   25.7366 C   0  0  0  0  0  0  0  0  0  0  0  0
    8.3253  -12.4670   25.0366 C   0  0  0  0  0  0  0  0  0  0  0  0
    7.5093  -13.5396   25.3492 C   0  0  0  0  0  0  0  0  0  0  0  0
    9.4956  -16.8618   25.2076 C   0  0  0  0  0  0  0  0  0  0  0  0
    9.3690  -16.5832   26.4084 O   0  0  0  0  0  0  0  0  0  0  0  0
    9.5816  -18.2234   24.8962 O   0  0  0  0  0  0  0  0  0  0  0  0
  2  1  1  6
  3  2  1  0
  4  6  1  0
  4  2  1  0
  5  4  2  0
  7  8  1  6
  7  6  1  0
  8  9  1  0
  9 10  2  0
 11  7  1  0
 11 14  1  0
 12 11  2  0
 13  9  1  0
 15 14  1  0
 15 26  1  0
 15 16  1  6
 17 16  1  0
 18 17  2  0
 19 20  1  0
 19 18  1  0
 20 25  2  0
 21 22  2  0
 21 20  1  0
 22 23  1  0
 23 24  2  0
 25 17  1  0
 25 24  1  0
 26 28  1  0
 27 26  2  0
M  END
$$$$
