SAW.pdb
     RDKit          3D

 26 27  0  0  1  0  0  0  0  0999 V2000
   28.5628  -21.0219  -14.0468 O   0  0  0  0  0  0  0  0  0  0  0  0
   29.5085  -21.7970  -14.7373 C   0  0  0  0  0  0  0  0  0  0  0  0
   28.9748  -22.0488  -16.1535 C   0  0  2  0  0  0  0  0  0  0  0  0
   29.9572  -21.6107  -17.0649 N   0  0  0  0  0  0  0  0  0  0  0  0
   27.7048  -21.2840  -16.3510 C   0  0  0  0  0  0  0  0  0  0  0  0
   27.7400  -20.1508  -16.8641 O   0  0  0  0  0  0  0  0  0  0  0  0
   24.2323  -21.8694  -16.9798 C   0  0  0  0  0  0  0  0  0  0  0  0
   25.2100  -21.1301  -16.0558 C   0  0  2  0  0  0  0  0  0  0  0  0
   26.4606  -21.8532  -15.9523 N   0  0  0  0  0  0  0  0  0  0  0  0
   24.5773  -21.1217  -14.7158 C   0  0  0  0  0  0  0  0  0  0  0  0
   23.4184  -20.6647  -14.5263 O   0  0  0  0  0  0  0  0  0  0  0  0
   25.2588  -21.6279  -13.6067 N   0  0  0  0  0  0  0  0  0  0  0  0
   24.7080  -21.7135  -12.2699 C   0  0  1  0  0  0  0  0  0  0  0  0
   25.5948  -22.4421  -11.3172 C   0  0  0  0  0  0  0  0  0  0  0  0
   26.1665  -21.4620  -10.3602 C   0  0  0  0  0  0  0  0  0  0  0  0
   25.5039  -20.5702   -9.5254 C   0  0  0  0  0  0  0  0  0  0  0  0
   26.4064  -19.8637   -8.8270 N   0  0  0  0  0  0  0  0  0  0  0  0
   27.6346  -20.2561   -9.1702 C   0  0  0  0  0  0  0  0  0  0  0  0
   28.8830  -19.8412   -8.7420 C   0  0  0  0  0  0  0  0  0  0  0  0
   30.0387  -20.3975   -9.2442 C   0  0  0  0  0  0  0  0  0  0  0  0
   29.9277  -21.3984  -10.2034 C   0  0  0  0  0  0  0  0  0  0  0  0
   28.6771  -21.8021  -10.6208 C   0  0  0  0  0  0  0  0  0  0  0  0
   27.5172  -21.2480  -10.1208 C   0  0  0  0  0  0  0  0  0  0  0  0
   24.4210  -20.3550  -11.7908 C   0  0  0  0  0  0  0  0  0  0  0  0
   23.3756  -20.1634  -10.9001 O   0  0  0  0  0  0  0  0  0  0  0  0
   25.0879  -19.3429  -12.1554 O   0  0  0  0  0  0  0  0  0  0  0  0
  2  3  1  0
  2  1  1  0
  3  4  1  6
  5  6  2  0
  5  3  1  0
  8  7  1  6
  8  9  1  0
  8 10  1  0
  9  5  1  0
 10 11  2  0
 12 10  1  0
 12 13  1  0
 13 14  1  1
 15 16  2  0
 15 14  1  0
 17 16  1  0
 18 23  2  0
 18 17  1  0
 19 18  1  0
 20 19  2  0
 20 21  1  0
 21 22  2  0
 22 23  1  0
 23 15  1  0
 24 25  1  0
 24 13  1  0
 26 24  2  0
M  END
$$$$
