SAW.pdb
     RDKit          3D

 26 27  0  0  1  0  0  0  0  0999 V2000
   27.0299  -22.1487  -18.2974 O   0  0  0  0  0  0  0  0  0  0  0  0
   27.8234  -21.0817  -18.7486 C   0  0  0  0  0  0  0  0  0  0  0  0
   29.0636  -20.9973  -17.8494 C   0  0  2  0  0  0  0  0  0  0  0  0
   29.7489  -22.2253  -17.9497 N   0  0  0  0  0  0  0  0  0  0  0  0
   28.6392  -20.7531  -16.4363 C   0  0  0  0  0  0  0  0  0  0  0  0
   28.8979  -21.5972  -15.5593 O   0  0  0  0  0  0  0  0  0  0  0  0
   27.0497  -17.7817  -14.6583 C   0  0  0  0  0  0  0  0  0  0  0  0
   27.6469  -19.1941  -14.7275 C   0  0  2  0  0  0  0  0  0  0  0  0
   27.9413  -19.5574  -16.0982 N   0  0  0  0  0  0  0  0  0  0  0  0
   26.5912  -20.1080  -14.2315 C   0  0  0  0  0  0  0  0  0  0  0  0
   25.6772  -20.5436  -14.9816 O   0  0  0  0  0  0  0  0  0  0  0  0
   26.5788  -20.5189  -12.8967 N   0  0  0  0  0  0  0  0  0  0  0  0
   25.6468  -21.4766  -12.3382 C   0  0  1  0  0  0  0  0  0  0  0  0
   26.1630  -22.1477  -11.1102 C   0  0  0  0  0  0  0  0  0  0  0  0
   26.2214  -21.1480  -10.0145 C   0  0  0  0  0  0  0  0  0  0  0  0
   25.2483  -20.2435   -9.6069 C   0  0  0  0  0  0  0  0  0  0  0  0
   25.7188  -19.5208   -8.5784 N   0  0  0  0  0  0  0  0  0  0  0  0
   26.9617  -19.9149   -8.2950 C   0  0  0  0  0  0  0  0  0  0  0  0
   27.8631  -19.4873   -7.3365 C   0  0  0  0  0  0  0  0  0  0  0  0
   29.1161  -20.0484   -7.2245 C   0  0  0  0  0  0  0  0  0  0  0  0
   29.4649  -21.0672   -8.1045 C   0  0  0  0  0  0  0  0  0  0  0  0
   28.5566  -21.4834   -9.0548 C   0  0  0  0  0  0  0  0  0  0  0  0
   27.3009  -20.9245   -9.1706 C   0  0  0  0  0  0  0  0  0  0  0  0
   24.3736  -20.7945  -12.0718 C   0  0  0  0  0  0  0  0  0  0  0  0
   24.3679  -19.4156  -11.9242 O   0  0  0  0  0  0  0  0  0  0  0  0
   23.2726  -21.4105  -11.9697 O   0  0  0  0  0  0  0  0  0  0  0  0
  2  3  1  0
  2  1  1  0
  3  4  1  1
  5  6  2  0
  5  3  1  0
  8  7  1  6
  8  9  1  0
  8 10  1  0
  9  5  1  0
 10 11  2  0
 12 10  1  0
 12 13  1  0
 13 14  1  1
 15 16  2  0
 15 14  1  0
 17 16  1  0
 18 23  2  0
 18 17  1  0
 19 18  1  0
 20 19  2  0
 20 21  1  0
 21 22  2  0
 22 23  1  0
 23 15  1  0
 24 25  1  0
 24 13  1  0
 26 24  2  0
M  END
$$$$
