SAW.pdb
     RDKit          3D

 26 27  0  0  1  0  0  0  0  0999 V2000
   29.1173  -17.5206  -14.2559 O   0  0  0  0  0  0  0  0  0  0  0  0
   29.2023  -18.9020  -14.4932 C   0  0  0  0  0  0  0  0  0  0  0  0
   28.0168  -19.3066  -15.3791 C   0  0  2  0  0  0  0  0  0  0  0  0
   28.1324  -18.6033  -16.5956 N   0  0  0  0  0  0  0  0  0  0  0  0
   26.7368  -18.9502  -14.6925 C   0  0  0  0  0  0  0  0  0  0  0  0
   26.0227  -18.0402  -15.1514 O   0  0  0  0  0  0  0  0  0  0  0  0
   24.8797  -21.3980  -14.4354 C   0  0  0  0  0  0  0  0  0  0  0  0
   25.0406  -20.2816  -13.3943 C   0  0  2  0  0  0  0  0  0  0  0  0
   26.3389  -19.6518  -13.5175 N   0  0  0  0  0  0  0  0  0  0  0  0
   24.9813  -20.9463  -12.0712 C   0  0  0  0  0  0  0  0  0  0  0  0
   23.9606  -21.5756  -11.6842 O   0  0  0  0  0  0  0  0  0  0  0  0
   26.0727  -20.8929  -11.2013 N   0  0  0  0  0  0  0  0  0  0  0  0
   26.1492  -21.5861   -9.9320 C   0  0  1  0  0  0  0  0  0  0  0  0
   27.4985  -21.5052   -9.3014 C   0  0  0  0  0  0  0  0  0  0  0  0
   27.4819  -20.4210   -8.2876 C   0  0  0  0  0  0  0  0  0  0  0  0
   26.7800  -19.2218   -8.3051 C   0  0  0  0  0  0  0  0  0  0  0  0
   27.0573  -18.5303   -7.1886 N   0  0  0  0  0  0  0  0  0  0  0  0
   27.9131  -19.2279   -6.4394 C   0  0  0  0  0  0  0  0  0  0  0  0
   28.4960  -18.9521   -5.2153 C   0  0  0  0  0  0  0  0  0  0  0  0
   29.3677  -19.8350   -4.6171 C   0  0  0  0  0  0  0  0  0  0  0  0
   29.6565  -21.0261   -5.2743 C   0  0  0  0  0  0  0  0  0  0  0  0
   29.0684  -21.2879   -6.4937 C   0  0  0  0  0  0  0  0  0  0  0  0
   28.1949  -20.4069   -7.0965 C   0  0  0  0  0  0  0  0  0  0  0  0
   25.1153  -21.0478   -9.0383 C   0  0  0  0  0  0  0  0  0  0  0  0
   24.7564  -21.7731   -7.9122 O   0  0  0  0  0  0  0  0  0  0  0  0
   24.5318  -19.9445   -9.2489 O   0  0  0  0  0  0  0  0  0  0  0  0
  2  3  1  0
  2  1  1  0
  3  4  1  6
  5  6  2  0
  5  3  1  0
  8  7  1  6
  8  9  1  0
  8 10  1  0
  9  5  1  0
 10 11  2  0
 12 10  1  0
 12 13  1  0
 13 14  1  1
 15 16  2  0
 15 14  1  0
 17 16  1  0
 18 23  2  0
 18 17  1  0
 19 18  1  0
 20 19  2  0
 20 21  1  0
 21 22  2  0
 22 23  1  0
 23 15  1  0
 24 25  1  0
 24 13  1  0
 26 24  2  0
M  END
$$$$
