SAW.pdb
     RDKit          3D

 26 27  0  0  1  0  0  0  0  0999 V2000
   29.6631  -18.1770  -15.4108 O   0  0  0  0  0  0  0  0  0  0  0  0
   28.7790  -17.7091  -16.3963 C   0  0  0  0  0  0  0  0  0  0  0  0
   27.5039  -18.5602  -16.3347 C   0  0  2  0  0  0  0  0  0  0  0  0
   26.6728  -18.1633  -17.4021 N   0  0  0  0  0  0  0  0  0  0  0  0
   26.8149  -18.3319  -15.0271 C   0  0  0  0  0  0  0  0  0  0  0  0
   26.2589  -17.2411  -14.8044 O   0  0  0  0  0  0  0  0  0  0  0  0
   24.4909  -19.5059  -13.2146 C   0  0  0  0  0  0  0  0  0  0  0  0
   25.9672  -19.2844  -12.8570 C   0  0  2  0  0  0  0  0  0  0  0  0
   26.7966  -19.3614  -14.0418 N   0  0  0  0  0  0  0  0  0  0  0  0
   26.3433  -20.4062  -11.9648 C   0  0  0  0  0  0  0  0  0  0  0  0
   26.7459  -21.5122  -12.4145 O   0  0  0  0  0  0  0  0  0  0  0  0
   26.2606  -20.2671  -10.5776 N   0  0  0  0  0  0  0  0  0  0  0  0
   26.4537  -21.3442   -9.6287 C   0  0  1  0  0  0  0  0  0  0  0  0
   27.7630  -21.2703   -8.9180 C   0  0  0  0  0  0  0  0  0  0  0  0
   27.6789  -20.2107   -7.8818 C   0  0  0  0  0  0  0  0  0  0  0  0
   26.9166  -19.0488   -7.8830 C   0  0  0  0  0  0  0  0  0  0  0  0
   27.1450  -18.3685   -6.7486 N   0  0  0  0  0  0  0  0  0  0  0  0
   28.0267  -19.0376   -6.0034 C   0  0  0  0  0  0  0  0  0  0  0  0
   28.5803  -18.7592   -4.7665 C   0  0  0  0  0  0  0  0  0  0  0  0
   29.4891  -19.6092   -4.1760 C   0  0  0  0  0  0  0  0  0  0  0  0
   29.8463  -20.7694   -4.8544 C   0  0  0  0  0  0  0  0  0  0  0  0
   29.2868  -21.0343   -6.0865 C   0  0  0  0  0  0  0  0  0  0  0  0
   28.3763  -20.1861   -6.6817 C   0  0  0  0  0  0  0  0  0  0  0  0
   25.3350  -21.3395   -8.6769 C   0  0  0  0  0  0  0  0  0  0  0  0
   24.3472  -20.3748   -8.8056 O   0  0  0  0  0  0  0  0  0  0  0  0
   25.2292  -22.1810   -7.7372 O   0  0  0  0  0  0  0  0  0  0  0  0
  2  3  1  0
  2  1  1  0
  3  4  1  6
  5  6  2  0
  5  3  1  0
  8  7  1  6
  8  9  1  0
  8 10  1  0
  9  5  1  0
 10 11  2  0
 12 10  1  0
 12 13  1  0
 13 14  1  1
 15 16  2  0
 15 14  1  0
 17 16  1  0
 18 23  2  0
 18 17  1  0
 19 18  1  0
 20 19  2  0
 20 21  1  0
 21 22  2  0
 22 23  1  0
 23 15  1  0
 24 25  1  0
 24 13  1  0
 26 24  2  0
M  END
$$$$
