SAW.pdb
     RDKit          3D

 26 27  0  0  1  0  0  0  0  0999 V2000
   18.9924  -16.0448  -20.1894 O   0  0  0  0  0  0  0  0  0  0  0  0
   19.8684  -15.1396  -19.5689 C   0  0  0  0  0  0  0  0  0  0  0  0
   21.2499  -15.2929  -20.2184 C   0  0  2  0  0  0  0  0  0  0  0  0
   21.7422  -16.5700  -19.8799 N   0  0  0  0  0  0  0  0  0  0  0  0
   22.1651  -14.2294  -19.7006 C   0  0  0  0  0  0  0  0  0  0  0  0
   22.6912  -14.3593  -18.5804 O   0  0  0  0  0  0  0  0  0  0  0  0
   23.6194  -11.0445  -21.1946 C   0  0  0  0  0  0  0  0  0  0  0  0
   23.3352  -12.0287  -20.0515 C   0  0  2  0  0  0  0  0  0  0  0  0
   22.4318  -13.0726  -20.4892 N   0  0  0  0  0  0  0  0  0  0  0  0
   22.6476  -11.2440  -18.9992 C   0  0  0  0  0  0  0  0  0  0  0  0
   21.3913  -11.1901  -18.9186 O   0  0  0  0  0  0  0  0  0  0  0  0
   23.3845  -10.5299  -18.0518 N   0  0  0  0  0  0  0  0  0  0  0  0
   22.8078   -9.7034  -17.0117 C   0  0  1  0  0  0  0  0  0  0  0  0
   23.6944   -9.5575  -15.8211 C   0  0  0  0  0  0  0  0  0  0  0  0
   23.0536   -8.6177  -14.8673 C   0  0  0  0  0  0  0  0  0  0  0  0
   22.1996   -8.8985  -13.8076 C   0  0  0  0  0  0  0  0  0  0  0  0
   21.8489   -7.7512  -13.2058 N   0  0  0  0  0  0  0  0  0  0  0  0
   22.4387   -6.7289  -13.8283 C   0  0  0  0  0  0  0  0  0  0  0  0
   22.3966   -5.3658  -13.5951 C   0  0  0  0  0  0  0  0  0  0  0  0
   23.0988   -4.4785  -14.3806 C   0  0  0  0  0  0  0  0  0  0  0  0
   23.8622   -4.9835  -15.4276 C   0  0  0  0  0  0  0  0  0  0  0  0
   23.8949   -6.3442  -15.6484 C   0  0  0  0  0  0  0  0  0  0  0  0
   23.1935   -7.2365  -14.8645 C   0  0  0  0  0  0  0  0  0  0  0  0
   22.4715   -8.3930  -17.5836 C   0  0  0  0  0  0  0  0  0  0  0  0
   21.2729   -7.7925  -17.2289 O   0  0  0  0  0  0  0  0  0  0  0  0
   23.2299   -7.7810  -18.3914 O   0  0  0  0  0  0  0  0  0  0  0  0
  2  3  1  0
  2  1  1  0
  3  4  1  1
  5  6  2  0
  5  3  1  0
  8  7  1  6
  8  9  1  0
  8 10  1  0
  9  5  1  0
 10 11  2  0
 12 10  1  0
 12 13  1  0
 13 14  1  1
 15 16  2  0
 15 14  1  0
 17 16  1  0
 18 23  2  0
 18 17  1  0
 19 18  1  0
 20 19  2  0
 20 21  1  0
 21 22  2  0
 22 23  1  0
 23 15  1  0
 24 25  1  0
 24 13  1  0
 26 24  2  0
M  END
$$$$
