SAW.pdb
     RDKit          3D

 26 27  0  0  1  0  0  0  0  0999 V2000
   19.0229  -23.1238    5.6890 O   0  0  0  0  0  0  0  0  0  0  0  0
   18.4217  -21.9605    6.1959 C   0  0  0  0  0  0  0  0  0  0  0  0
   16.9080  -22.0698    5.9704 C   0  0  2  0  0  0  0  0  0  0  0  0
   16.6936  -22.2514    4.5888 N   0  0  0  0  0  0  0  0  0  0  0  0
   16.2423  -20.8153    6.4391 C   0  0  0  0  0  0  0  0  0  0  0  0
   15.5447  -20.1541    5.6486 O   0  0  0  0  0  0  0  0  0  0  0  0
   15.9059  -19.1332    9.8387 C   0  0  0  0  0  0  0  0  0  0  0  0
   15.7128  -19.2274    8.3188 C   0  0  2  0  0  0  0  0  0  0  0  0
   16.4078  -20.3811    7.7864 N   0  0  0  0  0  0  0  0  0  0  0  0
   16.3455  -18.0135    7.7514 C   0  0  0  0  0  0  0  0  0  0  0  0
   17.5032  -18.0329    7.2543 O   0  0  0  0  0  0  0  0  0  0  0  0
   15.6657  -16.7935    7.7518 N   0  0  0  0  0  0  0  0  0  0  0  0
   16.1648  -15.5720    7.1546 C   0  0  1  0  0  0  0  0  0  0  0  0
   17.5990  -15.6598    6.7543 C   0  0  0  0  0  0  0  0  0  0  0  0
   17.9962  -14.3708    6.1347 C   0  0  0  0  0  0  0  0  0  0  0  0
   18.0680  -13.1101    6.7149 C   0  0  0  0  0  0  0  0  0  0  0  0
   18.4693  -12.2208    5.7931 N   0  0  0  0  0  0  0  0  0  0  0  0
   18.6635  -12.8476    4.6313 C   0  0  0  0  0  0  0  0  0  0  0  0
   19.0718  -12.3808    3.3946 C   0  0  0  0  0  0  0  0  0  0  0  0
   19.2054  -13.2247    2.3141 C   0  0  0  0  0  0  0  0  0  0  0  0
   18.9186  -14.5741    2.4901 C   0  0  0  0  0  0  0  0  0  0  0  0
   18.5127  -15.0255    3.7282 C   0  0  0  0  0  0  0  0  0  0  0  0
   18.3775  -14.1842    4.8129 C   0  0  0  0  0  0  0  0  0  0  0  0
   15.3159  -15.2281    6.0063 C   0  0  0  0  0  0  0  0  0  0  0  0
   14.8886  -16.2398    5.1597 O   0  0  0  0  0  0  0  0  0  0  0  0
   14.9532  -14.0426    5.7510 O   0  0  0  0  0  0  0  0  0  0  0  0
  2  3  1  0
  2  1  1  0
  3  4  1  6
  5  6  2  0
  5  3  1  0
  8  7  1  1
  8  9  1  0
  8 10  1  0
  9  5  1  0
 10 11  2  0
 12 10  1  0
 12 13  1  0
 13 14  1  6
 15 16  2  0
 15 14  1  0
 17 16  1  0
 18 23  2  0
 18 17  1  0
 19 18  1  0
 20 19  2  0
 20 21  1  0
 21 22  2  0
 22 23  1  0
 23 15  1  0
 24 25  1  0
 24 13  1  0
 26 24  2  0
M  END
$$$$
