SAW.pdb
     RDKit          3D

 26 27  0  0  1  0  0  0  0  0999 V2000
   29.1846  -11.8751  -22.3818 O   0  0  0  0  0  0  0  0  0  0  0  0
   28.1017  -11.8052  -21.4906 C   0  0  0  0  0  0  0  0  0  0  0  0
   28.6185  -12.1437  -20.0862 C   0  0  2  0  0  0  0  0  0  0  0  0
   29.0163  -13.4963  -20.0913 N   0  0  0  0  0  0  0  0  0  0  0  0
   27.5264  -11.9272  -19.0876 C   0  0  0  0  0  0  0  0  0  0  0  0
   26.6721  -12.8134  -18.9051 O   0  0  0  0  0  0  0  0  0  0  0  0
   27.0447  -10.3168  -15.9641 C   0  0  0  0  0  0  0  0  0  0  0  0
   26.4352  -10.4499  -17.3666 C   0  0  2  0  0  0  0  0  0  0  0  0
   27.4668  -10.7097  -18.3492 N   0  0  0  0  0  0  0  0  0  0  0  0
   25.8335   -9.1316  -17.6764 C   0  0  0  0  0  0  0  0  0  0  0  0
   26.5145   -8.0716  -17.6869 O   0  0  0  0  0  0  0  0  0  0  0  0
   24.4722   -9.0250  -17.9701 N   0  0  0  0  0  0  0  0  0  0  0  0
   23.5085   -8.3079  -17.1609 C   0  0  1  0  0  0  0  0  0  0  0  0
   23.5059   -8.7404  -15.7334 C   0  0  0  0  0  0  0  0  0  0  0  0
   22.4163   -8.0235  -15.0247 C   0  0  0  0  0  0  0  0  0  0  0  0
   21.9415   -6.7342  -15.2330 C   0  0  0  0  0  0  0  0  0  0  0  0
   20.9477   -6.4831  -14.3664 N   0  0  0  0  0  0  0  0  0  0  0  0
   20.7517   -7.5561  -13.5978 C   0  0  0  0  0  0  0  0  0  0  0  0
   19.8579   -7.7965  -12.5694 C   0  0  0  0  0  0  0  0  0  0  0  0
   19.8338   -9.0016  -11.9028 C   0  0  0  0  0  0  0  0  0  0  0  0
   20.7365   -9.9874  -12.2867 C   0  0  0  0  0  0  0  0  0  0  0  0
   21.6216   -9.7341  -13.3133 C   0  0  0  0  0  0  0  0  0  0  0  0
   21.6494   -8.5289  -13.9836 C   0  0  0  0  0  0  0  0  0  0  0  0
   23.7752   -6.8681  -17.2761 C   0  0  0  0  0  0  0  0  0  0  0  0
   22.7374   -6.0185  -17.6287 O   0  0  0  0  0  0  0  0  0  0  0  0
   24.9165   -6.3621  -17.0674 O   0  0  0  0  0  0  0  0  0  0  0  0
  2  3  1  0
  2  1  1  0
  3  4  1  6
  5  6  2  0
  5  3  1  0
  8  7  1  1
  8  9  1  0
  8 10  1  0
  9  5  1  0
 10 11  2  0
 12 10  1  0
 12 13  1  0
 13 14  1  1
 15 16  2  0
 15 14  1  0
 17 16  1  0
 18 23  2  0
 18 17  1  0
 19 18  1  0
 20 19  2  0
 20 21  1  0
 21 22  2  0
 22 23  1  0
 23 15  1  0
 24 25  1  0
 24 13  1  0
 26 24  2  0
M  END
$$$$
