SAW.pdb
     RDKit          3D

 26 27  0  0  1  0  0  0  0  0999 V2000
   26.5356  -16.3041  -12.7963 O   0  0  0  0  0  0  0  0  0  0  0  0
   27.3043  -16.4875  -13.9570 C   0  0  0  0  0  0  0  0  0  0  0  0
   26.7187  -17.6743  -14.7331 C   0  0  2  0  0  0  0  0  0  0  0  0
   25.5730  -17.2159  -15.4151 N   0  0  0  0  0  0  0  0  0  0  0  0
   26.3526  -18.7639  -13.7763 C   0  0  0  0  0  0  0  0  0  0  0  0
   25.2430  -18.7440  -13.2132 O   0  0  0  0  0  0  0  0  0  0  0  0
   27.9350  -22.0955  -12.8774 C   0  0  0  0  0  0  0  0  0  0  0  0
   26.9340  -20.9500  -12.6727 C   0  0  2  0  0  0  0  0  0  0  0  0
   27.2728  -19.8196  -13.5122 N   0  0  0  0  0  0  0  0  0  0  0  0
   27.0811  -20.5276  -11.2599 C   0  0  0  0  0  0  0  0  0  0  0  0
   28.1654  -20.0721  -10.8076 O   0  0  0  0  0  0  0  0  0  0  0  0
   26.0047  -20.6242  -10.3753 N   0  0  0  0  0  0  0  0  0  0  0  0
   26.1288  -20.7741   -8.9401 C   0  0  1  0  0  0  0  0  0  0  0  0
   25.7742  -19.5348   -8.1894 C   0  0  0  0  0  0  0  0  0  0  0  0
   26.9786  -19.0625   -7.4616 C   0  0  0  0  0  0  0  0  0  0  0  0
   27.7627  -17.9420   -7.7084 C   0  0  0  0  0  0  0  0  0  0  0  0
   28.7594  -17.8929   -6.8107 N   0  0  0  0  0  0  0  0  0  0  0  0
   28.6607  -18.9363   -5.9850 C   0  0  0  0  0  0  0  0  0  0  0  0
   29.4349  -19.3301   -4.9082 C   0  0  0  0  0  0  0  0  0  0  0  0
   29.1409  -20.4658   -4.1863 C   0  0  0  0  0  0  0  0  0  0  0  0
   28.0360  -21.2213   -4.5639 C   0  0  0  0  0  0  0  0  0  0  0  0
   27.2733  -20.8170   -5.6391 C   0  0  0  0  0  0  0  0  0  0  0  0
   27.5638  -19.6806   -6.3649 C   0  0  0  0  0  0  0  0  0  0  0  0
   25.2984  -21.9072   -8.5112 C   0  0  0  0  0  0  0  0  0  0  0  0
   24.7320  -22.7279   -9.4750 O   0  0  0  0  0  0  0  0  0  0  0  0
   25.0735  -22.1722   -7.2942 O   0  0  0  0  0  0  0  0  0  0  0  0
  2  3  1  0
  2  1  1  0
  3  4  1  1
  5  6  2  0
  5  3  1  0
  8  7  1  6
  8  9  1  0
  8 10  1  0
  9  5  1  0
 10 11  2  0
 12 10  1  0
 12 13  1  0
 13 14  1  1
 15 16  2  0
 15 14  1  0
 17 16  1  0
 18 23  2  0
 18 17  1  0
 19 18  1  0
 20 19  2  0
 20 21  1  0
 21 22  2  0
 22 23  1  0
 23 15  1  0
 24 25  1  0
 24 13  1  0
 26 24  2  0
M  END
$$$$
