SAW.pdb
     RDKit          3D

 26 27  0  0  1  0  0  0  0  0999 V2000
   26.5256  -21.6794  -18.2047 O   0  0  0  0  0  0  0  0  0  0  0  0
   27.8327  -22.1639  -18.3735 C   0  0  0  0  0  0  0  0  0  0  0  0
   28.8088  -21.0487  -17.9766 C   0  0  2  0  0  0  0  0  0  0  0  0
   30.1152  -21.5128  -18.2323 N   0  0  0  0  0  0  0  0  0  0  0  0
   28.6437  -20.7356  -16.5235 C   0  0  0  0  0  0  0  0  0  0  0  0
   29.0780  -21.5280  -15.6680 O   0  0  0  0  0  0  0  0  0  0  0  0
   27.1907  -17.7800  -14.6046 C   0  0  0  0  0  0  0  0  0  0  0  0
   27.8003  -19.1831  -14.7308 C   0  0  2  0  0  0  0  0  0  0  0  0
   27.9911  -19.5335  -16.1231 N   0  0  0  0  0  0  0  0  0  0  0  0
   26.7997  -20.1153  -14.1602 C   0  0  0  0  0  0  0  0  0  0  0  0
   25.9288  -20.6806  -14.8742 O   0  0  0  0  0  0  0  0  0  0  0  0
   26.7932  -20.3982  -12.7925 N   0  0  0  0  0  0  0  0  0  0  0  0
   25.9524  -21.3942  -12.1612 C   0  0  1  0  0  0  0  0  0  0  0  0
   26.5755  -22.0041  -10.9510 C   0  0  0  0  0  0  0  0  0  0  0  0
   26.4595  -21.0438   -9.8251 C   0  0  0  0  0  0  0  0  0  0  0  0
   25.3793  -20.2460   -9.4675 C   0  0  0  0  0  0  0  0  0  0  0  0
   25.7032  -19.5219   -8.3847 N   0  0  0  0  0  0  0  0  0  0  0  0
   26.9526  -19.8127   -8.0176 C   0  0  0  0  0  0  0  0  0  0  0  0
   27.7368  -19.3412   -6.9799 C   0  0  0  0  0  0  0  0  0  0  0  0
   29.0244  -19.7911   -6.7879 C   0  0  0  0  0  0  0  0  0  0  0  0
   29.5304  -20.7416   -7.6679 C   0  0  0  0  0  0  0  0  0  0  0  0
   28.7377  -21.2028   -8.6976 C   0  0  0  0  0  0  0  0  0  0  0  0
   27.4479  -20.7552   -8.8938 C   0  0  0  0  0  0  0  0  0  0  0  0
   24.6580  -20.7806  -11.8365 C   0  0  0  0  0  0  0  0  0  0  0  0
   23.5454  -21.5957  -11.6920 O   0  0  0  0  0  0  0  0  0  0  0  0
   24.5087  -19.5334  -11.6812 O   0  0  0  0  0  0  0  0  0  0  0  0
  2  3  1  0
  2  1  1  0
  3  4  1  1
  5  6  2  0
  5  3  1  0
  8  7  1  6
  8  9  1  0
  8 10  1  0
  9  5  1  0
 10 11  2  0
 12 10  1  0
 12 13  1  0
 13 14  1  1
 15 16  2  0
 15 14  1  0
 17 16  1  0
 18 23  2  0
 18 17  1  0
 19 18  1  0
 20 19  2  0
 20 21  1  0
 21 22  2  0
 22 23  1  0
 23 15  1  0
 24 25  1  0
 24 13  1  0
 26 24  2  0
M  END
$$$$
