SAW.pdb
     RDKit          3D

 26 27  0  0  1  0  0  0  0  0999 V2000
   29.0386  -20.8763  -14.9266 O   0  0  0  0  0  0  0  0  0  0  0  0
   28.7822  -20.6482  -16.2882 C   0  0  0  0  0  0  0  0  0  0  0  0
   27.7860  -19.4864  -16.3969 C   0  0  2  0  0  0  0  0  0  0  0  0
   28.5079  -18.2870  -16.2300 N   0  0  0  0  0  0  0  0  0  0  0  0
   26.7464  -19.6198  -15.3301 C   0  0  0  0  0  0  0  0  0  0  0  0
   26.6884  -18.7776  -14.4157 O   0  0  0  0  0  0  0  0  0  0  0  0
   23.6510  -21.7710  -14.9664 C   0  0  0  0  0  0  0  0  0  0  0  0
   24.7302  -20.8236  -14.4241 C   0  0  2  0  0  0  0  0  0  0  0  0
   25.8268  -20.7081  -15.3630 N   0  0  0  0  0  0  0  0  0  0  0  0
   25.2513  -21.4617  -13.1924 C   0  0  0  0  0  0  0  0  0  0  0  0
   26.4252  -21.9137  -13.1187 O   0  0  0  0  0  0  0  0  0  0  0  0
   24.4429  -21.5825  -12.0599 N   0  0  0  0  0  0  0  0  0  0  0  0
   24.8091  -21.1289  -10.7341 C   0  0  1  0  0  0  0  0  0  0  0  0
   25.7363  -19.9606  -10.7506 C   0  0  0  0  0  0  0  0  0  0  0  0
   27.0174  -20.3652  -10.1194 C   0  0  0  0  0  0  0  0  0  0  0  0
   28.0511  -21.1246  -10.6542 C   0  0  0  0  0  0  0  0  0  0  0  0
   29.0234  -21.2561   -9.7382 N   0  0  0  0  0  0  0  0  0  0  0  0
   28.6688  -20.6134   -8.6239 C   0  0  0  0  0  0  0  0  0  0  0  0
   29.3163  -20.4542   -7.4117 C   0  0  0  0  0  0  0  0  0  0  0  0
   28.7504  -19.7363   -6.3813 C   0  0  0  0  0  0  0  0  0  0  0  0
   27.4985  -19.1655   -6.5833 C   0  0  0  0  0  0  0  0  0  0  0  0
   26.8647  -19.3322   -7.7965 C   0  0  0  0  0  0  0  0  0  0  0  0
   27.4274  -20.0502   -8.8310 C   0  0  0  0  0  0  0  0  0  0  0  0
   23.5830  -20.8197   -9.9867 C   0  0  0  0  0  0  0  0  0  0  0  0
   23.3973  -21.3883   -8.7355 O   0  0  0  0  0  0  0  0  0  0  0  0
   22.6808  -20.0530  -10.4340 O   0  0  0  0  0  0  0  0  0  0  0  0
  2  3  1  0
  2  1  1  0
  3  4  1  1
  5  6  2  0
  5  3  1  0
  8  7  1  6
  8  9  1  0
  8 10  1  0
  9  5  1  0
 10 11  2  0
 12 10  1  0
 12 13  1  0
 13 14  1  6
 15 16  2  0
 15 14  1  0
 17 16  1  0
 18 23  2  0
 18 17  1  0
 19 18  1  0
 20 19  2  0
 20 21  1  0
 21 22  2  0
 22 23  1  0
 23 15  1  0
 24 25  1  0
 24 13  1  0
 26 24  2  0
M  END
$$$$
