SAW.pdb
     RDKit          3D

 26 27  0  0  1  0  0  0  0  0999 V2000
   27.3609  -22.2223  -19.5579 O   0  0  0  0  0  0  0  0  0  0  0  0
   27.7147  -22.5361  -18.2358 C   0  0  0  0  0  0  0  0  0  0  0  0
   28.8620  -21.6076  -17.8169 C   0  0  2  0  0  0  0  0  0  0  0  0
   30.0652  -22.3318  -17.9409 N   0  0  0  0  0  0  0  0  0  0  0  0
   28.6603  -21.1739  -16.3998 C   0  0  0  0  0  0  0  0  0  0  0  0
   29.1553  -21.8413  -15.4735 O   0  0  0  0  0  0  0  0  0  0  0  0
   27.1844  -18.0567  -14.8005 C   0  0  0  0  0  0  0  0  0  0  0  0
   27.7610  -19.4790  -14.7708 C   0  0  2  0  0  0  0  0  0  0  0  0
   27.9038  -20.0003  -16.1145 N   0  0  0  0  0  0  0  0  0  0  0  0
   26.7584  -20.3108  -14.0645 C   0  0  0  0  0  0  0  0  0  0  0  0
   25.7508  -20.7870  -14.6525 O   0  0  0  0  0  0  0  0  0  0  0  0
   26.9040  -20.5948  -12.7048 N   0  0  0  0  0  0  0  0  0  0  0  0
   26.0224  -21.4560  -11.9440 C   0  0  1  0  0  0  0  0  0  0  0  0
   26.6494  -21.9797  -10.6961 C   0  0  0  0  0  0  0  0  0  0  0  0
   26.5402  -20.9415   -9.6408 C   0  0  0  0  0  0  0  0  0  0  0  0
   25.4939  -20.0627   -9.3876 C   0  0  0  0  0  0  0  0  0  0  0  0
   25.8113  -19.2872   -8.3390 N   0  0  0  0  0  0  0  0  0  0  0  0
   27.0240  -19.6221   -7.8942 C   0  0  0  0  0  0  0  0  0  0  0  0
   27.7876  -19.1269   -6.8523 C   0  0  0  0  0  0  0  0  0  0  0  0
   29.0368  -19.6340   -6.5701 C   0  0  0  0  0  0  0  0  0  0  0  0
   29.5247  -20.6678   -7.3620 C   0  0  0  0  0  0  0  0  0  0  0  0
   28.7528  -21.1517   -8.3971 C   0  0  0  0  0  0  0  0  0  0  0  0
   27.5014  -20.6470   -8.6835 C   0  0  0  0  0  0  0  0  0  0  0  0
   24.7869  -20.7198  -11.6456 C   0  0  0  0  0  0  0  0  0  0  0  0
   23.6092  -21.4290  -11.4642 O   0  0  0  0  0  0  0  0  0  0  0  0
   24.7460  -19.4587  -11.5454 O   0  0  0  0  0  0  0  0  0  0  0  0
  2  3  1  0
  2  1  1  0
  3  4  1  1
  5  6  2  0
  5  3  1  0
  8  7  1  6
  8  9  1  0
  8 10  1  0
  9  5  1  0
 10 11  2  0
 12 10  1  0
 12 13  1  0
 13 14  1  1
 15 16  2  0
 15 14  1  0
 17 16  1  0
 18 23  2  0
 18 17  1  0
 19 18  1  0
 20 19  2  0
 20 21  1  0
 21 22  2  0
 22 23  1  0
 23 15  1  0
 24 25  1  0
 24 13  1  0
 26 24  2  0
M  END
$$$$
