SAW.pdb
     RDKit          3D

 26 27  0  0  1  0  0  0  0  0999 V2000
   23.2579  -19.5340  -16.6329 O   0  0  0  0  0  0  0  0  0  0  0  0
   23.2609  -18.2613  -16.0396 C   0  0  0  0  0  0  0  0  0  0  0  0
   24.4614  -18.1829  -15.0874 C   0  0  2  0  0  0  0  0  0  0  0  0
   25.6017  -18.6046  -15.8013 N   0  0  0  0  0  0  0  0  0  0  0  0
   24.2245  -19.0765  -13.9118 C   0  0  0  0  0  0  0  0  0  0  0  0
   23.2141  -18.9114  -13.2045 O   0  0  0  0  0  0  0  0  0  0  0  0
   25.2622  -22.4603  -12.9005 C   0  0  0  0  0  0  0  0  0  0  0  0
   24.9690  -21.0119  -12.4854 C   0  0  2  0  0  0  0  0  0  0  0  0
   25.1541  -20.1124  -13.6052 N   0  0  0  0  0  0  0  0  0  0  0  0
   25.9789  -20.6705  -11.4560 C   0  0  0  0  0  0  0  0  0  0  0  0
   27.1805  -20.4323  -11.7512 O   0  0  0  0  0  0  0  0  0  0  0  0
   25.6217  -20.6022  -10.1076 N   0  0  0  0  0  0  0  0  0  0  0  0
   26.5454  -20.3419   -9.0228 C   0  0  1  0  0  0  0  0  0  0  0  0
   26.0007  -19.3982   -8.0041 C   0  0  0  0  0  0  0  0  0  0  0  0
   27.1319  -18.8528   -7.2129 C   0  0  0  0  0  0  0  0  0  0  0  0
   27.8685  -17.6944   -7.4292 C   0  0  0  0  0  0  0  0  0  0  0  0
   28.8051  -17.5807   -6.4745 N   0  0  0  0  0  0  0  0  0  0  0  0
   28.7125  -18.6182   -5.6405 C   0  0  0  0  0  0  0  0  0  0  0  0
   29.4401  -18.9566   -4.5135 C   0  0  0  0  0  0  0  0  0  0  0  0
   29.1640  -20.0979   -3.7934 C   0  0  0  0  0  0  0  0  0  0  0  0
   28.1259  -20.9166   -4.2249 C   0  0  0  0  0  0  0  0  0  0  0  0
   27.4091  -20.5670   -5.3498 C   0  0  0  0  0  0  0  0  0  0  0  0
   27.6819  -19.4252   -6.0739 C   0  0  0  0  0  0  0  0  0  0  0  0
   26.9234  -21.6215   -8.4087 C   0  0  0  0  0  0  0  0  0  0  0  0
   28.2640  -21.8802   -8.1658 O   0  0  0  0  0  0  0  0  0  0  0  0
   26.0769  -22.5063   -8.0883 O   0  0  0  0  0  0  0  0  0  0  0  0
  2  3  1  0
  2  1  1  0
  3  4  1  6
  5  6  2  0
  5  3  1  0
  8  7  1  6
  8  9  1  0
  8 10  1  0
  9  5  1  0
 10 11  2  0
 12 10  1  0
 12 13  1  0
 13 14  1  1
 15 16  2  0
 15 14  1  0
 17 16  1  0
 18 23  2  0
 18 17  1  0
 19 18  1  0
 20 19  2  0
 20 21  1  0
 21 22  2  0
 22 23  1  0
 23 15  1  0
 24 25  1  0
 24 13  1  0
 26 24  2  0
M  END
$$$$
