SAW.pdb
     RDKit          3D

 26 27  0  0  1  0  0  0  0  0999 V2000
   26.6106  -22.6862  -16.2162 O   0  0  0  0  0  0  0  0  0  0  0  0
   27.2940  -21.8201  -17.0848 C   0  0  0  0  0  0  0  0  0  0  0  0
   28.6833  -21.5503  -16.4923 C   0  0  2  0  0  0  0  0  0  0  0  0
   29.4105  -22.7572  -16.5404 N   0  0  0  0  0  0  0  0  0  0  0  0
   28.5404  -21.0859  -15.0778 C   0  0  0  0  0  0  0  0  0  0  0  0
   28.9957  -21.7804  -14.1510 O   0  0  0  0  0  0  0  0  0  0  0  0
   27.1389  -17.9258  -13.4712 C   0  0  0  0  0  0  0  0  0  0  0  0
   27.7879  -19.3168  -13.4533 C   0  0  2  0  0  0  0  0  0  0  0  0
   27.8849  -19.8523  -14.7954 N   0  0  0  0  0  0  0  0  0  0  0  0
   26.8682  -20.1859  -12.6822 C   0  0  0  0  0  0  0  0  0  0  0  0
   25.8765  -20.7507  -13.2165 O   0  0  0  0  0  0  0  0  0  0  0  0
   27.0776  -20.4071  -11.3192 N   0  0  0  0  0  0  0  0  0  0  0  0
   26.2768  -21.2887  -10.4950 C   0  0  1  0  0  0  0  0  0  0  0  0
   26.9887  -21.7499   -9.2681 C   0  0  0  0  0  0  0  0  0  0  0  0
   27.1438  -20.5944   -8.3494 C   0  0  0  0  0  0  0  0  0  0  0  0
   26.5680  -19.3323   -8.4311 C   0  0  0  0  0  0  0  0  0  0  0  0
   26.9812  -18.5892   -7.3925 N   0  0  0  0  0  0  0  0  0  0  0  0
   27.8051  -19.3133   -6.6328 C   0  0  0  0  0  0  0  0  0  0  0  0
   28.4858  -19.0064   -5.4680 C   0  0  0  0  0  0  0  0  0  0  0  0
   29.2977  -19.9276   -4.8439 C   0  0  0  0  0  0  0  0  0  0  0  0
   29.4234  -21.1903   -5.4129 C   0  0  0  0  0  0  0  0  0  0  0  0
   28.7392  -21.4824   -6.5738 C   0  0  0  0  0  0  0  0  0  0  0  0
   27.9252  -20.5632   -7.2023 C   0  0  0  0  0  0  0  0  0  0  0  0
   25.0234  -20.6037  -10.1524 C   0  0  0  0  0  0  0  0  0  0  0  0
   23.9469  -21.3555   -9.7064 O   0  0  0  0  0  0  0  0  0  0  0  0
   24.8783  -19.3498  -10.2457 O   0  0  0  0  0  0  0  0  0  0  0  0
  2  3  1  0
  2  1  1  0
  3  4  1  1
  5  6  2  0
  5  3  1  0
  8  7  1  6
  8  9  1  0
  8 10  1  0
  9  5  1  0
 10 11  2  0
 12 10  1  0
 12 13  1  0
 13 14  1  1
 15 16  2  0
 15 14  1  0
 17 16  1  0
 18 23  2  0
 18 17  1  0
 19 18  1  0
 20 19  2  0
 20 21  1  0
 21 22  2  0
 22 23  1  0
 23 15  1  0
 24 25  1  0
 24 13  1  0
 26 24  2  0
M  END
$$$$
