SAW.pdb
     RDKit          3D

 26 27  0  0  1  0  0  0  0  0999 V2000
   25.6626  -17.6696  -14.4625 O   0  0  0  0  0  0  0  0  0  0  0  0
   27.0047  -17.2576  -14.4306 C   0  0  0  0  0  0  0  0  0  0  0  0
   27.7293  -17.9039  -15.6186 C   0  0  2  0  0  0  0  0  0  0  0  0
   27.6603  -17.0047  -16.7022 N   0  0  0  0  0  0  0  0  0  0  0  0
   27.0583  -19.1936  -15.9701 C   0  0  0  0  0  0  0  0  0  0  0  0
   26.1856  -19.2138  -16.8569 O   0  0  0  0  0  0  0  0  0  0  0  0
   27.9345  -22.7740  -15.5858 C   0  0  0  0  0  0  0  0  0  0  0  0
   26.8581  -21.6810  -15.6424 C   0  0  2  0  0  0  0  0  0  0  0  0
   27.4191  -20.3931  -15.2903 N   0  0  0  0  0  0  0  0  0  0  0  0
   25.8583  -22.0395  -14.6090 C   0  0  0  0  0  0  0  0  0  0  0  0
   25.1431  -23.0728  -14.7005 O   0  0  0  0  0  0  0  0  0  0  0  0
   25.6773  -21.2288  -13.4863 N   0  0  0  0  0  0  0  0  0  0  0  0
   24.7339  -21.4964  -12.4204 C   0  0  1  0  0  0  0  0  0  0  0  0
   25.3924  -21.7533  -11.1069 C   0  0  0  0  0  0  0  0  0  0  0  0
   25.9752  -20.4804  -10.6136 C   0  0  0  0  0  0  0  0  0  0  0  0
   26.3002  -19.3349  -11.3302 C   0  0  0  0  0  0  0  0  0  0  0  0
   26.8081  -18.4177  -10.4921 N   0  0  0  0  0  0  0  0  0  0  0  0
   26.8293  -18.9156   -9.2543 C   0  0  0  0  0  0  0  0  0  0  0  0
   27.2539  -18.3728   -8.0547 C   0  0  0  0  0  0  0  0  0  0  0  0
   27.1816  -19.0830   -6.8767 C   0  0  0  0  0  0  0  0  0  0  0  0
   26.6669  -20.3744   -6.9142 C   0  0  0  0  0  0  0  0  0  0  0  0
   26.2475  -20.9028   -8.1168 C   0  0  0  0  0  0  0  0  0  0  0  0
   26.3179  -20.1954   -9.2988 C   0  0  0  0  0  0  0  0  0  0  0  0
   23.7946  -20.3708  -12.3292 C   0  0  0  0  0  0  0  0  0  0  0  0
   23.8941  -19.3364  -13.2474 O   0  0  0  0  0  0  0  0  0  0  0  0
   22.8915  -20.2998  -11.4452 O   0  0  0  0  0  0  0  0  0  0  0  0
  2  3  1  0
  2  1  1  0
  3  4  1  6
  5  6  2  0
  5  3  1  0
  8  7  1  1
  8  9  1  0
  8 10  1  0
  9  5  1  0
 10 11  2  0
 12 10  1  0
 12 13  1  0
 13 14  1  1
 15 16  2  0
 15 14  1  0
 17 16  1  0
 18 23  2  0
 18 17  1  0
 19 18  1  0
 20 19  2  0
 20 21  1  0
 21 22  2  0
 22 23  1  0
 23 15  1  0
 24 25  1  0
 24 13  1  0
 26 24  2  0
M  END
$$$$
