SAW.pdb
     RDKit          3D

 26 27  0  0  1  0  0  0  0  0999 V2000
   33.3663  -13.9058  -18.8117 O   0  0  0  0  0  0  0  0  0  0  0  0
   32.4597  -12.8373  -18.9030 C   0  0  0  0  0  0  0  0  0  0  0  0
   31.1240  -13.3891  -19.4181 C   0  0  2  0  0  0  0  0  0  0  0  0
   31.3113  -13.7788  -20.7600 N   0  0  0  0  0  0  0  0  0  0  0  0
   30.0769  -12.3251  -19.3275 C   0  0  0  0  0  0  0  0  0  0  0  0
   29.8172  -11.6279  -20.3250 O   0  0  0  0  0  0  0  0  0  0  0  0
   27.5824  -11.2664  -16.6631 C   0  0  0  0  0  0  0  0  0  0  0  0
   28.4109  -11.0499  -17.9370 C   0  0  2  0  0  0  0  0  0  0  0  0
   29.3807  -12.1127  -18.1022 N   0  0  0  0  0  0  0  0  0  0  0  0
   29.1536   -9.7844  -17.7303 C   0  0  0  0  0  0  0  0  0  0  0  0
   29.8353   -9.5711  -16.6922 O   0  0  0  0  0  0  0  0  0  0  0  0
   29.1184   -8.7758  -18.6956 N   0  0  0  0  0  0  0  0  0  0  0  0
   29.7037   -7.4608  -18.5349 C   0  0  1  0  0  0  0  0  0  0  0  0
   31.0184   -7.3171  -19.2246 C   0  0  0  0  0  0  0  0  0  0  0  0
   32.0491   -8.0312  -18.4302 C   0  0  0  0  0  0  0  0  0  0  0  0
   32.6968   -9.2269  -18.7164 C   0  0  0  0  0  0  0  0  0  0  0  0
   33.5539   -9.5145  -17.7243 N   0  0  0  0  0  0  0  0  0  0  0  0
   33.4943   -8.5554  -16.7986 C   0  0  0  0  0  0  0  0  0  0  0  0
   34.1700   -8.3923  -15.6024 C   0  0  0  0  0  0  0  0  0  0  0  0
   33.9440   -7.3032  -14.7899 C   0  0  0  0  0  0  0  0  0  0  0  0
   33.0112   -6.3562  -15.1985 C   0  0  0  0  0  0  0  0  0  0  0  0
   32.3451   -6.5315  -16.3930 C   0  0  0  0  0  0  0  0  0  0  0  0
   32.5681   -7.6204  -17.2098 C   0  0  0  0  0  0  0  0  0  0  0  0
   28.7441   -6.4565  -19.0125 C   0  0  0  0  0  0  0  0  0  0  0  0
   27.6614   -6.8703  -19.7739 O   0  0  0  0  0  0  0  0  0  0  0  0
   28.8595   -5.2216  -18.7602 O   0  0  0  0  0  0  0  0  0  0  0  0
  2  3  1  0
  2  1  1  0
  3  4  1  6
  5  6  2  0
  5  3  1  0
  8  7  1  1
  8  9  1  0
  8 10  1  0
  9  5  1  0
 10 11  2  0
 12 10  1  0
 12 13  1  0
 13 14  1  6
 15 16  2  0
 15 14  1  0
 17 16  1  0
 18 23  2  0
 18 17  1  0
 19 18  1  0
 20 19  2  0
 20 21  1  0
 21 22  2  0
 22 23  1  0
 23 15  1  0
 24 25  1  0
 24 13  1  0
 26 24  2  0
M  END
$$$$
