SAW.pdb
     RDKit          3D

 26 27  0  0  1  0  0  0  0  0999 V2000
   32.3948  -29.6092  -18.3857 O   0  0  0  0  0  0  0  0  0  0  0  0
   32.2215  -29.6325  -19.7790 C   0  0  0  0  0  0  0  0  0  0  0  0
   30.7318  -29.4185  -20.0770 C   0  0  2  0  0  0  0  0  0  0  0  0
   30.4068  -28.0979  -19.7057 N   0  0  0  0  0  0  0  0  0  0  0  0
   29.9200  -30.3951  -19.2869 C   0  0  0  0  0  0  0  0  0  0  0  0
   29.2830  -30.0056  -18.2914 O   0  0  0  0  0  0  0  0  0  0  0  0
   29.0550  -34.0759  -19.7577 C   0  0  0  0  0  0  0  0  0  0  0  0
   29.0147  -32.7287  -19.0232 C   0  0  2  0  0  0  0  0  0  0  0  0
   29.8780  -31.7657  -19.6750 N   0  0  0  0  0  0  0  0  0  0  0  0
   29.5604  -32.9858  -17.6697 C   0  0  0  0  0  0  0  0  0  0  0  0
   30.7817  -32.8312  -17.4006 O   0  0  0  0  0  0  0  0  0  0  0  0
   28.7231  -33.4140  -16.6372 N   0  0  0  0  0  0  0  0  0  0  0  0
   29.1106  -33.5004  -15.2443 C   0  0  1  0  0  0  0  0  0  0  0  0
   28.5225  -32.4168  -14.4049 C   0  0  0  0  0  0  0  0  0  0  0  0
   27.0450  -32.5593  -14.4167 C   0  0  0  0  0  0  0  0  0  0  0  0
   26.2490  -33.4459  -13.7015 C   0  0  0  0  0  0  0  0  0  0  0  0
   24.9609  -33.2363  -14.0154 N   0  0  0  0  0  0  0  0  0  0  0  0
   24.8800  -32.2477  -14.9079 C   0  0  0  0  0  0  0  0  0  0  0  0
   23.7932  -31.6658  -15.5358 C   0  0  0  0  0  0  0  0  0  0  0  0
   23.9485  -30.6386  -16.4403 C   0  0  0  0  0  0  0  0  0  0  0  0
   25.2356  -30.1896  -16.7158 C   0  0  0  0  0  0  0  0  0  0  0  0
   26.3096  -30.7788  -16.0826 C   0  0  0  0  0  0  0  0  0  0  0  0
   26.1589  -31.8075  -15.1763 C   0  0  0  0  0  0  0  0  0  0  0  0
   28.7378  -34.8259  -14.7331 C   0  0  0  0  0  0  0  0  0  0  0  0
   27.8371  -35.5953  -15.4541 O   0  0  0  0  0  0  0  0  0  0  0  0
   29.2032  -35.3030  -13.6570 O   0  0  0  0  0  0  0  0  0  0  0  0
  2  3  1  0
  2  1  1  0
  3  4  1  1
  5  6  2  0
  5  3  1  0
  8  7  1  6
  8  9  1  0
  8 10  1  0
  9  5  1  0
 10 11  2  0
 12 10  1  0
 12 13  1  0
 13 14  1  1
 15 16  2  0
 15 14  1  0
 17 16  1  0
 18 23  2  0
 18 17  1  0
 19 18  1  0
 20 19  2  0
 20 21  1  0
 21 22  2  0
 22 23  1  0
 23 15  1  0
 24 25  1  0
 24 13  1  0
 26 24  2  0
M  END
$$$$
