EDF.pdb
     RDKit          3D

 29 29  0  0  1  0  0  0  0  0999 V2000
    9.0218  -18.0259   20.4882 N   0  0  0  0  0  0  0  0  0  0  0  0
    9.9922  -17.8597   21.5295 C   0  0  1  0  0  0  0  0  0  0  0  0
   11.0928  -16.9166   21.2406 C   0  0  0  0  0  0  0  0  0  0  0  0
   11.9434  -17.2040   20.0473 C   0  0  0  0  0  0  0  0  0  0  0  0
   13.0674  -16.3072   19.8217 C   0  0  0  0  0  0  0  0  0  0  0  0
   13.3399  -15.7495   18.7376 O   0  0  0  0  0  0  0  0  0  0  0  0
    9.3174  -17.6165   22.8301 C   0  0  0  0  0  0  0  0  0  0  0  0
    8.3020  -16.8787   22.8372 O   0  0  0  0  0  0  0  0  0  0  0  0
   13.9250  -16.0424   20.9192 O   0  0  0  0  0  0  0  0  0  0  0  0
    9.7531  -18.1664   24.0508 N   0  0  0  0  0  0  0  0  0  0  0  0
    9.1075  -17.9144   25.3389 C   0  0  1  0  0  0  0  0  0  0  0  0
    9.2398  -19.1684   26.1469 C   0  0  0  0  0  0  0  0  0  0  0  0
   10.5675  -19.7948   26.0999 C   0  0  0  0  0  0  0  0  0  0  0  0
   11.0901  -20.0581   27.2348 O   0  0  0  0  0  0  0  0  0  0  0  0
    9.8648  -16.8528   26.0882 C   0  0  0  0  0  0  0  0  0  0  0  0
   11.0857  -16.7012   25.8295 O   0  0  0  0  0  0  0  0  0  0  0  0
   11.2891  -20.1194   24.9862 O   0  0  0  0  0  0  0  0  0  0  0  0
    9.2691  -16.0340   27.0543 N   0  0  0  0  0  0  0  0  0  0  0  0
   10.0188  -14.9844   27.7727 C   0  0  1  0  0  0  0  0  0  0  0  0
    9.1072  -13.8870   28.2028 C   0  0  0  0  0  0  0  0  0  0  0  0
    8.3112  -13.4069   27.0658 C   0  0  0  0  0  0  0  0  0  0  0  0
    6.9324  -13.2761   27.2181 C   0  0  0  0  0  0  0  0  0  0  0  0
    6.1010  -12.8218   26.2377 C   0  0  0  0  0  0  0  0  0  0  0  0
    6.6357  -12.4616   25.0049 C   0  0  0  0  0  0  0  0  0  0  0  0
    8.0029  -12.5829   24.8304 C   0  0  0  0  0  0  0  0  0  0  0  0
    8.8148  -13.0433   25.8362 C   0  0  0  0  0  0  0  0  0  0  0  0
   10.6817  -15.6278   28.9115 C   0  0  0  0  0  0  0  0  0  0  0  0
   10.4827  -16.9643   29.1703 O   0  0  0  0  0  0  0  0  0  0  0  0
   11.4340  -14.9694   29.6593 O   0  0  0  0  0  0  0  0  0  0  0  0
  2  1  1  6
  2  3  1  0
  2  7  1  0
  3  4  1  0
  4  5  1  0
  5  9  1  0
  5  6  2  0
  7 10  1  0
  7  8  2  0
 10 11  1  0
 11 12  1  1
 13 12  1  0
 13 17  1  0
 14 13  2  0
 15 11  1  0
 15 16  2  0
 18 15  1  0
 19 18  1  0
 19 20  1  1
 21 20  1  0
 21 22  2  0
 23 22  1  0
 24 23  2  0
 25 26  2  0
 25 24  1  0
 26 21  1  0
 27 19  1  0
 28 27  1  0
 29 27  2  0
M  END
$$$$
