EDF.pdb
     RDKit          3D

 29 29  0  0  1  0  0  0  0  0999 V2000
    7.8678  -14.8671   20.8230 N   0  0  0  0  0  0  0  0  0  0  0  0
    7.2351  -15.8563   21.6443 C   0  0  1  0  0  0  0  0  0  0  0  0
    6.3967  -16.8443   20.9333 C   0  0  0  0  0  0  0  0  0  0  0  0
    6.9413  -17.4166   19.6661 C   0  0  0  0  0  0  0  0  0  0  0  0
    6.1761  -18.4973   19.0619 C   0  0  0  0  0  0  0  0  0  0  0  0
    5.1375  -19.0013   19.5392 O   0  0  0  0  0  0  0  0  0  0  0  0
    8.2213  -16.4628   22.5746 C   0  0  0  0  0  0  0  0  0  0  0  0
    7.8239  -17.3734   23.3416 O   0  0  0  0  0  0  0  0  0  0  0  0
    6.6444  -19.0235   17.8314 O   0  0  0  0  0  0  0  0  0  0  0  0
    9.5727  -16.0735   22.6425 N   0  0  0  0  0  0  0  0  0  0  0  0
   10.5585  -16.6901   23.5299 C   0  0  1  0  0  0  0  0  0  0  0  0
   11.9053  -16.4512   22.9202 C   0  0  0  0  0  0  0  0  0  0  0  0
   12.5992  -17.6629   22.4643 C   0  0  0  0  0  0  0  0  0  0  0  0
   12.7686  -18.5647   23.3523 O   0  0  0  0  0  0  0  0  0  0  0  0
   10.5671  -15.9770   24.8541 C   0  0  0  0  0  0  0  0  0  0  0  0
   11.3506  -15.0045   24.9987 O   0  0  0  0  0  0  0  0  0  0  0  0
   13.0743  -17.9206   21.2096 O   0  0  0  0  0  0  0  0  0  0  0  0
    9.7445  -16.3502   25.9230 N   0  0  0  0  0  0  0  0  0  0  0  0
    9.8948  -15.7759   27.2748 C   0  0  1  0  0  0  0  0  0  0  0  0
    8.5942  -15.2408   27.7671 C   0  0  0  0  0  0  0  0  0  0  0  0
    8.2576  -13.9920   27.0715 C   0  0  0  0  0  0  0  0  0  0  0  0
    7.2357  -14.0047   26.1243 C   0  0  0  0  0  0  0  0  0  0  0  0
    6.8274  -12.9017   25.4347 C   0  0  0  0  0  0  0  0  0  0  0  0
    7.4514  -11.6811   25.6723 C   0  0  0  0  0  0  0  0  0  0  0  0
    8.4691  -11.6442   26.6088 C   0  0  0  0  0  0  0  0  0  0  0  0
    8.8583  -12.7713   27.2878 C   0  0  0  0  0  0  0  0  0  0  0  0
   10.4169  -16.8377   28.1411 C   0  0  0  0  0  0  0  0  0  0  0  0
   10.5751  -18.1164   27.6589 O   0  0  0  0  0  0  0  0  0  0  0  0
   10.7233  -16.5927   29.3263 O   0  0  0  0  0  0  0  0  0  0  0  0
  2  1  1  6
  2  3  1  0
  2  7  1  0
  3  4  1  0
  4  5  1  0
  5  9  1  0
  5  6  2  0
  7 10  1  0
  7  8  2  0
 10 11  1  0
 11 12  1  6
 13 12  1  0
 13 17  1  0
 14 13  2  0
 15 11  1  0
 15 16  2  0
 18 15  1  0
 19 18  1  0
 19 20  1  1
 21 20  1  0
 21 22  2  0
 23 22  1  0
 24 23  2  0
 25 26  2  0
 25 24  1  0
 26 21  1  0
 27 19  1  0
 28 27  1  0
 29 27  2  0
M  END
$$$$
