EDF.pdb
     RDKit          3D

 29 29  0  0  1  0  0  0  0  0999 V2000
    9.5754  -16.1025   17.5606 N   0  0  0  0  0  0  0  0  0  0  0  0
    8.7074  -17.0479   18.1980 C   0  0  1  0  0  0  0  0  0  0  0  0
    8.1665  -18.1142   17.3292 C   0  0  0  0  0  0  0  0  0  0  0  0
    9.0051  -18.5422   16.1701 C   0  0  0  0  0  0  0  0  0  0  0  0
    8.4903  -19.6434   15.3696 C   0  0  0  0  0  0  0  0  0  0  0  0
    9.1630  -20.6111   14.9552 O   0  0  0  0  0  0  0  0  0  0  0  0
    9.3226  -17.5491   19.4535 C   0  0  0  0  0  0  0  0  0  0  0  0
    8.6822  -18.3932   20.1264 O   0  0  0  0  0  0  0  0  0  0  0  0
    7.1138  -19.6197   15.0306 O   0  0  0  0  0  0  0  0  0  0  0  0
   10.5805  -17.1307   19.9280 N   0  0  0  0  0  0  0  0  0  0  0  0
   11.1627  -17.5658   21.1973 C   0  0  1  0  0  0  0  0  0  0  0  0
   12.6352  -17.3061   21.1146 C   0  0  0  0  0  0  0  0  0  0  0  0
   13.3394  -18.0739   20.0792 C   0  0  0  0  0  0  0  0  0  0  0  0
   12.9738  -19.2910   19.9552 O   0  0  0  0  0  0  0  0  0  0  0  0
   10.6482  -16.7016   22.3155 C   0  0  0  0  0  0  0  0  0  0  0  0
   11.3664  -15.7460   22.7048 O   0  0  0  0  0  0  0  0  0  0  0  0
   14.3285  -17.6280   19.2490 O   0  0  0  0  0  0  0  0  0  0  0  0
    9.4120  -16.9175   22.9350 N   0  0  0  0  0  0  0  0  0  0  0  0
    8.9236  -16.0713   24.0420 C   0  0  1  0  0  0  0  0  0  0  0  0
    7.5439  -15.5831   23.7622 C   0  0  0  0  0  0  0  0  0  0  0  0
    7.5503  -14.6525   22.6261 C   0  0  0  0  0  0  0  0  0  0  0  0
    6.9773  -15.0574   21.4223 C   0  0  0  0  0  0  0  0  0  0  0  0
    6.9100  -14.2695   20.3116 C   0  0  0  0  0  0  0  0  0  0  0  0
    7.4368  -12.9827   20.3573 C   0  0  0  0  0  0  0  0  0  0  0  0
    8.0110  -12.5585   21.5425 C   0  0  0  0  0  0  0  0  0  0  0  0
    8.0639  -13.3743   22.6445 C   0  0  0  0  0  0  0  0  0  0  0  0
    8.9846  -16.8791   25.2643 C   0  0  0  0  0  0  0  0  0  0  0  0
    9.4063  -18.1877   25.2151 O   0  0  0  0  0  0  0  0  0  0  0  0
    8.6541  -16.3879   26.3635 O   0  0  0  0  0  0  0  0  0  0  0  0
  2  1  1  6
  2  3  1  0
  2  7  1  0
  3  4  1  0
  4  5  1  0
  5  9  1  0
  5  6  2  0
  7 10  1  0
  7  8  2  0
 10 11  1  0
 11 12  1  6
 13 12  1  0
 13 17  1  0
 14 13  2  0
 15 11  1  0
 15 16  2  0
 18 15  1  0
 19 18  1  0
 19 20  1  6
 21 20  1  0
 21 22  2  0
 23 22  1  0
 24 23  2  0
 25 26  2  0
 25 24  1  0
 26 21  1  0
 27 19  1  0
 28 27  1  0
 29 27  2  0
M  END
$$$$
