EDF.pdb
     RDKit          3D

 29 29  0  0  1  0  0  0  0  0999 V2000
    7.5143  -13.0693   19.4352 N   0  0  0  0  0  0  0  0  0  0  0  0
    7.9403  -14.4229   19.6351 C   0  0  1  0  0  0  0  0  0  0  0  0
    9.2853  -14.7579   19.1223 C   0  0  0  0  0  0  0  0  0  0  0  0
   10.4367  -13.9744   19.6612 C   0  0  0  0  0  0  0  0  0  0  0  0
   11.6486  -14.7242   19.9573 C   0  0  0  0  0  0  0  0  0  0  0  0
   12.7135  -14.2343   20.3891 O   0  0  0  0  0  0  0  0  0  0  0  0
    7.7149  -14.8323   21.0450 C   0  0  0  0  0  0  0  0  0  0  0  0
    7.3346  -13.9555   21.8586 O   0  0  0  0  0  0  0  0  0  0  0  0
   11.6223  -16.1249   19.7393 O   0  0  0  0  0  0  0  0  0  0  0  0
    7.9039  -16.1454   21.5165 N   0  0  0  0  0  0  0  0  0  0  0  0
    7.3807  -16.6413   22.7893 C   0  0  1  0  0  0  0  0  0  0  0  0
    7.3402  -18.1352   22.6930 C   0  0  0  0  0  0  0  0  0  0  0  0
    6.7006  -18.8091   23.8306 C   0  0  0  0  0  0  0  0  0  0  0  0
    6.2254  -18.0363   24.7292 O   0  0  0  0  0  0  0  0  0  0  0  0
    8.3472  -16.3201   23.8961 C   0  0  0  0  0  0  0  0  0  0  0  0
    9.5765  -16.3382   23.6335 O   0  0  0  0  0  0  0  0  0  0  0  0
    6.5639  -20.1546   24.0237 O   0  0  0  0  0  0  0  0  0  0  0  0
    7.9355  -16.0048   25.1960 N   0  0  0  0  0  0  0  0  0  0  0  0
    8.8918  -15.6594   26.2665 C   0  0  1  0  0  0  0  0  0  0  0  0
    8.1987  -14.9641   27.3874 C   0  0  0  0  0  0  0  0  0  0  0  0
    7.4813  -13.7823   26.8920 C   0  0  0  0  0  0  0  0  0  0  0  0
    8.2003  -12.7862   26.2345 C   0  0  0  0  0  0  0  0  0  0  0  0
    7.6346  -11.6587   25.7174 C   0  0  0  0  0  0  0  0  0  0  0  0
    6.2619  -11.4682   25.8402 C   0  0  0  0  0  0  0  0  0  0  0  0
    5.5271  -12.4444   26.4894 C   0  0  0  0  0  0  0  0  0  0  0  0
    6.1245  -13.5694   26.9996 C   0  0  0  0  0  0  0  0  0  0  0  0
    9.5256  -16.9083   26.7010 C   0  0  0  0  0  0  0  0  0  0  0  0
    9.1553  -18.1095   26.1419 O   0  0  0  0  0  0  0  0  0  0  0  0
   10.4084  -16.8952   27.5836 O   0  0  0  0  0  0  0  0  0  0  0  0
  2  1  1  1
  2  3  1  0
  2  7  1  0
  3  4  1  0
  4  5  1  0
  5  9  1  0
  5  6  2  0
  7 10  1  0
  7  8  2  0
 10 11  1  0
 11 12  1  6
 13 12  1  0
 13 17  1  0
 14 13  2  0
 15 11  1  0
 15 16  2  0
 18 15  1  0
 19 18  1  0
 19 20  1  1
 21 20  1  0
 21 22  2  0
 23 22  1  0
 24 23  2  0
 25 26  2  0
 25 24  1  0
 26 21  1  0
 27 19  1  0
 28 27  1  0
 29 27  2  0
M  END
$$$$
