EDF.pdb
     RDKit          3D

 29 29  0  0  1  0  0  0  0  0999 V2000
    9.3155  -16.2249   18.6926 N   0  0  0  0  0  0  0  0  0  0  0  0
    8.3377  -16.8234   19.5524 C   0  0  1  0  0  0  0  0  0  0  0  0
    7.4965  -17.8729   18.9398 C   0  0  0  0  0  0  0  0  0  0  0  0
    7.4354  -17.9155   17.4483 C   0  0  0  0  0  0  0  0  0  0  0  0
    6.5688  -18.9286   16.8641 C   0  0  0  0  0  0  0  0  0  0  0  0
    5.9551  -19.8095   17.5028 O   0  0  0  0  0  0  0  0  0  0  0  0
    8.9593  -17.2260   20.8398 C   0  0  0  0  0  0  0  0  0  0  0  0
    8.2512  -17.8541   21.6641 O   0  0  0  0  0  0  0  0  0  0  0  0
    6.4054  -18.9181   15.4557 O   0  0  0  0  0  0  0  0  0  0  0  0
   10.2947  -16.9427   21.1845 N   0  0  0  0  0  0  0  0  0  0  0  0
   10.9117  -17.3271   22.4538 C   0  0  1  0  0  0  0  0  0  0  0  0
   12.3915  -17.3644   22.2269 C   0  0  0  0  0  0  0  0  0  0  0  0
   12.8739  -18.5454   21.4989 C   0  0  0  0  0  0  0  0  0  0  0  0
   13.7035  -18.3083   20.5576 O   0  0  0  0  0  0  0  0  0  0  0  0
   10.6735  -16.2542   23.4805 C   0  0  0  0  0  0  0  0  0  0  0  0
   11.1231  -15.1029   23.2503 O   0  0  0  0  0  0  0  0  0  0  0  0
   12.5326  -19.8495   21.7209 O   0  0  0  0  0  0  0  0  0  0  0  0
    9.9771  -16.4848   24.6723 N   0  0  0  0  0  0  0  0  0  0  0  0
    9.3845  -15.3904   25.4666 C   0  0  1  0  0  0  0  0  0  0  0  0
    8.3368  -14.6782   24.6821 C   0  0  0  0  0  0  0  0  0  0  0  0
    7.6922  -13.6472   25.5057 C   0  0  0  0  0  0  0  0  0  0  0  0
    8.3572  -12.4406   25.7143 C   0  0  0  0  0  0  0  0  0  0  0  0
    7.8449  -11.4088   26.4434 C   0  0  0  0  0  0  0  0  0  0  0  0
    6.5873  -11.5436   27.0230 C   0  0  0  0  0  0  0  0  0  0  0  0
    5.9080  -12.7332   26.8294 C   0  0  0  0  0  0  0  0  0  0  0  0
    6.4493  -13.7546   26.0900 C   0  0  0  0  0  0  0  0  0  0  0  0
    8.8442  -15.9877   26.6920 C   0  0  0  0  0  0  0  0  0  0  0  0
    9.0841  -15.4065   27.9156 O   0  0  0  0  0  0  0  0  0  0  0  0
    8.1604  -17.0309   26.6382 O   0  0  0  0  0  0  0  0  0  0  0  0
  2  1  1  6
  2  3  1  0
  2  7  1  0
  3  4  1  0
  4  5  1  0
  5  9  1  0
  5  6  2  0
  7 10  1  0
  7  8  2  0
 10 11  1  0
 11 12  1  6
 13 12  1  0
 13 17  1  0
 14 13  2  0
 15 11  1  0
 15 16  2  0
 18 15  1  0
 19 18  1  0
 19 20  1  6
 21 20  1  0
 21 22  2  0
 23 22  1  0
 24 23  2  0
 25 26  2  0
 25 24  1  0
 26 21  1  0
 27 19  1  0
 28 27  1  0
 29 27  2  0
M  END
$$$$
