EDF.pdb
     RDKit          3D

 29 29  0  0  1  0  0  0  0  0999 V2000
    8.0911  -14.7520   20.3028 N   0  0  0  0  0  0  0  0  0  0  0  0
    7.3843  -15.8016   20.9754 C   0  0  1  0  0  0  0  0  0  0  0  0
    6.6780  -16.7643   20.1044 C   0  0  0  0  0  0  0  0  0  0  0  0
    7.4209  -17.2852   18.9183 C   0  0  0  0  0  0  0  0  0  0  0  0
    6.7307  -18.2760   18.1054 C   0  0  0  0  0  0  0  0  0  0  0  0
    7.1172  -18.6937   16.9934 O   0  0  0  0  0  0  0  0  0  0  0  0
    8.2555  -16.4398   21.9951 C   0  0  0  0  0  0  0  0  0  0  0  0
    7.7710  -17.3710   22.6832 O   0  0  0  0  0  0  0  0  0  0  0  0
    5.5211  -18.8132   18.6138 O   0  0  0  0  0  0  0  0  0  0  0  0
    9.5903  -16.0587   22.2307 N   0  0  0  0  0  0  0  0  0  0  0  0
   10.4709  -16.7157   23.1963 C   0  0  1  0  0  0  0  0  0  0  0  0
   11.8776  -16.4467   22.7586 C   0  0  0  0  0  0  0  0  0  0  0  0
   12.4340  -17.4382   21.8286 C   0  0  0  0  0  0  0  0  0  0  0  0
   13.5756  -17.1476   21.3358 O   0  0  0  0  0  0  0  0  0  0  0  0
   10.3216  -16.0663   24.5446 C   0  0  0  0  0  0  0  0  0  0  0  0
   10.8097  -14.9193   24.7075 O   0  0  0  0  0  0  0  0  0  0  0  0
   11.8661  -18.6192   21.4427 O   0  0  0  0  0  0  0  0  0  0  0  0
    9.6665  -16.6834   25.6163 N   0  0  0  0  0  0  0  0  0  0  0  0
    9.5689  -16.0574   26.9499 C   0  0  1  0  0  0  0  0  0  0  0  0
    8.1534  -15.7204   27.2709 C   0  0  0  0  0  0  0  0  0  0  0  0
    7.8335  -14.3622   26.8129 C   0  0  0  0  0  0  0  0  0  0  0  0
    6.7603  -14.1815   25.9429 C   0  0  0  0  0  0  0  0  0  0  0  0
    6.3629  -12.9656   25.4713 C   0  0  0  0  0  0  0  0  0  0  0  0
    7.0525  -11.8238   25.8669 C   0  0  0  0  0  0  0  0  0  0  0  0
    8.1221  -11.9787   26.7308 C   0  0  0  0  0  0  0  0  0  0  0  0
    8.4988  -13.2160   27.1891 C   0  0  0  0  0  0  0  0  0  0  0  0
   10.1427  -17.0010   27.9146 C   0  0  0  0  0  0  0  0  0  0  0  0
   10.3819  -16.6124   29.2125 O   0  0  0  0  0  0  0  0  0  0  0  0
   10.4207  -18.1679   27.5685 O   0  0  0  0  0  0  0  0  0  0  0  0
  2  1  1  6
  2  3  1  0
  2  7  1  0
  3  4  1  0
  4  5  1  0
  5  9  1  0
  5  6  2  0
  7 10  1  0
  7  8  2  0
 10 11  1  0
 11 12  1  6
 13 12  1  0
 13 17  1  0
 14 13  2  0
 15 11  1  0
 15 16  2  0
 18 15  1  0
 19 18  1  0
 19 20  1  1
 21 20  1  0
 21 22  2  0
 23 22  1  0
 24 23  2  0
 25 26  2  0
 25 24  1  0
 26 21  1  0
 27 19  1  0
 28 27  1  0
 29 27  2  0
M  END
$$$$
