EDF.pdb
     RDKit          3D

 29 29  0  0  1  0  0  0  0  0999 V2000
    8.6917  -17.1747   19.1079 N   0  0  0  0  0  0  0  0  0  0  0  0
    8.1275  -17.0714   20.4212 C   0  0  1  0  0  0  0  0  0  0  0  0
    6.8807  -17.8316   20.6488 C   0  0  0  0  0  0  0  0  0  0  0  0
    6.2561  -17.7304   22.0015 C   0  0  0  0  0  0  0  0  0  0  0  0
    5.0609  -18.5306   22.2247 C   0  0  0  0  0  0  0  0  0  0  0  0
    4.3226  -18.4608   23.2299 O   0  0  0  0  0  0  0  0  0  0  0  0
    9.1714  -17.3055   21.4515 C   0  0  0  0  0  0  0  0  0  0  0  0
    9.4394  -18.4926   21.7585 O   0  0  0  0  0  0  0  0  0  0  0  0
    4.7023  -19.4666   21.2220 O   0  0  0  0  0  0  0  0  0  0  0  0
    9.8740  -16.2720   22.1001 N   0  0  0  0  0  0  0  0  0  0  0  0
   10.8739  -16.4923   23.1448 C   0  0  1  0  0  0  0  0  0  0  0  0
   12.0606  -15.6465   22.7993 C   0  0  0  0  0  0  0  0  0  0  0  0
   13.2735  -15.9408   23.5736 C   0  0  0  0  0  0  0  0  0  0  0  0
   13.3192  -17.1029   24.1007 O   0  0  0  0  0  0  0  0  0  0  0  0
   10.3591  -15.9728   24.4590 C   0  0  0  0  0  0  0  0  0  0  0  0
   10.4857  -14.7459   24.7021 O   0  0  0  0  0  0  0  0  0  0  0  0
   14.3402  -15.1137   23.7846 O   0  0  0  0  0  0  0  0  0  0  0  0
    9.7500  -16.7945   25.4142 N   0  0  0  0  0  0  0  0  0  0  0  0
    9.5130  -16.3519   26.8026 C   0  0  1  0  0  0  0  0  0  0  0  0
    8.0914  -15.9472   26.9908 C   0  0  0  0  0  0  0  0  0  0  0  0
    7.8990  -14.5484   26.5868 C   0  0  0  0  0  0  0  0  0  0  0  0
    8.4073  -13.5378   27.4003 C   0  0  0  0  0  0  0  0  0  0  0  0
    8.3041  -12.2091   27.1128 C   0  0  0  0  0  0  0  0  0  0  0  0
    7.6584  -11.8136   25.9456 C   0  0  0  0  0  0  0  0  0  0  0  0
    7.1455  -12.7999   25.1219 C   0  0  0  0  0  0  0  0  0  0  0  0
    7.2650  -14.1299   25.4376 C   0  0  0  0  0  0  0  0  0  0  0  0
    9.8903  -17.4630   27.6820 C   0  0  0  0  0  0  0  0  0  0  0  0
   10.2902  -18.6676   27.1514 O   0  0  0  0  0  0  0  0  0  0  0  0
    9.8525  -17.3279   28.9226 O   0  0  0  0  0  0  0  0  0  0  0  0
  2  1  1  6
  2  3  1  0
  2  7  1  0
  3  4  1  0
  4  5  1  0
  5  9  1  0
  5  6  2  0
  7 10  1  0
  7  8  2  0
 10 11  1  0
 11 12  1  6
 13 12  1  0
 13 17  1  0
 14 13  2  0
 15 11  1  0
 15 16  2  0
 18 15  1  0
 19 18  1  0
 19 20  1  6
 21 20  1  0
 21 22  2  0
 23 22  1  0
 24 23  2  0
 25 26  2  0
 25 24  1  0
 26 21  1  0
 27 19  1  0
 28 27  1  0
 29 27  2  0
M  END
$$$$
