EDF.pdb
     RDKit          3D

 29 29  0  0  1  0  0  0  0  0999 V2000
   10.9447  -19.1722   21.5632 N   0  0  0  0  0  0  0  0  0  0  0  0
   11.6846  -18.0280   21.1194 C   0  0  1  0  0  0  0  0  0  0  0  0
   12.3289  -18.1509   19.7950 C   0  0  0  0  0  0  0  0  0  0  0  0
   11.4859  -18.6524   18.6690 C   0  0  0  0  0  0  0  0  0  0  0  0
   11.5703  -17.9138   17.4176 C   0  0  0  0  0  0  0  0  0  0  0  0
   10.6097  -17.3669   16.8357 O   0  0  0  0  0  0  0  0  0  0  0  0
   10.8740  -16.7941   21.2819 C   0  0  0  0  0  0  0  0  0  0  0  0
   11.4041  -15.6977   20.9783 O   0  0  0  0  0  0  0  0  0  0  0  0
   12.8449  -17.8038   16.8063 O   0  0  0  0  0  0  0  0  0  0  0  0
    9.5483  -16.7875   21.7559 N   0  0  0  0  0  0  0  0  0  0  0  0
    8.8673  -15.5977   22.2661 C   0  0  1  0  0  0  0  0  0  0  0  0
    7.4065  -15.9221   22.3261 C   0  0  0  0  0  0  0  0  0  0  0  0
    6.7883  -16.2239   21.0284 C   0  0  0  0  0  0  0  0  0  0  0  0
    7.5842  -16.2290   20.0298 O   0  0  0  0  0  0  0  0  0  0  0  0
    9.2954  -15.3354   23.6838 C   0  0  0  0  0  0  0  0  0  0  0  0
   10.1513  -14.4375   23.8882 O   0  0  0  0  0  0  0  0  0  0  0  0
    5.4720  -16.4952   20.7831 O   0  0  0  0  0  0  0  0  0  0  0  0
    8.7832  -16.0456   24.7756 N   0  0  0  0  0  0  0  0  0  0  0  0
    9.2095  -15.7780   26.1635 C   0  0  1  0  0  0  0  0  0  0  0  0
    8.0410  -15.4088   27.0112 C   0  0  0  0  0  0  0  0  0  0  0  0
    7.5270  -14.0875   26.6280 C   0  0  0  0  0  0  0  0  0  0  0  0
    8.2782  -12.9569   26.9427 C   0  0  0  0  0  0  0  0  0  0  0  0
    7.9074  -11.6858   26.6179 C   0  0  0  0  0  0  0  0  0  0  0  0
    6.7143  -11.4790   25.9327 C   0  0  0  0  0  0  0  0  0  0  0  0
    5.9516  -12.5871   25.6093 C   0  0  0  0  0  0  0  0  0  0  0  0
    6.3509  -13.8550   25.9494 C   0  0  0  0  0  0  0  0  0  0  0  0
    9.8833  -16.9860   26.6504 C   0  0  0  0  0  0  0  0  0  0  0  0
   10.0162  -18.0867   25.8359 O   0  0  0  0  0  0  0  0  0  0  0  0
   10.3436  -17.0289   27.8101 O   0  0  0  0  0  0  0  0  0  0  0  0
  2  1  1  6
  2  3  1  0
  2  7  1  0
  3  4  1  0
  4  5  1  0
  5  9  1  0
  5  6  2  0
  7 10  1  0
  7  8  2  0
 10 11  1  0
 11 12  1  1
 13 12  1  0
 13 17  1  0
 14 13  2  0
 15 11  1  0
 15 16  2  0
 18 15  1  0
 19 18  1  0
 19 20  1  1
 21 20  1  0
 21 22  2  0
 23 22  1  0
 24 23  2  0
 25 26  2  0
 25 24  1  0
 26 21  1  0
 27 19  1  0
 28 27  1  0
 29 27  2  0
M  END
$$$$
