EDF.pdb
     RDKit          3D

 29 29  0  0  1  0  0  0  0  0999 V2000
    9.7106  -14.8138   19.7841 N   0  0  0  0  0  0  0  0  0  0  0  0
    8.4397  -15.2099   20.3146 C   0  0  1  0  0  0  0  0  0  0  0  0
    7.4595  -15.7151   19.3306 C   0  0  0  0  0  0  0  0  0  0  0  0
    7.9660  -16.6435   18.2763 C   0  0  0  0  0  0  0  0  0  0  0  0
    6.9895  -17.1168   17.3063 C   0  0  0  0  0  0  0  0  0  0  0  0
    6.0510  -17.9038   17.5516 O   0  0  0  0  0  0  0  0  0  0  0  0
    8.6252  -16.0991   21.4897 C   0  0  0  0  0  0  0  0  0  0  0  0
    7.5987  -16.5236   22.0742 O   0  0  0  0  0  0  0  0  0  0  0  0
    7.1100  -16.6487   15.9733 O   0  0  0  0  0  0  0  0  0  0  0  0
    9.8850  -16.4905   21.9818 N   0  0  0  0  0  0  0  0  0  0  0  0
   10.0774  -17.3260   23.1669 C   0  0  1  0  0  0  0  0  0  0  0  0
   11.0728  -18.3829   22.7997 C   0  0  0  0  0  0  0  0  0  0  0  0
   11.4422  -19.2890   23.8950 C   0  0  0  0  0  0  0  0  0  0  0  0
   10.5113  -20.0602   24.3063 O   0  0  0  0  0  0  0  0  0  0  0  0
   10.7137  -16.5156   24.2625 C   0  0  0  0  0  0  0  0  0  0  0  0
   11.8967  -16.1231   24.0990 O   0  0  0  0  0  0  0  0  0  0  0  0
   12.6583  -19.3904   24.5092 O   0  0  0  0  0  0  0  0  0  0  0  0
   10.0464  -16.1841   25.4473 N   0  0  0  0  0  0  0  0  0  0  0  0
   10.6893  -15.4086   26.5266 C   0  0  1  0  0  0  0  0  0  0  0  0
   10.4776  -13.9478   26.3232 C   0  0  0  0  0  0  0  0  0  0  0  0
    9.0434  -13.6319   26.3300 C   0  0  0  0  0  0  0  0  0  0  0  0
    8.2998  -13.8581   25.1736 C   0  0  0  0  0  0  0  0  0  0  0  0
    6.9610  -13.6203   25.0744 C   0  0  0  0  0  0  0  0  0  0  0  0
    6.2747  -13.1230   26.1777 C   0  0  0  0  0  0  0  0  0  0  0  0
    6.9924  -12.8906   27.3375 C   0  0  0  0  0  0  0  0  0  0  0  0
    8.3400  -13.1399   27.4074 C   0  0  0  0  0  0  0  0  0  0  0  0
   10.1199  -15.8763   27.7945 C   0  0  0  0  0  0  0  0  0  0  0  0
   10.6231  -15.4261   28.9931 O   0  0  0  0  0  0  0  0  0  0  0  0
    9.1718  -16.6886   27.7999 O   0  0  0  0  0  0  0  0  0  0  0  0
  2  1  1  6
  2  3  1  0
  2  7  1  0
  3  4  1  0
  4  5  1  0
  5  9  1  0
  5  6  2  0
  7 10  1  0
  7  8  2  0
 10 11  1  0
 11 12  1  6
 13 12  1  0
 13 17  1  0
 14 13  2  0
 15 11  1  0
 15 16  2  0
 18 15  1  0
 19 18  1  0
 19 20  1  6
 21 20  1  0
 21 22  2  0
 23 22  1  0
 24 23  2  0
 25 26  2  0
 25 24  1  0
 26 21  1  0
 27 19  1  0
 28 27  1  0
 29 27  2  0
M  END
$$$$
