EDF.pdb
     RDKit          3D

 29 29  0  0  1  0  0  0  0  0999 V2000
    8.8676  -15.8785   19.6114 N   0  0  0  0  0  0  0  0  0  0  0  0
    8.1050  -16.0360   20.8144 C   0  0  1  0  0  0  0  0  0  0  0  0
    6.8115  -16.7364   20.6708 C   0  0  0  0  0  0  0  0  0  0  0  0
    6.8538  -18.1734   20.2665 C   0  0  0  0  0  0  0  0  0  0  0  0
    5.5756  -18.8670   20.2050 C   0  0  0  0  0  0  0  0  0  0  0  0
    4.4687  -18.3687   20.4999 O   0  0  0  0  0  0  0  0  0  0  0  0
    8.9619  -16.5724   21.9025 C   0  0  0  0  0  0  0  0  0  0  0  0
    8.5475  -17.5712   22.5397 O   0  0  0  0  0  0  0  0  0  0  0  0
    5.5833  -20.2182   19.7757 O   0  0  0  0  0  0  0  0  0  0  0  0
   10.2092  -16.0235   22.2567 N   0  0  0  0  0  0  0  0  0  0  0  0
   11.0281  -16.5030   23.3698 C   0  0  1  0  0  0  0  0  0  0  0  0
   12.4158  -15.9863   23.1459 C   0  0  0  0  0  0  0  0  0  0  0  0
   13.0675  -16.4790   21.9252 C   0  0  0  0  0  0  0  0  0  0  0  0
   13.1060  -17.7490   21.7985 O   0  0  0  0  0  0  0  0  0  0  0  0
   10.5535  -15.8820   24.6547 C   0  0  0  0  0  0  0  0  0  0  0  0
   10.5358  -14.6275   24.7358 O   0  0  0  0  0  0  0  0  0  0  0  0
   13.6274  -15.7316   20.9281 O   0  0  0  0  0  0  0  0  0  0  0  0
   10.1344  -16.6390   25.7547 N   0  0  0  0  0  0  0  0  0  0  0  0
    9.6688  -16.0183   27.0107 C   0  0  1  0  0  0  0  0  0  0  0  0
    8.1806  -16.0316   27.0845 C   0  0  0  0  0  0  0  0  0  0  0  0
    7.6331  -14.7501   26.6210 C   0  0  0  0  0  0  0  0  0  0  0  0
    8.2366  -13.5683   27.0459 C   0  0  0  0  0  0  0  0  0  0  0  0
    7.8248  -12.3264   26.6628 C   0  0  0  0  0  0  0  0  0  0  0  0
    6.7414  -12.2052   25.7983 C   0  0  0  0  0  0  0  0  0  0  0  0
    6.1261  -13.3654   25.3630 C   0  0  0  0  0  0  0  0  0  0  0  0
    6.5634  -14.6022   25.7656 C   0  0  0  0  0  0  0  0  0  0  0  0
   10.2816  -16.7631   28.1153 C   0  0  0  0  0  0  0  0  0  0  0  0
   11.0240  -17.8942   27.8666 O   0  0  0  0  0  0  0  0  0  0  0  0
   10.1359  -16.3787   29.2942 O   0  0  0  0  0  0  0  0  0  0  0  0
  2  1  1  6
  2  3  1  0
  2  7  1  0
  3  4  1  0
  4  5  1  0
  5  9  1  0
  5  6  2  0
  7 10  1  0
  7  8  2  0
 10 11  1  0
 11 12  1  6
 13 12  1  0
 13 17  1  0
 14 13  2  0
 15 11  1  0
 15 16  2  0
 18 15  1  0
 19 18  1  0
 19 20  1  1
 21 20  1  0
 21 22  2  0
 23 22  1  0
 24 23  2  0
 25 26  2  0
 25 24  1  0
 26 21  1  0
 27 19  1  0
 28 27  1  0
 29 27  2  0
M  END
$$$$
