EDF.pdb
     RDKit          3D

 29 29  0  0  1  0  0  0  0  0999 V2000
    9.0960  -13.6818   20.1087 N   0  0  0  0  0  0  0  0  0  0  0  0
    7.9379  -14.4782   20.3883 C   0  0  1  0  0  0  0  0  0  0  0  0
    7.1880  -14.9615   19.2100 C   0  0  0  0  0  0  0  0  0  0  0  0
    7.9664  -15.6604   18.1443 C   0  0  0  0  0  0  0  0  0  0  0  0
    7.1945  -16.2587   17.0650 C   0  0  0  0  0  0  0  0  0  0  0  0
    6.3087  -17.1281   17.2067 O   0  0  0  0  0  0  0  0  0  0  0  0
    8.2682  -15.5432   21.3695 C   0  0  0  0  0  0  0  0  0  0  0  0
    7.3278  -16.2454   21.8144 O   0  0  0  0  0  0  0  0  0  0  0  0
    7.4671  -15.8217   15.7440 O   0  0  0  0  0  0  0  0  0  0  0  0
    9.5738  -15.8070   21.8257 N   0  0  0  0  0  0  0  0  0  0  0  0
    9.9094  -16.8626   22.7810 C   0  0  1  0  0  0  0  0  0  0  0  0
   11.3363  -17.2418   22.5301 C   0  0  0  0  0  0  0  0  0  0  0  0
   11.5638  -18.0027   21.2945 C   0  0  0  0  0  0  0  0  0  0  0  0
   10.8478  -19.0509   21.1564 O   0  0  0  0  0  0  0  0  0  0  0  0
    9.8627  -16.3151   24.1810 C   0  0  0  0  0  0  0  0  0  0  0  0
   10.6375  -15.3694   24.4740 O   0  0  0  0  0  0  0  0  0  0  0  0
   12.4473  -17.7099   20.2945 O   0  0  0  0  0  0  0  0  0  0  0  0
    8.9981  -16.8128   25.1626 N   0  0  0  0  0  0  0  0  0  0  0  0
    8.9792  -16.2849   26.5413 C   0  0  1  0  0  0  0  0  0  0  0  0
    7.6117  -15.8212   26.9088 C   0  0  0  0  0  0  0  0  0  0  0  0
    7.4416  -14.4036   26.5650 C   0  0  0  0  0  0  0  0  0  0  0  0
    6.2747  -14.0046   25.9163 C   0  0  0  0  0  0  0  0  0  0  0  0
    6.0038  -12.7145   25.5687 C   0  0  0  0  0  0  0  0  0  0  0  0
    6.9299  -11.7202   25.8679 C   0  0  0  0  0  0  0  0  0  0  0  0
    8.0962  -12.0929   26.5121 C   0  0  0  0  0  0  0  0  0  0  0  0
    8.3413  -13.4001   26.8498 C   0  0  0  0  0  0  0  0  0  0  0  0
    9.4525  -17.3573   27.4224 C   0  0  0  0  0  0  0  0  0  0  0  0
    9.8023  -17.0862   28.7250 O   0  0  0  0  0  0  0  0  0  0  0  0
    9.5434  -18.5285   26.9998 O   0  0  0  0  0  0  0  0  0  0  0  0
  2  1  1  6
  2  3  1  0
  2  7  1  0
  3  4  1  0
  4  5  1  0
  5  9  1  0
  5  6  2  0
  7 10  1  0
  7  8  2  0
 10 11  1  0
 11 12  1  6
 13 12  1  0
 13 17  1  0
 14 13  2  0
 15 11  1  0
 15 16  2  0
 18 15  1  0
 19 18  1  0
 19 20  1  1
 21 20  1  0
 21 22  2  0
 23 22  1  0
 24 23  2  0
 25 26  2  0
 25 24  1  0
 26 21  1  0
 27 19  1  0
 28 27  1  0
 29 27  2  0
M  END
$$$$
