EDF.pdb
     RDKit          3D

 29 29  0  0  1  0  0  0  0  0999 V2000
    8.8093  -12.7197   20.2157 N   0  0  0  0  0  0  0  0  0  0  0  0
    7.7874  -13.6930   19.9668 C   0  0  1  0  0  0  0  0  0  0  0  0
    7.5272  -14.0057   18.5460 C   0  0  0  0  0  0  0  0  0  0  0  0
    8.6449  -14.6139   17.7644 C   0  0  0  0  0  0  0  0  0  0  0  0
    8.3212  -15.0749   16.4223 C   0  0  0  0  0  0  0  0  0  0  0  0
    7.1987  -14.9898   15.8807 O   0  0  0  0  0  0  0  0  0  0  0  0
    7.9979  -14.8919   20.8179 C   0  0  0  0  0  0  0  0  0  0  0  0
    7.0297  -15.6732   20.9836 O   0  0  0  0  0  0  0  0  0  0  0  0
    9.3619  -15.6693   15.6648 O   0  0  0  0  0  0  0  0  0  0  0  0
    9.2199  -15.1987   21.4463 N   0  0  0  0  0  0  0  0  0  0  0  0
    9.4333  -16.3726   22.2924 C   0  0  1  0  0  0  0  0  0  0  0  0
   10.8299  -16.8484   22.0359 C   0  0  0  0  0  0  0  0  0  0  0  0
   11.0046  -18.3057   22.0916 C   0  0  0  0  0  0  0  0  0  0  0  0
   12.1892  -18.7250   21.8648 O   0  0  0  0  0  0  0  0  0  0  0  0
    9.3885  -15.9703   23.7409 C   0  0  0  0  0  0  0  0  0  0  0  0
   10.1112  -15.0110   24.1124 O   0  0  0  0  0  0  0  0  0  0  0  0
   10.0470  -19.2433   22.3564 O   0  0  0  0  0  0  0  0  0  0  0  0
    8.5810  -16.6164   24.6839 N   0  0  0  0  0  0  0  0  0  0  0  0
    8.6379  -16.2981   26.1245 C   0  0  1  0  0  0  0  0  0  0  0  0
    7.3177  -15.8033   26.6068 C   0  0  0  0  0  0  0  0  0  0  0  0
    7.1962  -14.3582   26.3748 C   0  0  0  0  0  0  0  0  0  0  0  0
    7.8194  -13.4807   27.2597 C   0  0  0  0  0  0  0  0  0  0  0  0
    7.7889  -12.1239   27.1294 C   0  0  0  0  0  0  0  0  0  0  0  0
    7.1026  -11.5582   26.0596 C   0  0  0  0  0  0  0  0  0  0  0  0
    6.4759  -12.4102   25.1676 C   0  0  0  0  0  0  0  0  0  0  0  0
    6.5241  -13.7725   25.3246 C   0  0  0  0  0  0  0  0  0  0  0  0
    9.0568  -17.5182   26.8217 C   0  0  0  0  0  0  0  0  0  0  0  0
    9.1750  -18.7063   26.1382 O   0  0  0  0  0  0  0  0  0  0  0  0
    9.3107  -17.4922   28.0437 O   0  0  0  0  0  0  0  0  0  0  0  0
  2  1  1  6
  2  3  1  0
  2  7  1  0
  3  4  1  0
  4  5  1  0
  5  9  1  0
  5  6  2  0
  7 10  1  0
  7  8  2  0
 10 11  1  0
 11 12  1  6
 13 12  1  0
 13 17  1  0
 14 13  2  0
 15 11  1  0
 15 16  2  0
 18 15  1  0
 19 18  1  0
 19 20  1  1
 21 20  1  0
 21 22  2  0
 23 22  1  0
 24 23  2  0
 25 26  2  0
 25 24  1  0
 26 21  1  0
 27 19  1  0
 28 27  1  0
 29 27  2  0
M  END
$$$$
