EDF.pdb
     RDKit          3D

 29 29  0  0  1  0  0  0  0  0999 V2000
    8.8695  -12.6973   19.6914 N   0  0  0  0  0  0  0  0  0  0  0  0
    7.8385  -13.6890   19.6061 C   0  0  1  0  0  0  0  0  0  0  0  0
    7.3586  -14.0045   18.2443 C   0  0  0  0  0  0  0  0  0  0  0  0
    8.3523  -13.9195   17.1328 C   0  0  0  0  0  0  0  0  0  0  0  0
    8.2127  -14.8964   16.0629 C   0  0  0  0  0  0  0  0  0  0  0  0
    8.9729  -15.0014   15.0772 O   0  0  0  0  0  0  0  0  0  0  0  0
    8.2048  -14.8850   20.4069 C   0  0  0  0  0  0  0  0  0  0  0  0
    7.3797  -15.8289   20.4659 O   0  0  0  0  0  0  0  0  0  0  0  0
    7.1267  -15.8045   16.1422 O   0  0  0  0  0  0  0  0  0  0  0  0
    9.4229  -15.0171   21.1007 N   0  0  0  0  0  0  0  0  0  0  0  0
    9.7783  -16.1778   21.9167 C   0  0  1  0  0  0  0  0  0  0  0  0
   11.2277  -16.4604   21.6670 C   0  0  0  0  0  0  0  0  0  0  0  0
   11.7463  -17.6599   22.3374 C   0  0  0  0  0  0  0  0  0  0  0  0
   10.8680  -18.5248   22.6706 O   0  0  0  0  0  0  0  0  0  0  0  0
    9.6664  -15.8277   23.3751 C   0  0  0  0  0  0  0  0  0  0  0  0
   10.4316  -14.9413   23.8325 O   0  0  0  0  0  0  0  0  0  0  0  0
   13.0493  -17.9414   22.6365 O   0  0  0  0  0  0  0  0  0  0  0  0
    8.7517  -16.4446   24.2361 N   0  0  0  0  0  0  0  0  0  0  0  0
    8.6486  -16.0907   25.6658 C   0  0  1  0  0  0  0  0  0  0  0  0
    7.2507  -15.7105   26.0145 C   0  0  0  0  0  0  0  0  0  0  0  0
    7.1316  -14.2518   26.1365 C   0  0  0  0  0  0  0  0  0  0  0  0
    6.0047  -13.6231   25.6107 C   0  0  0  0  0  0  0  0  0  0  0  0
    5.7819  -12.2802   25.6850 C   0  0  0  0  0  0  0  0  0  0  0  0
    6.7188  -11.4688   26.3171 C   0  0  0  0  0  0  0  0  0  0  0  0
    7.8461  -12.0711   26.8470 C   0  0  0  0  0  0  0  0  0  0  0  0
    8.0430  -13.4260   26.7571 C   0  0  0  0  0  0  0  0  0  0  0  0
    9.1117  -17.2508   26.4339 C   0  0  0  0  0  0  0  0  0  0  0  0
    8.8224  -18.5277   26.0112 O   0  0  0  0  0  0  0  0  0  0  0  0
    9.7737  -17.0924   27.4804 O   0  0  0  0  0  0  0  0  0  0  0  0
  2  1  1  6
  2  3  1  0
  2  7  1  0
  3  4  1  0
  4  5  1  0
  5  9  1  0
  5  6  2  0
  7 10  1  0
  7  8  2  0
 10 11  1  0
 11 12  1  1
 13 12  1  0
 13 17  1  0
 14 13  2  0
 15 11  1  0
 15 16  2  0
 18 15  1  0
 19 18  1  0
 19 20  1  1
 21 20  1  0
 21 22  2  0
 23 22  1  0
 24 23  2  0
 25 26  2  0
 25 24  1  0
 26 21  1  0
 27 19  1  0
 28 27  1  0
 29 27  2  0
M  END
$$$$
