SKL.pdb
     RDKit          3D

 24 23  0  0  1  0  0  0  0  0999 V2000
   17.5268  -18.2103    4.4495 O   0  0  0  0  0  0  0  0  0  0  0  0
   16.8731  -18.8620    5.4611 C   0  0  0  0  0  0  0  0  0  0  0  0
   15.6425  -18.1369    5.9529 C   0  0  2  0  0  0  0  0  0  0  0  0
   14.6897  -17.9594    4.8833 N   0  0  0  0  0  0  0  0  0  0  0  0
   15.9729  -16.8511    6.6095 C   0  0  0  0  0  0  0  0  0  0  0  0
   15.7140  -15.7912    5.9893 O   0  0  0  0  0  0  0  0  0  0  0  0
   16.5554  -16.7912    7.8799 N   0  0  0  0  0  0  0  0  0  0  0  0
   16.9080  -15.5769    8.5748 C   0  0  1  0  0  0  0  0  0  0  0  0
   17.1662  -15.9667   10.0367 C   0  0  0  0  0  0  0  0  0  0  0  0
   17.3436  -14.6803   10.8390 C   0  0  0  0  0  0  0  0  0  0  0  0
   17.5489  -15.0876   12.2752 C   0  0  0  0  0  0  0  0  0  0  0  0
   17.6487  -13.8645   13.1288 C   0  0  0  0  0  0  0  0  0  0  0  0
   17.7436  -14.2664   14.5080 N   0  0  0  0  0  0  0  0  0  0  0  0
   18.1347  -14.9459    8.0706 C   0  0  0  0  0  0  0  0  0  0  0  0
   18.9588  -15.5457    7.3438 O   0  0  0  0  0  0  0  0  0  0  0  0
   20.3045  -10.1814    6.4629 C   0  0  0  0  0  0  0  0  0  0  0  0
   20.0184  -11.5083    5.6881 C   0  0  1  0  0  0  0  0  0  0  0  0
   21.3739  -12.1660    5.4544 C   0  0  0  0  0  0  0  0  0  0  0  0
   19.0900  -12.3347    6.5029 C   0  0  0  0  0  0  0  0  0  0  0  0
   19.5387  -12.8842    7.7846 C   0  0  2  0  0  0  0  0  0  0  0  0
   18.3863  -13.6011    8.4280 N   0  0  0  0  0  0  0  0  0  0  0  0
   20.2264  -12.0935    8.7794 C   0  0  0  0  0  0  0  0  0  0  0  0
   19.7712  -11.5218    9.7904 O   0  0  0  0  0  0  0  0  0  0  0  0
   21.6309  -11.9277    8.6003 O   0  0  0  0  0  0  0  0  0  0  0  0
  2  1  1  0
  3  2  1  0
  3  4  1  6
  5  6  2  0
  5  3  1  0
  7  5  1  0
  8  9  1  1
  8  7  1  0
  9 10  1  0
 11 10  1  0
 11 12  1  0
 12 13  1  0
 14  8  1  0
 15 14  2  0
 17 16  1  1
 18 17  1  0
 19 17  1  0
 20 19  1  6
 20 21  1  0
 21 14  1  0
 22 24  1  0
 22 20  1  0
 23 22  2  0
M  END
$$$$
