SKL.pdb
     RDKit          3D

 24 23  0  0  1  0  0  0  0  0999 V2000
   22.3173  -15.0651  -17.6570 O   0  0  0  0  0  0  0  0  0  0  0  0
   21.2945  -15.2478  -18.5491 C   0  0  0  0  0  0  0  0  0  0  0  0
   21.4123  -14.3928  -19.7889 C   0  0  2  0  0  0  0  0  0  0  0  0
   22.4833  -14.8614  -20.6356 N   0  0  0  0  0  0  0  0  0  0  0  0
   21.5590  -12.9545  -19.4676 C   0  0  0  0  0  0  0  0  0  0  0  0
   22.7167  -12.4700  -19.4574 O   0  0  0  0  0  0  0  0  0  0  0  0
   20.4592  -12.1391  -19.1808 N   0  0  0  0  0  0  0  0  0  0  0  0
   20.5304  -10.7379  -18.8440 C   0  0  1  0  0  0  0  0  0  0  0  0
   19.0832  -10.2391  -18.7323 C   0  0  0  0  0  0  0  0  0  0  0  0
   18.5023  -10.1709  -20.1422 C   0  0  0  0  0  0  0  0  0  0  0  0
   17.0693   -9.7262  -20.0018 C   0  0  0  0  0  0  0  0  0  0  0  0
   16.4286   -9.6821  -21.3516 C   0  0  0  0  0  0  0  0  0  0  0  0
   15.0213   -9.4244  -21.1901 N   0  0  0  0  0  0  0  0  0  0  0  0
   21.1807  -10.4757  -17.5534 C   0  0  0  0  0  0  0  0  0  0  0  0
   21.0288  -11.2127  -16.5530 O   0  0  0  0  0  0  0  0  0  0  0  0
   24.3202  -10.6159  -13.9057 C   0  0  0  0  0  0  0  0  0  0  0  0
   24.9209   -9.6767  -15.0012 C   0  0  1  0  0  0  0  0  0  0  0  0
   26.3322  -10.1860  -15.2718 C   0  0  0  0  0  0  0  0  0  0  0  0
   24.0345   -9.7219  -16.1932 C   0  0  0  0  0  0  0  0  0  0  0  0
   22.7202   -9.0763  -16.1480 C   0  0  2  0  0  0  0  0  0  0  0  0
   22.0133   -9.3377  -17.4472 N   0  0  0  0  0  0  0  0  0  0  0  0
   22.5386   -7.6924  -15.7740 C   0  0  0  0  0  0  0  0  0  0  0  0
   22.6589   -6.6621  -16.4669 O   0  0  0  0  0  0  0  0  0  0  0  0
   22.1683   -7.4430  -14.4202 O   0  0  0  0  0  0  0  0  0  0  0  0
  2  1  1  0
  3  2  1  0
  3  4  1  1
  5  6  2  0
  5  3  1  0
  7  5  1  0
  8  9  1  1
  8  7  1  0
  9 10  1  0
 11 10  1  0
 11 12  1  0
 12 13  1  0
 14  8  1  0
 15 14  2  0
 17 16  1  1
 18 17  1  0
 19 17  1  0
 20 19  1  6
 20 21  1  0
 21 14  1  0
 22 24  1  0
 22 20  1  0
 23 22  2  0
M  END
$$$$
