SKL.pdb
     RDKit          3D

 24 23  0  0  1  0  0  0  0  0999 V2000
   29.2793  -21.9334  -14.5871 O   0  0  0  0  0  0  0  0  0  0  0  0
   28.4873  -21.9196  -15.7042 C   0  0  0  0  0  0  0  0  0  0  0  0
   27.8041  -20.5941  -15.9459 C   0  0  2  0  0  0  0  0  0  0  0  0
   28.7549  -19.5981  -16.3789 N   0  0  0  0  0  0  0  0  0  0  0  0
   27.0321  -20.1369  -14.7676 C   0  0  0  0  0  0  0  0  0  0  0  0
   27.4182  -19.0976  -14.1795 O   0  0  0  0  0  0  0  0  0  0  0  0
   25.9047  -20.8228  -14.3036 N   0  0  0  0  0  0  0  0  0  0  0  0
   25.0911  -20.4195  -13.1823 C   0  0  1  0  0  0  0  0  0  0  0  0
   23.6808  -20.9655  -13.4441 C   0  0  0  0  0  0  0  0  0  0  0  0
   22.7895  -20.5338  -12.2826 C   0  0  0  0  0  0  0  0  0  0  0  0
   21.4198  -21.1024  -12.5501 C   0  0  0  0  0  0  0  0  0  0  0  0
   20.4717  -20.6310  -11.4949 C   0  0  0  0  0  0  0  0  0  0  0  0
   19.1803  -21.2212  -11.7328 N   0  0  0  0  0  0  0  0  0  0  0  0
   25.5407  -20.9757  -11.8994 C   0  0  0  0  0  0  0  0  0  0  0  0
   25.8415  -22.1816  -11.7489 O   0  0  0  0  0  0  0  0  0  0  0  0
   29.0476  -20.7427   -7.7984 C   0  0  0  0  0  0  0  0  0  0  0  0
   27.6711  -20.0398   -7.5661 C   0  0  1  0  0  0  0  0  0  0  0  0
   27.9625  -18.7971   -6.7324 C   0  0  0  0  0  0  0  0  0  0  0  0
   27.0706  -19.7382   -8.8917 C   0  0  0  0  0  0  0  0  0  0  0  0
   26.0840  -20.6542   -9.4694 C   0  0  2  0  0  0  0  0  0  0  0  0
   25.6343  -20.1018  -10.7917 N   0  0  0  0  0  0  0  0  0  0  0  0
   24.9357  -21.1346   -8.7356 C   0  0  0  0  0  0  0  0  0  0  0  0
   23.7723  -20.6857   -8.7021 O   0  0  0  0  0  0  0  0  0  0  0  0
   25.1374  -22.2889   -7.9237 O   0  0  0  0  0  0  0  0  0  0  0  0
  2  1  1  0
  3  2  1  0
  3  4  1  1
  5  6  2  0
  5  3  1  0
  7  5  1  0
  8  9  1  6
  8  7  1  0
  9 10  1  0
 11 10  1  0
 11 12  1  0
 12 13  1  0
 14  8  1  0
 15 14  2  0
 17 16  1  6
 18 17  1  0
 19 17  1  0
 20 19  1  1
 20 21  1  0
 21 14  1  0
 22 24  1  0
 22 20  1  0
 23 22  2  0
M  END
$$$$
