SKL.pdb
     RDKit          3D

 24 23  0  0  1  0  0  0  0  0999 V2000
   22.4198   -9.8646  -20.4842 O   0  0  0  0  0  0  0  0  0  0  0  0
   21.6484  -10.9860  -20.3331 C   0  0  0  0  0  0  0  0  0  0  0  0
   20.1743  -10.6915  -20.1832 C   0  0  2  0  0  0  0  0  0  0  0  0
   19.6469  -10.0876  -21.3835 N   0  0  0  0  0  0  0  0  0  0  0  0
   19.8846   -9.8700  -18.9854 C   0  0  0  0  0  0  0  0  0  0  0  0
   19.5875   -8.6630  -19.1587 O   0  0  0  0  0  0  0  0  0  0  0  0
   19.9334  -10.3973  -17.6906 N   0  0  0  0  0  0  0  0  0  0  0  0
   19.6756   -9.6535  -16.4815 C   0  0  1  0  0  0  0  0  0  0  0  0
   19.2346  -10.6744  -15.4236 C   0  0  0  0  0  0  0  0  0  0  0  0
   17.8371  -11.1611  -15.7977 C   0  0  0  0  0  0  0  0  0  0  0  0
   17.4358  -12.1744  -14.7570 C   0  0  0  0  0  0  0  0  0  0  0  0
   16.0932  -12.7345  -15.1012 C   0  0  0  0  0  0  0  0  0  0  0  0
   15.7496  -13.7453  -14.1353 N   0  0  0  0  0  0  0  0  0  0  0  0
   20.8590   -8.9634  -15.9520 C   0  0  0  0  0  0  0  0  0  0  0  0
   22.0294   -9.3285  -16.2053 O   0  0  0  0  0  0  0  0  0  0  0  0
   24.1633   -5.5586  -17.5793 C   0  0  0  0  0  0  0  0  0  0  0  0
   23.5915   -5.6200  -16.1260 C   0  0  1  0  0  0  0  0  0  0  0  0
   23.1751   -4.1968  -15.7716 C   0  0  0  0  0  0  0  0  0  0  0  0
   22.4659   -6.5902  -16.1070 C   0  0  0  0  0  0  0  0  0  0  0  0
   21.8171   -6.9277  -14.8377 C   0  0  2  0  0  0  0  0  0  0  0  0
   20.6562   -7.8379  -15.1204 N   0  0  0  0  0  0  0  0  0  0  0  0
   21.4193   -5.9304  -13.8707 C   0  0  0  0  0  0  0  0  0  0  0  0
   22.1219   -5.2673  -13.0816 O   0  0  0  0  0  0  0  0  0  0  0  0
   20.0248   -5.6461  -13.7874 O   0  0  0  0  0  0  0  0  0  0  0  0
  2  1  1  0
  3  2  1  0
  3  4  1  6
  5  6  2  0
  5  3  1  0
  7  5  1  0
  8  9  1  1
  8  7  1  0
  9 10  1  0
 11 10  1  0
 11 12  1  0
 12 13  1  0
 14  8  1  0
 15 14  2  0
 17 16  1  6
 18 17  1  0
 19 17  1  0
 20 19  1  6
 20 21  1  0
 21 14  1  0
 22 24  1  0
 22 20  1  0
 23 22  2  0
M  END
$$$$
