SKL.pdb
     RDKit          3D

 24 23  0  0  1  0  0  0  0  0999 V2000
   26.5057  -20.3039  -17.4731 O   0  0  0  0  0  0  0  0  0  0  0  0
   27.6839  -20.8397  -17.0257 C   0  0  0  0  0  0  0  0  0  0  0  0
   27.5230  -21.7335  -15.8185 C   0  0  2  0  0  0  0  0  0  0  0  0
   26.7807  -22.9243  -16.1569 N   0  0  0  0  0  0  0  0  0  0  0  0
   26.9193  -21.0213  -14.6688 C   0  0  0  0  0  0  0  0  0  0  0  0
   27.4818  -19.9746  -14.2650 O   0  0  0  0  0  0  0  0  0  0  0  0
   25.7595  -21.4789  -14.0345 N   0  0  0  0  0  0  0  0  0  0  0  0
   25.0892  -20.8090  -12.9466 C   0  0  1  0  0  0  0  0  0  0  0  0
   23.5948  -21.1292  -13.0876 C   0  0  0  0  0  0  0  0  0  0  0  0
   23.0767  -20.4048  -14.3273 C   0  0  0  0  0  0  0  0  0  0  0  0
   21.5864  -20.6241  -14.3687 C   0  0  0  0  0  0  0  0  0  0  0  0
   21.2861  -21.8417  -15.1822 C   0  0  0  0  0  0  0  0  0  0  0  0
   19.8579  -21.9993  -15.2738 N   0  0  0  0  0  0  0  0  0  0  0  0
   25.5100  -21.2768  -11.6194 C   0  0  0  0  0  0  0  0  0  0  0  0
   25.6724  -22.4874  -11.3449 O   0  0  0  0  0  0  0  0  0  0  0  0
   29.1847  -19.9686   -7.2160 C   0  0  0  0  0  0  0  0  0  0  0  0
   27.7322  -20.5251   -7.3693 C   0  0  1  0  0  0  0  0  0  0  0  0
   26.8901  -19.8136   -6.3161 C   0  0  0  0  0  0  0  0  0  0  0  0
   27.2792  -20.2722   -8.7619 C   0  0  0  0  0  0  0  0  0  0  0  0
   25.9744  -20.7699   -9.2047 C   0  0  2  0  0  0  0  0  0  0  0  0
   25.7392  -20.3086  -10.6146 N   0  0  0  0  0  0  0  0  0  0  0  0
   24.7647  -20.5922   -8.4346 C   0  0  0  0  0  0  0  0  0  0  0  0
   23.8790  -19.7202   -8.5405 O   0  0  0  0  0  0  0  0  0  0  0  0
   24.5273  -21.5394   -7.3960 O   0  0  0  0  0  0  0  0  0  0  0  0
  2  1  1  0
  3  2  1  0
  3  4  1  6
  5  6  2  0
  5  3  1  0
  7  5  1  0
  8  9  1  6
  8  7  1  0
  9 10  1  0
 11 10  1  0
 11 12  1  0
 12 13  1  0
 14  8  1  0
 15 14  2  0
 17 16  1  6
 18 17  1  0
 19 17  1  0
 20 19  1  1
 20 21  1  0
 21 14  1  0
 22 24  1  0
 22 20  1  0
 23 22  2  0
M  END
$$$$
