SKL.pdb
     RDKit          3D

 24 23  0  0  1  0  0  0  0  0999 V2000
   32.3209  -23.8001  -10.3985 O   0  0  0  0  0  0  0  0  0  0  0  0
   31.2904  -22.9040  -10.5010 C   0  0  0  0  0  0  0  0  0  0  0  0
   31.4572  -21.9160  -11.6315 C   0  0  2  0  0  0  0  0  0  0  0  0
   32.6836  -21.1692  -11.4837 N   0  0  0  0  0  0  0  0  0  0  0  0
   30.2858  -21.0207  -11.7725 C   0  0  0  0  0  0  0  0  0  0  0  0
   30.2404  -19.9947  -11.0512 O   0  0  0  0  0  0  0  0  0  0  0  0
   29.2490  -21.2865  -12.6732 N   0  0  0  0  0  0  0  0  0  0  0  0
   28.0021  -20.5636  -12.7400 C   0  0  1  0  0  0  0  0  0  0  0  0
   27.4276  -20.8077  -14.1422 C   0  0  0  0  0  0  0  0  0  0  0  0
   26.1422  -19.9942  -14.2687 C   0  0  0  0  0  0  0  0  0  0  0  0
   25.6529  -20.1702  -15.6831 C   0  0  0  0  0  0  0  0  0  0  0  0
   24.4575  -19.3009  -15.9067 C   0  0  0  0  0  0  0  0  0  0  0  0
   24.8768  -18.0967  -16.5751 N   0  0  0  0  0  0  0  0  0  0  0  0
   26.9996  -21.0296  -11.7730 C   0  0  0  0  0  0  0  0  0  0  0  0
   26.6378  -22.2253  -11.6913 O   0  0  0  0  0  0  0  0  0  0  0  0
   27.1792  -18.8696   -6.8153 C   0  0  0  0  0  0  0  0  0  0  0  0
   27.1024  -19.9110   -7.9783 C   0  0  1  0  0  0  0  0  0  0  0  0
   27.3928  -21.2706   -7.3526 C   0  0  0  0  0  0  0  0  0  0  0  0
   25.7556  -19.8189   -8.6001 C   0  0  0  0  0  0  0  0  0  0  0  0
   25.4737  -20.5502   -9.8378 C   0  0  2  0  0  0  0  0  0  0  0  0
   26.4241  -20.0774  -10.9004 N   0  0  0  0  0  0  0  0  0  0  0  0
   24.1464  -20.6620  -10.3977 C   0  0  0  0  0  0  0  0  0  0  0  0
   23.6916  -20.1890  -11.4587 O   0  0  0  0  0  0  0  0  0  0  0  0
   23.2005  -21.4181   -9.6455 O   0  0  0  0  0  0  0  0  0  0  0  0
  2  1  1  0
  3  2  1  0
  3  4  1  1
  5  6  2  0
  5  3  1  0
  7  5  1  0
  8  9  1  6
  8  7  1  0
  9 10  1  0
 11 10  1  0
 11 12  1  0
 12 13  1  0
 14  8  1  0
 15 14  2  0
 17 16  1  1
 18 17  1  0
 19 17  1  0
 20 19  1  1
 20 21  1  0
 21 14  1  0
 22 24  1  0
 22 20  1  0
 23 22  2  0
M  END
$$$$
