SKL.pdb
     RDKit          3D

 24 23  0  0  1  0  0  0  0  0999 V2000
   20.0994  -18.5648  -11.7815 O   0  0  0  0  0  0  0  0  0  0  0  0
   21.1661  -19.1409  -11.1445 C   0  0  0  0  0  0  0  0  0  0  0  0
   21.8473  -20.2173  -11.9565 C   0  0  2  0  0  0  0  0  0  0  0  0
   20.8982  -21.2195  -12.3789 N   0  0  0  0  0  0  0  0  0  0  0  0
   22.9955  -20.8193  -11.2403 C   0  0  0  0  0  0  0  0  0  0  0  0
   22.7507  -21.6373  -10.3206 O   0  0  0  0  0  0  0  0  0  0  0  0
   24.3206  -20.5038  -11.5587 N   0  0  0  0  0  0  0  0  0  0  0  0
   25.4821  -20.9961  -10.8585 C   0  0  1  0  0  0  0  0  0  0  0  0
   26.6580  -20.9059  -11.8407 C   0  0  0  0  0  0  0  0  0  0  0  0
   26.3829  -21.8730  -12.9891 C   0  0  0  0  0  0  0  0  0  0  0  0
   27.5050  -21.7025  -13.9803 C   0  0  0  0  0  0  0  0  0  0  0  0
   27.2564  -22.5767  -15.1672 C   0  0  0  0  0  0  0  0  0  0  0  0
   28.3207  -22.3844  -16.1175 N   0  0  0  0  0  0  0  0  0  0  0  0
   25.8397  -20.1978   -9.6787 C   0  0  0  0  0  0  0  0  0  0  0  0
   25.6718  -18.9586   -9.6196 O   0  0  0  0  0  0  0  0  0  0  0  0
   27.6393  -21.5359   -3.9248 C   0  0  0  0  0  0  0  0  0  0  0  0
   27.5878  -20.3789   -4.9743 C   0  0  1  0  0  0  0  0  0  0  0  0
   29.0127  -19.8502   -5.0959 C   0  0  0  0  0  0  0  0  0  0  0  0
   27.0465  -20.9250   -6.2461 C   0  0  0  0  0  0  0  0  0  0  0  0
   26.9212  -20.0541   -7.4174 C   0  0  2  0  0  0  0  0  0  0  0  0
   26.3976  -20.8684   -8.5658 N   0  0  0  0  0  0  0  0  0  0  0  0
   27.9942  -19.2053   -7.8822 C   0  0  0  0  0  0  0  0  0  0  0  0
   28.8997  -19.4513   -8.7043 O   0  0  0  0  0  0  0  0  0  0  0  0
   28.0470  -17.8900   -7.3350 O   0  0  0  0  0  0  0  0  0  0  0  0
  2  1  1  0
  3  2  1  0
  3  4  1  1
  5  6  2  0
  5  3  1  0
  7  5  1  0
  8  9  1  6
  8  7  1  0
  9 10  1  0
 11 10  1  0
 11 12  1  0
 12 13  1  0
 14  8  1  0
 15 14  2  0
 17 16  1  1
 18 17  1  0
 19 17  1  0
 20 19  1  1
 20 21  1  0
 21 14  1  0
 22 24  1  0
 22 20  1  0
 23 22  2  0
M  END
$$$$
