SKL.pdb
     RDKit          3D

 24 23  0  0  1  0  0  0  0  0999 V2000
   29.3183  -22.7499  -16.6511 O   0  0  0  0  0  0  0  0  0  0  0  0
   28.3178  -21.9674  -16.1392 C   0  0  0  0  0  0  0  0  0  0  0  0
   27.7229  -21.0100  -17.1449 C   0  0  2  0  0  0  0  0  0  0  0  0
   28.7076  -20.0508  -17.5851 N   0  0  0  0  0  0  0  0  0  0  0  0
   26.5024  -20.3448  -16.6336 C   0  0  0  0  0  0  0  0  0  0  0  0
   26.6445  -19.4139  -15.8040 O   0  0  0  0  0  0  0  0  0  0  0  0
   25.2199  -20.7222  -17.0454 N   0  0  0  0  0  0  0  0  0  0  0  0
   23.9896  -20.2955  -16.4241 C   0  0  1  0  0  0  0  0  0  0  0  0
   22.8628  -20.6159  -17.4157 C   0  0  0  0  0  0  0  0  0  0  0  0
   21.5677  -20.0337  -16.8554 C   0  0  0  0  0  0  0  0  0  0  0  0
   20.8843  -21.1421  -16.0970 C   0  0  0  0  0  0  0  0  0  0  0  0
   19.4434  -20.7952  -15.9019 C   0  0  0  0  0  0  0  0  0  0  0  0
   18.8478  -21.7626  -15.0175 N   0  0  0  0  0  0  0  0  0  0  0  0
   23.6842  -21.0060  -15.1755 C   0  0  0  0  0  0  0  0  0  0  0  0
   23.8274  -22.2428  -15.0441 O   0  0  0  0  0  0  0  0  0  0  0  0
   25.9582  -21.0825  -10.1711 C   0  0  0  0  0  0  0  0  0  0  0  0
   24.4975  -21.3469  -10.6603 C   0  0  1  0  0  0  0  0  0  0  0  0
   23.5794  -20.6951   -9.6324 C   0  0  0  0  0  0  0  0  0  0  0  0
   24.3531  -20.7829  -12.0277 C   0  0  0  0  0  0  0  0  0  0  0  0
   23.0801  -20.9179  -12.7401 C   0  0  2  0  0  0  0  0  0  0  0  0
   23.2078  -20.2502  -14.0794 N   0  0  0  0  0  0  0  0  0  0  0  0
   21.8093  -20.5665  -12.1490 C   0  0  0  0  0  0  0  0  0  0  0  0
   21.0280  -21.2677  -11.4751 O   0  0  0  0  0  0  0  0  0  0  0  0
   21.3617  -19.2285  -12.3525 O   0  0  0  0  0  0  0  0  0  0  0  0
  2  1  1  0
  3  2  1  0
  3  4  1  1
  5  6  2  0
  5  3  1  0
  7  5  1  0
  8  9  1  6
  8  7  1  0
  9 10  1  0
 11 10  1  0
 11 12  1  0
 12 13  1  0
 14  8  1  0
 15 14  2  0
 17 16  1  1
 18 17  1  0
 19 17  1  0
 20 19  1  1
 20 21  1  0
 21 14  1  0
 22 24  1  0
 22 20  1  0
 23 22  2  0
M  END
$$$$
