SKL.pdb
     RDKit          3D

 24 23  0  0  1  0  0  0  0  0999 V2000
   10.9222  -12.2137  -11.5347 O   0  0  0  0  0  0  0  0  0  0  0  0
   12.1487  -11.6275  -11.3691 C   0  0  0  0  0  0  0  0  0  0  0  0
   13.1359  -11.9698  -12.4602 C   0  0  2  0  0  0  0  0  0  0  0  0
   13.4584  -13.3766  -12.4374 N   0  0  0  0  0  0  0  0  0  0  0  0
   14.3535  -11.1289  -12.4001 C   0  0  0  0  0  0  0  0  0  0  0  0
   15.2408  -11.4384  -11.5683 O   0  0  0  0  0  0  0  0  0  0  0  0
   14.5345  -10.0192  -13.2325 N   0  0  0  0  0  0  0  0  0  0  0  0
   15.6546   -9.1118  -13.1739 C   0  0  1  0  0  0  0  0  0  0  0  0
   16.0274   -8.7800  -14.6253 C   0  0  0  0  0  0  0  0  0  0  0  0
   17.2902   -7.9229  -14.5992 C   0  0  0  0  0  0  0  0  0  0  0  0
   17.7348   -7.7588  -16.0296 C   0  0  0  0  0  0  0  0  0  0  0  0
   19.0207   -6.9974  -16.0657 C   0  0  0  0  0  0  0  0  0  0  0  0
   19.4636   -6.8972  -17.4319 N   0  0  0  0  0  0  0  0  0  0  0  0
   15.3480   -7.8416  -12.5032 C   0  0  0  0  0  0  0  0  0  0  0  0
   14.3604   -7.1340  -12.8054 O   0  0  0  0  0  0  0  0  0  0  0  0
   14.9264   -7.2439   -7.2131 C   0  0  0  0  0  0  0  0  0  0  0  0
   14.6949   -7.0914   -8.7513 C   0  0  1  0  0  0  0  0  0  0  0  0
   13.3722   -6.3501   -8.9116 C   0  0  0  0  0  0  0  0  0  0  0  0
   15.8560   -6.3658   -9.3292 C   0  0  0  0  0  0  0  0  0  0  0  0
   15.9126   -6.1139  -10.7712 C   0  0  2  0  0  0  0  0  0  0  0  0
   16.2129   -7.4080  -11.4720 N   0  0  0  0  0  0  0  0  0  0  0  0
   16.7102   -5.0584  -11.3524 C   0  0  0  0  0  0  0  0  0  0  0  0
   17.7516   -5.1363  -12.0347 O   0  0  0  0  0  0  0  0  0  0  0  0
   16.2616   -3.7244  -11.1259 O   0  0  0  0  0  0  0  0  0  0  0  0
  2  1  1  0
  3  2  1  0
  3  4  1  1
  5  6  2  0
  5  3  1  0
  7  5  1  0
  8  9  1  6
  8  7  1  0
  9 10  1  0
 11 10  1  0
 11 12  1  0
 12 13  1  0
 14  8  1  0
 15 14  2  0
 17 16  1  1
 18 17  1  0
 19 17  1  0
 20 19  1  1
 20 21  1  0
 21 14  1  0
 22 24  1  0
 22 20  1  0
 23 22  2  0
M  END
$$$$
