QNH.pdb
     RDKit          3D

 28 28  0  0  1  0  0  0  0  0999 V2000
    8.3336  -12.3189   17.1789 N   0  0  0  0  0  0  0  0  0  0  0  0
    7.6858  -13.5392   16.7409 C   0  0  0  0  0  0  0  0  0  0  0  0
    7.6049  -13.7083   15.4982 O   0  0  0  0  0  0  0  0  0  0  0  0
    7.1980  -14.4284   17.7874 C   0  0  0  0  0  0  0  0  0  0  0  0
    7.3960  -13.9630   19.1966 C   0  0  0  0  0  0  0  0  0  0  0  0
    8.2847  -14.8394   20.0155 C   0  0  2  0  0  0  0  0  0  0  0  0
    8.5614  -16.0572   19.3239 N   0  0  0  0  0  0  0  0  0  0  0  0
    7.6698  -15.0776   21.3767 C   0  0  0  0  0  0  0  0  0  0  0  0
    7.3940  -14.0524   22.0075 O   0  0  0  0  0  0  0  0  0  0  0  0
    5.7878  -18.1348   25.3001 N   0  0  0  0  0  0  0  0  0  0  0  0
    6.7890  -18.8537   24.6136 C   0  0  0  0  0  0  0  0  0  0  0  0
    7.1779  -19.9468   25.0834 O   0  0  0  0  0  0  0  0  0  0  0  0
    7.3646  -18.3313   23.3723 C   0  0  0  0  0  0  0  0  0  0  0  0
    7.1078  -16.8428   23.1833 C   0  0  2  0  0  0  0  0  0  0  0  0
    7.4271  -16.3270   21.8898 N   0  0  0  0  0  0  0  0  0  0  0  0
    8.0301  -16.1685   24.1301 C   0  0  0  0  0  0  0  0  0  0  0  0
    7.6348  -15.0605   24.6406 O   0  0  0  0  0  0  0  0  0  0  0  0
    9.3113  -16.6787   24.4971 N   0  0  0  0  0  0  0  0  0  0  0  0
    9.9430  -16.0649   25.6829 C   0  0  1  0  0  0  0  0  0  0  0  0
    8.8041  -15.5388   26.5218 C   0  0  0  0  0  0  0  0  0  0  0  0
    9.2904  -14.9627   27.7742 C   0  0  0  0  0  0  0  0  0  0  0  0
    9.3230  -13.5854   28.0442 C   0  0  0  0  0  0  0  0  0  0  0  0
    9.8214  -13.4090   29.2692 N   0  0  0  0  0  0  0  0  0  0  0  0
   10.1156  -14.6037   29.8098 C   0  0  0  0  0  0  0  0  0  0  0  0
    9.7852  -15.5163   28.8872 N   0  0  0  0  0  0  0  0  0  0  0  0
   10.6403  -17.1517   26.4352 C   0  0  0  0  0  0  0  0  0  0  0  0
   11.2787  -17.0014   27.4964 O   0  0  0  0  0  0  0  0  0  0  0  0
   10.5916  -18.4649   25.9310 O   0  0  0  0  0  0  0  0  0  0  0  0
  2  1  1  0
  3  2  2  0
  4  2  1  0
  5  6  1  0
  5  4  1  0
  6  7  1  6
  6  8  1  0
  8  9  2  0
 10 11  1  0
 11 12  2  0
 14 13  1  6
 13 11  1  0
 14 16  1  0
 15  8  1  0
 15 14  1  0
 16 17  2  0
 18 19  1  0
 18 16  1  0
 19 26  1  0
 19 20  1  1
 21 20  1  0
 22 21  2  0
 23 22  1  0
 24 23  1  0
 24 25  2  0
 25 21  1  0
 26 27  2  0
 26 28  1  0
M  END
$$$$
