QNH.pdb
     RDKit          3D

 28 28  0  0  1  0  0  0  0  0999 V2000
   18.4447  -14.3397   17.7094 N   0  0  0  0  0  0  0  0  0  0  0  0
   18.2291  -14.9562   16.4156 C   0  0  0  0  0  0  0  0  0  0  0  0
   19.2265  -15.5173   15.8959 O   0  0  0  0  0  0  0  0  0  0  0  0
   16.8851  -14.8526   15.8615 C   0  0  0  0  0  0  0  0  0  0  0  0
   15.8525  -14.2226   16.7438 C   0  0  0  0  0  0  0  0  0  0  0  0
   14.5712  -14.9834   16.8325 C   0  0  2  0  0  0  0  0  0  0  0  0
   13.9096  -14.9983   15.5676 N   0  0  0  0  0  0  0  0  0  0  0  0
   13.7015  -14.4119   17.9300 C   0  0  0  0  0  0  0  0  0  0  0  0
   13.9841  -13.2580   18.2675 O   0  0  0  0  0  0  0  0  0  0  0  0
    9.2147  -13.0608   18.4737 N   0  0  0  0  0  0  0  0  0  0  0  0
    9.7238  -14.3455   18.1894 C   0  0  0  0  0  0  0  0  0  0  0  0
    9.6828  -14.7646   17.0106 O   0  0  0  0  0  0  0  0  0  0  0  0
   10.2907  -15.1760   19.2542 C   0  0  0  0  0  0  0  0  0  0  0  0
   11.7399  -14.8290   19.5652 C   0  0  2  0  0  0  0  0  0  0  0  0
   12.6722  -15.1033   18.5181 N   0  0  0  0  0  0  0  0  0  0  0  0
   12.1173  -15.7194   20.6906 C   0  0  0  0  0  0  0  0  0  0  0  0
   12.1069  -16.9816   20.4649 O   0  0  0  0  0  0  0  0  0  0  0  0
   12.4855  -15.2539   21.9884 N   0  0  0  0  0  0  0  0  0  0  0  0
   12.8713  -16.2897   22.9681 C   0  0  1  0  0  0  0  0  0  0  0  0
   13.8586  -15.6231   23.8947 C   0  0  0  0  0  0  0  0  0  0  0  0
   15.1468  -15.4151   23.2358 C   0  0  0  0  0  0  0  0  0  0  0  0
   15.4134  -15.7695   21.9038 C   0  0  0  0  0  0  0  0  0  0  0  0
   16.6772  -15.4430   21.6269 N   0  0  0  0  0  0  0  0  0  0  0  0
   17.2466  -14.8941   22.7134 C   0  0  0  0  0  0  0  0  0  0  0  0
   16.3018  -14.8916   23.6624 N   0  0  0  0  0  0  0  0  0  0  0  0
   11.6469  -16.6554   23.7429 C   0  0  0  0  0  0  0  0  0  0  0  0
   10.5268  -16.1200   23.6196 O   0  0  0  0  0  0  0  0  0  0  0  0
   11.7311  -17.6851   24.6987 O   0  0  0  0  0  0  0  0  0  0  0  0
  2  1  1  0
  3  2  2  0
  4  2  1  0
  5  6  1  0
  5  4  1  0
  6  7  1  6
  6  8  1  0
  8  9  2  0
 10 11  1  0
 11 12  2  0
 14 13  1  6
 13 11  1  0
 14 16  1  0
 15  8  1  0
 15 14  1  0
 16 17  2  0
 18 19  1  0
 18 16  1  0
 19 26  1  0
 19 20  1  1
 21 20  1  0
 22 21  2  0
 23 22  1  0
 24 23  1  0
 24 25  2  0
 25 21  1  0
 26 27  2  0
 26 28  1  0
M  END
$$$$
