QNH.pdb
     RDKit          3D

 28 28  0  0  1  0  0  0  0  0999 V2000
    8.6961  -13.3420   15.8303 N   0  0  0  0  0  0  0  0  0  0  0  0
    7.5179  -14.1524   16.0657 C   0  0  0  0  0  0  0  0  0  0  0  0
    6.9924  -14.6743   15.0503 O   0  0  0  0  0  0  0  0  0  0  0  0
    7.0730  -14.2672   17.4488 C   0  0  0  0  0  0  0  0  0  0  0  0
    7.7847  -13.4069   18.4463 C   0  0  0  0  0  0  0  0  0  0  0  0
    8.9637  -14.0577   19.0907 C   0  0  2  0  0  0  0  0  0  0  0  0
    9.5380  -15.0298   18.2173 N   0  0  0  0  0  0  0  0  0  0  0  0
    8.5675  -14.6467   20.4263 C   0  0  0  0  0  0  0  0  0  0  0  0
    7.9436  -13.8799   21.1665 O   0  0  0  0  0  0  0  0  0  0  0  0
    8.9566  -19.4719   19.6923 N   0  0  0  0  0  0  0  0  0  0  0  0
    8.2498  -18.8427   20.7389 C   0  0  0  0  0  0  0  0  0  0  0  0
    6.9984  -18.8448   20.7096 O   0  0  0  0  0  0  0  0  0  0  0  0
    8.9664  -18.1977   21.8412 C   0  0  0  0  0  0  0  0  0  0  0  0
    8.6346  -16.7181   21.9755 C   0  0  2  0  0  0  0  0  0  0  0  0
    8.8662  -15.9312   20.8059 N   0  0  0  0  0  0  0  0  0  0  0  0
    9.5716  -16.2041   23.0048 C   0  0  0  0  0  0  0  0  0  0  0  0
   10.5427  -15.4727   22.5968 O   0  0  0  0  0  0  0  0  0  0  0  0
    9.4514  -16.4748   24.4008 N   0  0  0  0  0  0  0  0  0  0  0  0
    9.1497  -15.3168   25.2666 C   0  0  1  0  0  0  0  0  0  0  0  0
    7.8233  -14.7838   24.7825 C   0  0  0  0  0  0  0  0  0  0  0  0
    7.3991  -13.6258   25.5673 C   0  0  0  0  0  0  0  0  0  0  0  0
    8.2328  -12.5397   25.8775 C   0  0  0  0  0  0  0  0  0  0  0  0
    7.5321  -11.6655   26.6021 N   0  0  0  0  0  0  0  0  0  0  0  0
    6.2833  -12.1293   26.7794 C   0  0  0  0  0  0  0  0  0  0  0  0
    6.2354  -13.3082   26.1460 N   0  0  0  0  0  0  0  0  0  0  0  0
    8.9893  -15.8272   26.6620 C   0  0  0  0  0  0  0  0  0  0  0  0
    9.0572  -15.1344   27.6973 O   0  0  0  0  0  0  0  0  0  0  0  0
    8.7400  -17.1984   26.8584 O   0  0  0  0  0  0  0  0  0  0  0  0
  2  1  1  0
  3  2  2  0
  4  2  1  0
  5  6  1  0
  5  4  1  0
  6  7  1  6
  6  8  1  0
  8  9  2  0
 10 11  1  0
 11 12  2  0
 14 13  1  6
 13 11  1  0
 14 16  1  0
 15  8  1  0
 15 14  1  0
 16 17  2  0
 18 19  1  0
 18 16  1  0
 19 26  1  0
 19 20  1  6
 21 20  1  0
 22 21  2  0
 23 22  1  0
 24 23  1  0
 24 25  2  0
 25 21  1  0
 26 27  2  0
 26 28  1  0
M  END
$$$$
