QNH.pdb
     RDKit          3D

 28 28  0  0  1  0  0  0  0  0999 V2000
    7.6427  -12.3103   17.9839 N   0  0  0  0  0  0  0  0  0  0  0  0
    7.5045  -13.6468   17.4408 C   0  0  0  0  0  0  0  0  0  0  0  0
    7.1364  -13.7223   16.2415 O   0  0  0  0  0  0  0  0  0  0  0  0
    7.8024  -14.7504   18.3449 C   0  0  0  0  0  0  0  0  0  0  0  0
    8.1411  -14.3776   19.7548 C   0  0  0  0  0  0  0  0  0  0  0  0
    9.3916  -15.0058   20.2745 C   0  0  2  0  0  0  0  0  0  0  0  0
    9.9827  -15.8413   19.2793 N   0  0  0  0  0  0  0  0  0  0  0  0
    9.1040  -15.7540   21.5572 C   0  0  0  0  0  0  0  0  0  0  0  0
    8.3749  -15.1554   22.3541 O   0  0  0  0  0  0  0  0  0  0  0  0
    9.4279  -20.4384   20.4043 N   0  0  0  0  0  0  0  0  0  0  0  0
    8.9288  -19.9366   21.6249 C   0  0  0  0  0  0  0  0  0  0  0  0
    7.6977  -19.9945   21.8438 O   0  0  0  0  0  0  0  0  0  0  0  0
    9.8342  -19.3576   22.6197 C   0  0  0  0  0  0  0  0  0  0  0  0
    9.5105  -17.9045   22.9376 C   0  0  2  0  0  0  0  0  0  0  0  0
    9.6027  -17.0022   21.8339 N   0  0  0  0  0  0  0  0  0  0  0  0
   10.5551  -17.4780   23.9013 C   0  0  0  0  0  0  0  0  0  0  0  0
   11.4693  -16.6936   23.4616 O   0  0  0  0  0  0  0  0  0  0  0  0
   10.5955  -17.8865   25.2680 N   0  0  0  0  0  0  0  0  0  0  0  0
   10.6702  -16.8044   26.2707 C   0  0  1  0  0  0  0  0  0  0  0  0
    9.4290  -15.9718   26.0612 C   0  0  0  0  0  0  0  0  0  0  0  0
    9.4016  -14.8243   26.9664 C   0  0  0  0  0  0  0  0  0  0  0  0
    8.8209  -13.5866   26.6473 C   0  0  0  0  0  0  0  0  0  0  0  0
    8.9720  -12.7698   27.6915 N   0  0  0  0  0  0  0  0  0  0  0  0
    9.6230  -13.4147   28.6745 C   0  0  0  0  0  0  0  0  0  0  0  0
    9.8670  -14.6460   28.2080 N   0  0  0  0  0  0  0  0  0  0  0  0
   10.6090  -17.4380   27.6228 C   0  0  0  0  0  0  0  0  0  0  0  0
    9.9336  -18.4441   27.9196 O   0  0  0  0  0  0  0  0  0  0  0  0
   11.3643  -16.8772   28.6697 O   0  0  0  0  0  0  0  0  0  0  0  0
  2  1  1  0
  3  2  2  0
  4  2  1  0
  5  6  1  0
  5  4  1  0
  6  7  1  6
  6  8  1  0
  8  9  2  0
 10 11  1  0
 11 12  2  0
 14 13  1  6
 13 11  1  0
 14 16  1  0
 15  8  1  0
 15 14  1  0
 16 17  2  0
 18 19  1  0
 18 16  1  0
 19 26  1  0
 19 20  1  6
 21 20  1  0
 22 21  2  0
 23 22  1  0
 24 23  1  0
 24 25  2  0
 25 21  1  0
 26 27  2  0
 26 28  1  0
M  END
$$$$
