QNH.pdb
     RDKit          3D

 28 28  0  0  1  0  0  0  0  0999 V2000
    9.7096  -16.7106   16.9872 N   0  0  0  0  0  0  0  0  0  0  0  0
    8.4617  -16.2588   16.4049 C   0  0  0  0  0  0  0  0  0  0  0  0
    8.2929  -16.5173   15.1866 O   0  0  0  0  0  0  0  0  0  0  0  0
    7.5470  -15.5533   17.2934 C   0  0  0  0  0  0  0  0  0  0  0  0
    7.9843  -15.4147   18.7187 C   0  0  0  0  0  0  0  0  0  0  0  0
    7.6294  -14.1081   19.3475 C   0  0  2  0  0  0  0  0  0  0  0  0
    7.9742  -13.0263   18.4822 N   0  0  0  0  0  0  0  0  0  0  0  0
    8.2838  -13.9894   20.7059 C   0  0  0  0  0  0  0  0  0  0  0  0
    9.5074  -13.8244   20.6792 O   0  0  0  0  0  0  0  0  0  0  0  0
    6.2707  -13.0255   26.5812 N   0  0  0  0  0  0  0  0  0  0  0  0
    7.2161  -13.2940   25.5690 C   0  0  0  0  0  0  0  0  0  0  0  0
    8.4293  -13.3447   25.8732 O   0  0  0  0  0  0  0  0  0  0  0  0
    6.7872  -13.5099   24.1854 C   0  0  0  0  0  0  0  0  0  0  0  0
    7.9330  -13.9146   23.2685 C   0  0  2  0  0  0  0  0  0  0  0  0
    7.5909  -14.0556   21.8886 N   0  0  0  0  0  0  0  0  0  0  0  0
    8.3368  -15.2663   23.7285 C   0  0  0  0  0  0  0  0  0  0  0  0
    7.4494  -16.1904   23.6746 O   0  0  0  0  0  0  0  0  0  0  0  0
    9.6380  -15.5875   24.2187 N   0  0  0  0  0  0  0  0  0  0  0  0
    9.8364  -16.9757   24.6827 C   0  0  1  0  0  0  0  0  0  0  0  0
   11.2531  -17.3311   24.3030 C   0  0  0  0  0  0  0  0  0  0  0  0
   11.3778  -17.5454   22.8624 C   0  0  0  0  0  0  0  0  0  0  0  0
   10.2852  -17.6906   21.9929 C   0  0  0  0  0  0  0  0  0  0  0  0
   10.7532  -17.8702   20.7563 N   0  0  0  0  0  0  0  0  0  0  0  0
   12.0967  -17.8496   20.7780 C   0  0  0  0  0  0  0  0  0  0  0  0
   12.4409  -17.6529   22.0571 N   0  0  0  0  0  0  0  0  0  0  0  0
    9.7175  -16.9741   26.1724 C   0  0  0  0  0  0  0  0  0  0  0  0
    9.4430  -15.9801   26.8745 O   0  0  0  0  0  0  0  0  0  0  0  0
    9.9265  -18.1780   26.8710 O   0  0  0  0  0  0  0  0  0  0  0  0
  2  1  1  0
  3  2  2  0
  4  2  1  0
  5  6  1  0
  5  4  1  0
  6  7  1  6
  6  8  1  0
  8  9  2  0
 10 11  1  0
 11 12  2  0
 14 13  1  1
 13 11  1  0
 14 16  1  0
 15  8  1  0
 15 14  1  0
 16 17  2  0
 18 19  1  0
 18 16  1  0
 19 26  1  0
 19 20  1  1
 21 20  1  0
 22 21  2  0
 23 22  1  0
 24 23  1  0
 24 25  2  0
 25 21  1  0
 26 27  2  0
 26 28  1  0
M  END
$$$$
