QNH.pdb
     RDKit          3D

 28 28  0  0  1  0  0  0  0  0999 V2000
    8.8280  -11.9057   18.0643 N   0  0  0  0  0  0  0  0  0  0  0  0
    8.4291  -12.6464   19.2444 C   0  0  0  0  0  0  0  0  0  0  0  0
    7.9796  -11.9656   20.2004 O   0  0  0  0  0  0  0  0  0  0  0  0
    8.5977  -14.0931   19.1922 C   0  0  0  0  0  0  0  0  0  0  0  0
    9.1230  -14.6520   17.9064 C   0  0  0  0  0  0  0  0  0  0  0  0
    9.1892  -16.1428   17.8643 C   0  0  2  0  0  0  0  0  0  0  0  0
    8.0066  -16.6795   17.2717 N   0  0  0  0  0  0  0  0  0  0  0  0
    9.4380  -16.6920   19.2514 C   0  0  0  0  0  0  0  0  0  0  0  0
    8.4179  -16.9714   19.8890 O   0  0  0  0  0  0  0  0  0  0  0  0
   12.3009  -18.8582   23.0896 N   0  0  0  0  0  0  0  0  0  0  0  0
   13.2029  -18.1334   22.2823 C   0  0  0  0  0  0  0  0  0  0  0  0
   14.4265  -18.1934   22.5394 O   0  0  0  0  0  0  0  0  0  0  0  0
   12.7175  -17.3242   21.1623 C   0  0  0  0  0  0  0  0  0  0  0  0
   11.2018  -17.3555   21.0246 C   0  0  2  0  0  0  0  0  0  0  0  0
   10.6912  -16.8753   19.7798 N   0  0  0  0  0  0  0  0  0  0  0  0
   10.7005  -16.4180   22.0597 C   0  0  0  0  0  0  0  0  0  0  0  0
   11.0512  -15.1892   21.9532 O   0  0  0  0  0  0  0  0  0  0  0  0
    9.8626  -16.8041   23.1485 N   0  0  0  0  0  0  0  0  0  0  0  0
    9.4342  -15.7220   24.0580 C   0  0  1  0  0  0  0  0  0  0  0  0
    7.9398  -15.6105   23.8792 C   0  0  0  0  0  0  0  0  0  0  0  0
    7.3711  -14.6109   24.7817 C   0  0  0  0  0  0  0  0  0  0  0  0
    7.9035  -13.3248   24.9641 C   0  0  0  0  0  0  0  0  0  0  0  0
    7.1451  -12.6779   25.8511 N   0  0  0  0  0  0  0  0  0  0  0  0
    6.1455  -13.4799   26.2555 C   0  0  0  0  0  0  0  0  0  0  0  0
    6.3092  -14.6334   25.5952 N   0  0  0  0  0  0  0  0  0  0  0  0
    9.7256  -16.1658   25.4550 C   0  0  0  0  0  0  0  0  0  0  0  0
    9.4906  -15.5055   26.4870 O   0  0  0  0  0  0  0  0  0  0  0  0
   10.3139  -17.4285   25.6569 O   0  0  0  0  0  0  0  0  0  0  0  0
  2  1  1  0
  3  2  2  0
  4  2  1  0
  5  6  1  0
  5  4  1  0
  6  7  1  1
  6  8  1  0
  8  9  2  0
 10 11  1  0
 11 12  2  0
 14 13  1  6
 13 11  1  0
 14 16  1  0
 15  8  1  0
 15 14  1  0
 16 17  2  0
 18 19  1  0
 18 16  1  0
 19 26  1  0
 19 20  1  1
 21 20  1  0
 22 21  2  0
 23 22  1  0
 24 23  1  0
 24 25  2  0
 25 21  1  0
 26 27  2  0
 26 28  1  0
M  END
$$$$
