QNH.pdb
     RDKit          3D

 28 28  0  0  1  0  0  0  0  0999 V2000
    6.3036  -19.7863   15.1069 N   0  0  0  0  0  0  0  0  0  0  0  0
    7.0805  -18.6062   15.4297 C   0  0  0  0  0  0  0  0  0  0  0  0
    7.0983  -17.6993   14.5597 O   0  0  0  0  0  0  0  0  0  0  0  0
    7.7559  -18.6053   16.7211 C   0  0  0  0  0  0  0  0  0  0  0  0
    7.6294  -19.8557   17.5348 C   0  0  0  0  0  0  0  0  0  0  0  0
    8.3574  -19.8190   18.8376 C   0  0  2  0  0  0  0  0  0  0  0  0
    9.3273  -18.7716   18.8394 N   0  0  0  0  0  0  0  0  0  0  0  0
    8.9698  -21.1708   19.1298 C   0  0  0  0  0  0  0  0  0  0  0  0
    8.1613  -22.1016   19.2012 O   0  0  0  0  0  0  0  0  0  0  0  0
   12.5397  -25.1110   18.2820 N   0  0  0  0  0  0  0  0  0  0  0  0
   13.0784  -23.8707   18.6844 C   0  0  0  0  0  0  0  0  0  0  0  0
   14.2214  -23.8450   19.1940 O   0  0  0  0  0  0  0  0  0  0  0  0
   12.3145  -22.6334   18.5099 C   0  0  0  0  0  0  0  0  0  0  0  0
   11.1522  -22.5146   19.4857 C   0  0  2  0  0  0  0  0  0  0  0  0
   10.3163  -21.3704   19.3041 N   0  0  0  0  0  0  0  0  0  0  0  0
   11.7825  -22.3515   20.8191 C   0  0  0  0  0  0  0  0  0  0  0  0
   12.5162  -23.3155   21.2396 O   0  0  0  0  0  0  0  0  0  0  0  0
   11.6192  -21.1986   21.6440 N   0  0  0  0  0  0  0  0  0  0  0  0
   11.7325  -21.4168   23.1005 C   0  0  1  0  0  0  0  0  0  0  0  0
   10.9049  -22.6447   23.3916 C   0  0  0  0  0  0  0  0  0  0  0  0
   10.9256  -22.9723   24.8161 C   0  0  0  0  0  0  0  0  0  0  0  0
   11.5834  -22.2031   25.7890 C   0  0  0  0  0  0  0  0  0  0  0  0
   11.4021  -22.7833   26.9767 N   0  0  0  0  0  0  0  0  0  0  0  0
   10.6590  -23.8928   26.8249 C   0  0  0  0  0  0  0  0  0  0  0  0
   10.3891  -23.9785   25.5160 N   0  0  0  0  0  0  0  0  0  0  0  0
   13.1660  -21.7132   23.4015 C   0  0  0  0  0  0  0  0  0  0  0  0
   13.8764  -22.5391   22.7935 O   0  0  0  0  0  0  0  0  0  0  0  0
   13.7961  -21.0200   24.4519 O   0  0  0  0  0  0  0  0  0  0  0  0
  2  1  1  0
  3  2  2  0
  4  2  1  0
  5  6  1  0
  5  4  1  0
  6  7  1  6
  6  8  1  0
  8  9  2  0
 10 11  1  0
 11 12  2  0
 14 13  1  6
 13 11  1  0
 14 16  1  0
 15  8  1  0
 15 14  1  0
 16 17  2  0
 18 19  1  0
 18 16  1  0
 19 26  1  0
 19 20  1  6
 21 20  1  0
 22 21  2  0
 23 22  1  0
 24 23  1  0
 24 25  2  0
 25 21  1  0
 26 27  2  0
 26 28  1  0
M  END
$$$$
