QNH.pdb
     RDKit          3D

 28 28  0  0  1  0  0  0  0  0999 V2000
    6.9448  -13.3406   16.7274 N   0  0  0  0  0  0  0  0  0  0  0  0
    7.1386  -13.7239   15.3432 C   0  0  0  0  0  0  0  0  0  0  0  0
    6.2114  -13.4231   14.5499 O   0  0  0  0  0  0  0  0  0  0  0  0
    8.3811  -14.4174   15.0281 C   0  0  0  0  0  0  0  0  0  0  0  0
    9.2506  -14.7788   16.1922 C   0  0  0  0  0  0  0  0  0  0  0  0
   10.4968  -15.5142   15.8251 C   0  0  2  0  0  0  0  0  0  0  0  0
   10.1929  -16.6213   14.9767 N   0  0  0  0  0  0  0  0  0  0  0  0
   11.2407  -15.9332   17.0735 C   0  0  0  0  0  0  0  0  0  0  0  0
   11.0552  -17.1042   17.4191 O   0  0  0  0  0  0  0  0  0  0  0  0
   16.3192  -15.2035   19.7084 N   0  0  0  0  0  0  0  0  0  0  0  0
   15.0912  -14.5624   19.9765 C   0  0  0  0  0  0  0  0  0  0  0  0
   14.8250  -14.2351   21.1550 O   0  0  0  0  0  0  0  0  0  0  0  0
   14.1431  -14.2841   18.8956 C   0  0  0  0  0  0  0  0  0  0  0  0
   12.9705  -15.2547   18.8744 C   0  0  2  0  0  0  0  0  0  0  0  0
   12.0641  -15.0944   17.7819 N   0  0  0  0  0  0  0  0  0  0  0  0
   12.1916  -14.9462   20.0990 C   0  0  0  0  0  0  0  0  0  0  0  0
   11.4226  -13.9208   20.0587 O   0  0  0  0  0  0  0  0  0  0  0  0
   12.2509  -15.7169   21.2986 N   0  0  0  0  0  0  0  0  0  0  0  0
   11.0619  -15.6561   22.1729 C   0  0  1  0  0  0  0  0  0  0  0  0
    9.9426  -16.2839   21.3786 C   0  0  0  0  0  0  0  0  0  0  0  0
    9.0752  -15.2656   20.7890 C   0  0  0  0  0  0  0  0  0  0  0  0
    9.2903  -13.8839   20.9128 C   0  0  0  0  0  0  0  0  0  0  0  0
    8.3172  -13.2468   20.2589 N   0  0  0  0  0  0  0  0  0  0  0  0
    7.4789  -14.1459   19.7159 C   0  0  0  0  0  0  0  0  0  0  0  0
    7.9615  -15.3489   20.0523 N   0  0  0  0  0  0  0  0  0  0  0  0
   11.3413  -16.5019   23.3728 C   0  0  0  0  0  0  0  0  0  0  0  0
   12.2901  -17.3038   23.4868 O   0  0  0  0  0  0  0  0  0  0  0  0
   10.4812  -16.4095   24.4832 O   0  0  0  0  0  0  0  0  0  0  0  0
  2  1  1  0
  3  2  2  0
  4  2  1  0
  5  6  1  0
  5  4  1  0
  6  7  1  1
  6  8  1  0
  8  9  2  0
 10 11  1  0
 11 12  2  0
 14 13  1  6
 13 11  1  0
 14 16  1  0
 15  8  1  0
 15 14  1  0
 16 17  2  0
 18 19  1  0
 18 16  1  0
 19 26  1  0
 19 20  1  6
 21 20  1  0
 22 21  2  0
 23 22  1  0
 24 23  1  0
 24 25  2  0
 25 21  1  0
 26 27  2  0
 26 28  1  0
M  END
$$$$
