QNH.pdb
     RDKit          3D

 28 28  0  0  1  0  0  0  0  0999 V2000
    6.6904  -12.8488   18.9128 N   0  0  0  0  0  0  0  0  0  0  0  0
    7.7052  -13.5607   18.1619 C   0  0  0  0  0  0  0  0  0  0  0  0
    7.7089  -13.3729   16.9192 O   0  0  0  0  0  0  0  0  0  0  0  0
    8.6019  -14.4159   18.9291 C   0  0  0  0  0  0  0  0  0  0  0  0
    8.3334  -14.5061   20.3993 C   0  0  0  0  0  0  0  0  0  0  0  0
    9.2708  -15.3988   21.1429 C   0  0  2  0  0  0  0  0  0  0  0  0
    9.6406  -16.5179   20.3376 N   0  0  0  0  0  0  0  0  0  0  0  0
    8.6568  -15.8159   22.4608 C   0  0  0  0  0  0  0  0  0  0  0  0
    7.8738  -14.9961   22.9504 O   0  0  0  0  0  0  0  0  0  0  0  0
    6.9731  -18.9655   22.4314 N   0  0  0  0  0  0  0  0  0  0  0  0
    7.7853  -19.7603   23.2677 C   0  0  0  0  0  0  0  0  0  0  0  0
    7.7991  -21.0001   23.0955 O   0  0  0  0  0  0  0  0  0  0  0  0
    8.5988  -19.1469   24.3197 C   0  0  0  0  0  0  0  0  0  0  0  0
    8.5331  -17.6261   24.3056 C   0  0  2  0  0  0  0  0  0  0  0  0
    8.9331  -17.0085   23.0810 N   0  0  0  0  0  0  0  0  0  0  0  0
    9.5188  -17.1875   25.3243 C   0  0  0  0  0  0  0  0  0  0  0  0
   10.1231  -16.0767   25.1114 O   0  0  0  0  0  0  0  0  0  0  0  0
    9.8245  -17.9229   26.5085 N   0  0  0  0  0  0  0  0  0  0  0  0
   10.2235  -17.1265   27.6866 C   0  0  1  0  0  0  0  0  0  0  0  0
    8.9788  -16.3902   28.1182 C   0  0  0  0  0  0  0  0  0  0  0  0
    9.0094  -14.9956   27.6809 C   0  0  0  0  0  0  0  0  0  0  0  0
   10.0879  -14.4104   26.9988 C   0  0  0  0  0  0  0  0  0  0  0  0
    9.7869  -13.1340   26.7531 N   0  0  0  0  0  0  0  0  0  0  0  0
    8.5656  -12.8593   27.2422 C   0  0  0  0  0  0  0  0  0  0  0  0
    8.1254  -13.9976   27.7931 N   0  0  0  0  0  0  0  0  0  0  0  0
   10.6213  -18.0832   28.7636 C   0  0  0  0  0  0  0  0  0  0  0  0
   10.3748  -19.3061   28.7711 O   0  0  0  0  0  0  0  0  0  0  0  0
   11.3341  -17.5956   29.8750 O   0  0  0  0  0  0  0  0  0  0  0  0
  2  1  1  0
  3  2  2  0
  4  2  1  0
  5  6  1  0
  5  4  1  0
  6  7  1  6
  6  8  1  0
  8  9  2  0
 10 11  1  0
 11 12  2  0
 14 13  1  6
 13 11  1  0
 14 16  1  0
 15  8  1  0
 15 14  1  0
 16 17  2  0
 18 19  1  0
 18 16  1  0
 19 26  1  0
 19 20  1  1
 21 20  1  0
 22 21  2  0
 23 22  1  0
 24 23  1  0
 24 25  2  0
 25 21  1  0
 26 27  2  0
 26 28  1  0
M  END
$$$$
