QNH.pdb
     RDKit          3D

 28 28  0  0  1  0  0  0  0  0999 V2000
    7.4232  -12.5353   17.8518 N   0  0  0  0  0  0  0  0  0  0  0  0
    7.8348  -13.6975   17.0900 C   0  0  0  0  0  0  0  0  0  0  0  0
    7.3216  -13.8227   15.9496 O   0  0  0  0  0  0  0  0  0  0  0  0
    8.7911  -14.5906   17.7316 C   0  0  0  0  0  0  0  0  0  0  0  0
    9.2810  -14.1742   19.0838 C   0  0  0  0  0  0  0  0  0  0  0  0
   10.1110  -15.2006   19.7810 C   0  0  2  0  0  0  0  0  0  0  0  0
    9.6757  -16.5153   19.4351 N   0  0  0  0  0  0  0  0  0  0  0  0
   10.0885  -14.9613   21.2743 C   0  0  0  0  0  0  0  0  0  0  0  0
   10.3781  -13.8115   21.6195 O   0  0  0  0  0  0  0  0  0  0  0  0
    7.3969  -15.8599   25.6629 N   0  0  0  0  0  0  0  0  0  0  0  0
    6.8025  -16.3619   24.4860 C   0  0  0  0  0  0  0  0  0  0  0  0
    5.6153  -16.7564   24.5294 O   0  0  0  0  0  0  0  0  0  0  0  0
    7.5601  -16.4213   23.2341 C   0  0  0  0  0  0  0  0  0  0  0  0
    9.0049  -15.9702   23.3965 C   0  0  2  0  0  0  0  0  0  0  0  0
    9.7721  -15.9314   22.1920 N   0  0  0  0  0  0  0  0  0  0  0  0
    9.6389  -17.0049   24.2505 C   0  0  0  0  0  0  0  0  0  0  0  0
    8.9624  -18.0708   24.4752 O   0  0  0  0  0  0  0  0  0  0  0  0
   10.9393  -16.8795   24.8247 N   0  0  0  0  0  0  0  0  0  0  0  0
   11.4312  -18.0450   25.5872 C   0  0  1  0  0  0  0  0  0  0  0  0
   12.9220  -17.8470   25.7127 C   0  0  0  0  0  0  0  0  0  0  0  0
   13.5690  -17.8472   24.4018 C   0  0  0  0  0  0  0  0  0  0  0  0
   12.8888  -18.0516   23.1909 C   0  0  0  0  0  0  0  0  0  0  0  0
   13.7751  -17.9892   22.1953 N   0  0  0  0  0  0  0  0  0  0  0  0
   14.9988  -17.7547   22.6987 C   0  0  0  0  0  0  0  0  0  0  0  0
   14.8414  -17.6747   24.0262 N   0  0  0  0  0  0  0  0  0  0  0  0
   10.8159  -17.9857   26.9477 C   0  0  0  0  0  0  0  0  0  0  0  0
   11.0791  -18.7546   27.8942 O   0  0  0  0  0  0  0  0  0  0  0  0
    9.8564  -16.9913   27.2156 O   0  0  0  0  0  0  0  0  0  0  0  0
  2  1  1  0
  3  2  2  0
  4  2  1  0
  5  6  1  0
  5  4  1  0
  6  7  1  1
  6  8  1  0
  8  9  2  0
 10 11  1  0
 11 12  2  0
 14 13  1  6
 13 11  1  0
 14 16  1  0
 15  8  1  0
 15 14  1  0
 16 17  2  0
 18 19  1  0
 18 16  1  0
 19 26  1  0
 19 20  1  1
 21 20  1  0
 22 21  2  0
 23 22  1  0
 24 23  1  0
 24 25  2  0
 25 21  1  0
 26 27  2  0
 26 28  1  0
M  END
$$$$
