QNH.pdb
     RDKit          3D

 28 28  0  0  1  0  0  0  0  0999 V2000
    8.7672  -12.8741   16.6587 N   0  0  0  0  0  0  0  0  0  0  0  0
    8.0225  -13.9947   17.1975 C   0  0  0  0  0  0  0  0  0  0  0  0
    7.8642  -14.9760   16.4284 O   0  0  0  0  0  0  0  0  0  0  0  0
    7.5380  -13.8564   18.5650 C   0  0  0  0  0  0  0  0  0  0  0  0
    8.5596  -14.0146   19.6480 C   0  0  0  0  0  0  0  0  0  0  0  0
    8.2404  -15.0789   20.6450 C   0  0  2  0  0  0  0  0  0  0  0  0
    6.8603  -15.4362   20.5709 N   0  0  0  0  0  0  0  0  0  0  0  0
    8.6451  -14.6311   22.0319 C   0  0  0  0  0  0  0  0  0  0  0  0
    9.8427  -14.3580   22.1595 O   0  0  0  0  0  0  0  0  0  0  0  0
    8.1706  -13.2253   27.0568 N   0  0  0  0  0  0  0  0  0  0  0  0
    6.9691  -12.9023   26.3915 C   0  0  0  0  0  0  0  0  0  0  0  0
    6.1234  -12.1928   26.9816 O   0  0  0  0  0  0  0  0  0  0  0  0
    6.7141  -13.3882   25.0336 C   0  0  0  0  0  0  0  0  0  0  0  0
    7.8796  -14.1840   24.4628 C   0  0  2  0  0  0  0  0  0  0  0  0
    7.7663  -14.5277   23.0808 N   0  0  0  0  0  0  0  0  0  0  0  0
    7.8699  -15.4690   25.2046 C   0  0  0  0  0  0  0  0  0  0  0  0
    6.7379  -16.0560   25.3404 O   0  0  0  0  0  0  0  0  0  0  0  0
    9.0333  -16.0766   25.7649 N   0  0  0  0  0  0  0  0  0  0  0  0
    8.8229  -17.3501   26.4831 C   0  0  1  0  0  0  0  0  0  0  0  0
    9.4147  -18.4180   25.5960 C   0  0  0  0  0  0  0  0  0  0  0  0
    8.4184  -19.4291   25.2469 C   0  0  0  0  0  0  0  0  0  0  0  0
    7.0900  -19.4117   25.7007 C   0  0  0  0  0  0  0  0  0  0  0  0
    6.4595  -20.4738   25.1961 N   0  0  0  0  0  0  0  0  0  0  0  0
    7.3123  -21.1822   24.4365 C   0  0  0  0  0  0  0  0  0  0  0  0
    8.4801  -20.5288   24.4874 N   0  0  0  0  0  0  0  0  0  0  0  0
    9.6054  -17.2847   27.7546 C   0  0  0  0  0  0  0  0  0  0  0  0
   10.4897  -16.4447   28.0168 O   0  0  0  0  0  0  0  0  0  0  0  0
    9.3472  -18.2355   28.7598 O   0  0  0  0  0  0  0  0  0  0  0  0
  2  1  1  0
  3  2  2  0
  4  2  1  0
  5  6  1  0
  5  4  1  0
  6  7  1  1
  6  8  1  0
  8  9  2  0
 10 11  1  0
 11 12  2  0
 14 13  1  1
 13 11  1  0
 14 16  1  0
 15  8  1  0
 15 14  1  0
 16 17  2  0
 18 19  1  0
 18 16  1  0
 19 26  1  0
 19 20  1  6
 21 20  1  0
 22 21  2  0
 23 22  1  0
 24 23  1  0
 24 25  2  0
 25 21  1  0
 26 27  2  0
 26 28  1  0
M  END
$$$$
