QNH.pdb
     RDKit          3D

 28 28  0  0  1  0  0  0  0  0999 V2000
   12.2646  -20.7715   19.4891 N   0  0  0  0  0  0  0  0  0  0  0  0
   11.3088  -20.4033   18.4638 C   0  0  0  0  0  0  0  0  0  0  0  0
   11.5323  -20.8517   17.3111 O   0  0  0  0  0  0  0  0  0  0  0  0
   10.2015  -19.5530   18.8818 C   0  0  0  0  0  0  0  0  0  0  0  0
   10.1227  -19.2405   20.3439 C   0  0  0  0  0  0  0  0  0  0  0  0
    9.4675  -20.3005   21.1659 C   0  0  2  0  0  0  0  0  0  0  0  0
    8.3937  -20.9020   20.4428 N   0  0  0  0  0  0  0  0  0  0  0  0
    9.0187  -19.7278   22.4919 C   0  0  0  0  0  0  0  0  0  0  0  0
    9.5684  -18.6693   22.8120 O   0  0  0  0  0  0  0  0  0  0  0  0
    5.0860  -19.6573   22.7232 N   0  0  0  0  0  0  0  0  0  0  0  0
    5.3615  -20.7549   23.5659 C   0  0  0  0  0  0  0  0  0  0  0  0
    4.9533  -21.8902   23.2324 O   0  0  0  0  0  0  0  0  0  0  0  0
    6.1119  -20.5706   24.8100 C   0  0  0  0  0  0  0  0  0  0  0  0
    7.5188  -20.0378   24.5774 C   0  0  2  0  0  0  0  0  0  0  0  0
    8.0747  -20.3208   23.2922 N   0  0  0  0  0  0  0  0  0  0  0  0
    8.3706  -20.7561   25.5572 C   0  0  0  0  0  0  0  0  0  0  0  0
    8.7814  -21.9251   25.2269 O   0  0  0  0  0  0  0  0  0  0  0  0
    8.7513  -20.2244   26.8256 N   0  0  0  0  0  0  0  0  0  0  0  0
   10.1782  -20.3521   27.1852 C   0  0  1  0  0  0  0  0  0  0  0  0
   10.9291  -19.5412   26.1575 C   0  0  0  0  0  0  0  0  0  0  0  0
   11.9179  -20.3585   25.4567 C   0  0  0  0  0  0  0  0  0  0  0  0
   12.1095  -21.7297   25.6889 C   0  0  0  0  0  0  0  0  0  0  0  0
   13.0839  -22.1599   24.8852 N   0  0  0  0  0  0  0  0  0  0  0  0
   13.5364  -21.1360   24.1416 C   0  0  0  0  0  0  0  0  0  0  0  0
   12.8161  -20.0684   24.5084 N   0  0  0  0  0  0  0  0  0  0  0  0
   10.3620  -19.7250   28.5292 C   0  0  0  0  0  0  0  0  0  0  0  0
   11.2243  -20.0542   29.3685 O   0  0  0  0  0  0  0  0  0  0  0  0
    9.5076  -18.6733   28.9098 O   0  0  0  0  0  0  0  0  0  0  0  0
  2  1  1  0
  3  2  2  0
  4  2  1  0
  5  6  1  0
  5  4  1  0
  6  7  1  6
  6  8  1  0
  8  9  2  0
 10 11  1  0
 11 12  2  0
 14 13  1  6
 13 11  1  0
 14 16  1  0
 15  8  1  0
 15 14  1  0
 16 17  2  0
 18 19  1  0
 18 16  1  0
 19 26  1  0
 19 20  1  6
 21 20  1  0
 22 21  2  0
 23 22  1  0
 24 23  1  0
 24 25  2  0
 25 21  1  0
 26 27  2  0
 26 28  1  0
M  END
$$$$
