QNH.pdb
     RDKit          3D

 28 28  0  0  1  0  0  0  0  0999 V2000
    7.8082  -12.4074   18.4338 N   0  0  0  0  0  0  0  0  0  0  0  0
    8.0832  -13.5252   17.5533 C   0  0  0  0  0  0  0  0  0  0  0  0
    8.1860  -13.2550   16.3302 O   0  0  0  0  0  0  0  0  0  0  0  0
    8.2046  -14.8342   18.1824 C   0  0  0  0  0  0  0  0  0  0  0  0
    7.9804  -14.8806   19.6620 C   0  0  0  0  0  0  0  0  0  0  0  0
    8.5185  -16.1032   20.3284 C   0  0  2  0  0  0  0  0  0  0  0  0
    8.4707  -17.2194   19.4399 N   0  0  0  0  0  0  0  0  0  0  0  0
    7.7739  -16.3629   21.6191 C   0  0  0  0  0  0  0  0  0  0  0  0
    6.7352  -15.7097   21.7587 O   0  0  0  0  0  0  0  0  0  0  0  0
    6.0260  -19.5987   25.6631 N   0  0  0  0  0  0  0  0  0  0  0  0
    7.4143  -19.6178   25.4120 C   0  0  0  0  0  0  0  0  0  0  0  0
    8.1873  -20.0008   26.3190 O   0  0  0  0  0  0  0  0  0  0  0  0
    7.9435  -19.1969   24.1129 C   0  0  0  0  0  0  0  0  0  0  0  0
    7.6780  -17.7279   23.8152 C   0  0  2  0  0  0  0  0  0  0  0  0
    8.2003  -17.2518   22.5737 N   0  0  0  0  0  0  0  0  0  0  0  0
    8.4016  -16.9822   24.8746 C   0  0  0  0  0  0  0  0  0  0  0  0
    9.6766  -16.9012   24.7642 O   0  0  0  0  0  0  0  0  0  0  0  0
    7.7651  -16.3604   25.9903 N   0  0  0  0  0  0  0  0  0  0  0  0
    8.6589  -15.7383   26.9882 C   0  0  1  0  0  0  0  0  0  0  0  0
    7.8378  -14.6587   27.6499 C   0  0  0  0  0  0  0  0  0  0  0  0
    7.5594  -13.5621   26.7243 C   0  0  0  0  0  0  0  0  0  0  0  0
    8.1004  -13.4691   25.4322 C   0  0  0  0  0  0  0  0  0  0  0  0
    7.6427  -12.3518   24.8643 N   0  0  0  0  0  0  0  0  0  0  0  0
    6.8308  -11.7125   25.7234 C   0  0  0  0  0  0  0  0  0  0  0  0
    6.8016  -12.4647   26.8310 N   0  0  0  0  0  0  0  0  0  0  0  0
    8.9981  -16.7824   28.0022 C   0  0  0  0  0  0  0  0  0  0  0  0
    8.5492  -17.9463   28.0191 O   0  0  0  0  0  0  0  0  0  0  0  0
    9.8954  -16.4573   29.0367 O   0  0  0  0  0  0  0  0  0  0  0  0
  2  1  1  0
  3  2  2  0
  4  2  1  0
  5  6  1  0
  5  4  1  0
  6  7  1  6
  6  8  1  0
  8  9  2  0
 10 11  1  0
 11 12  2  0
 14 13  1  1
 13 11  1  0
 14 16  1  0
 15  8  1  0
 15 14  1  0
 16 17  2  0
 18 19  1  0
 18 16  1  0
 19 26  1  0
 19 20  1  1
 21 20  1  0
 22 21  2  0
 23 22  1  0
 24 23  1  0
 24 25  2  0
 25 21  1  0
 26 27  2  0
 26 28  1  0
M  END
$$$$
