CCK.pdb
     RDKit          3D

 22 21  0  0  1  0  0  0  0  0999 V2000
   18.3943  -24.1055   -7.4996 N   0  0  0  0  0  0  0  0  0  0  0  0
   19.0973  -24.1221   -8.7707 C   0  0  1  0  0  0  0  0  0  0  0  0
   18.3673  -25.0821   -9.6717 C   0  0  0  0  0  0  0  0  0  0  0  0
   19.2242  -25.3728  -11.2310 S   0  0  0  0  0  0  0  0  0  0  0  0
   19.1815  -22.7568   -9.3223 C   0  0  0  0  0  0  0  0  0  0  0  0
   18.1314  -22.0615   -9.4004 O   0  0  0  0  0  0  0  0  0  0  0  0
   20.3768  -22.1594   -9.7787 N   0  0  0  0  0  0  0  0  0  0  0  0
   20.4922  -20.8774  -10.3903 C   0  0  1  0  0  0  0  0  0  0  0  0
   21.6978  -20.1611   -9.7679 C   0  0  0  0  0  0  0  0  0  0  0  0
   21.4208  -19.7480   -8.0457 S   0  0  0  0  0  0  0  0  0  0  0  0
   20.5900  -20.9033  -11.8481 C   0  0  0  0  0  0  0  0  0  0  0  0
   21.2773  -21.7987  -12.3971 O   0  0  0  0  0  0  0  0  0  0  0  0
   19.9529  -19.9723  -12.7068 N   0  0  0  0  0  0  0  0  0  0  0  0
   20.0777  -20.0028  -14.1598 C   0  0  1  0  0  0  0  0  0  0  0  0
   19.1217  -19.1097  -14.8558 C   0  0  0  0  0  0  0  0  0  0  0  0
   18.7429  -19.4418  -16.2456 C   0  0  0  0  0  0  0  0  0  0  0  0
   17.2866  -19.5525  -16.5469 C   0  0  0  0  0  0  0  0  0  0  0  0
   17.1396  -19.9712  -18.0241 C   0  0  0  0  0  0  0  0  0  0  0  0
   15.7319  -20.0198  -18.3731 N   0  0  0  0  0  0  0  0  0  0  0  0
   21.4997  -19.7715  -14.4891 C   0  0  0  0  0  0  0  0  0  0  0  0
   22.1667  -18.9070  -13.8711 O   0  0  0  0  0  0  0  0  0  0  0  0
   22.1361  -20.4957  -15.4847 O   0  0  0  0  0  0  0  0  0  0  0  0
  2  1  1  1
  2  5  1  0
  3  2  1  0
  4  3  1  0
  5  6  2  0
  7  5  1  0
  7  8  1  0
  8 11  1  0
  8  9  1  1
 10  9  1  0
 11 13  1  0
 12 11  2  0
 13 14  1  0
 14 15  1  6
 15 16  1  0
 16 17  1  0
 17 18  1  0
 19 18  1  0
 20 22  1  0
 20 14  1  0
 21 20  2  0
M  END
$$$$
