CCK.pdb
     RDKit          3D

 22 21  0  0  1  0  0  0  0  0999 V2000
   28.6349  -20.7516  -15.9768 N   0  0  0  0  0  0  0  0  0  0  0  0
   28.0593  -19.9174  -14.9362 C   0  0  1  0  0  0  0  0  0  0  0  0
   27.2104  -18.8770  -15.6169 C   0  0  0  0  0  0  0  0  0  0  0  0
   28.1367  -17.8744  -16.7945 S   0  0  0  0  0  0  0  0  0  0  0  0
   27.3048  -20.7478  -13.9790 C   0  0  0  0  0  0  0  0  0  0  0  0
   27.9040  -21.6735  -13.3654 O   0  0  0  0  0  0  0  0  0  0  0  0
   25.9323  -20.5785  -13.6937 N   0  0  0  0  0  0  0  0  0  0  0  0
   25.2578  -21.0319  -12.5230 C   0  0  1  0  0  0  0  0  0  0  0  0
   25.9662  -20.4284  -11.3031 C   0  0  0  0  0  0  0  0  0  0  0  0
   25.2621  -21.0082   -9.7600 S   0  0  0  0  0  0  0  0  0  0  0  0
   23.8250  -20.7460  -12.4948 C   0  0  0  0  0  0  0  0  0  0  0  0
   23.4428  -19.5522  -12.4290 O   0  0  0  0  0  0  0  0  0  0  0  0
   22.8128  -21.7379  -12.5370 N   0  0  0  0  0  0  0  0  0  0  0  0
   21.5918  -21.6075  -13.3243 C   0  0  1  0  0  0  0  0  0  0  0  0
   21.0825  -22.8975  -13.8463 C   0  0  0  0  0  0  0  0  0  0  0  0
   21.8383  -23.5572  -14.9321 C   0  0  0  0  0  0  0  0  0  0  0  0
   22.4188  -24.8994  -14.6402 C   0  0  0  0  0  0  0  0  0  0  0  0
   23.2194  -25.3484  -15.8797 C   0  0  0  0  0  0  0  0  0  0  0  0
   23.8441  -26.6304  -15.6112 N   0  0  0  0  0  0  0  0  0  0  0  0
   20.6233  -20.8351  -12.5185 C   0  0  0  0  0  0  0  0  0  0  0  0
   19.5381  -20.4516  -13.0180 O   0  0  0  0  0  0  0  0  0  0  0  0
   20.8821  -20.5108  -11.1962 O   0  0  0  0  0  0  0  0  0  0  0  0
  2  1  1  6
  2  5  1  0
  3  2  1  0
  4  3  1  0
  5  6  2  0
  7  5  1  0
  7  8  1  0
  8 11  1  0
  8  9  1  1
 10  9  1  0
 11 13  1  0
 12 11  2  0
 13 14  1  0
 14 15  1  1
 15 16  1  0
 16 17  1  0
 17 18  1  0
 19 18  1  0
 20 22  1  0
 20 14  1  0
 21 20  2  0
M  END
$$$$
