CCK.pdb
     RDKit          3D

 22 21  0  0  1  0  0  0  0  0999 V2000
   20.8790  -12.6293  -17.8647 N   0  0  0  0  0  0  0  0  0  0  0  0
   21.6053  -11.3918  -18.0909 C   0  0  1  0  0  0  0  0  0  0  0  0
   21.3372  -10.9703  -19.5111 C   0  0  0  0  0  0  0  0  0  0  0  0
   22.7512  -11.2270  -20.5995 S   0  0  0  0  0  0  0  0  0  0  0  0
   21.2029  -10.3781  -17.0980 C   0  0  0  0  0  0  0  0  0  0  0  0
   20.0232   -9.9310  -17.1221 O   0  0  0  0  0  0  0  0  0  0  0  0
   22.0601   -9.8613  -16.1019 N   0  0  0  0  0  0  0  0  0  0  0  0
   21.6943   -8.9410  -15.0771 C   0  0  1  0  0  0  0  0  0  0  0  0
   22.1140   -9.5405  -13.7286 C   0  0  0  0  0  0  0  0  0  0  0  0
   20.8326  -10.5774  -13.0243 S   0  0  0  0  0  0  0  0  0  0  0  0
   22.2349   -7.5938  -15.2455 C   0  0  0  0  0  0  0  0  0  0  0  0
   23.4433   -7.4562  -15.5559 O   0  0  0  0  0  0  0  0  0  0  0  0
   21.4798   -6.4051  -15.0808 N   0  0  0  0  0  0  0  0  0  0  0  0
   22.0245   -5.0698  -15.2998 C   0  0  1  0  0  0  0  0  0  0  0  0
   21.1517   -4.2014  -16.1244 C   0  0  0  0  0  0  0  0  0  0  0  0
   21.0532   -4.4856  -17.5718 C   0  0  0  0  0  0  0  0  0  0  0  0
   20.1478   -3.6159  -18.3768 C   0  0  0  0  0  0  0  0  0  0  0  0
   20.1721   -4.1265  -19.8319 C   0  0  0  0  0  0  0  0  0  0  0  0
   19.2692   -3.3262  -20.6383 N   0  0  0  0  0  0  0  0  0  0  0  0
   22.3867   -4.5150  -13.9787 C   0  0  0  0  0  0  0  0  0  0  0  0
   23.0479   -3.4523  -13.8911 O   0  0  0  0  0  0  0  0  0  0  0  0
   22.0119   -5.1475  -12.8039 O   0  0  0  0  0  0  0  0  0  0  0  0
  2  1  1  1
  2  5  1  0
  3  2  1  0
  4  3  1  0
  5  6  2  0
  7  5  1  0
  7  8  1  0
  8 11  1  0
  8  9  1  1
 10  9  1  0
 11 13  1  0
 12 11  2  0
 13 14  1  0
 14 15  1  1
 15 16  1  0
 16 17  1  0
 17 18  1  0
 19 18  1  0
 20 22  1  0
 20 14  1  0
 21 20  2  0
M  END
$$$$
