CCK.pdb
     RDKit          3D

 22 21  0  0  1  0  0  0  0  0999 V2000
   44.1018  -11.0887   -6.4314 N   0  0  0  0  0  0  0  0  0  0  0  0
   44.7234  -10.9095   -7.7321 C   0  0  1  0  0  0  0  0  0  0  0  0
   45.5326  -12.1472   -8.0142 C   0  0  0  0  0  0  0  0  0  0  0  0
   46.8613  -12.4051   -6.8234 S   0  0  0  0  0  0  0  0  0  0  0  0
   43.6943  -10.6422   -8.7542 C   0  0  0  0  0  0  0  0  0  0  0  0
   44.0037   -9.9651   -9.7731 O   0  0  0  0  0  0  0  0  0  0  0  0
   42.3605  -11.0988   -8.6735 N   0  0  0  0  0  0  0  0  0  0  0  0
   41.3375  -10.8719   -9.6393 C   0  0  1  0  0  0  0  0  0  0  0  0
   40.5210  -12.1634   -9.7784 C   0  0  0  0  0  0  0  0  0  0  0  0
   41.3884  -13.4095  -10.7313 S   0  0  0  0  0  0  0  0  0  0  0  0
   40.4717   -9.7296   -9.3544 C   0  0  0  0  0  0  0  0  0  0  0  0
   40.0296   -9.5754   -8.1898 O   0  0  0  0  0  0  0  0  0  0  0  0
   40.0856   -8.7621  -10.3161 N   0  0  0  0  0  0  0  0  0  0  0  0
   39.2462   -7.6103  -10.0055 C   0  0  1  0  0  0  0  0  0  0  0  0
   39.9236   -6.5912   -9.1697 C   0  0  0  0  0  0  0  0  0  0  0  0
   39.1567   -5.3899   -8.7770 C   0  0  0  0  0  0  0  0  0  0  0  0
   39.8362   -4.4106   -7.8809 C   0  0  0  0  0  0  0  0  0  0  0  0
   38.8320   -3.2839   -7.5636 C   0  0  0  0  0  0  0  0  0  0  0  0
   39.5020   -2.2393   -6.8114 N   0  0  0  0  0  0  0  0  0  0  0  0
   38.6949   -7.1049  -11.2802 C   0  0  0  0  0  0  0  0  0  0  0  0
   39.1107   -7.5493  -12.3774 O   0  0  0  0  0  0  0  0  0  0  0  0
   37.7100   -6.1302  -11.3036 O   0  0  0  0  0  0  0  0  0  0  0  0
  2  1  1  1
  2  5  1  0
  3  2  1  0
  4  3  1  0
  5  6  2  0
  7  5  1  0
  7  8  1  0
  8 11  1  0
  8  9  1  1
 10  9  1  0
 11 13  1  0
 12 11  2  0
 13 14  1  0
 14 15  1  6
 15 16  1  0
 16 17  1  0
 17 18  1  0
 19 18  1  0
 20 22  1  0
 20 14  1  0
 21 20  2  0
M  END
$$$$
