CCK.pdb
     RDKit          3D

 22 21  0  0  1  0  0  0  0  0999 V2000
   19.3553  -15.3021  -17.6706 N   0  0  0  0  0  0  0  0  0  0  0  0
   19.7872  -14.0465  -18.2597 C   0  0  1  0  0  0  0  0  0  0  0  0
   18.7064  -13.6043  -19.2097 C   0  0  0  0  0  0  0  0  0  0  0  0
   18.6400  -14.5993  -20.7115 S   0  0  0  0  0  0  0  0  0  0  0  0
   20.0700  -13.0595  -17.2008 C   0  0  0  0  0  0  0  0  0  0  0  0
   19.2535  -12.9329  -16.2471 O   0  0  0  0  0  0  0  0  0  0  0  0
   21.2118  -12.2291  -17.1767 N   0  0  0  0  0  0  0  0  0  0  0  0
   21.5382  -11.2829  -16.1623 C   0  0  1  0  0  0  0  0  0  0  0  0
   23.0345  -11.4180  -15.8507 C   0  0  0  0  0  0  0  0  0  0  0  0
   23.5746  -10.2374  -14.6147 S   0  0  0  0  0  0  0  0  0  0  0  0
   21.1898   -9.9003  -16.4825 C   0  0  0  0  0  0  0  0  0  0  0  0
   21.4857   -9.4433  -17.6134 O   0  0  0  0  0  0  0  0  0  0  0  0
   20.5282   -9.0178  -15.5916 N   0  0  0  0  0  0  0  0  0  0  0  0
   20.1555   -7.6518  -15.9421 C   0  0  1  0  0  0  0  0  0  0  0  0
   18.6911   -7.4383  -16.0197 C   0  0  0  0  0  0  0  0  0  0  0  0
   18.1993   -6.0688  -16.2804 C   0  0  0  0  0  0  0  0  0  0  0  0
   16.7243   -5.8543  -16.2339 C   0  0  0  0  0  0  0  0  0  0  0  0
   16.4495   -4.3784  -16.5876 C   0  0  0  0  0  0  0  0  0  0  0  0
   15.0244   -4.1193  -16.4999 N   0  0  0  0  0  0  0  0  0  0  0  0
   20.8696   -6.7451  -15.0191 C   0  0  0  0  0  0  0  0  0  0  0  0
   21.2266   -7.1405  -13.8831 O   0  0  0  0  0  0  0  0  0  0  0  0
   21.1637   -5.4386  -15.3759 O   0  0  0  0  0  0  0  0  0  0  0  0
  2  1  1  1
  2  5  1  0
  3  2  1  0
  4  3  1  0
  5  6  2  0
  7  5  1  0
  7  8  1  0
  8 11  1  0
  8  9  1  6
 10  9  1  0
 11 13  1  0
 12 11  2  0
 13 14  1  0
 14 15  1  1
 15 16  1  0
 16 17  1  0
 17 18  1  0
 19 18  1  0
 20 22  1  0
 20 14  1  0
 21 20  2  0
M  END
$$$$
