CCK.pdb
     RDKit          3D

 22 21  0  0  1  0  0  0  0  0999 V2000
   19.6007  -21.0157  -12.8073 N   0  0  0  0  0  0  0  0  0  0  0  0
   20.7494  -20.1858  -12.4881 C   0  0  1  0  0  0  0  0  0  0  0  0
   20.8129  -20.0695  -10.9886 C   0  0  0  0  0  0  0  0  0  0  0  0
   19.8234  -18.7062  -10.3466 S   0  0  0  0  0  0  0  0  0  0  0  0
   21.9719  -20.7620  -13.0788 C   0  0  0  0  0  0  0  0  0  0  0  0
   22.1481  -22.0104  -13.0267 O   0  0  0  0  0  0  0  0  0  0  0  0
   22.9800  -20.0020  -13.7113 N   0  0  0  0  0  0  0  0  0  0  0  0
   24.1694  -20.5166  -14.3042 C   0  0  1  0  0  0  0  0  0  0  0  0
   24.1651  -20.1306  -15.7891 C   0  0  0  0  0  0  0  0  0  0  0  0
   24.0277  -18.3589  -16.0244 S   0  0  0  0  0  0  0  0  0  0  0  0
   25.4078  -20.0937  -13.6538 C   0  0  0  0  0  0  0  0  0  0  0  0
   25.5097  -18.9104  -13.2477 O   0  0  0  0  0  0  0  0  0  0  0  0
   26.5265  -20.9387  -13.4427 N   0  0  0  0  0  0  0  0  0  0  0  0
   27.8021  -20.4670  -12.9154 C   0  0  1  0  0  0  0  0  0  0  0  0
   28.4303  -21.4054  -11.9558 C   0  0  0  0  0  0  0  0  0  0  0  0
   29.7867  -21.0906  -11.4595 C   0  0  0  0  0  0  0  0  0  0  0  0
   30.4448  -22.1042  -10.5859 C   0  0  0  0  0  0  0  0  0  0  0  0
   31.8435  -21.5712  -10.2136 C   0  0  0  0  0  0  0  0  0  0  0  0
   32.4690  -22.4784   -9.2694 N   0  0  0  0  0  0  0  0  0  0  0  0
   28.6491  -20.0938  -14.0676 C   0  0  0  0  0  0  0  0  0  0  0  0
   29.5526  -19.2321  -13.9443 O   0  0  0  0  0  0  0  0  0  0  0  0
   28.4721  -20.6783  -15.3116 O   0  0  0  0  0  0  0  0  0  0  0  0
  2  1  1  1
  2  5  1  0
  3  2  1  0
  4  3  1  0
  5  6  2  0
  7  5  1  0
  7  8  1  0
  8 11  1  0
  8  9  1  6
 10  9  1  0
 11 13  1  0
 12 11  2  0
 13 14  1  0
 14 15  1  6
 15 16  1  0
 16 17  1  0
 17 18  1  0
 19 18  1  0
 20 22  1  0
 20 14  1  0
 21 20  2  0
M  END
$$$$
