CCK.pdb
     RDKit          3D

 22 21  0  0  1  0  0  0  0  0999 V2000
   18.5990  -13.1577  -16.0552 N   0  0  0  0  0  0  0  0  0  0  0  0
   18.7351  -11.7754  -16.4804 C   0  0  1  0  0  0  0  0  0  0  0  0
   17.3562  -11.1714  -16.4827 C   0  0  0  0  0  0  0  0  0  0  0  0
   16.4235  -11.5540  -17.9772 S   0  0  0  0  0  0  0  0  0  0  0  0
   19.6800  -11.0638  -15.5995 C   0  0  0  0  0  0  0  0  0  0  0  0
   19.5310  -11.1438  -14.3490 O   0  0  0  0  0  0  0  0  0  0  0  0
   20.7615  -10.2835  -16.0638 N   0  0  0  0  0  0  0  0  0  0  0  0
   21.6407   -9.5054  -15.2560 C   0  0  1  0  0  0  0  0  0  0  0  0
   23.0387  -10.1325  -15.3359 C   0  0  0  0  0  0  0  0  0  0  0  0
   23.0493  -11.6321  -16.3178 S   0  0  0  0  0  0  0  0  0  0  0  0
   21.6812   -8.0839  -15.5927 C   0  0  0  0  0  0  0  0  0  0  0  0
   21.6538   -7.7425  -16.8002 O   0  0  0  0  0  0  0  0  0  0  0  0
   21.7506   -7.0395  -14.6364 N   0  0  0  0  0  0  0  0  0  0  0  0
   21.7565   -5.6244  -14.9903 C   0  0  1  0  0  0  0  0  0  0  0  0
   20.4942   -5.1644  -15.6155 C   0  0  0  0  0  0  0  0  0  0  0  0
   19.2219   -5.4852  -14.9346 C   0  0  0  0  0  0  0  0  0  0  0  0
   17.9659   -4.9931  -15.5704 C   0  0  0  0  0  0  0  0  0  0  0  0
   16.7772   -5.5292  -14.7467 C   0  0  0  0  0  0  0  0  0  0  0  0
   15.5352   -5.0555  -15.3290 N   0  0  0  0  0  0  0  0  0  0  0  0
   22.1699   -4.8675  -13.7903 C   0  0  0  0  0  0  0  0  0  0  0  0
   22.4301   -3.6424  -13.8653 O   0  0  0  0  0  0  0  0  0  0  0  0
   22.2840   -5.4827  -12.5537 O   0  0  0  0  0  0  0  0  0  0  0  0
  2  1  1  1
  2  5  1  0
  3  2  1  0
  4  3  1  0
  5  6  2  0
  7  5  1  0
  7  8  1  0
  8 11  1  0
  8  9  1  6
 10  9  1  0
 11 13  1  0
 12 11  2  0
 13 14  1  0
 14 15  1  1
 15 16  1  0
 16 17  1  0
 17 18  1  0
 19 18  1  0
 20 22  1  0
 20 14  1  0
 21 20  2  0
M  END
$$$$
