CCK.pdb
     RDKit          3D

 22 21  0  0  1  0  0  0  0  0999 V2000
   17.7158  -19.8504   -0.2968 N   0  0  0  0  0  0  0  0  0  0  0  0
   16.7827  -19.5049    0.7616 C   0  0  1  0  0  0  0  0  0  0  0  0
   16.0544  -20.7659    1.1434 C   0  0  0  0  0  0  0  0  0  0  0  0
   14.7209  -20.4783    2.3219 S   0  0  0  0  0  0  0  0  0  0  0  0
   17.5018  -18.8846    1.8900 C   0  0  0  0  0  0  0  0  0  0  0  0
   18.7454  -19.0685    1.9997 O   0  0  0  0  0  0  0  0  0  0  0  0
   16.8866  -18.0833    2.8766 N   0  0  0  0  0  0  0  0  0  0  0  0
   17.5533  -17.3904    3.9285 C   0  0  1  0  0  0  0  0  0  0  0  0
   18.1623  -16.1100    3.3422 C   0  0  0  0  0  0  0  0  0  0  0  0
   16.9053  -14.9596    2.7855 S   0  0  0  0  0  0  0  0  0  0  0  0
   16.7168  -17.0921    5.0890 C   0  0  0  0  0  0  0  0  0  0  0  0
   15.5338  -16.7142    4.9068 O   0  0  0  0  0  0  0  0  0  0  0  0
   17.1513  -17.2001    6.4342 N   0  0  0  0  0  0  0  0  0  0  0  0
   16.3032  -16.8921    7.5803 C   0  0  1  0  0  0  0  0  0  0  0  0
   16.1001  -18.0415    8.4933 C   0  0  0  0  0  0  0  0  0  0  0  0
   15.5465  -19.2906    7.9290 C   0  0  0  0  0  0  0  0  0  0  0  0
   15.4000  -20.4503    8.8550 C   0  0  0  0  0  0  0  0  0  0  0  0
   14.8116  -21.6270    8.0501 C   0  0  0  0  0  0  0  0  0  0  0  0
   14.8043  -22.8200    8.8764 N   0  0  0  0  0  0  0  0  0  0  0  0
   16.8451  -15.6754    8.2206 C   0  0  0  0  0  0  0  0  0  0  0  0
   18.0837  -15.5100    8.3335 O   0  0  0  0  0  0  0  0  0  0  0  0
   16.0085  -14.6871    8.7144 O   0  0  0  0  0  0  0  0  0  0  0  0
  2  1  1  6
  2  5  1  0
  3  2  1  0
  4  3  1  0
  5  6  2  0
  7  5  1  0
  7  8  1  0
  8 11  1  0
  8  9  1  6
 10  9  1  0
 11 13  1  0
 12 11  2  0
 13 14  1  0
 14 15  1  1
 15 16  1  0
 16 17  1  0
 17 18  1  0
 19 18  1  0
 20 22  1  0
 20 14  1  0
 21 20  2  0
M  END
$$$$
