CCK.pdb
     RDKit          3D

 22 21  0  0  1  0  0  0  0  0999 V2000
   20.7675  -11.5753  -18.9185 N   0  0  0  0  0  0  0  0  0  0  0  0
   19.7013  -11.1606  -18.0232 C   0  0  1  0  0  0  0  0  0  0  0  0
   18.9542  -12.4018  -17.6140 C   0  0  0  0  0  0  0  0  0  0  0  0
   18.9910  -13.6917  -18.8729 S   0  0  0  0  0  0  0  0  0  0  0  0
   20.2597  -10.4147  -16.8799 C   0  0  0  0  0  0  0  0  0  0  0  0
   19.4789   -9.9942  -15.9822 O   0  0  0  0  0  0  0  0  0  0  0  0
   21.6331  -10.1315  -16.7138 N   0  0  0  0  0  0  0  0  0  0  0  0
   22.2242   -9.4779  -15.5938 C   0  0  1  0  0  0  0  0  0  0  0  0
   23.6858   -9.9339  -15.4949 C   0  0  0  0  0  0  0  0  0  0  0  0
   23.8283  -11.6092  -14.8735 S   0  0  0  0  0  0  0  0  0  0  0  0
   22.1279   -8.0199  -15.6173 C   0  0  0  0  0  0  0  0  0  0  0  0
   22.4158   -7.4069  -16.6741 O   0  0  0  0  0  0  0  0  0  0  0  0
   21.7248   -7.2294  -14.5115 N   0  0  0  0  0  0  0  0  0  0  0  0
   21.5806   -5.7790  -14.5702 C   0  0  1  0  0  0  0  0  0  0  0  0
   20.2290   -5.3339  -14.9837 C   0  0  0  0  0  0  0  0  0  0  0  0
   19.9459   -3.8830  -14.9944 C   0  0  0  0  0  0  0  0  0  0  0  0
   18.6052   -3.4542  -15.4868 C   0  0  0  0  0  0  0  0  0  0  0  0
   18.5764   -1.9121  -15.4979 C   0  0  0  0  0  0  0  0  0  0  0  0
   17.3161   -1.4579  -16.0558 N   0  0  0  0  0  0  0  0  0  0  0  0
   22.0490   -5.2328  -13.2793 C   0  0  0  0  0  0  0  0  0  0  0  0
   22.0095   -5.9311  -12.2376 O   0  0  0  0  0  0  0  0  0  0  0  0
   22.5412   -3.9412  -13.1791 O   0  0  0  0  0  0  0  0  0  0  0  0
  2  1  1  6
  2  5  1  0
  3  2  1  0
  4  3  1  0
  5  6  2  0
  7  5  1  0
  7  8  1  0
  8 11  1  0
  8  9  1  6
 10  9  1  0
 11 13  1  0
 12 11  2  0
 13 14  1  0
 14 15  1  1
 15 16  1  0
 16 17  1  0
 17 18  1  0
 19 18  1  0
 20 22  1  0
 20 14  1  0
 21 20  2  0
M  END
$$$$
