CCK.pdb
     RDKit          3D

 22 21  0  0  1  0  0  0  0  0999 V2000
   25.7272  -13.9356  -19.2875 N   0  0  0  0  0  0  0  0  0  0  0  0
   24.9430  -14.3337  -18.1314 C   0  0  1  0  0  0  0  0  0  0  0  0
   25.5753  -15.5797  -17.5711 C   0  0  0  0  0  0  0  0  0  0  0  0
   26.0598  -16.7573  -18.8472 S   0  0  0  0  0  0  0  0  0  0  0  0
   24.8759  -13.2277  -17.1580 C   0  0  0  0  0  0  0  0  0  0  0  0
   24.2090  -13.3836  -16.0981 O   0  0  0  0  0  0  0  0  0  0  0  0
   25.5172  -11.9814  -17.3299 N   0  0  0  0  0  0  0  0  0  0  0  0
   25.3677  -10.8395  -16.4905 C   0  0  1  0  0  0  0  0  0  0  0  0
   26.7384  -10.1623  -16.3616 C   0  0  0  0  0  0  0  0  0  0  0  0
   26.6410   -8.6075  -15.4749 S   0  0  0  0  0  0  0  0  0  0  0  0
   24.3495   -9.8880  -16.9301 C   0  0  0  0  0  0  0  0  0  0  0  0
   24.3216   -9.5384  -18.1353 O   0  0  0  0  0  0  0  0  0  0  0  0
   23.3698   -9.3181  -16.0783 N   0  0  0  0  0  0  0  0  0  0  0  0
   22.3570   -8.3738  -16.5368 C   0  0  1  0  0  0  0  0  0  0  0  0
   21.0818   -9.0173  -16.9314 C   0  0  0  0  0  0  0  0  0  0  0  0
   20.4936   -8.6554  -18.2385 C   0  0  0  0  0  0  0  0  0  0  0  0
   19.1935   -9.2903  -18.5998 C   0  0  0  0  0  0  0  0  0  0  0  0
   18.8010   -8.7967  -20.0073 C   0  0  0  0  0  0  0  0  0  0  0  0
   17.5070   -9.3464  -20.3670 N   0  0  0  0  0  0  0  0  0  0  0  0
   22.2316   -7.3211  -15.5071 C   0  0  0  0  0  0  0  0  0  0  0  0
   21.7337   -7.5804  -14.3851 O   0  0  0  0  0  0  0  0  0  0  0  0
   22.6551   -6.0236  -15.7474 O   0  0  0  0  0  0  0  0  0  0  0  0
  2  1  1  6
  2  5  1  0
  3  2  1  0
  4  3  1  0
  5  6  2  0
  7  5  1  0
  7  8  1  0
  8 11  1  0
  8  9  1  6
 10  9  1  0
 11 13  1  0
 12 11  2  0
 13 14  1  0
 14 15  1  1
 15 16  1  0
 16 17  1  0
 17 18  1  0
 19 18  1  0
 20 22  1  0
 20 14  1  0
 21 20  2  0
M  END
$$$$
