CCK.pdb
     RDKit          3D

 22 21  0  0  1  0  0  0  0  0999 V2000
   25.5532  -21.9714  -16.4979 N   0  0  0  0  0  0  0  0  0  0  0  0
   24.8378  -22.7425  -15.4960 C   0  0  1  0  0  0  0  0  0  0  0  0
   25.8649  -23.5068  -14.7040 C   0  0  0  0  0  0  0  0  0  0  0  0
   26.1408  -25.1734  -15.3337 S   0  0  0  0  0  0  0  0  0  0  0  0
   24.0090  -21.8498  -14.6645 C   0  0  0  0  0  0  0  0  0  0  0  0
   24.4598  -20.7150  -14.3463 O   0  0  0  0  0  0  0  0  0  0  0  0
   22.7210  -22.1800  -14.1891 N   0  0  0  0  0  0  0  0  0  0  0  0
   21.8219  -21.2971  -13.5234 C   0  0  1  0  0  0  0  0  0  0  0  0
   21.6679  -20.0375  -14.3857 C   0  0  0  0  0  0  0  0  0  0  0  0
   20.5416  -18.8519  -13.6515 S   0  0  0  0  0  0  0  0  0  0  0  0
   20.5200  -21.8788  -13.2036 C   0  0  0  0  0  0  0  0  0  0  0  0
   19.8536  -22.4215  -14.1184 O   0  0  0  0  0  0  0  0  0  0  0  0
   19.9414  -21.8758  -11.9093 N   0  0  0  0  0  0  0  0  0  0  0  0
   18.7975  -22.7013  -11.5381 C   0  0  1  0  0  0  0  0  0  0  0  0
   18.7654  -23.0576  -10.1001 C   0  0  0  0  0  0  0  0  0  0  0  0
   17.6769  -23.9373   -9.6241 C   0  0  0  0  0  0  0  0  0  0  0  0
   17.6535  -24.2665   -8.1698 C   0  0  0  0  0  0  0  0  0  0  0  0
   18.4831  -25.5500   -7.9619 C   0  0  0  0  0  0  0  0  0  0  0  0
   18.5096  -25.8829   -6.5497 N   0  0  0  0  0  0  0  0  0  0  0  0
   17.5815  -22.0285  -12.0409 C   0  0  0  0  0  0  0  0  0  0  0  0
   17.5810  -20.7945  -12.2678 O   0  0  0  0  0  0  0  0  0  0  0  0
   16.4117  -22.7339  -12.2743 O   0  0  0  0  0  0  0  0  0  0  0  0
  2  1  1  6
  2  5  1  0
  3  2  1  0
  4  3  1  0
  5  6  2  0
  7  5  1  0
  7  8  1  0
  8 11  1  0
  8  9  1  6
 10  9  1  0
 11 13  1  0
 12 11  2  0
 13 14  1  0
 14 15  1  1
 15 16  1  0
 16 17  1  0
 17 18  1  0
 19 18  1  0
 20 22  1  0
 20 14  1  0
 21 20  2  0
M  END
$$$$
