CCK.pdb
     RDKit          3D

 22 21  0  0  1  0  0  0  0  0999 V2000
   27.0232  -18.8659  -16.4414 N   0  0  0  0  0  0  0  0  0  0  0  0
   26.4781  -18.4921  -15.1478 C   0  0  1  0  0  0  0  0  0  0  0  0
   25.5869  -17.2988  -15.3672 C   0  0  0  0  0  0  0  0  0  0  0  0
   26.4410  -15.7296  -15.1264 S   0  0  0  0  0  0  0  0  0  0  0  0
   25.7757  -19.6388  -14.5422 C   0  0  0  0  0  0  0  0  0  0  0  0
   25.2751  -20.5185  -15.2959 O   0  0  0  0  0  0  0  0  0  0  0  0
   25.6196  -19.8274  -13.1515 N   0  0  0  0  0  0  0  0  0  0  0  0
   25.0874  -20.9876  -12.5179 C   0  0  1  0  0  0  0  0  0  0  0  0
   25.9756  -21.3195  -11.3116 C   0  0  0  0  0  0  0  0  0  0  0  0
   27.7167  -21.3240  -11.7378 S   0  0  0  0  0  0  0  0  0  0  0  0
   23.6842  -20.8788  -12.1246 C   0  0  0  0  0  0  0  0  0  0  0  0
   23.1446  -21.8371  -11.5197 O   0  0  0  0  0  0  0  0  0  0  0  0
   22.8696  -19.7470  -12.3809 N   0  0  0  0  0  0  0  0  0  0  0  0
   21.5331  -19.8328  -12.9589 C   0  0  1  0  0  0  0  0  0  0  0  0
   21.4801  -19.4500  -14.3895 C   0  0  0  0  0  0  0  0  0  0  0  0
   20.1641  -19.4507  -15.0629 C   0  0  0  0  0  0  0  0  0  0  0  0
   20.1385  -19.0868  -16.5088 C   0  0  0  0  0  0  0  0  0  0  0  0
   18.6805  -19.1990  -16.9991 C   0  0  0  0  0  0  0  0  0  0  0  0
   18.6103  -18.8077  -18.3948 N   0  0  0  0  0  0  0  0  0  0  0  0
   21.0018  -21.1776  -12.6533 C   0  0  0  0  0  0  0  0  0  0  0  0
   21.5310  -22.2018  -13.1485 O   0  0  0  0  0  0  0  0  0  0  0  0
   19.9092  -21.3484  -11.8179 O   0  0  0  0  0  0  0  0  0  0  0  0
  2  1  1  6
  2  5  1  0
  3  2  1  0
  4  3  1  0
  5  6  2  0
  7  5  1  0
  7  8  1  0
  8 11  1  0
  8  9  1  1
 10  9  1  0
 11 13  1  0
 12 11  2  0
 13 14  1  0
 14 15  1  6
 15 16  1  0
 16 17  1  0
 17 18  1  0
 19 18  1  0
 20 22  1  0
 20 14  1  0
 21 20  2  0
M  END
$$$$
