MCV.pdb
     RDKit          3D

 22 21  0  0  1  0  0  0  0  0999 V2000
    8.5340  -11.8017   19.6110 C   0  0  0  0  0  0  0  0  0  0  0  0
    8.2428  -12.9177   18.2150 S   0  0  0  0  0  0  0  0  0  0  0  0
    8.3094  -14.6370   18.7394 C   0  0  0  0  0  0  0  0  0  0  0  0
    7.4320  -14.9260   19.9298 C   0  0  0  0  0  0  0  0  0  0  0  0
    7.5146  -16.3572   20.3828 C   0  0  2  0  0  0  0  0  0  0  0  0
    6.8139  -17.2500   19.4530 N   0  0  0  0  0  0  0  0  0  0  0  0
    6.9833  -16.4865   21.7482 C   0  0  0  0  0  0  0  0  0  0  0  0
    5.7233  -16.3553   21.8737 O   0  0  0  0  0  0  0  0  0  0  0  0
    7.7745  -16.7421   22.9025 N   0  0  0  0  0  0  0  0  0  0  0  0
    7.2723  -16.3781   24.1870 C   0  0  1  0  0  0  0  0  0  0  0  0
    7.0711  -17.6542   24.9996 C   0  0  0  0  0  0  0  0  0  0  0  0
    8.6596  -18.4001   25.4421 S   0  0  0  0  0  0  0  0  0  0  0  0
    8.1432  -15.4078   24.9007 C   0  0  0  0  0  0  0  0  0  0  0  0
    9.3655  -15.2927   24.6839 O   0  0  0  0  0  0  0  0  0  0  0  0
    6.0866  -12.9121   27.5164 C   0  0  0  0  0  0  0  0  0  0  0  0
    7.3941  -12.4329   26.9197 C   0  0  2  0  0  0  0  0  0  0  0  0
    7.0768  -11.8288   25.5639 C   0  0  0  0  0  0  0  0  0  0  0  0
    8.2801  -13.6289   26.6931 C   0  0  2  0  0  0  0  0  0  0  0  0
    7.5516  -14.5766   25.8726 N   0  0  0  0  0  0  0  0  0  0  0  0
    8.8016  -14.2219   27.9235 C   0  0  0  0  0  0  0  0  0  0  0  0
    8.3804  -15.3421   28.3027 O   0  0  0  0  0  0  0  0  0  0  0  0
    9.7562  -13.6040   28.7129 O   0  0  0  0  0  0  0  0  0  0  0  0
  2  1  1  0
  3  2  1  0
  3  4  1  0
  4  5  1  0
  5  7  1  0
  5  6  1  6
  7  8  2  0
  7  9  1  0
  9 10  1  0
 10 13  1  0
 10 11  1  1
 11 12  1  0
 13 14  2  0
 16 15  1  6
 16 18  1  0
 17 16  1  0
 18 20  1  0
 19 13  1  0
 18 19  1  1
 20 22  1  0
 21 20  2  0
M  END
$$$$
