MCV.pdb
     RDKit          3D

 22 21  0  0  1  0  0  0  0  0999 V2000
    6.6153  -10.4844   25.7393 C   0  0  0  0  0  0  0  0  0  0  0  0
    7.2443  -12.1673   25.5124 S   0  0  0  0  0  0  0  0  0  0  0  0
    6.0425  -13.1945   24.6546 C   0  0  0  0  0  0  0  0  0  0  0  0
    6.4784  -14.6311   24.5254 C   0  0  0  0  0  0  0  0  0  0  0  0
    7.3428  -14.8732   23.3193 C   0  0  2  0  0  0  0  0  0  0  0  0
    6.5296  -15.1459   22.1290 N   0  0  0  0  0  0  0  0  0  0  0  0
    8.2843  -15.9715   23.5847 C   0  0  0  0  0  0  0  0  0  0  0  0
    7.7663  -17.1166   23.7874 O   0  0  0  0  0  0  0  0  0  0  0  0
    9.6993  -15.8308   23.6267 N   0  0  0  0  0  0  0  0  0  0  0  0
   10.4808  -16.8317   24.2765 C   0  0  1  0  0  0  0  0  0  0  0  0
   11.4490  -17.4196   23.2536 C   0  0  0  0  0  0  0  0  0  0  0  0
   12.5424  -18.6407   24.0209 S   0  0  0  0  0  0  0  0  0  0  0  0
   11.1958  -16.3256   25.4773 C   0  0  0  0  0  0  0  0  0  0  0  0
   12.1349  -15.5074   25.4238 O   0  0  0  0  0  0  0  0  0  0  0  0
    9.3198  -15.8153   28.9323 C   0  0  0  0  0  0  0  0  0  0  0  0
   10.7435  -15.3744   28.6604 C   0  0  2  0  0  0  0  0  0  0  0  0
   10.6781  -14.2166   27.6812 C   0  0  0  0  0  0  0  0  0  0  0  0
   11.4710  -16.5063   27.9847 C   0  0  2  0  0  0  0  0  0  0  0  0
   10.7870  -16.7983   26.7402 N   0  0  0  0  0  0  0  0  0  0  0  0
   11.6469  -17.6863   28.8299 C   0  0  0  0  0  0  0  0  0  0  0  0
   10.9959  -18.7313   28.5845 O   0  0  0  0  0  0  0  0  0  0  0  0
   12.5110  -17.7177   29.9109 O   0  0  0  0  0  0  0  0  0  0  0  0
  2  1  1  0
  3  2  1  0
  3  4  1  0
  4  5  1  0
  5  7  1  0
  5  6  1  6
  7  8  2  0
  7  9  1  0
  9 10  1  0
 10 13  1  0
 10 11  1  6
 11 12  1  0
 13 14  2  0
 16 15  1  6
 16 18  1  0
 17 16  1  0
 18 20  1  0
 19 13  1  0
 18 19  1  6
 20 22  1  0
 21 20  2  0
M  END
$$$$
