MCV.pdb
     RDKit          3D

 22 21  0  0  1  0  0  0  0  0999 V2000
   13.6251  -18.4333   22.5144 C   0  0  0  0  0  0  0  0  0  0  0  0
   13.4002  -18.8584   20.7686 S   0  0  0  0  0  0  0  0  0  0  0  0
   11.6681  -18.7482   20.2962 C   0  0  0  0  0  0  0  0  0  0  0  0
   10.9950  -17.5002   20.8059 C   0  0  0  0  0  0  0  0  0  0  0  0
    9.5432  -17.4215   20.4232 C   0  0  2  0  0  0  0  0  0  0  0  0
    9.3642  -16.6845   19.1673 N   0  0  0  0  0  0  0  0  0  0  0  0
    8.7655  -16.8134   21.5135 C   0  0  0  0  0  0  0  0  0  0  0  0
    8.4569  -15.5873   21.3652 O   0  0  0  0  0  0  0  0  0  0  0  0
    8.3509  -17.4977   22.6897 N   0  0  0  0  0  0  0  0  0  0  0  0
    7.5360  -16.8170   23.6421 C   0  0  1  0  0  0  0  0  0  0  0  0
    6.6445  -17.8471   24.3301 C   0  0  0  0  0  0  0  0  0  0  0  0
    5.7202  -17.0989   25.6944 S   0  0  0  0  0  0  0  0  0  0  0  0
    8.3232  -16.0309   24.6279 C   0  0  0  0  0  0  0  0  0  0  0  0
    9.4269  -16.3986   25.0759 O   0  0  0  0  0  0  0  0  0  0  0  0
    6.2638  -12.9650   26.7166 C   0  0  0  0  0  0  0  0  0  0  0  0
    7.6344  -12.6713   26.1417 C   0  0  2  0  0  0  0  0  0  0  0  0
    7.4318  -12.1825   24.7192 C   0  0  0  0  0  0  0  0  0  0  0  0
    8.4095  -13.9606   26.0778 C   0  0  2  0  0  0  0  0  0  0  0  0
    7.7896  -14.8063   25.0766 N   0  0  0  0  0  0  0  0  0  0  0  0
    8.5623  -14.6251   27.3711 C   0  0  0  0  0  0  0  0  0  0  0  0
    7.9066  -15.6668   27.6178 O   0  0  0  0  0  0  0  0  0  0  0  0
    9.4091  -14.1601   28.3625 O   0  0  0  0  0  0  0  0  0  0  0  0
  2  1  1  0
  3  2  1  0
  3  4  1  0
  4  5  1  0
  5  7  1  0
  5  6  1  6
  7  8  2  0
  7  9  1  0
  9 10  1  0
 10 13  1  0
 10 11  1  1
 11 12  1  0
 13 14  2  0
 16 15  1  6
 16 18  1  0
 17 16  1  0
 18 20  1  0
 19 13  1  0
 18 19  1  6
 20 22  1  0
 21 20  2  0
M  END
$$$$
