MCV.pdb
     RDKit          3D

 22 21  0  0  1  0  0  0  0  0999 V2000
   14.6288  -18.6553   21.5168 C   0  0  0  0  0  0  0  0  0  0  0  0
   13.7433  -18.5213   19.9430 S   0  0  0  0  0  0  0  0  0  0  0  0
   12.0207  -19.0046   20.1293 C   0  0  0  0  0  0  0  0  0  0  0  0
   11.2085  -18.0065   20.9131 C   0  0  0  0  0  0  0  0  0  0  0  0
    9.7737  -18.4232   21.0803 C   0  0  2  0  0  0  0  0  0  0  0  0
    8.9964  -18.1504   19.8663 N   0  0  0  0  0  0  0  0  0  0  0  0
    9.1863  -17.7540   22.2509 C   0  0  0  0  0  0  0  0  0  0  0  0
    8.7023  -16.5940   22.0487 O   0  0  0  0  0  0  0  0  0  0  0  0
    9.1300  -18.3130   23.5578 N   0  0  0  0  0  0  0  0  0  0  0  0
    8.5835  -17.5395   24.6245 C   0  0  1  0  0  0  0  0  0  0  0  0
    7.3913  -18.2978   25.2015 C   0  0  0  0  0  0  0  0  0  0  0  0
    7.8728  -19.9603   25.7304 S   0  0  0  0  0  0  0  0  0  0  0  0
    9.5807  -17.2082   25.6757 C   0  0  0  0  0  0  0  0  0  0  0  0
   10.6159  -17.8737   25.8751 O   0  0  0  0  0  0  0  0  0  0  0  0
   10.0423  -13.4244   26.7895 C   0  0  0  0  0  0  0  0  0  0  0  0
    9.8056  -14.2954   28.0062 C   0  0  2  0  0  0  0  0  0  0  0  0
   10.7865  -13.8521   29.0762 C   0  0  0  0  0  0  0  0  0  0  0  0
   10.1350  -15.7191   27.6432 C   0  0  2  0  0  0  0  0  0  0  0  0
    9.3389  -16.0819   26.4871 N   0  0  0  0  0  0  0  0  0  0  0  0
    9.9937  -16.6614   28.7521 C   0  0  0  0  0  0  0  0  0  0  0  0
    8.8825  -17.2025   28.9724 O   0  0  0  0  0  0  0  0  0  0  0  0
   11.0403  -16.9992   29.5928 O   0  0  0  0  0  0  0  0  0  0  0  0
  2  1  1  0
  3  2  1  0
  3  4  1  0
  4  5  1  0
  5  7  1  0
  5  6  1  6
  7  8  2  0
  7  9  1  0
  9 10  1  0
 10 13  1  0
 10 11  1  1
 11 12  1  0
 13 14  2  0
 16 15  1  6
 16 18  1  0
 17 16  1  0
 18 20  1  0
 19 13  1  0
 18 19  1  6
 20 22  1  0
 21 20  2  0
M  END
$$$$
