MCV.pdb
     RDKit          3D

 22 21  0  0  1  0  0  0  0  0999 V2000
    8.3652  -11.6047   19.5571 C   0  0  0  0  0  0  0  0  0  0  0  0
    8.0892  -12.7600   18.1902 S   0  0  0  0  0  0  0  0  0  0  0  0
    8.3683  -14.4578   18.7148 C   0  0  0  0  0  0  0  0  0  0  0  0
    7.4930  -14.8707   19.8697 C   0  0  0  0  0  0  0  0  0  0  0  0
    7.7444  -16.2838   20.3173 C   0  0  2  0  0  0  0  0  0  0  0  0
    7.0944  -17.2479   19.4226 N   0  0  0  0  0  0  0  0  0  0  0  0
    7.2969  -16.4608   21.7071 C   0  0  0  0  0  0  0  0  0  0  0  0
    6.0446  -16.6135   21.8772 O   0  0  0  0  0  0  0  0  0  0  0  0
    8.1589  -16.4705   22.8388 N   0  0  0  0  0  0  0  0  0  0  0  0
    7.6046  -16.2814   24.1394 C   0  0  1  0  0  0  0  0  0  0  0  0
    7.5020  -17.6450   24.8171 C   0  0  0  0  0  0  0  0  0  0  0  0
    9.1377  -18.3899   25.0295 S   0  0  0  0  0  0  0  0  0  0  0  0
    8.3747  -15.3167   24.9674 C   0  0  0  0  0  0  0  0  0  0  0  0
    9.6121  -15.1830   24.8944 O   0  0  0  0  0  0  0  0  0  0  0  0
    6.0476  -12.7058   27.2472 C   0  0  0  0  0  0  0  0  0  0  0  0
    7.4748  -12.3507   26.8836 C   0  0  2  0  0  0  0  0  0  0  0  0
    7.4518  -11.7684   25.4822 C   0  0  0  0  0  0  0  0  0  0  0  0
    8.2842  -13.6195   26.8402 C   0  0  2  0  0  0  0  0  0  0  0  0
    7.6644  -14.5132   25.8814 N   0  0  0  0  0  0  0  0  0  0  0  0
    8.4870  -14.2384   28.1491 C   0  0  0  0  0  0  0  0  0  0  0  0
    7.9091  -15.3184   28.4241 O   0  0  0  0  0  0  0  0  0  0  0  0
    9.2995  -13.6883   29.1257 O   0  0  0  0  0  0  0  0  0  0  0  0
  2  1  1  0
  3  2  1  0
  3  4  1  0
  4  5  1  0
  5  7  1  0
  5  6  1  6
  7  8  2  0
  7  9  1  0
  9 10  1  0
 10 13  1  0
 10 11  1  1
 11 12  1  0
 13 14  2  0
 16 15  1  6
 16 18  1  0
 17 16  1  0
 18 20  1  0
 19 13  1  0
 18 19  1  6
 20 22  1  0
 21 20  2  0
M  END
$$$$
