MCV.pdb
     RDKit          3D

 22 21  0  0  1  0  0  0  0  0999 V2000
    8.7728  -13.3517   19.2160 C   0  0  0  0  0  0  0  0  0  0  0  0
    7.2969  -13.3660   20.2651 S   0  0  0  0  0  0  0  0  0  0  0  0
    7.4623  -14.5668   21.5941 C   0  0  0  0  0  0  0  0  0  0  0  0
    7.2921  -15.9899   21.1290 C   0  0  0  0  0  0  0  0  0  0  0  0
    7.4416  -16.9901   22.2415 C   0  0  2  0  0  0  0  0  0  0  0  0
    6.6565  -16.5982   23.4173 N   0  0  0  0  0  0  0  0  0  0  0  0
    8.8626  -17.1588   22.5816 C   0  0  0  0  0  0  0  0  0  0  0  0
    9.5705  -17.7906   21.7329 O   0  0  0  0  0  0  0  0  0  0  0  0
    9.4727  -16.6704   23.7703 N   0  0  0  0  0  0  0  0  0  0  0  0
   10.8741  -16.8548   23.9616 C   0  0  1  0  0  0  0  0  0  0  0  0
   11.6113  -16.0443   22.8990 C   0  0  0  0  0  0  0  0  0  0  0  0
   11.3369  -14.2702   23.1285 S   0  0  0  0  0  0  0  0  0  0  0  0
   11.3280  -16.4996   25.3317 C   0  0  0  0  0  0  0  0  0  0  0  0
   12.5282  -16.4011   25.6541 O   0  0  0  0  0  0  0  0  0  0  0  0
    8.3584  -15.1548   27.9112 C   0  0  0  0  0  0  0  0  0  0  0  0
    9.8211  -14.8749   28.1892 C   0  0  2  0  0  0  0  0  0  0  0  0
   10.2200  -13.6785   27.3448 C   0  0  0  0  0  0  0  0  0  0  0  0
   10.6286  -16.0564   27.7213 C   0  0  2  0  0  0  0  0  0  0  0  0
   10.3462  -16.2626   26.3143 N   0  0  0  0  0  0  0  0  0  0  0  0
   10.4352  -17.2623   28.5250 C   0  0  0  0  0  0  0  0  0  0  0  0
    9.7463  -18.2091   28.0724 O   0  0  0  0  0  0  0  0  0  0  0  0
   10.9816  -17.4235   29.7867 O   0  0  0  0  0  0  0  0  0  0  0  0
  2  1  1  0
  3  2  1  0
  3  4  1  0
  4  5  1  0
  5  7  1  0
  5  6  1  1
  7  8  2  0
  7  9  1  0
  9 10  1  0
 10 13  1  0
 10 11  1  6
 11 12  1  0
 13 14  2  0
 16 15  1  6
 16 18  1  0
 17 16  1  0
 18 20  1  0
 19 13  1  0
 18 19  1  6
 20 22  1  0
 21 20  2  0
M  END
$$$$
