MCV.pdb
     RDKit          3D

 22 21  0  0  1  0  0  0  0  0999 V2000
    7.3968  -11.5038   26.7213 C   0  0  0  0  0  0  0  0  0  0  0  0
    5.6838  -11.6373   26.1495 S   0  0  0  0  0  0  0  0  0  0  0  0
    5.4000  -13.2107   25.3253 C   0  0  0  0  0  0  0  0  0  0  0  0
    6.6132  -14.1044   25.3244 C   0  0  0  0  0  0  0  0  0  0  0  0
    6.4075  -15.3679   24.5359 C   0  0  2  0  0  0  0  0  0  0  0  0
    5.2919  -16.1542   25.0740 N   0  0  0  0  0  0  0  0  0  0  0  0
    7.6499  -16.1546   24.5091 C   0  0  0  0  0  0  0  0  0  0  0  0
    7.7563  -17.0639   25.3937 O   0  0  0  0  0  0  0  0  0  0  0  0
    8.7083  -15.9626   23.5782 N   0  0  0  0  0  0  0  0  0  0  0  0
    9.9108  -16.7157   23.7240 C   0  0  1  0  0  0  0  0  0  0  0  0
   10.6712  -16.6611   22.4019 C   0  0  0  0  0  0  0  0  0  0  0  0
   10.4012  -15.0810   21.5617 S   0  0  0  0  0  0  0  0  0  0  0  0
   10.7539  -16.2554   24.8583 C   0  0  0  0  0  0  0  0  0  0  0  0
   11.7126  -15.4692   24.7271 O   0  0  0  0  0  0  0  0  0  0  0  0
   10.6683  -13.9226   26.9311 C   0  0  0  0  0  0  0  0  0  0  0  0
   10.3795  -15.0771   27.8686 C   0  0  2  0  0  0  0  0  0  0  0  0
   10.9658  -14.7173   29.2215 C   0  0  0  0  0  0  0  0  0  0  0  0
   11.1070  -16.2942   27.3622 C   0  0  2  0  0  0  0  0  0  0  0  0
   10.4497  -16.7355   26.1477 N   0  0  0  0  0  0  0  0  0  0  0  0
   11.2451  -17.3582   28.3554 C   0  0  0  0  0  0  0  0  0  0  0  0
   12.2497  -17.3817   29.1079 O   0  0  0  0  0  0  0  0  0  0  0  0
   10.3089  -18.3650   28.5173 O   0  0  0  0  0  0  0  0  0  0  0  0
  2  1  1  0
  3  2  1  0
  3  4  1  0
  4  5  1  0
  5  7  1  0
  5  6  1  1
  7  8  2  0
  7  9  1  0
  9 10  1  0
 10 13  1  0
 10 11  1  6
 11 12  1  0
 13 14  2  0
 16 15  1  6
 16 18  1  0
 17 16  1  0
 18 20  1  0
 19 13  1  0
 18 19  1  6
 20 22  1  0
 21 20  2  0
M  END
$$$$
