MCV.pdb
     RDKit          3D

 22 21  0  0  1  0  0  0  0  0999 V2000
    8.0532  -11.5843   19.7415 C   0  0  0  0  0  0  0  0  0  0  0  0
    8.1944  -12.7434   18.3575 S   0  0  0  0  0  0  0  0  0  0  0  0
    8.9091  -14.3044   18.8943 C   0  0  0  0  0  0  0  0  0  0  0  0
    7.8998  -15.2324   19.5190 C   0  0  0  0  0  0  0  0  0  0  0  0
    8.5191  -16.4920   20.0577 C   0  0  2  0  0  0  0  0  0  0  0  0
    8.0998  -17.6643   19.2816 N   0  0  0  0  0  0  0  0  0  0  0  0
    8.1871  -16.6492   21.4819 C   0  0  0  0  0  0  0  0  0  0  0  0
    7.2285  -17.4430   21.7493 O   0  0  0  0  0  0  0  0  0  0  0  0
    8.8569  -15.9840   22.5462 N   0  0  0  0  0  0  0  0  0  0  0  0
    8.4540  -16.2378   23.8908 C   0  0  1  0  0  0  0  0  0  0  0  0
    8.7689  -17.6953   24.2161 C   0  0  0  0  0  0  0  0  0  0  0  0
   10.5414  -18.0271   24.0620 S   0  0  0  0  0  0  0  0  0  0  0  0
    9.0784  -15.3120   24.8718 C   0  0  0  0  0  0  0  0  0  0  0  0
   10.2842  -14.9963   24.8475 O   0  0  0  0  0  0  0  0  0  0  0  0
    6.3547  -13.5506   27.4962 C   0  0  0  0  0  0  0  0  0  0  0  0
    7.6027  -12.8016   27.0757 C   0  0  2  0  0  0  0  0  0  0  0  0
    7.3081  -12.1498   25.7370 C   0  0  0  0  0  0  0  0  0  0  0  0
    8.7091  -13.8010   26.8658 C   0  0  2  0  0  0  0  0  0  0  0  0
    8.2604  -14.7652   25.8804 N   0  0  0  0  0  0  0  0  0  0  0  0
    9.1860  -14.4250   28.0990 C   0  0  0  0  0  0  0  0  0  0  0  0
    8.9031  -15.6240   28.3406 O   0  0  0  0  0  0  0  0  0  0  0  0
    9.9499  -13.7531   29.0377 O   0  0  0  0  0  0  0  0  0  0  0  0
  2  1  1  0
  3  2  1  0
  3  4  1  0
  4  5  1  0
  5  7  1  0
  5  6  1  6
  7  8  2  0
  7  9  1  0
  9 10  1  0
 10 13  1  0
 10 11  1  1
 11 12  1  0
 13 14  2  0
 16 15  1  6
 16 18  1  0
 17 16  1  0
 18 20  1  0
 19 13  1  0
 18 19  1  6
 20 22  1  0
 21 20  2  0
M  END
$$$$
