MCV.pdb
     RDKit          3D

 22 21  0  0  1  0  0  0  0  0999 V2000
    8.5763  -11.3055   19.9483 C   0  0  0  0  0  0  0  0  0  0  0  0
    7.7054  -12.5313   18.9393 S   0  0  0  0  0  0  0  0  0  0  0  0
    8.1865  -14.2028   19.3977 C   0  0  0  0  0  0  0  0  0  0  0  0
    7.0106  -15.0904   19.7134 C   0  0  0  0  0  0  0  0  0  0  0  0
    7.4205  -16.4406   20.2326 C   0  0  2  0  0  0  0  0  0  0  0  0
    6.7297  -17.5177   19.5149 N   0  0  0  0  0  0  0  0  0  0  0  0
    7.1742  -16.5213   21.6804 C   0  0  0  0  0  0  0  0  0  0  0  0
    5.9722  -16.7491   22.0322 O   0  0  0  0  0  0  0  0  0  0  0  0
    8.1737  -16.3637   22.6803 N   0  0  0  0  0  0  0  0  0  0  0  0
    7.7874  -16.3266   24.0529 C   0  0  1  0  0  0  0  0  0  0  0  0
    7.9509  -17.7289   24.6326 C   0  0  0  0  0  0  0  0  0  0  0  0
    9.6638  -18.2954   24.4899 S   0  0  0  0  0  0  0  0  0  0  0  0
    8.5396  -15.3176   24.8438 C   0  0  0  0  0  0  0  0  0  0  0  0
    9.7455  -15.0603   24.6601 O   0  0  0  0  0  0  0  0  0  0  0  0
    6.1709  -12.9164   27.2490 C   0  0  0  0  0  0  0  0  0  0  0  0
    7.5371  -12.4431   26.7967 C   0  0  2  0  0  0  0  0  0  0  0  0
    7.3825  -11.8986   25.3884 C   0  0  0  0  0  0  0  0  0  0  0  0
    8.4550  -13.6347   26.7297 C   0  0  2  0  0  0  0  0  0  0  0  0
    7.8490  -14.6178   25.8532 N   0  0  0  0  0  0  0  0  0  0  0  0
    8.8144  -14.1804   28.0375 C   0  0  0  0  0  0  0  0  0  0  0  0
    8.3559  -15.2927   28.3961 O   0  0  0  0  0  0  0  0  0  0  0  0
    9.6515  -13.5250   28.9241 O   0  0  0  0  0  0  0  0  0  0  0  0
  2  1  1  0
  3  2  1  0
  3  4  1  0
  4  5  1  0
  5  7  1  0
  5  6  1  6
  7  8  2  0
  7  9  1  0
  9 10  1  0
 10 13  1  0
 10 11  1  1
 11 12  1  0
 13 14  2  0
 16 15  1  6
 16 18  1  0
 17 16  1  0
 18 20  1  0
 19 13  1  0
 18 19  1  6
 20 22  1  0
 21 20  2  0
M  END
$$$$
