MCV.pdb
     RDKit          3D

 22 21  0  0  1  0  0  0  0  0999 V2000
    8.1582  -11.6091   20.7876 C   0  0  0  0  0  0  0  0  0  0  0  0
    8.0885  -12.4408   19.1806 S   0  0  0  0  0  0  0  0  0  0  0  0
    8.6129  -14.1558   19.3190 C   0  0  0  0  0  0  0  0  0  0  0  0
    8.0194  -14.8607   20.5112 C   0  0  0  0  0  0  0  0  0  0  0  0
    8.4054  -16.3120   20.5838 C   0  0  2  0  0  0  0  0  0  0  0  0
    7.5134  -17.1405   19.7651 N   0  0  0  0  0  0  0  0  0  0  0  0
    8.4156  -16.7627   21.9838 C   0  0  0  0  0  0  0  0  0  0  0  0
    7.5101  -17.5956   22.3107 O   0  0  0  0  0  0  0  0  0  0  0  0
    9.3523  -16.3331   22.9645 N   0  0  0  0  0  0  0  0  0  0  0  0
    9.2994  -16.8965   24.2738 C   0  0  1  0  0  0  0  0  0  0  0  0
    9.5802  -18.3924   24.1611 C   0  0  0  0  0  0  0  0  0  0  0  0
   11.1659  -18.6962   23.3434 S   0  0  0  0  0  0  0  0  0  0  0  0
   10.2263  -16.2375   25.2307 C   0  0  0  0  0  0  0  0  0  0  0  0
   11.3916  -15.9036   24.9394 O   0  0  0  0  0  0  0  0  0  0  0  0
    8.3744  -14.6068   28.5472 C   0  0  0  0  0  0  0  0  0  0  0  0
    9.6886  -14.0898   27.9988 C   0  0  2  0  0  0  0  0  0  0  0  0
    9.3683  -13.2536   26.7732 C   0  0  0  0  0  0  0  0  0  0  0  0
   10.5121  -15.2671   27.5486 C   0  0  2  0  0  0  0  0  0  0  0  0
    9.7588  -15.9786   26.5346 N   0  0  0  0  0  0  0  0  0  0  0  0
   10.9571  -16.1314   28.6406 C   0  0  0  0  0  0  0  0  0  0  0  0
   10.4632  -17.2785   28.7684 O   0  0  0  0  0  0  0  0  0  0  0  0
   11.9150  -15.7479   29.5635 O   0  0  0  0  0  0  0  0  0  0  0  0
  2  1  1  0
  3  2  1  0
  3  4  1  0
  4  5  1  0
  5  7  1  0
  5  6  1  6
  7  8  2  0
  7  9  1  0
  9 10  1  0
 10 13  1  0
 10 11  1  6
 11 12  1  0
 13 14  2  0
 16 15  1  6
 16 18  1  0
 17 16  1  0
 18 20  1  0
 19 13  1  0
 18 19  1  6
 20 22  1  0
 21 20  2  0
M  END
$$$$
