MCV.pdb
     RDKit          3D

 22 21  0  0  1  0  0  0  0  0999 V2000
   10.2618  -19.8243   21.9672 C   0  0  0  0  0  0  0  0  0  0  0  0
    8.8685  -19.8340   20.8106 S   0  0  0  0  0  0  0  0  0  0  0  0
    8.2964  -18.1618   20.4763 C   0  0  0  0  0  0  0  0  0  0  0  0
    8.9626  -17.1251   21.3434 C   0  0  0  0  0  0  0  0  0  0  0  0
    8.3789  -15.7511   21.1644 C   0  0  2  0  0  0  0  0  0  0  0  0
    9.0167  -15.0444   20.0481 N   0  0  0  0  0  0  0  0  0  0  0  0
    8.4947  -14.9861   22.4153 C   0  0  0  0  0  0  0  0  0  0  0  0
    9.6507  -14.5270   22.6861 O   0  0  0  0  0  0  0  0  0  0  0  0
    7.4196  -14.7377   23.3132 N   0  0  0  0  0  0  0  0  0  0  0  0
    7.6906  -14.1287   24.5743 C   0  0  1  0  0  0  0  0  0  0  0  0
    6.3598  -13.7380   25.2111 C   0  0  0  0  0  0  0  0  0  0  0  0
    6.6190  -12.8741   26.7802 S   0  0  0  0  0  0  0  0  0  0  0  0
    8.4960  -14.9913   25.4779 C   0  0  0  0  0  0  0  0  0  0  0  0
    8.4365  -16.2365   25.4727 O   0  0  0  0  0  0  0  0  0  0  0  0
   11.7108  -14.7893   29.2485 C   0  0  0  0  0  0  0  0  0  0  0  0
   10.7857  -14.0661   28.2913 C   0  0  2  0  0  0  0  0  0  0  0  0
    9.6253  -13.5257   29.1068 C   0  0  0  0  0  0  0  0  0  0  0  0
   10.2322  -15.0701   27.3152 C   0  0  2  0  0  0  0  0  0  0  0  0
    9.3715  -14.3638   26.3865 N   0  0  0  0  0  0  0  0  0  0  0  0
    9.5738  -16.2116   27.9483 C   0  0  0  0  0  0  0  0  0  0  0  0
    8.3279  -16.2058   28.1025 O   0  0  0  0  0  0  0  0  0  0  0  0
   10.2623  -17.3252   28.3980 O   0  0  0  0  0  0  0  0  0  0  0  0
  2  1  1  0
  3  2  1  0
  3  4  1  0
  4  5  1  0
  5  7  1  0
  5  6  1  6
  7  8  2  0
  7  9  1  0
  9 10  1  0
 10 13  1  0
 10 11  1  1
 11 12  1  0
 13 14  2  0
 16 15  1  1
 16 18  1  0
 17 16  1  0
 18 20  1  0
 19 13  1  0
 18 19  1  6
 20 22  1  0
 21 20  2  0
M  END
$$$$
