MCV.pdb
     RDKit          3D

 22 21  0  0  1  0  0  0  0  0999 V2000
    8.9611  -12.3628   19.6581 C   0  0  0  0  0  0  0  0  0  0  0  0
    7.9148  -13.0231   18.3359 S   0  0  0  0  0  0  0  0  0  0  0  0
    7.3465  -14.6832   18.7317 C   0  0  0  0  0  0  0  0  0  0  0  0
    8.0494  -15.2797   19.9235 C   0  0  0  0  0  0  0  0  0  0  0  0
    7.5431  -16.6513   20.2743 C   0  0  2  0  0  0  0  0  0  0  0  0
    6.5087  -17.0927   19.3322 N   0  0  0  0  0  0  0  0  0  0  0  0
    7.0456  -16.6676   21.6583 C   0  0  0  0  0  0  0  0  0  0  0  0
    5.8851  -16.1777   21.8421 O   0  0  0  0  0  0  0  0  0  0  0  0
    7.7666  -17.1844   22.7703 N   0  0  0  0  0  0  0  0  0  0  0  0
    7.2720  -16.9574   24.0889 C   0  0  1  0  0  0  0  0  0  0  0  0
    7.3397  -18.2744   24.8571 C   0  0  0  0  0  0  0  0  0  0  0  0
    7.0484  -18.0119   26.6239 S   0  0  0  0  0  0  0  0  0  0  0  0
    7.9920  -15.8709   24.8033 C   0  0  0  0  0  0  0  0  0  0  0  0
    9.2260  -15.7057   24.7382 O   0  0  0  0  0  0  0  0  0  0  0  0
    5.9261  -12.4918   25.6919 C   0  0  0  0  0  0  0  0  0  0  0  0
    6.6652  -13.0554   26.8882 C   0  0  2  0  0  0  0  0  0  0  0  0
    7.2660  -11.8823   27.6410 C   0  0  0  0  0  0  0  0  0  0  0  0
    7.8000  -13.9088   26.3874 C   0  0  2  0  0  0  0  0  0  0  0  0
    7.2356  -14.9834   25.5944 N   0  0  0  0  0  0  0  0  0  0  0  0
    8.6931  -14.3860   27.4420 C   0  0  0  0  0  0  0  0  0  0  0  0
    8.5362  -15.5370   27.9180 O   0  0  0  0  0  0  0  0  0  0  0  0
    9.7265  -13.6229   27.9577 O   0  0  0  0  0  0  0  0  0  0  0  0
  2  1  1  0
  3  2  1  0
  3  4  1  0
  4  5  1  0
  5  7  1  0
  5  6  1  6
  7  8  2  0
  7  9  1  0
  9 10  1  0
 10 13  1  0
 10 11  1  1
 11 12  1  0
 13 14  2  0
 16 15  1  6
 16 18  1  0
 17 16  1  0
 18 20  1  0
 19 13  1  0
 18 19  1  1
 20 22  1  0
 21 20  2  0
M  END
$$$$
