MCV.pdb
     RDKit          3D

 22 21  0  0  1  0  0  0  0  0999 V2000
    8.5984  -20.3432   21.9194 C   0  0  0  0  0  0  0  0  0  0  0  0
   10.2278  -19.6709   21.5049 S   0  0  0  0  0  0  0  0  0  0  0  0
   10.1695  -17.8784   21.3666 C   0  0  0  0  0  0  0  0  0  0  0  0
    8.7675  -17.3279   21.4094 C   0  0  0  0  0  0  0  0  0  0  0  0
    8.7191  -15.8372   21.2202 C   0  0  2  0  0  0  0  0  0  0  0  0
    9.7941  -15.3791   20.3331 N   0  0  0  0  0  0  0  0  0  0  0  0
    8.7795  -15.1601   22.5245 C   0  0  0  0  0  0  0  0  0  0  0  0
    9.9267  -14.7443   22.8872 O   0  0  0  0  0  0  0  0  0  0  0  0
    7.6615  -14.9498   23.3786 N   0  0  0  0  0  0  0  0  0  0  0  0
    7.8667  -14.3739   24.6673 C   0  0  1  0  0  0  0  0  0  0  0  0
    6.5062  -13.9809   25.2364 C   0  0  0  0  0  0  0  0  0  0  0  0
    6.6919  -13.0015   26.7469 S   0  0  0  0  0  0  0  0  0  0  0  0
    8.6089  -15.2676   25.5945 C   0  0  0  0  0  0  0  0  0  0  0  0
    8.5675  -16.5119   25.5299 O   0  0  0  0  0  0  0  0  0  0  0  0
   10.8742  -13.2131   28.4021 C   0  0  0  0  0  0  0  0  0  0  0  0
   10.2971  -14.5529   28.8105 C   0  0  2  0  0  0  0  0  0  0  0  0
   11.3036  -15.2153   29.7334 C   0  0  0  0  0  0  0  0  0  0  0  0
   10.1692  -15.4107   27.5797 C   0  0  2  0  0  0  0  0  0  0  0  0
    9.3997  -14.6724   26.5975 N   0  0  0  0  0  0  0  0  0  0  0  0
    9.6317  -16.7451   27.8404 C   0  0  0  0  0  0  0  0  0  0  0  0
    8.3893  -16.9162   27.8981 O   0  0  0  0  0  0  0  0  0  0  0  0
   10.4336  -17.8572   28.0315 O   0  0  0  0  0  0  0  0  0  0  0  0
  2  1  1  0
  3  2  1  0
  3  4  1  0
  4  5  1  0
  5  7  1  0
  5  6  1  6
  7  8  2  0
  7  9  1  0
  9 10  1  0
 10 13  1  0
 10 11  1  1
 11 12  1  0
 13 14  2  0
 16 15  1  6
 16 18  1  0
 17 16  1  0
 18 20  1  0
 19 13  1  0
 18 19  1  6
 20 22  1  0
 21 20  2  0
M  END
$$$$
