NNK.pdb
     RDKit          3D

 26 25  0  0  1  0  0  0  0  0999 V2000
   14.7495  -16.5164   16.8315 N   0  0  0  0  0  0  0  0  0  0  0  0
   14.7007  -15.1043   16.9576 C   0  0  0  0  0  0  0  0  0  0  0  0
   15.4532  -14.3790   16.2374 O   0  0  0  0  0  0  0  0  0  0  0  0
   13.7743  -14.4933   17.9232 C   0  0  0  0  0  0  0  0  0  0  0  0
   13.0143  -15.5371   18.7087 C   0  0  2  0  0  0  0  0  0  0  0  0
   12.0513  -16.0936   17.7525 N   0  0  0  0  0  0  0  0  0  0  0  0
   12.2440  -14.7977   19.7768 C   0  0  0  0  0  0  0  0  0  0  0  0
   12.7998  -14.1488   20.6866 O   0  0  0  0  0  0  0  0  0  0  0  0
    8.8593  -12.3988   18.1492 N   0  0  0  0  0  0  0  0  0  0  0  0
    8.6860  -13.6583   18.7673 C   0  0  0  0  0  0  0  0  0  0  0  0
    8.5812  -14.6710   18.0588 O   0  0  0  0  0  0  0  0  0  0  0  0
    8.6341  -13.7488   20.2287 C   0  0  0  0  0  0  0  0  0  0  0  0
    9.9874  -14.1521   20.7555 C   0  0  2  0  0  0  0  0  0  0  0  0
   10.8033  -14.8262   19.7680 N   0  0  0  0  0  0  0  0  0  0  0  0
    9.8493  -14.9973   21.9842 C   0  0  0  0  0  0  0  0  0  0  0  0
    9.1292  -14.6052   22.9200 O   0  0  0  0  0  0  0  0  0  0  0  0
   10.5418  -16.2271   22.0582 N   0  0  0  0  0  0  0  0  0  0  0  0
   10.5272  -16.9882   23.3135 C   0  0  1  0  0  0  0  0  0  0  0  0
   10.3004  -18.4422   23.0073 C   0  0  0  0  0  0  0  0  0  0  0  0
   10.4716  -19.2786   24.2372 C   0  0  0  0  0  0  0  0  0  0  0  0
   10.3518  -20.7554   23.9269 C   0  0  0  0  0  0  0  0  0  0  0  0
   10.5535  -21.4728   25.2586 C   0  0  0  0  0  0  0  0  0  0  0  0
   10.5673  -22.8996   25.1161 N   0  0  0  0  0  0  0  0  0  0  0  0
   11.8433  -16.8174   23.9739 C   0  0  0  0  0  0  0  0  0  0  0  0
   11.9078  -16.9691   25.3785 O   0  0  0  0  0  0  0  0  0  0  0  0
   12.9150  -16.5472   23.3898 O   0  0  0  0  0  0  0  0  0  0  0  0
  2  1  1  0
  2  3  2  0
  4  2  1  0
  5  4  1  0
  5  6  1  6
  7  5  1  0
  8  7  2  0
  9 10  1  0
 10 12  1  0
 11 10  2  0
 13 12  1  6
 13 14  1  0
 14  7  1  0
 15 13  1  0
 15 16  2  0
 17 18  1  0
 17 15  1  0
 18 19  1  6
 19 20  1  0
 21 20  1  0
 22 23  1  0
 22 21  1  0
 24 18  1  0
 25 24  1  0
 26 24  2  0
M  END
$$$$
