NNK.pdb
     RDKit          3D

 26 25  0  0  1  0  0  0  0  0999 V2000
    7.5898  -12.4925   17.1303 N   0  0  0  0  0  0  0  0  0  0  0  0
    8.0614  -13.5825   16.3546 C   0  0  0  0  0  0  0  0  0  0  0  0
    7.5248  -13.8393   15.2334 O   0  0  0  0  0  0  0  0  0  0  0  0
    9.1723  -14.4050   16.8581 C   0  0  0  0  0  0  0  0  0  0  0  0
    9.5877  -13.9935   18.2517 C   0  0  2  0  0  0  0  0  0  0  0  0
   10.0726  -12.6170   18.1037 N   0  0  0  0  0  0  0  0  0  0  0  0
   10.7600  -14.8679   18.6287 C   0  0  0  0  0  0  0  0  0  0  0  0
   10.6597  -16.1007   18.7960 O   0  0  0  0  0  0  0  0  0  0  0  0
   14.4470  -14.1281   16.0755 N   0  0  0  0  0  0  0  0  0  0  0  0
   14.4663  -15.0667   17.1324 C   0  0  0  0  0  0  0  0  0  0  0  0
   14.4639  -16.2781   16.8662 O   0  0  0  0  0  0  0  0  0  0  0  0
   14.4901  -14.5971   18.5201 C   0  0  0  0  0  0  0  0  0  0  0  0
   13.2280  -15.0323   19.2195 C   0  0  2  0  0  0  0  0  0  0  0  0
   12.0625  -14.2783   18.8090 N   0  0  0  0  0  0  0  0  0  0  0  0
   13.3948  -14.9677   20.7065 C   0  0  0  0  0  0  0  0  0  0  0  0
   13.8323  -13.9270   21.2294 O   0  0  0  0  0  0  0  0  0  0  0  0
   13.0522  -16.0931   21.4897 N   0  0  0  0  0  0  0  0  0  0  0  0
   13.1974  -16.0270   22.9491 C   0  0  1  0  0  0  0  0  0  0  0  0
   12.1735  -16.9224   23.5887 C   0  0  0  0  0  0  0  0  0  0  0  0
   12.4276  -17.0577   25.0579 C   0  0  0  0  0  0  0  0  0  0  0  0
   11.5716  -18.1442   25.6729 C   0  0  0  0  0  0  0  0  0  0  0  0
   11.8894  -18.1224   27.1654 C   0  0  0  0  0  0  0  0  0  0  0  0
   11.1028  -19.0643   27.9072 N   0  0  0  0  0  0  0  0  0  0  0  0
   14.5589  -16.4962   23.3006 C   0  0  0  0  0  0  0  0  0  0  0  0
   15.2105  -15.8861   24.3976 O   0  0  0  0  0  0  0  0  0  0  0  0
   15.1895  -17.3957   22.7041 O   0  0  0  0  0  0  0  0  0  0  0  0
  2  1  1  0
  2  3  2  0
  4  2  1  0
  5  4  1  0
  5  6  1  6
  7  5  1  0
  8  7  2  0
  9 10  1  0
 10 12  1  0
 11 10  2  0
 13 12  1  6
 13 14  1  0
 14  7  1  0
 15 13  1  0
 15 16  2  0
 17 18  1  0
 17 15  1  0
 18 19  1  1
 19 20  1  0
 21 20  1  0
 22 23  1  0
 22 21  1  0
 24 18  1  0
 25 24  1  0
 26 24  2  0
M  END
$$$$
