NNK.pdb
     RDKit          3D

 26 25  0  0  1  0  0  0  0  0999 V2000
    1.5222  -21.9158   17.3905 N   0  0  0  0  0  0  0  0  0  0  0  0
    2.3292  -20.7732   17.6258 C   0  0  0  0  0  0  0  0  0  0  0  0
    1.7866  -19.6346   17.7683 O   0  0  0  0  0  0  0  0  0  0  0  0
    3.7907  -20.9204   17.7048 C   0  0  0  0  0  0  0  0  0  0  0  0
    4.2692  -21.0045   19.1359 C   0  0  2  0  0  0  0  0  0  0  0  0
    3.8898  -19.7185   19.7308 N   0  0  0  0  0  0  0  0  0  0  0  0
    5.7770  -21.0729   19.0838 C   0  0  0  0  0  0  0  0  0  0  0  0
    6.4166  -22.1177   19.3232 O   0  0  0  0  0  0  0  0  0  0  0  0
    8.1810  -20.0894   15.7937 N   0  0  0  0  0  0  0  0  0  0  0  0
    8.0448  -18.8530   16.4656 C   0  0  0  0  0  0  0  0  0  0  0  0
    7.5301  -17.8942   15.8705 O   0  0  0  0  0  0  0  0  0  0  0  0
    8.5101  -18.7234   17.8488 C   0  0  0  0  0  0  0  0  0  0  0  0
    7.9798  -19.8726   18.6671 C   0  0  2  0  0  0  0  0  0  0  0  0
    6.5346  -19.8949   18.7453 N   0  0  0  0  0  0  0  0  0  0  0  0
    8.5772  -19.8677   20.0405 C   0  0  0  0  0  0  0  0  0  0  0  0
    8.2227  -19.0010   20.8599 O   0  0  0  0  0  0  0  0  0  0  0  0
    9.5353  -20.8493   20.3808 N   0  0  0  0  0  0  0  0  0  0  0  0
   10.1129  -20.8555   21.7305 C   0  0  1  0  0  0  0  0  0  0  0  0
   10.2400  -22.2754   22.2072 C   0  0  0  0  0  0  0  0  0  0  0  0
    9.8043  -22.3993   23.6342 C   0  0  0  0  0  0  0  0  0  0  0  0
    9.7961  -23.8428   24.0901 C   0  0  0  0  0  0  0  0  0  0  0  0
    9.4165  -23.8049   25.5677 C   0  0  0  0  0  0  0  0  0  0  0  0
    9.3179  -25.1150   26.1421 N   0  0  0  0  0  0  0  0  0  0  0  0
   11.4553  -20.2306   21.6625 C   0  0  0  0  0  0  0  0  0  0  0  0
   11.8139  -19.3119   22.6762 O   0  0  0  0  0  0  0  0  0  0  0  0
   12.3091  -20.4476   20.7756 O   0  0  0  0  0  0  0  0  0  0  0  0
  2  1  1  0
  2  3  2  0
  4  2  1  0
  5  4  1  0
  5  6  1  1
  7  5  1  0
  8  7  2  0
  9 10  1  0
 10 12  1  0
 11 10  2  0
 13 12  1  1
 13 14  1  0
 14  7  1  0
 15 13  1  0
 15 16  2  0
 17 18  1  0
 17 15  1  0
 18 19  1  6
 19 20  1  0
 21 20  1  0
 22 23  1  0
 22 21  1  0
 24 18  1  0
 25 24  1  0
 26 24  2  0
M  END
$$$$
