NNK.pdb
     RDKit          3D

 26 25  0  0  1  0  0  0  0  0999 V2000
    7.8713  -12.9022   16.5334 N   0  0  0  0  0  0  0  0  0  0  0  0
    8.2847  -14.1975   16.1289 C   0  0  0  0  0  0  0  0  0  0  0  0
    8.8155  -14.3640   14.9880 O   0  0  0  0  0  0  0  0  0  0  0  0
    8.0953  -15.3374   17.0392 C   0  0  0  0  0  0  0  0  0  0  0  0
    7.6577  -14.8896   18.4148 C   0  0  2  0  0  0  0  0  0  0  0  0
    8.5409  -13.7638   18.7376 N   0  0  0  0  0  0  0  0  0  0  0  0
    7.9760  -16.0239   19.3597 C   0  0  0  0  0  0  0  0  0  0  0  0
    7.7108  -17.2159   19.1012 O   0  0  0  0  0  0  0  0  0  0  0  0
   11.6140  -19.3132   22.0555 N   0  0  0  0  0  0  0  0  0  0  0  0
   10.3144  -18.7579   22.0225 C   0  0  0  0  0  0  0  0  0  0  0  0
    9.4798  -19.1201   22.8655 O   0  0  0  0  0  0  0  0  0  0  0  0
    9.9743  -17.7665   20.9987 C   0  0  0  0  0  0  0  0  0  0  0  0
    8.9924  -16.7743   21.5667 C   0  0  2  0  0  0  0  0  0  0  0  0
    8.6138  -15.7454   20.6215 N   0  0  0  0  0  0  0  0  0  0  0  0
    9.5257  -16.1584   22.8235 C   0  0  0  0  0  0  0  0  0  0  0  0
   10.6588  -15.6445   22.8211 O   0  0  0  0  0  0  0  0  0  0  0  0
    8.7303  -16.1731   23.9916 N   0  0  0  0  0  0  0  0  0  0  0  0
    8.8617  -15.0838   24.9671 C   0  0  1  0  0  0  0  0  0  0  0  0
    7.5444  -14.3709   25.0923 C   0  0  0  0  0  0  0  0  0  0  0  0
    7.6320  -13.2620   26.0944 C   0  0  0  0  0  0  0  0  0  0  0  0
    6.2888  -12.5973   26.3075 C   0  0  0  0  0  0  0  0  0  0  0  0
    6.5369  -11.4857   27.3232 C   0  0  0  0  0  0  0  0  0  0  0  0
    5.3499  -10.7367   27.6170 N   0  0  0  0  0  0  0  0  0  0  0  0
    9.2345  -15.6753   26.2741 C   0  0  0  0  0  0  0  0  0  0  0  0
    9.7347  -14.8123   27.2768 O   0  0  0  0  0  0  0  0  0  0  0  0
    9.1443  -16.8862   26.5712 O   0  0  0  0  0  0  0  0  0  0  0  0
  2  1  1  0
  2  3  2  0
  4  2  1  0
  5  4  1  0
  5  6  1  1
  7  5  1  0
  8  7  2  0
  9 10  1  0
 10 12  1  0
 11 10  2  0
 13 12  1  6
 13 14  1  0
 14  7  1  0
 15 13  1  0
 15 16  2  0
 17 18  1  0
 17 15  1  0
 18 19  1  1
 19 20  1  0
 21 20  1  0
 22 23  1  0
 22 21  1  0
 24 18  1  0
 25 24  1  0
 26 24  2  0
M  END
$$$$
