NNK.pdb
     RDKit          3D

 26 25  0  0  1  0  0  0  0  0999 V2000
    7.8616  -12.7413   16.4622 N   0  0  0  0  0  0  0  0  0  0  0  0
    8.0630  -14.1447   16.4138 C   0  0  0  0  0  0  0  0  0  0  0  0
    8.3134  -14.7094   15.3051 O   0  0  0  0  0  0  0  0  0  0  0  0
    7.9816  -14.9330   17.6532 C   0  0  0  0  0  0  0  0  0  0  0  0
    9.0635  -14.5469   18.6353 C   0  0  2  0  0  0  0  0  0  0  0  0
   10.3178  -14.9151   17.9701 N   0  0  0  0  0  0  0  0  0  0  0  0
    8.8902  -15.4392   19.8414 C   0  0  0  0  0  0  0  0  0  0  0  0
    7.8050  -15.5577   20.4464 O   0  0  0  0  0  0  0  0  0  0  0  0
   10.0146  -20.0851   20.9926 N   0  0  0  0  0  0  0  0  0  0  0  0
   10.8597  -18.9921   20.6933 C   0  0  0  0  0  0  0  0  0  0  0  0
   11.4000  -18.9322   19.5785 O   0  0  0  0  0  0  0  0  0  0  0  0
   11.0829  -17.9504   21.6992 C   0  0  0  0  0  0  0  0  0  0  0  0
    9.9965  -16.9109   21.5955 C   0  0  2  0  0  0  0  0  0  0  0  0
   10.0110  -16.1981   20.3358 N   0  0  0  0  0  0  0  0  0  0  0  0
   10.0702  -15.9488   22.7410 C   0  0  0  0  0  0  0  0  0  0  0  0
   11.1399  -15.3592   22.9782 O   0  0  0  0  0  0  0  0  0  0  0  0
    8.9210  -15.7287   23.5335 N   0  0  0  0  0  0  0  0  0  0  0  0
    9.0026  -14.8229   24.6860 C   0  0  1  0  0  0  0  0  0  0  0  0
    7.7083  -14.0697   24.8154 C   0  0  0  0  0  0  0  0  0  0  0  0
    7.7300  -13.1757   26.0160 C   0  0  0  0  0  0  0  0  0  0  0  0
    6.4283  -12.4183   26.1694 C   0  0  0  0  0  0  0  0  0  0  0  0
    6.6488  -11.4531   27.3308 C   0  0  0  0  0  0  0  0  0  0  0  0
    5.4752  -10.6887   27.6385 N   0  0  0  0  0  0  0  0  0  0  0  0
    9.2274  -15.6401   25.9021 C   0  0  0  0  0  0  0  0  0  0  0  0
    9.8013  -15.0099   27.0307 O   0  0  0  0  0  0  0  0  0  0  0  0
    8.9505  -16.8535   26.0184 O   0  0  0  0  0  0  0  0  0  0  0  0
  2  1  1  0
  2  3  2  0
  4  2  1  0
  5  4  1  0
  5  6  1  6
  7  5  1  0
  8  7  2  0
  9 10  1  0
 10 12  1  0
 11 10  2  0
 13 12  1  6
 13 14  1  0
 14  7  1  0
 15 13  1  0
 15 16  2  0
 17 18  1  0
 17 15  1  0
 18 19  1  1
 19 20  1  0
 21 20  1  0
 22 23  1  0
 22 21  1  0
 24 18  1  0
 25 24  1  0
 26 24  2  0
M  END
$$$$
