NNK.pdb
     RDKit          3D

 26 25  0  0  1  0  0  0  0  0999 V2000
    6.4062  -14.1350   17.6110 N   0  0  0  0  0  0  0  0  0  0  0  0
    7.5926  -14.1484   16.8335 C   0  0  0  0  0  0  0  0  0  0  0  0
    7.6391  -13.5050   15.7403 O   0  0  0  0  0  0  0  0  0  0  0  0
    8.7608  -14.9082   17.3045 C   0  0  0  0  0  0  0  0  0  0  0  0
    9.3231  -14.3352   18.5850 C   0  0  2  0  0  0  0  0  0  0  0  0
    9.4749  -12.9014   18.3153 N   0  0  0  0  0  0  0  0  0  0  0  0
   10.7004  -14.9306   18.7563 C   0  0  0  0  0  0  0  0  0  0  0  0
   10.8932  -16.1495   18.9436 O   0  0  0  0  0  0  0  0  0  0  0  0
   15.7307  -15.4419   17.0225 N   0  0  0  0  0  0  0  0  0  0  0  0
   15.4927  -14.5297   18.0760 C   0  0  0  0  0  0  0  0  0  0  0  0
   16.3570  -14.3786   18.9526 O   0  0  0  0  0  0  0  0  0  0  0  0
   14.2352  -13.7789   18.1160 C   0  0  0  0  0  0  0  0  0  0  0  0
   13.2113  -14.5554   18.9035 C   0  0  2  0  0  0  0  0  0  0  0  0
   11.8598  -14.0764   18.7053 N   0  0  0  0  0  0  0  0  0  0  0  0
   13.5548  -14.5619   20.3613 C   0  0  0  0  0  0  0  0  0  0  0  0
   13.9187  -13.5061   20.9098 O   0  0  0  0  0  0  0  0  0  0  0  0
   13.4597  -15.7702   21.0881 N   0  0  0  0  0  0  0  0  0  0  0  0
   13.7859  -15.7780   22.5195 C   0  0  1  0  0  0  0  0  0  0  0  0
   13.1920  -17.0038   23.1551 C   0  0  0  0  0  0  0  0  0  0  0  0
   11.7053  -16.8744   23.2752 C   0  0  0  0  0  0  0  0  0  0  0  0
   11.0791  -18.1396   23.8218 C   0  0  0  0  0  0  0  0  0  0  0  0
    9.6114  -17.7996   24.0653 C   0  0  0  0  0  0  0  0  0  0  0  0
    8.8508  -18.9346   24.5007 N   0  0  0  0  0  0  0  0  0  0  0  0
   15.2614  -15.8100   22.6579 C   0  0  0  0  0  0  0  0  0  0  0  0
   15.9964  -16.6213   21.7624 O   0  0  0  0  0  0  0  0  0  0  0  0
   15.9212  -15.1743   23.5082 O   0  0  0  0  0  0  0  0  0  0  0  0
  2  1  1  0
  2  3  2  0
  4  2  1  0
  5  4  1  0
  5  6  1  6
  7  5  1  0
  8  7  2  0
  9 10  1  0
 10 12  1  0
 11 10  2  0
 13 12  1  6
 13 14  1  0
 14  7  1  0
 15 13  1  0
 15 16  2  0
 17 18  1  0
 17 15  1  0
 18 19  1  6
 19 20  1  0
 21 20  1  0
 22 23  1  0
 22 21  1  0
 24 18  1  0
 25 24  1  0
 26 24  2  0
M  END
$$$$
