NNK.pdb
     RDKit          3D

 26 25  0  0  1  0  0  0  0  0999 V2000
    8.0966  -15.0306   14.0173 N   0  0  0  0  0  0  0  0  0  0  0  0
    7.7755  -13.8693   14.7660 C   0  0  0  0  0  0  0  0  0  0  0  0
    7.1333  -12.9215   14.2181 O   0  0  0  0  0  0  0  0  0  0  0  0
    8.1895  -13.7761   16.1746 C   0  0  0  0  0  0  0  0  0  0  0  0
    9.0425  -14.9535   16.5873 C   0  0  2  0  0  0  0  0  0  0  0  0
    8.1820  -16.1243   16.3864 N   0  0  0  0  0  0  0  0  0  0  0  0
    9.2968  -14.8043   18.0685 C   0  0  0  0  0  0  0  0  0  0  0  0
   10.1442  -14.0153   18.5345 O   0  0  0  0  0  0  0  0  0  0  0  0
    6.2013  -14.6007   21.1186 N   0  0  0  0  0  0  0  0  0  0  0  0
    6.5077  -15.9628   20.8970 C   0  0  0  0  0  0  0  0  0  0  0  0
    5.6323  -16.7137   20.4405 O   0  0  0  0  0  0  0  0  0  0  0  0
    7.8487  -16.4650   21.2071 C   0  0  0  0  0  0  0  0  0  0  0  0
    8.8705  -15.6927   20.4128 C   0  0  2  0  0  0  0  0  0  0  0  0
    8.5415  -15.5956   19.0066 N   0  0  0  0  0  0  0  0  0  0  0  0
   10.2367  -16.2803   20.5903 C   0  0  0  0  0  0  0  0  0  0  0  0
   10.5584  -17.2909   19.9398 O   0  0  0  0  0  0  0  0  0  0  0  0
   11.1369  -15.6747   21.4960 N   0  0  0  0  0  0  0  0  0  0  0  0
   12.4911  -16.2228   21.6414 C   0  0  1  0  0  0  0  0  0  0  0  0
   13.4918  -15.1907   21.2021 C   0  0  0  0  0  0  0  0  0  0  0  0
   13.6322  -15.1855   19.7115 C   0  0  0  0  0  0  0  0  0  0  0  0
   14.6448  -14.1585   19.2517 C   0  0  0  0  0  0  0  0  0  0  0  0
   14.6468  -14.2372   17.7276 C   0  0  0  0  0  0  0  0  0  0  0  0
   15.4894  -13.2435   17.1286 N   0  0  0  0  0  0  0  0  0  0  0  0
   12.7073  -16.5497   23.0710 C   0  0  0  0  0  0  0  0  0  0  0  0
   11.6802  -16.2305   23.9894 O   0  0  0  0  0  0  0  0  0  0  0  0
   13.7317  -17.0898   23.5416 O   0  0  0  0  0  0  0  0  0  0  0  0
  2  1  1  0
  2  3  2  0
  4  2  1  0
  5  4  1  0
  5  6  1  1
  7  5  1  0
  8  7  2  0
  9 10  1  0
 10 12  1  0
 11 10  2  0
 13 12  1  1
 13 14  1  0
 14  7  1  0
 15 13  1  0
 15 16  2  0
 17 18  1  0
 17 15  1  0
 18 19  1  1
 19 20  1  0
 21 20  1  0
 22 23  1  0
 22 21  1  0
 24 18  1  0
 25 24  1  0
 26 24  2  0
M  END
$$$$
