NNK.pdb
     RDKit          3D

 26 25  0  0  1  0  0  0  0  0999 V2000
    5.4393  -21.1902   17.7316 N   0  0  0  0  0  0  0  0  0  0  0  0
    5.8033  -19.8517   17.4348 C   0  0  0  0  0  0  0  0  0  0  0  0
    5.2493  -19.2459   16.4667 O   0  0  0  0  0  0  0  0  0  0  0  0
    6.8204  -19.1768   18.2557 C   0  0  0  0  0  0  0  0  0  0  0  0
    7.3994  -17.9713   17.5517 C   0  0  2  0  0  0  0  0  0  0  0  0
    8.2333  -18.5303   16.4823 N   0  0  0  0  0  0  0  0  0  0  0  0
    8.3059  -17.2848   18.5458 C   0  0  0  0  0  0  0  0  0  0  0  0
    9.4919  -17.6270   18.7301 O   0  0  0  0  0  0  0  0  0  0  0  0
    7.1406  -12.1611   19.2123 N   0  0  0  0  0  0  0  0  0  0  0  0
    8.0645  -13.2230   19.3439 C   0  0  0  0  0  0  0  0  0  0  0  0
    8.8795  -13.4327   18.4327 O   0  0  0  0  0  0  0  0  0  0  0  0
    8.0468  -14.0556   20.5494 C   0  0  0  0  0  0  0  0  0  0  0  0
    8.6276  -15.4099   20.2333 C   0  0  2  0  0  0  0  0  0  0  0  0
    7.8045  -16.1837   19.3284 N   0  0  0  0  0  0  0  0  0  0  0  0
    8.8909  -16.1818   21.4895 C   0  0  0  0  0  0  0  0  0  0  0  0
    7.9327  -16.5880   22.1714 O   0  0  0  0  0  0  0  0  0  0  0  0
   10.2260  -16.4344   21.8783 N   0  0  0  0  0  0  0  0  0  0  0  0
   10.4875  -17.2335   23.0817 C   0  0  1  0  0  0  0  0  0  0  0  0
   11.7951  -17.9570   22.9202 C   0  0  0  0  0  0  0  0  0  0  0  0
   11.6354  -19.1553   22.0371 C   0  0  0  0  0  0  0  0  0  0  0  0
   12.3271  -18.9606   20.7047 C   0  0  0  0  0  0  0  0  0  0  0  0
   12.0515  -20.2332   19.9088 C   0  0  0  0  0  0  0  0  0  0  0  0
   12.6430  -20.2019   18.6029 N   0  0  0  0  0  0  0  0  0  0  0  0
   10.5672  -16.3127   24.2407 C   0  0  0  0  0  0  0  0  0  0  0  0
   10.7160  -16.8761   25.5293 O   0  0  0  0  0  0  0  0  0  0  0  0
   10.5135  -15.0655   24.1773 O   0  0  0  0  0  0  0  0  0  0  0  0
  2  1  1  0
  2  3  2  0
  4  2  1  0
  5  4  1  0
  5  6  1  6
  7  5  1  0
  8  7  2  0
  9 10  1  0
 10 12  1  0
 11 10  2  0
 13 12  1  1
 13 14  1  0
 14  7  1  0
 15 13  1  0
 15 16  2  0
 17 18  1  0
 17 15  1  0
 18 19  1  6
 19 20  1  0
 21 20  1  0
 22 23  1  0
 22 21  1  0
 24 18  1  0
 25 24  1  0
 26 24  2  0
M  END
$$$$
