NNK.pdb
     RDKit          3D

 26 25  0  0  1  0  0  0  0  0999 V2000
   16.9252  -15.2744   15.6898 N   0  0  0  0  0  0  0  0  0  0  0  0
   15.8192  -14.5730   15.1448 C   0  0  0  0  0  0  0  0  0  0  0  0
   15.8455  -14.1943   13.9336 O   0  0  0  0  0  0  0  0  0  0  0  0
   14.6488  -14.2928   15.9908 C   0  0  0  0  0  0  0  0  0  0  0  0
   14.8781  -14.7169   17.4232 C   0  0  2  0  0  0  0  0  0  0  0  0
   14.8420  -16.1828   17.3871 N   0  0  0  0  0  0  0  0  0  0  0  0
   13.6837  -14.2355   18.2124 C   0  0  0  0  0  0  0  0  0  0  0  0
   13.4623  -13.0280   18.4376 O   0  0  0  0  0  0  0  0  0  0  0  0
    9.3625  -17.7742   19.5453 N   0  0  0  0  0  0  0  0  0  0  0  0
   10.4833  -16.9815   19.2080 C   0  0  0  0  0  0  0  0  0  0  0  0
   11.5952  -17.5203   19.0992 O   0  0  0  0  0  0  0  0  0  0  0  0
   10.3158  -15.5421   18.9917 C   0  0  0  0  0  0  0  0  0  0  0  0
   11.5485  -14.8160   19.4656 C   0  0  2  0  0  0  0  0  0  0  0  0
   12.7431  -15.1914   18.7396 N   0  0  0  0  0  0  0  0  0  0  0  0
   11.7482  -15.0119   20.9370 C   0  0  0  0  0  0  0  0  0  0  0  0
   10.8173  -14.7545   21.7214 O   0  0  0  0  0  0  0  0  0  0  0  0
   12.9935  -15.4858   21.4082 N   0  0  0  0  0  0  0  0  0  0  0  0
   13.1966  -15.6675   22.8508 C   0  0  1  0  0  0  0  0  0  0  0  0
   12.4562  -16.8948   23.3035 C   0  0  0  0  0  0  0  0  0  0  0  0
   12.6835  -17.1463   24.7618 C   0  0  0  0  0  0  0  0  0  0  0  0
   11.9571  -18.3885   25.2319 C   0  0  0  0  0  0  0  0  0  0  0  0
   12.2598  -18.5018   26.7234 C   0  0  0  0  0  0  0  0  0  0  0  0
   11.5746  -19.6002   27.3399 N   0  0  0  0  0  0  0  0  0  0  0  0
   14.6481  -15.8424   23.0955 C   0  0  0  0  0  0  0  0  0  0  0  0
   15.5077  -15.9173   21.9749 O   0  0  0  0  0  0  0  0  0  0  0  0
   15.1855  -15.9309   24.2207 O   0  0  0  0  0  0  0  0  0  0  0  0
  2  1  1  0
  2  3  2  0
  4  2  1  0
  5  4  1  0
  5  6  1  6
  7  5  1  0
  8  7  2  0
  9 10  1  0
 10 12  1  0
 11 10  2  0
 13 12  1  6
 13 14  1  0
 14  7  1  0
 15 13  1  0
 15 16  2  0
 17 18  1  0
 17 15  1  0
 18 19  1  6
 19 20  1  0
 21 20  1  0
 22 23  1  0
 22 21  1  0
 24 18  1  0
 25 24  1  0
 26 24  2  0
M  END
$$$$
