NNK.pdb
     RDKit          3D

 26 25  0  0  1  0  0  0  0  0999 V2000
   14.2276  -18.7245   16.6154 N   0  0  0  0  0  0  0  0  0  0  0  0
   13.5942  -19.5743   17.5583 C   0  0  0  0  0  0  0  0  0  0  0  0
   13.8964  -20.8063   17.6019 O   0  0  0  0  0  0  0  0  0  0  0  0
   12.5923  -19.0169   18.4799 C   0  0  0  0  0  0  0  0  0  0  0  0
   12.3498  -17.5475   18.2224 C   0  0  2  0  0  0  0  0  0  0  0  0
   13.5965  -16.8887   18.6264 N   0  0  0  0  0  0  0  0  0  0  0  0
   11.2593  -17.1165   19.1743 C   0  0  0  0  0  0  0  0  0  0  0  0
   10.0498  -17.3445   18.9671 O   0  0  0  0  0  0  0  0  0  0  0  0
    8.4142  -19.3552   21.3843 N   0  0  0  0  0  0  0  0  0  0  0  0
    9.0106  -18.1069   21.6753 C   0  0  0  0  0  0  0  0  0  0  0  0
    8.2920  -17.1006   21.7721 O   0  0  0  0  0  0  0  0  0  0  0  0
   10.4617  -18.0208   21.8585 C   0  0  0  0  0  0  0  0  0  0  0  0
   10.9122  -16.5993   21.6398 C   0  0  2  0  0  0  0  0  0  0  0  0
   11.6031  -16.4097   20.3821 N   0  0  0  0  0  0  0  0  0  0  0  0
   11.7634  -16.1301   22.7794 C   0  0  0  0  0  0  0  0  0  0  0  0
   11.5099  -15.0414   23.3259 O   0  0  0  0  0  0  0  0  0  0  0  0
   12.8417  -16.9341   23.2131 N   0  0  0  0  0  0  0  0  0  0  0  0
   13.7009  -16.4599   24.3051 C   0  0  1  0  0  0  0  0  0  0  0  0
   14.1961  -17.6405   25.0927 C   0  0  0  0  0  0  0  0  0  0  0  0
   13.0800  -18.2705   25.8666 C   0  0  0  0  0  0  0  0  0  0  0  0
   13.5253  -19.5487   26.5445 C   0  0  0  0  0  0  0  0  0  0  0  0
   12.2743  -20.1205   27.2056 C   0  0  0  0  0  0  0  0  0  0  0  0
   12.5294  -21.3585   27.8828 N   0  0  0  0  0  0  0  0  0  0  0  0
   14.8517  -15.7400   23.7095 C   0  0  0  0  0  0  0  0  0  0  0  0
   15.0207  -15.8005   22.3066 O   0  0  0  0  0  0  0  0  0  0  0  0
   15.6968  -15.0757   24.3474 O   0  0  0  0  0  0  0  0  0  0  0  0
  2  1  1  0
  2  3  2  0
  4  2  1  0
  5  4  1  0
  5  6  1  1
  7  5  1  0
  8  7  2  0
  9 10  1  0
 10 12  1  0
 11 10  2  0
 13 12  1  1
 13 14  1  0
 14  7  1  0
 15 13  1  0
 15 16  2  0
 17 18  1  0
 17 15  1  0
 18 19  1  6
 19 20  1  0
 21 20  1  0
 22 23  1  0
 22 21  1  0
 24 18  1  0
 25 24  1  0
 26 24  2  0
M  END
$$$$
