NNK.pdb
     RDKit          3D

 26 25  0  0  1  0  0  0  0  0999 V2000
    7.7278  -12.4471   17.8002 N   0  0  0  0  0  0  0  0  0  0  0  0
    7.9991  -13.5385   18.6646 C   0  0  0  0  0  0  0  0  0  0  0  0
    7.8330  -14.7276   18.2527 O   0  0  0  0  0  0  0  0  0  0  0  0
    8.4736  -13.2804   20.0329 C   0  0  0  0  0  0  0  0  0  0  0  0
    8.6985  -14.5633   20.7996 C   0  0  2  0  0  0  0  0  0  0  0  0
    7.3567  -15.1270   20.9825 N   0  0  0  0  0  0  0  0  0  0  0  0
    9.2322  -14.1679   22.1560 C   0  0  0  0  0  0  0  0  0  0  0  0
    9.9486  -13.1617   22.3352 O   0  0  0  0  0  0  0  0  0  0  0  0
    7.0334  -11.9725   26.0740 N   0  0  0  0  0  0  0  0  0  0  0  0
    6.5175  -13.1740   25.5367 C   0  0  0  0  0  0  0  0  0  0  0  0
    5.6252  -13.7778   26.1511 O   0  0  0  0  0  0  0  0  0  0  0  0
    7.0411  -13.6853   24.2674 C   0  0  0  0  0  0  0  0  0  0  0  0
    8.3270  -14.4303   24.5179 C   0  0  2  0  0  0  0  0  0  0  0  0
    8.9152  -14.9699   23.3104 N   0  0  0  0  0  0  0  0  0  0  0  0
    8.1243  -15.5152   25.5303 C   0  0  0  0  0  0  0  0  0  0  0  0
    8.1263  -15.2312   26.7417 O   0  0  0  0  0  0  0  0  0  0  0  0
    7.9350  -16.8447   25.0898 N   0  0  0  0  0  0  0  0  0  0  0  0
    7.8771  -17.9299   26.0769 C   0  0  1  0  0  0  0  0  0  0  0  0
    7.3760  -19.1796   25.4088 C   0  0  0  0  0  0  0  0  0  0  0  0
    7.4155  -20.3409   26.3529 C   0  0  0  0  0  0  0  0  0  0  0  0
    6.9792  -21.6229   25.6765 C   0  0  0  0  0  0  0  0  0  0  0  0
    7.0904  -22.7087   26.7430 C   0  0  0  0  0  0  0  0  0  0  0  0
    6.5634  -23.9671   26.3012 N   0  0  0  0  0  0  0  0  0  0  0  0
    9.2468  -18.1571   26.5960 C   0  0  0  0  0  0  0  0  0  0  0  0
   10.3354  -17.9376   25.7201 O   0  0  0  0  0  0  0  0  0  0  0  0
    9.5272  -18.5309   27.7554 O   0  0  0  0  0  0  0  0  0  0  0  0
  2  1  1  0
  2  3  2  0
  4  2  1  0
  5  4  1  0
  5  6  1  1
  7  5  1  0
  8  7  2  0
  9 10  1  0
 10 12  1  0
 11 10  2  0
 13 12  1  6
 13 14  1  0
 14  7  1  0
 15 13  1  0
 15 16  2  0
 17 18  1  0
 17 15  1  0
 18 19  1  6
 19 20  1  0
 21 20  1  0
 22 23  1  0
 22 21  1  0
 24 18  1  0
 25 24  1  0
 26 24  2  0
M  END
$$$$
