DMT.pdb
     RDKit          3D

 24 23  0  0  1  0  0  0  0  0999 V2000
    8.4408  -15.0149   19.8231 N   0  0  0  0  0  0  0  0  0  0  0  0
    8.9397  -16.1362   20.5551 C   0  0  1  0  0  0  0  0  0  0  0  0
   10.1138  -16.7696   19.8600 C   0  0  0  0  0  0  0  0  0  0  0  0
    9.6744  -17.1607   18.4952 C   0  0  0  0  0  0  0  0  0  0  0  0
    8.4825  -17.0057   18.0993 O   0  0  0  0  0  0  0  0  0  0  0  0
    9.3103  -15.7165   21.9453 C   0  0  0  0  0  0  0  0  0  0  0  0
   10.4980  -15.8318   22.3299 O   0  0  0  0  0  0  0  0  0  0  0  0
   10.5705  -17.7179   17.5945 O   0  0  0  0  0  0  0  0  0  0  0  0
    5.4293  -11.6256   26.5173 C   0  0  0  0  0  0  0  0  0  0  0  0
    7.2288  -11.5554   26.1854 S   0  0  0  0  0  0  0  0  0  0  0  0
    7.8093  -13.2458   25.9830 C   0  0  0  0  0  0  0  0  0  0  0  0
    7.7938  -13.7170   24.5771 C   0  0  0  0  0  0  0  0  0  0  0  0
    8.7669  -14.7859   24.2067 C   0  0  2  0  0  0  0  0  0  0  0  0
    8.3636  -15.1951   22.8357 N   0  0  0  0  0  0  0  0  0  0  0  0
    8.6515  -15.9686   25.0830 C   0  0  0  0  0  0  0  0  0  0  0  0
    7.7586  -16.8322   24.8075 O   0  0  0  0  0  0  0  0  0  0  0  0
   11.7931  -17.6490   25.1813 C   0  0  0  0  0  0  0  0  0  0  0  0
   10.4994  -18.3428   25.5374 C   0  0  1  0  0  0  0  0  0  0  0  0
   10.7753  -19.6297   26.0301 O   0  0  0  0  0  0  0  0  0  0  0  0
    9.7511  -17.6200   26.6344 C   0  0  2  0  0  0  0  0  0  0  0  0
    9.4405  -16.2467   26.2080 N   0  0  0  0  0  0  0  0  0  0  0  0
   10.4730  -17.6305   27.9119 C   0  0  0  0  0  0  0  0  0  0  0  0
   10.7793  -18.6793   28.5296 O   0  0  0  0  0  0  0  0  0  0  0  0
   10.8446  -16.4239   28.4814 O   0  0  0  0  0  0  0  0  0  0  0  0
  2  1  1  6
  2  3  1  0
  3  4  1  0
  4  8  1  0
  5  4  2  0
  6  7  2  0
  6  2  1  0
  9 10  1  0
 10 11  1  0
 11 12  1  0
 13 12  1  1
 13 14  1  0
 14  6  1  0
 15 13  1  0
 15 21  1  0
 16 15  2  0
 18 17  1  1
 18 20  1  0
 19 18  1  0
 20 21  1  6
 20 22  1  0
 22 23  2  0
 22 24  1  0
M  END
$$$$
