DMT.pdb
     RDKit          3D

 24 23  0  0  1  0  0  0  0  0999 V2000
    8.1821  -16.6254   20.2442 N   0  0  0  0  0  0  0  0  0  0  0  0
    9.4859  -16.6368   20.8288 C   0  0  1  0  0  0  0  0  0  0  0  0
   10.5021  -15.9992   19.9213 C   0  0  0  0  0  0  0  0  0  0  0  0
   10.6607  -16.8767   18.7325 C   0  0  0  0  0  0  0  0  0  0  0  0
   10.6388  -18.1392   18.8174 O   0  0  0  0  0  0  0  0  0  0  0  0
    9.4568  -15.9470   22.1591 C   0  0  0  0  0  0  0  0  0  0  0  0
   10.5353  -15.6620   22.7313 O   0  0  0  0  0  0  0  0  0  0  0  0
   10.8409  -16.3329   17.4689 O   0  0  0  0  0  0  0  0  0  0  0  0
    7.2565  -11.9306   27.8081 C   0  0  0  0  0  0  0  0  0  0  0  0
    7.8733  -12.6204   26.2280 S   0  0  0  0  0  0  0  0  0  0  0  0
    6.6182  -13.7461   25.6010 C   0  0  0  0  0  0  0  0  0  0  0  0
    6.9518  -14.3359   24.2820 C   0  0  0  0  0  0  0  0  0  0  0  0
    8.2555  -15.0528   24.1671 C   0  0  2  0  0  0  0  0  0  0  0  0
    8.2526  -15.6082   22.7883 N   0  0  0  0  0  0  0  0  0  0  0  0
    8.3504  -16.1854   25.1097 C   0  0  0  0  0  0  0  0  0  0  0  0
    7.2900  -16.8402   25.3663 O   0  0  0  0  0  0  0  0  0  0  0  0
    9.2543  -19.3867   24.7510 C   0  0  0  0  0  0  0  0  0  0  0  0
   10.0869  -18.9914   25.9478 C   0  0  1  0  0  0  0  0  0  0  0  0
   11.3754  -18.6235   25.5242 O   0  0  0  0  0  0  0  0  0  0  0  0
    9.5161  -17.7882   26.6637 C   0  0  2  0  0  0  0  0  0  0  0  0
    9.5103  -16.6254   25.7625 N   0  0  0  0  0  0  0  0  0  0  0  0
   10.2214  -17.4887   27.9151 C   0  0  0  0  0  0  0  0  0  0  0  0
   10.8539  -16.4240   28.1197 O   0  0  0  0  0  0  0  0  0  0  0  0
   10.1977  -18.4225   28.9376 O   0  0  0  0  0  0  0  0  0  0  0  0
  2  1  1  6
  2  3  1  0
  3  4  1  0
  4  8  1  0
  5  4  2  0
  6  7  2  0
  6  2  1  0
  9 10  1  0
 10 11  1  0
 11 12  1  0
 13 12  1  1
 13 14  1  0
 14  6  1  0
 15 13  1  0
 15 21  1  0
 16 15  2  0
 18 17  1  6
 18 20  1  0
 19 18  1  0
 20 21  1  6
 20 22  1  0
 22 23  2  0
 22 24  1  0
M  END
$$$$
