DMT.pdb
     RDKit          3D

 24 23  0  0  1  0  0  0  0  0999 V2000
    8.5912  -16.6391   20.6498 N   0  0  0  0  0  0  0  0  0  0  0  0
    9.9493  -16.5515   21.0854 C   0  0  1  0  0  0  0  0  0  0  0  0
   10.7710  -15.6977   20.1587 C   0  0  0  0  0  0  0  0  0  0  0  0
   10.9610  -16.4556   18.8946 C   0  0  0  0  0  0  0  0  0  0  0  0
   11.6369  -17.5243   18.8431 O   0  0  0  0  0  0  0  0  0  0  0  0
   10.0049  -16.0191   22.4853 C   0  0  0  0  0  0  0  0  0  0  0  0
   11.1176  -15.7950   23.0176 O   0  0  0  0  0  0  0  0  0  0  0  0
   10.3947  -16.0101   17.7089 O   0  0  0  0  0  0  0  0  0  0  0  0
    6.9828  -11.2837   25.8494 C   0  0  0  0  0  0  0  0  0  0  0  0
    6.1600  -12.8273   26.3914 S   0  0  0  0  0  0  0  0  0  0  0  0
    7.3644  -14.1573   26.2640 C   0  0  0  0  0  0  0  0  0  0  0  0
    7.6701  -14.5528   24.8680 C   0  0  0  0  0  0  0  0  0  0  0  0
    8.9354  -15.3094   24.6364 C   0  0  2  0  0  0  0  0  0  0  0  0
    8.8430  -15.7618   23.2235 N   0  0  0  0  0  0  0  0  0  0  0  0
    9.0271  -16.5107   25.4900 C   0  0  0  0  0  0  0  0  0  0  0  0
    7.9941  -17.2450   25.6020 O   0  0  0  0  0  0  0  0  0  0  0  0
   10.8707  -19.5499   25.0336 C   0  0  0  0  0  0  0  0  0  0  0  0
   11.1889  -19.1365   26.4513 C   0  0  1  0  0  0  0  0  0  0  0  0
   12.4223  -18.4636   26.4799 O   0  0  0  0  0  0  0  0  0  0  0  0
   10.1656  -18.1705   27.0039 C   0  0  2  0  0  0  0  0  0  0  0  0
   10.1569  -16.9371   26.2021 N   0  0  0  0  0  0  0  0  0  0  0  0
   10.3749  -17.8791   28.4268 C   0  0  0  0  0  0  0  0  0  0  0  0
   10.7065  -16.7505   28.8646 O   0  0  0  0  0  0  0  0  0  0  0  0
   10.2009  -18.8954   29.3515 O   0  0  0  0  0  0  0  0  0  0  0  0
  2  1  1  6
  2  3  1  0
  3  4  1  0
  4  8  1  0
  5  4  2  0
  6  7  2  0
  6  2  1  0
  9 10  1  0
 10 11  1  0
 11 12  1  0
 13 12  1  1
 13 14  1  0
 14  6  1  0
 15 13  1  0
 15 21  1  0
 16 15  2  0
 18 17  1  6
 18 20  1  0
 19 18  1  0
 20 21  1  6
 20 22  1  0
 22 23  2  0
 22 24  1  0
M  END
$$$$
