DMT.pdb
     RDKit          3D

 24 23  0  0  1  0  0  0  0  0999 V2000
    8.8622  -17.2833   20.8370 N   0  0  0  0  0  0  0  0  0  0  0  0
   10.1974  -16.9851   21.2494 C   0  0  1  0  0  0  0  0  0  0  0  0
   11.0113  -16.4227   20.1162 C   0  0  0  0  0  0  0  0  0  0  0  0
   10.9169  -17.3720   18.9767 C   0  0  0  0  0  0  0  0  0  0  0  0
   11.3003  -18.5747   19.0664 O   0  0  0  0  0  0  0  0  0  0  0  0
   10.1755  -16.0351   22.4085 C   0  0  0  0  0  0  0  0  0  0  0  0
   11.2570  -15.6325   22.8983 O   0  0  0  0  0  0  0  0  0  0  0  0
   10.3969  -16.9653   17.7565 O   0  0  0  0  0  0  0  0  0  0  0  0
    6.1276  -11.8994   27.4276 C   0  0  0  0  0  0  0  0  0  0  0  0
    6.2203  -13.2487   26.1932 S   0  0  0  0  0  0  0  0  0  0  0  0
    7.4824  -12.7998   24.9927 C   0  0  0  0  0  0  0  0  0  0  0  0
    7.7389  -13.8492   23.9769 C   0  0  0  0  0  0  0  0  0  0  0  0
    8.9898  -14.6490   24.1254 C   0  0  2  0  0  0  0  0  0  0  0  0
    8.9745  -15.5793   22.9661 N   0  0  0  0  0  0  0  0  0  0  0  0
    8.9845  -15.4631   25.3573 C   0  0  0  0  0  0  0  0  0  0  0  0
    8.9530  -14.8559   26.4751 O   0  0  0  0  0  0  0  0  0  0  0  0
    6.5315  -18.2050   26.2810 C   0  0  0  0  0  0  0  0  0  0  0  0
    7.9199  -18.7159   26.5864 C   0  0  1  0  0  0  0  0  0  0  0  0
    8.3620  -19.5355   25.5339 O   0  0  0  0  0  0  0  0  0  0  0  0
    8.9255  -17.5927   26.7005 C   0  0  2  0  0  0  0  0  0  0  0  0
    9.0083  -16.8631   25.4257 N   0  0  0  0  0  0  0  0  0  0  0  0
   10.2474  -18.0601   27.1334 C   0  0  0  0  0  0  0  0  0  0  0  0
   11.2880  -17.9426   26.4414 O   0  0  0  0  0  0  0  0  0  0  0  0
   10.3708  -18.6672   28.3721 O   0  0  0  0  0  0  0  0  0  0  0  0
  2  1  1  6
  2  3  1  0
  3  4  1  0
  4  8  1  0
  5  4  2  0
  6  7  2  0
  6  2  1  0
  9 10  1  0
 10 11  1  0
 11 12  1  0
 13 12  1  1
 13 14  1  0
 14  6  1  0
 15 13  1  0
 15 21  1  0
 16 15  2  0
 18 17  1  6
 18 20  1  0
 19 18  1  0
 20 21  1  6
 20 22  1  0
 22 23  2  0
 22 24  1  0
M  END
$$$$
