DMT.pdb
     RDKit          3D

 24 23  0  0  1  0  0  0  0  0999 V2000
    8.8711  -14.8493   20.1363 N   0  0  0  0  0  0  0  0  0  0  0  0
    8.7819  -16.0671   20.8786 C   0  0  1  0  0  0  0  0  0  0  0  0
    9.6594  -17.1371   20.2889 C   0  0  0  0  0  0  0  0  0  0  0  0
    9.2400  -17.3392   18.8775 C   0  0  0  0  0  0  0  0  0  0  0  0
    8.0499  -17.6318   18.5621 O   0  0  0  0  0  0  0  0  0  0  0  0
    9.1392  -15.8199   22.3130 C   0  0  0  0  0  0  0  0  0  0  0  0
   10.3385  -15.6364   22.6286 O   0  0  0  0  0  0  0  0  0  0  0  0
   10.1537  -17.2118   17.8413 O   0  0  0  0  0  0  0  0  0  0  0  0
    6.8768  -10.7310   26.4534 C   0  0  0  0  0  0  0  0  0  0  0  0
    6.7474  -12.5383   26.7183 S   0  0  0  0  0  0  0  0  0  0  0  0
    7.2548  -13.3475   25.1940 C   0  0  0  0  0  0  0  0  0  0  0  0
    7.3405  -14.8239   25.3030 C   0  0  0  0  0  0  0  0  0  0  0  0
    8.5491  -15.4801   24.7237 C   0  0  2  0  0  0  0  0  0  0  0  0
    8.1669  -15.7872   23.3204 N   0  0  0  0  0  0  0  0  0  0  0  0
    8.8626  -16.7569   25.3958 C   0  0  0  0  0  0  0  0  0  0  0  0
    7.9370  -17.6246   25.4930 O   0  0  0  0  0  0  0  0  0  0  0  0
   10.9426  -19.4869   24.4102 C   0  0  0  0  0  0  0  0  0  0  0  0
   11.3685  -19.2048   25.8319 C   0  0  1  0  0  0  0  0  0  0  0  0
   12.5274  -18.4099   25.8272 O   0  0  0  0  0  0  0  0  0  0  0  0
   10.3216  -18.4241   26.5935 C   0  0  2  0  0  0  0  0  0  0  0  0
   10.0990  -17.1217   25.9468 N   0  0  0  0  0  0  0  0  0  0  0  0
   10.6586  -18.2633   28.0127 C   0  0  0  0  0  0  0  0  0  0  0  0
   10.7527  -19.2211   28.8184 O   0  0  0  0  0  0  0  0  0  0  0  0
   10.8888  -16.9900   28.5065 O   0  0  0  0  0  0  0  0  0  0  0  0
  2  1  1  6
  2  3  1  0
  3  4  1  0
  4  8  1  0
  5  4  2  0
  6  7  2  0
  6  2  1  0
  9 10  1  0
 10 11  1  0
 11 12  1  0
 13 12  1  1
 13 14  1  0
 14  6  1  0
 15 13  1  0
 15 21  1  0
 16 15  2  0
 18 17  1  6
 18 20  1  0
 19 18  1  0
 20 21  1  6
 20 22  1  0
 22 23  2  0
 22 24  1  0
M  END
$$$$
