DMT.pdb
     RDKit          3D

 24 23  0  0  1  0  0  0  0  0999 V2000
    8.2695  -16.7589   20.3374 N   0  0  0  0  0  0  0  0  0  0  0  0
    9.6470  -16.7921   20.7159 C   0  0  1  0  0  0  0  0  0  0  0  0
   10.5139  -16.0973   19.7018 C   0  0  0  0  0  0  0  0  0  0  0  0
   10.5568  -16.9485   18.4843 C   0  0  0  0  0  0  0  0  0  0  0  0
    9.9735  -16.6205   17.4102 O   0  0  0  0  0  0  0  0  0  0  0  0
    9.8206  -16.1771   22.0716 C   0  0  0  0  0  0  0  0  0  0  0  0
   10.9732  -16.0421   22.5461 O   0  0  0  0  0  0  0  0  0  0  0  0
   11.2490  -18.1508   18.4840 O   0  0  0  0  0  0  0  0  0  0  0  0
    6.5993  -11.5268   27.4594 C   0  0  0  0  0  0  0  0  0  0  0  0
    6.6093  -12.1729   25.7460 S   0  0  0  0  0  0  0  0  0  0  0  0
    7.5778  -13.6886   25.7436 C   0  0  0  0  0  0  0  0  0  0  0  0
    7.7429  -14.2883   24.3975 C   0  0  0  0  0  0  0  0  0  0  0  0
    8.9336  -15.1618   24.1828 C   0  0  2  0  0  0  0  0  0  0  0  0
    8.7265  -15.7447   22.8312 N   0  0  0  0  0  0  0  0  0  0  0  0
    8.9864  -16.2751   25.1513 C   0  0  0  0  0  0  0  0  0  0  0  0
    7.9338  -16.9693   25.3223 O   0  0  0  0  0  0  0  0  0  0  0  0
   10.5149  -19.3618   24.8115 C   0  0  0  0  0  0  0  0  0  0  0  0
   10.9929  -18.9144   26.1729 C   0  0  1  0  0  0  0  0  0  0  0  0
   12.2667  -18.3323   26.0569 O   0  0  0  0  0  0  0  0  0  0  0  0
   10.0949  -17.8546   26.7697 C   0  0  2  0  0  0  0  0  0  0  0  0
   10.0978  -16.6567   25.9156 N   0  0  0  0  0  0  0  0  0  0  0  0
   10.4548  -17.5231   28.1531 C   0  0  0  0  0  0  0  0  0  0  0  0
   10.8919  -16.4015   28.5088 O   0  0  0  0  0  0  0  0  0  0  0  0
   10.3100  -18.4908   29.1333 O   0  0  0  0  0  0  0  0  0  0  0  0
  2  1  1  6
  2  3  1  0
  3  4  1  0
  4  8  1  0
  5  4  2  0
  6  7  2  0
  6  2  1  0
  9 10  1  0
 10 11  1  0
 11 12  1  0
 13 12  1  1
 13 14  1  0
 14  6  1  0
 15 13  1  0
 15 21  1  0
 16 15  2  0
 18 17  1  6
 18 20  1  0
 19 18  1  0
 20 21  1  6
 20 22  1  0
 22 23  2  0
 22 24  1  0
M  END
$$$$
