DMT.pdb
     RDKit          3D

 24 23  0  0  1  0  0  0  0  0999 V2000
   -2.1891  -27.3809   27.7148 N   0  0  0  0  0  0  0  0  0  0  0  0
   -2.8471  -27.1927   28.9692 C   0  0  1  0  0  0  0  0  0  0  0  0
   -1.9235  -27.4726   30.1231 C   0  0  0  0  0  0  0  0  0  0  0  0
   -1.6766  -28.9376   30.1599 C   0  0  0  0  0  0  0  0  0  0  0  0
   -2.5105  -29.7745   29.7064 O   0  0  0  0  0  0  0  0  0  0  0  0
   -3.3964  -25.8009   29.0557 C   0  0  0  0  0  0  0  0  0  0  0  0
   -3.3636  -25.1904   30.1502 O   0  0  0  0  0  0  0  0  0  0  0  0
   -0.5046  -29.4456   30.7015 O   0  0  0  0  0  0  0  0  0  0  0  0
   -3.6786  -18.9563   26.5815 C   0  0  0  0  0  0  0  0  0  0  0  0
   -3.1148  -20.6727   26.8806 S   0  0  0  0  0  0  0  0  0  0  0  0
   -4.4540  -21.7744   26.4028 C   0  0  0  0  0  0  0  0  0  0  0  0
   -4.1580  -23.2086   26.6364 C   0  0  0  0  0  0  0  0  0  0  0  0
   -4.3456  -23.7252   28.0237 C   0  0  2  0  0  0  0  0  0  0  0  0
   -3.9499  -25.1557   27.9429 N   0  0  0  0  0  0  0  0  0  0  0  0
   -5.7584  -23.6710   28.4493 C   0  0  0  0  0  0  0  0  0  0  0  0
   -6.6340  -24.1858   27.6828 O   0  0  0  0  0  0  0  0  0  0  0  0
   -7.7978  -25.4481   30.6657 C   0  0  0  0  0  0  0  0  0  0  0  0
   -7.9967  -24.0081   31.0766 C   0  0  1  0  0  0  0  0  0  0  0  0
   -7.1151  -23.6913   32.1242 O   0  0  0  0  0  0  0  0  0  0  0  0
   -7.6813  -23.0483   29.9518 C   0  0  2  0  0  0  0  0  0  0  0  0
   -6.2458  -23.1029   29.6345 N   0  0  0  0  0  0  0  0  0  0  0  0
   -8.1103  -21.6758   30.2438 C   0  0  0  0  0  0  0  0  0  0  0  0
   -7.3165  -20.7141   30.3870 O   0  0  0  0  0  0  0  0  0  0  0  0
   -9.4635  -21.4096   30.3717 O   0  0  0  0  0  0  0  0  0  0  0  0
  2  1  1  6
  2  3  1  0
  3  4  1  0
  4  8  1  0
  5  4  2  0
  6  7  2  0
  6  2  1  0
  9 10  1  0
 10 11  1  0
 11 12  1  0
 13 12  1  6
 13 14  1  0
 14  6  1  0
 15 13  1  0
 15 21  1  0
 16 15  2  0
 18 17  1  6
 18 20  1  0
 19 18  1  0
 20 21  1  1
 20 22  1  0
 22 23  2  0
 22 24  1  0
M  END
$$$$
