DMT.pdb
     RDKit          3D

 24 23  0  0  1  0  0  0  0  0999 V2000
    7.0033  -16.3170   20.9501 N   0  0  0  0  0  0  0  0  0  0  0  0
    8.4072  -16.0575   20.8895 C   0  0  1  0  0  0  0  0  0  0  0  0
    8.7279  -14.9967   19.8724 C   0  0  0  0  0  0  0  0  0  0  0  0
    8.9235  -15.6703   18.5623 C   0  0  0  0  0  0  0  0  0  0  0  0
    8.4949  -16.8388   18.3332 O   0  0  0  0  0  0  0  0  0  0  0  0
    8.9142  -15.6637   22.2438 C   0  0  0  0  0  0  0  0  0  0  0  0
   10.1400  -15.4592   22.4095 O   0  0  0  0  0  0  0  0  0  0  0  0
    9.5934  -15.0308   17.5293 O   0  0  0  0  0  0  0  0  0  0  0  0
    7.0168  -11.6163   27.3605 C   0  0  0  0  0  0  0  0  0  0  0  0
    6.0969  -12.1013   25.8532 S   0  0  0  0  0  0  0  0  0  0  0  0
    7.2165  -13.0555   24.8181 C   0  0  0  0  0  0  0  0  0  0  0  0
    7.5046  -14.4116   25.3442 C   0  0  0  0  0  0  0  0  0  0  0  0
    8.5982  -15.1807   24.6814 C   0  0  2  0  0  0  0  0  0  0  0  0
    8.0544  -15.5157   23.3391 N   0  0  0  0  0  0  0  0  0  0  0  0
    8.8871  -16.4486   25.3807 C   0  0  0  0  0  0  0  0  0  0  0  0
    8.4329  -17.5257   24.8780 O   0  0  0  0  0  0  0  0  0  0  0  0
   10.3662  -18.5468   24.6181 C   0  0  0  0  0  0  0  0  0  0  0  0
   11.0263  -18.5065   25.9763 C   0  0  1  0  0  0  0  0  0  0  0  0
   12.1720  -17.6946   25.9190 O   0  0  0  0  0  0  0  0  0  0  0  0
   10.1263  -17.8968   27.0269 C   0  0  2  0  0  0  0  0  0  0  0  0
    9.6264  -16.5933   26.5629 N   0  0  0  0  0  0  0  0  0  0  0  0
   10.7825  -17.7808   28.3343 C   0  0  0  0  0  0  0  0  0  0  0  0
   11.0564  -16.6844   28.8805 O   0  0  0  0  0  0  0  0  0  0  0  0
   11.1255  -18.9362   29.0167 O   0  0  0  0  0  0  0  0  0  0  0  0
  2  1  1  1
  2  3  1  0
  3  4  1  0
  4  8  1  0
  5  4  2  0
  6  7  2  0
  6  2  1  0
  9 10  1  0
 10 11  1  0
 11 12  1  0
 13 12  1  1
 13 14  1  0
 14  6  1  0
 15 13  1  0
 15 21  1  0
 16 15  2  0
 18 17  1  6
 18 20  1  0
 19 18  1  0
 20 21  1  6
 20 22  1  0
 22 23  2  0
 22 24  1  0
M  END
$$$$
