DMT.pdb
     RDKit          3D

 24 23  0  0  1  0  0  0  0  0999 V2000
    7.8776  -14.7619   19.6452 N   0  0  0  0  0  0  0  0  0  0  0  0
    8.2886  -15.9236   20.3686 C   0  0  1  0  0  0  0  0  0  0  0  0
    9.3223  -16.7088   19.6085 C   0  0  0  0  0  0  0  0  0  0  0  0
    8.7316  -17.0841   18.2975 C   0  0  0  0  0  0  0  0  0  0  0  0
    9.1677  -16.6217   17.2032 O   0  0  0  0  0  0  0  0  0  0  0  0
    8.8091  -15.5294   21.7177 C   0  0  0  0  0  0  0  0  0  0  0  0
   10.0465  -15.4639   21.9079 O   0  0  0  0  0  0  0  0  0  0  0  0
    7.6648  -17.9684   18.2278 O   0  0  0  0  0  0  0  0  0  0  0  0
    6.7489  -10.7419   25.7744 C   0  0  0  0  0  0  0  0  0  0  0  0
    6.4543  -12.3140   26.6661 S   0  0  0  0  0  0  0  0  0  0  0  0
    7.6814  -13.4991   26.0958 C   0  0  0  0  0  0  0  0  0  0  0  0
    7.4537  -13.9721   24.7090 C   0  0  0  0  0  0  0  0  0  0  0  0
    8.5001  -14.8508   24.1091 C   0  0  2  0  0  0  0  0  0  0  0  0
    7.9491  -15.2294   22.7814 N   0  0  0  0  0  0  0  0  0  0  0  0
    8.6955  -16.0906   24.8869 C   0  0  0  0  0  0  0  0  0  0  0  0
    7.8153  -17.0040   24.7873 O   0  0  0  0  0  0  0  0  0  0  0  0
   10.3635  -18.7506   24.1111 C   0  0  0  0  0  0  0  0  0  0  0  0
   10.9080  -18.5226   25.5016 C   0  0  1  0  0  0  0  0  0  0  0  0
   12.1093  -17.7974   25.4238 O   0  0  0  0  0  0  0  0  0  0  0  0
    9.9683  -17.6969   26.3507 C   0  0  2  0  0  0  0  0  0  0  0  0
    9.7723  -16.3735   25.7387 N   0  0  0  0  0  0  0  0  0  0  0  0
   10.4205  -17.5787   27.7416 C   0  0  0  0  0  0  0  0  0  0  0  0
   10.6974  -16.4855   28.2929 O   0  0  0  0  0  0  0  0  0  0  0  0
   10.5546  -18.7282   28.5026 O   0  0  0  0  0  0  0  0  0  0  0  0
  2  1  1  6
  2  3  1  0
  3  4  1  0
  4  8  1  0
  5  4  2  0
  6  7  2  0
  6  2  1  0
  9 10  1  0
 10 11  1  0
 11 12  1  0
 13 12  1  1
 13 14  1  0
 14  6  1  0
 15 13  1  0
 15 21  1  0
 16 15  2  0
 18 17  1  6
 18 20  1  0
 19 18  1  0
 20 21  1  6
 20 22  1  0
 22 23  2  0
 22 24  1  0
M  END
$$$$
