DMT.pdb
     RDKit          3D

 24 23  0  0  1  0  0  0  0  0999 V2000
    9.8442  -16.1440   19.8172 N   0  0  0  0  0  0  0  0  0  0  0  0
    8.8761  -16.5459   20.7884 C   0  0  1  0  0  0  0  0  0  0  0  0
    8.7112  -18.0408   20.8160 C   0  0  0  0  0  0  0  0  0  0  0  0
    8.0835  -18.4505   19.5328 C   0  0  0  0  0  0  0  0  0  0  0  0
    8.6872  -19.1712   18.6856 O   0  0  0  0  0  0  0  0  0  0  0  0
    9.2634  -16.0305   22.1414 C   0  0  0  0  0  0  0  0  0  0  0  0
   10.4696  -16.0367   22.4832 O   0  0  0  0  0  0  0  0  0  0  0  0
    6.7936  -18.0504   19.2150 O   0  0  0  0  0  0  0  0  0  0  0  0
    6.5559  -11.7707   28.1989 C   0  0  0  0  0  0  0  0  0  0  0  0
    6.3036  -12.4039   26.4993 S   0  0  0  0  0  0  0  0  0  0  0  0
    7.6524  -13.5375   26.1371 C   0  0  0  0  0  0  0  0  0  0  0  0
    7.6207  -14.0800   24.7574 C   0  0  0  0  0  0  0  0  0  0  0  0
    8.7370  -14.9854   24.3563 C   0  0  2  0  0  0  0  0  0  0  0  0
    8.3121  -15.5380   23.0434 N   0  0  0  0  0  0  0  0  0  0  0  0
    8.8967  -16.1167   25.2917 C   0  0  0  0  0  0  0  0  0  0  0  0
    7.8896  -16.8651   25.5026 O   0  0  0  0  0  0  0  0  0  0  0  0
   10.5894  -19.2121   25.0383 C   0  0  0  0  0  0  0  0  0  0  0  0
   11.0686  -18.6563   26.3587 C   0  0  1  0  0  0  0  0  0  0  0  0
   12.3097  -18.0218   26.1799 O   0  0  0  0  0  0  0  0  0  0  0  0
   10.1297  -17.6053   26.9062 C   0  0  2  0  0  0  0  0  0  0  0  0
   10.0662  -16.4610   25.9838 N   0  0  0  0  0  0  0  0  0  0  0  0
   10.4911  -17.1767   28.2623 C   0  0  0  0  0  0  0  0  0  0  0  0
   10.8333  -16.0047   28.5537 O   0  0  0  0  0  0  0  0  0  0  0  0
   10.4580  -18.1050   29.2896 O   0  0  0  0  0  0  0  0  0  0  0  0
  2  1  1  6
  2  3  1  0
  3  4  1  0
  4  8  1  0
  5  4  2  0
  6  7  2  0
  6  2  1  0
  9 10  1  0
 10 11  1  0
 11 12  1  0
 13 12  1  1
 13 14  1  0
 14  6  1  0
 15 13  1  0
 15 21  1  0
 16 15  2  0
 18 17  1  6
 18 20  1  0
 19 18  1  0
 20 21  1  6
 20 22  1  0
 22 23  2  0
 22 24  1  0
M  END
$$$$
