NCQ.pdb
     RDKit          3D

 24 23  0  0  1  0  0  0  0  0999 V2000
   24.5243  -16.8232  -19.6478 N   0  0  0  0  0  0  0  0  0  0  0  0
   23.4164  -16.7079  -18.7698 C   0  0  0  0  0  0  0  0  0  0  0  0
   22.5207  -17.5858  -18.7935 O   0  0  0  0  0  0  0  0  0  0  0  0
   23.3451  -15.5520  -17.8461 C   0  0  0  0  0  0  0  0  0  0  0  0
   24.5447  -14.6522  -18.0844 C   0  0  2  0  0  0  0  0  0  0  0  0
   25.7261  -15.4151  -17.7962 N   0  0  0  0  0  0  0  0  0  0  0  0
   24.4881  -13.4366  -17.2410 C   0  0  0  0  0  0  0  0  0  0  0  0
   23.5510  -13.2857  -16.4083 O   0  0  0  0  0  0  0  0  0  0  0  0
   25.4476  -12.3888  -17.3033 N   0  0  0  0  0  0  0  0  0  0  0  0
   25.4068  -11.2196  -16.4786 C   0  0  1  0  0  0  0  0  0  0  0  0
   26.7701  -10.6374  -16.1908 C   0  0  0  0  0  0  0  0  0  0  0  0
   27.7550  -11.7136  -15.1157 S   0  0  0  0  0  0  0  0  0  0  0  0
   24.5986  -10.1226  -17.0954 C   0  0  0  0  0  0  0  0  0  0  0  0
   24.8448   -9.7731  -18.2785 O   0  0  0  0  0  0  0  0  0  0  0  0
   18.4968   -9.4422  -16.3018 N   0  0  0  0  0  0  0  0  0  0  0  0
   18.8718   -8.1976  -16.8571 C   0  0  0  0  0  0  0  0  0  0  0  0
   17.9320   -7.3876  -17.1516 O   0  0  0  0  0  0  0  0  0  0  0  0
   20.2746   -7.8071  -17.0967 C   0  0  0  0  0  0  0  0  0  0  0  0
   21.3069   -8.7923  -16.7165 C   0  0  0  0  0  0  0  0  0  0  0  0
   22.7206   -8.4244  -16.9836 C   0  0  2  0  0  0  0  0  0  0  0  0
   23.5736   -9.4723  -16.3919 N   0  0  0  0  0  0  0  0  0  0  0  0
   23.2235   -7.1358  -16.5560 C   0  0  0  0  0  0  0  0  0  0  0  0
   22.9486   -6.0794  -17.1941 O   0  0  0  0  0  0  0  0  0  0  0  0
   24.0182   -6.9719  -15.4358 O   0  0  0  0  0  0  0  0  0  0  0  0
  2  1  1  0
  2  4  1  0
  3  2  2  0
  4  5  1  0
  5  7  1  0
  5  6  1  1
  7  8  2  0
  9  7  1  0
  9 10  1  0
 10 13  1  0
 11 12  1  0
 10 11  1  6
 13 21  1  0
 14 13  2  0
 16 15  1  0
 17 16  2  0
 18 16  1  0
 19 18  1  0
 20 19  1  1
 21 20  1  0
 22 20  1  0
 22 24  1  0
 23 22  2  0
M  END
$$$$
