NCQ.pdb
     RDKit          3D

 24 23  0  0  1  0  0  0  0  0999 V2000
   19.3465  -23.2146  -14.0664 N   0  0  0  0  0  0  0  0  0  0  0  0
   18.3729  -22.2172  -13.8037 C   0  0  0  0  0  0  0  0  0  0  0  0
   17.1586  -22.5316  -13.7974 O   0  0  0  0  0  0  0  0  0  0  0  0
   18.8156  -20.8278  -13.5432 C   0  0  0  0  0  0  0  0  0  0  0  0
   20.3288  -20.7617  -13.6485 C   0  0  2  0  0  0  0  0  0  0  0  0
   20.8726  -21.1953  -12.3926 N   0  0  0  0  0  0  0  0  0  0  0  0
   20.7915  -19.3934  -13.9745 C   0  0  0  0  0  0  0  0  0  0  0  0
   20.6172  -18.4522  -13.1512 O   0  0  0  0  0  0  0  0  0  0  0  0
   21.4415  -19.0504  -15.1920 N   0  0  0  0  0  0  0  0  0  0  0  0
   21.8663  -17.7244  -15.5235 C   0  0  1  0  0  0  0  0  0  0  0  0
   23.1070  -17.6865  -16.3836 C   0  0  0  0  0  0  0  0  0  0  0  0
   24.5250  -18.4627  -15.5647 S   0  0  0  0  0  0  0  0  0  0  0  0
   20.8130  -16.9638  -16.2646 C   0  0  0  0  0  0  0  0  0  0  0  0
   20.1293  -17.5586  -17.1371 O   0  0  0  0  0  0  0  0  0  0  0  0
   17.9684  -11.8502  -13.8145 N   0  0  0  0  0  0  0  0  0  0  0  0
   17.4426  -11.9512  -15.1227 C   0  0  0  0  0  0  0  0  0  0  0  0
   16.5621  -11.0932  -15.4613 O   0  0  0  0  0  0  0  0  0  0  0  0
   17.8683  -12.9816  -16.0895 C   0  0  0  0  0  0  0  0  0  0  0  0
   18.9262  -13.9091  -15.6409 C   0  0  0  0  0  0  0  0  0  0  0  0
   19.4736  -14.8476  -16.6532 C   0  0  2  0  0  0  0  0  0  0  0  0
   20.5658  -15.6056  -16.0142 N   0  0  0  0  0  0  0  0  0  0  0  0
   19.9554  -14.3403  -17.9208 C   0  0  0  0  0  0  0  0  0  0  0  0
   21.1807  -14.0871  -18.1033 O   0  0  0  0  0  0  0  0  0  0  0  0
   19.1261  -14.1093  -19.0034 O   0  0  0  0  0  0  0  0  0  0  0  0
  2  1  1  0
  2  4  1  0
  3  2  2  0
  4  5  1  0
  5  7  1  0
  5  6  1  1
  7  8  2  0
  9  7  1  0
  9 10  1  0
 10 13  1  0
 11 12  1  0
 10 11  1  6
 13 21  1  0
 14 13  2  0
 16 15  1  0
 17 16  2  0
 18 16  1  0
 19 18  1  0
 20 19  1  1
 21 20  1  0
 22 20  1  0
 22 24  1  0
 23 22  2  0
M  END
$$$$
