NCQ.pdb
     RDKit          3D

 24 23  0  0  1  0  0  0  0  0999 V2000
   28.9135  -20.3339  -17.2669 N   0  0  0  0  0  0  0  0  0  0  0  0
   28.3436  -21.6170  -17.4684 C   0  0  0  0  0  0  0  0  0  0  0  0
   28.7460  -22.3241  -18.4231 O   0  0  0  0  0  0  0  0  0  0  0  0
   27.2863  -22.0899  -16.5449 C   0  0  0  0  0  0  0  0  0  0  0  0
   27.0147  -21.0132  -15.5093 C   0  0  2  0  0  0  0  0  0  0  0  0
   28.2816  -20.4960  -15.0755 N   0  0  0  0  0  0  0  0  0  0  0  0
   26.2459  -21.5453  -14.3612 C   0  0  0  0  0  0  0  0  0  0  0  0
   25.4318  -22.4957  -14.5291 O   0  0  0  0  0  0  0  0  0  0  0  0
   26.3624  -21.0453  -13.0350 N   0  0  0  0  0  0  0  0  0  0  0  0
   25.3490  -21.1922  -12.0350 C   0  0  1  0  0  0  0  0  0  0  0  0
   25.7757  -20.7100  -10.6691 C   0  0  0  0  0  0  0  0  0  0  0  0
   24.4751  -20.9444   -9.4292 S   0  0  0  0  0  0  0  0  0  0  0  0
   24.1031  -20.4401  -12.3803 C   0  0  0  0  0  0  0  0  0  0  0  0
   24.1968  -19.3697  -13.0346 O   0  0  0  0  0  0  0  0  0  0  0  0
   21.6959  -20.7444  -16.9376 N   0  0  0  0  0  0  0  0  0  0  0  0
   20.5284  -20.3101  -16.2695 C   0  0  0  0  0  0  0  0  0  0  0  0
   19.5048  -20.0670  -16.9900 O   0  0  0  0  0  0  0  0  0  0  0  0
   20.4491  -20.1382  -14.8060 C   0  0  0  0  0  0  0  0  0  0  0  0
   21.6611  -20.4820  -14.0355 C   0  0  0  0  0  0  0  0  0  0  0  0
   21.5760  -20.3652  -12.5575 C   0  0  2  0  0  0  0  0  0  0  0  0
   22.8328  -20.8945  -11.9952 N   0  0  0  0  0  0  0  0  0  0  0  0
   20.4704  -20.9746  -11.8486 C   0  0  0  0  0  0  0  0  0  0  0  0
   20.4789  -22.2035  -11.5514 O   0  0  0  0  0  0  0  0  0  0  0  0
   19.3522  -20.2666  -11.4466 O   0  0  0  0  0  0  0  0  0  0  0  0
  2  1  1  0
  2  4  1  0
  3  2  2  0
  4  5  1  0
  5  7  1  0
  5  6  1  1
  7  8  2  0
  9  7  1  0
  9 10  1  0
 10 13  1  0
 11 12  1  0
 10 11  1  1
 13 21  1  0
 14 13  2  0
 16 15  1  0
 17 16  2  0
 18 16  1  0
 19 18  1  0
 20 19  1  6
 21 20  1  0
 22 20  1  0
 22 24  1  0
 23 22  2  0
M  END
$$$$
