NCQ.pdb
     RDKit          3D

 24 23  0  0  1  0  0  0  0  0999 V2000
   24.5002  -24.3986  -12.9159 N   0  0  0  0  0  0  0  0  0  0  0  0
   23.3536  -23.5639  -12.9202 C   0  0  0  0  0  0  0  0  0  0  0  0
   22.2171  -24.0819  -12.8043 O   0  0  0  0  0  0  0  0  0  0  0  0
   23.5276  -22.0996  -13.0615 C   0  0  0  0  0  0  0  0  0  0  0  0
   25.0089  -21.7848  -13.1716 C   0  0  2  0  0  0  0  0  0  0  0  0
   25.5532  -21.7784  -11.8433 N   0  0  0  0  0  0  0  0  0  0  0  0
   25.2395  -20.4828  -13.8379 C   0  0  0  0  0  0  0  0  0  0  0  0
   24.7704  -19.4227  -13.3377 O   0  0  0  0  0  0  0  0  0  0  0  0
   25.9780  -20.3347  -15.0442 N   0  0  0  0  0  0  0  0  0  0  0  0
   26.1971  -19.0796  -15.6965 C   0  0  1  0  0  0  0  0  0  0  0  0
   27.4667  -19.0384  -16.5130 C   0  0  0  0  0  0  0  0  0  0  0  0
   27.7001  -17.4353  -17.3251 S   0  0  0  0  0  0  0  0  0  0  0  0
   25.0817  -18.7265  -16.6284 C   0  0  0  0  0  0  0  0  0  0  0  0
   24.4539  -19.6498  -17.2079 O   0  0  0  0  0  0  0  0  0  0  0  0
   20.2944  -19.5033  -16.0338 N   0  0  0  0  0  0  0  0  0  0  0  0
   19.9604  -18.2107  -16.4980 C   0  0  0  0  0  0  0  0  0  0  0  0
   18.7248  -17.9689  -16.7005 O   0  0  0  0  0  0  0  0  0  0  0  0
   20.9613  -17.1547  -16.7444 C   0  0  0  0  0  0  0  0  0  0  0  0
   22.3673  -17.4981  -16.4509 C   0  0  0  0  0  0  0  0  0  0  0  0
   23.3952  -16.9989  -17.3993 C   0  0  2  0  0  0  0  0  0  0  0  0
   24.7158  -17.3946  -16.8746 N   0  0  0  0  0  0  0  0  0  0  0  0
   23.4441  -15.5912  -17.7343 C   0  0  0  0  0  0  0  0  0  0  0  0
   24.3285  -14.8307  -17.2461 O   0  0  0  0  0  0  0  0  0  0  0  0
   22.5488  -14.9924  -18.6022 O   0  0  0  0  0  0  0  0  0  0  0  0
  2  1  1  0
  2  4  1  0
  3  2  2  0
  4  5  1  0
  5  7  1  0
  5  6  1  1
  7  8  2  0
  9  7  1  0
  9 10  1  0
 10 13  1  0
 11 12  1  0
 10 11  1  6
 13 21  1  0
 14 13  2  0
 16 15  1  0
 17 16  2  0
 18 16  1  0
 19 18  1  0
 20 19  1  1
 21 20  1  0
 22 20  1  0
 22 24  1  0
 23 22  2  0
M  END
$$$$
