NCQ.pdb
     RDKit          3D

 24 23  0  0  1  0  0  0  0  0999 V2000
   18.1724  -16.2384  -15.8748 N   0  0  0  0  0  0  0  0  0  0  0  0
   19.4107  -16.0503  -15.2093 C   0  0  0  0  0  0  0  0  0  0  0  0
   19.8304  -16.9400  -14.4311 O   0  0  0  0  0  0  0  0  0  0  0  0
   20.1779  -14.8063  -15.4508 C   0  0  0  0  0  0  0  0  0  0  0  0
   19.4595  -13.9767  -16.5001 C   0  0  2  0  0  0  0  0  0  0  0  0
   19.8024  -14.5104  -17.7878 N   0  0  0  0  0  0  0  0  0  0  0  0
   19.8321  -12.5464  -16.4104 C   0  0  0  0  0  0  0  0  0  0  0  0
   21.0156  -12.2166  -16.1194 O   0  0  0  0  0  0  0  0  0  0  0  0
   18.9202  -11.4788  -16.6364 N   0  0  0  0  0  0  0  0  0  0  0  0
   19.3013  -10.0998  -16.6803 C   0  0  1  0  0  0  0  0  0  0  0  0
   20.1916   -9.7575  -17.8509 C   0  0  0  0  0  0  0  0  0  0  0  0
   20.6534   -8.0052  -17.8634 S   0  0  0  0  0  0  0  0  0  0  0  0
   18.1171   -9.1903  -16.7676 C   0  0  0  0  0  0  0  0  0  0  0  0
   17.2159   -9.4393  -17.6092 O   0  0  0  0  0  0  0  0  0  0  0  0
   13.7502   -9.9170  -13.8555 N   0  0  0  0  0  0  0  0  0  0  0  0
   13.4682   -8.5595  -14.1310 C   0  0  0  0  0  0  0  0  0  0  0  0
   12.3255   -8.1208  -13.7736 O   0  0  0  0  0  0  0  0  0  0  0  0
   14.4247   -7.6518  -14.7936 C   0  0  0  0  0  0  0  0  0  0  0  0
   15.7180   -8.2386  -15.1980 C   0  0  0  0  0  0  0  0  0  0  0  0
   16.7227   -7.3159  -15.7850 C   0  0  2  0  0  0  0  0  0  0  0  0
   17.9829   -8.0672  -15.9374 N   0  0  0  0  0  0  0  0  0  0  0  0
   17.0202   -6.0609  -15.1273 C   0  0  0  0  0  0  0  0  0  0  0  0
   18.0752   -5.9105  -14.4468 O   0  0  0  0  0  0  0  0  0  0  0  0
   16.1909   -4.9564  -15.2028 O   0  0  0  0  0  0  0  0  0  0  0  0
  2  1  1  0
  2  4  1  0
  3  2  2  0
  4  5  1  0
  5  7  1  0
  5  6  1  6
  7  8  2  0
  9  7  1  0
  9 10  1  0
 10 13  1  0
 11 12  1  0
 10 11  1  6
 13 21  1  0
 14 13  2  0
 16 15  1  0
 17 16  2  0
 18 16  1  0
 19 18  1  0
 20 19  1  1
 21 20  1  0
 22 20  1  0
 22 24  1  0
 23 22  2  0
M  END
$$$$
