NCQ.pdb
     RDKit          3D

 24 23  0  0  1  0  0  0  0  0999 V2000
   29.1314  -19.8868  -17.0469 N   0  0  0  0  0  0  0  0  0  0  0  0
   27.7830  -19.4637  -17.1666 C   0  0  0  0  0  0  0  0  0  0  0  0
   27.4944  -18.5583  -17.9854 O   0  0  0  0  0  0  0  0  0  0  0  0
   26.7485  -20.1026  -16.3203 C   0  0  0  0  0  0  0  0  0  0  0  0
   27.4058  -21.1514  -15.4409 C   0  0  2  0  0  0  0  0  0  0  0  0
   27.7124  -22.2840  -16.2680 N   0  0  0  0  0  0  0  0  0  0  0  0
   26.5264  -21.5468  -14.3172 C   0  0  0  0  0  0  0  0  0  0  0  0
   25.7611  -22.5445  -14.4318 O   0  0  0  0  0  0  0  0  0  0  0  0
   26.4798  -20.8593  -13.0732 N   0  0  0  0  0  0  0  0  0  0  0  0
   25.5132  -21.1236  -12.0512 C   0  0  1  0  0  0  0  0  0  0  0  0
   25.8483  -20.4841  -10.7249 C   0  0  0  0  0  0  0  0  0  0  0  0
   24.8002  -21.1096   -9.3854 S   0  0  0  0  0  0  0  0  0  0  0  0
   24.1497  -20.6356  -12.4252 C   0  0  0  0  0  0  0  0  0  0  0  0
   24.0076  -19.4411  -12.7931 O   0  0  0  0  0  0  0  0  0  0  0  0
   19.8191  -24.0773  -15.3260 N   0  0  0  0  0  0  0  0  0  0  0  0
   19.0834  -22.9631  -14.8618 C   0  0  0  0  0  0  0  0  0  0  0  0
   17.8540  -22.9009  -15.1946 O   0  0  0  0  0  0  0  0  0  0  0  0
   19.6676  -21.8995  -14.0222 C   0  0  0  0  0  0  0  0  0  0  0  0
   21.0813  -22.0706  -13.6309 C   0  0  0  0  0  0  0  0  0  0  0  0
   21.6671  -21.0301  -12.7481 C   0  0  2  0  0  0  0  0  0  0  0  0
   23.0246  -21.4724  -12.3773 N   0  0  0  0  0  0  0  0  0  0  0  0
   20.9734  -20.6354  -11.5401 C   0  0  0  0  0  0  0  0  0  0  0  0
   21.2049  -21.2040  -10.4348 O   0  0  0  0  0  0  0  0  0  0  0  0
   20.0326  -19.6218  -11.5093 O   0  0  0  0  0  0  0  0  0  0  0  0
  2  1  1  0
  2  4  1  0
  3  2  2  0
  4  5  1  0
  5  7  1  0
  5  6  1  6
  7  8  2  0
  9  7  1  0
  9 10  1  0
 10 13  1  0
 11 12  1  0
 10 11  1  1
 13 21  1  0
 14 13  2  0
 16 15  1  0
 17 16  2  0
 18 16  1  0
 19 18  1  0
 20 19  1  1
 21 20  1  0
 22 20  1  0
 22 24  1  0
 23 22  2  0
M  END
$$$$
