NCQ.pdb
     RDKit          3D

 24 23  0  0  1  0  0  0  0  0999 V2000
   16.0221  -13.6562  -15.3674 N   0  0  0  0  0  0  0  0  0  0  0  0
   17.1839  -14.0615  -14.6619 C   0  0  0  0  0  0  0  0  0  0  0  0
   17.3009  -15.2595  -14.3093 O   0  0  0  0  0  0  0  0  0  0  0  0
   18.2308  -13.0582  -14.3590 C   0  0  0  0  0  0  0  0  0  0  0  0
   17.7868  -11.7045  -14.8842 C   0  0  2  0  0  0  0  0  0  0  0  0
   18.4296  -11.4960  -16.1507 N   0  0  0  0  0  0  0  0  0  0  0  0
   18.1275  -10.6167  -13.9391 C   0  0  0  0  0  0  0  0  0  0  0  0
   17.7262  -10.6672  -12.7431 O   0  0  0  0  0  0  0  0  0  0  0  0
   18.9021   -9.4781  -14.2941 N   0  0  0  0  0  0  0  0  0  0  0  0
   19.2153   -8.4130  -13.3907 C   0  0  1  0  0  0  0  0  0  0  0  0
   20.2942   -7.4878  -13.9007 C   0  0  0  0  0  0  0  0  0  0  0  0
   20.7141   -6.2033  -12.6933 S   0  0  0  0  0  0  0  0  0  0  0  0
   18.0256   -7.5557  -13.0960 C   0  0  0  0  0  0  0  0  0  0  0  0
   17.2751   -7.2052  -14.0429 O   0  0  0  0  0  0  0  0  0  0  0  0
   15.2920   -7.4337   -7.3482 N   0  0  0  0  0  0  0  0  0  0  0  0
   14.5465   -6.5142   -8.1207 C   0  0  0  0  0  0  0  0  0  0  0  0
   13.5131   -6.0031   -7.5756 O   0  0  0  0  0  0  0  0  0  0  0  0
   14.9134   -6.1276   -9.4968 C   0  0  0  0  0  0  0  0  0  0  0  0
   16.1326   -6.7482  -10.0527 C   0  0  0  0  0  0  0  0  0  0  0  0
   16.4977   -6.3869  -11.4460 C   0  0  2  0  0  0  0  0  0  0  0  0
   17.7228   -7.1313  -11.7934 N   0  0  0  0  0  0  0  0  0  0  0  0
   16.6953   -4.9976  -11.8024 C   0  0  0  0  0  0  0  0  0  0  0  0
   17.8433   -4.4686  -11.7696 O   0  0  0  0  0  0  0  0  0  0  0  0
   15.6630   -4.1693  -12.2044 O   0  0  0  0  0  0  0  0  0  0  0  0
  2  1  1  0
  2  4  1  0
  3  2  2  0
  4  5  1  0
  5  7  1  0
  5  6  1  6
  7  8  2  0
  9  7  1  0
  9 10  1  0
 10 13  1  0
 11 12  1  0
 10 11  1  6
 13 21  1  0
 14 13  2  0
 16 15  1  0
 17 16  2  0
 18 16  1  0
 19 18  1  0
 20 19  1  1
 21 20  1  0
 22 20  1  0
 22 24  1  0
 23 22  2  0
M  END
$$$$
