NCQ.pdb
     RDKit          3D

 24 23  0  0  1  0  0  0  0  0999 V2000
   15.0320  -13.6661  -11.7067 N   0  0  0  0  0  0  0  0  0  0  0  0
   15.9113  -12.9463  -12.5555 C   0  0  0  0  0  0  0  0  0  0  0  0
   16.6813  -13.5775  -13.3185 O   0  0  0  0  0  0  0  0  0  0  0  0
   15.8977  -11.4654  -12.5194 C   0  0  0  0  0  0  0  0  0  0  0  0
   14.8566  -11.0036  -11.5153 C   0  0  2  0  0  0  0  0  0  0  0  0
   13.5621  -11.2701  -12.0756 N   0  0  0  0  0  0  0  0  0  0  0  0
   15.0050   -9.5641  -11.2020 C   0  0  0  0  0  0  0  0  0  0  0  0
   14.7012   -8.6930  -12.0640 O   0  0  0  0  0  0  0  0  0  0  0  0
   15.4822   -9.0739   -9.9552 N   0  0  0  0  0  0  0  0  0  0  0  0
   15.5985   -7.6835   -9.6363 C   0  0  1  0  0  0  0  0  0  0  0  0
   15.3821   -7.3806   -8.1728 C   0  0  0  0  0  0  0  0  0  0  0  0
   15.7492   -5.6510   -7.7757 S   0  0  0  0  0  0  0  0  0  0  0  0
   16.9449   -7.1352   -9.9885 C   0  0  0  0  0  0  0  0  0  0  0  0
   17.9732   -7.7056   -9.5416 O   0  0  0  0  0  0  0  0  0  0  0  0
   20.0953   -8.8112  -13.7757 N   0  0  0  0  0  0  0  0  0  0  0  0
   20.7567   -7.5692  -13.6410 C   0  0  0  0  0  0  0  0  0  0  0  0
   21.8815   -7.4449  -14.2286 O   0  0  0  0  0  0  0  0  0  0  0  0
   20.2055   -6.4372  -12.8713 C   0  0  0  0  0  0  0  0  0  0  0  0
   18.9693   -6.6997  -12.1073 C   0  0  0  0  0  0  0  0  0  0  0  0
   18.3897   -5.5607  -11.3510 C   0  0  2  0  0  0  0  0  0  0  0  0
   17.0934   -6.0026  -10.8031 N   0  0  0  0  0  0  0  0  0  0  0  0
   18.1930   -4.2850  -12.0071 C   0  0  0  0  0  0  0  0  0  0  0  0
   17.0702   -3.9618  -12.4904 O   0  0  0  0  0  0  0  0  0  0  0  0
   19.1985   -3.3446  -12.1412 O   0  0  0  0  0  0  0  0  0  0  0  0
  2  1  1  0
  2  4  1  0
  3  2  2  0
  4  5  1  0
  5  7  1  0
  5  6  1  6
  7  8  2  0
  9  7  1  0
  9 10  1  0
 10 13  1  0
 11 12  1  0
 10 11  1  1
 13 21  1  0
 14 13  2  0
 16 15  1  0
 17 16  2  0
 18 16  1  0
 19 18  1  0
 20 19  1  6
 21 20  1  0
 22 20  1  0
 22 24  1  0
 23 22  2  0
M  END
$$$$
