NCQ.pdb
     RDKit          3D

 24 23  0  0  1  0  0  0  0  0999 V2000
   13.1557  -15.1423  -15.0421 N   0  0  0  0  0  0  0  0  0  0  0  0
   13.6821  -15.2720  -13.7315 C   0  0  0  0  0  0  0  0  0  0  0  0
   13.0360  -15.9178  -12.8719 O   0  0  0  0  0  0  0  0  0  0  0  0
   14.9832  -14.6406  -13.4108 C   0  0  0  0  0  0  0  0  0  0  0  0
   15.5167  -13.9469  -14.6516 C   0  0  2  0  0  0  0  0  0  0  0  0
   16.1075  -14.9498  -15.4918 N   0  0  0  0  0  0  0  0  0  0  0  0
   16.5085  -12.9030  -14.3063 C   0  0  0  0  0  0  0  0  0  0  0  0
   17.7277  -13.2048  -14.1770 O   0  0  0  0  0  0  0  0  0  0  0  0
   16.1750  -11.5357  -14.1025 N   0  0  0  0  0  0  0  0  0  0  0  0
   17.1421  -10.5003  -13.8993 C   0  0  1  0  0  0  0  0  0  0  0  0
   18.0465  -10.2787  -15.0881 C   0  0  0  0  0  0  0  0  0  0  0  0
   17.1895  -10.5724  -16.6575 S   0  0  0  0  0  0  0  0  0  0  0  0
   16.5020   -9.1816  -13.6015 C   0  0  0  0  0  0  0  0  0  0  0  0
   15.4488   -8.8619  -14.2108 O   0  0  0  0  0  0  0  0  0  0  0  0
   15.3791   -7.4272   -7.9449 N   0  0  0  0  0  0  0  0  0  0  0  0
   15.0653   -6.2571   -8.6732 C   0  0  0  0  0  0  0  0  0  0  0  0
   14.5142   -5.3041   -8.0296 O   0  0  0  0  0  0  0  0  0  0  0  0
   15.3504   -6.0978  -10.1123 C   0  0  0  0  0  0  0  0  0  0  0  0
   16.0271   -7.2284  -10.7791 C   0  0  0  0  0  0  0  0  0  0  0  0
   16.3563   -7.0634  -12.2177 C   0  0  2  0  0  0  0  0  0  0  0  0
   17.0428   -8.2911  -12.6618 N   0  0  0  0  0  0  0  0  0  0  0  0
   17.1379   -5.9248  -12.6525 C   0  0  0  0  0  0  0  0  0  0  0  0
   18.3998   -5.9791  -12.7117 O   0  0  0  0  0  0  0  0  0  0  0  0
   16.5693   -4.7232  -13.0347 O   0  0  0  0  0  0  0  0  0  0  0  0
  2  1  1  0
  2  4  1  0
  3  2  2  0
  4  5  1  0
  5  7  1  0
  5  6  1  6
  7  8  2  0
  9  7  1  0
  9 10  1  0
 10 13  1  0
 11 12  1  0
 10 11  1  6
 13 21  1  0
 14 13  2  0
 16 15  1  0
 17 16  2  0
 18 16  1  0
 19 18  1  0
 20 19  1  1
 21 20  1  0
 22 20  1  0
 22 24  1  0
 23 22  2  0
M  END
$$$$
