NCQ.pdb
     RDKit          3D

 24 23  0  0  1  0  0  0  0  0999 V2000
   19.4320  -15.5736  -16.2134 N   0  0  0  0  0  0  0  0  0  0  0  0
   19.7069  -14.2889  -16.7479 C   0  0  0  0  0  0  0  0  0  0  0  0
   19.2455  -13.9807  -17.8728 O   0  0  0  0  0  0  0  0  0  0  0  0
   20.5331  -13.3425  -15.9629 C   0  0  0  0  0  0  0  0  0  0  0  0
   21.2390  -12.3933  -16.9147 C   0  0  2  0  0  0  0  0  0  0  0  0
   22.1650  -13.1656  -17.6938 N   0  0  0  0  0  0  0  0  0  0  0  0
   21.9425  -11.3146  -16.1838 C   0  0  0  0  0  0  0  0  0  0  0  0
   21.3433  -10.6642  -15.2826 O   0  0  0  0  0  0  0  0  0  0  0  0
   23.2930  -10.9449  -16.4326 N   0  0  0  0  0  0  0  0  0  0  0  0
   23.9281   -9.8030  -15.8484 C   0  0  1  0  0  0  0  0  0  0  0  0
   25.4285   -9.7950  -16.0186 C   0  0  0  0  0  0  0  0  0  0  0  0
   26.2156  -11.1896  -15.1704 S   0  0  0  0  0  0  0  0  0  0  0  0
   23.4281   -8.5198  -16.4321 C   0  0  0  0  0  0  0  0  0  0  0  0
   23.2126   -8.4542  -17.6698 O   0  0  0  0  0  0  0  0  0  0  0  0
   18.5224   -7.4041  -17.6292 N   0  0  0  0  0  0  0  0  0  0  0  0
   18.8385   -6.0450  -17.4038 C   0  0  0  0  0  0  0  0  0  0  0  0
   17.9148   -5.1921  -17.6172 O   0  0  0  0  0  0  0  0  0  0  0  0
   20.1613   -5.5877  -16.9361 C   0  0  0  0  0  0  0  0  0  0  0  0
   21.1506   -6.6395  -16.6270 C   0  0  0  0  0  0  0  0  0  0  0  0
   22.4732   -6.1930  -16.1204 C   0  0  2  0  0  0  0  0  0  0  0  0
   23.1925   -7.3871  -15.6384 N   0  0  0  0  0  0  0  0  0  0  0  0
   22.5457   -5.1751  -15.0933 C   0  0  0  0  0  0  0  0  0  0  0  0
   22.3920   -3.9510  -15.3704 O   0  0  0  0  0  0  0  0  0  0  0  0
   22.7755   -5.4655  -13.7606 O   0  0  0  0  0  0  0  0  0  0  0  0
  2  1  1  0
  2  4  1  0
  3  2  2  0
  4  5  1  0
  5  7  1  0
  5  6  1  1
  7  8  2  0
  9  7  1  0
  9 10  1  0
 10 13  1  0
 11 12  1  0
 10 11  1  6
 13 21  1  0
 14 13  2  0
 16 15  1  0
 17 16  2  0
 18 16  1  0
 19 18  1  0
 20 19  1  1
 21 20  1  0
 22 20  1  0
 22 24  1  0
 23 22  2  0
M  END
$$$$
