NCQ.pdb
     RDKit          3D

 24 23  0  0  1  0  0  0  0  0999 V2000
   12.0686   -5.5812   -6.3113 N   0  0  0  0  0  0  0  0  0  0  0  0
   13.4612   -5.3291   -6.2165 C   0  0  0  0  0  0  0  0  0  0  0  0
   13.8693   -4.4157   -5.4600 O   0  0  0  0  0  0  0  0  0  0  0  0
   14.3993   -6.1523   -7.0145 C   0  0  0  0  0  0  0  0  0  0  0  0
   13.6119   -7.2045   -7.7749 C   0  0  2  0  0  0  0  0  0  0  0  0
   13.1512   -8.1762   -6.8239 N   0  0  0  0  0  0  0  0  0  0  0  0
   14.4365   -7.8481   -8.8229 C   0  0  0  0  0  0  0  0  0  0  0  0
   15.4636   -8.5097   -8.5042 O   0  0  0  0  0  0  0  0  0  0  0  0
   14.1446   -7.7722  -10.2127 N   0  0  0  0  0  0  0  0  0  0  0  0
   14.8780   -8.4746  -11.2214 C   0  0  1  0  0  0  0  0  0  0  0  0
   14.1843   -9.7233  -11.7113 C   0  0  0  0  0  0  0  0  0  0  0  0
   13.9011  -10.9122  -10.3732 S   0  0  0  0  0  0  0  0  0  0  0  0
   15.1292   -7.6276  -12.4283 C   0  0  0  0  0  0  0  0  0  0  0  0
   14.3054   -6.7237  -12.7229 O   0  0  0  0  0  0  0  0  0  0  0  0
   16.6741   -2.7659  -12.9069 N   0  0  0  0  0  0  0  0  0  0  0  0
   17.1109   -3.0951  -14.2103 C   0  0  0  0  0  0  0  0  0  0  0  0
   17.5485   -2.1402  -14.9334 O   0  0  0  0  0  0  0  0  0  0  0  0
   17.0868   -4.4683  -14.7500 C   0  0  0  0  0  0  0  0  0  0  0  0
   16.6083   -5.5265  -13.8379 C   0  0  0  0  0  0  0  0  0  0  0  0
   16.6088   -6.9169  -14.3593 C   0  0  2  0  0  0  0  0  0  0  0  0
   16.2576   -7.8127  -13.2413 N   0  0  0  0  0  0  0  0  0  0  0  0
   17.7916   -7.4435  -15.0074 C   0  0  0  0  0  0  0  0  0  0  0  0
   18.5299   -8.2951  -14.4342 O   0  0  0  0  0  0  0  0  0  0  0  0
   18.1849   -7.0655  -16.2785 O   0  0  0  0  0  0  0  0  0  0  0  0
  2  1  1  0
  2  4  1  0
  3  2  2  0
  4  5  1  0
  5  7  1  0
  5  6  1  1
  7  8  2  0
  9  7  1  0
  9 10  1  0
 10 13  1  0
 11 12  1  0
 10 11  1  6
 13 21  1  0
 14 13  2  0
 16 15  1  0
 17 16  2  0
 18 16  1  0
 19 18  1  0
 20 19  1  1
 21 20  1  0
 22 20  1  0
 22 24  1  0
 23 22  2  0
M  END
$$$$
