NCQ.pdb
     RDKit          3D

 24 23  0  0  1  0  0  0  0  0999 V2000
   27.9829  -23.6610  -16.6791 N   0  0  0  0  0  0  0  0  0  0  0  0
   28.5243  -22.3979  -16.3280 C   0  0  0  0  0  0  0  0  0  0  0  0
   29.7614  -22.2880  -16.1525 O   0  0  0  0  0  0  0  0  0  0  0  0
   27.6137  -21.2393  -16.1775 C   0  0  0  0  0  0  0  0  0  0  0  0
   26.1772  -21.7294  -16.2165 C   0  0  2  0  0  0  0  0  0  0  0  0
   25.9169  -22.2118  -17.5433 N   0  0  0  0  0  0  0  0  0  0  0  0
   25.2261  -20.6537  -15.8550 C   0  0  0  0  0  0  0  0  0  0  0  0
   25.2860  -20.1106  -14.7168 O   0  0  0  0  0  0  0  0  0  0  0  0
   24.2133  -20.1707  -16.7287 N   0  0  0  0  0  0  0  0  0  0  0  0
   23.2107  -19.2250  -16.3424 C   0  0  1  0  0  0  0  0  0  0  0  0
   22.8505  -18.2480  -17.4360 C   0  0  0  0  0  0  0  0  0  0  0  0
   24.3109  -17.4105  -18.1066 S   0  0  0  0  0  0  0  0  0  0  0  0
   21.9360  -19.8911  -15.9317 C   0  0  0  0  0  0  0  0  0  0  0  0
   21.6244  -20.9911  -16.4566 O   0  0  0  0  0  0  0  0  0  0  0  0
   19.7127  -23.4534  -13.4488 N   0  0  0  0  0  0  0  0  0  0  0  0
   18.7487  -22.6740  -12.7696 C   0  0  0  0  0  0  0  0  0  0  0  0
   17.7356  -23.2877  -12.2972 O   0  0  0  0  0  0  0  0  0  0  0  0
   18.8704  -21.2150  -12.5851 C   0  0  0  0  0  0  0  0  0  0  0  0
   20.0315  -20.5645  -13.2251 C   0  0  0  0  0  0  0  0  0  0  0  0
   19.8081  -19.9450  -14.5561 C   0  0  2  0  0  0  0  0  0  0  0  0
   21.0778  -19.3238  -14.9777 N   0  0  0  0  0  0  0  0  0  0  0  0
   18.7487  -18.9737  -14.7307 C   0  0  0  0  0  0  0  0  0  0  0  0
   18.9816  -17.7320  -14.6788 O   0  0  0  0  0  0  0  0  0  0  0  0
   17.4336  -19.3292  -14.9704 O   0  0  0  0  0  0  0  0  0  0  0  0
  2  1  1  0
  2  4  1  0
  3  2  2  0
  4  5  1  0
  5  7  1  0
  5  6  1  6
  7  8  2  0
  9  7  1  0
  9 10  1  0
 10 13  1  0
 11 12  1  0
 10 11  1  6
 13 21  1  0
 14 13  2  0
 16 15  1  0
 17 16  2  0
 18 16  1  0
 19 18  1  0
 20 19  1  1
 21 20  1  0
 22 20  1  0
 22 24  1  0
 23 22  2  0
M  END
$$$$
