NCQ.pdb
     RDKit          3D

 24 23  0  0  1  0  0  0  0  0999 V2000
   21.5177  -17.2563  -16.9059 N   0  0  0  0  0  0  0  0  0  0  0  0
   22.0133  -17.1832  -15.5790 C   0  0  0  0  0  0  0  0  0  0  0  0
   21.7005  -18.0775  -14.7571 O   0  0  0  0  0  0  0  0  0  0  0  0
   22.8890  -16.0510  -15.1973 C   0  0  0  0  0  0  0  0  0  0  0  0
   23.0901  -15.1512  -16.4036 C   0  0  2  0  0  0  0  0  0  0  0  0
   23.9306  -15.8504  -17.3339 N   0  0  0  0  0  0  0  0  0  0  0  0
   23.6977  -13.8565  -16.0204 C   0  0  0  0  0  0  0  0  0  0  0  0
   23.1215  -13.1093  -15.1814 O   0  0  0  0  0  0  0  0  0  0  0  0
   24.9280  -13.3763  -16.5480 N   0  0  0  0  0  0  0  0  0  0  0  0
   25.5078  -12.1152  -16.1987 C   0  0  1  0  0  0  0  0  0  0  0  0
   26.9758  -12.0124  -16.5376 C   0  0  0  0  0  0  0  0  0  0  0  0
   27.9380  -13.3622  -15.8054 S   0  0  0  0  0  0  0  0  0  0  0  0
   24.8320  -10.9735  -16.8893 C   0  0  0  0  0  0  0  0  0  0  0  0
   24.4476  -11.1194  -18.0782 O   0  0  0  0  0  0  0  0  0  0  0  0
   19.6742  -10.1918  -17.3926 N   0  0  0  0  0  0  0  0  0  0  0  0
   20.1040   -9.7072  -16.1363 C   0  0  0  0  0  0  0  0  0  0  0  0
   19.2442   -9.6953  -15.1946 O   0  0  0  0  0  0  0  0  0  0  0  0
   21.4772   -9.2329  -15.8776 C   0  0  0  0  0  0  0  0  0  0  0  0
   22.4087   -9.2550  -17.0234 C   0  0  0  0  0  0  0  0  0  0  0  0
   23.7598   -8.6787  -16.8049 C   0  0  2  0  0  0  0  0  0  0  0  0
   24.6146   -9.7443  -16.2487 N   0  0  0  0  0  0  0  0  0  0  0  0
   23.9154   -7.4974  -15.9823 C   0  0  0  0  0  0  0  0  0  0  0  0
   24.5914   -7.5259  -14.9141 O   0  0  0  0  0  0  0  0  0  0  0  0
   23.3532   -6.2756  -16.3055 O   0  0  0  0  0  0  0  0  0  0  0  0
  2  1  1  0
  2  4  1  0
  3  2  2  0
  4  5  1  0
  5  7  1  0
  5  6  1  6
  7  8  2  0
  9  7  1  0
  9 10  1  0
 10 13  1  0
 11 12  1  0
 10 11  1  6
 13 21  1  0
 14 13  2  0
 16 15  1  0
 17 16  2  0
 18 16  1  0
 19 18  1  0
 20 19  1  1
 21 20  1  0
 22 20  1  0
 22 24  1  0
 23 22  2  0
M  END
$$$$
