NCQ.pdb
     RDKit          3D

 24 23  0  0  1  0  0  0  0  0999 V2000
   19.1408  -25.0665   -8.7125 N   0  0  0  0  0  0  0  0  0  0  0  0
   18.0063  -24.3982   -8.1853 C   0  0  0  0  0  0  0  0  0  0  0  0
   17.6541  -23.3017   -8.6825 O   0  0  0  0  0  0  0  0  0  0  0  0
   17.2653  -25.0129   -7.0595 C   0  0  0  0  0  0  0  0  0  0  0  0
   17.9307  -26.3256   -6.6861 C   0  0  2  0  0  0  0  0  0  0  0  0
   17.5204  -27.3110   -7.6460 N   0  0  0  0  0  0  0  0  0  0  0  0
   17.5670  -26.7481   -5.3144 C   0  0  0  0  0  0  0  0  0  0  0  0
   16.3978  -27.1546   -5.0652 O   0  0  0  0  0  0  0  0  0  0  0  0
   18.4720  -26.7285   -4.2176 N   0  0  0  0  0  0  0  0  0  0  0  0
   18.1026  -27.0494   -2.8725 C   0  0  1  0  0  0  0  0  0  0  0  0
   19.2775  -27.1269   -1.9270 C   0  0  0  0  0  0  0  0  0  0  0  0
   18.7529  -27.3841   -0.2116 S   0  0  0  0  0  0  0  0  0  0  0  0
   17.1571  -26.0457   -2.2929 C   0  0  0  0  0  0  0  0  0  0  0  0
   17.1944  -24.8592   -2.7094 O   0  0  0  0  0  0  0  0  0  0  0  0
   14.2120  -22.3804   -3.2565 N   0  0  0  0  0  0  0  0  0  0  0  0
   13.1821  -22.8749   -2.4243 C   0  0  0  0  0  0  0  0  0  0  0  0
   12.1977  -22.0972   -2.1960 O   0  0  0  0  0  0  0  0  0  0  0  0
   13.1991  -24.2256   -1.8300 C   0  0  0  0  0  0  0  0  0  0  0  0
   14.4184  -25.0283   -2.0531 C   0  0  0  0  0  0  0  0  0  0  0  0
   15.1510  -25.4906   -0.8470 C   0  0  2  0  0  0  0  0  0  0  0  0
   16.2298  -26.3899   -1.2979 N   0  0  0  0  0  0  0  0  0  0  0  0
   14.4330  -26.1467    0.2255 C   0  0  0  0  0  0  0  0  0  0  0  0
   14.4591  -27.4036    0.3601 O   0  0  0  0  0  0  0  0  0  0  0  0
   13.6888  -25.4568    1.1655 O   0  0  0  0  0  0  0  0  0  0  0  0
  2  1  1  0
  2  4  1  0
  3  2  2  0
  4  5  1  0
  5  7  1  0
  5  6  1  6
  7  8  2  0
  9  7  1  0
  9 10  1  0
 10 13  1  0
 11 12  1  0
 10 11  1  1
 13 21  1  0
 14 13  2  0
 16 15  1  0
 17 16  2  0
 18 16  1  0
 19 18  1  0
 20 19  1  6
 21 20  1  0
 22 20  1  0
 22 24  1  0
 23 22  2  0
M  END
$$$$
