NCQ.pdb
     RDKit          3D

 24 23  0  0  1  0  0  0  0  0999 V2000
   20.4521  -25.9607  -12.2375 N   0  0  0  0  0  0  0  0  0  0  0  0
   19.9804  -24.6673  -12.5781 C   0  0  0  0  0  0  0  0  0  0  0  0
   18.8954  -24.2631  -12.0956 O   0  0  0  0  0  0  0  0  0  0  0  0
   20.7821  -23.8256  -13.4964 C   0  0  0  0  0  0  0  0  0  0  0  0
   19.8444  -22.9816  -14.3412 C   0  0  2  0  0  0  0  0  0  0  0  0
   19.1676  -23.8607  -15.2521 N   0  0  0  0  0  0  0  0  0  0  0  0
   20.5777  -21.9276  -15.0786 C   0  0  0  0  0  0  0  0  0  0  0  0
   21.2395  -22.2211  -16.1130 O   0  0  0  0  0  0  0  0  0  0  0  0
   20.5910  -20.5591  -14.6920 N   0  0  0  0  0  0  0  0  0  0  0  0
   21.3365  -19.5448  -15.3731 C   0  0  1  0  0  0  0  0  0  0  0  0
   20.7003  -18.1773  -15.2995 C   0  0  0  0  0  0  0  0  0  0  0  0
   21.9320  -16.8502  -15.3759 S   0  0  0  0  0  0  0  0  0  0  0  0
   22.7207  -19.3988  -14.8253 C   0  0  0  0  0  0  0  0  0  0  0  0
   22.8696  -19.0940  -13.6139 O   0  0  0  0  0  0  0  0  0  0  0  0
   25.7072  -22.9719  -12.3915 N   0  0  0  0  0  0  0  0  0  0  0  0
   25.8372  -23.1165  -13.7915 C   0  0  0  0  0  0  0  0  0  0  0  0
   26.1292  -24.2780  -14.2296 O   0  0  0  0  0  0  0  0  0  0  0  0
   25.6460  -22.0040  -14.7420 C   0  0  0  0  0  0  0  0  0  0  0  0
   25.4023  -20.6708  -14.1555 C   0  0  0  0  0  0  0  0  0  0  0  0
   25.2360  -19.5384  -15.1017 C   0  0  2  0  0  0  0  0  0  0  0  0
   23.8577  -19.5924  -15.6241 N   0  0  0  0  0  0  0  0  0  0  0  0
   26.1405  -19.3972  -16.2234 C   0  0  0  0  0  0  0  0  0  0  0  0
   27.3825  -19.2369  -16.0488 O   0  0  0  0  0  0  0  0  0  0  0  0
   25.7185  -19.4354  -17.5401 O   0  0  0  0  0  0  0  0  0  0  0  0
  2  1  1  0
  2  4  1  0
  3  2  2  0
  4  5  1  0
  5  7  1  0
  5  6  1  6
  7  8  2  0
  9  7  1  0
  9 10  1  0
 10 13  1  0
 11 12  1  0
 10 11  1  1
 13 21  1  0
 14 13  2  0
 16 15  1  0
 17 16  2  0
 18 16  1  0
 19 18  1  0
 20 19  1  6
 21 20  1  0
 22 20  1  0
 22 24  1  0
 23 22  2  0
M  END
$$$$
