GVY.pdb
     RDKit          3D

 24 24  0  0  1  0  0  0  0  0999 V2000
   21.1405  -20.2050  -14.4013 N   0  0  0  0  0  0  0  0  0  0  0  0
   22.5299  -19.9611  -14.7088 C   0  0  0  0  0  0  0  0  0  0  0  0
   23.3798  -20.6042  -13.6890 C   0  0  0  0  0  0  0  0  0  0  0  0
   22.9035  -21.2932  -12.7365 O   0  0  0  0  0  0  0  0  0  0  0  0
   27.6245  -20.0057  -14.0297 C   0  0  0  0  0  0  0  0  0  0  0  0
   27.0108  -21.2562  -13.4594 C   0  0  1  0  0  0  0  0  0  0  0  0
   27.9886  -21.9441  -12.5277 C   0  0  0  0  0  0  0  0  0  0  0  0
   25.6855  -20.9865  -12.7792 C   0  0  2  0  0  0  0  0  0  0  0  0
   24.7869  -20.4500  -13.7707 N   0  0  0  0  0  0  0  0  0  0  0  0
   25.8283  -20.1044  -11.6031 C   0  0  0  0  0  0  0  0  0  0  0  0
   25.9088  -18.8603  -11.7697 O   0  0  0  0  0  0  0  0  0  0  0  0
   21.0144  -22.8401   -7.1124 O   0  0  0  0  0  0  0  0  0  0  0  0
   21.9867  -21.9010   -7.4379 C   0  0  0  0  0  0  0  0  0  0  0  0
   21.9161  -21.3348   -8.6970 C   0  0  0  0  0  0  0  0  0  0  0  0
   22.8352  -20.4030   -9.0934 C   0  0  0  0  0  0  0  0  0  0  0  0
   23.8714  -19.9925   -8.2464 C   0  0  0  0  0  0  0  0  0  0  0  0
   24.8509  -19.0063   -8.7098 C   0  0  0  0  0  0  0  0  0  0  0  0
   26.1168  -19.6708   -9.1281 C   0  0  2  0  0  0  0  0  0  0  0  0
   25.8817  -20.5799  -10.2666 N   0  0  0  0  0  0  0  0  0  0  0  0
   26.7406  -20.4173   -8.0183 C   0  0  0  0  0  0  0  0  0  0  0  0
   26.9222  -21.6536   -7.9924 O   0  0  0  0  0  0  0  0  0  0  0  0
   23.9110  -20.5807   -6.9940 C   0  0  0  0  0  0  0  0  0  0  0  0
   22.9893  -21.5123   -6.6019 C   0  0  0  0  0  0  0  0  0  0  0  0
   27.1647  -19.6741   -6.8995 O   0  0  0  0  0  0  0  0  0  0  0  0
  1  2  1  0
  3  2  1  0
  3  9  1  0
  4  3  2  0
  6  5  1  1
  6  8  1  0
  7  6  1  0
  8  9  1  6
  8 10  1  0
 10 19  1  0
 11 10  2  0
 12 13  1  0
 13 23  2  0
 14 13  1  0
 14 15  2  0
 15 16  1  0
 16 22  2  0
 16 17  1  0
 18 20  1  0
 18 17  1  1
 19 18  1  0
 20 24  1  0
 21 20  2  0
 23 22  1  0
M  END
$$$$
