GVY.pdb
     RDKit          3D

 24 24  0  0  1  0  0  0  0  0999 V2000
   20.2854  -14.6138  -17.2320 N   0  0  0  0  0  0  0  0  0  0  0  0
   20.8458  -13.3211  -17.5474 C   0  0  0  0  0  0  0  0  0  0  0  0
   20.5389  -12.3731  -16.4595 C   0  0  0  0  0  0  0  0  0  0  0  0
   19.4182  -12.3519  -15.8661 O   0  0  0  0  0  0  0  0  0  0  0  0
   23.6329   -9.6181  -15.4330 C   0  0  0  0  0  0  0  0  0  0  0  0
   22.5923  -10.0514  -14.4356 C   0  0  1  0  0  0  0  0  0  0  0  0
   22.4178   -8.9933  -13.3644 C   0  0  0  0  0  0  0  0  0  0  0  0
   21.2756  -10.4017  -15.0954 C   0  0  2  0  0  0  0  0  0  0  0  0
   21.5325  -11.4455  -16.0561 N   0  0  0  0  0  0  0  0  0  0  0  0
   20.6188   -9.2232  -15.6967 C   0  0  0  0  0  0  0  0  0  0  0  0
   21.0911   -8.7224  -16.7494 O   0  0  0  0  0  0  0  0  0  0  0  0
   13.5092  -10.6058  -14.6234 O   0  0  0  0  0  0  0  0  0  0  0  0
   14.6178   -9.9711  -15.1726 C   0  0  0  0  0  0  0  0  0  0  0  0
   14.6147   -8.5888  -15.1708 C   0  0  0  0  0  0  0  0  0  0  0  0
   15.6681   -7.8900  -15.6925 C   0  0  0  0  0  0  0  0  0  0  0  0
   16.7775   -8.5431  -16.2422 C   0  0  0  0  0  0  0  0  0  0  0  0
   17.8807   -7.7639  -16.8105 C   0  0  0  0  0  0  0  0  0  0  0  0
   18.8695   -7.3975  -15.7583 C   0  0  2  0  0  0  0  0  0  0  0  0
   19.4630   -8.6049  -15.1518 N   0  0  0  0  0  0  0  0  0  0  0  0
   18.2678   -6.5578  -14.7044 C   0  0  0  0  0  0  0  0  0  0  0  0
   18.1289   -6.8911  -13.5078 O   0  0  0  0  0  0  0  0  0  0  0  0
   16.7459   -9.9269  -16.2272 C   0  0  0  0  0  0  0  0  0  0  0  0
   15.6900  -10.6215  -15.7041 C   0  0  0  0  0  0  0  0  0  0  0  0
   17.8144   -5.2783  -15.0800 O   0  0  0  0  0  0  0  0  0  0  0  0
  1  2  1  0
  3  2  1  0
  3  9  1  0
  4  3  2  0
  6  5  1  6
  6  8  1  0
  7  6  1  0
  8  9  1  6
  8 10  1  0
 10 19  1  0
 11 10  2  0
 12 13  1  0
 13 23  2  0
 14 13  1  0
 14 15  2  0
 15 16  1  0
 16 22  2  0
 16 17  1  0
 18 20  1  0
 18 17  1  6
 19 18  1  0
 20 24  1  0
 21 20  2  0
 23 22  1  0
M  END
$$$$
