GVY.pdb
     RDKit          3D

 24 24  0  0  1  0  0  0  0  0999 V2000
   28.3600  -17.4288  -19.1028 N   0  0  0  0  0  0  0  0  0  0  0  0
   28.6971  -18.3761  -18.0667 C   0  0  0  0  0  0  0  0  0  0  0  0
   27.6239  -19.3816  -17.9511 C   0  0  0  0  0  0  0  0  0  0  0  0
   26.5352  -19.2977  -18.5964 O   0  0  0  0  0  0  0  0  0  0  0  0
   28.5900  -22.8496  -15.7988 C   0  0  0  0  0  0  0  0  0  0  0  0
   27.4400  -22.8247  -16.7696 C   0  0  1  0  0  0  0  0  0  0  0  0
   26.4435  -23.9158  -16.4325 C   0  0  0  0  0  0  0  0  0  0  0  0
   26.7781  -21.4651  -16.8405 C   0  0  2  0  0  0  0  0  0  0  0  0
   27.8103  -20.4889  -17.0854 N   0  0  0  0  0  0  0  0  0  0  0  0
   25.9848  -21.1641  -15.6314 C   0  0  0  0  0  0  0  0  0  0  0  0
   26.5603  -21.0989  -14.5149 O   0  0  0  0  0  0  0  0  0  0  0  0
   20.6863  -17.8546  -19.1841 O   0  0  0  0  0  0  0  0  0  0  0  0
   21.3053  -18.1827  -17.9831 C   0  0  0  0  0  0  0  0  0  0  0  0
   22.6811  -18.0584  -17.9314 C   0  0  0  0  0  0  0  0  0  0  0  0
   23.3645  -18.3614  -16.7864 C   0  0  0  0  0  0  0  0  0  0  0  0
   22.7019  -18.8046  -15.6357 C   0  0  0  0  0  0  0  0  0  0  0  0
   23.4666  -19.1394  -14.4315 C   0  0  0  0  0  0  0  0  0  0  0  0
   23.8405  -20.5814  -14.4235 C   0  0  2  0  0  0  0  0  0  0  0  0
   24.5834  -20.9384  -15.6475 N   0  0  0  0  0  0  0  0  0  0  0  0
   22.6599  -21.4564  -14.2870 C   0  0  0  0  0  0  0  0  0  0  0  0
   21.8784  -21.4668  -13.3117 O   0  0  0  0  0  0  0  0  0  0  0  0
   21.3251  -18.9175  -15.7242 C   0  0  0  0  0  0  0  0  0  0  0  0
   20.6458  -18.6129  -16.8718 C   0  0  0  0  0  0  0  0  0  0  0  0
   22.3950  -22.3508  -15.3423 O   0  0  0  0  0  0  0  0  0  0  0  0
  1  2  1  0
  3  2  1  0
  3  9  1  0
  4  3  2  0
  6  5  1  1
  6  8  1  0
  7  6  1  0
  8  9  1  1
  8 10  1  0
 10 19  1  0
 11 10  2  0
 12 13  1  0
 13 23  2  0
 14 13  1  0
 14 15  2  0
 15 16  1  0
 16 22  2  0
 16 17  1  0
 18 20  1  0
 18 17  1  6
 19 18  1  0
 20 24  1  0
 21 20  2  0
 23 22  1  0
M  END
$$$$
