GVY.pdb
     RDKit          3D

 24 24  0  0  1  0  0  0  0  0999 V2000
   28.8440  -20.5346  -15.5140 N   0  0  0  0  0  0  0  0  0  0  0  0
   28.1110  -19.8871  -14.4520 C   0  0  0  0  0  0  0  0  0  0  0  0
   27.0622  -20.7963  -13.9525 C   0  0  0  0  0  0  0  0  0  0  0  0
   26.7765  -21.8916  -14.5247 O   0  0  0  0  0  0  0  0  0  0  0  0
   26.8094  -21.8172  -10.3813 C   0  0  0  0  0  0  0  0  0  0  0  0
   25.4386  -21.3279  -10.7644 C   0  0  1  0  0  0  0  0  0  0  0  0
   25.1431  -20.0059  -10.0845 C   0  0  0  0  0  0  0  0  0  0  0  0
   25.2600  -21.2373  -12.2650 C   0  0  2  0  0  0  0  0  0  0  0  0
   26.3405  -20.4375  -12.7859 N   0  0  0  0  0  0  0  0  0  0  0  0
   23.9311  -20.7134  -12.6408 C   0  0  0  0  0  0  0  0  0  0  0  0
   23.6828  -19.4900  -12.4868 O   0  0  0  0  0  0  0  0  0  0  0  0
   25.2132  -18.1020  -17.9025 O   0  0  0  0  0  0  0  0  0  0  0  0
   24.2246  -18.7631  -17.1820 C   0  0  0  0  0  0  0  0  0  0  0  0
   24.4322  -20.1035  -16.9155 C   0  0  0  0  0  0  0  0  0  0  0  0
   23.5072  -20.8245  -16.2123 C   0  0  0  0  0  0  0  0  0  0  0  0
   22.3274  -20.2367  -15.7410 C   0  0  0  0  0  0  0  0  0  0  0  0
   21.3481  -21.0428  -15.0074 C   0  0  0  0  0  0  0  0  0  0  0  0
   21.5786  -20.9518  -13.5385 C   0  0  2  0  0  0  0  0  0  0  0  0
   22.8922  -21.5187  -13.1766 N   0  0  0  0  0  0  0  0  0  0  0  0
   20.5169  -21.6308  -12.7706 C   0  0  0  0  0  0  0  0  0  0  0  0
   20.6887  -22.6082  -12.0108 O   0  0  0  0  0  0  0  0  0  0  0  0
   22.1531  -18.8936  -16.0267 C   0  0  0  0  0  0  0  0  0  0  0  0
   23.0814  -18.1765  -16.7304 C   0  0  0  0  0  0  0  0  0  0  0  0
   19.2055  -21.1353  -12.9066 O   0  0  0  0  0  0  0  0  0  0  0  0
  1  2  1  0
  3  2  1  0
  3  9  1  0
  4  3  2  0
  6  5  1  6
  6  8  1  0
  7  6  1  0
  8  9  1  1
  8 10  1  0
 10 19  1  0
 11 10  2  0
 12 13  1  0
 13 23  2  0
 14 13  1  0
 14 15  2  0
 15 16  1  0
 16 22  2  0
 16 17  1  0
 18 20  1  0
 18 17  1  6
 19 18  1  0
 20 24  1  0
 21 20  2  0
 23 22  1  0
M  END
$$$$
