GVY.pdb
     RDKit          3D

 24 24  0  0  1  0  0  0  0  0999 V2000
   26.7797  -18.3233  -19.3309 N   0  0  0  0  0  0  0  0  0  0  0  0
   25.8691  -19.3141  -18.8079 C   0  0  0  0  0  0  0  0  0  0  0  0
   24.7697  -18.6418  -18.0901 C   0  0  0  0  0  0  0  0  0  0  0  0
   24.3057  -17.5169  -18.4478 O   0  0  0  0  0  0  0  0  0  0  0  0
   22.3115  -17.9619  -18.5427 C   0  0  0  0  0  0  0  0  0  0  0  0
   21.9136  -18.6968  -17.2908 C   0  0  1  0  0  0  0  0  0  0  0  0
   21.3934  -20.0781  -17.6349 C   0  0  0  0  0  0  0  0  0  0  0  0
   23.0383  -18.7585  -16.2794 C   0  0  2  0  0  0  0  0  0  0  0  0
   24.2041  -19.2731  -16.9534 N   0  0  0  0  0  0  0  0  0  0  0  0
   22.6756  -19.5486  -15.0852 C   0  0  0  0  0  0  0  0  0  0  0  0
   22.8488  -20.7944  -15.0923 O   0  0  0  0  0  0  0  0  0  0  0  0
   21.4910  -22.1704   -6.8105 O   0  0  0  0  0  0  0  0  0  0  0  0
   21.6123  -21.3971   -7.9597 C   0  0  0  0  0  0  0  0  0  0  0  0
   22.8829  -21.2442   -8.4823 C   0  0  0  0  0  0  0  0  0  0  0  0
   23.0861  -20.4989   -9.6107 C   0  0  0  0  0  0  0  0  0  0  0  0
   22.0246  -19.8696  -10.2715 C   0  0  0  0  0  0  0  0  0  0  0  0
   22.2799  -19.0621  -11.4673 C   0  0  0  0  0  0  0  0  0  0  0  0
   21.8731  -19.7941  -12.6993 C   0  0  2  0  0  0  0  0  0  0  0  0
   22.1318  -18.9808  -13.9032 N   0  0  0  0  0  0  0  0  0  0  0  0
   20.4512  -20.1876  -12.6629 C   0  0  0  0  0  0  0  0  0  0  0  0
   19.4887  -19.4419  -12.9451 O   0  0  0  0  0  0  0  0  0  0  0  0
   20.7671  -20.0442   -9.7198 C   0  0  0  0  0  0  0  0  0  0  0  0
   20.5688  -20.7908   -8.5910 C   0  0  0  0  0  0  0  0  0  0  0  0
   20.1581  -21.5106  -12.2789 O   0  0  0  0  0  0  0  0  0  0  0  0
  1  2  1  0
  3  2  1  0
  3  9  1  0
  4  3  2  0
  6  5  1  6
  6  8  1  0
  7  6  1  0
  8  9  1  6
  8 10  1  0
 10 19  1  0
 11 10  2  0
 12 13  1  0
 13 23  2  0
 14 13  1  0
 14 15  2  0
 15 16  1  0
 16 22  2  0
 16 17  1  0
 18 20  1  0
 18 17  1  1
 19 18  1  0
 20 24  1  0
 21 20  2  0
 23 22  1  0
M  END
$$$$
