GVY.pdb
     RDKit          3D

 24 24  0  0  1  0  0  0  0  0999 V2000
   27.6386  -17.9533  -16.4549 N   0  0  0  0  0  0  0  0  0  0  0  0
   27.7149  -19.1491  -15.6495 C   0  0  0  0  0  0  0  0  0  0  0  0
   26.7257  -19.0710  -14.5579 C   0  0  0  0  0  0  0  0  0  0  0  0
   26.0375  -18.0301  -14.3311 O   0  0  0  0  0  0  0  0  0  0  0  0
   25.0198  -22.5914  -13.2077 C   0  0  0  0  0  0  0  0  0  0  0  0
   24.4875  -21.1985  -13.0026 C   0  0  1  0  0  0  0  0  0  0  0  0
   23.3777  -21.2064  -11.9704 C   0  0  0  0  0  0  0  0  0  0  0  0
   25.5796  -20.2140  -12.6422 C   0  0  2  0  0  0  0  0  0  0  0  0
   26.5315  -20.2018  -13.7248 N   0  0  0  0  0  0  0  0  0  0  0  0
   26.2032  -20.5209  -11.3388 C   0  0  0  0  0  0  0  0  0  0  0  0
   26.9149  -21.5513  -11.2215 O   0  0  0  0  0  0  0  0  0  0  0  0
   29.3516  -20.3775   -3.1567 O   0  0  0  0  0  0  0  0  0  0  0  0
   28.7128  -20.0135   -4.3369 C   0  0  0  0  0  0  0  0  0  0  0  0
   29.4901  -19.9518   -5.4783 C   0  0  0  0  0  0  0  0  0  0  0  0
   28.9367  -19.6017   -6.6788 C   0  0  0  0  0  0  0  0  0  0  0  0
   27.5756  -19.2961   -6.7945 C   0  0  0  0  0  0  0  0  0  0  0  0
   27.0188  -18.9059   -8.0925 C   0  0  0  0  0  0  0  0  0  0  0  0
   26.6113  -20.1044   -8.8777 C   0  0  2  0  0  0  0  0  0  0  0  0
   26.0482  -19.7104  -10.1837 N   0  0  0  0  0  0  0  0  0  0  0  0
   25.6352  -20.9363   -8.1476 C   0  0  0  0  0  0  0  0  0  0  0  0
   24.4019  -20.7371   -8.1109 O   0  0  0  0  0  0  0  0  0  0  0  0
   26.8285  -19.3681   -5.6315 C   0  0  0  0  0  0  0  0  0  0  0  0
   27.3865  -19.7188   -4.4329 C   0  0  0  0  0  0  0  0  0  0  0  0
   26.1366  -22.0434   -7.4357 O   0  0  0  0  0  0  0  0  0  0  0  0
  1  2  1  0
  3  2  1  0
  3  9  1  0
  4  3  2  0
  6  5  1  1
  6  8  1  0
  7  6  1  0
  8  9  1  6
  8 10  1  0
 10 19  1  0
 11 10  2  0
 12 13  1  0
 13 23  2  0
 14 13  1  0
 14 15  2  0
 15 16  1  0
 16 22  2  0
 16 17  1  0
 18 20  1  0
 18 17  1  1
 19 18  1  0
 20 24  1  0
 21 20  2  0
 23 22  1  0
M  END
$$$$
