GVY.pdb
     RDKit          3D

 24 24  0  0  1  0  0  0  0  0999 V2000
   16.3075  -13.0934  -13.9154 N   0  0  0  0  0  0  0  0  0  0  0  0
   15.6293  -11.8233  -14.0213 C   0  0  0  0  0  0  0  0  0  0  0  0
   16.5743  -10.7335  -13.7122 C   0  0  0  0  0  0  0  0  0  0  0  0
   17.7435  -10.9466  -13.2694 O   0  0  0  0  0  0  0  0  0  0  0  0
   16.1221   -7.0652  -15.5264 C   0  0  0  0  0  0  0  0  0  0  0  0
   17.3296   -7.4722  -14.7253 C   0  0  1  0  0  0  0  0  0  0  0  0
   18.1657   -6.2562  -14.3798 C   0  0  0  0  0  0  0  0  0  0  0  0
   16.9585   -8.2651  -13.4902 C   0  0  2  0  0  0  0  0  0  0  0  0
   16.1654   -9.3912  -13.9160 N   0  0  0  0  0  0  0  0  0  0  0  0
   16.2735   -7.4367  -12.4772 C   0  0  0  0  0  0  0  0  0  0  0  0
   15.0769   -7.0966  -12.6630 O   0  0  0  0  0  0  0  0  0  0  0  0
   11.2159   -9.5232   -8.1657 O   0  0  0  0  0  0  0  0  0  0  0  0
   12.3910   -8.8003   -8.3386 C   0  0  0  0  0  0  0  0  0  0  0  0
   13.4625   -9.4690   -8.9004 C   0  0  0  0  0  0  0  0  0  0  0  0
   14.6534   -8.8283   -9.1038 C   0  0  0  0  0  0  0  0  0  0  0  0
   14.8290   -7.4844   -8.7536 C   0  0  0  0  0  0  0  0  0  0  0  0
   16.1243   -6.8336   -8.9673 C   0  0  0  0  0  0  0  0  0  0  0  0
   16.1683   -6.1611  -10.2957 C   0  0  2  0  0  0  0  0  0  0  0  0
   16.8915   -6.9890  -11.2802 N   0  0  0  0  0  0  0  0  0  0  0  0
   16.7918   -4.8257  -10.2175 C   0  0  0  0  0  0  0  0  0  0  0  0
   17.8782   -4.5046  -10.7454 O   0  0  0  0  0  0  0  0  0  0  0  0
   13.7353   -6.8472   -8.1935 C   0  0  0  0  0  0  0  0  0  0  0  0
   12.5460   -7.4922   -7.9922 C   0  0  0  0  0  0  0  0  0  0  0  0
   16.1050   -3.8353   -9.4885 O   0  0  0  0  0  0  0  0  0  0  0  0
  1  2  1  0
  3  2  1  0
  3  9  1  0
  4  3  2  0
  6  5  1  1
  6  8  1  0
  7  6  1  0
  8  9  1  6
  8 10  1  0
 10 19  1  0
 11 10  2  0
 12 13  1  0
 13 23  2  0
 14 13  1  0
 14 15  2  0
 15 16  1  0
 16 22  2  0
 16 17  1  0
 18 20  1  0
 18 17  1  1
 19 18  1  0
 20 24  1  0
 21 20  2  0
 23 22  1  0
M  END
$$$$
