AVH.pdb
     RDKit          3D

 23 23  0  0  1  0  0  0  0  0999 V2000
    6.4753  -15.2291   20.8013 C   0  0  0  0  0  0  0  0  0  0  0  0
    6.9759  -13.8370   21.0898 C   0  0  2  0  0  0  0  0  0  0  0  0
    7.8871  -13.3432   20.0704 N   0  0  0  0  0  0  0  0  0  0  0  0
    7.7209  -13.8039   22.3810 C   0  0  0  0  0  0  0  0  0  0  0  0
    8.9399  -14.1046   22.3682 O   0  0  0  0  0  0  0  0  0  0  0  0
    8.0619  -12.3336   27.0483 C   0  0  0  0  0  0  0  0  0  0  0  0
    7.2078  -12.4863   25.7772 C   0  0  2  0  0  0  0  0  0  0  0  0
    5.8499  -12.9157   26.2722 C   0  0  0  0  0  0  0  0  0  0  0  0
    7.8912  -13.4398   24.8632 C   0  0  2  0  0  0  0  0  0  0  0  0
    7.1565  -13.4583   23.6224 N   0  0  0  0  0  0  0  0  0  0  0  0
    8.1882  -14.7717   25.3964 C   0  0  0  0  0  0  0  0  0  0  0  0
    7.2256  -15.5949   25.6038 O   0  0  0  0  0  0  0  0  0  0  0  0
    9.4803  -15.2457   25.7124 N   0  0  0  0  0  0  0  0  0  0  0  0
    9.6589  -16.5890   26.1900 C   0  0  1  0  0  0  0  0  0  0  0  0
   10.8745  -17.2880   25.6320 C   0  0  0  0  0  0  0  0  0  0  0  0
   10.8272  -17.4483   24.1696 C   0  0  0  0  0  0  0  0  0  0  0  0
    9.7756  -17.9183   23.4294 C   0  0  0  0  0  0  0  0  0  0  0  0
   10.0971  -17.9147   22.1055 N   0  0  0  0  0  0  0  0  0  0  0  0
   11.3543  -17.4389   22.0423 C   0  0  0  0  0  0  0  0  0  0  0  0
   11.7835  -17.1614   23.3014 N   0  0  0  0  0  0  0  0  0  0  0  0
    9.8305  -16.5629   27.6589 C   0  0  0  0  0  0  0  0  0  0  0  0
    9.9125  -15.4800   28.2541 O   0  0  0  0  0  0  0  0  0  0  0  0
    9.8993  -17.7474   28.3481 O   0  0  0  0  0  0  0  0  0  0  0  0
  2  1  1  6
  2  4  1  0
  2  3  1  0
  4  5  2  0
  7  6  1  1
  7  9  1  0
  8  7  1  0
  9 11  1  0
  9 10  1  6
 10  4  1  0
 11 12  2  0
 13 11  1  0
 13 14  1  0
 14 21  1  0
 15 16  1  0
 14 15  1  6
 16 20  1  0
 17 18  1  0
 17 16  2  0
 18 19  1  0
 19 20  2  0
 21 22  2  0
 21 23  1  0
M  END
$$$$
