AVH.pdb
     RDKit          3D

 23 23  0  0  1  0  0  0  0  0999 V2000
    5.0508  -18.3156   23.1704 C   0  0  0  0  0  0  0  0  0  0  0  0
    5.5706  -17.9936   21.7927 C   0  0  2  0  0  0  0  0  0  0  0  0
    6.0616  -19.1661   21.0873 N   0  0  0  0  0  0  0  0  0  0  0  0
    6.7096  -17.0346   21.8720 C   0  0  0  0  0  0  0  0  0  0  0  0
    7.8537  -17.4940   22.1104 O   0  0  0  0  0  0  0  0  0  0  0  0
    7.1001  -13.9515   19.5471 C   0  0  0  0  0  0  0  0  0  0  0  0
    7.3676  -13.5193   20.9997 C   0  0  2  0  0  0  0  0  0  0  0  0
    8.4513  -12.4757   20.9000 C   0  0  0  0  0  0  0  0  0  0  0  0
    7.7093  -14.7287   21.7948 C   0  0  2  0  0  0  0  0  0  0  0  0
    6.5983  -15.6431   21.6985 N   0  0  0  0  0  0  0  0  0  0  0  0
    8.1803  -14.5099   23.1647 C   0  0  0  0  0  0  0  0  0  0  0  0
    7.6331  -13.5948   23.8791 O   0  0  0  0  0  0  0  0  0  0  0  0
    9.2155  -15.2395   23.7893 N   0  0  0  0  0  0  0  0  0  0  0  0
    9.5943  -14.9396   25.1425 C   0  0  1  0  0  0  0  0  0  0  0  0
    8.4901  -15.1359   26.1524 C   0  0  0  0  0  0  0  0  0  0  0  0
    7.6755  -13.9274   26.3588 C   0  0  0  0  0  0  0  0  0  0  0  0
    8.1325  -12.6451   26.5050 C   0  0  0  0  0  0  0  0  0  0  0  0
    7.0839  -11.7906   26.6668 N   0  0  0  0  0  0  0  0  0  0  0  0
    5.9817  -12.5611   26.6187 C   0  0  0  0  0  0  0  0  0  0  0  0
    6.3565  -13.8540   26.4323 N   0  0  0  0  0  0  0  0  0  0  0  0
   10.6958  -15.8393   25.5487 C   0  0  0  0  0  0  0  0  0  0  0  0
   11.2292  -15.7041   26.6582 O   0  0  0  0  0  0  0  0  0  0  0  0
   11.1172  -16.8177   24.6840 O   0  0  0  0  0  0  0  0  0  0  0  0
  2  1  1  1
  2  4  1  0
  2  3  1  0
  4  5  2  0
  7  6  1  6
  7  9  1  0
  8  7  1  0
  9 11  1  0
  9 10  1  1
 10  4  1  0
 11 12  2  0
 13 11  1  0
 13 14  1  0
 14 21  1  0
 15 16  1  0
 14 15  1  1
 16 20  1  0
 17 18  1  0
 17 16  2  0
 18 19  1  0
 19 20  2  0
 21 22  2  0
 21 23  1  0
M  END
$$$$
