AVH.pdb
     RDKit          3D

 23 23  0  0  1  0  0  0  0  0999 V2000
    7.7526  -18.0114   17.2403 C   0  0  0  0  0  0  0  0  0  0  0  0
    8.4262  -16.6840   17.0035 C   0  0  2  0  0  0  0  0  0  0  0  0
    9.5443  -16.7763   16.0792 N   0  0  0  0  0  0  0  0  0  0  0  0
    8.9704  -16.1364   18.2792 C   0  0  0  0  0  0  0  0  0  0  0  0
   10.1107  -16.5135   18.6456 O   0  0  0  0  0  0  0  0  0  0  0  0
    6.6598  -13.8175   21.0635 C   0  0  0  0  0  0  0  0  0  0  0  0
    8.1076  -13.4642   20.6797 C   0  0  2  0  0  0  0  0  0  0  0  0
    7.9782  -12.4752   19.5489 C   0  0  0  0  0  0  0  0  0  0  0  0
    8.8285  -14.7235   20.3544 C   0  0  2  0  0  0  0  0  0  0  0  0
    8.2975  -15.2219   19.1096 N   0  0  0  0  0  0  0  0  0  0  0  0
    8.9077  -15.7341   21.4122 C   0  0  0  0  0  0  0  0  0  0  0  0
    8.1770  -16.7862   21.3325 O   0  0  0  0  0  0  0  0  0  0  0  0
    9.7431  -15.6513   22.5477 N   0  0  0  0  0  0  0  0  0  0  0  0
   10.4903  -16.8004   22.9787 C   0  0  1  0  0  0  0  0  0  0  0  0
   11.4678  -17.3231   21.9545 C   0  0  0  0  0  0  0  0  0  0  0  0
   12.1785  -18.5326   22.3999 C   0  0  0  0  0  0  0  0  0  0  0  0
   11.6825  -19.5286   23.1978 C   0  0  0  0  0  0  0  0  0  0  0  0
   12.6285  -20.4904   23.3877 N   0  0  0  0  0  0  0  0  0  0  0  0
   13.7073  -20.0742   22.6996 C   0  0  0  0  0  0  0  0  0  0  0  0
   13.4195  -18.8856   22.1068 N   0  0  0  0  0  0  0  0  0  0  0  0
   11.2881  -16.4411   24.1713 C   0  0  0  0  0  0  0  0  0  0  0  0
   11.3355  -15.2641   24.5534 O   0  0  0  0  0  0  0  0  0  0  0  0
   11.9720  -17.4231   24.8424 O   0  0  0  0  0  0  0  0  0  0  0  0
  2  1  1  1
  2  4  1  0
  2  3  1  0
  4  5  2  0
  7  6  1  6
  7  9  1  0
  8  7  1  0
  9 11  1  0
  9 10  1  6
 10  4  1  0
 11 12  2  0
 13 11  1  0
 13 14  1  0
 14 21  1  0
 15 16  1  0
 14 15  1  6
 16 20  1  0
 17 18  1  0
 17 16  2  0
 18 19  1  0
 19 20  2  0
 21 22  2  0
 21 23  1  0
M  END
$$$$
