AVH.pdb
     RDKit          3D

 23 23  0  0  1  0  0  0  0  0999 V2000
    7.6651  -18.8685   17.7364 C   0  0  0  0  0  0  0  0  0  0  0  0
    8.0312  -17.4889   17.2520 C   0  0  2  0  0  0  0  0  0  0  0  0
    9.0035  -17.5106   16.1715 N   0  0  0  0  0  0  0  0  0  0  0  0
    8.6361  -16.6884   18.3551 C   0  0  0  0  0  0  0  0  0  0  0  0
    9.8602  -16.8380   18.5917 O   0  0  0  0  0  0  0  0  0  0  0  0
    7.3463  -13.0199   19.2769 C   0  0  0  0  0  0  0  0  0  0  0  0
    7.5913  -13.8773   20.5311 C   0  0  2  0  0  0  0  0  0  0  0  0
    8.0649  -12.9032   21.5799 C   0  0  0  0  0  0  0  0  0  0  0  0
    8.5472  -14.9611   20.1803 C   0  0  2  0  0  0  0  0  0  0  0  0
    7.9333  -15.7709   19.1570 N   0  0  0  0  0  0  0  0  0  0  0  0
    9.1091  -15.7343   21.2907 C   0  0  0  0  0  0  0  0  0  0  0  0
    8.3661  -16.5797   21.9075 O   0  0  0  0  0  0  0  0  0  0  0  0
   10.4376  -15.6292   21.7575 N   0  0  0  0  0  0  0  0  0  0  0  0
   10.9697  -16.6227   22.6488 C   0  0  1  0  0  0  0  0  0  0  0  0
   11.0526  -18.0073   22.0539 C   0  0  0  0  0  0  0  0  0  0  0  0
   11.5229  -19.0200   23.0130 C   0  0  0  0  0  0  0  0  0  0  0  0
   11.1777  -19.1217   24.3340 C   0  0  0  0  0  0  0  0  0  0  0  0
   11.8041  -20.1909   24.9000 N   0  0  0  0  0  0  0  0  0  0  0  0
   12.5355  -20.7421   23.9142 C   0  0  0  0  0  0  0  0  0  0  0  0
   12.3553  -20.0209   22.7766 N   0  0  0  0  0  0  0  0  0  0  0  0
   12.3499  -16.2474   23.0256 C   0  0  0  0  0  0  0  0  0  0  0  0
   13.0232  -17.0004   23.7420 O   0  0  0  0  0  0  0  0  0  0  0  0
   12.8695  -15.0601   22.5751 O   0  0  0  0  0  0  0  0  0  0  0  0
  2  1  1  1
  2  4  1  0
  2  3  1  0
  4  5  2  0
  7  6  1  6
  7  9  1  0
  8  7  1  0
  9 11  1  0
  9 10  1  6
 10  4  1  0
 11 12  2  0
 13 11  1  0
 13 14  1  0
 14 21  1  0
 15 16  1  0
 14 15  1  6
 16 20  1  0
 17 18  1  0
 17 16  2  0
 18 19  1  0
 19 20  2  0
 21 22  2  0
 21 23  1  0
M  END
$$$$
