AVH.pdb
     RDKit          3D

 23 23  0  0  1  0  0  0  0  0999 V2000
    6.4443  -19.0835   19.2836 C   0  0  0  0  0  0  0  0  0  0  0  0
    7.0609  -17.9023   18.5790 C   0  0  2  0  0  0  0  0  0  0  0  0
    8.1056  -18.2864   17.6439 N   0  0  0  0  0  0  0  0  0  0  0  0
    7.6881  -16.9731   19.5622 C   0  0  0  0  0  0  0  0  0  0  0  0
    8.8248  -17.2645   20.0092 O   0  0  0  0  0  0  0  0  0  0  0  0
    7.4705  -13.0526   19.4161 C   0  0  0  0  0  0  0  0  0  0  0  0
    7.1168  -13.5587   20.8258 C   0  0  2  0  0  0  0  0  0  0  0  0
    7.6326  -12.4938   21.7604 C   0  0  0  0  0  0  0  0  0  0  0  0
    7.7084  -14.9116   21.0018 C   0  0  2  0  0  0  0  0  0  0  0  0
    7.0977  -15.7852   20.0304 N   0  0  0  0  0  0  0  0  0  0  0  0
    7.7245  -15.4562   22.3618 C   0  0  0  0  0  0  0  0  0  0  0  0
    6.6305  -15.8801   22.8823 O   0  0  0  0  0  0  0  0  0  0  0  0
    8.8727  -15.5597   23.1772 N   0  0  0  0  0  0  0  0  0  0  0  0
    8.8073  -16.2610   24.4295 C   0  0  1  0  0  0  0  0  0  0  0  0
    8.8411  -17.7642   24.2998 C   0  0  0  0  0  0  0  0  0  0  0  0
    7.5172  -18.3505   24.0354 C   0  0  0  0  0  0  0  0  0  0  0  0
    6.3118  -17.7018   24.0657 C   0  0  0  0  0  0  0  0  0  0  0  0
    5.3066  -18.5683   23.7578 N   0  0  0  0  0  0  0  0  0  0  0  0
    5.9072  -19.7524   23.5393 C   0  0  0  0  0  0  0  0  0  0  0  0
    7.2471  -19.6047   23.7120 N   0  0  0  0  0  0  0  0  0  0  0  0
    9.9752  -15.8873   25.2565 C   0  0  0  0  0  0  0  0  0  0  0  0
   10.0436  -16.2584   26.4361 O   0  0  0  0  0  0  0  0  0  0  0  0
   10.9742  -15.1269   24.7029 O   0  0  0  0  0  0  0  0  0  0  0  0
  2  1  1  1
  2  4  1  0
  2  3  1  0
  4  5  2  0
  7  6  1  6
  7  9  1  0
  8  7  1  0
  9 11  1  0
  9 10  1  6
 10  4  1  0
 11 12  2  0
 13 11  1  0
 13 14  1  0
 14 21  1  0
 15 16  1  0
 14 15  1  6
 16 20  1  0
 17 18  1  0
 17 16  2  0
 18 19  1  0
 19 20  2  0
 21 22  2  0
 21 23  1  0
M  END
$$$$
