AVH.pdb
     RDKit          3D

 23 23  0  0  1  0  0  0  0  0999 V2000
    7.2182  -18.7767   17.5710 C   0  0  0  0  0  0  0  0  0  0  0  0
    7.4022  -17.4088   16.9652 C   0  0  2  0  0  0  0  0  0  0  0  0
    8.1446  -17.4410   15.7158 N   0  0  0  0  0  0  0  0  0  0  0  0
    8.1632  -16.5223   17.8918 C   0  0  0  0  0  0  0  0  0  0  0  0
    9.4129  -16.6390   17.9284 O   0  0  0  0  0  0  0  0  0  0  0  0
    8.3149  -12.7820   21.0997 C   0  0  0  0  0  0  0  0  0  0  0  0
    7.5087  -13.6266   20.0972 C   0  0  2  0  0  0  0  0  0  0  0  0
    6.1942  -13.8945   20.7855 C   0  0  0  0  0  0  0  0  0  0  0  0
    8.3086  -14.8300   19.7459 C   0  0  2  0  0  0  0  0  0  0  0  0
    7.5822  -15.5574   18.7345 N   0  0  0  0  0  0  0  0  0  0  0  0
    8.7743  -15.6639   20.8568 C   0  0  0  0  0  0  0  0  0  0  0  0
    7.9647  -16.5004   21.3973 O   0  0  0  0  0  0  0  0  0  0  0  0
   10.0758  -15.6285   21.4032 N   0  0  0  0  0  0  0  0  0  0  0  0
   10.4003  -16.4359   22.5466 C   0  0  1  0  0  0  0  0  0  0  0  0
   11.6525  -17.2627   22.3855 C   0  0  0  0  0  0  0  0  0  0  0  0
   11.4732  -18.4116   21.4831 C   0  0  0  0  0  0  0  0  0  0  0  0
   10.3405  -19.1654   21.3298 C   0  0  0  0  0  0  0  0  0  0  0  0
   10.5481  -20.1369   20.3975 N   0  0  0  0  0  0  0  0  0  0  0  0
   11.8173  -19.9712   19.9822 C   0  0  0  0  0  0  0  0  0  0  0  0
   12.3653  -18.9220   20.6498 N   0  0  0  0  0  0  0  0  0  0  0  0
   10.6288  -15.5557   23.7131 C   0  0  0  0  0  0  0  0  0  0  0  0
   10.6475  -14.3261   23.5673 O   0  0  0  0  0  0  0  0  0  0  0  0
   10.8208  -16.1170   24.9504 O   0  0  0  0  0  0  0  0  0  0  0  0
  2  1  1  1
  2  4  1  0
  2  3  1  0
  4  5  2  0
  7  6  1  1
  7  9  1  0
  8  7  1  0
  9 11  1  0
  9 10  1  6
 10  4  1  0
 11 12  2  0
 13 11  1  0
 13 14  1  0
 14 21  1  0
 15 16  1  0
 14 15  1  6
 16 20  1  0
 17 18  1  0
 17 16  2  0
 18 19  1  0
 19 20  2  0
 21 22  2  0
 21 23  1  0
M  END
$$$$
