AVH.pdb
     RDKit          3D

 23 23  0  0  1  0  0  0  0  0999 V2000
   10.1723  -17.6412   16.6276 C   0  0  0  0  0  0  0  0  0  0  0  0
    9.9151  -16.1793   16.3660 C   0  0  2  0  0  0  0  0  0  0  0  0
   10.8432  -15.6070   15.4045 N   0  0  0  0  0  0  0  0  0  0  0  0
   10.0589  -15.3880   17.6217 C   0  0  0  0  0  0  0  0  0  0  0  0
   11.2120  -15.0290   17.9656 O   0  0  0  0  0  0  0  0  0  0  0  0
    7.8142  -12.4182   18.9978 C   0  0  0  0  0  0  0  0  0  0  0  0
    7.9093  -13.5825   19.9997 C   0  0  2  0  0  0  0  0  0  0  0  0
    7.8273  -12.9326   21.3577 C   0  0  0  0  0  0  0  0  0  0  0  0
    9.1586  -14.3402   19.7228 C   0  0  2  0  0  0  0  0  0  0  0  0
    8.9917  -15.0102   18.4566 N   0  0  0  0  0  0  0  0  0  0  0  0
    9.6578  -15.2087   20.7919 C   0  0  0  0  0  0  0  0  0  0  0  0
    9.0761  -16.3311   21.0133 O   0  0  0  0  0  0  0  0  0  0  0  0
   10.7570  -14.9116   21.6270 N   0  0  0  0  0  0  0  0  0  0  0  0
   11.1688  -15.8468   22.6372 C   0  0  1  0  0  0  0  0  0  0  0  0
   12.5452  -15.5857   23.1984 C   0  0  0  0  0  0  0  0  0  0  0  0
   13.6177  -15.7771   22.2085 C   0  0  0  0  0  0  0  0  0  0  0  0
   13.6312  -16.6776   21.1773 C   0  0  0  0  0  0  0  0  0  0  0  0
   14.7865  -16.5562   20.4655 N   0  0  0  0  0  0  0  0  0  0  0  0
   15.4796  -15.5741   21.0703 C   0  0  0  0  0  0  0  0  0  0  0  0
   14.7586  -15.1122   22.1256 N   0  0  0  0  0  0  0  0  0  0  0  0
   10.2317  -15.7714   23.7791 C   0  0  0  0  0  0  0  0  0  0  0  0
    9.3393  -14.9128   23.7928 O   0  0  0  0  0  0  0  0  0  0  0  0
   10.3653  -16.6588   24.8171 O   0  0  0  0  0  0  0  0  0  0  0  0
  2  1  1  1
  2  4  1  0
  2  3  1  0
  4  5  2  0
  7  6  1  6
  7  9  1  0
  8  7  1  0
  9 11  1  0
  9 10  1  6
 10  4  1  0
 11 12  2  0
 13 11  1  0
 13 14  1  0
 14 21  1  0
 15 16  1  0
 14 15  1  1
 16 20  1  0
 17 18  1  0
 17 16  2  0
 18 19  1  0
 19 20  2  0
 21 22  2  0
 21 23  1  0
M  END
$$$$
