AVH.pdb
     RDKit          3D

 23 23  0  0  1  0  0  0  0  0999 V2000
    7.6292  -18.6415   17.5814 C   0  0  0  0  0  0  0  0  0  0  0  0
    8.0210  -17.2396   17.1901 C   0  0  2  0  0  0  0  0  0  0  0  0
    9.0565  -17.2078   16.1703 N   0  0  0  0  0  0  0  0  0  0  0  0
    8.5570  -16.4965   18.3665 C   0  0  0  0  0  0  0  0  0  0  0  0
    9.7791  -16.6106   18.6312 O   0  0  0  0  0  0  0  0  0  0  0  0
    7.2823  -12.8997   19.4449 C   0  0  0  0  0  0  0  0  0  0  0  0
    7.3758  -13.8463   20.6547 C   0  0  2  0  0  0  0  0  0  0  0  0
    7.7675  -12.9606   21.8102 C   0  0  0  0  0  0  0  0  0  0  0  0
    8.3322  -14.9366   20.3259 C   0  0  2  0  0  0  0  0  0  0  0  0
    7.7906  -15.6706   19.2088 N   0  0  0  0  0  0  0  0  0  0  0  0
    8.7759  -15.7856   21.4343 C   0  0  0  0  0  0  0  0  0  0  0  0
    7.9370  -16.5808   21.9920 O   0  0  0  0  0  0  0  0  0  0  0  0
   10.0862  -15.8081   21.9604 N   0  0  0  0  0  0  0  0  0  0  0  0
   10.4011  -16.6574   23.0757 C   0  0  1  0  0  0  0  0  0  0  0  0
   11.7797  -17.2689   23.0183 C   0  0  0  0  0  0  0  0  0  0  0  0
   11.9113  -18.2981   21.9743 C   0  0  0  0  0  0  0  0  0  0  0  0
   10.9109  -19.0806   21.4630 C   0  0  0  0  0  0  0  0  0  0  0  0
   11.4101  -19.9111   20.5053 N   0  0  0  0  0  0  0  0  0  0  0  0
   12.7242  -19.6301   20.4354 C   0  0  0  0  0  0  0  0  0  0  0  0
   13.0131  -18.6509   21.3324 N   0  0  0  0  0  0  0  0  0  0  0  0
   10.3493  -15.8616   24.3214 C   0  0  0  0  0  0  0  0  0  0  0  0
   10.1822  -14.6357   24.2672 O   0  0  0  0  0  0  0  0  0  0  0  0
   10.4904  -16.4961   25.5298 O   0  0  0  0  0  0  0  0  0  0  0  0
  2  1  1  1
  2  4  1  0
  2  3  1  0
  4  5  2  0
  7  6  1  6
  7  9  1  0
  8  7  1  0
  9 11  1  0
  9 10  1  6
 10  4  1  0
 11 12  2  0
 13 11  1  0
 13 14  1  0
 14 21  1  0
 15 16  1  0
 14 15  1  6
 16 20  1  0
 17 18  1  0
 17 16  2  0
 18 19  1  0
 19 20  2  0
 21 22  2  0
 21 23  1  0
M  END
$$$$
