AVH.pdb
     RDKit          3D

 23 23  0  0  1  0  0  0  0  0999 V2000
    5.1830  -18.1954   21.8095 C   0  0  0  0  0  0  0  0  0  0  0  0
    5.7716  -17.6883   20.5179 C   0  0  2  0  0  0  0  0  0  0  0  0
    6.1489  -18.7602   19.6113 N   0  0  0  0  0  0  0  0  0  0  0  0
    7.0069  -16.8952   20.7795 C   0  0  0  0  0  0  0  0  0  0  0  0
    8.0828  -17.5179   20.9571 O   0  0  0  0  0  0  0  0  0  0  0  0
    7.1280  -12.5741   21.2979 C   0  0  0  0  0  0  0  0  0  0  0  0
    8.1048  -13.4074   20.4494 C   0  0  2  0  0  0  0  0  0  0  0  0
    7.5063  -13.4153   19.0656 C   0  0  0  0  0  0  0  0  0  0  0  0
    8.2648  -14.7401   21.0895 C   0  0  2  0  0  0  0  0  0  0  0  0
    7.0585  -15.4909   20.8426 N   0  0  0  0  0  0  0  0  0  0  0  0
    8.6968  -14.7555   22.4893 C   0  0  0  0  0  0  0  0  0  0  0  0
    8.2524  -13.8601   23.2944 O   0  0  0  0  0  0  0  0  0  0  0  0
    9.5867  -15.6977   23.0498 N   0  0  0  0  0  0  0  0  0  0  0  0
    9.8968  -15.6516   24.4521 C   0  0  1  0  0  0  0  0  0  0  0  0
    8.7321  -15.9773   25.3547 C   0  0  0  0  0  0  0  0  0  0  0  0
    7.8667  -14.8169   25.6214 C   0  0  0  0  0  0  0  0  0  0  0  0
    8.2634  -13.5151   25.7721 C   0  0  0  0  0  0  0  0  0  0  0  0
    7.1807  -12.7196   25.9978 N   0  0  0  0  0  0  0  0  0  0  0  0
    6.1186  -13.5457   25.9841 C   0  0  0  0  0  0  0  0  0  0  0  0
    6.5504  -14.8138   25.7556 N   0  0  0  0  0  0  0  0  0  0  0  0
   10.9471  -16.6497   24.7498 C   0  0  0  0  0  0  0  0  0  0  0  0
   11.4116  -16.7378   25.8944 O   0  0  0  0  0  0  0  0  0  0  0  0
   11.3980  -17.4696   23.7463 O   0  0  0  0  0  0  0  0  0  0  0  0
  2  1  1  1
  2  4  1  0
  2  3  1  0
  4  5  2  0
  7  6  1  1
  7  9  1  0
  8  7  1  0
  9 11  1  0
  9 10  1  1
 10  4  1  0
 11 12  2  0
 13 11  1  0
 13 14  1  0
 14 21  1  0
 15 16  1  0
 14 15  1  1
 16 20  1  0
 17 18  1  0
 17 16  2  0
 18 19  1  0
 19 20  2  0
 21 22  2  0
 21 23  1  0
M  END
$$$$
