AVH.pdb
     RDKit          3D

 23 23  0  0  1  0  0  0  0  0999 V2000
    5.9546  -19.9671   22.9281 C   0  0  0  0  0  0  0  0  0  0  0  0
    5.2076  -18.7545   23.4215 C   0  0  2  0  0  0  0  0  0  0  0  0
    3.9028  -18.6043   22.7987 N   0  0  0  0  0  0  0  0  0  0  0  0
    5.9707  -17.5092   23.1204 C   0  0  0  0  0  0  0  0  0  0  0  0
    5.8784  -17.0238   21.9661 O   0  0  0  0  0  0  0  0  0  0  0  0
    8.3835  -15.6096   26.0294 C   0  0  0  0  0  0  0  0  0  0  0  0
    7.6327  -14.8160   24.9454 C   0  0  2  0  0  0  0  0  0  0  0  0
    6.3098  -14.4578   25.5739 C   0  0  0  0  0  0  0  0  0  0  0  0
    7.5571  -15.6521   23.7180 C   0  0  2  0  0  0  0  0  0  0  0  0
    6.7925  -16.8318   24.0395 N   0  0  0  0  0  0  0  0  0  0  0  0
    8.8189  -15.9329   23.0285 C   0  0  0  0  0  0  0  0  0  0  0  0
    9.3348  -17.1050   23.1141 O   0  0  0  0  0  0  0  0  0  0  0  0
    9.5412  -14.9994   22.2534 N   0  0  0  0  0  0  0  0  0  0  0  0
   10.6557  -15.4323   21.4565 C   0  0  1  0  0  0  0  0  0  0  0  0
   10.9908  -14.5116   20.3086 C   0  0  0  0  0  0  0  0  0  0  0  0
    9.8749  -14.3365   19.3648 C   0  0  0  0  0  0  0  0  0  0  0  0
    9.1866  -13.1799   19.1136 C   0  0  0  0  0  0  0  0  0  0  0  0
    8.2279  -13.4015   18.1714 N   0  0  0  0  0  0  0  0  0  0  0  0
    8.3354  -14.7035   17.8487 C   0  0  0  0  0  0  0  0  0  0  0  0
    9.3375  -15.2570   18.5809 N   0  0  0  0  0  0  0  0  0  0  0  0
   11.8644  -15.4958   22.3067 C   0  0  0  0  0  0  0  0  0  0  0  0
   11.8084  -15.1389   23.4912 O   0  0  0  0  0  0  0  0  0  0  0  0
   13.0414  -15.9507   21.7676 O   0  0  0  0  0  0  0  0  0  0  0  0
  2  1  1  6
  2  4  1  0
  2  3  1  0
  4  5  2  0
  7  6  1  1
  7  9  1  0
  8  7  1  0
  9 11  1  0
  9 10  1  1
 10  4  1  0
 11 12  2  0
 13 11  1  0
 13 14  1  0
 14 21  1  0
 15 16  1  0
 14 15  1  6
 16 20  1  0
 17 18  1  0
 17 16  2  0
 18 19  1  0
 19 20  2  0
 21 22  2  0
 21 23  1  0
M  END
$$$$
