AVH.pdb
     RDKit          3D

 23 23  0  0  1  0  0  0  0  0999 V2000
    7.5294  -18.7566   17.4958 C   0  0  0  0  0  0  0  0  0  0  0  0
    7.7916  -17.3545   17.0088 C   0  0  2  0  0  0  0  0  0  0  0  0
    8.6831  -17.3139   15.8613 N   0  0  0  0  0  0  0  0  0  0  0  0
    8.4347  -16.5387   18.0785 C   0  0  0  0  0  0  0  0  0  0  0  0
    9.6821  -16.6070   18.2049 O   0  0  0  0  0  0  0  0  0  0  0  0
    7.3625  -12.8703   19.2119 C   0  0  0  0  0  0  0  0  0  0  0  0
    7.4665  -13.8373   20.4046 C   0  0  2  0  0  0  0  0  0  0  0  0
    7.9249  -12.9815   21.5582 C   0  0  0  0  0  0  0  0  0  0  0  0
    8.3761  -14.9519   20.0283 C   0  0  2  0  0  0  0  0  0  0  0  0
    7.7438  -15.6914   18.9638 N   0  0  0  0  0  0  0  0  0  0  0  0
    8.8793  -15.7931   21.1172 C   0  0  0  0  0  0  0  0  0  0  0  0
    8.0566  -16.5216   21.7805 O   0  0  0  0  0  0  0  0  0  0  0  0
   10.2317  -15.8769   21.5146 N   0  0  0  0  0  0  0  0  0  0  0  0
   10.6209  -16.7790   22.5630 C   0  0  1  0  0  0  0  0  0  0  0  0
   11.7488  -17.7103   22.1914 C   0  0  0  0  0  0  0  0  0  0  0  0
   11.3329  -18.7824   21.2725 C   0  0  0  0  0  0  0  0  0  0  0  0
   10.1188  -19.4148   21.2458 C   0  0  0  0  0  0  0  0  0  0  0  0
   10.0983  -20.3455   20.2511 N   0  0  0  0  0  0  0  0  0  0  0  0
   11.3100  -20.2772   19.6699 C   0  0  0  0  0  0  0  0  0  0  0  0
   12.0474  -19.3257   20.3005 N   0  0  0  0  0  0  0  0  0  0  0  0
   11.0922  -15.9966   23.7264 C   0  0  0  0  0  0  0  0  0  0  0  0
   11.2540  -14.7729   23.6257 O   0  0  0  0  0  0  0  0  0  0  0  0
   11.3480  -16.6415   24.9102 O   0  0  0  0  0  0  0  0  0  0  0  0
  2  1  1  1
  2  4  1  0
  2  3  1  0
  4  5  2  0
  7  6  1  6
  7  9  1  0
  8  7  1  0
  9 11  1  0
  9 10  1  6
 10  4  1  0
 11 12  2  0
 13 11  1  0
 13 14  1  0
 14 21  1  0
 15 16  1  0
 14 15  1  6
 16 20  1  0
 17 18  1  0
 17 16  2  0
 18 19  1  0
 19 20  2  0
 21 22  2  0
 21 23  1  0
M  END
$$$$
