AVH.pdb
     RDKit          3D

 23 23  0  0  1  0  0  0  0  0999 V2000
    8.4812  -17.1427   15.4154 C   0  0  0  0  0  0  0  0  0  0  0  0
    7.9603  -18.4413   15.9760 C   0  0  2  0  0  0  0  0  0  0  0  0
    6.5637  -18.6766   15.6484 N   0  0  0  0  0  0  0  0  0  0  0  0
    8.0570  -18.4472   17.4640 C   0  0  0  0  0  0  0  0  0  0  0  0
    7.1476  -17.8794   18.1178 O   0  0  0  0  0  0  0  0  0  0  0  0
    8.6239  -21.5481   19.5014 C   0  0  0  0  0  0  0  0  0  0  0  0
    9.6361  -20.4948   19.9855 C   0  0  2  0  0  0  0  0  0  0  0  0
    9.8035  -20.7671   21.4590 C   0  0  0  0  0  0  0  0  0  0  0  0
    9.1158  -19.1466   19.6348 C   0  0  2  0  0  0  0  0  0  0  0  0
    9.0983  -19.0457   18.1963 N   0  0  0  0  0  0  0  0  0  0  0  0
    9.7397  -18.0012   20.3021 C   0  0  0  0  0  0  0  0  0  0  0  0
   10.9131  -17.6263   19.9417 O   0  0  0  0  0  0  0  0  0  0  0  0
    9.1462  -17.2487   21.3392 N   0  0  0  0  0  0  0  0  0  0  0  0
    9.8352  -16.1165   21.8940 C   0  0  1  0  0  0  0  0  0  0  0  0
    8.9521  -14.9203   22.1529 C   0  0  0  0  0  0  0  0  0  0  0  0
    8.4708  -14.2804   20.9178 C   0  0  0  0  0  0  0  0  0  0  0  0
    8.9374  -14.4928   19.6482 C   0  0  0  0  0  0  0  0  0  0  0  0
    8.2411  -13.7293   18.7604 N   0  0  0  0  0  0  0  0  0  0  0  0
    7.3449  -13.0480   19.4976 C   0  0  0  0  0  0  0  0  0  0  0  0
    7.4969  -13.3921   20.8034 N   0  0  0  0  0  0  0  0  0  0  0  0
   10.4180  -16.4950   23.1996 C   0  0  0  0  0  0  0  0  0  0  0  0
   10.0616  -17.5418   23.7572 O   0  0  0  0  0  0  0  0  0  0  0  0
   11.3512  -15.6746   23.7816 O   0  0  0  0  0  0  0  0  0  0  0  0
  2  1  1  1
  2  4  1  0
  2  3  1  0
  4  5  2  0
  7  6  1  1
  7  9  1  0
  8  7  1  0
  9 11  1  0
  9 10  1  6
 10  4  1  0
 11 12  2  0
 13 11  1  0
 13 14  1  0
 14 21  1  0
 15 16  1  0
 14 15  1  1
 16 20  1  0
 17 18  1  0
 17 16  2  0
 18 19  1  0
 19 20  2  0
 21 22  2  0
 21 23  1  0
M  END
$$$$
