AVH.pdb
     RDKit          3D

 23 23  0  0  1  0  0  0  0  0999 V2000
    7.4868  -18.8992   18.1971 C   0  0  0  0  0  0  0  0  0  0  0  0
    7.8490  -17.5714   17.5825 C   0  0  2  0  0  0  0  0  0  0  0  0
    8.8128  -17.6950   16.5013 N   0  0  0  0  0  0  0  0  0  0  0  0
    8.4624  -16.6714   18.6009 C   0  0  0  0  0  0  0  0  0  0  0  0
    9.6975  -16.7663   18.8066 O   0  0  0  0  0  0  0  0  0  0  0  0
    7.6015  -12.8385   19.0873 C   0  0  0  0  0  0  0  0  0  0  0  0
    7.5147  -13.6157   20.4127 C   0  0  2  0  0  0  0  0  0  0  0  0
    7.9169  -12.6211   21.4721 C   0  0  0  0  0  0  0  0  0  0  0  0
    8.3733  -14.8251   20.3057 C   0  0  2  0  0  0  0  0  0  0  0  0
    7.7562  -15.7163   19.3545 N   0  0  0  0  0  0  0  0  0  0  0  0
    8.7632  -15.4743   21.5599 C   0  0  0  0  0  0  0  0  0  0  0  0
    7.8905  -16.1482   22.2168 O   0  0  0  0  0  0  0  0  0  0  0  0
   10.0547  -15.4232   22.1286 N   0  0  0  0  0  0  0  0  0  0  0  0
   10.5072  -16.4827   22.9872 C   0  0  1  0  0  0  0  0  0  0  0  0
   10.5786  -17.8338   22.3185 C   0  0  0  0  0  0  0  0  0  0  0  0
   10.9744  -18.9126   23.2383 C   0  0  0  0  0  0  0  0  0  0  0  0
   10.8221  -18.9277   24.5989 C   0  0  0  0  0  0  0  0  0  0  0  0
   11.2973  -20.0979   25.1096 N   0  0  0  0  0  0  0  0  0  0  0  0
   11.7419  -20.7982   24.0500 C   0  0  0  0  0  0  0  0  0  0  0  0
   11.5401  -20.0663   22.9229 N   0  0  0  0  0  0  0  0  0  0  0  0
   11.8762  -16.1764   23.4558 C   0  0  0  0  0  0  0  0  0  0  0  0
   12.3669  -16.8156   24.3962 O   0  0  0  0  0  0  0  0  0  0  0  0
   12.5894  -15.1792   22.8396 O   0  0  0  0  0  0  0  0  0  0  0  0
  2  1  1  1
  2  4  1  0
  2  3  1  0
  4  5  2  0
  7  6  1  6
  7  9  1  0
  8  7  1  0
  9 11  1  0
  9 10  1  6
 10  4  1  0
 11 12  2  0
 13 11  1  0
 13 14  1  0
 14 21  1  0
 15 16  1  0
 14 15  1  6
 16 20  1  0
 17 18  1  0
 17 16  2  0
 18 19  1  0
 19 20  2  0
 21 22  2  0
 21 23  1  0
M  END
$$$$
