AVH.pdb
     RDKit          3D

 23 23  0  0  1  0  0  0  0  0999 V2000
    6.9823  -16.3196   21.1546 C   0  0  0  0  0  0  0  0  0  0  0  0
    7.4158  -14.8910   21.3618 C   0  0  2  0  0  0  0  0  0  0  0  0
    8.4374  -14.4694   20.4175 N   0  0  0  0  0  0  0  0  0  0  0  0
    7.9929  -14.7098   22.7247 C   0  0  0  0  0  0  0  0  0  0  0  0
    9.2294  -14.8728   22.8697 O   0  0  0  0  0  0  0  0  0  0  0  0
    6.7761  -12.0262   25.2187 C   0  0  0  0  0  0  0  0  0  0  0  0
    6.9323  -13.3535   25.9818 C   0  0  2  0  0  0  0  0  0  0  0  0
    7.4502  -12.9597   27.3419 C   0  0  0  0  0  0  0  0  0  0  0  0
    7.8169  -14.2495   25.1905 C   0  0  2  0  0  0  0  0  0  0  0  0
    7.2505  -14.3672   23.8695 N   0  0  0  0  0  0  0  0  0  0  0  0
    8.1748  -15.5334   25.7987 C   0  0  0  0  0  0  0  0  0  0  0  0
    7.8104  -16.6232   25.2271 O   0  0  0  0  0  0  0  0  0  0  0  0
    8.9083  -15.6836   26.9959 N   0  0  0  0  0  0  0  0  0  0  0  0
    9.9047  -16.7129   27.1070 C   0  0  1  0  0  0  0  0  0  0  0  0
   11.0902  -16.5284   26.1914 C   0  0  0  0  0  0  0  0  0  0  0  0
   10.9527  -17.2513   24.9167 C   0  0  0  0  0  0  0  0  0  0  0  0
    9.9158  -18.0629   24.5415 C   0  0  0  0  0  0  0  0  0  0  0  0
   10.1329  -18.5495   23.2877 N   0  0  0  0  0  0  0  0  0  0  0  0
   11.3114  -18.0289   22.8992 C   0  0  0  0  0  0  0  0  0  0  0  0
   11.7965  -17.2448   23.8975 N   0  0  0  0  0  0  0  0  0  0  0  0
   10.4402  -16.7232   28.4857 C   0  0  0  0  0  0  0  0  0  0  0  0
   10.8069  -17.7883   29.0002 O   0  0  0  0  0  0  0  0  0  0  0  0
   10.5224  -15.5442   29.1829 O   0  0  0  0  0  0  0  0  0  0  0  0
  2  1  1  6
  2  4  1  0
  2  3  1  0
  4  5  2  0
  7  6  1  6
  7  9  1  0
  8  7  1  0
  9 11  1  0
  9 10  1  6
 10  4  1  0
 11 12  2  0
 13 11  1  0
 13 14  1  0
 14 21  1  0
 15 16  1  0
 14 15  1  6
 16 20  1  0
 17 18  1  0
 17 16  2  0
 18 19  1  0
 19 20  2  0
 21 22  2  0
 21 23  1  0
M  END
$$$$
