KRW.pdb
     RDKit          3D

 35 36  0  0  1  0  0  0  0  0999 V2000
    9.5800  -14.9959   18.2893 N   0  0  0  0  0  0  0  0  0  0  0  0
    8.8322  -14.3449   19.3445 C   0  0  1  0  0  0  0  0  0  0  0  0
    7.4179  -14.0926   18.9389 C   0  0  0  0  0  0  0  0  0  0  0  0
    7.4765  -13.2618   17.6593 C   0  0  0  0  0  0  0  0  0  0  0  0
    7.5109  -14.1250   16.4251 C   0  0  0  0  0  0  0  0  0  0  0  0
    7.5958  -13.3424   15.1474 C   0  0  0  0  0  0  0  0  0  0  0  0
    7.6183  -14.3236   14.0561 N   0  0  0  0  0  0  0  0  0  0  0  0
    8.9849  -15.1768   20.5582 C   0  0  0  0  0  0  0  0  0  0  0  0
    8.2797  -15.0293   21.5941 O   0  0  0  0  0  0  0  0  0  0  0  0
   11.4652  -20.3369   16.9213 N   0  0  0  0  0  0  0  0  0  0  0  0
   11.1891  -21.1365   18.0746 C   0  0  0  0  0  0  0  0  0  0  0  0
   10.5579  -22.2585   17.9957 N   0  0  0  0  0  0  0  0  0  0  0  0
   11.6017  -20.7325   19.3876 N   0  0  0  0  0  0  0  0  0  0  0  0
   12.3885  -19.5440   19.5745 C   0  0  0  0  0  0  0  0  0  0  0  0
   11.6291  -18.3268   19.9711 C   0  0  0  0  0  0  0  0  0  0  0  0
   10.8237  -18.4069   21.2250 C   0  0  0  0  0  0  0  0  0  0  0  0
   10.0967  -17.1930   21.6336 C   0  0  2  0  0  0  0  0  0  0  0  0
    9.9536  -16.1945   20.6007 N   0  0  0  0  0  0  0  0  0  0  0  0
   10.4935  -16.6058   22.9281 C   0  0  0  0  0  0  0  0  0  0  0  0
   11.4134  -15.7510   22.9187 O   0  0  0  0  0  0  0  0  0  0  0  0
   10.3768  -22.7721   18.8866 N   0  0  0  0  0  0  0  0  0  0  0  0
    9.9091  -16.9439   24.1670 C   0  0  2  0  0  0  0  0  0  0  0  0
   10.1372  -16.2338   25.4047 C   0  0  0  0  0  0  0  0  0  0  0  0
    9.8299  -14.7589   25.3047 C   0  0  0  0  0  0  0  0  0  0  0  0
    8.4214  -14.4499   25.5469 C   0  0  0  0  0  0  0  0  0  0  0  0
    7.3670  -15.3201   25.3360 N   0  0  0  0  0  0  0  0  0  0  0  0
    6.2169  -14.7374   25.6557 C   0  0  0  0  0  0  0  0  0  0  0  0
    6.4468  -13.4833   26.0834 C   0  0  0  0  0  0  0  0  0  0  0  0
    5.6176  -12.4904   26.5195 C   0  0  0  0  0  0  0  0  0  0  0  0
    6.1819  -11.2859   26.8975 C   0  0  0  0  0  0  0  0  0  0  0  0
    7.5305  -11.0942   26.8365 C   0  0  0  0  0  0  0  0  0  0  0  0
    8.3776  -12.0803   26.4010 C   0  0  0  0  0  0  0  0  0  0  0  0
    7.8214  -13.2882   26.0212 C   0  0  0  0  0  0  0  0  0  0  0  0
    9.3911  -16.8813   26.5131 O   0  0  0  0  0  0  0  0  0  0  0  0
    8.5714  -17.7923   26.2324 O   0  0  0  0  0  0  0  0  0  0  0  0
  2  1  1  6
  2  3  1  0
  3  4  1  0
  5  6  1  0
  5  4  1  0
  7  6  1  0
  8  2  1  0
  8  9  2  0
 10 11  1  0
 11 13  1  0
 12 11  2  0
 13 14  1  0
 14 15  1  0
 15 16  1  0
 17 16  1  6
 17 18  1  0
 18  8  1  0
 19 17  1  0
 19 21  1  0
 20 19  2  0
 22 21  1  0
 22 33  1  0
 22 23  1  6
 24 23  1  0
 24 25  2  0
 26 25  1  0
 27 32  2  0
 27 26  1  0
 28 27  1  0
 29 30  1  0
 29 28  2  0
 30 31  2  0
 31 32  1  0
 32 24  1  0
 33 34  2  0
 33 35  1  0
M  END
$$$$
