KRW.pdb
     RDKit          3D

 35 36  0  0  1  0  0  0  0  0999 V2000
   10.0954  -19.2275   20.9230 N   0  0  0  0  0  0  0  0  0  0  0  0
   11.2468  -18.3774   20.7030 C   0  0  1  0  0  0  0  0  0  0  0  0
   11.6391  -18.3474   19.2630 C   0  0  0  0  0  0  0  0  0  0  0  0
   11.1815  -19.6744   18.6624 C   0  0  0  0  0  0  0  0  0  0  0  0
   11.6439  -19.8404   17.2382 C   0  0  0  0  0  0  0  0  0  0  0  0
   11.2643  -21.1606   16.6339 C   0  0  0  0  0  0  0  0  0  0  0  0
   11.8854  -21.2068   15.3049 N   0  0  0  0  0  0  0  0  0  0  0  0
   10.9228  -17.0543   21.2799 C   0  0  0  0  0  0  0  0  0  0  0  0
   11.7702  -16.1289   21.4134 O   0  0  0  0  0  0  0  0  0  0  0  0
    9.0128  -14.9681   17.0817 N   0  0  0  0  0  0  0  0  0  0  0  0
    8.1931  -13.8319   17.3693 C   0  0  0  0  0  0  0  0  0  0  0  0
    8.4583  -12.6594   16.9018 N   0  0  0  0  0  0  0  0  0  0  0  0
    7.0257  -13.9352   18.1964 N   0  0  0  0  0  0  0  0  0  0  0  0
    7.1025  -13.6707   19.6073 C   0  0  0  0  0  0  0  0  0  0  0  0
    8.2710  -14.2678   20.3099 C   0  0  0  0  0  0  0  0  0  0  0  0
    8.0132  -14.9108   21.6318 C   0  0  0  0  0  0  0  0  0  0  0  0
    9.1618  -15.5377   22.3078 C   0  0  2  0  0  0  0  0  0  0  0  0
    9.6157  -16.7728   21.7138 N   0  0  0  0  0  0  0  0  0  0  0  0
    9.0802  -15.6214   23.7790 C   0  0  0  0  0  0  0  0  0  0  0  0
    7.9533  -15.8478   24.2847 O   0  0  0  0  0  0  0  0  0  0  0  0
    7.8795  -11.8617   17.2471 N   0  0  0  0  0  0  0  0  0  0  0  0
   10.1814  -15.4623   24.6466 C   0  0  1  0  0  0  0  0  0  0  0  0
   10.1552  -15.7310   26.0662 C   0  0  0  0  0  0  0  0  0  0  0  0
    8.8213  -16.2532   26.5438 C   0  0  0  0  0  0  0  0  0  0  0  0
    7.7150  -15.3395   26.2626 C   0  0  0  0  0  0  0  0  0  0  0  0
    6.5659  -15.6698   25.5668 N   0  0  0  0  0  0  0  0  0  0  0  0
    5.7571  -14.6191   25.4867 C   0  0  0  0  0  0  0  0  0  0  0  0
    6.3166  -13.5669   26.1098 C   0  0  0  0  0  0  0  0  0  0  0  0
    5.8996  -12.2818   26.3059 C   0  0  0  0  0  0  0  0  0  0  0  0
    6.7289  -11.4247   27.0057 C   0  0  0  0  0  0  0  0  0  0  0  0
    7.9313  -11.8508   27.4872 C   0  0  0  0  0  0  0  0  0  0  0  0
    8.3655  -13.1376   27.2993 C   0  0  0  0  0  0  0  0  0  0  0  0
    7.5420  -14.0015   26.6006 C   0  0  0  0  0  0  0  0  0  0  0  0
   11.2705  -16.6380   26.4377 O   0  0  0  0  0  0  0  0  0  0  0  0
   11.3633  -17.0156   27.6333 O   0  0  0  0  0  0  0  0  0  0  0  0
  2  1  1  6
  2  3  1  0
  3  4  1  0
  5  6  1  0
  5  4  1  0
  7  6  1  0
  8  2  1  0
  8  9  2  0
 10 11  1  0
 11 13  1  0
 12 11  2  0
 13 14  1  0
 14 15  1  0
 15 16  1  0
 17 16  1  6
 17 18  1  0
 18  8  1  0
 19 17  1  0
 19 21  1  0
 20 19  2  0
 22 21  1  0
 22 33  1  0
 22 23  1  1
 24 23  1  0
 24 25  2  0
 26 25  1  0
 27 32  2  0
 27 26  1  0
 28 27  1  0
 29 30  1  0
 29 28  2  0
 30 31  2  0
 31 32  1  0
 32 24  1  0
 33 34  2  0
 33 35  1  0
M  END
$$$$
