KRW.pdb
     RDKit          3D

 35 36  0  0  1  0  0  0  0  0999 V2000
    7.4890  -17.6639   20.1124 N   0  0  0  0  0  0  0  0  0  0  0  0
    8.7374  -16.9400   19.9923 C   0  0  1  0  0  0  0  0  0  0  0  0
    8.5066  -15.4824   19.7675 C   0  0  0  0  0  0  0  0  0  0  0  0
    7.8140  -15.3581   18.4125 C   0  0  0  0  0  0  0  0  0  0  0  0
    7.5558  -13.9218   18.0386 C   0  0  0  0  0  0  0  0  0  0  0  0
    7.0297  -13.7499   16.6436 C   0  0  0  0  0  0  0  0  0  0  0  0
    6.8243  -12.3098   16.4480 N   0  0  0  0  0  0  0  0  0  0  0  0
    9.5378  -17.2577   21.1951 C   0  0  0  0  0  0  0  0  0  0  0  0
    9.0420  -17.7351   22.2527 O   0  0  0  0  0  0  0  0  0  0  0  0
   16.0417  -14.5374   21.3516 N   0  0  0  0  0  0  0  0  0  0  0  0
   15.7861  -14.5325   19.9444 C   0  0  0  0  0  0  0  0  0  0  0  0
   15.9217  -13.4694   19.2268 N   0  0  0  0  0  0  0  0  0  0  0  0
   15.3639  -15.7153   19.2514 N   0  0  0  0  0  0  0  0  0  0  0  0
   14.7290  -16.7923   19.9610 C   0  0  0  0  0  0  0  0  0  0  0  0
   13.8615  -16.3871   21.1006 C   0  0  0  0  0  0  0  0  0  0  0  0
   13.2378  -17.4806   21.9022 C   0  0  0  0  0  0  0  0  0  0  0  0
   11.8288  -17.3052   22.2935 C   0  0  2  0  0  0  0  0  0  0  0  0
   10.9251  -17.0311   21.2016 N   0  0  0  0  0  0  0  0  0  0  0  0
   11.5841  -16.4288   23.4556 C   0  0  0  0  0  0  0  0  0  0  0  0
   11.9428  -15.2290   23.3619 O   0  0  0  0  0  0  0  0  0  0  0  0
   15.6688  -13.5361   18.2158 N   0  0  0  0  0  0  0  0  0  0  0  0
   10.9782  -16.8526   24.6572 C   0  0  1  0  0  0  0  0  0  0  0  0
    9.9349  -16.1320   25.3504 C   0  0  0  0  0  0  0  0  0  0  0  0
    8.7764  -15.7635   24.4549 C   0  0  0  0  0  0  0  0  0  0  0  0
    7.7245  -15.0266   25.1538 C   0  0  0  0  0  0  0  0  0  0  0  0
    6.4959  -15.5464   25.5199 N   0  0  0  0  0  0  0  0  0  0  0  0
    5.7711  -14.6230   26.1416 C   0  0  0  0  0  0  0  0  0  0  0  0
    6.4663  -13.4743   26.2160 C   0  0  0  0  0  0  0  0  0  0  0  0
    6.1736  -12.2513   26.7473 C   0  0  0  0  0  0  0  0  0  0  0  0
    7.1278  -11.2544   26.6587 C   0  0  0  0  0  0  0  0  0  0  0  0
    8.3291  -11.4859   26.0566 C   0  0  0  0  0  0  0  0  0  0  0  0
    8.6393  -12.7078   25.5177 C   0  0  0  0  0  0  0  0  0  0  0  0
    7.6906  -13.7105   25.6023 C   0  0  0  0  0  0  0  0  0  0  0  0
    9.4912  -16.8941   26.5449 O   0  0  0  0  0  0  0  0  0  0  0  0
    8.7871  -16.3054   27.4043 O   0  0  0  0  0  0  0  0  0  0  0  0
  2  1  1  1
  2  3  1  0
  3  4  1  0
  5  6  1  0
  5  4  1  0
  7  6  1  0
  8  2  1  0
  8  9  2  0
 10 11  1  0
 11 13  1  0
 12 11  2  0
 13 14  1  0
 14 15  1  0
 15 16  1  0
 17 16  1  6
 17 18  1  0
 18  8  1  0
 19 17  1  0
 19 21  1  0
 20 19  2  0
 22 21  1  0
 22 33  1  0
 22 23  1  1
 24 23  1  0
 24 25  2  0
 26 25  1  0
 27 32  2  0
 27 26  1  0
 28 27  1  0
 29 30  1  0
 29 28  2  0
 30 31  2  0
 31 32  1  0
 32 24  1  0
 33 34  2  0
 33 35  1  0
M  END
$$$$
