KRW.pdb
     RDKit          3D

 35 36  0  0  1  0  0  0  0  0999 V2000
   10.3743  -20.3380   21.8617 N   0  0  0  0  0  0  0  0  0  0  0  0
   11.5779  -19.6152   21.5071 C   0  0  1  0  0  0  0  0  0  0  0  0
   12.0843  -20.0199   20.1624 C   0  0  0  0  0  0  0  0  0  0  0  0
   11.6083  -21.4525   19.9341 C   0  0  0  0  0  0  0  0  0  0  0  0
   10.3567  -21.5064   19.0974 C   0  0  0  0  0  0  0  0  0  0  0  0
   10.3973  -22.5539   18.0234 C   0  0  0  0  0  0  0  0  0  0  0  0
    9.1270  -22.4559   17.2947 N   0  0  0  0  0  0  0  0  0  0  0  0
   11.2711  -18.1742   21.6406 C   0  0  0  0  0  0  0  0  0  0  0  0
   12.1057  -17.2609   21.3927 O   0  0  0  0  0  0  0  0  0  0  0  0
    8.7775  -11.8667   18.3621 N   0  0  0  0  0  0  0  0  0  0  0  0
    8.0944  -13.0851   18.6695 C   0  0  0  0  0  0  0  0  0  0  0  0
    8.4274  -14.2111   18.1359 N   0  0  0  0  0  0  0  0  0  0  0  0
    6.9972  -13.1212   19.5928 N   0  0  0  0  0  0  0  0  0  0  0  0
    6.8173  -14.2439   20.4725 C   0  0  0  0  0  0  0  0  0  0  0  0
    7.9961  -14.5998   21.3087 C   0  0  0  0  0  0  0  0  0  0  0  0
    8.3971  -16.0370   21.3414 C   0  0  0  0  0  0  0  0  0  0  0  0
    9.5441  -16.3938   22.1934 C   0  0  2  0  0  0  0  0  0  0  0  0
    9.9962  -17.7587   22.0626 N   0  0  0  0  0  0  0  0  0  0  0  0
    9.4614  -15.9647   23.6032 C   0  0  0  0  0  0  0  0  0  0  0  0
    8.5495  -15.1581   23.9106 O   0  0  0  0  0  0  0  0  0  0  0  0
    7.8857  -15.0572   18.4207 N   0  0  0  0  0  0  0  0  0  0  0  0
   10.3381  -16.4001   24.6193 C   0  0  1  0  0  0  0  0  0  0  0  0
   10.2745  -15.9733   25.9985 C   0  0  0  0  0  0  0  0  0  0  0  0
    8.9534  -16.2939   26.6555 C   0  0  0  0  0  0  0  0  0  0  0  0
    7.8600  -15.4431   26.1878 C   0  0  0  0  0  0  0  0  0  0  0  0
    6.7612  -15.8802   25.4701 N   0  0  0  0  0  0  0  0  0  0  0  0
    5.9507  -14.8625   25.2022 C   0  0  0  0  0  0  0  0  0  0  0  0
    6.4600  -13.7290   25.7161 C   0  0  0  0  0  0  0  0  0  0  0  0
    6.0206  -12.4364   25.7154 C   0  0  0  0  0  0  0  0  0  0  0  0
    6.7958  -11.4818   26.3478 C   0  0  0  0  0  0  0  0  0  0  0  0
    7.9679  -11.8216   26.9560 C   0  0  0  0  0  0  0  0  0  0  0  0
    8.4240  -13.1144   26.9661 C   0  0  0  0  0  0  0  0  0  0  0  0
    7.6546  -14.0756   26.3360 C   0  0  0  0  0  0  0  0  0  0  0  0
   11.4215  -16.5279   26.7609 O   0  0  0  0  0  0  0  0  0  0  0  0
   11.5157  -16.2557   27.9848 O   0  0  0  0  0  0  0  0  0  0  0  0
  2  1  1  6
  2  3  1  0
  3  4  1  0
  5  6  1  0
  5  4  1  0
  7  6  1  0
  8  2  1  0
  8  9  2  0
 10 11  1  0
 11 13  1  0
 12 11  2  0
 13 14  1  0
 14 15  1  0
 15 16  1  0
 17 16  1  1
 17 18  1  0
 18  8  1  0
 19 17  1  0
 19 21  1  0
 20 19  2  0
 22 21  1  0
 22 33  1  0
 22 23  1  6
 24 23  1  0
 24 25  2  0
 26 25  1  0
 27 32  2  0
 27 26  1  0
 28 27  1  0
 29 30  1  0
 29 28  2  0
 30 31  2  0
 31 32  1  0
 32 24  1  0
 33 34  2  0
 33 35  1  0
M  END
$$$$
