KRW.pdb
     RDKit          3D

 35 36  0  0  1  0  0  0  0  0999 V2000
    6.4478  -17.0931   21.1577 N   0  0  0  0  0  0  0  0  0  0  0  0
    7.7462  -16.5455   20.8244 C   0  0  1  0  0  0  0  0  0  0  0  0
    7.7145  -15.0540   20.7696 C   0  0  0  0  0  0  0  0  0  0  0  0
    7.3761  -14.6813   19.3281 C   0  0  0  0  0  0  0  0  0  0  0  0
    8.3333  -13.6620   18.7676 C   0  0  0  0  0  0  0  0  0  0  0  0
    8.0049  -13.2372   17.3661 C   0  0  0  0  0  0  0  0  0  0  0  0
    9.0187  -12.2487   16.9797 N   0  0  0  0  0  0  0  0  0  0  0  0
    8.7125  -17.1049   21.7947 C   0  0  0  0  0  0  0  0  0  0  0  0
    8.4006  -17.4396   22.9707 O   0  0  0  0  0  0  0  0  0  0  0  0
   13.0037  -18.3831   16.8602 N   0  0  0  0  0  0  0  0  0  0  0  0
   13.5563  -19.4498   17.6361 C   0  0  0  0  0  0  0  0  0  0  0  0
   13.6638  -20.6492   17.1741 N   0  0  0  0  0  0  0  0  0  0  0  0
   14.0240  -19.2427   18.9763 N   0  0  0  0  0  0  0  0  0  0  0  0
   13.8906  -17.9582   19.6079 C   0  0  0  0  0  0  0  0  0  0  0  0
   12.5633  -17.6789   20.2210 C   0  0  0  0  0  0  0  0  0  0  0  0
   12.3665  -18.1037   21.6381 C   0  0  0  0  0  0  0  0  0  0  0  0
   11.1420  -17.6407   22.3129 C   0  0  2  0  0  0  0  0  0  0  0  0
   10.0570  -17.2891   21.4278 N   0  0  0  0  0  0  0  0  0  0  0  0
   11.3315  -16.6470   23.3876 C   0  0  0  0  0  0  0  0  0  0  0  0
   11.5693  -15.4623   23.0458 O   0  0  0  0  0  0  0  0  0  0  0  0
   14.0707  -21.3736   17.8066 N   0  0  0  0  0  0  0  0  0  0  0  0
   11.2643  -16.9437   24.7654 C   0  0  1  0  0  0  0  0  0  0  0  0
   10.6923  -16.0730   25.7668 C   0  0  0  0  0  0  0  0  0  0  0  0
    9.2753  -15.6589   25.4495 C   0  0  0  0  0  0  0  0  0  0  0  0
    8.6819  -14.8107   26.4823 C   0  0  0  0  0  0  0  0  0  0  0  0
    8.9241  -14.9205   27.8398 N   0  0  0  0  0  0  0  0  0  0  0  0
    8.2358  -14.0009   28.5070 C   0  0  0  0  0  0  0  0  0  0  0  0
    7.5211  -13.2552   27.6459 C   0  0  0  0  0  0  0  0  0  0  0  0
    6.6687  -12.2037   27.8228 C   0  0  0  0  0  0  0  0  0  0  0  0
    6.0798  -11.6437   26.7040 C   0  0  0  0  0  0  0  0  0  0  0  0
    6.3428  -12.1285   25.4570 C   0  0  0  0  0  0  0  0  0  0  0  0
    7.1959  -13.1836   25.2612 C   0  0  0  0  0  0  0  0  0  0  0  0
    7.7894  -13.7494   26.3750 C   0  0  0  0  0  0  0  0  0  0  0  0
   10.7999  -16.6955   27.1104 O   0  0  0  0  0  0  0  0  0  0  0  0
   10.5696  -15.9841   28.1211 O   0  0  0  0  0  0  0  0  0  0  0  0
  2  1  1  1
  2  3  1  0
  3  4  1  0
  5  6  1  0
  5  4  1  0
  7  6  1  0
  8  2  1  0
  8  9  2  0
 10 11  1  0
 11 13  1  0
 12 11  2  0
 13 14  1  0
 14 15  1  0
 15 16  1  0
 17 16  1  6
 17 18  1  0
 18  8  1  0
 19 17  1  0
 19 21  1  0
 20 19  2  0
 22 21  1  0
 22 33  1  0
 22 23  1  6
 24 23  1  0
 24 25  2  0
 26 25  1  0
 27 32  2  0
 27 26  1  0
 28 27  1  0
 29 30  1  0
 29 28  2  0
 30 31  2  0
 31 32  1  0
 32 24  1  0
 33 34  2  0
 33 35  1  0
M  END
$$$$
