KRW.pdb
     RDKit          3D

 35 36  0  0  1  0  0  0  0  0999 V2000
    6.9451  -15.8062   19.9661 N   0  0  0  0  0  0  0  0  0  0  0  0
    8.0708  -15.1362   20.5831 C   0  0  1  0  0  0  0  0  0  0  0  0
    7.7861  -13.6899   20.8186 C   0  0  0  0  0  0  0  0  0  0  0  0
    7.3050  -13.1212   19.4858 C   0  0  0  0  0  0  0  0  0  0  0  0
    8.3571  -13.2265   18.4127 C   0  0  0  0  0  0  0  0  0  0  0  0
    7.9427  -12.6198   17.1041 C   0  0  0  0  0  0  0  0  0  0  0  0
    9.0096  -12.9262   16.1440 N   0  0  0  0  0  0  0  0  0  0  0  0
    8.4138  -15.9018   21.8015 C   0  0  0  0  0  0  0  0  0  0  0  0
    7.7752  -15.8042   22.8854 O   0  0  0  0  0  0  0  0  0  0  0  0
   14.7625  -17.5567   18.7862 N   0  0  0  0  0  0  0  0  0  0  0  0
   13.9504  -18.6322   19.2649 C   0  0  0  0  0  0  0  0  0  0  0  0
   13.0406  -19.1820   18.5345 N   0  0  0  0  0  0  0  0  0  0  0  0
   14.1050  -19.1609   20.5894 N   0  0  0  0  0  0  0  0  0  0  0  0
   12.9544  -19.5123   21.3763 C   0  0  0  0  0  0  0  0  0  0  0  0
   12.0594  -18.3817   21.7456 C   0  0  0  0  0  0  0  0  0  0  0  0
   10.8427  -18.7112   22.5447 C   0  0  0  0  0  0  0  0  0  0  0  0
    9.9553  -17.5929   22.9068 C   0  0  2  0  0  0  0  0  0  0  0  0
    9.4996  -16.7946   21.7935 N   0  0  0  0  0  0  0  0  0  0  0  0
   10.3908  -16.7644   24.0480 C   0  0  0  0  0  0  0  0  0  0  0  0
   11.3817  -16.0131   23.8735 O   0  0  0  0  0  0  0  0  0  0  0  0
   12.4159  -19.8831   18.9912 N   0  0  0  0  0  0  0  0  0  0  0  0
    9.7685  -16.7655   25.3142 C   0  0  1  0  0  0  0  0  0  0  0  0
   10.3921  -16.3140   26.5371 C   0  0  0  0  0  0  0  0  0  0  0  0
    9.7829  -15.0418   27.0759 C   0  0  0  0  0  0  0  0  0  0  0  0
    8.3999  -14.8423   26.6453 C   0  0  0  0  0  0  0  0  0  0  0  0
    7.5113  -15.8530   26.3252 N   0  0  0  0  0  0  0  0  0  0  0  0
    6.3362  -15.3409   25.9766 C   0  0  0  0  0  0  0  0  0  0  0  0
    6.3871  -13.9989   26.0465 C   0  0  0  0  0  0  0  0  0  0  0  0
    5.4629  -13.0260   25.7953 C   0  0  0  0  0  0  0  0  0  0  0  0
    5.8392  -11.7066   25.9669 C   0  0  0  0  0  0  0  0  0  0  0  0
    7.0996  -11.3849   26.3759 C   0  0  0  0  0  0  0  0  0  0  0  0
    8.0399  -12.3490   26.6323 C   0  0  0  0  0  0  0  0  0  0  0  0
    7.6717  -13.6714   26.4635 C   0  0  0  0  0  0  0  0  0  0  0  0
   10.3877  -17.4017   27.5477 O   0  0  0  0  0  0  0  0  0  0  0  0
   10.9899  -17.2124   28.6350 O   0  0  0  0  0  0  0  0  0  0  0  0
  2  1  1  1
  2  3  1  0
  3  4  1  0
  5  6  1  0
  5  4  1  0
  7  6  1  0
  8  2  1  0
  8  9  2  0
 10 11  1  0
 11 13  1  0
 12 11  2  0
 13 14  1  0
 14 15  1  0
 15 16  1  0
 17 16  1  6
 17 18  1  0
 18  8  1  0
 19 17  1  0
 19 21  1  0
 20 19  2  0
 22 21  1  0
 22 33  1  0
 22 23  1  1
 24 23  1  0
 24 25  2  0
 26 25  1  0
 27 32  2  0
 27 26  1  0
 28 27  1  0
 29 30  1  0
 29 28  2  0
 30 31  2  0
 31 32  1  0
 32 24  1  0
 33 34  2  0
 33 35  1  0
M  END
$$$$
