KRW.pdb
     RDKit          3D

 35 36  0  0  1  0  0  0  0  0999 V2000
    7.3459  -16.3872   19.1242 N   0  0  0  0  0  0  0  0  0  0  0  0
    8.4828  -15.5690   19.4913 C   0  0  1  0  0  0  0  0  0  0  0  0
    8.0908  -14.1420   19.6875 C   0  0  0  0  0  0  0  0  0  0  0  0
    7.3645  -13.7141   18.4145 C   0  0  0  0  0  0  0  0  0  0  0  0
    8.2282  -13.8708   17.1902 C   0  0  0  0  0  0  0  0  0  0  0  0
    7.5568  -13.4322   15.9217 C   0  0  0  0  0  0  0  0  0  0  0  0
    8.4770  -13.7595   14.8261 N   0  0  0  0  0  0  0  0  0  0  0  0
    9.1075  -16.2032   20.6727 C   0  0  0  0  0  0  0  0  0  0  0  0
    8.4633  -16.5290   21.7076 O   0  0  0  0  0  0  0  0  0  0  0  0
   14.1106  -17.7798   16.7668 N   0  0  0  0  0  0  0  0  0  0  0  0
   15.1800  -17.3840   17.6301 C   0  0  0  0  0  0  0  0  0  0  0  0
   16.2765  -16.8792   17.1760 N   0  0  0  0  0  0  0  0  0  0  0  0
   15.0903  -17.5268   19.0546 N   0  0  0  0  0  0  0  0  0  0  0  0
   14.1373  -18.4291   19.6414 C   0  0  0  0  0  0  0  0  0  0  0  0
   12.8200  -17.8321   19.9931 C   0  0  0  0  0  0  0  0  0  0  0  0
   12.5677  -17.5446   21.4357 C   0  0  0  0  0  0  0  0  0  0  0  0
   11.2418  -17.0106   21.7910 C   0  0  2  0  0  0  0  0  0  0  0  0
   10.4869  -16.4739   20.6836 N   0  0  0  0  0  0  0  0  0  0  0  0
   11.1937  -16.1344   22.9777 C   0  0  0  0  0  0  0  0  0  0  0  0
   11.4887  -14.9245   22.8167 O   0  0  0  0  0  0  0  0  0  0  0  0
   16.9880  -16.5678   17.8740 N   0  0  0  0  0  0  0  0  0  0  0  0
   10.8411  -16.5689   24.2728 C   0  0  1  0  0  0  0  0  0  0  0  0
    9.8700  -15.9181   25.1223 C   0  0  0  0  0  0  0  0  0  0  0  0
    8.5775  -15.6031   24.4081 C   0  0  0  0  0  0  0  0  0  0  0  0
    7.5696  -15.0078   25.2843 C   0  0  0  0  0  0  0  0  0  0  0  0
    6.4627  -15.6666   25.7884 N   0  0  0  0  0  0  0  0  0  0  0  0
    5.7477  -14.8489   26.5530 C   0  0  0  0  0  0  0  0  0  0  0  0
    6.3311  -13.6379   26.5921 C   0  0  0  0  0  0  0  0  0  0  0  0
    5.9996  -12.4738   27.2237 C   0  0  0  0  0  0  0  0  0  0  0  0
    6.8296  -11.3804   27.0576 C   0  0  0  0  0  0  0  0  0  0  0  0
    7.9492  -11.4617   26.2835 C   0  0  0  0  0  0  0  0  0  0  0  0
    8.2967  -12.6224   25.6421 C   0  0  0  0  0  0  0  0  0  0  0  0
    7.4722  -13.7211   25.8032 C   0  0  0  0  0  0  0  0  0  0  0  0
    9.6429  -16.7204   26.3508 O   0  0  0  0  0  0  0  0  0  0  0  0
    9.4207  -16.1148   27.4300 O   0  0  0  0  0  0  0  0  0  0  0  0
  2  1  1  1
  2  3  1  0
  3  4  1  0
  5  6  1  0
  5  4  1  0
  7  6  1  0
  8  2  1  0
  8  9  2  0
 10 11  1  0
 11 13  1  0
 12 11  2  0
 13 14  1  0
 14 15  1  0
 15 16  1  0
 17 16  1  6
 17 18  1  0
 18  8  1  0
 19 17  1  0
 19 21  1  0
 20 19  2  0
 22 21  1  0
 22 33  1  0
 22 23  1  1
 24 23  1  0
 24 25  2  0
 26 25  1  0
 27 32  2  0
 27 26  1  0
 28 27  1  0
 29 30  1  0
 29 28  2  0
 30 31  2  0
 31 32  1  0
 32 24  1  0
 33 34  2  0
 33 35  1  0
M  END
$$$$
