KRW.pdb
     RDKit          3D

 35 36  0  0  1  0  0  0  0  0999 V2000
    6.2026  -20.2717   23.3497 N   0  0  0  0  0  0  0  0  0  0  0  0
    7.5091  -20.7850   22.9942 C   0  0  1  0  0  0  0  0  0  0  0  0
    7.4051  -22.0214   22.1643 C   0  0  0  0  0  0  0  0  0  0  0  0
    6.6588  -23.0494   23.0112 C   0  0  0  0  0  0  0  0  0  0  0  0
    7.2353  -24.4330   22.8601 C   0  0  0  0  0  0  0  0  0  0  0  0
    6.5198  -25.4733   23.6714 C   0  0  0  0  0  0  0  0  0  0  0  0
    7.2131  -26.7439   23.4282 N   0  0  0  0  0  0  0  0  0  0  0  0
    8.2494  -19.6754   22.3547 C   0  0  0  0  0  0  0  0  0  0  0  0
    9.3722  -19.8202   21.7975 O   0  0  0  0  0  0  0  0  0  0  0  0
    6.6691  -12.4982   18.0901 N   0  0  0  0  0  0  0  0  0  0  0  0
    7.8987  -13.0341   17.5938 C   0  0  0  0  0  0  0  0  0  0  0  0
    8.6220  -12.4048   16.7310 N   0  0  0  0  0  0  0  0  0  0  0  0
    8.3971  -14.3060   18.0312 N   0  0  0  0  0  0  0  0  0  0  0  0
    7.5961  -15.1579   18.8674 C   0  0  0  0  0  0  0  0  0  0  0  0
    7.9610  -15.1683   20.3104 C   0  0  0  0  0  0  0  0  0  0  0  0
    7.3781  -16.2550   21.1510 C   0  0  0  0  0  0  0  0  0  0  0  0
    8.3204  -17.2038   21.7682 C   0  0  2  0  0  0  0  0  0  0  0  0
    7.7094  -18.3776   22.3454 N   0  0  0  0  0  0  0  0  0  0  0  0
    9.3459  -16.6153   22.6516 C   0  0  0  0  0  0  0  0  0  0  0  0
   10.0946  -15.7335   22.1629 O   0  0  0  0  0  0  0  0  0  0  0  0
    9.5170  -12.8540   16.4347 N   0  0  0  0  0  0  0  0  0  0  0  0
    9.5372  -16.9805   24.0009 C   0  0  1  0  0  0  0  0  0  0  0  0
   10.6949  -16.6297   24.7914 C   0  0  0  0  0  0  0  0  0  0  0  0
   10.5151  -15.3449   25.5640 C   0  0  0  0  0  0  0  0  0  0  0  0
    9.1119  -14.9699   25.7326 C   0  0  0  0  0  0  0  0  0  0  0  0
    8.1204  -15.7965   26.2296 N   0  0  0  0  0  0  0  0  0  0  0  0
    6.9573  -15.1554   26.2593 C   0  0  0  0  0  0  0  0  0  0  0  0
    7.1169  -13.9035   25.7948 C   0  0  0  0  0  0  0  0  0  0  0  0
    6.2479  -12.8645   25.6248 C   0  0  0  0  0  0  0  0  0  0  0  0
    6.7393  -11.6781   25.1118 C   0  0  0  0  0  0  0  0  0  0  0  0
    8.0565  -11.5488   24.7841 C   0  0  0  0  0  0  0  0  0  0  0  0
    8.9428  -12.5818   24.9483 C   0  0  0  0  0  0  0  0  0  0  0  0
    8.4596  -13.7719   25.4611 C   0  0  0  0  0  0  0  0  0  0  0  0
   11.0740  -17.7600   25.6764 O   0  0  0  0  0  0  0  0  0  0  0  0
   12.1619  -17.6921   26.3030 O   0  0  0  0  0  0  0  0  0  0  0  0
  2  1  1  6
  2  3  1  0
  3  4  1  0
  5  6  1  0
  5  4  1  0
  7  6  1  0
  8  2  1  0
  8  9  2  0
 10 11  1  0
 11 13  1  0
 12 11  2  0
 13 14  1  0
 14 15  1  0
 15 16  1  0
 17 16  1  1
 17 18  1  0
 18  8  1  0
 19 17  1  0
 19 21  1  0
 20 19  2  0
 22 21  1  0
 22 33  1  0
 22 23  1  1
 24 23  1  0
 24 25  2  0
 26 25  1  0
 27 32  2  0
 27 26  1  0
 28 27  1  0
 29 30  1  0
 29 28  2  0
 30 31  2  0
 31 32  1  0
 32 24  1  0
 33 34  2  0
 33 35  1  0
M  END
$$$$
