KRW.pdb
     RDKit          3D

 35 36  0  0  1  0  0  0  0  0999 V2000
    9.6080  -16.8311   17.7576 N   0  0  0  0  0  0  0  0  0  0  0  0
    9.0005  -15.8256   18.6042 C   0  0  1  0  0  0  0  0  0  0  0  0
    7.8398  -15.1709   17.9316 C   0  0  0  0  0  0  0  0  0  0  0  0
    8.4241  -14.1811   16.9267 C   0  0  0  0  0  0  0  0  0  0  0  0
    7.3552  -13.5218   16.0947 C   0  0  0  0  0  0  0  0  0  0  0  0
    7.8983  -12.6284   15.0180 C   0  0  0  0  0  0  0  0  0  0  0  0
    6.7384  -12.0575   14.3230 N   0  0  0  0  0  0  0  0  0  0  0  0
    8.6764  -16.4822   19.8896 C   0  0  0  0  0  0  0  0  0  0  0  0
    7.7707  -17.3517   20.0159 O   0  0  0  0  0  0  0  0  0  0  0  0
   12.4289  -21.2589   23.8531 N   0  0  0  0  0  0  0  0  0  0  0  0
   11.0461  -21.6090   23.7500 C   0  0  0  0  0  0  0  0  0  0  0  0
   10.4722  -22.3928   24.5984 N   0  0  0  0  0  0  0  0  0  0  0  0
   10.2181  -21.1044   22.6929 N   0  0  0  0  0  0  0  0  0  0  0  0
   10.7946  -20.3769   21.5952 C   0  0  0  0  0  0  0  0  0  0  0  0
   10.7064  -18.8941   21.6907 C   0  0  0  0  0  0  0  0  0  0  0  0
    9.4275  -18.3210   22.2037 C   0  0  0  0  0  0  0  0  0  0  0  0
    9.3459  -16.8545   22.3126 C   0  0  2  0  0  0  0  0  0  0  0  0
    9.3901  -16.1489   21.0538 N   0  0  0  0  0  0  0  0  0  0  0  0
   10.2112  -16.2322   23.3334 C   0  0  0  0  0  0  0  0  0  0  0  0
   11.4370  -16.5024   23.2965 O   0  0  0  0  0  0  0  0  0  0  0  0
    9.4661  -22.6215   24.4378 N   0  0  0  0  0  0  0  0  0  0  0  0
    9.7499  -15.3600   24.3419 C   0  0  2  0  0  0  0  0  0  0  0  0
    9.9157  -15.5824   25.7601 C   0  0  0  0  0  0  0  0  0  0  0  0
    8.6237  -15.9341   26.4578 C   0  0  0  0  0  0  0  0  0  0  0  0
    7.5098  -15.0702   26.0693 C   0  0  0  0  0  0  0  0  0  0  0  0
    6.3258  -15.5038   25.5004 N   0  0  0  0  0  0  0  0  0  0  0  0
    5.5199  -14.4732   25.2704 C   0  0  0  0  0  0  0  0  0  0  0  0
    6.1155  -13.3341   25.6655 C   0  0  0  0  0  0  0  0  0  0  0  0
    5.7159  -12.0288   25.6456 C   0  0  0  0  0  0  0  0  0  0  0  0
    6.5837  -11.0717   26.1384 C   0  0  0  0  0  0  0  0  0  0  0  0
    7.8062  -11.4213   26.6310 C   0  0  0  0  0  0  0  0  0  0  0  0
    8.2233  -12.7270   26.6583 C   0  0  0  0  0  0  0  0  0  0  0  0
    7.3613  -13.6908   26.1676 C   0  0  0  0  0  0  0  0  0  0  0  0
   10.9700  -16.5999   26.0005 O   0  0  0  0  0  0  0  0  0  0  0  0
   11.2920  -17.3644   25.0557 O   0  0  0  0  0  0  0  0  0  0  0  0
  2  1  1  6
  2  3  1  0
  3  4  1  0
  5  6  1  0
  5  4  1  0
  7  6  1  0
  8  2  1  0
  8  9  2  0
 10 11  1  0
 11 13  1  0
 12 11  2  0
 13 14  1  0
 14 15  1  0
 15 16  1  0
 17 16  1  6
 17 18  1  0
 18  8  1  0
 19 17  1  0
 19 21  1  0
 20 19  2  0
 22 21  1  0
 22 33  1  0
 22 23  1  6
 24 23  1  0
 24 25  2  0
 26 25  1  0
 27 32  2  0
 27 26  1  0
 28 27  1  0
 29 30  1  0
 29 28  2  0
 30 31  2  0
 31 32  1  0
 32 24  1  0
 33 34  2  0
 33 35  1  0
M  END
$$$$
