KRW.pdb
     RDKit          3D

 35 36  0  0  1  0  0  0  0  0999 V2000
    6.7793  -18.9048   21.1540 N   0  0  0  0  0  0  0  0  0  0  0  0
    8.0275  -19.6389   21.1473 C   0  0  1  0  0  0  0  0  0  0  0  0
    8.0991  -20.5883   19.9976 C   0  0  0  0  0  0  0  0  0  0  0  0
    7.1865  -21.7612   20.3477 C   0  0  0  0  0  0  0  0  0  0  0  0
    7.8808  -22.7796   21.2139 C   0  0  0  0  0  0  0  0  0  0  0  0
    7.0317  -23.9752   21.5329 C   0  0  0  0  0  0  0  0  0  0  0  0
    7.4619  -25.0478   20.6282 N   0  0  0  0  0  0  0  0  0  0  0  0
    9.1166  -18.6386   21.1877 C   0  0  0  0  0  0  0  0  0  0  0  0
   10.3407  -18.9450   21.1896 O   0  0  0  0  0  0  0  0  0  0  0  0
    7.0850  -13.2406   16.4231 N   0  0  0  0  0  0  0  0  0  0  0  0
    8.3980  -13.6327   16.8326 C   0  0  0  0  0  0  0  0  0  0  0  0
    9.2187  -14.2220   16.0310 N   0  0  0  0  0  0  0  0  0  0  0  0
    8.8760  -13.3899   18.1631 N   0  0  0  0  0  0  0  0  0  0  0  0
    7.9719  -13.4086   19.2806 C   0  0  0  0  0  0  0  0  0  0  0  0
    8.1885  -14.5051   20.2636 C   0  0  0  0  0  0  0  0  0  0  0  0
    9.5548  -15.1023   20.3254 C   0  0  0  0  0  0  0  0  0  0  0  0
    9.7697  -16.1853   21.3000 C   0  0  2  0  0  0  0  0  0  0  0  0
    8.8153  -17.2662   21.2268 N   0  0  0  0  0  0  0  0  0  0  0  0
   10.0307  -15.7629   22.6899 C   0  0  0  0  0  0  0  0  0  0  0  0
   10.5101  -14.6158   22.8663 O   0  0  0  0  0  0  0  0  0  0  0  0
   10.1486  -14.5019   16.4150 N   0  0  0  0  0  0  0  0  0  0  0  0
    9.7786  -16.5627   23.8245 C   0  0  1  0  0  0  0  0  0  0  0  0
   10.2611  -16.2761   25.1561 C   0  0  0  0  0  0  0  0  0  0  0  0
    9.8532  -14.9089   25.6504 C   0  0  0  0  0  0  0  0  0  0  0  0
    8.4031  -14.7327   25.7151 C   0  0  0  0  0  0  0  0  0  0  0  0
    7.4686  -15.7257   25.4826 N   0  0  0  0  0  0  0  0  0  0  0  0
    6.2387  -15.2440   25.6239 C   0  0  0  0  0  0  0  0  0  0  0  0
    6.2963  -13.9404   25.9488 C   0  0  0  0  0  0  0  0  0  0  0  0
    5.3308  -13.0080   26.1985 C   0  0  0  0  0  0  0  0  0  0  0  0
    5.7295  -11.7219   26.5135 C   0  0  0  0  0  0  0  0  0  0  0  0
    7.0514  -11.3930   26.5732 C   0  0  0  0  0  0  0  0  0  0  0  0
    8.0338  -12.3165   26.3254 C   0  0  0  0  0  0  0  0  0  0  0  0
    7.6437  -13.6054   26.0098 C   0  0  0  0  0  0  0  0  0  0  0  0
    9.8481  -17.3503   26.0942 O   0  0  0  0  0  0  0  0  0  0  0  0
   10.2538  -17.2969   27.2830 O   0  0  0  0  0  0  0  0  0  0  0  0
  2  1  1  6
  2  3  1  0
  3  4  1  0
  5  6  1  0
  5  4  1  0
  7  6  1  0
  8  2  1  0
  8  9  2  0
 10 11  1  0
 11 13  1  0
 12 11  2  0
 13 14  1  0
 14 15  1  0
 15 16  1  0
 17 16  1  6
 17 18  1  0
 18  8  1  0
 19 17  1  0
 19 21  1  0
 20 19  2  0
 22 21  1  0
 22 33  1  0
 22 23  1  1
 24 23  1  0
 24 25  2  0
 26 25  1  0
 27 32  2  0
 27 26  1  0
 28 27  1  0
 29 30  1  0
 29 28  2  0
 30 31  2  0
 31 32  1  0
 32 24  1  0
 33 34  2  0
 33 35  1  0
M  END
$$$$
