KRW.pdb
     RDKit          3D

 35 36  0  0  1  0  0  0  0  0999 V2000
    9.9945  -21.4707   22.4848 N   0  0  0  0  0  0  0  0  0  0  0  0
    8.7433  -20.8485   22.8644 C   0  0  1  0  0  0  0  0  0  0  0  0
    8.3366  -21.2343   24.2479 C   0  0  0  0  0  0  0  0  0  0  0  0
    9.2574  -22.3781   24.6663 C   0  0  0  0  0  0  0  0  0  0  0  0
    8.9998  -22.8229   26.0823 C   0  0  0  0  0  0  0  0  0  0  0  0
    9.9592  -23.8707   26.5663 C   0  0  0  0  0  0  0  0  0  0  0  0
    9.5935  -24.1626   27.9574 N   0  0  0  0  0  0  0  0  0  0  0  0
    8.9038  -19.3931   22.6537 C   0  0  0  0  0  0  0  0  0  0  0  0
    9.8593  -18.8870   22.0032 O   0  0  0  0  0  0  0  0  0  0  0  0
    6.8027  -12.7590   19.2206 N   0  0  0  0  0  0  0  0  0  0  0  0
    7.7661  -13.4143   18.3910 C   0  0  0  0  0  0  0  0  0  0  0  0
    8.5224  -12.7636   17.5736 N   0  0  0  0  0  0  0  0  0  0  0  0
    7.9448  -14.8372   18.4237 N   0  0  0  0  0  0  0  0  0  0  0  0
    7.0397  -15.6718   19.1659 C   0  0  0  0  0  0  0  0  0  0  0  0
    7.2866  -15.7418   20.6320 C   0  0  0  0  0  0  0  0  0  0  0  0
    7.5304  -17.0933   21.2163 C   0  0  0  0  0  0  0  0  0  0  0  0
    7.6605  -17.1769   22.6810 C   0  0  2  0  0  0  0  0  0  0  0  0
    7.9658  -18.4933   23.1891 N   0  0  0  0  0  0  0  0  0  0  0  0
    6.6044  -16.5062   23.4639 C   0  0  0  0  0  0  0  0  0  0  0  0
    5.5444  -17.1458   23.6738 O   0  0  0  0  0  0  0  0  0  0  0  0
    9.2015  -13.3155   17.0038 N   0  0  0  0  0  0  0  0  0  0  0  0
    6.7103  -15.1998   23.9861 C   0  0  2  0  0  0  0  0  0  0  0  0
    7.2913  -14.8713   25.2678 C   0  0  0  0  0  0  0  0  0  0  0  0
    8.6947  -15.4031   25.4337 C   0  0  0  0  0  0  0  0  0  0  0  0
    8.9545  -15.9246   26.7748 C   0  0  0  0  0  0  0  0  0  0  0  0
    8.7547  -17.2342   27.1731 N   0  0  0  0  0  0  0  0  0  0  0  0
    9.0893  -17.3842   28.4498 C   0  0  0  0  0  0  0  0  0  0  0  0
    9.5164  -16.2105   28.9482 C   0  0  0  0  0  0  0  0  0  0  0  0
    9.9641  -15.8407   30.1837 C   0  0  0  0  0  0  0  0  0  0  0  0
   10.3374  -14.5234   30.3768 C   0  0  0  0  0  0  0  0  0  0  0  0
   10.2605  -13.6172   29.3608 C   0  0  0  0  0  0  0  0  0  0  0  0
    9.8132  -13.9714   28.1143 C   0  0  0  0  0  0  0  0  0  0  0  0
    9.4380  -15.2871   27.9125 C   0  0  0  0  0  0  0  0  0  0  0  0
    7.2223  -13.4069   25.5027 O   0  0  0  0  0  0  0  0  0  0  0  0
    7.6296  -12.6347   24.5980 O   0  0  0  0  0  0  0  0  0  0  0  0
  2  1  1  1
  2  3  1  0
  3  4  1  0
  5  6  1  0
  5  4  1  0
  7  6  1  0
  8  2  1  0
  8  9  2  0
 10 11  1  0
 11 13  1  0
 12 11  2  0
 13 14  1  0
 14 15  1  0
 15 16  1  0
 17 16  1  6
 17 18  1  0
 18  8  1  0
 19 17  1  0
 19 21  1  0
 20 19  2  0
 22 21  1  0
 22 33  1  0
 22 23  1  6
 24 23  1  0
 24 25  2  0
 26 25  1  0
 27 32  2  0
 27 26  1  0
 28 27  1  0
 29 30  1  0
 29 28  2  0
 30 31  2  0
 31 32  1  0
 32 24  1  0
 33 34  2  0
 33 35  1  0
M  END
$$$$
