KRW.pdb
     RDKit          3D

 35 36  0  0  1  0  0  0  0  0999 V2000
    9.5028  -14.4478   18.3727 N   0  0  0  0  0  0  0  0  0  0  0  0
    9.0678  -13.6874   19.5257 C   0  0  1  0  0  0  0  0  0  0  0  0
    7.8226  -12.9167   19.2362 C   0  0  0  0  0  0  0  0  0  0  0  0
    7.0612  -13.7077   18.1752 C   0  0  0  0  0  0  0  0  0  0  0  0
    7.8142  -13.7773   16.8723 C   0  0  0  0  0  0  0  0  0  0  0  0
    7.0607  -14.4785   15.7802 C   0  0  0  0  0  0  0  0  0  0  0  0
    8.0034  -14.6584   14.6697 N   0  0  0  0  0  0  0  0  0  0  0  0
    8.9541  -14.6391   20.6524 C   0  0  0  0  0  0  0  0  0  0  0  0
    8.4768  -14.3281   21.7784 O   0  0  0  0  0  0  0  0  0  0  0  0
   11.8853  -18.4443   17.2976 N   0  0  0  0  0  0  0  0  0  0  0  0
   12.8070  -19.3332   17.9346 C   0  0  0  0  0  0  0  0  0  0  0  0
   14.0002  -19.5226   17.4829 N   0  0  0  0  0  0  0  0  0  0  0  0
   12.4532  -20.0652   19.1163 N   0  0  0  0  0  0  0  0  0  0  0  0
   11.1573  -19.9033   19.7172 C   0  0  0  0  0  0  0  0  0  0  0  0
   10.8914  -18.5687   20.3204 C   0  0  0  0  0  0  0  0  0  0  0  0
    9.5667  -18.3724   20.9791 C   0  0  0  0  0  0  0  0  0  0  0  0
    9.2610  -17.0219   21.4808 C   0  0  2  0  0  0  0  0  0  0  0  0
    9.3885  -15.9676   20.5027 N   0  0  0  0  0  0  0  0  0  0  0  0
    9.8688  -16.6597   22.7761 C   0  0  0  0  0  0  0  0  0  0  0  0
   11.0389  -16.2045   22.7597 O   0  0  0  0  0  0  0  0  0  0  0  0
   14.6213  -20.1672   18.0206 N   0  0  0  0  0  0  0  0  0  0  0  0
    9.2219  -16.7937   24.0228 C   0  0  1  0  0  0  0  0  0  0  0  0
    9.8387  -16.5261   25.3019 C   0  0  0  0  0  0  0  0  0  0  0  0
    9.6263  -15.1079   25.7747 C   0  0  0  0  0  0  0  0  0  0  0  0
    8.2212  -14.7037   25.7594 C   0  0  0  0  0  0  0  0  0  0  0  0
    7.1535  -15.5428   25.4958 N   0  0  0  0  0  0  0  0  0  0  0  0
    6.0103  -14.8697   25.5630 C   0  0  0  0  0  0  0  0  0  0  0  0
    6.2580  -13.5833   25.8667 C   0  0  0  0  0  0  0  0  0  0  0  0
    5.4417  -12.5041   26.0478 C   0  0  0  0  0  0  0  0  0  0  0  0
    6.0234  -11.2892   26.3599 C   0  0  0  0  0  0  0  0  0  0  0  0
    7.3762  -11.1712   26.4836 C   0  0  0  0  0  0  0  0  0  0  0  0
    8.2105  -12.2443   26.3050 C   0  0  0  0  0  0  0  0  0  0  0  0
    7.6368  -13.4634   25.9928 C   0  0  0  0  0  0  0  0  0  0  0  0
    9.3856  -17.5193   26.3082 O   0  0  0  0  0  0  0  0  0  0  0  0
    8.4778  -18.3275   25.9865 O   0  0  0  0  0  0  0  0  0  0  0  0
  2  1  1  6
  2  3  1  0
  3  4  1  0
  5  6  1  0
  5  4  1  0
  7  6  1  0
  8  2  1  0
  8  9  2  0
 10 11  1  0
 11 13  1  0
 12 11  2  0
 13 14  1  0
 14 15  1  0
 15 16  1  0
 17 16  1  6
 17 18  1  0
 18  8  1  0
 19 17  1  0
 19 21  1  0
 20 19  2  0
 22 21  1  0
 22 33  1  0
 22 23  1  1
 24 23  1  0
 24 25  2  0
 26 25  1  0
 27 32  2  0
 27 26  1  0
 28 27  1  0
 29 30  1  0
 29 28  2  0
 30 31  2  0
 31 32  1  0
 32 24  1  0
 33 34  2  0
 33 35  1  0
M  END
$$$$
