KRW.pdb
     RDKit          3D

 35 36  0  0  1  0  0  0  0  0999 V2000
    6.4765  -19.6054   24.5585 N   0  0  0  0  0  0  0  0  0  0  0  0
    7.1314  -20.2159   23.4204 C   0  0  1  0  0  0  0  0  0  0  0  0
    6.4018  -21.4325   22.9556 C   0  0  0  0  0  0  0  0  0  0  0  0
    5.8314  -22.0986   24.2053 C   0  0  0  0  0  0  0  0  0  0  0  0
    5.0830  -23.3650   23.8801 C   0  0  0  0  0  0  0  0  0  0  0  0
    4.5284  -24.0616   25.0882 C   0  0  0  0  0  0  0  0  0  0  0  0
    3.8142  -25.2462   24.5975 N   0  0  0  0  0  0  0  0  0  0  0  0
    7.2855  -19.1615   22.3944 C   0  0  0  0  0  0  0  0  0  0  0  0
    7.5924  -19.4007   21.1940 O   0  0  0  0  0  0  0  0  0  0  0  0
    8.1999  -11.9064   18.7782 N   0  0  0  0  0  0  0  0  0  0  0  0
    8.5273  -13.0690   18.0122 C   0  0  0  0  0  0  0  0  0  0  0  0
    9.5301  -13.0957   17.2015 N   0  0  0  0  0  0  0  0  0  0  0  0
    7.7552  -14.2743   18.1051 N   0  0  0  0  0  0  0  0  0  0  0  0
    6.9102  -14.5166   19.2425 C   0  0  0  0  0  0  0  0  0  0  0  0
    7.6191  -14.7779   20.5250 C   0  0  0  0  0  0  0  0  0  0  0  0
    6.9497  -15.6906   21.4978 C   0  0  0  0  0  0  0  0  0  0  0  0
    7.7985  -16.6819   22.1804 C   0  0  2  0  0  0  0  0  0  0  0  0
    7.0888  -17.8114   22.7325 N   0  0  0  0  0  0  0  0  0  0  0  0
    8.8016  -16.1393   23.1173 C   0  0  0  0  0  0  0  0  0  0  0  0
    9.3309  -15.0386   22.8256 O   0  0  0  0  0  0  0  0  0  0  0  0
    9.7484  -14.0048   16.7364 N   0  0  0  0  0  0  0  0  0  0  0  0
    9.2013  -16.7767   24.3108 C   0  0  1  0  0  0  0  0  0  0  0  0
   10.1565  -16.2368   25.2511 C   0  0  0  0  0  0  0  0  0  0  0  0
    9.7433  -14.8956   25.8083 C   0  0  0  0  0  0  0  0  0  0  0  0
    8.3003  -14.7816   26.0150 C   0  0  0  0  0  0  0  0  0  0  0  0
    7.4120  -15.8419   26.0358 N   0  0  0  0  0  0  0  0  0  0  0  0
    6.1761  -15.4041   26.2489 C   0  0  0  0  0  0  0  0  0  0  0  0
    6.1843  -14.0654   26.3765 C   0  0  0  0  0  0  0  0  0  0  0  0
    5.1933  -13.1538   26.6013 C   0  0  0  0  0  0  0  0  0  0  0  0
    5.5399  -11.8176   26.6821 C   0  0  0  0  0  0  0  0  0  0  0  0
    6.8366  -11.4203   26.5408 C   0  0  0  0  0  0  0  0  0  0  0  0
    7.8440  -12.3222   26.3145 C   0  0  0  0  0  0  0  0  0  0  0  0
    7.5060  -13.6608   26.2326 C   0  0  0  0  0  0  0  0  0  0  0  0
   10.4316  -17.2226   26.3268 O   0  0  0  0  0  0  0  0  0  0  0  0
    9.7531  -18.2806   26.3583 O   0  0  0  0  0  0  0  0  0  0  0  0
  2  1  1  1
  2  3  1  0
  3  4  1  0
  5  6  1  0
  5  4  1  0
  7  6  1  0
  8  2  1  0
  8  9  2  0
 10 11  1  0
 11 13  1  0
 12 11  2  0
 13 14  1  0
 14 15  1  0
 15 16  1  0
 17 16  1  1
 17 18  1  0
 18  8  1  0
 19 17  1  0
 19 21  1  0
 20 19  2  0
 22 21  1  0
 22 33  1  0
 22 23  1  1
 24 23  1  0
 24 25  2  0
 26 25  1  0
 27 32  2  0
 27 26  1  0
 28 27  1  0
 29 30  1  0
 29 28  2  0
 30 31  2  0
 31 32  1  0
 32 24  1  0
 33 34  2  0
 33 35  1  0
M  END
$$$$
