GVT.pdb
     RDKit          3D

 19 18  0  0  1  0  0  0  0  0999 V2000
    7.0445  -14.0224   20.2091 N   0  0  0  0  0  0  0  0  0  0  0  0
    6.4056  -13.9297   21.4944 C   0  0  0  0  0  0  0  0  0  0  0  0
    7.4180  -13.9936   22.6106 C   0  0  0  0  0  0  0  0  0  0  0  0
    8.5780  -14.3616   22.3132 O   0  0  0  0  0  0  0  0  0  0  0  0
    5.9242  -13.3842   26.5932 C   0  0  0  0  0  0  0  0  0  0  0  0
    7.2300  -12.7155   26.1637 C   0  0  2  0  0  0  0  0  0  0  0  0
    6.8396  -11.3761   25.5699 C   0  0  0  0  0  0  0  0  0  0  0  0
    7.8486  -13.6286   25.1216 C   0  0  2  0  0  0  0  0  0  0  0  0
    7.0351  -13.6484   23.9057 N   0  0  0  0  0  0  0  0  0  0  0  0
    8.1147  -14.9912   25.5605 C   0  0  0  0  0  0  0  0  0  0  0  0
    7.1082  -15.7579   25.7375 O   0  0  0  0  0  0  0  0  0  0  0  0
    9.4731  -17.7874   23.8503 C   0  0  0  0  0  0  0  0  0  0  0  0
   10.2525  -17.7957   25.1516 C   0  0  1  0  0  0  0  0  0  0  0  0
   11.4724  -17.1526   24.8558 O   0  0  0  0  0  0  0  0  0  0  0  0
    9.4443  -17.0047   26.1512 C   0  0  2  0  0  0  0  0  0  0  0  0
    9.3645  -15.5997   25.8225 N   0  0  0  0  0  0  0  0  0  0  0  0
   10.1500  -17.1191   27.4567 C   0  0  0  0  0  0  0  0  0  0  0  0
   10.2317  -18.2715   27.9717 O   0  0  0  0  0  0  0  0  0  0  0  0
   10.7043  -16.0400   28.1088 O   0  0  0  0  0  0  0  0  0  0  0  0
  1  2  1  0
  3  2  1  0
  3  4  2  0
  6  5  1  6
  6  7  1  0
  6  8  1  0
  8 10  1  0
  8  9  1  6
  9  3  1  0
 10 11  2  0
 10 16  1  0
 13 12  1  6
 13 15  1  0
 14 13  1  0
 15 17  1  0
 15 16  1  6
 17 18  2  0
 17 19  1  0
M  END
$$$$
