GVT.pdb
     RDKit          3D

 19 18  0  0  1  0  0  0  0  0999 V2000
    4.4233  -19.1985   22.3031 N   0  0  0  0  0  0  0  0  0  0  0  0
    4.7945  -18.5392   23.5263 C   0  0  0  0  0  0  0  0  0  0  0  0
    5.9432  -17.5873   23.3040 C   0  0  0  0  0  0  0  0  0  0  0  0
    6.6123  -17.7302   22.2545 O   0  0  0  0  0  0  0  0  0  0  0  0
    7.9961  -13.3670   24.9095 C   0  0  0  0  0  0  0  0  0  0  0  0
    6.8697  -14.3878   25.0703 C   0  0  2  0  0  0  0  0  0  0  0  0
    6.8111  -14.7181   26.5489 C   0  0  0  0  0  0  0  0  0  0  0  0
    7.2735  -15.5951   24.2445 C   0  0  2  0  0  0  0  0  0  0  0  0
    6.2136  -16.6035   24.2537 N   0  0  0  0  0  0  0  0  0  0  0  0
    8.5426  -16.2084   24.6097 C   0  0  0  0  0  0  0  0  0  0  0  0
    8.5257  -17.0814   25.5423 O   0  0  0  0  0  0  0  0  0  0  0  0
   12.9986  -17.8535   23.4200 C   0  0  0  0  0  0  0  0  0  0  0  0
   12.0046  -16.7275   23.2080 C   0  0  1  0  0  0  0  0  0  0  0  0
   11.5670  -16.8671   21.8744 O   0  0  0  0  0  0  0  0  0  0  0  0
   10.8738  -16.9523   24.1821 C   0  0  2  0  0  0  0  0  0  0  0  0
    9.8233  -15.9675   24.0597 N   0  0  0  0  0  0  0  0  0  0  0  0
   11.4536  -16.8205   25.5466 C   0  0  0  0  0  0  0  0  0  0  0  0
   11.3469  -15.6956   26.1149 O   0  0  0  0  0  0  0  0  0  0  0  0
   12.0874  -17.8558   26.1974 O   0  0  0  0  0  0  0  0  0  0  0  0
  1  2  1  0
  3  2  1  0
  3  4  2  0
  6  5  1  1
  6  7  1  0
  6  8  1  0
  8 10  1  0
  8  9  1  1
  9  3  1  0
 10 11  2  0
 10 16  1  0
 13 12  1  1
 13 15  1  0
 14 13  1  0
 15 17  1  0
 15 16  1  6
 17 18  2  0
 17 19  1  0
M  END
$$$$
