GVT.pdb
     RDKit          3D

 19 18  0  0  1  0  0  0  0  0999 V2000
    4.5337  -19.8139   23.1802 N   0  0  0  0  0  0  0  0  0  0  0  0
    4.9649  -18.9112   24.2136 C   0  0  0  0  0  0  0  0  0  0  0  0
    5.9040  -17.8660   23.6655 C   0  0  0  0  0  0  0  0  0  0  0  0
    6.2459  -17.9742   22.4651 O   0  0  0  0  0  0  0  0  0  0  0  0
    7.9059  -13.4252   24.5225 C   0  0  0  0  0  0  0  0  0  0  0  0
    6.9620  -14.5229   25.0134 C   0  0  2  0  0  0  0  0  0  0  0  0
    7.2922  -14.7356   26.4779 C   0  0  0  0  0  0  0  0  0  0  0  0
    7.2799  -15.7540   24.1853 C   0  0  2  0  0  0  0  0  0  0  0  0
    6.3487  -16.8387   24.4962 N   0  0  0  0  0  0  0  0  0  0  0  0
    8.6504  -16.2367   24.2800 C   0  0  0  0  0  0  0  0  0  0  0  0
    9.0059  -16.7817   25.3794 O   0  0  0  0  0  0  0  0  0  0  0  0
   10.4635  -18.5149   21.6745 C   0  0  0  0  0  0  0  0  0  0  0  0
   11.4416  -17.4658   22.1682 C   0  0  1  0  0  0  0  0  0  0  0  0
   11.4497  -16.4694   21.1699 O   0  0  0  0  0  0  0  0  0  0  0  0
   10.8927  -16.9334   23.4695 C   0  0  2  0  0  0  0  0  0  0  0  0
    9.6674  -16.1867   23.2982 N   0  0  0  0  0  0  0  0  0  0  0  0
   11.9147  -15.9973   24.0124 C   0  0  0  0  0  0  0  0  0  0  0  0
   11.5983  -14.7750   24.0877 O   0  0  0  0  0  0  0  0  0  0  0  0
   13.1635  -16.4052   24.4260 O   0  0  0  0  0  0  0  0  0  0  0  0
  1  2  1  0
  3  2  1  0
  3  4  2  0
  6  5  1  6
  6  7  1  0
  6  8  1  0
  8 10  1  0
  8  9  1  1
  9  3  1  0
 10 11  2  0
 10 16  1  0
 13 12  1  6
 13 15  1  0
 14 13  1  0
 15 17  1  0
 15 16  1  6
 17 18  2  0
 17 19  1  0
M  END
$$$$
