GVT.pdb
     RDKit          3D

 19 18  0  0  1  0  0  0  0  0999 V2000
    6.4171  -15.0756   20.1771 N   0  0  0  0  0  0  0  0  0  0  0  0
    5.9807  -14.3285   21.3261 C   0  0  0  0  0  0  0  0  0  0  0  0
    7.0152  -14.3644   22.4231 C   0  0  0  0  0  0  0  0  0  0  0  0
    8.1287  -14.8672   22.1459 O   0  0  0  0  0  0  0  0  0  0  0  0
    8.0140  -12.4708   26.9159 C   0  0  0  0  0  0  0  0  0  0  0  0
    7.0250  -12.5871   25.7561 C   0  0  2  0  0  0  0  0  0  0  0  0
    5.7084  -13.0217   26.3699 C   0  0  0  0  0  0  0  0  0  0  0  0
    7.5856  -13.6491   24.8285 C   0  0  2  0  0  0  0  0  0  0  0  0
    6.7022  -13.8479   23.6794 N   0  0  0  0  0  0  0  0  0  0  0  0
    7.8835  -14.9313   25.4509 C   0  0  0  0  0  0  0  0  0  0  0  0
    6.8957  -15.6197   25.8783 O   0  0  0  0  0  0  0  0  0  0  0  0
    8.9158  -18.0393   24.0703 C   0  0  0  0  0  0  0  0  0  0  0  0
    9.8899  -17.8430   25.2164 C   0  0  1  0  0  0  0  0  0  0  0  0
   11.0440  -17.2844   24.6289 O   0  0  0  0  0  0  0  0  0  0  0  0
    9.2435  -16.8778   26.1801 C   0  0  2  0  0  0  0  0  0  0  0  0
    9.1461  -15.5367   25.6507 N   0  0  0  0  0  0  0  0  0  0  0  0
   10.1212  -16.8219   27.3810 C   0  0  0  0  0  0  0  0  0  0  0  0
   10.6345  -15.7030   27.6713 O   0  0  0  0  0  0  0  0  0  0  0  0
   10.3880  -17.9195   28.1690 O   0  0  0  0  0  0  0  0  0  0  0  0
  1  2  1  0
  3  2  1  0
  3  4  2  0
  6  5  1  1
  6  7  1  0
  6  8  1  0
  8 10  1  0
  8  9  1  6
  9  3  1  0
 10 11  2  0
 10 16  1  0
 13 12  1  6
 13 15  1  0
 14 13  1  0
 15 17  1  0
 15 16  1  6
 17 18  2  0
 17 19  1  0
M  END
$$$$
