GVT.pdb
     RDKit          3D

 19 18  0  0  1  0  0  0  0  0999 V2000
    8.0799  -17.2634   15.1723 N   0  0  0  0  0  0  0  0  0  0  0  0
    7.3496  -16.6833   16.2673 C   0  0  0  0  0  0  0  0  0  0  0  0
    8.2840  -16.0670   17.2781 C   0  0  0  0  0  0  0  0  0  0  0  0
    9.4964  -16.3728   17.2005 O   0  0  0  0  0  0  0  0  0  0  0  0
    8.5334  -12.7209   20.9573 C   0  0  0  0  0  0  0  0  0  0  0  0
    7.6562  -13.4039   19.9080 C   0  0  2  0  0  0  0  0  0  0  0  0
    6.4378  -13.9174   20.6500 C   0  0  0  0  0  0  0  0  0  0  0  0
    8.4849  -14.5417   19.3413 C   0  0  2  0  0  0  0  0  0  0  0  0
    7.7762  -15.1976   18.2422 N   0  0  0  0  0  0  0  0  0  0  0  0
    8.9276  -15.5368   20.3077 C   0  0  0  0  0  0  0  0  0  0  0  0
    8.0462  -16.3362   20.7725 O   0  0  0  0  0  0  0  0  0  0  0  0
   10.9581  -18.5416   20.0631 C   0  0  0  0  0  0  0  0  0  0  0  0
   11.5623  -17.7777   21.2260 C   0  0  1  0  0  0  0  0  0  0  0  0
   12.6542  -17.0730   20.6778 O   0  0  0  0  0  0  0  0  0  0  0  0
   10.4980  -16.8335   21.7300 C   0  0  2  0  0  0  0  0  0  0  0  0
   10.2313  -15.7479   20.8141 N   0  0  0  0  0  0  0  0  0  0  0  0
   11.0187  -16.2374   22.9906 C   0  0  0  0  0  0  0  0  0  0  0  0
   11.2737  -14.9986   22.9830 O   0  0  0  0  0  0  0  0  0  0  0  0
   11.2277  -16.9696   24.1382 O   0  0  0  0  0  0  0  0  0  0  0  0
  1  2  1  0
  3  2  1  0
  3  4  2  0
  6  5  1  1
  6  7  1  0
  6  8  1  0
  8 10  1  0
  8  9  1  6
  9  3  1  0
 10 11  2  0
 10 16  1  0
 13 12  1  6
 13 15  1  0
 14 13  1  0
 15 17  1  0
 15 16  1  6
 17 18  2  0
 17 19  1  0
M  END
$$$$
