GVT.pdb
     RDKit          3D

 19 18  0  0  1  0  0  0  0  0999 V2000
    4.4559  -18.7126   24.5041 N   0  0  0  0  0  0  0  0  0  0  0  0
    4.9299  -17.6540   25.3547 C   0  0  0  0  0  0  0  0  0  0  0  0
    5.9547  -16.8044   24.6456 C   0  0  0  0  0  0  0  0  0  0  0  0
    6.1860  -17.0680   23.4429 O   0  0  0  0  0  0  0  0  0  0  0  0
    7.9888  -13.8731   27.0530 C   0  0  0  0  0  0  0  0  0  0  0  0
    7.5593  -13.5432   25.6235 C   0  0  2  0  0  0  0  0  0  0  0  0
    6.1411  -13.0160   25.7230 C   0  0  0  0  0  0  0  0  0  0  0  0
    7.6159  -14.8498   24.8539 C   0  0  2  0  0  0  0  0  0  0  0  0
    6.5944  -15.7781   25.3389 N   0  0  0  0  0  0  0  0  0  0  0  0
    8.9138  -15.5096   24.8333 C   0  0  0  0  0  0  0  0  0  0  0  0
    9.2813  -16.1150   25.8966 O   0  0  0  0  0  0  0  0  0  0  0  0
    9.9546  -17.9139   22.0265 C   0  0  0  0  0  0  0  0  0  0  0  0
   11.1953  -17.1419   22.4333 C   0  0  1  0  0  0  0  0  0  0  0  0
   11.3415  -16.1358   21.4557 O   0  0  0  0  0  0  0  0  0  0  0  0
   10.9158  -16.5486   23.7927 C   0  0  2  0  0  0  0  0  0  0  0  0
    9.8464  -15.5769   23.7720 N   0  0  0  0  0  0  0  0  0  0  0  0
   12.1558  -15.8401   24.2122 C   0  0  0  0  0  0  0  0  0  0  0  0
   12.0711  -14.5941   24.4121 O   0  0  0  0  0  0  0  0  0  0  0  0
   13.3639  -16.4782   24.3863 O   0  0  0  0  0  0  0  0  0  0  0  0
  1  2  1  0
  3  2  1  0
  3  4  2  0
  6  5  1  1
  6  7  1  0
  6  8  1  0
  8 10  1  0
  8  9  1  1
  9  3  1  0
 10 11  2  0
 10 16  1  0
 13 12  1  6
 13 15  1  0
 14 13  1  0
 15 17  1  0
 15 16  1  6
 17 18  2  0
 17 19  1  0
M  END
$$$$
