GVT.pdb
     RDKit          3D

 19 18  0  0  1  0  0  0  0  0999 V2000
    4.4929  -19.5416   23.0968 N   0  0  0  0  0  0  0  0  0  0  0  0
    4.9925  -18.7686   24.2021 C   0  0  0  0  0  0  0  0  0  0  0  0
    5.9922  -17.7392   23.7378 C   0  0  0  0  0  0  0  0  0  0  0  0
    6.4693  -17.8800   22.5880 O   0  0  0  0  0  0  0  0  0  0  0  0
    7.9989  -13.3335   24.8586 C   0  0  0  0  0  0  0  0  0  0  0  0
    6.9981  -14.4224   25.2453 C   0  0  2  0  0  0  0  0  0  0  0  0
    7.2643  -14.7374   26.7044 C   0  0  0  0  0  0  0  0  0  0  0  0
    7.3029  -15.6115   24.3533 C   0  0  2  0  0  0  0  0  0  0  0  0
    6.3424  -16.6902   24.5864 N   0  0  0  0  0  0  0  0  0  0  0  0
    8.6604  -16.1306   24.4424 C   0  0  0  0  0  0  0  0  0  0  0  0
    8.9546  -16.8308   25.4697 O   0  0  0  0  0  0  0  0  0  0  0  0
   10.4644  -18.1354   21.6970 C   0  0  0  0  0  0  0  0  0  0  0  0
   11.4798  -17.1879   22.3071 C   0  0  1  0  0  0  0  0  0  0  0  0
   11.5574  -16.1021   21.4103 O   0  0  0  0  0  0  0  0  0  0  0  0
   10.9279  -16.7562   23.6439 C   0  0  2  0  0  0  0  0  0  0  0  0
    9.7244  -15.9650   23.5254 N   0  0  0  0  0  0  0  0  0  0  0  0
   11.9664  -15.8985   24.2774 C   0  0  0  0  0  0  0  0  0  0  0  0
   11.6815  -14.6789   24.4535 O   0  0  0  0  0  0  0  0  0  0  0  0
   13.1979  -16.3746   24.6696 O   0  0  0  0  0  0  0  0  0  0  0  0
  1  2  1  0
  3  2  1  0
  3  4  2  0
  6  5  1  6
  6  7  1  0
  6  8  1  0
  8 10  1  0
  8  9  1  1
  9  3  1  0
 10 11  2  0
 10 16  1  0
 13 12  1  6
 13 15  1  0
 14 13  1  0
 15 17  1  0
 15 16  1  6
 17 18  2  0
 17 19  1  0
M  END
$$$$
