GVT.pdb
     RDKit          3D

 19 18  0  0  1  0  0  0  0  0999 V2000
    5.0741  -19.3153   25.7433 N   0  0  0  0  0  0  0  0  0  0  0  0
    5.4653  -18.0759   26.3594 C   0  0  0  0  0  0  0  0  0  0  0  0
    6.1341  -17.1612   25.3639 C   0  0  0  0  0  0  0  0  0  0  0  0
    6.1181  -17.5118   24.1612 O   0  0  0  0  0  0  0  0  0  0  0  0
    8.2503  -13.8546   27.0386 C   0  0  0  0  0  0  0  0  0  0  0  0
    7.4651  -13.6454   25.7438 C   0  0  2  0  0  0  0  0  0  0  0  0
    6.0662  -13.2374   26.1631 C   0  0  0  0  0  0  0  0  0  0  0  0
    7.4652  -14.9842   25.0294 C   0  0  2  0  0  0  0  0  0  0  0  0
    6.7334  -15.9836   25.8079 N   0  0  0  0  0  0  0  0  0  0  0  0
    8.7773  -15.5022   24.6687 C   0  0  0  0  0  0  0  0  0  0  0  0
    9.4831  -16.0142   25.6024 O   0  0  0  0  0  0  0  0  0  0  0  0
    9.4936  -17.3805   21.1876 C   0  0  0  0  0  0  0  0  0  0  0  0
   10.7351  -16.6560   21.6722 C   0  0  1  0  0  0  0  0  0  0  0  0
   10.7826  -15.4624   20.9223 O   0  0  0  0  0  0  0  0  0  0  0  0
   10.5317  -16.3729   23.1407 C   0  0  2  0  0  0  0  0  0  0  0  0
    9.3933  -15.5199   23.3956 N   0  0  0  0  0  0  0  0  0  0  0  0
   11.7459  -15.6498   23.6080 C   0  0  0  0  0  0  0  0  0  0  0  0
   11.5775  -14.5042   24.1169 O   0  0  0  0  0  0  0  0  0  0  0  0
   13.0166  -16.1715   23.5083 O   0  0  0  0  0  0  0  0  0  0  0  0
  1  2  1  0
  3  2  1  0
  3  4  2  0
  6  5  1  1
  6  7  1  0
  6  8  1  0
  8 10  1  0
  8  9  1  1
  9  3  1  0
 10 11  2  0
 10 16  1  0
 13 12  1  6
 13 15  1  0
 14 13  1  0
 15 17  1  0
 15 16  1  6
 17 18  2  0
 17 19  1  0
M  END
$$$$
