GVT.pdb
     RDKit          3D

 19 18  0  0  1  0  0  0  0  0999 V2000
    6.8902  -14.4977   20.0282 N   0  0  0  0  0  0  0  0  0  0  0  0
    6.2761  -14.1617   21.2848 C   0  0  0  0  0  0  0  0  0  0  0  0
    7.2890  -14.1623   22.4023 C   0  0  0  0  0  0  0  0  0  0  0  0
    8.4240  -14.6279   22.1481 O   0  0  0  0  0  0  0  0  0  0  0  0
    8.1163  -12.4316   26.9969 C   0  0  0  0  0  0  0  0  0  0  0  0
    7.1462  -12.5336   25.8199 C   0  0  2  0  0  0  0  0  0  0  0  0
    5.8424  -13.0517   26.3950 C   0  0  0  0  0  0  0  0  0  0  0  0
    7.7617  -13.5257   24.8507 C   0  0  2  0  0  0  0  0  0  0  0  0
    6.9339  -13.6557   23.6514 N   0  0  0  0  0  0  0  0  0  0  0  0
    8.0473  -14.8438   25.3996 C   0  0  0  0  0  0  0  0  0  0  0  0
    7.0513  -15.5560   25.7642 O   0  0  0  0  0  0  0  0  0  0  0  0
    9.5136  -17.8025   23.7928 C   0  0  0  0  0  0  0  0  0  0  0  0
   10.2516  -17.6842   25.1127 C   0  0  1  0  0  0  0  0  0  0  0  0
   11.4638  -17.0338   24.8013 O   0  0  0  0  0  0  0  0  0  0  0  0
    9.3928  -16.8375   26.0203 C   0  0  2  0  0  0  0  0  0  0  0  0
    9.3058  -15.4614   25.5877 N   0  0  0  0  0  0  0  0  0  0  0  0
   10.0475  -16.8455   27.3570 C   0  0  0  0  0  0  0  0  0  0  0  0
   10.4277  -15.7325   27.8221 O   0  0  0  0  0  0  0  0  0  0  0  0
   10.2495  -17.9950   28.0883 O   0  0  0  0  0  0  0  0  0  0  0  0
  1  2  1  0
  3  2  1  0
  3  4  2  0
  6  5  1  1
  6  7  1  0
  6  8  1  0
  8 10  1  0
  8  9  1  6
  9  3  1  0
 10 11  2  0
 10 16  1  0
 13 12  1  6
 13 15  1  0
 14 13  1  0
 15 17  1  0
 15 16  1  6
 17 18  2  0
 17 19  1  0
M  END
$$$$
