GVT.pdb
     RDKit          3D

 19 18  0  0  1  0  0  0  0  0999 V2000
    7.1300  -18.4563   16.4699 N   0  0  0  0  0  0  0  0  0  0  0  0
    6.5860  -17.5267   17.4232 C   0  0  0  0  0  0  0  0  0  0  0  0
    7.6817  -16.8424   18.2016 C   0  0  0  0  0  0  0  0  0  0  0  0
    8.8293  -17.3407   18.1366 O   0  0  0  0  0  0  0  0  0  0  0  0
    8.7121  -12.7367   20.8241 C   0  0  0  0  0  0  0  0  0  0  0  0
    7.6508  -13.5444   20.0770 C   0  0  2  0  0  0  0  0  0  0  0  0
    6.4863  -13.6950   21.0364 C   0  0  0  0  0  0  0  0  0  0  0  0
    8.2876  -14.8843   19.7579 C   0  0  2  0  0  0  0  0  0  0  0  0
    7.3849  -15.7042   18.9496 N   0  0  0  0  0  0  0  0  0  0  0  0
    8.7524  -15.6473   20.9076 C   0  0  0  0  0  0  0  0  0  0  0  0
    7.8769  -16.0089   21.7648 O   0  0  0  0  0  0  0  0  0  0  0  0
   10.4957  -19.0085   21.2348 C   0  0  0  0  0  0  0  0  0  0  0  0
   11.2697  -18.0211   22.0875 C   0  0  1  0  0  0  0  0  0  0  0  0
   12.3556  -17.6122   21.2856 O   0  0  0  0  0  0  0  0  0  0  0  0
   10.3386  -16.8693   22.3778 C   0  0  2  0  0  0  0  0  0  0  0  0
   10.0715  -16.0560   21.2135 N   0  0  0  0  0  0  0  0  0  0  0  0
   11.0256  -16.0068   23.3776 C   0  0  0  0  0  0  0  0  0  0  0  0
   11.4665  -14.8918   22.9748 O   0  0  0  0  0  0  0  0  0  0  0  0
   11.1944  -16.3711   24.6951 O   0  0  0  0  0  0  0  0  0  0  0  0
  1  2  1  0
  3  2  1  0
  3  4  2  0
  6  5  1  1
  6  7  1  0
  6  8  1  0
  8 10  1  0
  8  9  1  1
  9  3  1  0
 10 11  2  0
 10 16  1  0
 13 12  1  6
 13 15  1  0
 14 13  1  0
 15 17  1  0
 15 16  1  6
 17 18  2  0
 17 19  1  0
M  END
$$$$
