GVT.pdb
     RDKit          3D

 19 18  0  0  1  0  0  0  0  0999 V2000
    7.0748  -14.7093   20.1526 N   0  0  0  0  0  0  0  0  0  0  0  0
    6.3964  -14.4026   21.3832 C   0  0  0  0  0  0  0  0  0  0  0  0
    7.3504  -14.4285   22.5511 C   0  0  0  0  0  0  0  0  0  0  0  0
    8.4613  -14.9796   22.3729 O   0  0  0  0  0  0  0  0  0  0  0  0
    8.0741  -12.5620   27.1089 C   0  0  0  0  0  0  0  0  0  0  0  0
    7.1392  -12.6738   25.9046 C   0  0  2  0  0  0  0  0  0  0  0  0
    5.7987  -13.1205   26.4545 C   0  0  0  0  0  0  0  0  0  0  0  0
    7.7473  -13.7250   24.9947 C   0  0  2  0  0  0  0  0  0  0  0  0
    6.9704  -13.8507   23.7614 N   0  0  0  0  0  0  0  0  0  0  0  0
    7.9391  -15.0380   25.5941 C   0  0  0  0  0  0  0  0  0  0  0  0
    6.8915  -15.7051   25.8935 O   0  0  0  0  0  0  0  0  0  0  0  0
    8.9847  -18.2126   24.3478 C   0  0  0  0  0  0  0  0  0  0  0  0
    9.8467  -18.0366   25.5835 C   0  0  1  0  0  0  0  0  0  0  0  0
   11.0784  -17.5413   25.1071 O   0  0  0  0  0  0  0  0  0  0  0  0
    9.1519  -17.0247   26.4617 C   0  0  2  0  0  0  0  0  0  0  0  0
    9.1548  -15.6948   25.8964 N   0  0  0  0  0  0  0  0  0  0  0  0
    9.9169  -16.9701   27.7373 C   0  0  0  0  0  0  0  0  0  0  0  0
   10.4382  -15.8617   28.0528 O   0  0  0  0  0  0  0  0  0  0  0  0
   10.0738  -18.0581   28.5671 O   0  0  0  0  0  0  0  0  0  0  0  0
  1  2  1  0
  3  2  1  0
  3  4  2  0
  6  5  1  1
  6  7  1  0
  6  8  1  0
  8 10  1  0
  8  9  1  6
  9  3  1  0
 10 11  2  0
 10 16  1  0
 13 12  1  6
 13 15  1  0
 14 13  1  0
 15 17  1  0
 15 16  1  6
 17 18  2  0
 17 19  1  0
M  END
$$$$
