GVT.pdb
     RDKit          3D

 19 18  0  0  1  0  0  0  0  0999 V2000
    3.6501  -18.5232   20.3758 N   0  0  0  0  0  0  0  0  0  0  0  0
    3.8812  -17.1722   20.8118 C   0  0  0  0  0  0  0  0  0  0  0  0
    5.3477  -16.9257   21.0641 C   0  0  0  0  0  0  0  0  0  0  0  0
    6.0313  -17.8943   21.4691 O   0  0  0  0  0  0  0  0  0  0  0  0
    8.9418  -13.5274   20.4287 C   0  0  0  0  0  0  0  0  0  0  0  0
    7.4487  -13.8426   20.3392 C   0  0  2  0  0  0  0  0  0  0  0  0
    6.7451  -12.7737   21.1526 C   0  0  0  0  0  0  0  0  0  0  0  0
    7.2705  -15.2186   20.9534 C   0  0  2  0  0  0  0  0  0  0  0  0
    5.8788  -15.6561   20.8424 N   0  0  0  0  0  0  0  0  0  0  0  0
    7.7229  -15.3538   22.3308 C   0  0  0  0  0  0  0  0  0  0  0  0
    7.1138  -14.6662   23.2187 O   0  0  0  0  0  0  0  0  0  0  0  0
    7.3400  -17.2342   25.3080 C   0  0  0  0  0  0  0  0  0  0  0  0
    8.8277  -17.2980   25.0189 C   0  0  1  0  0  0  0  0  0  0  0  0
    9.0057  -18.4701   24.2549 O   0  0  0  0  0  0  0  0  0  0  0  0
    9.1716  -16.0650   24.2192 C   0  0  2  0  0  0  0  0  0  0  0  0
    8.7677  -16.1629   22.8351 N   0  0  0  0  0  0  0  0  0  0  0  0
   10.6546  -15.9400   24.2444 C   0  0  0  0  0  0  0  0  0  0  0  0
   11.2599  -16.0023   23.1356 O   0  0  0  0  0  0  0  0  0  0  0  0
   11.3744  -15.7629   25.4052 O   0  0  0  0  0  0  0  0  0  0  0  0
  1  2  1  0
  3  2  1  0
  3  4  2  0
  6  5  1  1
  6  7  1  0
  6  8  1  0
  8 10  1  0
  8  9  1  1
  9  3  1  0
 10 11  2  0
 10 16  1  0
 13 12  1  6
 13 15  1  0
 14 13  1  0
 15 17  1  0
 15 16  1  6
 17 18  2  0
 17 19  1  0
M  END
$$$$
