GVT.pdb
     RDKit          3D

 19 18  0  0  1  0  0  0  0  0999 V2000
    7.1769  -14.2511   19.9816 N   0  0  0  0  0  0  0  0  0  0  0  0
    6.4525  -14.1779   21.2220 C   0  0  0  0  0  0  0  0  0  0  0  0
    7.3939  -14.1337   22.3996 C   0  0  0  0  0  0  0  0  0  0  0  0
    8.5384  -14.6170   22.2381 O   0  0  0  0  0  0  0  0  0  0  0  0
    7.8278  -12.4639   27.0814 C   0  0  0  0  0  0  0  0  0  0  0  0
    6.9445  -12.5708   25.8383 C   0  0  2  0  0  0  0  0  0  0  0  0
    5.6450  -13.2006   26.3004 C   0  0  0  0  0  0  0  0  0  0  0  0
    7.6874  -13.4716   24.8692 C   0  0  2  0  0  0  0  0  0  0  0  0
    6.9661  -13.5689   23.6001 N   0  0  0  0  0  0  0  0  0  0  0  0
    7.9979  -14.8050   25.3649 C   0  0  0  0  0  0  0  0  0  0  0  0
    7.0324  -15.6366   25.4564 O   0  0  0  0  0  0  0  0  0  0  0  0
   11.6784  -16.6795   25.1818 C   0  0  0  0  0  0  0  0  0  0  0  0
   10.3562  -17.4187   25.1024 C   0  0  1  0  0  0  0  0  0  0  0  0
   10.6416  -18.7331   25.5269 O   0  0  0  0  0  0  0  0  0  0  0  0
    9.4106  -16.7282   26.0548 C   0  0  2  0  0  0  0  0  0  0  0  0
    9.2520  -15.3210   25.7669 N   0  0  0  0  0  0  0  0  0  0  0  0
   10.0128  -16.8420   27.4113 C   0  0  0  0  0  0  0  0  0  0  0  0
   10.3909  -15.7714   27.9685 O   0  0  0  0  0  0  0  0  0  0  0  0
   10.1693  -18.0436   28.0660 O   0  0  0  0  0  0  0  0  0  0  0  0
  1  2  1  0
  3  2  1  0
  3  4  2  0
  6  5  1  1
  6  7  1  0
  6  8  1  0
  8 10  1  0
  8  9  1  6
  9  3  1  0
 10 11  2  0
 10 16  1  0
 13 12  1  1
 13 15  1  0
 14 13  1  0
 15 17  1  0
 15 16  1  6
 17 18  2  0
 17 19  1  0
M  END
$$$$
