FWF.pdb
     RDKit          3D

 37 40  0  0  1  0  0  0  0  0999 V2000
   25.8616  -22.1181  -16.3693 N   0  0  0  0  0  0  0  0  0  0  0  0
   26.6947  -22.4199  -15.2454 C   0  0  1  0  0  0  0  0  0  0  0  0
   28.1688  -22.3435  -15.5923 C   0  0  0  0  0  0  0  0  0  0  0  0
   28.6480  -23.6461  -16.1510 C   0  0  0  0  0  0  0  0  0  0  0  0
   27.7851  -24.7036  -16.2865 C   0  0  0  0  0  0  0  0  0  0  0  0
   28.2766  -25.8986  -16.8087 C   0  0  0  0  0  0  0  0  0  0  0  0
   29.5980  -26.0026  -17.1759 C   0  0  0  0  0  0  0  0  0  0  0  0
   30.4468  -24.9298  -17.0318 C   0  0  0  0  0  0  0  0  0  0  0  0
   29.9965  -23.7345  -16.5199 C   0  0  0  0  0  0  0  0  0  0  0  0
   26.4365  -21.4640  -14.1401 C   0  0  0  0  0  0  0  0  0  0  0  0
   26.9074  -20.2776  -14.1674 O   0  0  0  0  0  0  0  0  0  0  0  0
   25.6605  -21.8040  -13.0052 N   0  0  0  0  0  0  0  0  0  0  0  0
   25.4219  -20.7847  -11.9764 C   0  0  1  0  0  0  0  0  0  0  0  0
   23.9119  -20.6867  -11.9073 C   0  0  0  0  0  0  0  0  0  0  0  0
   23.2848  -20.0343  -13.0656 C   0  0  0  0  0  0  0  0  0  0  0  0
   22.1868  -20.4353  -13.7952 C   0  0  0  0  0  0  0  0  0  0  0  0
   21.9259  -19.5857  -14.7942 N   0  0  0  0  0  0  0  0  0  0  0  0
   22.8556  -18.6059  -14.7359 C   0  0  0  0  0  0  0  0  0  0  0  0
   23.0293  -17.4843  -15.5450 C   0  0  0  0  0  0  0  0  0  0  0  0
   24.0642  -16.6190  -15.2831 C   0  0  0  0  0  0  0  0  0  0  0  0
   24.9281  -16.8556  -14.2267 C   0  0  0  0  0  0  0  0  0  0  0  0
   24.7239  -17.9748  -13.4498 C   0  0  0  0  0  0  0  0  0  0  0  0
   23.6960  -18.8567  -13.6902 C   0  0  0  0  0  0  0  0  0  0  0  0
   26.0755  -21.2148  -10.7507 C   0  0  0  0  0  0  0  0  0  0  0  0
   26.1038  -22.4424  -10.4361 O   0  0  0  0  0  0  0  0  0  0  0  0
   26.7005  -20.3010   -9.8735 N   0  0  0  0  0  0  0  0  0  0  0  0
   26.9554  -20.6161   -8.4744 C   0  0  1  0  0  0  0  0  0  0  0  0
   27.9787  -19.5786   -8.0106 C   0  0  0  0  0  0  0  0  0  0  0  0
   28.2694  -19.6409   -6.5792 C   0  0  0  0  0  0  0  0  0  0  0  0
   29.0410  -20.6541   -6.0587 C   0  0  0  0  0  0  0  0  0  0  0  0
   29.3284  -20.7277   -4.6927 C   0  0  0  0  0  0  0  0  0  0  0  0
   28.8278  -19.7589   -3.8289 C   0  0  0  0  0  0  0  0  0  0  0  0
   28.0518  -18.7375   -4.3433 C   0  0  0  0  0  0  0  0  0  0  0  0
   27.7808  -18.6872   -5.7049 C   0  0  0  0  0  0  0  0  0  0  0  0
   25.7686  -20.6665   -7.6375 C   0  0  0  0  0  0  0  0  0  0  0  0
   24.6195  -19.9746   -7.9786 O   0  0  0  0  0  0  0  0  0  0  0  0
   25.7578  -21.3389   -6.5839 O   0  0  0  0  0  0  0  0  0  0  0  0
  2  1  1  6
  2  3  1  0
  3  4  1  0
  4  5  2  0
  5  6  1  0
  7  6  2  0
  8  7  1  0
  9  4  1  0
  9  8  2  0
 10 11  2  0
 10  2  1  0
 12 10  1  0
 13 24  1  0
 13 12  1  0
 13 14  1  1
 15 23  1  0
 15 14  1  0
 16 15  2  0
 17 16  1  0
 17 18  1  0
 18 23  2  0
 19 18  1  0
 19 20  2  0
 20 21  1  0
 21 22  2  0
 23 22  1  0
 24 25  2  0
 26 27  1  0
 26 24  1  0
 27 28  1  1
 28 29  1  0
 29 34  1  0
 30 29  2  0
 30 31  1  0
 31 32  2  0
 32 33  1  0
 34 33  2  0
 35 36  1  0
 35 27  1  0
 37 35  2  0
M  END
$$$$
