FWF.pdb
     RDKit          3D

 37 40  0  0  1  0  0  0  0  0999 V2000
   27.1583  -21.2264  -18.0901 N   0  0  0  0  0  0  0  0  0  0  0  0
   26.9127  -20.1632  -17.1640 C   0  0  1  0  0  0  0  0  0  0  0  0
   25.5691  -19.5013  -17.3999 C   0  0  0  0  0  0  0  0  0  0  0  0
   25.5826  -18.7187  -18.6750 C   0  0  0  0  0  0  0  0  0  0  0  0
   24.9383  -19.1938  -19.7888 C   0  0  0  0  0  0  0  0  0  0  0  0
   24.9803  -18.4324  -20.9552 C   0  0  0  0  0  0  0  0  0  0  0  0
   25.6553  -17.2341  -20.9765 C   0  0  0  0  0  0  0  0  0  0  0  0
   26.2948  -16.7756  -19.8483 C   0  0  0  0  0  0  0  0  0  0  0  0
   26.2745  -17.5007  -18.6788 C   0  0  0  0  0  0  0  0  0  0  0  0
   26.9293  -20.6772  -15.7720 C   0  0  0  0  0  0  0  0  0  0  0  0
   26.5336  -21.8598  -15.4982 O   0  0  0  0  0  0  0  0  0  0  0  0
   27.3817  -19.8991  -14.6786 N   0  0  0  0  0  0  0  0  0  0  0  0
   27.3157  -20.4671  -13.3268 C   0  0  1  0  0  0  0  0  0  0  0  0
   28.4768  -19.8166  -12.6036 C   0  0  0  0  0  0  0  0  0  0  0  0
   28.7757  -20.3879  -11.2826 C   0  0  0  0  0  0  0  0  0  0  0  0
   29.6166  -21.4311  -10.9611 C   0  0  0  0  0  0  0  0  0  0  0  0
   29.6136  -21.6751   -9.6465 N   0  0  0  0  0  0  0  0  0  0  0  0
   28.7642  -20.7892   -9.0796 C   0  0  0  0  0  0  0  0  0  0  0  0
   28.4041  -20.6196   -7.7438 C   0  0  0  0  0  0  0  0  0  0  0  0
   27.5070  -19.6343   -7.4082 C   0  0  0  0  0  0  0  0  0  0  0  0
   26.9639  -18.8159   -8.3846 C   0  0  0  0  0  0  0  0  0  0  0  0
   27.3444  -19.0143   -9.6937 C   0  0  0  0  0  0  0  0  0  0  0  0
   28.2403  -19.9930  -10.0566 C   0  0  0  0  0  0  0  0  0  0  0  0
   26.0000  -20.1810  -12.7776 C   0  0  0  0  0  0  0  0  0  0  0  0
   25.5084  -19.0158  -12.8652 O   0  0  0  0  0  0  0  0  0  0  0  0
   25.2229  -21.1715  -12.1371 N   0  0  0  0  0  0  0  0  0  0  0  0
   23.9762  -20.8592  -11.4516 C   0  0  1  0  0  0  0  0  0  0  0  0
   22.8782  -21.4825  -12.3144 C   0  0  0  0  0  0  0  0  0  0  0  0
   22.5573  -20.7027  -13.5086 C   0  0  0  0  0  0  0  0  0  0  0  0
   21.8188  -19.5453  -13.4190 C   0  0  0  0  0  0  0  0  0  0  0  0
   21.5038  -18.7884  -14.5511 C   0  0  0  0  0  0  0  0  0  0  0  0
   21.9418  -19.2051  -15.8040 C   0  0  0  0  0  0  0  0  0  0  0  0
   22.6842  -20.3666  -15.9032 C   0  0  0  0  0  0  0  0  0  0  0  0
   22.9839  -21.1009  -14.7625 C   0  0  0  0  0  0  0  0  0  0  0  0
   23.9248  -21.2823  -10.0624 C   0  0  0  0  0  0  0  0  0  0  0  0
   24.9578  -22.0067   -9.4937 O   0  0  0  0  0  0  0  0  0  0  0  0
   22.9409  -21.0009   -9.3447 O   0  0  0  0  0  0  0  0  0  0  0  0
  2  1  1  6
  2  3  1  0
  3  4  1  0
  4  5  2  0
  5  6  1  0
  7  6  2  0
  8  7  1  0
  9  4  1  0
  9  8  2  0
 10 11  2  0
 10  2  1  0
 12 10  1  0
 13 24  1  0
 13 12  1  0
 13 14  1  1
 15 23  1  0
 15 14  1  0
 16 15  2  0
 17 16  1  0
 17 18  1  0
 18 23  2  0
 19 18  1  0
 19 20  2  0
 20 21  1  0
 21 22  2  0
 23 22  1  0
 24 25  2  0
 26 27  1  0
 26 24  1  0
 27 28  1  6
 28 29  1  0
 29 34  1  0
 30 29  2  0
 30 31  1  0
 31 32  2  0
 32 33  1  0
 34 33  2  0
 35 36  1  0
 35 27  1  0
 37 35  2  0
M  END
$$$$
