FWF.pdb
     RDKit          3D

 37 40  0  0  1  0  0  0  0  0999 V2000
   22.3279  -20.7754  -15.0872 N   0  0  0  0  0  0  0  0  0  0  0  0
   22.3930  -20.2439  -13.7600 C   0  0  1  0  0  0  0  0  0  0  0  0
   21.1678  -20.6027  -12.9420 C   0  0  0  0  0  0  0  0  0  0  0  0
   19.9697  -19.8494  -13.4273 C   0  0  0  0  0  0  0  0  0  0  0  0
   19.6884  -18.6001  -12.9358 C   0  0  0  0  0  0  0  0  0  0  0  0
   18.5600  -17.9371  -13.4146 C   0  0  0  0  0  0  0  0  0  0  0  0
   17.7549  -18.5321  -14.3579 C   0  0  0  0  0  0  0  0  0  0  0  0
   18.0550  -19.7858  -14.8378 C   0  0  0  0  0  0  0  0  0  0  0  0
   19.1609  -20.4702  -14.3880 C   0  0  0  0  0  0  0  0  0  0  0  0
   23.5849  -20.7715  -13.0507 C   0  0  0  0  0  0  0  0  0  0  0  0
   23.8799  -22.0132  -13.0850 O   0  0  0  0  0  0  0  0  0  0  0  0
   24.4571  -19.9408  -12.3057 N   0  0  0  0  0  0  0  0  0  0  0  0
   25.6042  -20.5482  -11.6206 C   0  0  1  0  0  0  0  0  0  0  0  0
   26.7832  -19.7166  -12.0818 C   0  0  0  0  0  0  0  0  0  0  0  0
   28.0903  -20.3753  -11.9460 C   0  0  0  0  0  0  0  0  0  0  0  0
   28.7538  -21.1764  -12.8498 C   0  0  0  0  0  0  0  0  0  0  0  0
   29.9192  -21.6088  -12.3575 N   0  0  0  0  0  0  0  0  0  0  0  0
   30.0405  -21.0945  -11.1131 C   0  0  0  0  0  0  0  0  0  0  0  0
   31.0643  -21.2387  -10.1782 C   0  0  0  0  0  0  0  0  0  0  0  0
   30.9589  -20.6083   -8.9617 C   0  0  0  0  0  0  0  0  0  0  0  0
   29.8481  -19.8366   -8.6638 C   0  0  0  0  0  0  0  0  0  0  0  0
   28.8572  -19.7182   -9.6136 C   0  0  0  0  0  0  0  0  0  0  0  0
   28.9379  -20.3384  -10.8387 C   0  0  0  0  0  0  0  0  0  0  0  0
   25.3447  -20.5224  -10.1900 C   0  0  0  0  0  0  0  0  0  0  0  0
   24.4615  -19.7485   -9.7127 O   0  0  0  0  0  0  0  0  0  0  0  0
   26.0493  -21.3467   -9.2849 N   0  0  0  0  0  0  0  0  0  0  0  0
   26.1004  -21.0671   -7.8563 C   0  0  1  0  0  0  0  0  0  0  0  0
   27.4387  -21.6373   -7.3846 C   0  0  0  0  0  0  0  0  0  0  0  0
   27.9492  -21.0063   -6.1687 C   0  0  0  0  0  0  0  0  0  0  0  0
   28.7549  -19.8931   -6.2355 C   0  0  0  0  0  0  0  0  0  0  0  0
   29.2508  -19.2780   -5.0824 C   0  0  0  0  0  0  0  0  0  0  0  0
   28.9288  -19.7946   -3.8315 C   0  0  0  0  0  0  0  0  0  0  0  0
   28.1199  -20.9126   -3.7552 C   0  0  0  0  0  0  0  0  0  0  0  0
   27.6400  -21.5053   -4.9164 C   0  0  0  0  0  0  0  0  0  0  0  0
   25.9154  -19.6695   -7.5042 C   0  0  0  0  0  0  0  0  0  0  0  0
   26.4081  -18.6555   -8.3070 O   0  0  0  0  0  0  0  0  0  0  0  0
   25.3042  -19.3486   -6.4623 O   0  0  0  0  0  0  0  0  0  0  0  0
  2  1  1  6
  2  3  1  0
  3  4  1  0
  4  5  2  0
  5  6  1  0
  7  6  2  0
  8  7  1  0
  9  4  1  0
  9  8  2  0
 10 11  2  0
 10  2  1  0
 12 10  1  0
 13 24  1  0
 13 12  1  0
 13 14  1  1
 15 23  1  0
 15 14  1  0
 16 15  2  0
 17 16  1  0
 17 18  1  0
 18 23  2  0
 19 18  1  0
 19 20  2  0
 20 21  1  0
 21 22  2  0
 23 22  1  0
 24 25  2  0
 26 27  1  0
 26 24  1  0
 27 28  1  6
 28 29  1  0
 29 34  1  0
 30 29  2  0
 30 31  1  0
 31 32  2  0
 32 33  1  0
 34 33  2  0
 35 36  1  0
 35 27  1  0
 37 35  2  0
M  END
$$$$
