FWF.pdb
     RDKit          3D

 37 40  0  0  1  0  0  0  0  0999 V2000
   39.6559   -7.8356  -13.5355 N   0  0  0  0  0  0  0  0  0  0  0  0
   38.6378   -7.9400  -12.5349 C   0  0  1  0  0  0  0  0  0  0  0  0
   38.5243   -9.3475  -11.9826 C   0  0  0  0  0  0  0  0  0  0  0  0
   38.0630  -10.2957  -13.0440 C   0  0  0  0  0  0  0  0  0  0  0  0
   36.7790  -10.2320  -13.5224 C   0  0  0  0  0  0  0  0  0  0  0  0
   36.3926  -11.1375  -14.5087 C   0  0  0  0  0  0  0  0  0  0  0  0
   37.2869  -12.0686  -14.9832 C   0  0  0  0  0  0  0  0  0  0  0  0
   38.5700  -12.1155  -14.4899 C   0  0  0  0  0  0  0  0  0  0  0  0
   38.9867  -11.2373  -13.5158 C   0  0  0  0  0  0  0  0  0  0  0  0
   38.9325   -7.0282  -11.4018 C   0  0  0  0  0  0  0  0  0  0  0  0
   40.1335   -6.7824  -11.0449 O   0  0  0  0  0  0  0  0  0  0  0  0
   37.9138   -6.3820  -10.6599 N   0  0  0  0  0  0  0  0  0  0  0  0
   38.2374   -5.8323   -9.3380 C   0  0  1  0  0  0  0  0  0  0  0  0
   37.0210   -5.0022   -8.9835 C   0  0  0  0  0  0  0  0  0  0  0  0
   37.1185   -4.2844   -7.7044 C   0  0  0  0  0  0  0  0  0  0  0  0
   37.6702   -3.0486   -7.4454 C   0  0  0  0  0  0  0  0  0  0  0  0
   37.5869   -2.7374   -6.1477 N   0  0  0  0  0  0  0  0  0  0  0  0
   36.9744   -3.7719   -5.5293 C   0  0  0  0  0  0  0  0  0  0  0  0
   36.6469   -3.9478   -4.1859 C   0  0  0  0  0  0  0  0  0  0  0  0
   36.0162   -5.1036   -3.7925 C   0  0  0  0  0  0  0  0  0  0  0  0
   35.7074   -6.0861   -4.7185 C   0  0  0  0  0  0  0  0  0  0  0  0
   36.0472   -5.8756   -6.0369 C   0  0  0  0  0  0  0  0  0  0  0  0
   36.6787   -4.7282   -6.4572 C   0  0  0  0  0  0  0  0  0  0  0  0
   38.5182   -6.9417   -8.4409 C   0  0  0  0  0  0  0  0  0  0  0  0
   37.7421   -7.9431   -8.3975 O   0  0  0  0  0  0  0  0  0  0  0  0
   39.6500   -6.9552   -7.5960 N   0  0  0  0  0  0  0  0  0  0  0  0
   40.0617   -8.1467   -6.8663 C   0  0  1  0  0  0  0  0  0  0  0  0
   40.2699   -9.2192   -7.9363 C   0  0  0  0  0  0  0  0  0  0  0  0
   39.1144  -10.0956   -8.1209 C   0  0  0  0  0  0  0  0  0  0  0  0
   38.6774  -10.4320   -9.3813 C   0  0  0  0  0  0  0  0  0  0  0  0
   37.5745  -11.2689   -9.5747 C   0  0  0  0  0  0  0  0  0  0  0  0
   36.8944  -11.7800   -8.4740 C   0  0  0  0  0  0  0  0  0  0  0  0
   37.3267  -11.4471   -7.2042 C   0  0  0  0  0  0  0  0  0  0  0  0
   38.4256  -10.6134   -7.0391 C   0  0  0  0  0  0  0  0  0  0  0  0
   41.2177   -7.9622   -6.0053 C   0  0  0  0  0  0  0  0  0  0  0  0
   41.3194   -8.6164   -4.7899 O   0  0  0  0  0  0  0  0  0  0  0  0
   42.1518   -7.2039   -6.3436 O   0  0  0  0  0  0  0  0  0  0  0  0
  2  1  1  6
  2  3  1  0
  3  4  1  0
  4  5  2  0
  5  6  1  0
  7  6  2  0
  8  7  1  0
  9  4  1  0
  9  8  2  0
 10 11  2  0
 10  2  1  0
 12 10  1  0
 13 24  1  0
 13 12  1  0
 13 14  1  1
 15 23  1  0
 15 14  1  0
 16 15  2  0
 17 16  1  0
 17 18  1  0
 18 23  2  0
 19 18  1  0
 19 20  2  0
 20 21  1  0
 21 22  2  0
 23 22  1  0
 24 25  2  0
 26 27  1  0
 26 24  1  0
 27 28  1  6
 28 29  1  0
 29 34  1  0
 30 29  2  0
 30 31  1  0
 31 32  2  0
 32 33  1  0
 34 33  2  0
 35 36  1  0
 35 27  1  0
 37 35  2  0
M  END
$$$$
