FWF.pdb
     RDKit          3D

 37 40  0  0  1  0  0  0  0  0999 V2000
   27.2598  -18.2053   -7.9981 N   0  0  0  0  0  0  0  0  0  0  0  0
   27.2057  -19.5999   -8.3153 C   0  0  1  0  0  0  0  0  0  0  0  0
   26.7017  -20.4297   -7.1507 C   0  0  0  0  0  0  0  0  0  0  0  0
   27.6764  -20.3944   -6.0161 C   0  0  0  0  0  0  0  0  0  0  0  0
   28.7651  -19.5612   -6.0611 C   0  0  0  0  0  0  0  0  0  0  0  0
   29.6481  -19.5643   -4.9829 C   0  0  0  0  0  0  0  0  0  0  0  0
   29.4223  -20.3879   -3.9047 C   0  0  0  0  0  0  0  0  0  0  0  0
   28.3241  -21.2158   -3.8795 C   0  0  0  0  0  0  0  0  0  0  0  0
   27.4310  -21.2395   -4.9262 C   0  0  0  0  0  0  0  0  0  0  0  0
   26.2988  -19.8323   -9.4666 C   0  0  0  0  0  0  0  0  0  0  0  0
   25.1265  -19.3274   -9.4985 O   0  0  0  0  0  0  0  0  0  0  0  0
   26.6744  -20.6150  -10.5856 N   0  0  0  0  0  0  0  0  0  0  0  0
   25.8947  -20.5041  -11.8242 C   0  0  1  0  0  0  0  0  0  0  0  0
   26.8556  -20.9671  -12.8997 C   0  0  0  0  0  0  0  0  0  0  0  0
   26.2638  -21.0943  -14.2392 C   0  0  0  0  0  0  0  0  0  0  0  0
   26.0271  -20.1133  -15.1774 C   0  0  0  0  0  0  0  0  0  0  0  0
   25.4547  -20.6150  -16.2767 N   0  0  0  0  0  0  0  0  0  0  0  0
   25.3053  -21.9436  -16.0761 C   0  0  0  0  0  0  0  0  0  0  0  0
   24.7649  -22.9219  -16.9091 C   0  0  0  0  0  0  0  0  0  0  0  0
   24.7218  -24.2255  -16.4767 C   0  0  0  0  0  0  0  0  0  0  0  0
   25.2096  -24.5680  -15.2265 C   0  0  0  0  0  0  0  0  0  0  0  0
   25.7361  -23.5731  -14.4322 C   0  0  0  0  0  0  0  0  0  0  0  0
   25.7912  -22.2607  -14.8407 C   0  0  0  0  0  0  0  0  0  0  0  0
   24.6908  -21.3062  -11.6765 C   0  0  0  0  0  0  0  0  0  0  0  0
   24.7099  -22.3699  -10.9872 O   0  0  0  0  0  0  0  0  0  0  0  0
   23.4672  -20.9406  -12.2800 N   0  0  0  0  0  0  0  0  0  0  0  0
   22.2922  -21.8005  -12.2389 C   0  0  1  0  0  0  0  0  0  0  0  0
   21.3094  -21.0909  -11.3067 C   0  0  0  0  0  0  0  0  0  0  0  0
   20.6676  -19.9239  -11.9096 C   0  0  0  0  0  0  0  0  0  0  0  0
   19.4571  -20.0375  -12.5536 C   0  0  0  0  0  0  0  0  0  0  0  0
   18.8304  -18.9315  -13.1349 C   0  0  0  0  0  0  0  0  0  0  0  0
   19.4354  -17.6807  -13.0671 C   0  0  0  0  0  0  0  0  0  0  0  0
   20.6515  -17.5575  -12.4221 C   0  0  0  0  0  0  0  0  0  0  0  0
   21.2535  -18.6724  -11.8525 C   0  0  0  0  0  0  0  0  0  0  0  0
   21.7250  -22.1161  -13.5390 C   0  0  0  0  0  0  0  0  0  0  0  0
   20.8074  -23.1407  -13.6926 O   0  0  0  0  0  0  0  0  0  0  0  0
   22.0547  -21.4665  -14.5546 O   0  0  0  0  0  0  0  0  0  0  0  0
  2  1  1  1
  2  3  1  0
  3  4  1  0
  4  5  2  0
  5  6  1  0
  7  6  2  0
  8  7  1  0
  9  4  1  0
  9  8  2  0
 10 11  2  0
 10  2  1  0
 12 10  1  0
 13 24  1  0
 13 12  1  0
 13 14  1  6
 15 23  1  0
 15 14  1  0
 16 15  2  0
 17 16  1  0
 17 18  1  0
 18 23  2  0
 19 18  1  0
 19 20  2  0
 20 21  1  0
 21 22  2  0
 23 22  1  0
 24 25  2  0
 26 27  1  0
 26 24  1  0
 27 28  1  1
 28 29  1  0
 29 34  1  0
 30 29  2  0
 30 31  1  0
 31 32  2  0
 32 33  1  0
 34 33  2  0
 35 36  1  0
 35 27  1  0
 37 35  2  0
M  END
$$$$
