FWF.pdb
     RDKit          3D

 37 40  0  0  1  0  0  0  0  0999 V2000
   24.2439  -18.6345  -16.3391 N   0  0  0  0  0  0  0  0  0  0  0  0
   24.6741  -18.3503  -15.0040 C   0  0  1  0  0  0  0  0  0  0  0  0
   23.7307  -17.4008  -14.2916 C   0  0  0  0  0  0  0  0  0  0  0  0
   23.7486  -16.0528  -14.9405 C   0  0  0  0  0  0  0  0  0  0  0  0
   24.9011  -15.3095  -14.9667 C   0  0  0  0  0  0  0  0  0  0  0  0
   24.8700  -14.0580  -15.5791 C   0  0  0  0  0  0  0  0  0  0  0  0
   23.7047  -13.5903  -16.1407 C   0  0  0  0  0  0  0  0  0  0  0  0
   22.5599  -14.3518  -16.1037 C   0  0  0  0  0  0  0  0  0  0  0  0
   22.5534  -15.5920  -15.5075 C   0  0  0  0  0  0  0  0  0  0  0  0
   24.7486  -19.6008  -14.2085 C   0  0  0  0  0  0  0  0  0  0  0  0
   23.7402  -20.3760  -14.0978 O   0  0  0  0  0  0  0  0  0  0  0  0
   25.9272  -20.0060  -13.5358 N   0  0  0  0  0  0  0  0  0  0  0  0
   25.9318  -21.2874  -12.8200 C   0  0  1  0  0  0  0  0  0  0  0  0
   27.0111  -22.0883  -13.5185 C   0  0  0  0  0  0  0  0  0  0  0  0
   26.6146  -22.6529  -14.8165 C   0  0  0  0  0  0  0  0  0  0  0  0
   26.9707  -22.2440  -16.0832 C   0  0  0  0  0  0  0  0  0  0  0  0
   26.3916  -22.9991  -17.0224 N   0  0  0  0  0  0  0  0  0  0  0  0
   25.6403  -23.9229  -16.3823 C   0  0  0  0  0  0  0  0  0  0  0  0
   24.8406  -24.9422  -16.8966 C   0  0  0  0  0  0  0  0  0  0  0  0
   24.1627  -25.7673  -16.0318 C   0  0  0  0  0  0  0  0  0  0  0  0
   24.2702  -25.5911  -14.6623 C   0  0  0  0  0  0  0  0  0  0  0  0
   25.0702  -24.5727  -14.1924 C   0  0  0  0  0  0  0  0  0  0  0  0
   25.7594  -23.7329  -15.0360 C   0  0  0  0  0  0  0  0  0  0  0  0
   26.1679  -21.0194  -11.4104 C   0  0  0  0  0  0  0  0  0  0  0  0
   27.1024  -20.2407  -11.0537 O   0  0  0  0  0  0  0  0  0  0  0  0
   25.3783  -21.6009  -10.3939 N   0  0  0  0  0  0  0  0  0  0  0  0
   25.5764  -21.2941   -8.9837 C   0  0  1  0  0  0  0  0  0  0  0  0
   25.7110  -19.7721   -8.9205 C   0  0  0  0  0  0  0  0  0  0  0  0
   26.7750  -19.3140   -8.0287 C   0  0  0  0  0  0  0  0  0  0  0  0
   26.9580  -17.9737   -7.7778 C   0  0  0  0  0  0  0  0  0  0  0  0
   27.9703  -17.5196   -6.9276 C   0  0  0  0  0  0  0  0  0  0  0  0
   28.8195  -18.4353   -6.3147 C   0  0  0  0  0  0  0  0  0  0  0  0
   28.6428  -19.7836   -6.5612 C   0  0  0  0  0  0  0  0  0  0  0  0
   27.6290  -20.2091   -7.4104 C   0  0  0  0  0  0  0  0  0  0  0  0
   24.5497  -21.8173   -8.0985 C   0  0  0  0  0  0  0  0  0  0  0  0
   24.8541  -22.2390   -6.8159 O   0  0  0  0  0  0  0  0  0  0  0  0
   23.3613  -21.8997   -8.4767 O   0  0  0  0  0  0  0  0  0  0  0  0
  2  1  1  6
  2  3  1  0
  3  4  1  0
  4  5  2  0
  5  6  1  0
  7  6  2  0
  8  7  1  0
  9  4  1  0
  9  8  2  0
 10 11  2  0
 10  2  1  0
 12 10  1  0
 13 24  1  0
 13 12  1  0
 13 14  1  6
 15 23  1  0
 15 14  1  0
 16 15  2  0
 17 16  1  0
 17 18  1  0
 18 23  2  0
 19 18  1  0
 19 20  2  0
 20 21  1  0
 21 22  2  0
 23 22  1  0
 24 25  2  0
 26 27  1  0
 26 24  1  0
 27 28  1  6
 28 29  1  0
 29 34  1  0
 30 29  2  0
 30 31  1  0
 31 32  2  0
 32 33  1  0
 34 33  2  0
 35 36  1  0
 35 27  1  0
 37 35  2  0
M  END
$$$$
