FWF.pdb
     RDKit          3D

 37 40  0  0  1  0  0  0  0  0999 V2000
   28.2299  -21.6991  -15.8433 N   0  0  0  0  0  0  0  0  0  0  0  0
   28.2068  -20.6552  -14.8644 C   0  0  1  0  0  0  0  0  0  0  0  0
   27.5031  -19.4124  -15.3737 C   0  0  0  0  0  0  0  0  0  0  0  0
   28.3214  -18.7370  -16.4286 C   0  0  0  0  0  0  0  0  0  0  0  0
   29.4421  -18.0234  -16.0878 C   0  0  0  0  0  0  0  0  0  0  0  0
   30.1716  -17.4083  -17.1036 C   0  0  0  0  0  0  0  0  0  0  0  0
   29.7671  -17.5217  -18.4133 C   0  0  0  0  0  0  0  0  0  0  0  0
   28.6401  -18.2423  -18.7336 C   0  0  0  0  0  0  0  0  0  0  0  0
   27.8951  -18.8629  -17.7570 C   0  0  0  0  0  0  0  0  0  0  0  0
   27.5001  -21.1102  -13.6415 C   0  0  0  0  0  0  0  0  0  0  0  0
   26.5595  -21.9713  -13.7021 O   0  0  0  0  0  0  0  0  0  0  0  0
   27.8237  -20.6257  -12.3506 N   0  0  0  0  0  0  0  0  0  0  0  0
   26.9904  -21.0279  -11.2112 C   0  0  1  0  0  0  0  0  0  0  0  0
   27.8195  -20.6442  -10.0030 C   0  0  0  0  0  0  0  0  0  0  0  0
   27.0875  -20.6510   -8.7283 C   0  0  0  0  0  0  0  0  0  0  0  0
   25.7391  -20.8261   -8.5055 C   0  0  0  0  0  0  0  0  0  0  0  0
   25.4438  -20.7495   -7.2038 N   0  0  0  0  0  0  0  0  0  0  0  0
   26.6027  -20.5212   -6.5460 C   0  0  0  0  0  0  0  0  0  0  0  0
   26.8443  -20.3613   -5.1826 C   0  0  0  0  0  0  0  0  0  0  0  0
   28.1283  -20.1354   -4.7484 C   0  0  0  0  0  0  0  0  0  0  0  0
   29.1745  -20.0667   -5.6532 C   0  0  0  0  0  0  0  0  0  0  0  0
   28.8958  -20.2298   -6.9925 C   0  0  0  0  0  0  0  0  0  0  0  0
   27.6200  -20.4569   -7.4536 C   0  0  0  0  0  0  0  0  0  0  0  0
   25.7072  -20.3537  -11.3265 C   0  0  0  0  0  0  0  0  0  0  0  0
   25.6521  -19.1356  -11.6730 O   0  0  0  0  0  0  0  0  0  0  0  0
   24.4865  -21.0148  -11.0662 N   0  0  0  0  0  0  0  0  0  0  0  0
   23.2087  -20.5061  -11.5462 C   0  0  1  0  0  0  0  0  0  0  0  0
   23.3659  -20.3971  -13.0634 C   0  0  0  0  0  0  0  0  0  0  0  0
   22.1405  -19.9963  -13.7527 C   0  0  0  0  0  0  0  0  0  0  0  0
   21.8013  -18.6686  -13.8754 C   0  0  0  0  0  0  0  0  0  0  0  0
   20.6335  -18.2690  -14.5316 C   0  0  0  0  0  0  0  0  0  0  0  0
   19.7861  -19.2276  -15.0777 C   0  0  0  0  0  0  0  0  0  0  0  0
   20.1192  -20.5636  -14.9590 C   0  0  0  0  0  0  0  0  0  0  0  0
   21.2857  -20.9345  -14.3020 C   0  0  0  0  0  0  0  0  0  0  0  0
   22.0532  -21.2896  -11.1432 C   0  0  0  0  0  0  0  0  0  0  0  0
   22.0304  -22.6652  -11.2940 O   0  0  0  0  0  0  0  0  0  0  0  0
   21.0473  -20.7367  -10.6487 O   0  0  0  0  0  0  0  0  0  0  0  0
  2  1  1  6
  2  3  1  0
  3  4  1  0
  4  5  2  0
  5  6  1  0
  7  6  2  0
  8  7  1  0
  9  4  1  0
  9  8  2  0
 10 11  2  0
 10  2  1  0
 12 10  1  0
 13 24  1  0
 13 12  1  0
 13 14  1  1
 15 23  1  0
 15 14  1  0
 16 15  2  0
 17 16  1  0
 17 18  1  0
 18 23  2  0
 19 18  1  0
 19 20  2  0
 20 21  1  0
 21 22  2  0
 23 22  1  0
 24 25  2  0
 26 27  1  0
 26 24  1  0
 27 28  1  6
 28 29  1  0
 29 34  1  0
 30 29  2  0
 30 31  1  0
 31 32  2  0
 32 33  1  0
 34 33  2  0
 35 36  1  0
 35 27  1  0
 37 35  2  0
M  END
$$$$
