FWF.pdb
     RDKit          3D

 37 40  0  0  1  0  0  0  0  0999 V2000
   26.0672  -21.6862  -15.4814 N   0  0  0  0  0  0  0  0  0  0  0  0
   25.1678  -21.5573  -14.3755 C   0  0  1  0  0  0  0  0  0  0  0  0
   24.0910  -22.6246  -14.3898 C   0  0  0  0  0  0  0  0  0  0  0  0
   23.1421  -22.4023  -15.5251 C   0  0  0  0  0  0  0  0  0  0  0  0
   22.3480  -21.2844  -15.5582 C   0  0  0  0  0  0  0  0  0  0  0  0
   21.4769  -21.1207  -16.6336 C   0  0  0  0  0  0  0  0  0  0  0  0
   21.4239  -22.0651  -17.6323 C   0  0  0  0  0  0  0  0  0  0  0  0
   22.2291  -23.1791  -17.5799 C   0  0  0  0  0  0  0  0  0  0  0  0
   23.1012  -23.3739  -16.5334 C   0  0  0  0  0  0  0  0  0  0  0  0
   25.9064  -21.6723  -13.0936 C   0  0  0  0  0  0  0  0  0  0  0  0
   26.7474  -22.6124  -12.8961 O   0  0  0  0  0  0  0  0  0  0  0  0
   25.7279  -20.7573  -12.0274 N   0  0  0  0  0  0  0  0  0  0  0  0
   26.5812  -20.8757  -10.8391 C   0  0  1  0  0  0  0  0  0  0  0  0
   27.1255  -19.4758  -10.6433 C   0  0  0  0  0  0  0  0  0  0  0  0
   27.9476  -19.2992   -9.4376 C   0  0  0  0  0  0  0  0  0  0  0  0
   27.7280  -18.4780   -8.3531 C   0  0  0  0  0  0  0  0  0  0  0  0
   28.7135  -18.5787   -7.4552 N   0  0  0  0  0  0  0  0  0  0  0  0
   29.6027  -19.4745   -7.9395 C   0  0  0  0  0  0  0  0  0  0  0  0
   30.7995  -19.9359   -7.3940 C   0  0  0  0  0  0  0  0  0  0  0  0
   31.5417  -20.8627   -8.0859 C   0  0  0  0  0  0  0  0  0  0  0  0
   31.1081  -21.3359   -9.3132 C   0  0  0  0  0  0  0  0  0  0  0  0
   29.9201  -20.8560   -9.8194 C   0  0  0  0  0  0  0  0  0  0  0  0
   29.1582  -19.9285   -9.1475 C   0  0  0  0  0  0  0  0  0  0  0  0
   25.7698  -21.3876   -9.7463 C   0  0  0  0  0  0  0  0  0  0  0  0
   24.5375  -21.0997   -9.6736 O   0  0  0  0  0  0  0  0  0  0  0  0
   26.3076  -22.2171   -8.7375 N   0  0  0  0  0  0  0  0  0  0  0  0
   25.5873  -22.5105   -7.5058 C   0  0  1  0  0  0  0  0  0  0  0  0
   26.6498  -23.0256   -6.5340 C   0  0  0  0  0  0  0  0  0  0  0  0
   27.2950  -21.9690   -5.7565 C   0  0  0  0  0  0  0  0  0  0  0  0
   26.6199  -20.8129   -5.4395 C   0  0  0  0  0  0  0  0  0  0  0  0
   27.2225  -19.7935   -4.6968 C   0  0  0  0  0  0  0  0  0  0  0  0
   28.5358  -19.9400   -4.2620 C   0  0  0  0  0  0  0  0  0  0  0  0
   29.2214  -21.0982   -4.5760 C   0  0  0  0  0  0  0  0  0  0  0  0
   28.5997  -22.0964   -5.3156 C   0  0  0  0  0  0  0  0  0  0  0  0
   24.8138  -21.4004   -6.9757 C   0  0  0  0  0  0  0  0  0  0  0  0
   24.9447  -20.1229   -7.4916 O   0  0  0  0  0  0  0  0  0  0  0  0
   24.0082  -21.5742   -6.0360 O   0  0  0  0  0  0  0  0  0  0  0  0
  2  1  1  6
  2  3  1  0
  3  4  1  0
  4  5  2  0
  5  6  1  0
  7  6  2  0
  8  7  1  0
  9  4  1  0
  9  8  2  0
 10 11  2  0
 10  2  1  0
 12 10  1  0
 13 24  1  0
 13 12  1  0
 13 14  1  1
 15 23  1  0
 15 14  1  0
 16 15  2  0
 17 16  1  0
 17 18  1  0
 18 23  2  0
 19 18  1  0
 19 20  2  0
 20 21  1  0
 21 22  2  0
 23 22  1  0
 24 25  2  0
 26 27  1  0
 26 24  1  0
 27 28  1  1
 28 29  1  0
 29 34  1  0
 30 29  2  0
 30 31  1  0
 31 32  2  0
 32 33  1  0
 34 33  2  0
 35 36  1  0
 35 27  1  0
 37 35  2  0
M  END
$$$$
