FWF.pdb
     RDKit          3D

 37 40  0  0  1  0  0  0  0  0999 V2000
   25.8502  -18.5717  -15.6075 N   0  0  0  0  0  0  0  0  0  0  0  0
   26.8004  -18.7862  -14.5591 C   0  0  1  0  0  0  0  0  0  0  0  0
   27.7268  -17.5995  -14.3785 C   0  0  0  0  0  0  0  0  0  0  0  0
   28.5595  -17.3883  -15.6035 C   0  0  0  0  0  0  0  0  0  0  0  0
   29.4952  -18.3193  -15.9766 C   0  0  0  0  0  0  0  0  0  0  0  0
   30.2501  -18.0789  -17.1231 C   0  0  0  0  0  0  0  0  0  0  0  0
   30.0521  -16.9313  -17.8550 C   0  0  0  0  0  0  0  0  0  0  0  0
   29.1084  -16.0104  -17.4634 C   0  0  0  0  0  0  0  0  0  0  0  0
   28.3447  -16.2143  -16.3369 C   0  0  0  0  0  0  0  0  0  0  0  0
   26.1030  -19.0200  -13.2703 C   0  0  0  0  0  0  0  0  0  0  0  0
   25.4314  -18.0939  -12.7034 O   0  0  0  0  0  0  0  0  0  0  0  0
   26.1369  -20.2681  -12.6018 N   0  0  0  0  0  0  0  0  0  0  0  0
   25.3725  -20.4297  -11.3593 C   0  0  1  0  0  0  0  0  0  0  0  0
   24.3861  -21.5330  -11.6819 C   0  0  0  0  0  0  0  0  0  0  0  0
   23.1115  -21.0709  -12.2499 C   0  0  0  0  0  0  0  0  0  0  0  0
   22.0075  -20.5639  -11.5997 C   0  0  0  0  0  0  0  0  0  0  0  0
   21.0265  -20.2680  -12.4585 N   0  0  0  0  0  0  0  0  0  0  0  0
   21.4742  -20.5783  -13.6958 C   0  0  0  0  0  0  0  0  0  0  0  0
   20.8440  -20.4620  -14.9337 C   0  0  0  0  0  0  0  0  0  0  0  0
   21.5140  -20.8492  -16.0692 C   0  0  0  0  0  0  0  0  0  0  0  0
   22.8025  -21.3506  -15.9887 C   0  0  0  0  0  0  0  0  0  0  0  0
   23.3917  -21.4504  -14.7474 C   0  0  0  0  0  0  0  0  0  0  0  0
   22.7435  -21.0699  -13.5954 C   0  0  0  0  0  0  0  0  0  0  0  0
   26.3079  -20.7240  -10.2855 C   0  0  0  0  0  0  0  0  0  0  0  0
   27.1447  -21.6686  -10.4054 O   0  0  0  0  0  0  0  0  0  0  0  0
   26.3286  -19.9813   -9.0842 N   0  0  0  0  0  0  0  0  0  0  0  0
   27.0533  -20.4319   -7.9037 C   0  0  1  0  0  0  0  0  0  0  0  0
   27.7634  -19.1868   -7.3707 C   0  0  0  0  0  0  0  0  0  0  0  0
   28.3818  -19.3802   -6.0602 C   0  0  0  0  0  0  0  0  0  0  0  0
   29.5934  -20.0207   -5.9387 C   0  0  0  0  0  0  0  0  0  0  0  0
   30.1980  -20.2132   -4.6931 C   0  0  0  0  0  0  0  0  0  0  0  0
   29.5693  -19.7506   -3.5417 C   0  0  0  0  0  0  0  0  0  0  0  0
   28.3519  -19.1061   -3.6546 C   0  0  0  0  0  0  0  0  0  0  0  0
   27.7721  -18.9274   -4.9044 C   0  0  0  0  0  0  0  0  0  0  0  0
   26.2335  -21.0973   -6.9053 C   0  0  0  0  0  0  0  0  0  0  0  0
   26.7952  -21.9342   -5.9568 O   0  0  0  0  0  0  0  0  0  0  0  0
   24.9953  -20.9290   -6.8799 O   0  0  0  0  0  0  0  0  0  0  0  0
  2  1  1  6
  2  3  1  0
  3  4  1  0
  4  5  2  0
  5  6  1  0
  7  6  2  0
  8  7  1  0
  9  4  1  0
  9  8  2  0
 10 11  2  0
 10  2  1  0
 12 10  1  0
 13 24  1  0
 13 12  1  0
 13 14  1  6
 15 23  1  0
 15 14  1  0
 16 15  2  0
 17 16  1  0
 17 18  1  0
 18 23  2  0
 19 18  1  0
 19 20  2  0
 20 21  1  0
 21 22  2  0
 23 22  1  0
 24 25  2  0
 26 27  1  0
 26 24  1  0
 27 28  1  1
 28 29  1  0
 29 34  1  0
 30 29  2  0
 30 31  1  0
 31 32  2  0
 32 33  1  0
 34 33  2  0
 35 36  1  0
 35 27  1  0
 37 35  2  0
M  END
$$$$
