FWF.pdb
     RDKit          3D

 37 40  0  0  1  0  0  0  0  0999 V2000
   35.1470  -31.7581  -17.9508 N   0  0  0  0  0  0  0  0  0  0  0  0
   34.0397  -31.4591  -18.8070 C   0  0  1  0  0  0  0  0  0  0  0  0
   33.5444  -32.6863  -19.5470 C   0  0  0  0  0  0  0  0  0  0  0  0
   34.4607  -33.0253  -20.6802 C   0  0  0  0  0  0  0  0  0  0  0  0
   34.4711  -32.2596  -21.8182 C   0  0  0  0  0  0  0  0  0  0  0  0
   35.3388  -32.6150  -22.8493 C   0  0  0  0  0  0  0  0  0  0  0  0
   36.1606  -33.7101  -22.7168 C   0  0  0  0  0  0  0  0  0  0  0  0
   36.1345  -34.4645  -21.5669 C   0  0  0  0  0  0  0  0  0  0  0  0
   35.2907  -34.1435  -20.5284 C   0  0  0  0  0  0  0  0  0  0  0  0
   32.9076  -30.9162  -18.0160 C   0  0  0  0  0  0  0  0  0  0  0  0
   32.7631  -31.2070  -16.7812 O   0  0  0  0  0  0  0  0  0  0  0  0
   31.9341  -30.0522  -18.5741 N   0  0  0  0  0  0  0  0  0  0  0  0
   30.8653  -29.5345  -17.7115 C   0  0  1  0  0  0  0  0  0  0  0  0
   30.4777  -28.2231  -18.3628 C   0  0  0  0  0  0  0  0  0  0  0  0
   29.3655  -27.5178  -17.7099 C   0  0  0  0  0  0  0  0  0  0  0  0
   29.3971  -26.6678  -16.6259 C   0  0  0  0  0  0  0  0  0  0  0  0
   28.1732  -26.2327  -16.3090 N   0  0  0  0  0  0  0  0  0  0  0  0
   27.3119  -26.7945  -17.1866 C   0  0  0  0  0  0  0  0  0  0  0  0
   25.9278  -26.6680  -17.2917 C   0  0  0  0  0  0  0  0  0  0  0  0
   25.2628  -27.3489  -18.2828 C   0  0  0  0  0  0  0  0  0  0  0  0
   25.9574  -28.1539  -19.1704 C   0  0  0  0  0  0  0  0  0  0  0  0
   27.3247  -28.2535  -19.0343 C   0  0  0  0  0  0  0  0  0  0  0  0
   28.0145  -27.5827  -18.0513 C   0  0  0  0  0  0  0  0  0  0  0  0
   29.8108  -30.5336  -17.6456 C   0  0  0  0  0  0  0  0  0  0  0  0
   29.4675  -31.1726  -18.6852 O   0  0  0  0  0  0  0  0  0  0  0  0
   29.1367  -30.8344  -16.4414 N   0  0  0  0  0  0  0  0  0  0  0  0
   28.0093  -31.7552  -16.3902 C   0  0  1  0  0  0  0  0  0  0  0  0
   28.5190  -32.9689  -15.6118 C   0  0  0  0  0  0  0  0  0  0  0  0
   27.5309  -34.0383  -15.4801 C   0  0  0  0  0  0  0  0  0  0  0  0
   26.6822  -34.0863  -14.3983 C   0  0  0  0  0  0  0  0  0  0  0  0
   25.7320  -35.1019  -14.2579 C   0  0  0  0  0  0  0  0  0  0  0  0
   25.6326  -36.0934  -15.2286 C   0  0  0  0  0  0  0  0  0  0  0  0
   26.4813  -36.0528  -16.3187 C   0  0  0  0  0  0  0  0  0  0  0  0
   27.4171  -35.0326  -16.4347 C   0  0  0  0  0  0  0  0  0  0  0  0
   26.7888  -31.1907  -15.8395 C   0  0  0  0  0  0  0  0  0  0  0  0
   26.7995  -30.4747  -14.6552 O   0  0  0  0  0  0  0  0  0  0  0  0
   25.6948  -31.3398  -16.4253 O   0  0  0  0  0  0  0  0  0  0  0  0
  2  1  1  1
  2  3  1  0
  3  4  1  0
  4  5  2  0
  5  6  1  0
  7  6  2  0
  8  7  1  0
  9  4  1  0
  9  8  2  0
 10 11  2  0
 10  2  1  0
 12 10  1  0
 13 24  1  0
 13 12  1  0
 13 14  1  6
 15 23  1  0
 15 14  1  0
 16 15  2  0
 17 16  1  0
 17 18  1  0
 18 23  2  0
 19 18  1  0
 19 20  2  0
 20 21  1  0
 21 22  2  0
 23 22  1  0
 24 25  2  0
 26 27  1  0
 26 24  1  0
 27 28  1  1
 28 29  1  0
 29 34  1  0
 30 29  2  0
 30 31  1  0
 31 32  2  0
 32 33  1  0
 34 33  2  0
 35 36  1  0
 35 27  1  0
 37 35  2  0
M  END
$$$$
