FWF.pdb
     RDKit          3D

 37 40  0  0  1  0  0  0  0  0999 V2000
   26.5596  -24.1387  -17.3708 N   0  0  0  0  0  0  0  0  0  0  0  0
   26.2391  -22.8149  -16.9315 C   0  0  1  0  0  0  0  0  0  0  0  0
   24.7493  -22.5396  -16.9925 C   0  0  0  0  0  0  0  0  0  0  0  0
   24.3291  -22.2149  -18.3913 C   0  0  0  0  0  0  0  0  0  0  0  0
   24.6134  -20.9882  -18.9352 C   0  0  0  0  0  0  0  0  0  0  0  0
   24.1997  -20.7290  -20.2405 C   0  0  0  0  0  0  0  0  0  0  0  0
   23.5228  -21.6889  -20.9563 C   0  0  0  0  0  0  0  0  0  0  0  0
   23.2478  -22.9128  -20.3921 C   0  0  0  0  0  0  0  0  0  0  0  0
   23.6409  -23.2040  -19.1058 C   0  0  0  0  0  0  0  0  0  0  0  0
   26.6824  -22.6148  -15.5295 C   0  0  0  0  0  0  0  0  0  0  0  0
   26.6862  -23.5789  -14.6924 O   0  0  0  0  0  0  0  0  0  0  0  0
   27.1249  -21.3607  -15.0427 N   0  0  0  0  0  0  0  0  0  0  0  0
   27.7100  -21.2865  -13.6986 C   0  0  1  0  0  0  0  0  0  0  0  0
   28.5930  -20.0571  -13.7555 C   0  0  0  0  0  0  0  0  0  0  0  0
   27.9179  -18.8367  -14.2199 C   0  0  0  0  0  0  0  0  0  0  0  0
   27.1611  -17.9388  -13.4992 C   0  0  0  0  0  0  0  0  0  0  0  0
   26.6940  -16.9567  -14.2772 N   0  0  0  0  0  0  0  0  0  0  0  0
   27.1402  -17.1962  -15.5307 C   0  0  0  0  0  0  0  0  0  0  0  0
   26.9384  -16.4774  -16.7077 C   0  0  0  0  0  0  0  0  0  0  0  0
   27.5038  -16.9273  -17.8766 C   0  0  0  0  0  0  0  0  0  0  0  0
   28.2671  -18.0829  -17.8891 C   0  0  0  0  0  0  0  0  0  0  0  0
   28.4437  -18.7657  -16.7056 C   0  0  0  0  0  0  0  0  0  0  0  0
   27.8891  -18.3372  -15.5220 C   0  0  0  0  0  0  0  0  0  0  0  0
   26.6243  -21.2302  -12.7329 C   0  0  0  0  0  0  0  0  0  0  0  0
   25.4346  -21.0216  -13.1175 O   0  0  0  0  0  0  0  0  0  0  0  0
   26.8420  -21.4065  -11.3485 N   0  0  0  0  0  0  0  0  0  0  0  0
   25.8246  -21.0912  -10.3549 C   0  0  1  0  0  0  0  0  0  0  0  0
   26.5084  -21.2973   -9.0027 C   0  0  0  0  0  0  0  0  0  0  0  0
   25.6409  -21.0219   -7.8587 C   0  0  0  0  0  0  0  0  0  0  0  0
   25.8348  -19.9059   -7.0777 C   0  0  0  0  0  0  0  0  0  0  0  0
   25.0140  -19.6283   -5.9808 C   0  0  0  0  0  0  0  0  0  0  0  0
   23.9728  -20.4937   -5.6612 C   0  0  0  0  0  0  0  0  0  0  0  0
   23.7708  -21.6171   -6.4404 C   0  0  0  0  0  0  0  0  0  0  0  0
   24.6008  -21.8703   -7.5253 C   0  0  0  0  0  0  0  0  0  0  0  0
   25.2215  -19.7771  -10.4993 C   0  0  0  0  0  0  0  0  0  0  0  0
   23.8546  -19.5971  -10.3786 O   0  0  0  0  0  0  0  0  0  0  0  0
   25.9268  -18.7731  -10.7377 O   0  0  0  0  0  0  0  0  0  0  0  0
  2  1  1  1
  2  3  1  0
  3  4  1  0
  4  5  2  0
  5  6  1  0
  7  6  2  0
  8  7  1  0
  9  4  1  0
  9  8  2  0
 10 11  2  0
 10  2  1  0
 12 10  1  0
 13 24  1  0
 13 12  1  0
 13 14  1  6
 15 23  1  0
 15 14  1  0
 16 15  2  0
 17 16  1  0
 17 18  1  0
 18 23  2  0
 19 18  1  0
 19 20  2  0
 20 21  1  0
 21 22  2  0
 23 22  1  0
 24 25  2  0
 26 27  1  0
 26 24  1  0
 27 28  1  1
 28 29  1  0
 29 34  1  0
 30 29  2  0
 30 31  1  0
 31 32  2  0
 32 33  1  0
 34 33  2  0
 35 36  1  0
 35 27  1  0
 37 35  2  0
M  END
$$$$
