FWF.pdb
     RDKit          3D

 37 40  0  0  1  0  0  0  0  0999 V2000
   26.0851  -19.0592  -10.6883 N   0  0  0  0  0  0  0  0  0  0  0  0
   26.5333  -20.3335  -11.1613 C   0  0  1  0  0  0  0  0  0  0  0  0
   26.2307  -21.4454  -10.1758 C   0  0  0  0  0  0  0  0  0  0  0  0
   26.9068  -21.1887   -8.8661 C   0  0  0  0  0  0  0  0  0  0  0  0
   26.1735  -20.8278   -7.7645 C   0  0  0  0  0  0  0  0  0  0  0  0
   26.8463  -20.5956   -6.5663 C   0  0  0  0  0  0  0  0  0  0  0  0
   28.2139  -20.7285   -6.5026 C   0  0  0  0  0  0  0  0  0  0  0  0
   28.9305  -21.0914   -7.6192 C   0  0  0  0  0  0  0  0  0  0  0  0
   28.2999  -21.3286   -8.8191 C   0  0  0  0  0  0  0  0  0  0  0  0
   25.8700  -20.6697  -12.4455 C   0  0  0  0  0  0  0  0  0  0  0  0
   24.6387  -20.3977  -12.6457 O   0  0  0  0  0  0  0  0  0  0  0  0
   26.5537  -21.3012  -13.5130 N   0  0  0  0  0  0  0  0  0  0  0  0
   26.1801  -20.9671  -14.8925 C   0  0  1  0  0  0  0  0  0  0  0  0
   27.4758  -20.4859  -15.5121 C   0  0  0  0  0  0  0  0  0  0  0  0
   27.7396  -19.0493  -15.3470 C   0  0  0  0  0  0  0  0  0  0  0  0
   28.7719  -18.4304  -14.6761 C   0  0  0  0  0  0  0  0  0  0  0  0
   28.6631  -17.0990  -14.7313 N   0  0  0  0  0  0  0  0  0  0  0  0
   27.5491  -16.8203  -15.4448 C   0  0  0  0  0  0  0  0  0  0  0  0
   26.9893  -15.5917  -15.7914 C   0  0  0  0  0  0  0  0  0  0  0  0
   25.8337  -15.5641  -16.5344 C   0  0  0  0  0  0  0  0  0  0  0  0
   25.2284  -16.7430  -16.9369 C   0  0  0  0  0  0  0  0  0  0  0  0
   25.8118  -17.9373  -16.5748 C   0  0  0  0  0  0  0  0  0  0  0  0
   26.9680  -17.9930  -15.8316 C   0  0  0  0  0  0  0  0  0  0  0  0
   25.5980  -22.1506  -15.5048 C   0  0  0  0  0  0  0  0  0  0  0  0
   25.8788  -23.3050  -15.0627 O   0  0  0  0  0  0  0  0  0  0  0  0
   24.7063  -22.0684  -16.5972 N   0  0  0  0  0  0  0  0  0  0  0  0
   23.9849  -23.2292  -17.1014 C   0  0  1  0  0  0  0  0  0  0  0  0
   22.5070  -22.8425  -17.0327 C   0  0  0  0  0  0  0  0  0  0  0  0
   22.0265  -22.6012  -15.6732 C   0  0  0  0  0  0  0  0  0  0  0  0
   21.6404  -23.6454  -14.8648 C   0  0  0  0  0  0  0  0  0  0  0  0
   21.1791  -23.4314  -13.5627 C   0  0  0  0  0  0  0  0  0  0  0  0
   21.1041  -22.1360  -13.0611 C   0  0  0  0  0  0  0  0  0  0  0  0
   21.4899  -21.0811  -13.8664 C   0  0  0  0  0  0  0  0  0  0  0  0
   21.9449  -21.3207  -15.1570 C   0  0  0  0  0  0  0  0  0  0  0  0
   24.4009  -23.6771  -18.4197 C   0  0  0  0  0  0  0  0  0  0  0  0
   23.9560  -24.8784  -18.9434 O   0  0  0  0  0  0  0  0  0  0  0  0
   25.1748  -22.9845  -19.1150 O   0  0  0  0  0  0  0  0  0  0  0  0
  2  1  1  1
  2  3  1  0
  3  4  1  0
  4  5  2  0
  5  6  1  0
  7  6  2  0
  8  7  1  0
  9  4  1  0
  9  8  2  0
 10 11  2  0
 10  2  1  0
 12 10  1  0
 13 24  1  0
 13 12  1  0
 13 14  1  6
 15 23  1  0
 15 14  1  0
 16 15  2  0
 17 16  1  0
 17 18  1  0
 18 23  2  0
 19 18  1  0
 19 20  2  0
 20 21  1  0
 21 22  2  0
 23 22  1  0
 24 25  2  0
 26 27  1  0
 26 24  1  0
 27 28  1  6
 28 29  1  0
 29 34  1  0
 30 29  2  0
 30 31  1  0
 31 32  2  0
 32 33  1  0
 34 33  2  0
 35 36  1  0
 35 27  1  0
 37 35  2  0
M  END
$$$$
