FWF.pdb
     RDKit          3D

 37 40  0  0  1  0  0  0  0  0999 V2000
   25.1066  -16.8437  -17.2825 N   0  0  0  0  0  0  0  0  0  0  0  0
   25.9074  -17.6260  -16.3909 C   0  0  1  0  0  0  0  0  0  0  0  0
   27.1277  -16.8672  -15.9070 C   0  0  0  0  0  0  0  0  0  0  0  0
   28.1419  -16.7457  -17.0002 C   0  0  0  0  0  0  0  0  0  0  0  0
   28.2872  -15.5664  -17.6853 C   0  0  0  0  0  0  0  0  0  0  0  0
   29.2425  -15.5004  -18.6979 C   0  0  0  0  0  0  0  0  0  0  0  0
   30.0154  -16.5991  -18.9939 C   0  0  0  0  0  0  0  0  0  0  0  0
   29.8537  -17.7724  -18.2945 C   0  0  0  0  0  0  0  0  0  0  0  0
   28.9204  -17.8741  -17.2884 C   0  0  0  0  0  0  0  0  0  0  0  0
   25.1160  -18.0233  -15.2002 C   0  0  0  0  0  0  0  0  0  0  0  0
   24.5086  -17.1542  -14.4889 O   0  0  0  0  0  0  0  0  0  0  0  0
   24.9858  -19.3719  -14.7880 N   0  0  0  0  0  0  0  0  0  0  0  0
   24.2892  -19.6663  -13.5300 C   0  0  1  0  0  0  0  0  0  0  0  0
   23.0323  -20.3867  -13.9722 C   0  0  0  0  0  0  0  0  0  0  0  0
   22.1376  -20.7894  -12.8776 C   0  0  0  0  0  0  0  0  0  0  0  0
   22.0118  -22.0203  -12.2712 C   0  0  0  0  0  0  0  0  0  0  0  0
   21.0726  -22.0036  -11.3197 N   0  0  0  0  0  0  0  0  0  0  0  0
   20.5629  -20.7519  -11.2861 C   0  0  0  0  0  0  0  0  0  0  0  0
   19.5644  -20.2109  -10.4778 C   0  0  0  0  0  0  0  0  0  0  0  0
   19.2141  -18.8912  -10.6329 C   0  0  0  0  0  0  0  0  0  0  0  0
   19.8444  -18.1034  -11.5817 C   0  0  0  0  0  0  0  0  0  0  0  0
   20.8262  -18.6742  -12.3616 C   0  0  0  0  0  0  0  0  0  0  0  0
   21.1959  -19.9923  -12.2268 C   0  0  0  0  0  0  0  0  0  0  0  0
   25.1855  -20.4384  -12.6843 C   0  0  0  0  0  0  0  0  0  0  0  0
   25.8727  -21.3844  -13.1741 O   0  0  0  0  0  0  0  0  0  0  0  0
   25.3312  -20.1712  -11.3050 N   0  0  0  0  0  0  0  0  0  0  0  0
   25.9312  -21.1292  -10.3863 C   0  0  1  0  0  0  0  0  0  0  0  0
   27.3216  -20.5718  -10.0788 C   0  0  0  0  0  0  0  0  0  0  0  0
   27.4268  -19.9539   -8.7580 C   0  0  0  0  0  0  0  0  0  0  0  0
   26.8134  -18.7519   -8.4898 C   0  0  0  0  0  0  0  0  0  0  0  0
   26.9041  -18.1482   -7.2323 C   0  0  0  0  0  0  0  0  0  0  0  0
   27.6292  -18.7680   -6.2197 C   0  0  0  0  0  0  0  0  0  0  0  0
   28.2486  -19.9757   -6.4805 C   0  0  0  0  0  0  0  0  0  0  0  0
   28.1430  -20.5548   -7.7389 C   0  0  0  0  0  0  0  0  0  0  0  0
   25.1452  -21.4020   -9.1949 C   0  0  0  0  0  0  0  0  0  0  0  0
   25.5518  -22.3447   -8.2668 O   0  0  0  0  0  0  0  0  0  0  0  0
   24.0776  -20.7889   -8.9796 O   0  0  0  0  0  0  0  0  0  0  0  0
  2  1  1  6
  2  3  1  0
  3  4  1  0
  4  5  2  0
  5  6  1  0
  7  6  2  0
  8  7  1  0
  9  4  1  0
  9  8  2  0
 10 11  2  0
 10  2  1  0
 12 10  1  0
 13 24  1  0
 13 12  1  0
 13 14  1  6
 15 23  1  0
 15 14  1  0
 16 15  2  0
 17 16  1  0
 17 18  1  0
 18 23  2  0
 19 18  1  0
 19 20  2  0
 20 21  1  0
 21 22  2  0
 23 22  1  0
 24 25  2  0
 26 27  1  0
 26 24  1  0
 27 28  1  1
 28 29  1  0
 29 34  1  0
 30 29  2  0
 30 31  1  0
 31 32  2  0
 32 33  1  0
 34 33  2  0
 35 36  1  0
 35 27  1  0
 37 35  2  0
M  END
$$$$
