KHT.pdb
     RDKit          3D

 27 27  0  0  1  0  0  0  0  0999 V2000
   27.6326  -21.0919  -18.7939 N   0  0  0  0  0  0  0  0  0  0  0  0
   27.4987  -21.9278  -17.6528 C   0  0  1  0  0  0  0  0  0  0  0  0
   28.7951  -21.9693  -16.8924 C   0  0  0  0  0  0  0  0  0  0  0  0
   29.8304  -22.8851  -17.4232 C   0  0  0  0  0  0  0  0  0  0  0  0
   29.7275  -24.3199  -17.0485 C   0  0  0  0  0  0  0  0  0  0  0  0
   30.9559  -25.0884  -17.5793 C   0  0  0  0  0  0  0  0  0  0  0  0
   30.9077  -26.4641  -17.1848 N   0  0  0  0  0  0  0  0  0  0  0  0
   26.4343  -21.4464  -16.7104 C   0  0  0  0  0  0  0  0  0  0  0  0
   26.3642  -20.2071  -16.5306 O   0  0  0  0  0  0  0  0  0  0  0  0
   25.5413  -22.3309  -16.0454 N   0  0  0  0  0  0  0  0  0  0  0  0
   24.6015  -21.8814  -15.0382 C   0  0  1  0  0  0  0  0  0  0  0  0
   23.2400  -22.5259  -15.2351 C   0  0  0  0  0  0  0  0  0  0  0  0
   22.5000  -21.9547  -16.3939 C   0  0  0  0  0  0  0  0  0  0  0  0
   22.8338  -20.8863  -17.1876 C   0  0  0  0  0  0  0  0  0  0  0  0
   21.8533  -20.7525  -18.0926 N   0  0  0  0  0  0  0  0  0  0  0  0
   20.9090  -21.6870  -17.9124 C   0  0  0  0  0  0  0  0  0  0  0  0
   21.3151  -22.4221  -16.8654 N   0  0  0  0  0  0  0  0  0  0  0  0
   25.1358  -22.0740  -13.6671 C   0  0  0  0  0  0  0  0  0  0  0  0
   25.6323  -23.1518  -13.2574 O   0  0  0  0  0  0  0  0  0  0  0  0
   27.9308  -20.8398  -11.9119 C   0  0  0  0  0  0  0  0  0  0  0  0
   26.7973  -20.4467  -11.0218 C   0  0  1  0  0  0  0  0  0  0  0  0
   26.5679  -19.0733  -11.2471 O   0  0  0  0  0  0  0  0  0  0  0  0
   25.5237  -21.2052  -11.3391 C   0  0  2  0  0  0  0  0  0  0  0  0
   25.1084  -20.9942  -12.7088 N   0  0  0  0  0  0  0  0  0  0  0  0
   24.4417  -20.8759  -10.3794 C   0  0  0  0  0  0  0  0  0  0  0  0
   24.5821  -21.1175   -9.1573 O   0  0  0  0  0  0  0  0  0  0  0  0
   23.2521  -20.2970  -10.7933 O   0  0  0  0  0  0  0  0  0  0  0  0
  2  1  1  6
  3  2  1  0
  4  3  1  0
  4  5  1  0
  5  6  1  0
  6  7  1  0
  8  9  2  0
  8  2  1  0
 10  8  1  0
 11 12  1  1
 11 10  1  0
 12 13  1  0
 13 17  1  0
 13 14  2  0
 14 15  1  0
 16 15  1  0
 17 16  2  0
 18 11  1  0
 19 18  2  0
 21 20  1  6
 21 23  1  0
 22 21  1  0
 23 24  1  6
 24 18  1  0
 25 27  1  0
 25 23  1  0
 26 25  2  0
M  END
$$$$
