KHT.pdb
     RDKit          3D

 27 27  0  0  1  0  0  0  0  0999 V2000
   28.1525  -21.3062  -16.5975 N   0  0  0  0  0  0  0  0  0  0  0  0
   27.0484  -20.7746  -17.3167 C   0  0  1  0  0  0  0  0  0  0  0  0
   26.3309  -21.8777  -18.0440 C   0  0  0  0  0  0  0  0  0  0  0  0
   26.9668  -23.2136  -17.9879 C   0  0  0  0  0  0  0  0  0  0  0  0
   26.2662  -24.2695  -17.2106 C   0  0  0  0  0  0  0  0  0  0  0  0
   26.9618  -25.6293  -17.4307 C   0  0  0  0  0  0  0  0  0  0  0  0
   27.5572  -26.1011  -16.2169 N   0  0  0  0  0  0  0  0  0  0  0  0
   26.0522  -20.0976  -16.4211 C   0  0  0  0  0  0  0  0  0  0  0  0
   26.3109  -20.0991  -15.1938 O   0  0  0  0  0  0  0  0  0  0  0  0
   24.8706  -19.4805  -16.9162 N   0  0  0  0  0  0  0  0  0  0  0  0
   23.9964  -18.6828  -16.0802 C   0  0  1  0  0  0  0  0  0  0  0  0
   23.9951  -17.2292  -16.5217 C   0  0  0  0  0  0  0  0  0  0  0  0
   25.2011  -16.4901  -16.0571 C   0  0  0  0  0  0  0  0  0  0  0  0
   26.2079  -16.9179  -15.2288 C   0  0  0  0  0  0  0  0  0  0  0  0
   27.0656  -15.8952  -15.0986 N   0  0  0  0  0  0  0  0  0  0  0  0
   26.6517  -14.8344  -15.8062 C   0  0  0  0  0  0  0  0  0  0  0  0
   25.5040  -15.2093  -16.3926 N   0  0  0  0  0  0  0  0  0  0  0  0
   22.6321  -19.2624  -16.0061 C   0  0  0  0  0  0  0  0  0  0  0  0
   21.8485  -19.3281  -16.9848 O   0  0  0  0  0  0  0  0  0  0  0  0
   21.6496  -22.6692  -14.8404 C   0  0  0  0  0  0  0  0  0  0  0  0
   20.7784  -21.7231  -14.0805 C   0  0  1  0  0  0  0  0  0  0  0  0
   21.3047  -21.6546  -12.7736 O   0  0  0  0  0  0  0  0  0  0  0  0
   20.7840  -20.3285  -14.6746 C   0  0  2  0  0  0  0  0  0  0  0  0
   22.1260  -19.7955  -14.7633 N   0  0  0  0  0  0  0  0  0  0  0  0
   19.8785  -19.4179  -13.9324 C   0  0  0  0  0  0  0  0  0  0  0  0
   20.3390  -18.4271  -13.3177 O   0  0  0  0  0  0  0  0  0  0  0  0
   18.5086  -19.6264  -13.8920 O   0  0  0  0  0  0  0  0  0  0  0  0
  2  1  1  1
  3  2  1  0
  4  3  1  0
  4  5  1  0
  5  6  1  0
  6  7  1  0
  8  9  2  0
  8  2  1  0
 10  8  1  0
 11 12  1  6
 11 10  1  0
 12 13  1  0
 13 17  1  0
 13 14  2  0
 14 15  1  0
 16 15  1  0
 17 16  2  0
 18 11  1  0
 19 18  2  0
 21 20  1  6
 21 23  1  0
 22 21  1  0
 23 24  1  1
 24 18  1  0
 25 27  1  0
 25 23  1  0
 26 25  2  0
M  END
$$$$
