KHT.pdb
     RDKit          3D

 27 27  0  0  1  0  0  0  0  0999 V2000
   19.2038  -15.6430  -16.9851 N   0  0  0  0  0  0  0  0  0  0  0  0
   19.2881  -14.3542  -17.5771 C   0  0  1  0  0  0  0  0  0  0  0  0
   17.9303  -13.7086  -17.5962 C   0  0  0  0  0  0  0  0  0  0  0  0
   16.8189  -14.5484  -18.0980 C   0  0  0  0  0  0  0  0  0  0  0  0
   15.9224  -15.1672  -17.0865 C   0  0  0  0  0  0  0  0  0  0  0  0
   14.7576  -15.8916  -17.7935 C   0  0  0  0  0  0  0  0  0  0  0  0
   13.6403  -15.0133  -17.9682 N   0  0  0  0  0  0  0  0  0  0  0  0
   20.2157  -13.4395  -16.8315 C   0  0  0  0  0  0  0  0  0  0  0  0
   20.1468  -13.4713  -15.5796 O   0  0  0  0  0  0  0  0  0  0  0  0
   21.1325  -12.5742  -17.4892 N   0  0  0  0  0  0  0  0  0  0  0  0
   22.1118  -11.7825  -16.7724 C   0  0  1  0  0  0  0  0  0  0  0  0
   23.5034  -11.9832  -17.3478 C   0  0  0  0  0  0  0  0  0  0  0  0
   24.5453  -11.2278  -16.5992 C   0  0  0  0  0  0  0  0  0  0  0  0
   24.4036  -10.4347  -15.4885 C   0  0  0  0  0  0  0  0  0  0  0  0
   25.6232   -9.9659  -15.1869 N   0  0  0  0  0  0  0  0  0  0  0  0
   26.5367  -10.4238  -16.0548 C   0  0  0  0  0  0  0  0  0  0  0  0
   25.8648  -11.1992  -16.9201 N   0  0  0  0  0  0  0  0  0  0  0  0
   21.7174  -10.3533  -16.7067 C   0  0  0  0  0  0  0  0  0  0  0  0
   21.6302   -9.6072  -17.7127 O   0  0  0  0  0  0  0  0  0  0  0  0
   18.5967   -8.9585  -15.8634 C   0  0  0  0  0  0  0  0  0  0  0  0
   19.5264   -8.2460  -14.9363 C   0  0  1  0  0  0  0  0  0  0  0  0
   19.3916   -8.8671  -13.6771 O   0  0  0  0  0  0  0  0  0  0  0  0
   20.9739   -8.3547  -15.3734 C   0  0  2  0  0  0  0  0  0  0  0  0
   21.4052   -9.7340  -15.4402 N   0  0  0  0  0  0  0  0  0  0  0  0
   21.8648   -7.5411  -14.5106 C   0  0  0  0  0  0  0  0  0  0  0  0
   21.7038   -6.3009  -14.4226 O   0  0  0  0  0  0  0  0  0  0  0  0
   22.8938   -8.1146  -13.7799 O   0  0  0  0  0  0  0  0  0  0  0  0
  2  1  1  1
  3  2  1  0
  4  3  1  0
  4  5  1  0
  5  6  1  0
  6  7  1  0
  8  9  2  0
  8  2  1  0
 10  8  1  0
 11 12  1  6
 11 10  1  0
 12 13  1  0
 13 17  1  0
 13 14  2  0
 14 15  1  0
 16 15  1  0
 17 16  2  0
 18 11  1  0
 19 18  2  0
 21 20  1  6
 21 23  1  0
 22 21  1  0
 23 24  1  1
 24 18  1  0
 25 27  1  0
 25 23  1  0
 26 25  2  0
M  END
$$$$
