KHT.pdb
     RDKit          3D

 27 27  0  0  1  0  0  0  0  0999 V2000
   20.9355  -22.8081  -14.5585 N   0  0  0  0  0  0  0  0  0  0  0  0
   20.8149  -21.4213  -14.2741 C   0  0  1  0  0  0  0  0  0  0  0  0
   20.2824  -21.2276  -12.8814 C   0  0  0  0  0  0  0  0  0  0  0  0
   19.2678  -22.2079  -12.4319 C   0  0  0  0  0  0  0  0  0  0  0  0
   18.8087  -22.1147  -11.0211 C   0  0  0  0  0  0  0  0  0  0  0  0
   17.8372  -23.2725  -10.7097 C   0  0  0  0  0  0  0  0  0  0  0  0
   18.4713  -24.2675   -9.8984 N   0  0  0  0  0  0  0  0  0  0  0  0
   22.1287  -20.7008  -14.3625 C   0  0  0  0  0  0  0  0  0  0  0  0
   22.1041  -19.4639  -14.1558 O   0  0  0  0  0  0  0  0  0  0  0  0
   23.3493  -21.3652  -14.6634 N   0  0  0  0  0  0  0  0  0  0  0  0
   24.6270  -20.6821  -14.6826 C   0  0  1  0  0  0  0  0  0  0  0  0
   25.6159  -21.3465  -13.7399 C   0  0  0  0  0  0  0  0  0  0  0  0
   25.2188  -21.2160  -12.3110 C   0  0  0  0  0  0  0  0  0  0  0  0
   24.0963  -20.6339  -11.7783 C   0  0  0  0  0  0  0  0  0  0  0  0
   24.1888  -20.7572  -10.4462 N   0  0  0  0  0  0  0  0  0  0  0  0
   25.3195  -21.3915  -10.1047 C   0  0  0  0  0  0  0  0  0  0  0  0
   25.9469  -21.6700  -11.2582 N   0  0  0  0  0  0  0  0  0  0  0  0
   25.1528  -20.5443  -16.0636 C   0  0  0  0  0  0  0  0  0  0  0  0
   25.3787  -21.5176  -16.8238 O   0  0  0  0  0  0  0  0  0  0  0  0
   23.6251  -19.0168  -18.9967 C   0  0  0  0  0  0  0  0  0  0  0  0
   24.9269  -18.3056  -18.8202 C   0  0  1  0  0  0  0  0  0  0  0  0
   24.6366  -17.0965  -18.1543 O   0  0  0  0  0  0  0  0  0  0  0  0
   25.9073  -19.0959  -17.9761 C   0  0  2  0  0  0  0  0  0  0  0  0
   25.4382  -19.2408  -16.6152 N   0  0  0  0  0  0  0  0  0  0  0  0
   27.2677  -18.5075  -18.0292 C   0  0  0  0  0  0  0  0  0  0  0  0
   27.7938  -18.0306  -16.9961 O   0  0  0  0  0  0  0  0  0  0  0  0
   27.9972  -18.4641  -19.2073 O   0  0  0  0  0  0  0  0  0  0  0  0
  2  1  1  1
  3  2  1  0
  4  3  1  0
  4  5  1  0
  5  6  1  0
  6  7  1  0
  8  9  2  0
  8  2  1  0
 10  8  1  0
 11 12  1  1
 11 10  1  0
 12 13  1  0
 13 17  1  0
 13 14  2  0
 14 15  1  0
 16 15  1  0
 17 16  2  0
 18 11  1  0
 19 18  2  0
 21 20  1  1
 21 23  1  0
 22 21  1  0
 23 24  1  1
 24 18  1  0
 25 27  1  0
 25 23  1  0
 26 25  2  0
M  END
$$$$
