KHT.pdb
     RDKit          3D

 27 27  0  0  1  0  0  0  0  0999 V2000
   17.5111  -15.0522  -17.3767 N   0  0  0  0  0  0  0  0  0  0  0  0
   18.7109  -14.4500  -16.9110 C   0  0  1  0  0  0  0  0  0  0  0  0
   19.8923  -15.0339  -17.6348 C   0  0  0  0  0  0  0  0  0  0  0  0
   19.9611  -16.5122  -17.6793 C   0  0  0  0  0  0  0  0  0  0  0  0
   20.7087  -17.1926  -16.5894 C   0  0  0  0  0  0  0  0  0  0  0  0
   20.6540  -18.7213  -16.7928 C   0  0  0  0  0  0  0  0  0  0  0  0
   21.3070  -19.4038  -15.7166 N   0  0  0  0  0  0  0  0  0  0  0  0
   18.7311  -12.9655  -17.1315 C   0  0  0  0  0  0  0  0  0  0  0  0
   19.1788  -12.5691  -18.2341 O   0  0  0  0  0  0  0  0  0  0  0  0
   18.2718  -12.0386  -16.1558 N   0  0  0  0  0  0  0  0  0  0  0  0
   18.2580  -10.6076  -16.3826 C   0  0  1  0  0  0  0  0  0  0  0  0
   16.8541  -10.0453  -16.2389 C   0  0  0  0  0  0  0  0  0  0  0  0
   15.9373  -10.5167  -17.3131 C   0  0  0  0  0  0  0  0  0  0  0  0
   16.2108  -11.3299  -18.3839 C   0  0  0  0  0  0  0  0  0  0  0  0
   15.0683  -11.4630  -19.0733 N   0  0  0  0  0  0  0  0  0  0  0  0
   14.0782  -10.7717  -18.4909 C   0  0  0  0  0  0  0  0  0  0  0  0
   14.6218  -10.1927  -17.4088 N   0  0  0  0  0  0  0  0  0  0  0  0
   19.2478   -9.9085  -15.5256 C   0  0  0  0  0  0  0  0  0  0  0  0
   19.4535  -10.1964  -14.3211 O   0  0  0  0  0  0  0  0  0  0  0  0
   22.9454   -9.6259  -15.6037 C   0  0  0  0  0  0  0  0  0  0  0  0
   22.4035   -8.2407  -15.7430 C   0  0  1  0  0  0  0  0  0  0  0  0
   22.3941   -7.9504  -17.1233 O   0  0  0  0  0  0  0  0  0  0  0  0
   20.9872   -8.1187  -15.2165 C   0  0  2  0  0  0  0  0  0  0  0  0
   20.0468   -8.8289  -16.0557 N   0  0  0  0  0  0  0  0  0  0  0  0
   20.5966   -6.6998  -15.0313 C   0  0  0  0  0  0  0  0  0  0  0  0
   19.6363   -6.2165  -15.6761 O   0  0  0  0  0  0  0  0  0  0  0  0
   21.2701   -5.8678  -14.1505 O   0  0  0  0  0  0  0  0  0  0  0  0
  2  1  1  6
  3  2  1  0
  4  3  1  0
  4  5  1  0
  5  6  1  0
  6  7  1  0
  8  9  2  0
  8  2  1  0
 10  8  1  0
 11 12  1  1
 11 10  1  0
 12 13  1  0
 13 17  1  0
 13 14  2  0
 14 15  1  0
 16 15  1  0
 17 16  2  0
 18 11  1  0
 19 18  2  0
 21 20  1  6
 21 23  1  0
 22 21  1  0
 23 24  1  6
 24 18  1  0
 25 27  1  0
 25 23  1  0
 26 25  2  0
M  END
$$$$
