KHT.pdb
     RDKit          3D

 27 27  0  0  1  0  0  0  0  0999 V2000
   45.1354   -9.5001   -3.8957 N   0  0  0  0  0  0  0  0  0  0  0  0
   44.5466   -8.6602   -4.8789 C   0  0  1  0  0  0  0  0  0  0  0  0
   45.5765   -8.2669   -5.9012 C   0  0  0  0  0  0  0  0  0  0  0  0
   46.5993   -7.2951   -5.4520 C   0  0  0  0  0  0  0  0  0  0  0  0
   47.5777   -6.8189   -6.4648 C   0  0  0  0  0  0  0  0  0  0  0  0
   48.5426   -5.8007   -5.8215 C   0  0  0  0  0  0  0  0  0  0  0  0
   49.4344   -5.2536   -6.7992 N   0  0  0  0  0  0  0  0  0  0  0  0
   43.4179   -9.3315   -5.6059 C   0  0  0  0  0  0  0  0  0  0  0  0
   43.5666  -10.5488   -5.8689 O   0  0  0  0  0  0  0  0  0  0  0  0
   42.2333   -8.6432   -5.9863 N   0  0  0  0  0  0  0  0  0  0  0  0
   41.1411   -9.2930   -6.6823 C   0  0  1  0  0  0  0  0  0  0  0  0
   39.8405   -8.5321   -6.4890 C   0  0  0  0  0  0  0  0  0  0  0  0
   38.6618   -9.2723   -7.0176 C   0  0  0  0  0  0  0  0  0  0  0  0
   38.6198  -10.4952   -7.6385 C   0  0  0  0  0  0  0  0  0  0  0  0
   37.3349  -10.7355   -7.9381 N   0  0  0  0  0  0  0  0  0  0  0  0
   36.5553   -9.7215   -7.5366 C   0  0  0  0  0  0  0  0  0  0  0  0
   37.3799   -8.8258   -6.9715 N   0  0  0  0  0  0  0  0  0  0  0  0
   41.4646   -9.5245   -8.1122 C   0  0  0  0  0  0  0  0  0  0  0  0
   41.9823   -8.6583   -8.8589 O   0  0  0  0  0  0  0  0  0  0  0  0
   43.2009  -12.7826   -9.5071 C   0  0  0  0  0  0  0  0  0  0  0  0
   42.0049  -12.4561  -10.3405 C   0  0  1  0  0  0  0  0  0  0  0  0
   40.9850  -13.3466   -9.9451 O   0  0  0  0  0  0  0  0  0  0  0  0
   41.5168  -11.0379  -10.1202 C   0  0  2  0  0  0  0  0  0  0  0  0
   41.1896  -10.7998   -8.7311 N   0  0  0  0  0  0  0  0  0  0  0  0
   40.3822  -10.7081  -11.0168 C   0  0  0  0  0  0  0  0  0  0  0  0
   40.5162  -10.7759  -12.2614 O   0  0  0  0  0  0  0  0  0  0  0  0
   39.1490  -10.3182  -10.5179 O   0  0  0  0  0  0  0  0  0  0  0  0
  2  1  1  1
  3  2  1  0
  4  3  1  0
  4  5  1  0
  5  6  1  0
  6  7  1  0
  8  9  2  0
  8  2  1  0
 10  8  1  0
 11 12  1  6
 11 10  1  0
 12 13  1  0
 13 17  1  0
 13 14  2  0
 14 15  1  0
 16 15  1  0
 17 16  2  0
 18 11  1  0
 19 18  2  0
 21 20  1  1
 21 23  1  0
 22 21  1  0
 23 24  1  1
 24 18  1  0
 25 27  1  0
 25 23  1  0
 26 25  2  0
M  END
$$$$
