KHT.pdb
     RDKit          3D

 27 27  0  0  1  0  0  0  0  0999 V2000
   24.7469  -37.2009   -9.9532 N   0  0  0  0  0  0  0  0  0  0  0  0
   24.9982  -37.6861   -8.6416 C   0  0  1  0  0  0  0  0  0  0  0  0
   25.6528  -39.0379   -8.7114 C   0  0  0  0  0  0  0  0  0  0  0  0
   26.0283  -39.6454   -7.4144 C   0  0  0  0  0  0  0  0  0  0  0  0
   25.2114  -40.7921   -6.9374 C   0  0  0  0  0  0  0  0  0  0  0  0
   25.7795  -41.3198   -5.6031 C   0  0  0  0  0  0  0  0  0  0  0  0
   24.9270  -42.3273   -5.0476 N   0  0  0  0  0  0  0  0  0  0  0  0
   25.9052  -36.7818   -7.8590 C   0  0  0  0  0  0  0  0  0  0  0  0
   27.0024  -36.4909   -8.3927 O   0  0  0  0  0  0  0  0  0  0  0  0
   25.5595  -36.2700   -6.5782 N   0  0  0  0  0  0  0  0  0  0  0  0
   26.3902  -35.3206   -5.8656 C   0  0  1  0  0  0  0  0  0  0  0  0
   25.6992  -33.9731   -5.7445 C   0  0  0  0  0  0  0  0  0  0  0  0
   25.6891  -33.2191   -7.0283 C   0  0  0  0  0  0  0  0  0  0  0  0
   26.2049  -33.5843   -8.2462 C   0  0  0  0  0  0  0  0  0  0  0  0
   25.9572  -32.5739   -9.0925 N   0  0  0  0  0  0  0  0  0  0  0  0
   25.3069  -31.5806   -8.4698 C   0  0  0  0  0  0  0  0  0  0  0  0
   25.1462  -31.9860   -7.2004 N   0  0  0  0  0  0  0  0  0  0  0  0
   26.8349  -35.8583   -4.5557 C   0  0  0  0  0  0  0  0  0  0  0  0
   26.1656  -36.6715   -3.8725 O   0  0  0  0  0  0  0  0  0  0  0  0
   30.4813  -36.2754   -1.1706 C   0  0  0  0  0  0  0  0  0  0  0  0
   30.0276  -35.8360   -2.5243 C   0  0  1  0  0  0  0  0  0  0  0  0
   30.6527  -36.6924   -3.4547 O   0  0  0  0  0  0  0  0  0  0  0  0
   28.5260  -35.9530   -2.6967 C   0  0  2  0  0  0  0  0  0  0  0  0
   28.1005  -35.4577   -3.9877 N   0  0  0  0  0  0  0  0  0  0  0  0
   27.7984  -35.2910   -1.5866 C   0  0  0  0  0  0  0  0  0  0  0  0
   27.2845  -34.1593   -1.7502 O   0  0  0  0  0  0  0  0  0  0  0  0
   27.6618  -35.8916   -0.3446 O   0  0  0  0  0  0  0  0  0  0  0  0
  2  1  1  6
  3  2  1  0
  4  3  1  0
  4  5  1  0
  5  6  1  0
  6  7  1  0
  8  9  2  0
  8  2  1  0
 10  8  1  0
 11 12  1  1
 11 10  1  0
 12 13  1  0
 13 17  1  0
 13 14  2  0
 14 15  1  0
 16 15  1  0
 17 16  2  0
 18 11  1  0
 19 18  2  0
 21 20  1  1
 21 23  1  0
 22 21  1  0
 23 24  1  6
 24 18  1  0
 25 27  1  0
 25 23  1  0
 26 25  2  0
M  END
$$$$
