KHT.pdb
     RDKit          3D

 27 27  0  0  1  0  0  0  0  0999 V2000
   28.5544  -19.2958  -17.8181 N   0  0  0  0  0  0  0  0  0  0  0  0
   28.3457  -18.1711  -16.9753 C   0  0  1  0  0  0  0  0  0  0  0  0
   28.3403  -16.9103  -17.7943 C   0  0  0  0  0  0  0  0  0  0  0  0
   29.1560  -16.9348  -19.0297 C   0  0  0  0  0  0  0  0  0  0  0  0
   28.7367  -17.8722  -20.1045 C   0  0  0  0  0  0  0  0  0  0  0  0
   29.7003  -17.7570  -21.3043 C   0  0  0  0  0  0  0  0  0  0  0  0
   29.3136  -18.6466  -22.3576 N   0  0  0  0  0  0  0  0  0  0  0  0
   27.0396  -18.2403  -16.2388 C   0  0  0  0  0  0  0  0  0  0  0  0
   26.7619  -17.2664  -15.4987 O   0  0  0  0  0  0  0  0  0  0  0  0
   26.1486  -19.3419  -16.3587 N   0  0  0  0  0  0  0  0  0  0  0  0
   24.9231  -19.4430  -15.5923 C   0  0  1  0  0  0  0  0  0  0  0  0
   23.7295  -19.6856  -16.5001 C   0  0  0  0  0  0  0  0  0  0  0  0
   22.4458  -19.7559  -15.7493 C   0  0  0  0  0  0  0  0  0  0  0  0
   22.2226  -19.5848  -14.4063 C   0  0  0  0  0  0  0  0  0  0  0  0
   20.9070  -19.7505  -14.2062 N   0  0  0  0  0  0  0  0  0  0  0  0
   20.2806  -20.0196  -15.3606 C   0  0  0  0  0  0  0  0  0  0  0  0
   21.2349  -20.0209  -16.3044 N   0  0  0  0  0  0  0  0  0  0  0  0
   25.0367  -20.4521  -14.5099 C   0  0  0  0  0  0  0  0  0  0  0  0
   25.3781  -21.6448  -14.7020 O   0  0  0  0  0  0  0  0  0  0  0  0
   27.3518  -20.8801  -12.0919 C   0  0  0  0  0  0  0  0  0  0  0  0
   26.1136  -20.8655  -11.2563 C   0  0  1  0  0  0  0  0  0  0  0  0
   26.0481  -19.5897  -10.6582 O   0  0  0  0  0  0  0  0  0  0  0  0
   24.8583  -21.0752  -12.0800 C   0  0  2  0  0  0  0  0  0  0  0  0
   24.7503  -20.0966  -13.1401 N   0  0  0  0  0  0  0  0  0  0  0  0
   23.6455  -21.0973  -11.2263 C   0  0  0  0  0  0  0  0  0  0  0  0
   22.7075  -20.2922  -11.4351 O   0  0  0  0  0  0  0  0  0  0  0  0
   23.5070  -21.9968  -10.1807 O   0  0  0  0  0  0  0  0  0  0  0  0
  2  1  1  6
  3  2  1  0
  4  3  1  0
  4  5  1  0
  5  6  1  0
  6  7  1  0
  8  9  2  0
  8  2  1  0
 10  8  1  0
 11 12  1  6
 11 10  1  0
 12 13  1  0
 13 17  1  0
 13 14  2  0
 14 15  1  0
 16 15  1  0
 17 16  2  0
 18 11  1  0
 19 18  2  0
 21 20  1  6
 21 23  1  0
 22 21  1  0
 23 24  1  6
 24 18  1  0
 25 27  1  0
 25 23  1  0
 26 25  2  0
M  END
$$$$
