KHT.pdb
     RDKit          3D

 27 27  0  0  1  0  0  0  0  0999 V2000
   19.0163  -12.7268  -16.2511 N   0  0  0  0  0  0  0  0  0  0  0  0
   18.4196  -11.4375  -16.2319 C   0  0  1  0  0  0  0  0  0  0  0  0
   16.9240  -11.5657  -16.1465 C   0  0  0  0  0  0  0  0  0  0  0  0
   16.2661  -12.2615  -17.2758 C   0  0  0  0  0  0  0  0  0  0  0  0
   14.7806  -12.2309  -17.3224 C   0  0  0  0  0  0  0  0  0  0  0  0
   14.2778  -13.0612  -18.5221 C   0  0  0  0  0  0  0  0  0  0  0  0
   12.8468  -13.0717  -18.5724 N   0  0  0  0  0  0  0  0  0  0  0  0
   18.8726  -10.6126  -15.0626 C   0  0  0  0  0  0  0  0  0  0  0  0
   19.0135  -11.2165  -13.9724 O   0  0  0  0  0  0  0  0  0  0  0  0
   19.1341   -9.2185  -15.1626 N   0  0  0  0  0  0  0  0  0  0  0  0
   19.5587   -8.4197  -14.0307 C   0  0  1  0  0  0  0  0  0  0  0  0
   20.8268   -7.6474  -14.3521 C   0  0  0  0  0  0  0  0  0  0  0  0
   21.9956   -8.5398  -14.5842 C   0  0  0  0  0  0  0  0  0  0  0  0
   22.0568   -9.9097  -14.5360 C   0  0  0  0  0  0  0  0  0  0  0  0
   23.3243  -10.2525  -14.8086 N   0  0  0  0  0  0  0  0  0  0  0  0
   24.0747   -9.1635  -15.0285 C   0  0  0  0  0  0  0  0  0  0  0  0
   23.2492   -8.1144  -14.8884 N   0  0  0  0  0  0  0  0  0  0  0  0
   18.4645   -7.5478  -13.5355 C   0  0  0  0  0  0  0  0  0  0  0  0
   17.5065   -7.1590  -14.2477 O   0  0  0  0  0  0  0  0  0  0  0  0
   16.2585   -5.4251   -9.5808 C   0  0  0  0  0  0  0  0  0  0  0  0
   17.4522   -6.1180  -10.1524 C   0  0  1  0  0  0  0  0  0  0  0  0
   17.5142   -7.3850   -9.5355 O   0  0  0  0  0  0  0  0  0  0  0  0
   17.3417   -6.3178  -11.6510 C   0  0  2  0  0  0  0  0  0  0  0  0
   18.4507   -7.0913  -12.1657 N   0  0  0  0  0  0  0  0  0  0  0  0
   17.1960   -5.0245  -12.3625 C   0  0  0  0  0  0  0  0  0  0  0  0
   18.2095   -4.3759  -12.7142 O   0  0  0  0  0  0  0  0  0  0  0  0
   15.9508   -4.4932  -12.6604 O   0  0  0  0  0  0  0  0  0  0  0  0
  2  1  1  1
  3  2  1  0
  4  3  1  0
  4  5  1  0
  5  6  1  0
  6  7  1  0
  8  9  2  0
  8  2  1  0
 10  8  1  0
 11 12  1  6
 11 10  1  0
 12 13  1  0
 13 17  1  0
 13 14  2  0
 14 15  1  0
 16 15  1  0
 17 16  2  0
 18 11  1  0
 19 18  2  0
 21 20  1  1
 21 23  1  0
 22 21  1  0
 23 24  1  6
 24 18  1  0
 25 27  1  0
 25 23  1  0
 26 25  2  0
M  END
$$$$
