KHT.pdb
     RDKit          3D

 27 27  0  0  1  0  0  0  0  0999 V2000
   25.4617  -15.3866  -18.5442 N   0  0  0  0  0  0  0  0  0  0  0  0
   24.3556  -15.3852  -17.6523 C   0  0  1  0  0  0  0  0  0  0  0  0
   23.1660  -14.7442  -18.3113 C   0  0  0  0  0  0  0  0  0  0  0  0
   23.2859  -13.2974  -18.6022 C   0  0  0  0  0  0  0  0  0  0  0  0
   22.0727  -12.6008  -19.1051 C   0  0  0  0  0  0  0  0  0  0  0  0
   22.4202  -11.1418  -19.4683 C   0  0  0  0  0  0  0  0  0  0  0  0
   21.2643  -10.4451  -19.9468 N   0  0  0  0  0  0  0  0  0  0  0  0
   23.9529  -16.7697  -17.2352 C   0  0  0  0  0  0  0  0  0  0  0  0
   23.6950  -17.5797  -18.1575 O   0  0  0  0  0  0  0  0  0  0  0  0
   23.8620  -17.1644  -15.8722 N   0  0  0  0  0  0  0  0  0  0  0  0
   23.3916  -18.4737  -15.4673 C   0  0  1  0  0  0  0  0  0  0  0  0
   24.4099  -19.1700  -14.5807 C   0  0  0  0  0  0  0  0  0  0  0  0
   25.6540  -19.5309  -15.3146 C   0  0  0  0  0  0  0  0  0  0  0  0
   25.9874  -19.2788  -16.6215 C   0  0  0  0  0  0  0  0  0  0  0  0
   27.2052  -19.8038  -16.8206 N   0  0  0  0  0  0  0  0  0  0  0  0
   27.6640  -20.3794  -15.7001 C   0  0  0  0  0  0  0  0  0  0  0  0
   26.7033  -20.2068  -14.7788 N   0  0  0  0  0  0  0  0  0  0  0  0
   22.0440  -18.4036  -14.8494 C   0  0  0  0  0  0  0  0  0  0  0  0
   21.7385  -17.6029  -13.9320 O   0  0  0  0  0  0  0  0  0  0  0  0
   17.2262  -18.9549  -15.1206 C   0  0  0  0  0  0  0  0  0  0  0  0
   18.5865  -19.0663  -15.7278 C   0  0  1  0  0  0  0  0  0  0  0  0
   18.8135  -17.8626  -16.4273 O   0  0  0  0  0  0  0  0  0  0  0  0
   19.6738  -19.2281  -14.6839 C   0  0  2  0  0  0  0  0  0  0  0  0
   20.9864  -19.2825  -15.2898 N   0  0  0  0  0  0  0  0  0  0  0  0
   19.4209  -20.4019  -13.8131 C   0  0  0  0  0  0  0  0  0  0  0  0
   19.9254  -21.5162  -14.0875 O   0  0  0  0  0  0  0  0  0  0  0  0
   18.6283  -20.3107  -12.6795 O   0  0  0  0  0  0  0  0  0  0  0  0
  2  1  1  6
  3  2  1  0
  4  3  1  0
  4  5  1  0
  5  6  1  0
  6  7  1  0
  8  9  2  0
  8  2  1  0
 10  8  1  0
 11 12  1  1
 11 10  1  0
 12 13  1  0
 13 17  1  0
 13 14  2  0
 14 15  1  0
 16 15  1  0
 17 16  2  0
 18 11  1  0
 19 18  2  0
 21 20  1  1
 21 23  1  0
 22 21  1  0
 23 24  1  6
 24 18  1  0
 25 27  1  0
 25 23  1  0
 26 25  2  0
M  END
$$$$
