KHT.pdb
     RDKit          3D

 27 27  0  0  1  0  0  0  0  0999 V2000
   23.1342  -14.5513  -17.5027 N   0  0  0  0  0  0  0  0  0  0  0  0
   22.5838  -13.3155  -17.9370 C   0  0  1  0  0  0  0  0  0  0  0  0
   21.0848  -13.4144  -17.9970 C   0  0  0  0  0  0  0  0  0  0  0  0
   20.5384  -14.4704  -18.8795 C   0  0  0  0  0  0  0  0  0  0  0  0
   19.0591  -14.5703  -18.9871 C   0  0  0  0  0  0  0  0  0  0  0  0
   18.6816  -15.6702  -20.0015 C   0  0  0  0  0  0  0  0  0  0  0  0
   17.2619  -15.8481  -20.0577 N   0  0  0  0  0  0  0  0  0  0  0  0
   22.9278  -12.1795  -17.0182 C   0  0  0  0  0  0  0  0  0  0  0  0
   22.8316  -12.4052  -15.7882 O   0  0  0  0  0  0  0  0  0  0  0  0
   23.3432  -10.9059  -17.4951 N   0  0  0  0  0  0  0  0  0  0  0  0
   23.5552   -9.7734  -16.6165 C   0  0  1  0  0  0  0  0  0  0  0  0
   25.0075   -9.3284  -16.6396 C   0  0  0  0  0  0  0  0  0  0  0  0
   25.9297  -10.3597  -16.0896 C   0  0  0  0  0  0  0  0  0  0  0  0
   25.6305  -11.5938  -15.5698 C   0  0  0  0  0  0  0  0  0  0  0  0
   26.7922  -12.1518  -15.1988 N   0  0  0  0  0  0  0  0  0  0  0  0
   27.8189  -11.3297  -15.4582 C   0  0  0  0  0  0  0  0  0  0  0  0
   27.2790  -10.2297  -16.0061 N   0  0  0  0  0  0  0  0  0  0  0  0
   22.6103   -8.6676  -16.9120 C   0  0  0  0  0  0  0  0  0  0  0  0
   22.5801   -8.0498  -18.0045 O   0  0  0  0  0  0  0  0  0  0  0  0
   19.1518   -8.5389  -17.4745 C   0  0  0  0  0  0  0  0  0  0  0  0
   19.3258   -7.5851  -16.3380 C   0  0  1  0  0  0  0  0  0  0  0  0
   18.9518   -8.2809  -15.1694 O   0  0  0  0  0  0  0  0  0  0  0  0
   20.7621   -7.1250  -16.1846 C   0  0  2  0  0  0  0  0  0  0  0  0
   21.6498   -8.2371  -15.9236 N   0  0  0  0  0  0  0  0  0  0  0  0
   20.8867   -6.0677  -15.1519 C   0  0  0  0  0  0  0  0  0  0  0  0
   21.5924   -6.2556  -14.1330 O   0  0  0  0  0  0  0  0  0  0  0  0
   20.2361   -4.8497  -15.2742 O   0  0  0  0  0  0  0  0  0  0  0  0
  2  1  1  1
  3  2  1  0
  4  3  1  0
  4  5  1  0
  5  6  1  0
  6  7  1  0
  8  9  2  0
  8  2  1  0
 10  8  1  0
 11 12  1  6
 11 10  1  0
 12 13  1  0
 13 17  1  0
 13 14  2  0
 14 15  1  0
 16 15  1  0
 17 16  2  0
 18 11  1  0
 19 18  2  0
 21 20  1  6
 21 23  1  0
 22 21  1  0
 23 24  1  1
 24 18  1  0
 25 27  1  0
 25 23  1  0
 26 25  2  0
M  END
$$$$
