KHT.pdb
     RDKit          3D

 27 27  0  0  1  0  0  0  0  0999 V2000
   18.5455  -11.4937  -17.5590 N   0  0  0  0  0  0  0  0  0  0  0  0
   19.2440  -10.3009  -17.8879 C   0  0  1  0  0  0  0  0  0  0  0  0
   18.2663   -9.2150  -18.2421 C   0  0  0  0  0  0  0  0  0  0  0  0
   17.4581   -9.4414  -19.4619 C   0  0  0  0  0  0  0  0  0  0  0  0
   16.1264  -10.0788  -19.2882 C   0  0  0  0  0  0  0  0  0  0  0  0
   15.4007  -10.1530  -20.6480 C   0  0  0  0  0  0  0  0  0  0  0  0
   14.1715  -10.8784  -20.5323 N   0  0  0  0  0  0  0  0  0  0  0  0
   20.0891   -9.7992  -16.7534 C   0  0  0  0  0  0  0  0  0  0  0  0
   19.5465   -9.7660  -15.6230 O   0  0  0  0  0  0  0  0  0  0  0  0
   21.4361   -9.3784  -16.9278 N   0  0  0  0  0  0  0  0  0  0  0  0
   22.2700   -8.9490  -15.8234 C   0  0  1  0  0  0  0  0  0  0  0  0
   23.6145   -9.6560  -15.8470 C   0  0  0  0  0  0  0  0  0  0  0  0
   23.4944  -11.1197  -15.6024 C   0  0  0  0  0  0  0  0  0  0  0  0
   22.3697  -11.8595  -15.3366 C   0  0  0  0  0  0  0  0  0  0  0  0
   22.7675  -13.1310  -15.1836 N   0  0  0  0  0  0  0  0  0  0  0  0
   24.0949  -13.2360  -15.3397 C   0  0  0  0  0  0  0  0  0  0  0  0
   24.5338  -11.9940  -15.5970 N   0  0  0  0  0  0  0  0  0  0  0  0
   22.3984   -7.4711  -15.7776 C   0  0  0  0  0  0  0  0  0  0  0  0
   23.0296   -6.7995  -16.6300 O   0  0  0  0  0  0  0  0  0  0  0  0
   20.1865   -4.8903  -16.4003 C   0  0  0  0  0  0  0  0  0  0  0  0
   20.6387   -4.5672  -15.0136 C   0  0  1  0  0  0  0  0  0  0  0  0
   19.6210   -5.0144  -14.1453 O   0  0  0  0  0  0  0  0  0  0  0  0
   21.9285   -5.2743  -14.6470 C   0  0  2  0  0  0  0  0  0  0  0  0
   21.7824   -6.7121  -14.7148 N   0  0  0  0  0  0  0  0  0  0  0  0
   22.4321   -4.8346  -13.3230 C   0  0  0  0  0  0  0  0  0  0  0  0
   22.5409   -5.6545  -12.3809 O   0  0  0  0  0  0  0  0  0  0  0  0
   22.7958   -3.5187  -13.0823 O   0  0  0  0  0  0  0  0  0  0  0  0
  2  1  1  1
  3  2  1  0
  4  3  1  0
  4  5  1  0
  5  6  1  0
  6  7  1  0
  8  9  2  0
  8  2  1  0
 10  8  1  0
 11 12  1  6
 11 10  1  0
 12 13  1  0
 13 17  1  0
 13 14  2  0
 14 15  1  0
 16 15  1  0
 17 16  2  0
 18 11  1  0
 19 18  2  0
 21 20  1  6
 21 23  1  0
 22 21  1  0
 23 24  1  1
 24 18  1  0
 25 27  1  0
 25 23  1  0
 26 25  2  0
M  END
$$$$
