KHT.pdb
     RDKit          3D

 27 27  0  0  1  0  0  0  0  0999 V2000
   28.2095  -31.6645  -15.8217 N   0  0  0  0  0  0  0  0  0  0  0  0
   29.4521  -32.3084  -15.5765 C   0  0  1  0  0  0  0  0  0  0  0  0
   29.2161  -33.7162  -15.1045 C   0  0  0  0  0  0  0  0  0  0  0  0
   28.2287  -34.5035  -15.8775 C   0  0  0  0  0  0  0  0  0  0  0  0
   27.8664  -35.8461  -15.3521 C   0  0  0  0  0  0  0  0  0  0  0  0
   26.9283  -36.5613  -16.3470 C   0  0  0  0  0  0  0  0  0  0  0  0
   26.5462  -37.8499  -15.8531 N   0  0  0  0  0  0  0  0  0  0  0  0
   30.3140  -32.3789  -16.8033 C   0  0  0  0  0  0  0  0  0  0  0  0
   29.8106  -31.9450  -17.8670 O   0  0  0  0  0  0  0  0  0  0  0  0
   31.6345  -32.9059  -16.7840 N   0  0  0  0  0  0  0  0  0  0  0  0
   32.4956  -32.9000  -17.9493 C   0  0  1  0  0  0  0  0  0  0  0  0
   33.7701  -32.1175  -17.6829 C   0  0  0  0  0  0  0  0  0  0  0  0
   33.6037  -30.6571  -17.9199 C   0  0  0  0  0  0  0  0  0  0  0  0
   32.5619  -29.9945  -18.5185 C   0  0  0  0  0  0  0  0  0  0  0  0
   32.8718  -28.6898  -18.5056 N   0  0  0  0  0  0  0  0  0  0  0  0
   34.0640  -28.4899  -17.9261 C   0  0  0  0  0  0  0  0  0  0  0  0
   34.5071  -29.7055  -17.5689 N   0  0  0  0  0  0  0  0  0  0  0  0
   32.7577  -34.2751  -18.4424 C   0  0  0  0  0  0  0  0  0  0  0  0
   33.0888  -35.2310  -17.6990 O   0  0  0  0  0  0  0  0  0  0  0  0
   31.9019  -37.7231  -21.8207 C   0  0  0  0  0  0  0  0  0  0  0  0
   31.7847  -36.3033  -21.3712 C   0  0  1  0  0  0  0  0  0  0  0  0
   30.5034  -36.1687  -20.7969 O   0  0  0  0  0  0  0  0  0  0  0  0
   32.8207  -35.9409  -20.3256 C   0  0  2  0  0  0  0  0  0  0  0  0
   32.6399  -34.5875  -19.8473 N   0  0  0  0  0  0  0  0  0  0  0  0
   34.1989  -36.1685  -20.8242 C   0  0  0  0  0  0  0  0  0  0  0  0
   34.9832  -35.2038  -20.9847 O   0  0  0  0  0  0  0  0  0  0  0  0
   34.6636  -37.4390  -21.1268 O   0  0  0  0  0  0  0  0  0  0  0  0
  2  1  1  6
  3  2  1  0
  4  3  1  0
  4  5  1  0
  5  6  1  0
  6  7  1  0
  8  9  2  0
  8  2  1  0
 10  8  1  0
 11 12  1  1
 11 10  1  0
 12 13  1  0
 13 17  1  0
 13 14  2  0
 14 15  1  0
 16 15  1  0
 17 16  2  0
 18 11  1  0
 19 18  2  0
 21 20  1  1
 21 23  1  0
 22 21  1  0
 23 24  1  6
 24 18  1  0
 25 27  1  0
 25 23  1  0
 26 25  2  0
M  END
$$$$
