NYP.pdb
     RDKit          3D

 28 29  0  0  1  0  0  0  0  0999 V2000
    5.6473  -21.6227   20.3914 N   0  0  0  0  0  0  0  0  0  0  0  0
    4.4252  -20.9144   20.2151 C   0  0  0  0  0  0  0  0  0  0  0  0
    3.6563  -21.2841   19.2911 O   0  0  0  0  0  0  0  0  0  0  0  0
    4.1414  -19.7905   21.1310 C   0  0  0  0  0  0  0  0  0  0  0  0
    5.3138  -19.6503   22.0806 C   0  0  2  0  0  0  0  0  0  0  0  0
    5.0435  -20.4981   23.2396 N   0  0  0  0  0  0  0  0  0  0  0  0
    5.5245  -18.2409   22.4992 C   0  0  0  0  0  0  0  0  0  0  0  0
    5.0758  -17.2612   21.8886 O   0  0  0  0  0  0  0  0  0  0  0  0
    7.4637  -11.1353   27.2251 O   0  0  0  0  0  0  0  0  0  0  0  0
    7.3463  -12.4695   26.8263 C   0  0  0  0  0  0  0  0  0  0  0  0
    8.4477  -13.2612   26.5919 C   0  0  0  0  0  0  0  0  0  0  0  0
    8.2787  -14.5717   26.1999 C   0  0  0  0  0  0  0  0  0  0  0  0
    7.0272  -15.1517   26.0242 C   0  0  0  0  0  0  0  0  0  0  0  0
    6.8932  -16.5991   25.6096 C   0  0  0  0  0  0  0  0  0  0  0  0
    6.6690  -16.6801   24.1375 C   0  0  2  0  0  0  0  0  0  0  0  0
    6.2808  -17.9838   23.6634 N   0  0  0  0  0  0  0  0  0  0  0  0
    7.8439  -16.2774   23.3661 C   0  0  0  0  0  0  0  0  0  0  0  0
    8.8628  -17.0917   23.3774 O   0  0  0  0  0  0  0  0  0  0  0  0
    5.9418  -14.3471   26.2630 C   0  0  0  0  0  0  0  0  0  0  0  0
    6.0958  -13.0225   26.6589 C   0  0  0  0  0  0  0  0  0  0  0  0
    8.0556  -15.1183   22.5924 N   0  0  0  0  0  0  0  0  0  0  0  0
    7.0710  -14.0262   22.5453 C   0  0  0  0  0  0  0  0  0  0  0  0
    7.9307  -12.8042   22.3630 C   0  0  0  0  0  0  0  0  0  0  0  0
    8.8393  -13.3244   21.2371 C   0  0  0  0  0  0  0  0  0  0  0  0
    9.1475  -14.7636   21.7511 C   0  0  1  0  0  0  0  0  0  0  0  0
   10.4679  -14.6991   22.4421 C   0  0  0  0  0  0  0  0  0  0  0  0
   10.4748  -14.7756   23.6955 O   0  0  0  0  0  0  0  0  0  0  0  0
   11.6739  -14.5649   21.7907 O   0  0  0  0  0  0  0  0  0  0  0  0
  1  2  1  0
  2  3  2  0
  4  5  1  0
  4  2  1  0
  5  6  1  1
  7  5  1  0
  7  8  2  0
  9 10  1  0
 10 11  2  0
 11 12  1  0
 13 12  2  0
 13 14  1  0
 15 14  1  1
 15 16  1  0
 16  7  1  0
 17 15  1  0
 18 17  2  0
 19 13  1  0
 20 10  1  0
 20 19  2  0
 21 22  1  0
 21 17  1  0
 23 22  1  0
 24 23  1  0
 24 25  1  0
 25 21  1  0
 25 26  1  1
 27 26  2  0
 28 26  1  0
M  END
$$$$
