NYP.pdb
     RDKit          3D

 28 29  0  0  1  0  0  0  0  0999 V2000
   14.1040  -18.3593   20.7689 N   0  0  0  0  0  0  0  0  0  0  0  0
   13.1320  -17.6899   19.9730 C   0  0  0  0  0  0  0  0  0  0  0  0
   13.0959  -17.9490   18.7429 O   0  0  0  0  0  0  0  0  0  0  0  0
   12.2291  -16.7340   20.6465 C   0  0  0  0  0  0  0  0  0  0  0  0
   11.8410  -17.3198   21.9889 C   0  0  2  0  0  0  0  0  0  0  0  0
   10.8222  -18.3386   21.7452 N   0  0  0  0  0  0  0  0  0  0  0  0
   11.3325  -16.2821   22.9220 C   0  0  0  0  0  0  0  0  0  0  0  0
   11.9724  -15.2756   23.2559 O   0  0  0  0  0  0  0  0  0  0  0  0
    6.7755  -12.9797   19.1946 O   0  0  0  0  0  0  0  0  0  0  0  0
    7.0737  -13.5521   20.4341 C   0  0  0  0  0  0  0  0  0  0  0  0
    7.7046  -12.8447   21.4323 C   0  0  0  0  0  0  0  0  0  0  0  0
    7.9770  -13.4551   22.6377 C   0  0  0  0  0  0  0  0  0  0  0  0
    7.6414  -14.7773   22.9072 C   0  0  0  0  0  0  0  0  0  0  0  0
    7.9457  -15.3972   24.2517 C   0  0  0  0  0  0  0  0  0  0  0  0
    9.4211  -15.5414   24.4146 C   0  0  2  0  0  0  0  0  0  0  0  0
   10.0414  -16.4368   23.4719 N   0  0  0  0  0  0  0  0  0  0  0  0
    9.7976  -16.0002   25.7508 C   0  0  0  0  0  0  0  0  0  0  0  0
    9.9858  -17.2821   25.9018 O   0  0  0  0  0  0  0  0  0  0  0  0
    7.0128  -15.4657   21.9004 C   0  0  0  0  0  0  0  0  0  0  0  0
    6.7313  -14.8638   20.6783 C   0  0  0  0  0  0  0  0  0  0  0  0
    9.9944  -15.2573   26.9325 N   0  0  0  0  0  0  0  0  0  0  0  0
    9.6648  -13.8258   27.0132 C   0  0  0  0  0  0  0  0  0  0  0  0
    9.2447  -13.6564   28.4486 C   0  0  0  0  0  0  0  0  0  0  0  0
   10.4023  -14.4125   29.1209 C   0  0  0  0  0  0  0  0  0  0  0  0
   10.5129  -15.6618   28.1948 C   0  0  1  0  0  0  0  0  0  0  0  0
    9.7476  -16.7570   28.8580 C   0  0  0  0  0  0  0  0  0  0  0  0
   10.2505  -17.2836   29.8811 O   0  0  0  0  0  0  0  0  0  0  0  0
    8.5269  -17.2203   28.4196 O   0  0  0  0  0  0  0  0  0  0  0  0
  1  2  1  0
  2  3  2  0
  4  5  1  0
  4  2  1  0
  5  6  1  6
  7  5  1  0
  7  8  2  0
  9 10  1  0
 10 11  2  0
 11 12  1  0
 13 12  2  0
 13 14  1  0
 15 14  1  1
 15 16  1  0
 16  7  1  0
 17 15  1  0
 18 17  2  0
 19 13  1  0
 20 10  1  0
 20 19  2  0
 21 22  1  0
 21 17  1  0
 23 22  1  0
 24 23  1  0
 24 25  1  0
 25 21  1  0
 25 26  1  1
 27 26  2  0
 28 26  1  0
M  END
$$$$
