NYP.pdb
     RDKit          3D

 28 29  0  0  1  0  0  0  0  0999 V2000
   11.6971  -18.0554   18.2406 N   0  0  0  0  0  0  0  0  0  0  0  0
   12.5499  -17.7436   19.3368 C   0  0  0  0  0  0  0  0  0  0  0  0
   13.5924  -18.4306   19.4881 O   0  0  0  0  0  0  0  0  0  0  0  0
   12.1527  -16.6318   20.2249 C   0  0  0  0  0  0  0  0  0  0  0  0
   11.7293  -17.2211   21.5551 C   0  0  2  0  0  0  0  0  0  0  0  0
   10.7177  -18.2395   21.2819 N   0  0  0  0  0  0  0  0  0  0  0  0
   11.1959  -16.1859   22.4770 C   0  0  0  0  0  0  0  0  0  0  0  0
   11.8247  -15.1778   22.8268 O   0  0  0  0  0  0  0  0  0  0  0  0
    5.6606  -11.4456   27.3891 O   0  0  0  0  0  0  0  0  0  0  0  0
    6.1765  -12.3865   26.4937 C   0  0  0  0  0  0  0  0  0  0  0  0
    5.9900  -13.7391   26.6680 C   0  0  0  0  0  0  0  0  0  0  0  0
    6.5195  -14.6270   25.7564 C   0  0  0  0  0  0  0  0  0  0  0  0
    7.2488  -14.2217   24.6440 C   0  0  0  0  0  0  0  0  0  0  0  0
    7.7948  -15.2334   23.6626 C   0  0  0  0  0  0  0  0  0  0  0  0
    9.2469  -15.4513   23.9234 C   0  0  2  0  0  0  0  0  0  0  0  0
    9.8926  -16.3449   22.9962 N   0  0  0  0  0  0  0  0  0  0  0  0
    9.5063  -15.9685   25.2660 C   0  0  0  0  0  0  0  0  0  0  0  0
    9.2236  -17.2241   25.4780 O   0  0  0  0  0  0  0  0  0  0  0  0
    7.4236  -12.8699   24.4871 C   0  0  0  0  0  0  0  0  0  0  0  0
    6.8957  -11.9613   25.3986 C   0  0  0  0  0  0  0  0  0  0  0  0
   10.0267  -15.3079   26.3973 N   0  0  0  0  0  0  0  0  0  0  0  0
   10.1836  -13.8457   26.4384 C   0  0  0  0  0  0  0  0  0  0  0  0
    9.9579  -13.5225   27.8910 C   0  0  0  0  0  0  0  0  0  0  0  0
   10.8606  -14.6008   28.5124 C   0  0  0  0  0  0  0  0  0  0  0  0
   10.4877  -15.8353   27.6364 C   0  0  1  0  0  0  0  0  0  0  0  0
    9.4666  -16.6103   28.3992 C   0  0  0  0  0  0  0  0  0  0  0  0
    8.2892  -16.6115   27.9628 O   0  0  0  0  0  0  0  0  0  0  0  0
    9.7376  -17.3239   29.5457 O   0  0  0  0  0  0  0  0  0  0  0  0
  1  2  1  0
  2  3  2  0
  4  5  1  0
  4  2  1  0
  5  6  1  6
  7  5  1  0
  7  8  2  0
  9 10  1  0
 10 11  2  0
 11 12  1  0
 13 12  2  0
 13 14  1  0
 15 14  1  6
 15 16  1  0
 16  7  1  0
 17 15  1  0
 18 17  2  0
 19 13  1  0
 20 10  1  0
 20 19  2  0
 21 22  1  0
 21 17  1  0
 23 22  1  0
 24 23  1  0
 24 25  1  0
 25 21  1  0
 25 26  1  1
 27 26  2  0
 28 26  1  0
M  END
$$$$
