NYP.pdb
     RDKit          3D

 28 29  0  0  1  0  0  0  0  0999 V2000
   13.7870  -19.8594   20.5024 N   0  0  0  0  0  0  0  0  0  0  0  0
   12.5002  -19.5352   21.0173 C   0  0  0  0  0  0  0  0  0  0  0  0
   11.5324  -20.2706   20.6944 O   0  0  0  0  0  0  0  0  0  0  0  0
   12.3874  -18.3545   21.8982 C   0  0  0  0  0  0  0  0  0  0  0  0
   11.3259  -17.4388   21.3232 C   0  0  2  0  0  0  0  0  0  0  0  0
   11.8659  -16.8570   20.0964 N   0  0  0  0  0  0  0  0  0  0  0  0
   10.9333  -16.3733   22.2806 C   0  0  0  0  0  0  0  0  0  0  0  0
   11.6167  -15.3682   22.5188 O   0  0  0  0  0  0  0  0  0  0  0  0
    5.9374  -11.2657   27.4005 O   0  0  0  0  0  0  0  0  0  0  0  0
    6.3658  -12.2498   26.5055 C   0  0  0  0  0  0  0  0  0  0  0  0
    6.1654  -13.5907   26.7438 C   0  0  0  0  0  0  0  0  0  0  0  0
    6.6073  -14.5227   25.8296 C   0  0  0  0  0  0  0  0  0  0  0  0
    7.2598  -14.1747   24.6521 C   0  0  0  0  0  0  0  0  0  0  0  0
    7.7105  -15.2333   23.6719 C   0  0  0  0  0  0  0  0  0  0  0  0
    9.1579  -15.5258   23.8806 C   0  0  2  0  0  0  0  0  0  0  0  0
    9.7080  -16.4979   22.9708 N   0  0  0  0  0  0  0  0  0  0  0  0
    9.4477  -15.9959   25.2343 C   0  0  0  0  0  0  0  0  0  0  0  0
    9.1671  -17.2423   25.4974 O   0  0  0  0  0  0  0  0  0  0  0  0
    7.4500  -12.8338   24.4321 C   0  0  0  0  0  0  0  0  0  0  0  0
    7.0100  -11.8810   25.3452 C   0  0  0  0  0  0  0  0  0  0  0  0
    9.9964  -15.2972   26.3288 N   0  0  0  0  0  0  0  0  0  0  0  0
   10.1466  -13.8338   26.3188 C   0  0  0  0  0  0  0  0  0  0  0  0
    9.9603  -13.4653   27.7663 C   0  0  0  0  0  0  0  0  0  0  0  0
   10.8857  -14.5193   28.3959 C   0  0  0  0  0  0  0  0  0  0  0  0
   10.4947  -15.7827   27.5705 C   0  0  1  0  0  0  0  0  0  0  0  0
    9.4996  -16.5374   28.3862 C   0  0  0  0  0  0  0  0  0  0  0  0
    8.3042  -16.5299   28.0017 O   0  0  0  0  0  0  0  0  0  0  0  0
    9.8127  -17.2412   29.5279 O   0  0  0  0  0  0  0  0  0  0  0  0
  1  2  1  0
  2  3  2  0
  4  5  1  0
  4  2  1  0
  5  6  1  6
  7  5  1  0
  7  8  2  0
  9 10  1  0
 10 11  2  0
 11 12  1  0
 13 12  2  0
 13 14  1  0
 15 14  1  1
 15 16  1  0
 16  7  1  0
 17 15  1  0
 18 17  2  0
 19 13  1  0
 20 10  1  0
 20 19  2  0
 21 22  1  0
 21 17  1  0
 23 22  1  0
 24 23  1  0
 24 25  1  0
 25 21  1  0
 25 26  1  1
 27 26  2  0
 28 26  1  0
M  END
$$$$
