NYP.pdb
     RDKit          3D

 28 29  0  0  1  0  0  0  0  0999 V2000
    4.8305  -19.8596   19.0581 N   0  0  0  0  0  0  0  0  0  0  0  0
    5.7888  -19.8447   20.1106 C   0  0  0  0  0  0  0  0  0  0  0  0
    6.7274  -20.6805   20.0665 O   0  0  0  0  0  0  0  0  0  0  0  0
    5.6163  -18.8466   21.1860 C   0  0  0  0  0  0  0  0  0  0  0  0
    5.9519  -19.5136   22.5046 C   0  0  2  0  0  0  0  0  0  0  0  0
    4.8539  -20.4215   22.8291 N   0  0  0  0  0  0  0  0  0  0  0  0
    6.1528  -18.5231   23.5930 C   0  0  0  0  0  0  0  0  0  0  0  0
    5.2303  -17.9739   24.2105 O   0  0  0  0  0  0  0  0  0  0  0  0
   10.2373  -13.3976   29.4683 O   0  0  0  0  0  0  0  0  0  0  0  0
    9.8632  -14.4560   28.6360 C   0  0  0  0  0  0  0  0  0  0  0  0
    8.6726  -15.1275   28.7989 C   0  0  0  0  0  0  0  0  0  0  0  0
    8.3496  -16.1653   27.9514 C   0  0  0  0  0  0  0  0  0  0  0  0
    9.1800  -16.5810   26.9164 C   0  0  0  0  0  0  0  0  0  0  0  0
    8.7735  -17.7138   26.0020 C   0  0  0  0  0  0  0  0  0  0  0  0
    7.8315  -17.2061   24.9633 C   0  0  2  0  0  0  0  0  0  0  0  0
    7.4709  -18.1744   23.9595 N   0  0  0  0  0  0  0  0  0  0  0  0
    8.3484  -16.0336   24.2594 C   0  0  0  0  0  0  0  0  0  0  0  0
    9.3629  -16.2254   23.4621 O   0  0  0  0  0  0  0  0  0  0  0  0
   10.3617  -15.8994   26.7696 C   0  0  0  0  0  0  0  0  0  0  0  0
   10.7021  -14.8500   27.6169 C   0  0  0  0  0  0  0  0  0  0  0  0
    7.9131  -14.6937   24.3074 N   0  0  0  0  0  0  0  0  0  0  0  0
    6.8824  -14.2461   25.2568 C   0  0  0  0  0  0  0  0  0  0  0  0
    7.2878  -12.8267   25.5510 C   0  0  0  0  0  0  0  0  0  0  0  0
    7.5342  -12.3514   24.1099 C   0  0  0  0  0  0  0  0  0  0  0  0
    8.3115  -13.5712   23.5282 C   0  0  1  0  0  0  0  0  0  0  0  0
    9.7627  -13.2376   23.6171 C   0  0  0  0  0  0  0  0  0  0  0  0
   10.1968  -12.3200   22.8779 O   0  0  0  0  0  0  0  0  0  0  0  0
   10.6495  -13.8701   24.4599 O   0  0  0  0  0  0  0  0  0  0  0  0
  1  2  1  0
  2  3  2  0
  4  5  1  0
  4  2  1  0
  5  6  1  1
  7  5  1  0
  7  8  2  0
  9 10  1  0
 10 11  2  0
 11 12  1  0
 13 12  2  0
 13 14  1  0
 15 14  1  1
 15 16  1  0
 16  7  1  0
 17 15  1  0
 18 17  2  0
 19 13  1  0
 20 10  1  0
 20 19  2  0
 21 22  1  0
 21 17  1  0
 23 22  1  0
 24 23  1  0
 24 25  1  0
 25 21  1  0
 25 26  1  1
 27 26  2  0
 28 26  1  0
M  END
$$$$
