NYP.pdb
     RDKit          3D

 28 29  0  0  1  0  0  0  0  0999 V2000
   12.0712  -17.8958   18.0492 N   0  0  0  0  0  0  0  0  0  0  0  0
   12.6418  -17.5226   19.2988 C   0  0  0  0  0  0  0  0  0  0  0  0
   13.7422  -18.0380   19.6230 O   0  0  0  0  0  0  0  0  0  0  0  0
   11.9018  -16.5531   20.1325 C   0  0  0  0  0  0  0  0  0  0  0  0
   11.5703  -17.2232   21.4505 C   0  0  2  0  0  0  0  0  0  0  0  0
   10.5464  -18.2313   21.1849 N   0  0  0  0  0  0  0  0  0  0  0  0
   11.0959  -16.2484   22.4657 C   0  0  0  0  0  0  0  0  0  0  0  0
   11.7685  -15.2940   22.8788 O   0  0  0  0  0  0  0  0  0  0  0  0
    5.8973  -11.2454   27.3464 O   0  0  0  0  0  0  0  0  0  0  0  0
    6.3435  -12.2376   26.4692 C   0  0  0  0  0  0  0  0  0  0  0  0
    6.9306  -11.9345   25.2617 C   0  0  0  0  0  0  0  0  0  0  0  0
    7.3539  -12.9500   24.4314 C   0  0  0  0  0  0  0  0  0  0  0  0
    7.2172  -14.2956   24.7544 C   0  0  0  0  0  0  0  0  0  0  0  0
    7.7131  -15.3733   23.8178 C   0  0  0  0  0  0  0  0  0  0  0  0
    9.1873  -15.5344   23.9749 C   0  0  2  0  0  0  0  0  0  0  0  0
    9.8000  -16.4043   23.0038 N   0  0  0  0  0  0  0  0  0  0  0  0
    9.5608  -16.0384   25.2956 C   0  0  0  0  0  0  0  0  0  0  0  0
    9.3621  -17.3080   25.5190 O   0  0  0  0  0  0  0  0  0  0  0  0
    6.6302  -14.5777   25.9620 C   0  0  0  0  0  0  0  0  0  0  0  0
    6.1976  -13.5641   26.8108 C   0  0  0  0  0  0  0  0  0  0  0  0
   10.1158  -15.3515   26.3944 N   0  0  0  0  0  0  0  0  0  0  0  0
   10.2529  -13.8868   26.4052 C   0  0  0  0  0  0  0  0  0  0  0  0
   10.0800  -13.5422   27.8602 C   0  0  0  0  0  0  0  0  0  0  0  0
   11.0220  -14.5972   28.4629 C   0  0  0  0  0  0  0  0  0  0  0  0
   10.6327  -15.8514   27.6227 C   0  0  1  0  0  0  0  0  0  0  0  0
    9.6539  -16.6274   28.4379 C   0  0  0  0  0  0  0  0  0  0  0  0
    8.4582  -16.6438   28.0544 O   0  0  0  0  0  0  0  0  0  0  0  0
    9.9821  -17.3265   29.5784 O   0  0  0  0  0  0  0  0  0  0  0  0
  1  2  1  0
  2  3  2  0
  4  5  1  0
  4  2  1  0
  5  6  1  6
  7  5  1  0
  7  8  2  0
  9 10  1  0
 10 11  2  0
 11 12  1  0
 13 12  2  0
 13 14  1  0
 15 14  1  1
 15 16  1  0
 16  7  1  0
 17 15  1  0
 18 17  2  0
 19 13  1  0
 20 10  1  0
 20 19  2  0
 21 22  1  0
 21 17  1  0
 23 22  1  0
 24 23  1  0
 24 25  1  0
 25 21  1  0
 25 26  1  1
 27 26  2  0
 28 26  1  0
M  END
$$$$
