NYP.pdb
     RDKit          3D

 28 29  0  0  1  0  0  0  0  0999 V2000
   13.2044  -19.8299   20.1556 N   0  0  0  0  0  0  0  0  0  0  0  0
   12.1395  -19.3540   20.9716 C   0  0  0  0  0  0  0  0  0  0  0  0
   11.1368  -20.0971   21.1266 O   0  0  0  0  0  0  0  0  0  0  0  0
   12.2838  -18.0168   21.5828 C   0  0  0  0  0  0  0  0  0  0  0  0
   11.0679  -17.1945   21.2068 C   0  0  2  0  0  0  0  0  0  0  0  0
   11.3739  -16.5058   19.9549 N   0  0  0  0  0  0  0  0  0  0  0  0
   10.7070  -16.2193   22.2673 C   0  0  0  0  0  0  0  0  0  0  0  0
   11.3629  -15.2011   22.5261 O   0  0  0  0  0  0  0  0  0  0  0  0
    6.0060  -11.1270   27.5002 O   0  0  0  0  0  0  0  0  0  0  0  0
    6.3799  -12.2184   26.7113 C   0  0  0  0  0  0  0  0  0  0  0  0
    5.8914  -13.4851   26.9387 C   0  0  0  0  0  0  0  0  0  0  0  0
    6.2913  -14.5287   26.1321 C   0  0  0  0  0  0  0  0  0  0  0  0
    7.1820  -14.3685   25.0764 C   0  0  0  0  0  0  0  0  0  0  0  0
    7.5772  -15.5414   24.2089 C   0  0  0  0  0  0  0  0  0  0  0  0
    9.0630  -15.6043   24.0974 C   0  0  2  0  0  0  0  0  0  0  0  0
    9.5471  -16.4519   23.0380 N   0  0  0  0  0  0  0  0  0  0  0  0
    9.7014  -16.0573   25.3323 C   0  0  0  0  0  0  0  0  0  0  0  0
    9.8635  -17.3438   25.4736 O   0  0  0  0  0  0  0  0  0  0  0  0
    7.6575  -13.0989   24.8654 C   0  0  0  0  0  0  0  0  0  0  0  0
    7.2637  -12.0353   25.6708 C   0  0  0  0  0  0  0  0  0  0  0  0
   10.1816  -15.3043   26.4230 N   0  0  0  0  0  0  0  0  0  0  0  0
   10.1159  -13.8347   26.4403 C   0  0  0  0  0  0  0  0  0  0  0  0
    9.9306  -13.5222   27.9010 C   0  0  0  0  0  0  0  0  0  0  0  0
   11.0225  -14.4394   28.4757 C   0  0  0  0  0  0  0  0  0  0  0  0
   10.7905  -15.7324   27.6361 C   0  0  1  0  0  0  0  0  0  0  0  0
    9.9468  -16.6387   28.4679 C   0  0  0  0  0  0  0  0  0  0  0  0
    8.7394  -16.7686   28.1480 O   0  0  0  0  0  0  0  0  0  0  0  0
   10.4114  -17.3406   29.5580 O   0  0  0  0  0  0  0  0  0  0  0  0
  1  2  1  0
  2  3  2  0
  4  5  1  0
  4  2  1  0
  5  6  1  6
  7  5  1  0
  7  8  2  0
  9 10  1  0
 10 11  2  0
 11 12  1  0
 13 12  2  0
 13 14  1  0
 15 14  1  1
 15 16  1  0
 16  7  1  0
 17 15  1  0
 18 17  2  0
 19 13  1  0
 20 10  1  0
 20 19  2  0
 21 22  1  0
 21 17  1  0
 23 22  1  0
 24 23  1  0
 24 25  1  0
 25 21  1  0
 25 26  1  1
 27 26  2  0
 28 26  1  0
M  END
$$$$
