NYP.pdb
     RDKit          3D

 28 29  0  0  1  0  0  0  0  0999 V2000
   11.5032  -19.3917   19.7722 N   0  0  0  0  0  0  0  0  0  0  0  0
   12.4358  -19.3605   20.8471 C   0  0  0  0  0  0  0  0  0  0  0  0
   13.1428  -20.3816   21.0453 O   0  0  0  0  0  0  0  0  0  0  0  0
   12.5110  -18.1288   21.6592 C   0  0  0  0  0  0  0  0  0  0  0  0
   11.4318  -17.1809   21.1767 C   0  0  2  0  0  0  0  0  0  0  0  0
   11.9420  -16.5046   19.9861 N   0  0  0  0  0  0  0  0  0  0  0  0
   11.0527  -16.1933   22.2192 C   0  0  0  0  0  0  0  0  0  0  0  0
   11.7431  -15.2133   22.5304 O   0  0  0  0  0  0  0  0  0  0  0  0
    5.9211  -11.4074   27.5254 O   0  0  0  0  0  0  0  0  0  0  0  0
    6.3793  -12.3332   26.5842 C   0  0  0  0  0  0  0  0  0  0  0  0
    6.1764  -13.6866   26.7325 C   0  0  0  0  0  0  0  0  0  0  0  0
    6.6484  -14.5592   25.7757 C   0  0  0  0  0  0  0  0  0  0  0  0
    7.3345  -14.1374   24.6421 C   0  0  0  0  0  0  0  0  0  0  0  0
    7.8177  -15.1322   23.6118 C   0  0  0  0  0  0  0  0  0  0  0  0
    9.2599  -15.4330   23.8433 C   0  0  2  0  0  0  0  0  0  0  0  0
    9.8328  -16.3671   22.9083 N   0  0  0  0  0  0  0  0  0  0  0  0
    9.5173  -15.9578   25.1834 C   0  0  0  0  0  0  0  0  0  0  0  0
    9.2758  -17.2252   25.3757 O   0  0  0  0  0  0  0  0  0  0  0  0
    7.5264  -12.7852   24.5117 C   0  0  0  0  0  0  0  0  0  0  0  0
    7.0564  -11.8918   25.4688 C   0  0  0  0  0  0  0  0  0  0  0  0
    9.9973  -15.2939   26.3305 N   0  0  0  0  0  0  0  0  0  0  0  0
   10.0269  -13.8259   26.4221 C   0  0  0  0  0  0  0  0  0  0  0  0
    9.7985  -13.5743   27.8884 C   0  0  0  0  0  0  0  0  0  0  0  0
   10.8020  -14.5904   28.4581 C   0  0  0  0  0  0  0  0  0  0  0  0
   10.5231  -15.8216   27.5433 C   0  0  1  0  0  0  0  0  0  0  0  0
    9.5864  -16.7090   28.2917 C   0  0  0  0  0  0  0  0  0  0  0  0
   10.0083  -17.2467   29.3452 O   0  0  0  0  0  0  0  0  0  0  0  0
    8.2920  -16.9698   27.9001 O   0  0  0  0  0  0  0  0  0  0  0  0
  1  2  1  0
  2  3  2  0
  4  5  1  0
  4  2  1  0
  5  6  1  6
  7  5  1  0
  7  8  2  0
  9 10  1  0
 10 11  2  0
 11 12  1  0
 13 12  2  0
 13 14  1  0
 15 14  1  6
 15 16  1  0
 16  7  1  0
 17 15  1  0
 18 17  2  0
 19 13  1  0
 20 10  1  0
 20 19  2  0
 21 22  1  0
 21 17  1  0
 23 22  1  0
 24 23  1  0
 24 25  1  0
 25 21  1  0
 25 26  1  1
 27 26  2  0
 28 26  1  0
M  END
$$$$
