NYP.pdb
     RDKit          3D

 28 29  0  0  1  0  0  0  0  0999 V2000
   11.3047  -17.8277   17.8823 N   0  0  0  0  0  0  0  0  0  0  0  0
   12.0234  -17.7839   19.1102 C   0  0  0  0  0  0  0  0  0  0  0  0
   12.8620  -18.6935   19.3363 O   0  0  0  0  0  0  0  0  0  0  0  0
   11.7358  -16.6710   20.0382 C   0  0  0  0  0  0  0  0  0  0  0  0
   11.5353  -17.2533   21.4227 C   0  0  2  0  0  0  0  0  0  0  0  0
   10.5527  -18.3288   21.3083 N   0  0  0  0  0  0  0  0  0  0  0  0
   11.0801  -16.2281   22.3961 C   0  0  0  0  0  0  0  0  0  0  0  0
   11.7680  -15.2658   22.7631 O   0  0  0  0  0  0  0  0  0  0  0  0
    5.8441  -11.3849   27.5424 O   0  0  0  0  0  0  0  0  0  0  0  0
    6.3008  -12.3338   26.6236 C   0  0  0  0  0  0  0  0  0  0  0  0
    6.0508  -13.6786   26.7777 C   0  0  0  0  0  0  0  0  0  0  0  0
    6.5235  -14.5749   25.8433 C   0  0  0  0  0  0  0  0  0  0  0  0
    7.2562  -14.1859   24.7273 C   0  0  0  0  0  0  0  0  0  0  0  0
    7.7384  -15.2054   23.7209 C   0  0  0  0  0  0  0  0  0  0  0  0
    9.2003  -15.4367   23.9030 C   0  0  2  0  0  0  0  0  0  0  0  0
    9.7853  -16.3422   22.9474 N   0  0  0  0  0  0  0  0  0  0  0  0
    9.5279  -15.9487   25.2327 C   0  0  0  0  0  0  0  0  0  0  0  0
    9.4306  -17.2377   25.4076 O   0  0  0  0  0  0  0  0  0  0  0  0
    7.4947  -12.8417   24.5909 C   0  0  0  0  0  0  0  0  0  0  0  0
    7.0246  -11.9247   25.5254 C   0  0  0  0  0  0  0  0  0  0  0  0
    9.9428  -15.2519   26.3857 N   0  0  0  0  0  0  0  0  0  0  0  0
    9.9122  -13.7829   26.4577 C   0  0  0  0  0  0  0  0  0  0  0  0
    9.6249  -13.5220   27.9120 C   0  0  0  0  0  0  0  0  0  0  0  0
   10.6473  -14.4904   28.5287 C   0  0  0  0  0  0  0  0  0  0  0  0
   10.4476  -15.7432   27.6225 C   0  0  1  0  0  0  0  0  0  0  0  0
    9.5214  -16.6572   28.3516 C   0  0  0  0  0  0  0  0  0  0  0  0
    9.9469  -17.2057   29.3981 O   0  0  0  0  0  0  0  0  0  0  0  0
    8.2330  -16.9314   27.9497 O   0  0  0  0  0  0  0  0  0  0  0  0
  1  2  1  0
  2  3  2  0
  4  5  1  0
  4  2  1  0
  5  6  1  6
  7  5  1  0
  7  8  2  0
  9 10  1  0
 10 11  2  0
 11 12  1  0
 13 12  2  0
 13 14  1  0
 15 14  1  6
 15 16  1  0
 16  7  1  0
 17 15  1  0
 18 17  2  0
 19 13  1  0
 20 10  1  0
 20 19  2  0
 21 22  1  0
 21 17  1  0
 23 22  1  0
 24 23  1  0
 24 25  1  0
 25 21  1  0
 25 26  1  1
 27 26  2  0
 28 26  1  0
M  END
$$$$
