NYP.pdb
     RDKit          3D

 28 29  0  0  1  0  0  0  0  0999 V2000
    5.2443  -22.4217   19.8523 N   0  0  0  0  0  0  0  0  0  0  0  0
    5.9559  -21.7599   20.8925 C   0  0  0  0  0  0  0  0  0  0  0  0
    6.7755  -22.4330   21.5682 O   0  0  0  0  0  0  0  0  0  0  0  0
    5.6834  -20.3241   21.1089 C   0  0  0  0  0  0  0  0  0  0  0  0
    5.4252  -20.1123   22.5869 C   0  0  2  0  0  0  0  0  0  0  0  0
    4.1089  -20.6714   22.8870 N   0  0  0  0  0  0  0  0  0  0  0  0
    5.4827  -18.6760   22.9608 C   0  0  0  0  0  0  0  0  0  0  0  0
    4.5760  -17.8632   22.7347 O   0  0  0  0  0  0  0  0  0  0  0  0
    7.0863  -11.1441   26.9675 O   0  0  0  0  0  0  0  0  0  0  0  0
    7.0937  -12.4955   26.6114 C   0  0  0  0  0  0  0  0  0  0  0  0
    8.2624  -13.1782   26.3610 C   0  0  0  0  0  0  0  0  0  0  0  0
    8.2163  -14.5110   26.0129 C   0  0  0  0  0  0  0  0  0  0  0  0
    7.0260  -15.2205   25.8981 C   0  0  0  0  0  0  0  0  0  0  0  0
    7.0281  -16.6865   25.5301 C   0  0  0  0  0  0  0  0  0  0  0  0
    6.8365  -16.8341   24.0585 C   0  0  2  0  0  0  0  0  0  0  0  0
    6.6354  -18.1900   23.6155 N   0  0  0  0  0  0  0  0  0  0  0  0
    7.9560  -16.2947   23.2883 C   0  0  0  0  0  0  0  0  0  0  0  0
    9.0620  -16.9862   23.2941 O   0  0  0  0  0  0  0  0  0  0  0  0
    5.8720  -14.5232   26.1519 C   0  0  0  0  0  0  0  0  0  0  0  0
    5.9019  -13.1777   26.5041 C   0  0  0  0  0  0  0  0  0  0  0  0
    8.0315  -15.1149   22.5206 N   0  0  0  0  0  0  0  0  0  0  0  0
    7.0212  -14.0512   22.6310 C   0  0  0  0  0  0  0  0  0  0  0  0
    7.8164  -12.8013   22.3643 C   0  0  0  0  0  0  0  0  0  0  0  0
    8.5791  -13.2725   21.1154 C   0  0  0  0  0  0  0  0  0  0  0  0
    8.9911  -14.7120   21.5497 C   0  0  1  0  0  0  0  0  0  0  0  0
   10.3900  -14.6226   22.0596 C   0  0  0  0  0  0  0  0  0  0  0  0
   10.5701  -14.7537   23.2954 O   0  0  0  0  0  0  0  0  0  0  0  0
   11.4908  -14.4096   21.2596 O   0  0  0  0  0  0  0  0  0  0  0  0
  1  2  1  0
  2  3  2  0
  4  5  1  0
  4  2  1  0
  5  6  1  6
  7  5  1  0
  7  8  2  0
  9 10  1  0
 10 11  2  0
 11 12  1  0
 13 12  2  0
 13 14  1  0
 15 14  1  1
 15 16  1  0
 16  7  1  0
 17 15  1  0
 18 17  2  0
 19 13  1  0
 20 10  1  0
 20 19  2  0
 21 22  1  0
 21 17  1  0
 23 22  1  0
 24 23  1  0
 24 25  1  0
 25 21  1  0
 25 26  1  1
 27 26  2  0
 28 26  1  0
M  END
$$$$
