NYP.pdb
     RDKit          3D

 28 29  0  0  1  0  0  0  0  0999 V2000
   12.8531  -20.4832   21.4687 N   0  0  0  0  0  0  0  0  0  0  0  0
   13.1786  -19.1813   20.9940 C   0  0  0  0  0  0  0  0  0  0  0  0
   13.6815  -19.0801   19.8457 O   0  0  0  0  0  0  0  0  0  0  0  0
   12.9034  -18.0342   21.8833 C   0  0  0  0  0  0  0  0  0  0  0  0
   11.6495  -17.3440   21.3859 C   0  0  2  0  0  0  0  0  0  0  0  0
   11.9560  -16.7653   20.0796 N   0  0  0  0  0  0  0  0  0  0  0  0
   11.1819  -16.2950   22.3277 C   0  0  0  0  0  0  0  0  0  0  0  0
   11.8241  -15.2720   22.6017 O   0  0  0  0  0  0  0  0  0  0  0  0
    5.9576  -11.4791   27.4650 O   0  0  0  0  0  0  0  0  0  0  0  0
    6.4294  -12.3883   26.5142 C   0  0  0  0  0  0  0  0  0  0  0  0
    7.0919  -11.9797   25.3789 C   0  0  0  0  0  0  0  0  0  0  0  0
    7.5376  -12.9162   24.4711 C   0  0  0  0  0  0  0  0  0  0  0  0
    7.3503  -14.2832   24.6433 C   0  0  0  0  0  0  0  0  0  0  0  0
    7.8731  -15.2727   23.6273 C   0  0  0  0  0  0  0  0  0  0  0  0
    9.3235  -15.5206   23.8695 C   0  0  2  0  0  0  0  0  0  0  0  0
    9.9295  -16.4580   22.9588 N   0  0  0  0  0  0  0  0  0  0  0  0
    9.5936  -16.0042   25.2226 C   0  0  0  0  0  0  0  0  0  0  0  0
    9.3242  -17.2573   25.4646 O   0  0  0  0  0  0  0  0  0  0  0  0
    6.6884  -14.6709   25.7808 C   0  0  0  0  0  0  0  0  0  0  0  0
    6.2323  -13.7380   26.7064 C   0  0  0  0  0  0  0  0  0  0  0  0
   10.1123  -15.3127   26.3361 N   0  0  0  0  0  0  0  0  0  0  0  0
   10.2682  -13.8498   26.3374 C   0  0  0  0  0  0  0  0  0  0  0  0
   10.0405  -13.4873   27.7804 C   0  0  0  0  0  0  0  0  0  0  0  0
   10.9430  -14.5477   28.4321 C   0  0  0  0  0  0  0  0  0  0  0  0
   10.5719  -15.8058   27.5896 C   0  0  1  0  0  0  0  0  0  0  0  0
    9.5504  -16.5604   28.3720 C   0  0  0  0  0  0  0  0  0  0  0  0
    8.3779  -16.5915   27.9235 O   0  0  0  0  0  0  0  0  0  0  0  0
    9.8157  -17.2245   29.5491 O   0  0  0  0  0  0  0  0  0  0  0  0
  1  2  1  0
  2  3  2  0
  4  5  1  0
  4  2  1  0
  5  6  1  6
  7  5  1  0
  7  8  2  0
  9 10  1  0
 10 11  2  0
 11 12  1  0
 13 12  2  0
 13 14  1  0
 15 14  1  6
 15 16  1  0
 16  7  1  0
 17 15  1  0
 18 17  2  0
 19 13  1  0
 20 10  1  0
 20 19  2  0
 21 22  1  0
 21 17  1  0
 23 22  1  0
 24 23  1  0
 24 25  1  0
 25 21  1  0
 25 26  1  1
 27 26  2  0
 28 26  1  0
M  END
$$$$
