HLV.pdb
     RDKit          3D

 26 26  0  0  1  0  0  0  0  0999 V2000
   21.3947  -15.4010  -18.0399 N   0  0  0  0  0  0  0  0  0  0  0  0
   21.3522  -14.0433  -18.5111 C   0  0  1  0  0  0  0  0  0  0  0  0
   19.9625  -13.7474  -19.0077 C   0  0  0  0  0  0  0  0  0  0  0  0
   19.6798  -14.6647  -20.1429 C   0  0  0  0  0  0  0  0  0  0  0  0
   18.6532  -15.6152  -20.2311 C   0  0  0  0  0  0  0  0  0  0  0  0
   18.7354  -16.2394  -21.4094 N   0  0  0  0  0  0  0  0  0  0  0  0
   19.7710  -15.7272  -22.0766 C   0  0  0  0  0  0  0  0  0  0  0  0
   20.3401  -14.7762  -21.3096 N   0  0  0  0  0  0  0  0  0  0  0  0
   21.8030  -13.0968  -17.4774 C   0  0  0  0  0  0  0  0  0  0  0  0
   21.3273  -13.0953  -16.3173 O   0  0  0  0  0  0  0  0  0  0  0  0
   24.7809  -10.7066  -14.1846 C   0  0  0  0  0  0  0  0  0  0  0  0
   25.2128  -10.2556  -15.5783 C   0  0  1  0  0  0  0  0  0  0  0  0
   26.7598  -10.3839  -15.5501 C   0  0  0  0  0  0  0  0  0  0  0  0
   24.7355  -11.3067  -16.5378 C   0  0  0  0  0  0  0  0  0  0  0  0
   23.2666  -11.2101  -16.7359 C   0  0  2  0  0  0  0  0  0  0  0  0
   22.8050  -12.1434  -17.7670 N   0  0  0  0  0  0  0  0  0  0  0  0
   22.8426   -9.8373  -17.0662 C   0  0  0  0  0  0  0  0  0  0  0  0
   23.2345   -9.2420  -18.0837 O   0  0  0  0  0  0  0  0  0  0  0  0
   19.6703   -8.4993  -18.1032 C   0  0  0  0  0  0  0  0  0  0  0  0
   19.9702   -7.7647  -16.8075 C   0  0  1  0  0  0  0  0  0  0  0  0
   19.1604   -8.3143  -15.6688 C   0  0  0  0  0  0  0  0  0  0  0  0
   21.4619   -7.7864  -16.5267 C   0  0  2  0  0  0  0  0  0  0  0  0
   21.9405   -9.1040  -16.2167 N   0  0  0  0  0  0  0  0  0  0  0  0
   21.7214   -6.9255  -15.3352 C   0  0  0  0  0  0  0  0  0  0  0  0
   21.6991   -5.5546  -15.3542 O   0  0  0  0  0  0  0  0  0  0  0  0
   21.9784   -7.5016  -14.2369 O   0  0  0  0  0  0  0  0  0  0  0  0
  2  1  1  1
  3  2  1  0
  4  8  1  0
  4  3  1  0
  5  4  2  0
  6  5  1  0
  6  7  1  0
  7  8  2  0
  9 10  2  0
  9  2  1  0
 12 11  1  1
 12 14  1  0
 12 13  1  0
 15 16  1  0
 15 14  1  6
 16  9  1  0
 17 15  1  0
 18 17  2  0
 20 19  1  6
 20 22  1  0
 20 21  1  0
 22 23  1  1
 23 17  1  0
 24 25  1  0
 24 22  1  0
 26 24  2  0
M  END
$$$$
