HLV.pdb
     RDKit          3D

 26 26  0  0  1  0  0  0  0  0999 V2000
   26.3342  -20.2005  -17.6614 N   0  0  0  0  0  0  0  0  0  0  0  0
   26.4814  -19.4018  -16.4750 C   0  0  1  0  0  0  0  0  0  0  0  0
   25.5088  -18.2552  -16.5406 C   0  0  0  0  0  0  0  0  0  0  0  0
   25.9438  -17.3513  -17.6378 C   0  0  0  0  0  0  0  0  0  0  0  0
   27.2548  -16.9671  -17.9520 C   0  0  0  0  0  0  0  0  0  0  0  0
   27.2292  -16.1456  -19.0052 N   0  0  0  0  0  0  0  0  0  0  0  0
   25.9572  -15.9895  -19.3761 C   0  0  0  0  0  0  0  0  0  0  0  0
   25.1824  -16.7187  -18.5487 N   0  0  0  0  0  0  0  0  0  0  0  0
   26.3289  -20.2113  -15.2547 C   0  0  0  0  0  0  0  0  0  0  0  0
   25.3129  -20.9138  -15.0397 O   0  0  0  0  0  0  0  0  0  0  0  0
   30.3211  -20.9398  -11.0347 C   0  0  0  0  0  0  0  0  0  0  0  0
   29.3178  -20.3460  -12.0211 C   0  0  1  0  0  0  0  0  0  0  0  0
   30.1955  -19.8895  -13.2177 C   0  0  0  0  0  0  0  0  0  0  0  0
   28.4923  -21.4892  -12.5359 C   0  0  0  0  0  0  0  0  0  0  0  0
   27.1826  -21.0058  -13.0430 C   0  0  2  0  0  0  0  0  0  0  0  0
   27.3426  -20.2212  -14.2702 N   0  0  0  0  0  0  0  0  0  0  0  0
   26.4528  -20.2218  -12.0299 C   0  0  0  0  0  0  0  0  0  0  0  0
   26.5734  -18.9902  -11.9218 O   0  0  0  0  0  0  0  0  0  0  0  0
   22.9638  -19.4797  -11.6721 C   0  0  0  0  0  0  0  0  0  0  0  0
   23.3042  -20.1822  -10.3687 C   0  0  1  0  0  0  0  0  0  0  0  0
   22.7727  -21.5863  -10.3506 C   0  0  0  0  0  0  0  0  0  0  0  0
   24.7999  -20.1210  -10.1164 C   0  0  2  0  0  0  0  0  0  0  0  0
   25.5503  -20.8496  -11.1001 N   0  0  0  0  0  0  0  0  0  0  0  0
   25.0721  -20.7511   -8.7908 C   0  0  0  0  0  0  0  0  0  0  0  0
   24.7490  -20.1828   -7.5855 O   0  0  0  0  0  0  0  0  0  0  0  0
   25.6383  -21.8841   -8.7822 O   0  0  0  0  0  0  0  0  0  0  0  0
  2  1  1  6
  3  2  1  0
  4  8  1  0
  4  3  1  0
  5  4  2  0
  6  5  1  0
  6  7  1  0
  7  8  2  0
  9 10  2  0
  9  2  1  0
 12 11  1  1
 12 14  1  0
 12 13  1  0
 15 16  1  0
 15 14  1  1
 16  9  1  0
 17 15  1  0
 18 17  2  0
 20 19  1  6
 20 22  1  0
 20 21  1  0
 22 23  1  6
 23 17  1  0
 24 25  1  0
 24 22  1  0
 26 24  2  0
M  END
$$$$
