HLV.pdb
     RDKit          3D

 26 26  0  0  1  0  0  0  0  0999 V2000
   22.2370  -14.2990  -18.4368 N   0  0  0  0  0  0  0  0  0  0  0  0
   22.4516  -12.9766  -18.9586 C   0  0  1  0  0  0  0  0  0  0  0  0
   21.3274  -12.6406  -19.9012 C   0  0  0  0  0  0  0  0  0  0  0  0
   21.4529  -13.5220  -21.0918 C   0  0  0  0  0  0  0  0  0  0  0  0
   22.6245  -14.0987  -21.6017 C   0  0  0  0  0  0  0  0  0  0  0  0
   22.3207  -14.8233  -22.6822 N   0  0  0  0  0  0  0  0  0  0  0  0
   21.0049  -14.7332  -22.8830 C   0  0  0  0  0  0  0  0  0  0  0  0
   20.4826  -13.9467  -21.9212 N   0  0  0  0  0  0  0  0  0  0  0  0
   22.6073  -11.9872  -17.8795 C   0  0  0  0  0  0  0  0  0  0  0  0
   21.8243  -11.9339  -16.9016 O   0  0  0  0  0  0  0  0  0  0  0  0
   27.3966  -10.5098  -15.9463 C   0  0  0  0  0  0  0  0  0  0  0  0
   25.9194  -10.8874  -16.0336 C   0  0  1  0  0  0  0  0  0  0  0  0
   25.4702  -10.9850  -14.5507 C   0  0  0  0  0  0  0  0  0  0  0  0
   25.2030   -9.6947  -16.5973 C   0  0  0  0  0  0  0  0  0  0  0  0
   23.7812  -10.0196  -16.8785 C   0  0  2  0  0  0  0  0  0  0  0  0
   23.6643  -11.0499  -17.9138 N   0  0  0  0  0  0  0  0  0  0  0  0
   23.0064   -8.8249  -17.2604 C   0  0  0  0  0  0  0  0  0  0  0  0
   23.1801   -8.2302  -18.3371 O   0  0  0  0  0  0  0  0  0  0  0  0
   19.6594   -8.4113  -18.2612 C   0  0  0  0  0  0  0  0  0  0  0  0
   19.7403   -7.5348  -17.0228 C   0  0  1  0  0  0  0  0  0  0  0  0
   19.0867   -8.1952  -15.8434 C   0  0  0  0  0  0  0  0  0  0  0  0
   21.1823   -7.1469  -16.7495 C   0  0  2  0  0  0  0  0  0  0  0  0
   21.9944   -8.2767  -16.3952 N   0  0  0  0  0  0  0  0  0  0  0  0
   21.1971   -6.2058  -15.5909 C   0  0  0  0  0  0  0  0  0  0  0  0
   21.6537   -6.5300  -14.3393 O   0  0  0  0  0  0  0  0  0  0  0  0
   20.7589   -5.0325  -15.7794 O   0  0  0  0  0  0  0  0  0  0  0  0
  2  1  1  1
  3  2  1  0
  4  8  1  0
  4  3  1  0
  5  4  2  0
  6  5  1  0
  6  7  1  0
  7  8  2  0
  9 10  2  0
  9  2  1  0
 12 11  1  1
 12 14  1  0
 12 13  1  0
 15 16  1  0
 15 14  1  6
 16  9  1  0
 17 15  1  0
 18 17  2  0
 20 19  1  6
 20 22  1  0
 20 21  1  0
 22 23  1  1
 23 17  1  0
 24 25  1  0
 24 22  1  0
 26 24  2  0
M  END
$$$$
