HLV.pdb
     RDKit          3D

 26 26  0  0  1  0  0  0  0  0999 V2000
   28.2091  -20.3939  -17.3288 N   0  0  0  0  0  0  0  0  0  0  0  0
   28.0620  -19.5056  -16.2080 C   0  0  1  0  0  0  0  0  0  0  0  0
   27.0192  -18.4733  -16.5431 C   0  0  0  0  0  0  0  0  0  0  0  0
   27.6280  -17.5016  -17.4892 C   0  0  0  0  0  0  0  0  0  0  0  0
   28.9485  -17.4877  -17.9594 C   0  0  0  0  0  0  0  0  0  0  0  0
   29.1051  -16.4555  -18.7929 N   0  0  0  0  0  0  0  0  0  0  0  0
   27.9402  -15.8103  -18.8743 C   0  0  0  0  0  0  0  0  0  0  0  0
   27.0494  -16.4439  -18.0859 N   0  0  0  0  0  0  0  0  0  0  0  0
   27.7597  -20.2418  -14.9694 C   0  0  0  0  0  0  0  0  0  0  0  0
   26.8995  -21.1529  -14.9247 O   0  0  0  0  0  0  0  0  0  0  0  0
   31.5268  -20.9110  -11.0255 C   0  0  0  0  0  0  0  0  0  0  0  0
   30.4191  -21.1940  -12.0381 C   0  0  1  0  0  0  0  0  0  0  0  0
   30.1585  -22.7174  -11.8911 C   0  0  0  0  0  0  0  0  0  0  0  0
   29.1817  -20.5186  -11.5220 C   0  0  0  0  0  0  0  0  0  0  0  0
   28.0819  -20.6048  -12.5166 C   0  0  2  0  0  0  0  0  0  0  0  0
   28.4433  -19.9381  -13.7704 N   0  0  0  0  0  0  0  0  0  0  0  0
   26.8189  -20.0530  -11.9932 C   0  0  0  0  0  0  0  0  0  0  0  0
   26.6254  -18.8332  -11.8602 O   0  0  0  0  0  0  0  0  0  0  0  0
   23.4144  -20.1316  -13.2934 C   0  0  0  0  0  0  0  0  0  0  0  0
   23.2987  -20.7866  -11.9274 C   0  0  1  0  0  0  0  0  0  0  0  0
   23.1141  -22.2718  -12.0484 C   0  0  0  0  0  0  0  0  0  0  0  0
   24.4923  -20.4151  -11.0661 C   0  0  2  0  0  0  0  0  0  0  0  0
   25.7288  -20.9090  -11.6033 N   0  0  0  0  0  0  0  0  0  0  0  0
   24.3073  -21.0410   -9.7236 C   0  0  0  0  0  0  0  0  0  0  0  0
   23.3039  -20.7101   -8.8497 O   0  0  0  0  0  0  0  0  0  0  0  0
   25.1322  -21.9355   -9.3720 O   0  0  0  0  0  0  0  0  0  0  0  0
  2  1  1  6
  3  2  1  0
  4  8  1  0
  4  3  1  0
  5  4  2  0
  6  5  1  0
  6  7  1  0
  7  8  2  0
  9 10  2  0
  9  2  1  0
 12 11  1  1
 12 14  1  0
 12 13  1  0
 15 16  1  0
 15 14  1  1
 16  9  1  0
 17 15  1  0
 18 17  2  0
 20 19  1  6
 20 22  1  0
 20 21  1  0
 22 23  1  6
 23 17  1  0
 24 25  1  0
 24 22  1  0
 26 24  2  0
M  END
$$$$
