HLV.pdb
     RDKit          3D

 26 26  0  0  1  0  0  0  0  0999 V2000
   18.3922  -12.6587  -18.2644 N   0  0  0  0  0  0  0  0  0  0  0  0
   18.6394  -11.2609  -18.4926 C   0  0  1  0  0  0  0  0  0  0  0  0
   17.4025  -10.6419  -19.0860 C   0  0  0  0  0  0  0  0  0  0  0  0
   17.2101  -11.2196  -20.4422 C   0  0  0  0  0  0  0  0  0  0  0  0
   16.2800  -12.1961  -20.8251 C   0  0  0  0  0  0  0  0  0  0  0  0
   16.4225  -12.4483  -22.1292 N   0  0  0  0  0  0  0  0  0  0  0  0
   17.4043  -11.6739  -22.5945 C   0  0  0  0  0  0  0  0  0  0  0  0
   17.8786  -10.9326  -21.5737 N   0  0  0  0  0  0  0  0  0  0  0  0
   19.0849  -10.5821  -17.2644 C   0  0  0  0  0  0  0  0  0  0  0  0
   18.3921  -10.5653  -16.2195 O   0  0  0  0  0  0  0  0  0  0  0  0
   21.2853   -9.4664  -13.0036 C   0  0  0  0  0  0  0  0  0  0  0  0
   22.3598   -9.4784  -14.0888 C   0  0  1  0  0  0  0  0  0  0  0  0
   23.4446  -10.4383  -13.5301 C   0  0  0  0  0  0  0  0  0  0  0  0
   21.7661  -10.1824  -15.2742 C   0  0  0  0  0  0  0  0  0  0  0  0
   20.8074   -9.2983  -15.9853 C   0  0  2  0  0  0  0  0  0  0  0  0
   20.3308   -9.9165  -17.2253 N   0  0  0  0  0  0  0  0  0  0  0  0
   21.3845   -7.9714  -16.2678 C   0  0  0  0  0  0  0  0  0  0  0  0
   22.3123   -7.8032  -17.0764 O   0  0  0  0  0  0  0  0  0  0  0  0
   19.9243   -5.0223  -17.8649 C   0  0  0  0  0  0  0  0  0  0  0  0
   20.3154   -4.5599  -16.4715 C   0  0  1  0  0  0  0  0  0  0  0  0
   19.1154   -4.4530  -15.5754 C   0  0  0  0  0  0  0  0  0  0  0  0
   21.3905   -5.4675  -15.9015 C   0  0  2  0  0  0  0  0  0  0  0  0
   20.8974   -6.7848  -15.6135 N   0  0  0  0  0  0  0  0  0  0  0  0
   21.8612   -4.8760  -14.6143 C   0  0  0  0  0  0  0  0  0  0  0  0
   22.7259   -3.8158  -14.5229 O   0  0  0  0  0  0  0  0  0  0  0  0
   21.4321   -5.3888  -13.5386 O   0  0  0  0  0  0  0  0  0  0  0  0
  2  1  1  1
  3  2  1  0
  4  8  1  0
  4  3  1  0
  5  4  2  0
  6  5  1  0
  6  7  1  0
  7  8  2  0
  9 10  2  0
  9  2  1  0
 12 11  1  1
 12 14  1  0
 12 13  1  0
 15 16  1  0
 15 14  1  6
 16  9  1  0
 17 15  1  0
 18 17  2  0
 20 19  1  6
 20 22  1  0
 20 21  1  0
 22 23  1  1
 23 17  1  0
 24 25  1  0
 24 22  1  0
 26 24  2  0
M  END
$$$$
