HLV.pdb
     RDKit          3D

 26 26  0  0  1  0  0  0  0  0999 V2000
   27.6000  -22.5547  -16.5066 N   0  0  0  0  0  0  0  0  0  0  0  0
   26.8459  -21.3336  -16.4209 C   0  0  1  0  0  0  0  0  0  0  0  0
   26.3683  -20.9628  -17.7992 C   0  0  0  0  0  0  0  0  0  0  0  0
   27.5509  -20.5322  -18.5904 C   0  0  0  0  0  0  0  0  0  0  0  0
   28.2220  -19.3039  -18.5142 C   0  0  0  0  0  0  0  0  0  0  0  0
   29.2330  -19.3031  -19.3875 N   0  0  0  0  0  0  0  0  0  0  0  0
   29.2352  -20.4791  -20.0175 C   0  0  0  0  0  0  0  0  0  0  0  0
   28.2183  -21.2200  -19.5344 N   0  0  0  0  0  0  0  0  0  0  0  0
   25.7482  -21.4420  -15.4458 C   0  0  0  0  0  0  0  0  0  0  0  0
   24.8397  -22.2995  -15.5527 O   0  0  0  0  0  0  0  0  0  0  0  0
   26.3177  -20.2107  -10.0182 C   0  0  0  0  0  0  0  0  0  0  0  0
   26.0026  -20.9245  -11.3310 C   0  0  1  0  0  0  0  0  0  0  0  0
   25.2336  -22.1986  -10.8886 C   0  0  0  0  0  0  0  0  0  0  0  0
   24.9981  -20.0740  -12.0529 C   0  0  0  0  0  0  0  0  0  0  0  0
   24.6144  -20.6963  -13.3459 C   0  0  2  0  0  0  0  0  0  0  0  0
   25.6843  -20.5663  -14.3386 N   0  0  0  0  0  0  0  0  0  0  0  0
   23.3576  -20.1375  -13.8768 C   0  0  0  0  0  0  0  0  0  0  0  0
   23.2741  -18.9800  -14.3200 O   0  0  0  0  0  0  0  0  0  0  0  0
   20.2527  -22.6883  -15.1413 C   0  0  0  0  0  0  0  0  0  0  0  0
   20.3382  -21.2254  -15.5423 C   0  0  1  0  0  0  0  0  0  0  0  0
   19.0132  -20.7152  -16.0307 C   0  0  0  0  0  0  0  0  0  0  0  0
   20.8949  -20.4002  -14.3962 C   0  0  2  0  0  0  0  0  0  0  0  0
   22.1449  -20.9129  -13.9103 N   0  0  0  0  0  0  0  0  0  0  0  0
   19.9198  -20.4582  -13.2674 C   0  0  0  0  0  0  0  0  0  0  0  0
   18.7454  -19.7518  -13.2253 O   0  0  0  0  0  0  0  0  0  0  0  0
   20.1981  -21.2097  -12.2866 O   0  0  0  0  0  0  0  0  0  0  0  0
  2  1  1  6
  3  2  1  0
  4  8  1  0
  4  3  1  0
  5  4  2  0
  6  5  1  0
  6  7  1  0
  7  8  2  0
  9 10  2  0
  9  2  1  0
 12 11  1  1
 12 14  1  0
 12 13  1  0
 15 16  1  0
 15 14  1  1
 16  9  1  0
 17 15  1  0
 18 17  2  0
 20 19  1  1
 20 22  1  0
 20 21  1  0
 22 23  1  1
 23 17  1  0
 24 25  1  0
 24 22  1  0
 26 24  2  0
M  END
$$$$
