HLV.pdb
     RDKit          3D

 26 26  0  0  1  0  0  0  0  0999 V2000
   14.8454  -22.8164   -2.0140 N   0  0  0  0  0  0  0  0  0  0  0  0
   14.1707  -22.2945   -0.8565 C   0  0  1  0  0  0  0  0  0  0  0  0
   12.9639  -23.1485   -0.5746 C   0  0  0  0  0  0  0  0  0  0  0  0
   11.9943  -22.9468   -1.6833 C   0  0  0  0  0  0  0  0  0  0  0  0
   11.5113  -23.9143   -2.5754 C   0  0  0  0  0  0  0  0  0  0  0  0
   10.6575  -23.3375   -3.4257 N   0  0  0  0  0  0  0  0  0  0  0  0
   10.5755  -22.0429   -3.1138 C   0  0  0  0  0  0  0  0  0  0  0  0
   11.3839  -21.8091   -2.0610 N   0  0  0  0  0  0  0  0  0  0  0  0
   15.0783  -22.1892    0.2979 C   0  0  0  0  0  0  0  0  0  0  0  0
   15.6901  -23.1806    0.7615 O   0  0  0  0  0  0  0  0  0  0  0  0
   18.9931  -18.5905    0.8561 C   0  0  0  0  0  0  0  0  0  0  0  0
   18.1899  -19.8859    0.9516 C   0  0  1  0  0  0  0  0  0  0  0  0
   19.1592  -20.8761    1.6518 C   0  0  0  0  0  0  0  0  0  0  0  0
   17.0845  -19.6351    1.9359 C   0  0  0  0  0  0  0  0  0  0  0  0
   16.2130  -20.8311    2.0641 C   0  0  2  0  0  0  0  0  0  0  0  0
   15.2918  -20.9436    0.9302 N   0  0  0  0  0  0  0  0  0  0  0  0
   15.4611  -20.8337    3.3322 C   0  0  0  0  0  0  0  0  0  0  0  0
   14.3489  -20.2936    3.4522 O   0  0  0  0  0  0  0  0  0  0  0  0
   16.4273  -23.6134    6.3816 C   0  0  0  0  0  0  0  0  0  0  0  0
   15.0937  -22.8890    6.3092 C   0  0  1  0  0  0  0  0  0  0  0  0
   14.3903  -22.9072    7.6355 C   0  0  0  0  0  0  0  0  0  0  0  0
   15.2906  -21.4828    5.7722 C   0  0  2  0  0  0  0  0  0  0  0  0
   15.9822  -21.4701    4.5141 N   0  0  0  0  0  0  0  0  0  0  0  0
   16.1282  -20.7269    6.7495 C   0  0  0  0  0  0  0  0  0  0  0  0
   17.4892  -20.5895    6.6553 O   0  0  0  0  0  0  0  0  0  0  0  0
   15.5407  -20.1779    7.7282 O   0  0  0  0  0  0  0  0  0  0  0  0
  2  1  1  6
  3  2  1  0
  4  8  1  0
  4  3  1  0
  5  4  2  0
  6  5  1  0
  6  7  1  0
  7  8  2  0
  9 10  2  0
  9  2  1  0
 12 11  1  1
 12 14  1  0
 12 13  1  0
 15 16  1  0
 15 14  1  6
 16  9  1  0
 17 15  1  0
 18 17  2  0
 20 19  1  1
 20 22  1  0
 20 21  1  0
 22 23  1  6
 23 17  1  0
 24 25  1  0
 24 22  1  0
 26 24  2  0
M  END
$$$$
