HLV.pdb
     RDKit          3D

 26 26  0  0  1  0  0  0  0  0999 V2000
   29.5105  -26.1890  -22.4108 N   0  0  0  0  0  0  0  0  0  0  0  0
   28.2300  -25.7175  -21.9578 C   0  0  1  0  0  0  0  0  0  0  0  0
   27.3813  -25.3955  -23.1583 C   0  0  0  0  0  0  0  0  0  0  0  0
   28.0003  -24.2381  -23.8563 C   0  0  0  0  0  0  0  0  0  0  0  0
   27.8386  -22.8788  -23.5541 C   0  0  0  0  0  0  0  0  0  0  0  0
   28.5591  -22.1514  -24.4123 N   0  0  0  0  0  0  0  0  0  0  0  0
   29.1736  -22.9892  -25.2491 C   0  0  0  0  0  0  0  0  0  0  0  0
   28.8346  -24.2492  -24.9115 N   0  0  0  0  0  0  0  0  0  0  0  0
   27.5894  -26.6806  -21.0469 C   0  0  0  0  0  0  0  0  0  0  0  0
   27.4359  -27.8878  -21.3488 O   0  0  0  0  0  0  0  0  0  0  0  0
   29.2080  -28.1067  -18.0354 C   0  0  0  0  0  0  0  0  0  0  0  0
   27.9865  -28.2124  -17.1248 C   0  0  1  0  0  0  0  0  0  0  0  0
   28.5439  -27.8878  -15.7126 C   0  0  0  0  0  0  0  0  0  0  0  0
   27.0851  -27.0655  -17.4792 C   0  0  0  0  0  0  0  0  0  0  0  0
   26.5344  -27.2330  -18.8485 C   0  0  2  0  0  0  0  0  0  0  0  0
   27.1194  -26.2655  -19.7806 N   0  0  0  0  0  0  0  0  0  0  0  0
   25.0636  -27.1331  -18.8687 C   0  0  0  0  0  0  0  0  0  0  0  0
   24.4679  -26.0522  -19.0095 O   0  0  0  0  0  0  0  0  0  0  0  0
   20.7758  -29.2858  -19.8680 C   0  0  0  0  0  0  0  0  0  0  0  0
   22.2846  -29.1364  -19.9660 C   0  0  1  0  0  0  0  0  0  0  0  0
   22.6963  -28.6348  -21.3199 C   0  0  0  0  0  0  0  0  0  0  0  0
   22.7980  -28.2600  -18.8378 C   0  0  2  0  0  0  0  0  0  0  0  0
   24.2288  -28.2973  -18.7246 N   0  0  0  0  0  0  0  0  0  0  0  0
   22.2352  -28.7781  -17.5560 C   0  0  0  0  0  0  0  0  0  0  0  0
   21.1156  -28.2744  -16.9454 O   0  0  0  0  0  0  0  0  0  0  0  0
   22.8329  -29.7458  -16.9988 O   0  0  0  0  0  0  0  0  0  0  0  0
  2  1  1  6
  3  2  1  0
  4  8  1  0
  4  3  1  0
  5  4  2  0
  6  5  1  0
  6  7  1  0
  7  8  2  0
  9 10  2  0
  9  2  1  0
 12 11  1  6
 12 14  1  0
 12 13  1  0
 15 16  1  0
 15 14  1  1
 16  9  1  0
 17 15  1  0
 18 17  2  0
 20 19  1  6
 20 22  1  0
 20 21  1  0
 22 23  1  1
 23 17  1  0
 24 25  1  0
 24 22  1  0
 26 24  2  0
M  END
$$$$
