HLV.pdb
     RDKit          3D

 26 26  0  0  1  0  0  0  0  0999 V2000
   26.6338  -21.5771  -12.7862 N   0  0  0  0  0  0  0  0  0  0  0  0
   25.8120  -20.6350  -12.0761 C   0  0  1  0  0  0  0  0  0  0  0  0
   24.4769  -20.5430  -12.7647 C   0  0  0  0  0  0  0  0  0  0  0  0
   24.6901  -19.8982  -14.0871 C   0  0  0  0  0  0  0  0  0  0  0  0
   25.0346  -20.5261  -15.2922 C   0  0  0  0  0  0  0  0  0  0  0  0
   25.1341  -19.6033  -16.2531 N   0  0  0  0  0  0  0  0  0  0  0  0
   24.8674  -18.4134  -15.7119 C   0  0  0  0  0  0  0  0  0  0  0  0
   24.5996  -18.5939  -14.4035 N   0  0  0  0  0  0  0  0  0  0  0  0
   25.6967  -20.9837  -10.6504 C   0  0  0  0  0  0  0  0  0  0  0  0
   25.3951  -22.1382  -10.2655 O   0  0  0  0  0  0  0  0  0  0  0  0
   28.5447  -18.5818   -6.4633 C   0  0  0  0  0  0  0  0  0  0  0  0
   27.8989  -19.6555   -7.3365 C   0  0  1  0  0  0  0  0  0  0  0  0
   28.0584  -20.9580   -6.5067 C   0  0  0  0  0  0  0  0  0  0  0  0
   26.4263  -19.3649   -7.3571 C   0  0  0  0  0  0  0  0  0  0  0  0
   25.7131  -20.3243   -8.2386 C   0  0  2  0  0  0  0  0  0  0  0  0
   25.9270  -20.0089   -9.6535 N   0  0  0  0  0  0  0  0  0  0  0  0
   24.2699  -20.3793   -7.9425 C   0  0  0  0  0  0  0  0  0  0  0  0
   23.4941  -19.4489   -8.2176 O   0  0  0  0  0  0  0  0  0  0  0  0
   20.1341  -22.8396   -7.1553 C   0  0  0  0  0  0  0  0  0  0  0  0
   21.5897  -22.7929   -7.5883 C   0  0  1  0  0  0  0  0  0  0  0  0
   21.7144  -22.8069   -9.0845 C   0  0  0  0  0  0  0  0  0  0  0  0
   22.2859  -21.6014   -6.9557 C   0  0  2  0  0  0  0  0  0  0  0  0
   23.6751  -21.5283   -7.3108 N   0  0  0  0  0  0  0  0  0  0  0  0
   22.2118  -21.7555   -5.4728 C   0  0  0  0  0  0  0  0  0  0  0  0
   21.1144  -21.4319   -4.7173 O   0  0  0  0  0  0  0  0  0  0  0  0
   23.2304  -22.2154   -4.8768 O   0  0  0  0  0  0  0  0  0  0  0  0
  2  1  1  6
  3  2  1  0
  4  8  1  0
  4  3  1  0
  5  4  2  0
  6  5  1  0
  6  7  1  0
  7  8  2  0
  9 10  2  0
  9  2  1  0
 12 11  1  1
 12 14  1  0
 12 13  1  0
 15 16  1  0
 15 14  1  1
 16  9  1  0
 17 15  1  0
 18 17  2  0
 20 19  1  6
 20 22  1  0
 20 21  1  0
 22 23  1  6
 23 17  1  0
 24 25  1  0
 24 22  1  0
 26 24  2  0
M  END
$$$$
