HLV.pdb
     RDKit          3D

 26 26  0  0  1  0  0  0  0  0999 V2000
   26.7173  -30.0568  -16.7987 N   0  0  0  0  0  0  0  0  0  0  0  0
   25.4297  -29.5605  -17.2026 C   0  0  1  0  0  0  0  0  0  0  0  0
   24.5754  -30.7239  -17.6290 C   0  0  0  0  0  0  0  0  0  0  0  0
   24.9961  -31.1199  -18.9987 C   0  0  0  0  0  0  0  0  0  0  0  0
   25.4915  -32.3657  -19.4079 C   0  0  0  0  0  0  0  0  0  0  0  0
   25.7559  -32.3227  -20.7167 N   0  0  0  0  0  0  0  0  0  0  0  0
   25.4500  -31.1020  -21.1597 C   0  0  0  0  0  0  0  0  0  0  0  0
   24.9913  -30.3771  -20.1203 N   0  0  0  0  0  0  0  0  0  0  0  0
   24.8049  -28.7505  -16.1438 C   0  0  0  0  0  0  0  0  0  0  0  0
   24.8445  -29.0823  -14.9353 O   0  0  0  0  0  0  0  0  0  0  0  0
   25.1664  -23.3842  -16.3800 C   0  0  0  0  0  0  0  0  0  0  0  0
   25.1632  -24.8565  -15.9742 C   0  0  1  0  0  0  0  0  0  0  0  0
   25.7907  -24.8541  -14.5541 C   0  0  0  0  0  0  0  0  0  0  0  0
   23.7264  -25.2468  -15.7826 C   0  0  0  0  0  0  0  0  0  0  0  0
   23.6164  -26.6789  -15.4040 C   0  0  2  0  0  0  0  0  0  0  0  0
   24.1288  -27.5516  -16.4637 N   0  0  0  0  0  0  0  0  0  0  0  0
   22.2329  -27.0550  -15.0603 C   0  0  0  0  0  0  0  0  0  0  0  0
   21.3676  -27.2836  -15.9216 O   0  0  0  0  0  0  0  0  0  0  0  0
   21.0072  -27.0813  -10.9317 C   0  0  0  0  0  0  0  0  0  0  0  0
   20.4270  -28.1110  -11.8864 C   0  0  1  0  0  0  0  0  0  0  0  0
   19.0415  -28.5171  -11.4746 C   0  0  0  0  0  0  0  0  0  0  0  0
   20.4840  -27.5931  -13.3123 C   0  0  2  0  0  0  0  0  0  0  0  0
   21.8056  -27.1790  -13.6909 N   0  0  0  0  0  0  0  0  0  0  0  0
   19.5972  -26.3960  -13.4060 C   0  0  0  0  0  0  0  0  0  0  0  0
   18.2473  -26.4522  -13.6396 O   0  0  0  0  0  0  0  0  0  0  0  0
   20.1292  -25.2560  -13.2596 O   0  0  0  0  0  0  0  0  0  0  0  0
  2  1  1  1
  3  2  1  0
  4  8  1  0
  4  3  1  0
  5  4  2  0
  6  5  1  0
  6  7  1  0
  7  8  2  0
  9 10  2  0
  9  2  1  0
 12 11  1  1
 12 14  1  0
 12 13  1  0
 15 16  1  0
 15 14  1  6
 16  9  1  0
 17 15  1  0
 18 17  2  0
 20 19  1  1
 20 22  1  0
 20 21  1  0
 22 23  1  1
 23 17  1  0
 24 25  1  0
 24 22  1  0
 26 24  2  0
M  END
$$$$
