HLV.pdb
     RDKit          3D

 26 26  0  0  1  0  0  0  0  0999 V2000
   28.1616  -19.4231  -17.0976 N   0  0  0  0  0  0  0  0  0  0  0  0
   28.0163  -18.8042  -15.8081 C   0  0  1  0  0  0  0  0  0  0  0  0
   26.9489  -17.7469  -15.8969 C   0  0  0  0  0  0  0  0  0  0  0  0
   27.5098  -16.5961  -16.6526 C   0  0  0  0  0  0  0  0  0  0  0  0
   28.7962  -16.4845  -17.1983 C   0  0  0  0  0  0  0  0  0  0  0  0
   28.9143  -15.2978  -17.8004 N   0  0  0  0  0  0  0  0  0  0  0  0
   27.7576  -14.6476  -17.6619 C   0  0  0  0  0  0  0  0  0  0  0  0
   26.9106  -15.4337  -16.9682 N   0  0  0  0  0  0  0  0  0  0  0  0
   27.7485  -19.7994  -14.7567 C   0  0  0  0  0  0  0  0  0  0  0  0
   26.9960  -20.7848  -14.9432 O   0  0  0  0  0  0  0  0  0  0  0  0
   31.3047  -20.8466  -10.7572 C   0  0  0  0  0  0  0  0  0  0  0  0
   30.2880  -20.9552  -11.8915 C   0  0  1  0  0  0  0  0  0  0  0  0
   30.2177  -22.4780  -12.1859 C   0  0  0  0  0  0  0  0  0  0  0  0
   28.9530  -20.5921  -11.3089 C   0  0  0  0  0  0  0  0  0  0  0  0
   27.9161  -20.5268  -12.3704 C   0  0  2  0  0  0  0  0  0  0  0  0
   28.3431  -19.6718  -13.4811 N   0  0  0  0  0  0  0  0  0  0  0  0
   26.6167  -20.0682  -11.8462 C   0  0  0  0  0  0  0  0  0  0  0  0
   26.4053  -18.8886  -11.5191 O   0  0  0  0  0  0  0  0  0  0  0  0
   23.2737  -20.3484  -13.5527 C   0  0  0  0  0  0  0  0  0  0  0  0
   23.1096  -21.0145  -12.1971 C   0  0  1  0  0  0  0  0  0  0  0  0
   23.0483  -22.5090  -12.3275 C   0  0  0  0  0  0  0  0  0  0  0  0
   24.2055  -20.5555  -11.2523 C   0  0  2  0  0  0  0  0  0  0  0  0
   25.5095  -20.9742  -11.6833 N   0  0  0  0  0  0  0  0  0  0  0  0
   23.9562  -21.1757   -9.9177 C   0  0  0  0  0  0  0  0  0  0  0  0
   22.8705  -20.8968   -9.1279 O   0  0  0  0  0  0  0  0  0  0  0  0
   24.8041  -22.0137   -9.4898 O   0  0  0  0  0  0  0  0  0  0  0  0
  2  1  1  6
  3  2  1  0
  4  8  1  0
  4  3  1  0
  5  4  2  0
  6  5  1  0
  6  7  1  0
  7  8  2  0
  9 10  2  0
  9  2  1  0
 12 11  1  1
 12 14  1  0
 12 13  1  0
 15 16  1  0
 15 14  1  1
 16  9  1  0
 17 15  1  0
 18 17  2  0
 20 19  1  6
 20 22  1  0
 20 21  1  0
 22 23  1  6
 23 17  1  0
 24 25  1  0
 24 22  1  0
 26 24  2  0
M  END
$$$$
