HLV.pdb
     RDKit          3D

 26 26  0  0  1  0  0  0  0  0999 V2000
   21.9950  -13.9870  -17.6939 N   0  0  0  0  0  0  0  0  0  0  0  0
   21.7764  -12.6626  -18.2089 C   0  0  1  0  0  0  0  0  0  0  0  0
   20.3547  -12.5604  -18.6921 C   0  0  0  0  0  0  0  0  0  0  0  0
   20.1758  -13.5448  -19.7916 C   0  0  0  0  0  0  0  0  0  0  0  0
   19.3500  -14.6775  -19.7911 C   0  0  0  0  0  0  0  0  0  0  0  0
   19.4679  -15.3052  -20.9645 N   0  0  0  0  0  0  0  0  0  0  0  0
   20.3341  -14.6206  -21.7136 C   0  0  0  0  0  0  0  0  0  0  0  0
   20.7605  -13.5576  -21.0031 N   0  0  0  0  0  0  0  0  0  0  0  0
   22.1173  -11.6317  -17.2145 C   0  0  0  0  0  0  0  0  0  0  0  0
   21.5283  -11.5448  -16.1110 O   0  0  0  0  0  0  0  0  0  0  0  0
   27.0925  -10.4172  -15.7936 C   0  0  0  0  0  0  0  0  0  0  0  0
   25.5924  -10.7003  -15.8387 C   0  0  1  0  0  0  0  0  0  0  0  0
   25.1797  -10.7681  -14.3436 C   0  0  0  0  0  0  0  0  0  0  0  0
   24.9377   -9.4648  -16.3851 C   0  0  0  0  0  0  0  0  0  0  0  0
   23.4688   -9.6540  -16.4978 C   0  0  2  0  0  0  0  0  0  0  0  0
   23.1384  -10.6912  -17.4786 N   0  0  0  0  0  0  0  0  0  0  0  0
   22.7738   -8.3977  -16.8328 C   0  0  0  0  0  0  0  0  0  0  0  0
   23.0616   -7.7194  -17.8329 O   0  0  0  0  0  0  0  0  0  0  0  0
   19.6378   -7.6197  -18.1466 C   0  0  0  0  0  0  0  0  0  0  0  0
   19.5974   -6.9183  -16.7995 C   0  0  1  0  0  0  0  0  0  0  0  0
   18.7621   -7.6811  -15.8122 C   0  0  0  0  0  0  0  0  0  0  0  0
   21.0079   -6.6656  -16.2985 C   0  0  2  0  0  0  0  0  0  0  0  0
   21.7112   -7.8833  -16.0085 N   0  0  0  0  0  0  0  0  0  0  0  0
   20.9156   -5.8898  -15.0266 C   0  0  0  0  0  0  0  0  0  0  0  0
   21.2344   -6.3924  -13.7914 O   0  0  0  0  0  0  0  0  0  0  0  0
   20.5166   -4.6897  -15.0962 O   0  0  0  0  0  0  0  0  0  0  0  0
  2  1  1  1
  3  2  1  0
  4  8  1  0
  4  3  1  0
  5  4  2  0
  6  5  1  0
  6  7  1  0
  7  8  2  0
  9 10  2  0
  9  2  1  0
 12 11  1  1
 12 14  1  0
 12 13  1  0
 15 16  1  0
 15 14  1  6
 16  9  1  0
 17 15  1  0
 18 17  2  0
 20 19  1  6
 20 22  1  0
 20 21  1  0
 22 23  1  1
 23 17  1  0
 24 25  1  0
 24 22  1  0
 26 24  2  0
M  END
$$$$
