HLV.pdb
     RDKit          3D

 26 26  0  0  1  0  0  0  0  0999 V2000
   25.4001  -20.1778  -18.0811 N   0  0  0  0  0  0  0  0  0  0  0  0
   25.5830  -19.3365  -16.9297 C   0  0  1  0  0  0  0  0  0  0  0  0
   24.3009  -18.5941  -16.6650 C   0  0  0  0  0  0  0  0  0  0  0  0
   24.0744  -17.6584  -17.7978 C   0  0  0  0  0  0  0  0  0  0  0  0
   25.0226  -16.8367  -18.4230 C   0  0  0  0  0  0  0  0  0  0  0  0
   24.4265  -16.1447  -19.3980 N   0  0  0  0  0  0  0  0  0  0  0  0
   23.1381  -16.4903  -19.4212 C   0  0  0  0  0  0  0  0  0  0  0  0
   22.9276  -17.4047  -18.4537 N   0  0  0  0  0  0  0  0  0  0  0  0
   26.0482  -20.1067  -15.7644 C   0  0  0  0  0  0  0  0  0  0  0  0
   25.3875  -21.0574  -15.2829 O   0  0  0  0  0  0  0  0  0  0  0  0
   29.4111  -21.9816  -12.1141 C   0  0  0  0  0  0  0  0  0  0  0  0
   29.2710  -20.4637  -12.0208 C   0  0  1  0  0  0  0  0  0  0  0  0
   30.7079  -19.9751  -11.6937 C   0  0  0  0  0  0  0  0  0  0  0  0
   28.9811  -19.9722  -13.4092 C   0  0  0  0  0  0  0  0  0  0  0  0
   27.5892  -20.3065  -13.8056 C   0  0  2  0  0  0  0  0  0  0  0  0
   27.2770  -19.7920  -15.1416 N   0  0  0  0  0  0  0  0  0  0  0  0
   26.6024  -19.8132  -12.8275 C   0  0  0  0  0  0  0  0  0  0  0  0
   26.3077  -18.6111  -12.7218 O   0  0  0  0  0  0  0  0  0  0  0  0
   23.3258  -21.9492  -11.8798 C   0  0  0  0  0  0  0  0  0  0  0  0
   23.5169  -20.4977  -11.4735 C   0  0  1  0  0  0  0  0  0  0  0  0
   22.4835  -20.0711  -10.4713 C   0  0  0  0  0  0  0  0  0  0  0  0
   24.9353  -20.2746  -10.9805 C   0  0  2  0  0  0  0  0  0  0  0  0
   25.9192  -20.7095  -11.9314 N   0  0  0  0  0  0  0  0  0  0  0  0
   25.1265  -21.0820   -9.7396 C   0  0  0  0  0  0  0  0  0  0  0  0
   24.6447  -20.7267   -8.5060 O   0  0  0  0  0  0  0  0  0  0  0  0
   25.7763  -22.1649   -9.8357 O   0  0  0  0  0  0  0  0  0  0  0  0
  2  1  1  6
  3  2  1  0
  4  8  1  0
  4  3  1  0
  5  4  2  0
  6  5  1  0
  6  7  1  0
  7  8  2  0
  9 10  2  0
  9  2  1  0
 12 11  1  6
 12 14  1  0
 12 13  1  0
 15 16  1  0
 15 14  1  1
 16  9  1  0
 17 15  1  0
 18 17  2  0
 20 19  1  1
 20 22  1  0
 20 21  1  0
 22 23  1  6
 23 17  1  0
 24 25  1  0
 24 22  1  0
 26 24  2  0
M  END
$$$$
