TSW.pdb
     RDKit          3D

 28 29  0  0  1  0  0  0  0  0999 V2000
   10.1440  -14.4148   16.5515 C   0  0  0  0  0  0  0  0  0  0  0  0
    9.8016  -14.6248   17.9940 C   0  0  1  0  0  0  0  0  0  0  0  0
   10.6363  -13.9302   18.8461 O   0  0  0  0  0  0  0  0  0  0  0  0
    8.3381  -14.2007   18.1754 C   0  0  2  0  0  0  0  0  0  0  0  0
    8.3247  -12.7622   17.9333 N   0  0  0  0  0  0  0  0  0  0  0  0
    7.9080  -14.4739   19.5614 C   0  0  0  0  0  0  0  0  0  0  0  0
    8.3313  -13.7570   20.5071 O   0  0  0  0  0  0  0  0  0  0  0  0
    6.1455  -18.0922   20.5444 O   0  0  0  0  0  0  0  0  0  0  0  0
    5.6653  -17.0240   21.2750 C   0  0  0  0  0  0  0  0  0  0  0  0
    6.7221  -15.9136   21.2051 C   0  0  2  0  0  0  0  0  0  0  0  0
    7.0101  -15.5496   19.8512 N   0  0  0  0  0  0  0  0  0  0  0  0
    7.9459  -16.4892   21.8184 C   0  0  0  0  0  0  0  0  0  0  0  0
    9.0275  -16.3711   21.2070 O   0  0  0  0  0  0  0  0  0  0  0  0
    7.7980  -17.1391   23.0673 N   0  0  0  0  0  0  0  0  0  0  0  0
    8.2421  -16.4592   24.2608 C   0  0  1  0  0  0  0  0  0  0  0  0
    7.5511  -15.1222   24.3364 C   0  0  0  0  0  0  0  0  0  0  0  0
    7.9564  -14.4348   25.5921 C   0  0  0  0  0  0  0  0  0  0  0  0
    8.9686  -14.8127   26.4473 C   0  0  0  0  0  0  0  0  0  0  0  0
    8.9665  -13.9110   27.4387 N   0  0  0  0  0  0  0  0  0  0  0  0
    8.0106  -12.9872   27.2558 C   0  0  0  0  0  0  0  0  0  0  0  0
    7.6157  -11.8750   27.9868 C   0  0  0  0  0  0  0  0  0  0  0  0
    6.5874  -11.0758   27.5766 C   0  0  0  0  0  0  0  0  0  0  0  0
    5.9343  -11.3999   26.3987 C   0  0  0  0  0  0  0  0  0  0  0  0
    6.3014  -12.4927   25.6545 C   0  0  0  0  0  0  0  0  0  0  0  0
    7.3431  -13.2937   26.0794 C   0  0  0  0  0  0  0  0  0  0  0  0
    7.8753  -17.2773   25.4401 C   0  0  0  0  0  0  0  0  0  0  0  0
    6.7098  -18.0614   25.4520 O   0  0  0  0  0  0  0  0  0  0  0  0
    8.5736  -17.3152   26.4793 O   0  0  0  0  0  0  0  0  0  0  0  0
  2  3  1  0
  2  1  1  6
  4  5  1  1
  4  2  1  0
  6  4  1  0
  7  6  2  0
  9  8  1  0
 10  9  1  6
 10 11  1  0
 11  6  1  0
 12 10  1  0
 12 14  1  0
 13 12  2  0
 15 14  1  0
 15 26  1  0
 15 16  1  1
 17 16  1  0
 17 18  2  0
 19 18  1  0
 20 25  2  0
 20 19  1  0
 21 20  1  0
 22 23  1  0
 22 21  2  0
 23 24  2  0
 24 25  1  0
 25 17  1  0
 26 27  1  0
 28 26  2  0
M  END
$$$$
