TSW.pdb
     RDKit          3D

 28 29  0  0  1  0  0  0  0  0999 V2000
    8.9702  -20.9926   21.1781 C   0  0  0  0  0  0  0  0  0  0  0  0
    9.4153  -19.6014   21.5075 C   0  0  1  0  0  0  0  0  0  0  0  0
   10.7866  -19.4536   21.4514 O   0  0  0  0  0  0  0  0  0  0  0  0
    8.7101  -18.6585   20.5236 C   0  0  2  0  0  0  0  0  0  0  0  0
    9.2563  -18.9957   19.2137 N   0  0  0  0  0  0  0  0  0  0  0  0
    9.0402  -17.2572   20.8524 C   0  0  0  0  0  0  0  0  0  0  0  0
   10.0732  -16.7215   20.3692 O   0  0  0  0  0  0  0  0  0  0  0  0
    6.2632  -15.1319   22.7136 O   0  0  0  0  0  0  0  0  0  0  0  0
    7.2256  -14.2906   22.1925 C   0  0  0  0  0  0  0  0  0  0  0  0
    8.5022  -15.1211   22.0050 C   0  0  2  0  0  0  0  0  0  0  0  0
    8.1986  -16.4902   21.7189 N   0  0  0  0  0  0  0  0  0  0  0  0
    9.2186  -15.0492   23.3037 C   0  0  0  0  0  0  0  0  0  0  0  0
    9.7428  -13.9655   23.6328 O   0  0  0  0  0  0  0  0  0  0  0  0
    9.2574  -16.2285   24.0859 N   0  0  0  0  0  0  0  0  0  0  0  0
   10.2343  -16.3280   25.1441 C   0  0  1  0  0  0  0  0  0  0  0  0
    9.7078  -15.5989   26.3532 C   0  0  0  0  0  0  0  0  0  0  0  0
    8.2661  -15.2942   26.1486 C   0  0  0  0  0  0  0  0  0  0  0  0
    7.2615  -16.2017   25.8915 C   0  0  0  0  0  0  0  0  0  0  0  0
    6.1376  -15.4812   25.7752 N   0  0  0  0  0  0  0  0  0  0  0  0
    6.3778  -14.1719   25.9446 C   0  0  0  0  0  0  0  0  0  0  0  0
    5.5631  -13.0481   25.9192 C   0  0  0  0  0  0  0  0  0  0  0  0
    6.0639  -11.7949   26.1261 C   0  0  0  0  0  0  0  0  0  0  0  0
    7.4219  -11.6624   26.3656 C   0  0  0  0  0  0  0  0  0  0  0  0
    8.2526  -12.7539   26.3969 C   0  0  0  0  0  0  0  0  0  0  0  0
    7.7347  -14.0167   26.1862 C   0  0  0  0  0  0  0  0  0  0  0  0
   10.4365  -17.7583   25.4733 C   0  0  0  0  0  0  0  0  0  0  0  0
   11.4294  -18.1665   26.3793 O   0  0  0  0  0  0  0  0  0  0  0  0
    9.7437  -18.6718   24.9690 O   0  0  0  0  0  0  0  0  0  0  0  0
  2  3  1  0
  2  1  1  6
  4  5  1  6
  4  2  1  0
  6  4  1  0
  7  6  2  0
  9  8  1  0
 10  9  1  1
 10 11  1  0
 11  6  1  0
 12 10  1  0
 12 14  1  0
 13 12  2  0
 15 14  1  0
 15 26  1  0
 15 16  1  1
 17 16  1  0
 17 18  2  0
 19 18  1  0
 20 25  2  0
 20 19  1  0
 21 20  1  0
 22 23  1  0
 22 21  2  0
 23 24  2  0
 24 25  1  0
 25 17  1  0
 26 27  1  0
 28 26  2  0
M  END
$$$$
