TSW.pdb
     RDKit          3D

 28 29  0  0  1  0  0  0  0  0999 V2000
    9.3389  -14.6020   16.1071 C   0  0  0  0  0  0  0  0  0  0  0  0
    9.3481  -14.8308   17.5869 C   0  0  1  0  0  0  0  0  0  0  0  0
   10.5199  -14.4111   18.1834 O   0  0  0  0  0  0  0  0  0  0  0  0
    8.1316  -14.0945   18.1635 C   0  0  2  0  0  0  0  0  0  0  0  0
    8.4180  -12.6768   17.9730 N   0  0  0  0  0  0  0  0  0  0  0  0
    8.0101  -14.3861   19.6060 C   0  0  0  0  0  0  0  0  0  0  0  0
    8.4030  -13.5433   20.4562 O   0  0  0  0  0  0  0  0  0  0  0  0
    7.1583  -18.1599   21.1992 O   0  0  0  0  0  0  0  0  0  0  0  0
    6.3741  -17.1257   21.6693 C   0  0  0  0  0  0  0  0  0  0  0  0
    7.1557  -15.8243   21.4451 C   0  0  2  0  0  0  0  0  0  0  0  0
    7.4482  -15.6217   20.0588 N   0  0  0  0  0  0  0  0  0  0  0  0
    8.4318  -15.9934   22.1855 C   0  0  0  0  0  0  0  0  0  0  0  0
    9.4532  -16.3105   21.5423 O   0  0  0  0  0  0  0  0  0  0  0  0
    8.3996  -15.7810   23.5847 N   0  0  0  0  0  0  0  0  0  0  0  0
    9.6340  -15.8651   24.3284 C   0  0  1  0  0  0  0  0  0  0  0  0
    9.6146  -14.8161   25.4101 C   0  0  0  0  0  0  0  0  0  0  0  0
    8.2111  -14.5995   25.8535 C   0  0  0  0  0  0  0  0  0  0  0  0
    7.2504  -15.5682   26.0470 C   0  0  0  0  0  0  0  0  0  0  0  0
    6.1461  -14.9167   26.4368 N   0  0  0  0  0  0  0  0  0  0  0  0
    6.3574  -13.5930   26.4996 C   0  0  0  0  0  0  0  0  0  0  0  0
    5.5466  -12.5194   26.8418 C   0  0  0  0  0  0  0  0  0  0  0  0
    6.0118  -11.2359   26.8249 C   0  0  0  0  0  0  0  0  0  0  0  0
    7.3290  -11.0203   26.4541 C   0  0  0  0  0  0  0  0  0  0  0  0
    8.1549  -12.0607   26.1106 C   0  0  0  0  0  0  0  0  0  0  0  0
    7.6732  -13.3548   26.1314 C   0  0  0  0  0  0  0  0  0  0  0  0
    9.7313  -17.2107   24.9406 C   0  0  0  0  0  0  0  0  0  0  0  0
    8.6701  -18.1278   24.8625 O   0  0  0  0  0  0  0  0  0  0  0  0
   10.7509  -17.6011   25.5546 O   0  0  0  0  0  0  0  0  0  0  0  0
  2  3  1  0
  2  1  1  6
  4  5  1  1
  4  2  1  0
  6  4  1  0
  7  6  2  0
  9  8  1  0
 10  9  1  6
 10 11  1  0
 11  6  1  0
 12 10  1  0
 12 14  1  0
 13 12  2  0
 15 14  1  0
 15 26  1  0
 15 16  1  1
 17 16  1  0
 17 18  2  0
 19 18  1  0
 20 25  2  0
 20 19  1  0
 21 20  1  0
 22 23  1  0
 22 21  2  0
 23 24  2  0
 24 25  1  0
 25 17  1  0
 26 27  1  0
 28 26  2  0
M  END
$$$$
