TSW.pdb
     RDKit          3D

 28 29  0  0  1  0  0  0  0  0999 V2000
    8.3550  -12.3233   19.3574 C   0  0  0  0  0  0  0  0  0  0  0  0
    8.5432  -13.2615   20.5091 C   0  0  1  0  0  0  0  0  0  0  0  0
    7.8248  -12.8847   21.6259 O   0  0  0  0  0  0  0  0  0  0  0  0
    8.1316  -14.6578   20.0239 C   0  0  2  0  0  0  0  0  0  0  0  0
    6.7267  -14.5336   19.6512 N   0  0  0  0  0  0  0  0  0  0  0  0
    8.2675  -15.6293   21.1277 C   0  0  0  0  0  0  0  0  0  0  0  0
    7.2690  -15.9216   21.8384 O   0  0  0  0  0  0  0  0  0  0  0  0
   11.8597  -17.4527   21.7100 O   0  0  0  0  0  0  0  0  0  0  0  0
   10.7987  -18.1927   22.1916 C   0  0  0  0  0  0  0  0  0  0  0  0
    9.6458  -17.2153   22.4565 C   0  0  2  0  0  0  0  0  0  0  0  0
    9.5261  -16.2502   21.4063 N   0  0  0  0  0  0  0  0  0  0  0  0
   10.0002  -16.5131   23.7160 C   0  0  0  0  0  0  0  0  0  0  0  0
   10.7187  -15.4952   23.6456 O   0  0  0  0  0  0  0  0  0  0  0  0
    9.4927  -17.0541   24.9217 N   0  0  0  0  0  0  0  0  0  0  0  0
    9.9401  -16.4961   26.1757 C   0  0  1  0  0  0  0  0  0  0  0  0
    8.7732  -16.4606   27.1285 C   0  0  0  0  0  0  0  0  0  0  0  0
    7.6813  -15.6454   26.5312 C   0  0  0  0  0  0  0  0  0  0  0  0
    6.5883  -16.1162   25.8367 C   0  0  0  0  0  0  0  0  0  0  0  0
    5.8827  -15.0325   25.4853 N   0  0  0  0  0  0  0  0  0  0  0  0
    6.4696  -13.9065   25.9192 C   0  0  0  0  0  0  0  0  0  0  0  0
    6.1375  -12.5629   25.8114 C   0  0  0  0  0  0  0  0  0  0  0  0
    6.9213  -11.5851   26.3536 C   0  0  0  0  0  0  0  0  0  0  0  0
    8.0728  -11.9638   27.0241 C   0  0  0  0  0  0  0  0  0  0  0  0
    8.4276  -13.2836   27.1473 C   0  0  0  0  0  0  0  0  0  0  0  0
    7.6269  -14.2638   26.5948 C   0  0  0  0  0  0  0  0  0  0  0  0
   11.0087  -17.3608   26.7283 C   0  0  0  0  0  0  0  0  0  0  0  0
   11.7275  -16.9909   27.8771 O   0  0  0  0  0  0  0  0  0  0  0  0
   11.3277  -18.4552   26.2091 O   0  0  0  0  0  0  0  0  0  0  0  0
  2  3  1  0
  2  1  1  6
  4  5  1  1
  4  2  1  0
  6  4  1  0
  7  6  2  0
  9  8  1  0
 10  9  1  6
 10 11  1  0
 11  6  1  0
 12 10  1  0
 12 14  1  0
 13 12  2  0
 15 14  1  0
 15 26  1  0
 15 16  1  1
 17 16  1  0
 17 18  2  0
 19 18  1  0
 20 25  2  0
 20 19  1  0
 21 20  1  0
 22 23  1  0
 22 21  2  0
 23 24  2  0
 24 25  1  0
 25 17  1  0
 26 27  1  0
 28 26  2  0
M  END
$$$$
