TSW.pdb
     RDKit          3D

 28 29  0  0  1  0  0  0  0  0999 V2000
    9.0786  -12.5893   20.3612 C   0  0  0  0  0  0  0  0  0  0  0  0
    8.1274  -13.0119   19.2847 C   0  0  1  0  0  0  0  0  0  0  0  0
    8.2692  -12.2719   18.1281 O   0  0  0  0  0  0  0  0  0  0  0  0
    8.3730  -14.5046   19.0277 C   0  0  2  0  0  0  0  0  0  0  0  0
    7.4004  -14.8813   18.0078 N   0  0  0  0  0  0  0  0  0  0  0  0
    8.1178  -15.2717   20.2634 C   0  0  0  0  0  0  0  0  0  0  0  0
    6.9352  -15.4765   20.6469 O   0  0  0  0  0  0  0  0  0  0  0  0
   10.7948  -17.9334   21.3989 O   0  0  0  0  0  0  0  0  0  0  0  0
    9.5016  -18.0828   21.8580 C   0  0  0  0  0  0  0  0  0  0  0  0
    8.9528  -16.6772   22.1364 C   0  0  2  0  0  0  0  0  0  0  0  0
    9.2014  -15.7915   21.0399 N   0  0  0  0  0  0  0  0  0  0  0  0
    9.6946  -16.1884   23.3264 C   0  0  0  0  0  0  0  0  0  0  0  0
   10.7202  -15.5008   23.1447 O   0  0  0  0  0  0  0  0  0  0  0  0
    9.1808  -16.5410   24.5974 N   0  0  0  0  0  0  0  0  0  0  0  0
    9.9330  -16.1791   25.7752 C   0  0  1  0  0  0  0  0  0  0  0  0
    8.9737  -16.0177   26.9261 C   0  0  0  0  0  0  0  0  0  0  0  0
    7.7608  -15.2983   26.4521 C   0  0  0  0  0  0  0  0  0  0  0  0
    6.6136  -15.8664   25.9422 C   0  0  0  0  0  0  0  0  0  0  0  0
    5.7998  -14.8444   25.6439 N   0  0  0  0  0  0  0  0  0  0  0  0
    6.3697  -13.6654   25.9372 C   0  0  0  0  0  0  0  0  0  0  0  0
    5.9426  -12.3502   25.8148 C   0  0  0  0  0  0  0  0  0  0  0  0
    6.7313  -11.3022   26.1941 C   0  0  0  0  0  0  0  0  0  0  0  0
    7.9861  -11.5792   26.7118 C   0  0  0  0  0  0  0  0  0  0  0  0
    8.4363  -12.8684   26.8450 C   0  0  0  0  0  0  0  0  0  0  0  0
    7.6296  -13.9204   26.4580 C   0  0  0  0  0  0  0  0  0  0  0  0
   10.8964  -17.2633   26.0776 C   0  0  0  0  0  0  0  0  0  0  0  0
   10.9747  -18.4156   25.2781 O   0  0  0  0  0  0  0  0  0  0  0  0
   11.6843  -17.2146   27.0501 O   0  0  0  0  0  0  0  0  0  0  0  0
  2  3  1  0
  2  1  1  1
  4  5  1  6
  4  2  1  0
  6  4  1  0
  7  6  2  0
  9  8  1  0
 10  9  1  6
 10 11  1  0
 11  6  1  0
 12 10  1  0
 12 14  1  0
 13 12  2  0
 15 14  1  0
 15 26  1  0
 15 16  1  1
 17 16  1  0
 17 18  2  0
 19 18  1  0
 20 25  2  0
 20 19  1  0
 21 20  1  0
 22 23  1  0
 22 21  2  0
 23 24  2  0
 24 25  1  0
 25 17  1  0
 26 27  1  0
 28 26  2  0
M  END
$$$$
