TSW.pdb
     RDKit          3D

 28 29  0  0  1  0  0  0  0  0999 V2000
    9.8853  -13.8181   16.6957 C   0  0  0  0  0  0  0  0  0  0  0  0
    9.6463  -14.3811   18.0624 C   0  0  1  0  0  0  0  0  0  0  0  0
   10.4992  -13.8551   19.0117 O   0  0  0  0  0  0  0  0  0  0  0  0
    8.1786  -14.1030   18.4133 C   0  0  2  0  0  0  0  0  0  0  0  0
    8.0752  -12.6504   18.4985 N   0  0  0  0  0  0  0  0  0  0  0  0
    7.8578  -14.7005   19.7250 C   0  0  0  0  0  0  0  0  0  0  0  0
    7.8301  -13.9794   20.7579 O   0  0  0  0  0  0  0  0  0  0  0  0
    8.2273  -18.7035   20.3649 O   0  0  0  0  0  0  0  0  0  0  0  0
    7.1213  -18.2006   21.0200 C   0  0  0  0  0  0  0  0  0  0  0  0
    7.3061  -16.6808   21.1233 C   0  0  2  0  0  0  0  0  0  0  0  0
    7.5751  -16.0981   19.8439 N   0  0  0  0  0  0  0  0  0  0  0  0
    8.4882  -16.4818   21.9998 C   0  0  0  0  0  0  0  0  0  0  0  0
    9.5680  -16.1456   21.4720 O   0  0  0  0  0  0  0  0  0  0  0  0
    8.3052  -16.6903   23.3879 N   0  0  0  0  0  0  0  0  0  0  0  0
    9.3982  -16.3969   24.2842 C   0  0  1  0  0  0  0  0  0  0  0  0
    9.2702  -14.9680   24.7452 C   0  0  0  0  0  0  0  0  0  0  0  0
    7.9086  -14.7575   25.3067 C   0  0  0  0  0  0  0  0  0  0  0  0
    6.9025  -15.6946   25.3988 C   0  0  0  0  0  0  0  0  0  0  0  0
    5.8628  -15.0621   25.9600 N   0  0  0  0  0  0  0  0  0  0  0  0
    6.1576  -13.7804   26.2263 C   0  0  0  0  0  0  0  0  0  0  0  0
    5.4335  -12.7395   26.7915 C   0  0  0  0  0  0  0  0  0  0  0  0
    5.9746  -11.4968   26.9566 C   0  0  0  0  0  0  0  0  0  0  0  0
    7.2805  -11.2896   26.5433 C   0  0  0  0  0  0  0  0  0  0  0  0
    8.0214  -12.2985   25.9813 C   0  0  0  0  0  0  0  0  0  0  0  0
    7.4635  -13.5513   25.8194 C   0  0  0  0  0  0  0  0  0  0  0  0
    9.3155  -17.3064   25.4507 C   0  0  0  0  0  0  0  0  0  0  0  0
    8.2682  -18.2332   25.5823 O   0  0  0  0  0  0  0  0  0  0  0  0
   10.1628  -17.3001   26.3733 O   0  0  0  0  0  0  0  0  0  0  0  0
  2  3  1  0
  2  1  1  6
  4  5  1  1
  4  2  1  0
  6  4  1  0
  7  6  2  0
  9  8  1  0
 10  9  1  6
 10 11  1  0
 11  6  1  0
 12 10  1  0
 12 14  1  0
 13 12  2  0
 15 14  1  0
 15 26  1  0
 15 16  1  1
 17 16  1  0
 17 18  2  0
 19 18  1  0
 20 25  2  0
 20 19  1  0
 21 20  1  0
 22 23  1  0
 22 21  2  0
 23 24  2  0
 24 25  1  0
 25 17  1  0
 26 27  1  0
 28 26  2  0
M  END
$$$$
