TSW.pdb
     RDKit          3D

 28 29  0  0  1  0  0  0  0  0999 V2000
    9.7331  -14.3205   16.2805 C   0  0  0  0  0  0  0  0  0  0  0  0
    9.5244  -14.5456   17.7461 C   0  0  1  0  0  0  0  0  0  0  0  0
   10.3546  -13.7679   18.5279 O   0  0  0  0  0  0  0  0  0  0  0  0
    8.0463  -14.2562   18.0397 C   0  0  2  0  0  0  0  0  0  0  0  0
    7.8853  -12.8243   17.8123 N   0  0  0  0  0  0  0  0  0  0  0  0
    7.7477  -14.5704   19.4514 C   0  0  0  0  0  0  0  0  0  0  0  0
    7.8260  -13.6699   20.3292 O   0  0  0  0  0  0  0  0  0  0  0  0
    7.4805  -18.4768   20.7322 O   0  0  0  0  0  0  0  0  0  0  0  0
    6.6026  -17.6366   21.3871 C   0  0  0  0  0  0  0  0  0  0  0  0
    7.1319  -16.2060   21.2195 C   0  0  2  0  0  0  0  0  0  0  0  0
    7.3673  -15.8930   19.8428 N   0  0  0  0  0  0  0  0  0  0  0  0
    8.4255  -16.1720   21.9478 C   0  0  0  0  0  0  0  0  0  0  0  0
    9.4791  -16.3030   21.2919 O   0  0  0  0  0  0  0  0  0  0  0  0
    8.3721  -15.9916   23.3509 N   0  0  0  0  0  0  0  0  0  0  0  0
    9.6060  -16.0035   24.1000 C   0  0  1  0  0  0  0  0  0  0  0  0
    9.6094  -14.8237   25.0375 C   0  0  0  0  0  0  0  0  0  0  0  0
    8.2226  -14.5788   25.5171 C   0  0  0  0  0  0  0  0  0  0  0  0
    7.2203  -15.5150   25.6499 C   0  0  0  0  0  0  0  0  0  0  0  0
    6.1519  -14.8462   26.1051 N   0  0  0  0  0  0  0  0  0  0  0  0
    6.4251  -13.5423   26.2664 C   0  0  0  0  0  0  0  0  0  0  0  0
    5.6688  -12.4628   26.7022 C   0  0  0  0  0  0  0  0  0  0  0  0
    6.1928  -11.2042   26.7771 C   0  0  0  0  0  0  0  0  0  0  0  0
    7.5143  -11.0205   26.4043 C   0  0  0  0  0  0  0  0  0  0  0  0
    8.2871  -12.0676   25.9695 C   0  0  0  0  0  0  0  0  0  0  0  0
    7.7462  -13.3362   25.8979 C   0  0  0  0  0  0  0  0  0  0  0  0
    9.6779  -17.2607   24.8806 C   0  0  0  0  0  0  0  0  0  0  0  0
    8.6084  -18.1712   24.9000 O   0  0  0  0  0  0  0  0  0  0  0  0
   10.6822  -17.5781   25.5586 O   0  0  0  0  0  0  0  0  0  0  0  0
  2  3  1  0
  2  1  1  6
  4  5  1  1
  4  2  1  0
  6  4  1  0
  7  6  2  0
  9  8  1  0
 10  9  1  6
 10 11  1  0
 11  6  1  0
 12 10  1  0
 12 14  1  0
 13 12  2  0
 15 14  1  0
 15 26  1  0
 15 16  1  1
 17 16  1  0
 17 18  2  0
 19 18  1  0
 20 25  2  0
 20 19  1  0
 21 20  1  0
 22 23  1  0
 22 21  2  0
 23 24  2  0
 24 25  1  0
 25 17  1  0
 26 27  1  0
 28 26  2  0
M  END
$$$$
