TSW.pdb
     RDKit          3D

 28 29  0  0  1  0  0  0  0  0999 V2000
    8.2928  -12.3846   19.6178 C   0  0  0  0  0  0  0  0  0  0  0  0
    8.4846  -13.3726   20.7265 C   0  0  1  0  0  0  0  0  0  0  0  0
    7.7571  -13.0541   21.8555 O   0  0  0  0  0  0  0  0  0  0  0  0
    8.0893  -14.7492   20.1759 C   0  0  2  0  0  0  0  0  0  0  0  0
    6.6910  -14.6157   19.7824 N   0  0  0  0  0  0  0  0  0  0  0  0
    8.2097  -15.7653   21.2406 C   0  0  0  0  0  0  0  0  0  0  0  0
    7.2067  -16.0695   21.9398 O   0  0  0  0  0  0  0  0  0  0  0  0
   11.8070  -17.5367   21.8258 O   0  0  0  0  0  0  0  0  0  0  0  0
   10.7803  -18.2935   22.3535 C   0  0  0  0  0  0  0  0  0  0  0  0
    9.5866  -17.3535   22.5683 C   0  0  2  0  0  0  0  0  0  0  0  0
    9.4584  -16.4164   21.4941 N   0  0  0  0  0  0  0  0  0  0  0  0
    9.8839  -16.6116   23.8199 C   0  0  0  0  0  0  0  0  0  0  0  0
   10.4714  -15.5140   23.7334 O   0  0  0  0  0  0  0  0  0  0  0  0
    9.4758  -17.2086   25.0368 N   0  0  0  0  0  0  0  0  0  0  0  0
    9.9049  -16.6138   26.2802 C   0  0  1  0  0  0  0  0  0  0  0  0
    8.7087  -16.4831   27.1874 C   0  0  0  0  0  0  0  0  0  0  0  0
    7.6607  -15.6821   26.4991 C   0  0  0  0  0  0  0  0  0  0  0  0
    6.6469  -16.1658   25.7009 C   0  0  0  0  0  0  0  0  0  0  0  0
    5.9551  -15.0918   25.2962 N   0  0  0  0  0  0  0  0  0  0  0  0
    6.4758  -13.9599   25.7944 C   0  0  0  0  0  0  0  0  0  0  0  0
    6.1278  -12.6218   25.6698 C   0  0  0  0  0  0  0  0  0  0  0  0
    6.8375  -11.6356   26.2926 C   0  0  0  0  0  0  0  0  0  0  0  0
    7.9290  -11.9999   27.0638 C   0  0  0  0  0  0  0  0  0  0  0  0
    8.2978  -13.3138   27.2061 C   0  0  0  0  0  0  0  0  0  0  0  0
    7.5723  -14.3027   26.5714 C   0  0  0  0  0  0  0  0  0  0  0  0
   10.9131  -17.4985   26.9092 C   0  0  0  0  0  0  0  0  0  0  0  0
   11.5635  -17.1349   28.1001 O   0  0  0  0  0  0  0  0  0  0  0  0
   11.2387  -18.6052   26.4211 O   0  0  0  0  0  0  0  0  0  0  0  0
  2  3  1  0
  2  1  1  6
  4  5  1  1
  4  2  1  0
  6  4  1  0
  7  6  2  0
  9  8  1  0
 10  9  1  6
 10 11  1  0
 11  6  1  0
 12 10  1  0
 12 14  1  0
 13 12  2  0
 15 14  1  0
 15 26  1  0
 15 16  1  1
 17 16  1  0
 17 18  2  0
 19 18  1  0
 20 25  2  0
 20 19  1  0
 21 20  1  0
 22 23  1  0
 22 21  2  0
 23 24  2  0
 24 25  1  0
 25 17  1  0
 26 27  1  0
 28 26  2  0
M  END
$$$$
