TSW.pdb
     RDKit          3D

 28 29  0  0  1  0  0  0  0  0999 V2000
    8.3365  -12.3873   18.1747 C   0  0  0  0  0  0  0  0  0  0  0  0
    8.6729  -13.3406   19.2793 C   0  0  1  0  0  0  0  0  0  0  0  0
    7.6288  -13.5204   20.1641 O   0  0  0  0  0  0  0  0  0  0  0  0
    9.0834  -14.6647   18.6215 C   0  0  2  0  0  0  0  0  0  0  0  0
    7.8913  -15.1279   17.9196 N   0  0  0  0  0  0  0  0  0  0  0  0
    9.4574  -15.6434   19.6621 C   0  0  0  0  0  0  0  0  0  0  0  0
    8.5744  -16.3669   20.1955 O   0  0  0  0  0  0  0  0  0  0  0  0
   13.3281  -15.7260   21.0861 O   0  0  0  0  0  0  0  0  0  0  0  0
   12.6579  -16.9238   21.2326 C   0  0  0  0  0  0  0  0  0  0  0  0
   11.1559  -16.6117   21.1978 C   0  0  2  0  0  0  0  0  0  0  0  0
   10.8189  -15.7854   20.0788 N   0  0  0  0  0  0  0  0  0  0  0  0
   10.8755  -15.8632   22.4493 C   0  0  0  0  0  0  0  0  0  0  0  0
   10.9160  -14.6163   22.4164 O   0  0  0  0  0  0  0  0  0  0  0  0
   10.5789  -16.6253   23.6048 N   0  0  0  0  0  0  0  0  0  0  0  0
    9.7365  -16.0439   24.6228 C   0  0  1  0  0  0  0  0  0  0  0  0
    8.3616  -15.8314   24.0438 C   0  0  0  0  0  0  0  0  0  0  0  0
    7.4896  -15.2080   25.0755 C   0  0  0  0  0  0  0  0  0  0  0  0
    6.5538  -15.8484   25.8583 C   0  0  0  0  0  0  0  0  0  0  0  0
    6.0105  -14.8981   26.6314 N   0  0  0  0  0  0  0  0  0  0  0  0
    6.5514  -13.6962   26.3796 C   0  0  0  0  0  0  0  0  0  0  0  0
    6.3318  -12.4298   26.9042 C   0  0  0  0  0  0  0  0  0  0  0  0
    7.0305  -11.3415   26.4663 C   0  0  0  0  0  0  0  0  0  0  0  0
    7.9780  -11.5264   25.4728 C   0  0  0  0  0  0  0  0  0  0  0  0
    8.2176  -12.7657   24.9347 C   0  0  0  0  0  0  0  0  0  0  0  0
    7.5048  -13.8591   25.3856 C   0  0  0  0  0  0  0  0  0  0  0  0
    9.6559  -16.9809   25.7675 C   0  0  0  0  0  0  0  0  0  0  0  0
   10.0173  -18.3317   25.6334 O   0  0  0  0  0  0  0  0  0  0  0  0
    9.2658  -16.6267   26.9039 O   0  0  0  0  0  0  0  0  0  0  0  0
  2  3  1  0
  2  1  1  6
  4  5  1  1
  4  2  1  0
  6  4  1  0
  7  6  2  0
  9  8  1  0
 10  9  1  6
 10 11  1  0
 11  6  1  0
 12 10  1  0
 12 14  1  0
 13 12  2  0
 15 14  1  0
 15 26  1  0
 15 16  1  6
 17 16  1  0
 17 18  2  0
 19 18  1  0
 20 25  2  0
 20 19  1  0
 21 20  1  0
 22 23  1  0
 22 21  2  0
 23 24  2  0
 24 25  1  0
 25 17  1  0
 26 27  1  0
 28 26  2  0
M  END
$$$$
