TSW.pdb
     RDKit          3D

 28 29  0  0  1  0  0  0  0  0999 V2000
    9.5889  -14.4671   16.1533 C   0  0  0  0  0  0  0  0  0  0  0  0
    9.5488  -14.5979   17.6445 C   0  0  1  0  0  0  0  0  0  0  0  0
   10.5864  -13.9324   18.2656 O   0  0  0  0  0  0  0  0  0  0  0  0
    8.1860  -14.0651   18.1064 C   0  0  2  0  0  0  0  0  0  0  0  0
    8.2166  -12.6358   17.8157 N   0  0  0  0  0  0  0  0  0  0  0  0
    8.0369  -14.2719   19.5609 C   0  0  0  0  0  0  0  0  0  0  0  0
    8.2581  -13.3231   20.3598 O   0  0  0  0  0  0  0  0  0  0  0  0
    7.1347  -18.0215   21.1883 O   0  0  0  0  0  0  0  0  0  0  0  0
    6.4730  -16.9368   21.7276 C   0  0  0  0  0  0  0  0  0  0  0  0
    7.3456  -15.7002   21.4748 C   0  0  2  0  0  0  0  0  0  0  0  0
    7.6414  -15.5440   20.0831 N   0  0  0  0  0  0  0  0  0  0  0  0
    8.6117  -15.9489   22.2099 C   0  0  0  0  0  0  0  0  0  0  0  0
    9.6198  -16.2880   21.5571 O   0  0  0  0  0  0  0  0  0  0  0  0
    8.5857  -15.7823   23.6154 N   0  0  0  0  0  0  0  0  0  0  0  0
    9.7975  -16.0146   24.3648 C   0  0  1  0  0  0  0  0  0  0  0  0
    9.7657  -15.1597   25.6053 C   0  0  0  0  0  0  0  0  0  0  0  0
    8.3504  -14.9275   26.0006 C   0  0  0  0  0  0  0  0  0  0  0  0
    7.3804  -15.8878   26.1895 C   0  0  0  0  0  0  0  0  0  0  0  0
    6.2676  -15.2230   26.5292 N   0  0  0  0  0  0  0  0  0  0  0  0
    6.4822  -13.8988   26.5649 C   0  0  0  0  0  0  0  0  0  0  0  0
    5.6657  -12.8143   26.8552 C   0  0  0  0  0  0  0  0  0  0  0  0
    6.1364  -11.5331   26.8199 C   0  0  0  0  0  0  0  0  0  0  0  0
    7.4649  -11.3313   26.4836 C   0  0  0  0  0  0  0  0  0  0  0  0
    8.2966  -12.3828   26.1916 C   0  0  0  0  0  0  0  0  0  0  0  0
    7.8093  -13.6744   26.2306 C   0  0  0  0  0  0  0  0  0  0  0  0
    9.8554  -17.4450   24.7465 C   0  0  0  0  0  0  0  0  0  0  0  0
   11.0253  -18.0132   25.2772 O   0  0  0  0  0  0  0  0  0  0  0  0
    8.8781  -18.2180   24.6187 O   0  0  0  0  0  0  0  0  0  0  0  0
  2  3  1  0
  2  1  1  6
  4  5  1  1
  4  2  1  0
  6  4  1  0
  7  6  2  0
  9  8  1  0
 10  9  1  6
 10 11  1  0
 11  6  1  0
 12 10  1  0
 12 14  1  0
 13 12  2  0
 15 14  1  0
 15 26  1  0
 15 16  1  1
 17 16  1  0
 17 18  2  0
 19 18  1  0
 20 25  2  0
 20 19  1  0
 21 20  1  0
 22 23  1  0
 22 21  2  0
 23 24  2  0
 24 25  1  0
 25 17  1  0
 26 27  1  0
 28 26  2  0
M  END
$$$$
