TSW.pdb
     RDKit          3D

 28 29  0  0  1  0  0  0  0  0999 V2000
    8.7433  -12.4474   19.0728 C   0  0  0  0  0  0  0  0  0  0  0  0
    8.8608  -13.3997   20.2223 C   0  0  1  0  0  0  0  0  0  0  0  0
    8.2382  -12.9361   21.3637 O   0  0  0  0  0  0  0  0  0  0  0  0
    8.2632  -14.7361   19.7623 C   0  0  2  0  0  0  0  0  0  0  0  0
    6.8770  -14.4367   19.4203 N   0  0  0  0  0  0  0  0  0  0  0  0
    8.3006  -15.7077   20.8737 C   0  0  0  0  0  0  0  0  0  0  0  0
    7.2921  -15.8607   21.6133 O   0  0  0  0  0  0  0  0  0  0  0  0
   11.7404  -17.7706   21.5822 O   0  0  0  0  0  0  0  0  0  0  0  0
   10.6223  -18.4816   21.9691 C   0  0  0  0  0  0  0  0  0  0  0  0
    9.4859  -17.4696   22.1667 C   0  0  2  0  0  0  0  0  0  0  0  0
    9.4743  -16.4860   21.1270 N   0  0  0  0  0  0  0  0  0  0  0  0
    9.7710  -16.7980   23.4601 C   0  0  0  0  0  0  0  0  0  0  0  0
   10.3245  -15.6797   23.4384 O   0  0  0  0  0  0  0  0  0  0  0  0
    9.3908  -17.4813   24.6401 N   0  0  0  0  0  0  0  0  0  0  0  0
    9.6568  -16.8628   25.9171 C   0  0  1  0  0  0  0  0  0  0  0  0
    8.3797  -16.8447   26.7167 C   0  0  0  0  0  0  0  0  0  0  0  0
    7.4389  -15.8648   26.1099 C   0  0  0  0  0  0  0  0  0  0  0  0
    6.3665  -16.1506   25.2932 C   0  0  0  0  0  0  0  0  0  0  0  0
    5.8157  -14.9686   24.9843 N   0  0  0  0  0  0  0  0  0  0  0  0
    6.4806  -13.9553   25.5604 C   0  0  0  0  0  0  0  0  0  0  0  0
    6.3064  -12.5781   25.5457 C   0  0  0  0  0  0  0  0  0  0  0  0
    7.1407  -11.7428   26.2315 C   0  0  0  0  0  0  0  0  0  0  0  0
    8.1813  -12.3031   26.9542 C   0  0  0  0  0  0  0  0  0  0  0  0
    8.3792  -13.6604   26.9881 C   0  0  0  0  0  0  0  0  0  0  0  0
    7.5288  -14.4955   26.2904 C   0  0  0  0  0  0  0  0  0  0  0  0
   10.6801  -17.6622   26.6302 C   0  0  0  0  0  0  0  0  0  0  0  0
   11.1916  -17.2536   27.8731 O   0  0  0  0  0  0  0  0  0  0  0  0
   11.1413  -18.7327   26.1714 O   0  0  0  0  0  0  0  0  0  0  0  0
  2  3  1  0
  2  1  1  6
  4  5  1  1
  4  2  1  0
  6  4  1  0
  7  6  2  0
  9  8  1  0
 10  9  1  6
 10 11  1  0
 11  6  1  0
 12 10  1  0
 12 14  1  0
 13 12  2  0
 15 14  1  0
 15 26  1  0
 15 16  1  1
 17 16  1  0
 17 18  2  0
 19 18  1  0
 20 25  2  0
 20 19  1  0
 21 20  1  0
 22 23  1  0
 22 21  2  0
 23 24  2  0
 24 25  1  0
 25 17  1  0
 26 27  1  0
 28 26  2  0
M  END
$$$$
