TSW.pdb
     RDKit          3D

 28 29  0  0  1  0  0  0  0  0999 V2000
    9.9210  -14.3659   16.2928 C   0  0  0  0  0  0  0  0  0  0  0  0
    9.5773  -14.5355   17.7404 C   0  0  1  0  0  0  0  0  0  0  0  0
   10.2682  -13.6636   18.5575 O   0  0  0  0  0  0  0  0  0  0  0  0
    8.0608  -14.3400   17.8686 C   0  0  2  0  0  0  0  0  0  0  0  0
    7.8208  -12.9535   17.4836 N   0  0  0  0  0  0  0  0  0  0  0  0
    7.6490  -14.5429   19.2722 C   0  0  0  0  0  0  0  0  0  0  0  0
    7.6598  -13.5759   20.0798 O   0  0  0  0  0  0  0  0  0  0  0  0
    7.2566  -18.3627   20.7297 O   0  0  0  0  0  0  0  0  0  0  0  0
    6.4242  -17.4676   21.3711 C   0  0  0  0  0  0  0  0  0  0  0  0
    6.9918  -16.0631   21.1263 C   0  0  2  0  0  0  0  0  0  0  0  0
    7.2338  -15.8317   19.7347 N   0  0  0  0  0  0  0  0  0  0  0  0
    8.2868  -16.0247   21.8520 C   0  0  0  0  0  0  0  0  0  0  0  0
    9.3414  -16.0555   21.1853 O   0  0  0  0  0  0  0  0  0  0  0  0
    8.2335  -15.9555   23.2649 N   0  0  0  0  0  0  0  0  0  0  0  0
    9.4653  -16.0496   24.0117 C   0  0  1  0  0  0  0  0  0  0  0  0
    9.4955  -14.9382   25.0289 C   0  0  0  0  0  0  0  0  0  0  0  0
    8.1134  -14.6901   25.5205 C   0  0  0  0  0  0  0  0  0  0  0  0
    7.1277  -15.6330   25.7158 C   0  0  0  0  0  0  0  0  0  0  0  0
    6.0572  -14.9582   26.1569 N   0  0  0  0  0  0  0  0  0  0  0  0
    6.3133  -13.6443   26.2503 C   0  0  0  0  0  0  0  0  0  0  0  0
    5.5483  -12.5559   26.6468 C   0  0  0  0  0  0  0  0  0  0  0  0
    6.0545  -11.2878   26.6518 C   0  0  0  0  0  0  0  0  0  0  0  0
    7.3665  -11.1035   26.2475 C   0  0  0  0  0  0  0  0  0  0  0  0
    8.1476  -12.1593   25.8501 C   0  0  0  0  0  0  0  0  0  0  0  0
    7.6248  -13.4375   25.8493 C   0  0  0  0  0  0  0  0  0  0  0  0
    9.5050  -17.3593   24.7030 C   0  0  0  0  0  0  0  0  0  0  0  0
   10.6866  -17.8398   25.2914 O   0  0  0  0  0  0  0  0  0  0  0  0
    8.5012  -18.1023   24.8002 O   0  0  0  0  0  0  0  0  0  0  0  0
  2  3  1  0
  2  1  1  6
  4  5  1  1
  4  2  1  0
  6  4  1  0
  7  6  2  0
  9  8  1  0
 10  9  1  6
 10 11  1  0
 11  6  1  0
 12 10  1  0
 12 14  1  0
 13 12  2  0
 15 14  1  0
 15 26  1  0
 15 16  1  1
 17 16  1  0
 17 18  2  0
 19 18  1  0
 20 25  2  0
 20 19  1  0
 21 20  1  0
 22 23  1  0
 22 21  2  0
 23 24  2  0
 24 25  1  0
 25 17  1  0
 26 27  1  0
 28 26  2  0
M  END
$$$$
