TSW.pdb
     RDKit          3D

 28 29  0  0  1  0  0  0  0  0999 V2000
   10.8446  -14.9357   18.8327 C   0  0  0  0  0  0  0  0  0  0  0  0
   10.0136  -13.7854   18.3546 C   0  0  1  0  0  0  0  0  0  0  0  0
   10.4018  -13.3283   17.1114 O   0  0  0  0  0  0  0  0  0  0  0  0
    8.5537  -14.2578   18.3464 C   0  0  2  0  0  0  0  0  0  0  0  0
    7.7785  -13.0947   17.9290 N   0  0  0  0  0  0  0  0  0  0  0  0
    8.1516  -14.6581   19.7098 C   0  0  0  0  0  0  0  0  0  0  0  0
    8.1455  -13.8096   20.6413 O   0  0  0  0  0  0  0  0  0  0  0  0
    7.8754  -18.6146   20.7262 O   0  0  0  0  0  0  0  0  0  0  0  0
    6.9195  -17.8523   21.3670 C   0  0  0  0  0  0  0  0  0  0  0  0
    7.3948  -16.3940   21.3206 C   0  0  2  0  0  0  0  0  0  0  0  0
    7.7651  -16.0062   19.9935 N   0  0  0  0  0  0  0  0  0  0  0  0
    8.5973  -16.3391   22.1902 C   0  0  0  0  0  0  0  0  0  0  0  0
    9.7218  -16.3542   21.6491 O   0  0  0  0  0  0  0  0  0  0  0  0
    8.3811  -16.2730   23.5876 N   0  0  0  0  0  0  0  0  0  0  0  0
    9.5247  -16.1776   24.4635 C   0  0  1  0  0  0  0  0  0  0  0  0
    9.4429  -14.8764   25.2191 C   0  0  0  0  0  0  0  0  0  0  0  0
    8.0537  -14.6891   25.7175 C   0  0  0  0  0  0  0  0  0  0  0  0
    7.0787  -15.6573   25.8203 C   0  0  0  0  0  0  0  0  0  0  0  0
    5.9959  -15.0368   26.3087 N   0  0  0  0  0  0  0  0  0  0  0  0
    6.2343  -13.7331   26.5191 C   0  0  0  0  0  0  0  0  0  0  0  0
    5.4521  -12.6929   27.0021 C   0  0  0  0  0  0  0  0  0  0  0  0
    5.9419  -11.4241   27.1228 C   0  0  0  0  0  0  0  0  0  0  0  0
    7.2547  -11.1893   26.7484 C   0  0  0  0  0  0  0  0  0  0  0  0
    8.0526  -12.1967   26.2676 C   0  0  0  0  0  0  0  0  0  0  0  0
    7.5463  -13.4761   26.1500 C   0  0  0  0  0  0  0  0  0  0  0  0
    9.4907  -17.3109   25.4172 C   0  0  0  0  0  0  0  0  0  0  0  0
   10.5635  -17.5664   26.2873 O   0  0  0  0  0  0  0  0  0  0  0  0
    8.5173  -18.0948   25.5001 O   0  0  0  0  0  0  0  0  0  0  0  0
  2  3  1  0
  2  1  1  6
  4  5  1  1
  4  2  1  0
  6  4  1  0
  7  6  2  0
  9  8  1  0
 10  9  1  6
 10 11  1  0
 11  6  1  0
 12 10  1  0
 12 14  1  0
 13 12  2  0
 15 14  1  0
 15 26  1  0
 15 16  1  1
 17 16  1  0
 17 18  2  0
 19 18  1  0
 20 25  2  0
 20 19  1  0
 21 20  1  0
 22 23  1  0
 22 21  2  0
 23 24  2  0
 24 25  1  0
 25 17  1  0
 26 27  1  0
 28 26  2  0
M  END
$$$$
