TSW.pdb
     RDKit          3D

 28 29  0  0  1  0  0  0  0  0999 V2000
    8.3312  -12.4380   19.1422 C   0  0  0  0  0  0  0  0  0  0  0  0
    8.5384  -13.2806   20.3625 C   0  0  1  0  0  0  0  0  0  0  0  0
    7.8619  -12.7974   21.4644 O   0  0  0  0  0  0  0  0  0  0  0  0
    8.0871  -14.7038   20.0085 C   0  0  2  0  0  0  0  0  0  0  0  0
    6.6736  -14.5826   19.6686 N   0  0  0  0  0  0  0  0  0  0  0  0
    8.2403  -15.5825   21.1853 C   0  0  0  0  0  0  0  0  0  0  0  0
    7.2521  -15.8181   21.9307 O   0  0  0  0  0  0  0  0  0  0  0  0
   11.8421  -17.3942   21.8521 O   0  0  0  0  0  0  0  0  0  0  0  0
   10.7608  -18.1144   22.3185 C   0  0  0  0  0  0  0  0  0  0  0  0
    9.6235  -17.1155   22.5701 C   0  0  2  0  0  0  0  0  0  0  0  0
    9.5042  -16.1768   21.4963 N   0  0  0  0  0  0  0  0  0  0  0  0
   10.0011  -16.3852   23.8068 C   0  0  0  0  0  0  0  0  0  0  0  0
   10.6728  -15.3392   23.6962 O   0  0  0  0  0  0  0  0  0  0  0  0
    9.5681  -16.9332   25.0381 N   0  0  0  0  0  0  0  0  0  0  0  0
    9.9823  -16.2964   26.2656 C   0  0  1  0  0  0  0  0  0  0  0  0
    8.8267  -16.3208   27.2324 C   0  0  0  0  0  0  0  0  0  0  0  0
    7.6819  -15.5764   26.6419 C   0  0  0  0  0  0  0  0  0  0  0  0
    6.6008  -16.1182   25.9812 C   0  0  0  0  0  0  0  0  0  0  0  0
    5.8327  -15.0804   25.6225 N   0  0  0  0  0  0  0  0  0  0  0  0
    6.3689  -13.9163   26.0201 C   0  0  0  0  0  0  0  0  0  0  0  0
    5.9651  -12.5943   25.8915 C   0  0  0  0  0  0  0  0  0  0  0  0
    6.7078  -11.5657   26.3961 C   0  0  0  0  0  0  0  0  0  0  0  0
    7.8909  -11.8696   27.0494 C   0  0  0  0  0  0  0  0  0  0  0  0
    8.3164  -13.1662   27.1924 C   0  0  0  0  0  0  0  0  0  0  0  0
    7.5568  -14.1984   26.6779 C   0  0  0  0  0  0  0  0  0  0  0  0
   11.1233  -17.0519   26.8333 C   0  0  0  0  0  0  0  0  0  0  0  0
   11.7970  -16.6048   27.9820 O   0  0  0  0  0  0  0  0  0  0  0  0
   11.5463  -18.1171   26.3279 O   0  0  0  0  0  0  0  0  0  0  0  0
  2  3  1  0
  2  1  1  6
  4  5  1  1
  4  2  1  0
  6  4  1  0
  7  6  2  0
  9  8  1  0
 10  9  1  6
 10 11  1  0
 11  6  1  0
 12 10  1  0
 12 14  1  0
 13 12  2  0
 15 14  1  0
 15 26  1  0
 15 16  1  1
 17 16  1  0
 17 18  2  0
 19 18  1  0
 20 25  2  0
 20 19  1  0
 21 20  1  0
 22 23  1  0
 22 21  2  0
 23 24  2  0
 24 25  1  0
 25 17  1  0
 26 27  1  0
 28 26  2  0
M  END
$$$$
