TSW.pdb
     RDKit          3D

 28 29  0  0  1  0  0  0  0  0999 V2000
    8.7031  -12.4396   19.7909 C   0  0  0  0  0  0  0  0  0  0  0  0
    9.2016  -13.3165   18.6843 C   0  0  1  0  0  0  0  0  0  0  0  0
   10.4976  -13.7458   18.8877 O   0  0  0  0  0  0  0  0  0  0  0  0
    8.2307  -14.4997   18.5757 C   0  0  2  0  0  0  0  0  0  0  0  0
    6.9339  -13.9030   18.2752 N   0  0  0  0  0  0  0  0  0  0  0  0
    8.1621  -15.2087   19.8693 C   0  0  0  0  0  0  0  0  0  0  0  0
    7.5267  -14.7041   20.8332 O   0  0  0  0  0  0  0  0  0  0  0  0
   10.5660  -18.4879   20.7446 O   0  0  0  0  0  0  0  0  0  0  0  0
    9.2572  -18.6063   21.1668 C   0  0  0  0  0  0  0  0  0  0  0  0
    8.6862  -17.1866   21.2813 C   0  0  2  0  0  0  0  0  0  0  0  0
    8.8114  -16.4711   20.0481 N   0  0  0  0  0  0  0  0  0  0  0  0
    9.5083  -16.5087   22.3156 C   0  0  0  0  0  0  0  0  0  0  0  0
   10.3281  -15.6426   21.9478 O   0  0  0  0  0  0  0  0  0  0  0  0
    9.3024  -16.8973   23.6611 N   0  0  0  0  0  0  0  0  0  0  0  0
   10.0613  -16.2392   24.6979 C   0  0  1  0  0  0  0  0  0  0  0  0
    9.6365  -14.7947   24.7598 C   0  0  0  0  0  0  0  0  0  0  0  0
    8.2380  -14.7194   25.2617 C   0  0  0  0  0  0  0  0  0  0  0  0
    7.3273  -15.7520   25.3185 C   0  0  0  0  0  0  0  0  0  0  0  0
    6.2067  -15.2247   25.8305 N   0  0  0  0  0  0  0  0  0  0  0  0
    6.3606  -13.9190   26.0991 C   0  0  0  0  0  0  0  0  0  0  0  0
    5.5129  -12.9537   26.6252 C   0  0  0  0  0  0  0  0  0  0  0  0
    5.9198  -11.6626   26.8033 C   0  0  0  0  0  0  0  0  0  0  0  0
    7.2149  -11.3274   26.4439 C   0  0  0  0  0  0  0  0  0  0  0  0
    8.0762  -12.2591   25.9214 C   0  0  0  0  0  0  0  0  0  0  0  0
    7.6534  -13.5620   25.7458 C   0  0  0  0  0  0  0  0  0  0  0  0
    9.7728  -16.8996   25.9923 C   0  0  0  0  0  0  0  0  0  0  0  0
    8.8830  -17.9832   26.0778 O   0  0  0  0  0  0  0  0  0  0  0  0
   10.2982  -16.5338   27.0689 O   0  0  0  0  0  0  0  0  0  0  0  0
  2  3  1  0
  2  1  1  1
  4  5  1  1
  4  2  1  0
  6  4  1  0
  7  6  2  0
  9  8  1  0
 10  9  1  6
 10 11  1  0
 11  6  1  0
 12 10  1  0
 12 14  1  0
 13 12  2  0
 15 14  1  0
 15 26  1  0
 15 16  1  1
 17 16  1  0
 17 18  2  0
 19 18  1  0
 20 25  2  0
 20 19  1  0
 21 20  1  0
 22 23  1  0
 22 21  2  0
 23 24  2  0
 24 25  1  0
 25 17  1  0
 26 27  1  0
 28 26  2  0
M  END
$$$$
