SPD.pdb
     RDKit          3D

 22 22  0  0  1  0  0  0  0  0999 V2000
   22.9554   -9.5698  -22.4897 O   0  0  0  0  0  0  0  0  0  0  0  0
   22.7042   -9.4129  -21.1456 C   0  0  0  0  0  0  0  0  0  0  0  0
   23.8638  -10.0484  -20.3633 C   0  0  2  0  0  0  0  0  0  0  0  0
   23.5998  -11.4557  -20.3318 N   0  0  0  0  0  0  0  0  0  0  0  0
   23.8946   -9.4007  -19.0390 C   0  0  0  0  0  0  0  0  0  0  0  0
   23.0312   -9.8405  -18.1982 O   0  0  0  0  0  0  0  0  0  0  0  0
   24.7859   -8.3628  -18.6595 N   0  0  0  0  0  0  0  0  0  0  0  0
   25.8077   -7.8033  -19.5094 C   0  0  0  0  0  0  0  0  0  0  0  0
   26.8010   -7.1618  -18.5168 C   0  0  0  0  0  0  0  0  0  0  0  0
   25.8228   -6.6267  -17.5103 C   0  0  0  0  0  0  0  0  0  0  0  0
   24.8359   -7.7529  -17.3850 C   0  0  1  0  0  0  0  0  0  0  0  0
   23.5177   -7.2478  -16.9070 C   0  0  0  0  0  0  0  0  0  0  0  0
   22.7417   -6.7783  -17.7725 O   0  0  0  0  0  0  0  0  0  0  0  0
   23.0776   -7.2588  -15.5653 N   0  0  0  0  0  0  0  0  0  0  0  0
   21.7802   -6.7154  -15.1650 C   0  0  1  0  0  0  0  0  0  0  0  0
   21.0387   -7.7250  -14.2986 C   0  0  0  0  0  0  0  0  0  0  0  0
   19.7075   -7.2415  -13.9124 C   0  0  0  0  0  0  0  0  0  0  0  0
   18.9477   -6.7250  -14.7602 O   0  0  0  0  0  0  0  0  0  0  0  0
   21.9140   -5.4539  -14.4241 C   0  0  0  0  0  0  0  0  0  0  0  0
   20.8999   -4.7209  -14.3207 O   0  0  0  0  0  0  0  0  0  0  0  0
   19.2830   -7.3572  -12.5894 O   0  0  0  0  0  0  0  0  0  0  0  0
   23.1043   -5.0515  -13.8438 O   0  0  0  0  0  0  0  0  0  0  0  0
  1  2  1  0
  3  2  1  0
  3  4  1  1
  3  5  1  0
  5  6  2  0
  7  5  1  0
  7 11  1  0
  8  7  1  0
  9  8  1  0
  9 10  1  0
 10 11  1  0
 11 12  1  6
 12 13  2  0
 12 14  1  0
 14 15  1  0
 15 16  1  1
 17 16  1  0
 17 18  2  0
 19 15  1  0
 19 22  1  0
 20 19  2  0
 21 17  1  0
M  END
$$$$
