SPD.pdb
     RDKit          3D

 22 22  0  0  1  0  0  0  0  0999 V2000
   23.6521  -33.4855   -8.0496 O   0  0  0  0  0  0  0  0  0  0  0  0
   24.6974  -32.7922   -8.6161 C   0  0  0  0  0  0  0  0  0  0  0  0
   25.7590  -33.8077   -9.0659 C   0  0  2  0  0  0  0  0  0  0  0  0
   25.0862  -34.7329   -9.9277 N   0  0  0  0  0  0  0  0  0  0  0  0
   26.3241  -34.4085   -7.8435 C   0  0  0  0  0  0  0  0  0  0  0  0
   25.6542  -35.3900   -7.3602 O   0  0  0  0  0  0  0  0  0  0  0  0
   27.5143  -33.9796   -7.1994 N   0  0  0  0  0  0  0  0  0  0  0  0
   28.3609  -32.9081   -7.6626 C   0  0  0  0  0  0  0  0  0  0  0  0
   29.7201  -33.1962   -6.9897 C   0  0  0  0  0  0  0  0  0  0  0  0
   29.2294  -33.6837   -5.6564 C   0  0  0  0  0  0  0  0  0  0  0  0
   28.0707  -34.5615   -6.0372 C   0  0  1  0  0  0  0  0  0  0  0  0
   27.1085  -34.6845   -4.9057 C   0  0  0  0  0  0  0  0  0  0  0  0
   26.0609  -33.9995   -4.9741 O   0  0  0  0  0  0  0  0  0  0  0  0
   27.2833  -35.5083   -3.7721 N   0  0  0  0  0  0  0  0  0  0  0  0
   26.3261  -35.5277   -2.6665 C   0  0  1  0  0  0  0  0  0  0  0  0
   26.6886  -36.6343   -1.6847 C   0  0  0  0  0  0  0  0  0  0  0  0
   26.9274  -37.9130   -2.3652 C   0  0  0  0  0  0  0  0  0  0  0  0
   26.3380  -38.1848   -3.4336 O   0  0  0  0  0  0  0  0  0  0  0  0
   26.2827  -34.2459   -1.9502 C   0  0  0  0  0  0  0  0  0  0  0  0
   27.1584  -33.3885   -2.2232 O   0  0  0  0  0  0  0  0  0  0  0  0
   27.8186  -38.8353   -1.8184 O   0  0  0  0  0  0  0  0  0  0  0  0
   25.3219  -33.9551   -0.9975 O   0  0  0  0  0  0  0  0  0  0  0  0
  1  2  1  0
  3  2  1  0
  3  4  1  6
  3  5  1  0
  5  6  2  0
  7  5  1  0
  7 11  1  0
  8  7  1  0
  9  8  1  0
  9 10  1  0
 10 11  1  0
 11 12  1  1
 12 13  2  0
 12 14  1  0
 14 15  1  0
 15 16  1  1
 17 16  1  0
 17 18  2  0
 19 15  1  0
 19 22  1  0
 20 19  2  0
 21 17  1  0
M  END
$$$$
