SPD.pdb
     RDKit          3D

 22 22  0  0  1  0  0  0  0  0999 V2000
   23.3121  -13.0584  -20.4138 O   0  0  0  0  0  0  0  0  0  0  0  0
   23.2015  -12.0840  -19.4481 C   0  0  0  0  0  0  0  0  0  0  0  0
   23.7248  -12.6598  -18.1232 C   0  0  2  0  0  0  0  0  0  0  0  0
   22.7772  -13.6546  -17.7187 N   0  0  0  0  0  0  0  0  0  0  0  0
   23.8627  -11.5284  -17.1877 C   0  0  0  0  0  0  0  0  0  0  0  0
   22.7584  -11.0664  -16.7263 O   0  0  0  0  0  0  0  0  0  0  0  0
   25.0944  -10.9466  -16.7878 N   0  0  0  0  0  0  0  0  0  0  0  0
   26.3968  -11.4224  -17.1841 C   0  0  0  0  0  0  0  0  0  0  0  0
   27.3413  -10.8501  -16.1053 C   0  0  0  0  0  0  0  0  0  0  0  0
   26.6969   -9.5074  -15.9097 C   0  0  0  0  0  0  0  0  0  0  0  0
   25.2327   -9.8458  -15.9114 C   0  0  1  0  0  0  0  0  0  0  0  0
   24.4182   -8.6601  -16.3010 C   0  0  0  0  0  0  0  0  0  0  0  0
   24.2283   -8.4794  -17.5268 O   0  0  0  0  0  0  0  0  0  0  0  0
   23.8465   -7.7324  -15.4028 N   0  0  0  0  0  0  0  0  0  0  0  0
   23.0905   -6.5671  -15.8605 C   0  0  1  0  0  0  0  0  0  0  0  0
   21.9984   -6.2282  -14.8545 C   0  0  0  0  0  0  0  0  0  0  0  0
   21.1777   -5.0950  -15.2989 C   0  0  0  0  0  0  0  0  0  0  0  0
   20.6697   -5.0867  -16.4411 O   0  0  0  0  0  0  0  0  0  0  0  0
   23.9496   -5.3907  -16.0507 C   0  0  0  0  0  0  0  0  0  0  0  0
   24.8577   -5.1820  -15.2092 O   0  0  0  0  0  0  0  0  0  0  0  0
   20.9603   -4.0164  -14.4426 O   0  0  0  0  0  0  0  0  0  0  0  0
   23.7940   -4.5164  -17.1122 O   0  0  0  0  0  0  0  0  0  0  0  0
  1  2  1  0
  3  2  1  0
  3  4  1  1
  3  5  1  0
  5  6  2  0
  7  5  1  0
  7 11  1  0
  8  7  1  0
  9  8  1  0
  9 10  1  0
 10 11  1  0
 11 12  1  6
 12 13  2  0
 12 14  1  0
 14 15  1  0
 15 16  1  1
 17 16  1  0
 17 18  2  0
 19 15  1  0
 19 22  1  0
 20 19  2  0
 21 17  1  0
M  END
$$$$
