SPD.pdb
     RDKit          3D

 22 22  0  0  1  0  0  0  0  0999 V2000
   20.5707  -12.4554  -19.9696 O   0  0  0  0  0  0  0  0  0  0  0  0
   20.5286  -11.6233  -18.8741 C   0  0  0  0  0  0  0  0  0  0  0  0
   20.5619  -12.4940  -17.6086 C   0  0  2  0  0  0  0  0  0  0  0  0
   19.2303  -12.9902  -17.4306 N   0  0  0  0  0  0  0  0  0  0  0  0
   21.0489  -11.6381  -16.5110 C   0  0  0  0  0  0  0  0  0  0  0  0
   20.1712  -10.8519  -16.0039 O   0  0  0  0  0  0  0  0  0  0  0  0
   22.3762  -11.6347  -16.0073 N   0  0  0  0  0  0  0  0  0  0  0  0
   23.3893  -12.6022  -16.3496 C   0  0  0  0  0  0  0  0  0  0  0  0
   24.4001  -12.5032  -15.1868 C   0  0  0  0  0  0  0  0  0  0  0  0
   24.3591  -11.0191  -14.9586 C   0  0  0  0  0  0  0  0  0  0  0  0
   22.8916  -10.7137  -15.0664 C   0  0  1  0  0  0  0  0  0  0  0  0
   22.6762   -9.2871  -15.4401 C   0  0  0  0  0  0  0  0  0  0  0  0
   22.7312   -9.0051  -16.6603 O   0  0  0  0  0  0  0  0  0  0  0  0
   22.4150   -8.2368  -14.5331 N   0  0  0  0  0  0  0  0  0  0  0  0
   22.1931   -6.8606  -14.9756 C   0  0  1  0  0  0  0  0  0  0  0  0
   20.9091   -6.7773  -15.7905 C   0  0  0  0  0  0  0  0  0  0  0  0
   20.6032   -5.3983  -16.1902 C   0  0  0  0  0  0  0  0  0  0  0  0
   21.5130   -4.6290  -16.5688 O   0  0  0  0  0  0  0  0  0  0  0  0
   22.1069   -5.9242  -13.8469 C   0  0  0  0  0  0  0  0  0  0  0  0
   21.6422   -6.3509  -12.7614 O   0  0  0  0  0  0  0  0  0  0  0  0
   19.2877   -4.9383  -16.1488 O   0  0  0  0  0  0  0  0  0  0  0  0
   22.5152   -4.6049  -13.9385 O   0  0  0  0  0  0  0  0  0  0  0  0
  1  2  1  0
  3  2  1  0
  3  4  1  1
  3  5  1  0
  5  6  2  0
  7  5  1  0
  7 11  1  0
  8  7  1  0
  9  8  1  0
  9 10  1  0
 10 11  1  0
 11 12  1  6
 12 13  2  0
 12 14  1  0
 14 15  1  0
 15 16  1  1
 17 16  1  0
 17 18  2  0
 19 15  1  0
 19 22  1  0
 20 19  2  0
 21 17  1  0
M  END
$$$$
