SPD.pdb
     RDKit          3D

 22 22  0  0  1  0  0  0  0  0999 V2000
   15.4714  -12.0372  -12.0818 O   0  0  0  0  0  0  0  0  0  0  0  0
   15.5781  -10.7323  -12.5063 C   0  0  0  0  0  0  0  0  0  0  0  0
   14.6038   -9.8780  -11.6807 C   0  0  2  0  0  0  0  0  0  0  0  0
   13.3147  -10.0514  -12.2802 N   0  0  0  0  0  0  0  0  0  0  0  0
   15.1131   -8.4944  -11.7118 C   0  0  0  0  0  0  0  0  0  0  0  0
   15.0502   -7.9173  -12.8558 O   0  0  0  0  0  0  0  0  0  0  0  0
   15.6467   -7.7969  -10.5964 N   0  0  0  0  0  0  0  0  0  0  0  0
   15.6082   -8.2693   -9.2345 C   0  0  0  0  0  0  0  0  0  0  0  0
   15.7885   -6.9864   -8.3950 C   0  0  0  0  0  0  0  0  0  0  0  0
   16.7860   -6.2710   -9.2607 C   0  0  0  0  0  0  0  0  0  0  0  0
   16.2549   -6.5214  -10.6441 C   0  0  1  0  0  0  0  0  0  0  0  0
   17.3446   -6.4114  -11.6548 C   0  0  0  0  0  0  0  0  0  0  0  0
   18.1757   -7.3489  -11.6983 O   0  0  0  0  0  0  0  0  0  0  0  0
   17.5111   -5.3419  -12.5618 N   0  0  0  0  0  0  0  0  0  0  0  0
   18.5461   -5.3487  -13.5949 C   0  0  1  0  0  0  0  0  0  0  0  0
   18.0499   -4.6128  -14.8327 C   0  0  0  0  0  0  0  0  0  0  0  0
   19.0464   -4.6215  -15.9107 C   0  0  0  0  0  0  0  0  0  0  0  0
   19.8859   -3.7004  -16.0083 O   0  0  0  0  0  0  0  0  0  0  0  0
   19.7927   -4.7238  -13.1326 C   0  0  0  0  0  0  0  0  0  0  0  0
   19.7086   -3.7811  -12.3077 O   0  0  0  0  0  0  0  0  0  0  0  0
   19.0600   -5.6643  -16.8360 O   0  0  0  0  0  0  0  0  0  0  0  0
   21.0402   -5.1338  -13.5698 O   0  0  0  0  0  0  0  0  0  0  0  0
  1  2  1  0
  3  2  1  0
  3  4  1  6
  3  5  1  0
  5  6  2  0
  7  5  1  0
  7 11  1  0
  8  7  1  0
  9  8  1  0
  9 10  1  0
 10 11  1  0
 11 12  1  6
 12 13  2  0
 12 14  1  0
 14 15  1  0
 15 16  1  6
 17 16  1  0
 17 18  2  0
 19 15  1  0
 19 22  1  0
 20 19  2  0
 21 17  1  0
M  END
$$$$
