SPD.pdb
     RDKit          3D

 22 22  0  0  1  0  0  0  0  0999 V2000
   20.5567  -10.5769  -18.6977 O   0  0  0  0  0  0  0  0  0  0  0  0
   19.4367  -11.2132  -18.2128 C   0  0  0  0  0  0  0  0  0  0  0  0
   19.8422  -12.0149  -16.9664 C   0  0  2  0  0  0  0  0  0  0  0  0
   18.6824  -12.7590  -16.5760 N   0  0  0  0  0  0  0  0  0  0  0  0
   20.3121  -11.0415  -15.9635 C   0  0  0  0  0  0  0  0  0  0  0  0
   19.4180  -10.2275  -15.5349 O   0  0  0  0  0  0  0  0  0  0  0  0
   21.6401  -10.9574  -15.4686 N   0  0  0  0  0  0  0  0  0  0  0  0
   22.6932  -11.8941  -15.7736 C   0  0  0  0  0  0  0  0  0  0  0  0
   23.7036  -11.6990  -14.6227 C   0  0  0  0  0  0  0  0  0  0  0  0
   23.5984  -10.2093  -14.4608 C   0  0  0  0  0  0  0  0  0  0  0  0
   22.1185   -9.9735  -14.5730 C   0  0  1  0  0  0  0  0  0  0  0  0
   21.8391   -8.5759  -15.0087 C   0  0  0  0  0  0  0  0  0  0  0  0
   21.7196   -8.3782  -16.2408 O   0  0  0  0  0  0  0  0  0  0  0  0
   21.6976   -7.4659  -14.1474 N   0  0  0  0  0  0  0  0  0  0  0  0
   21.4749   -6.1109  -14.6507 C   0  0  1  0  0  0  0  0  0  0  0  0
   19.9944   -5.7629  -14.5692 C   0  0  0  0  0  0  0  0  0  0  0  0
   19.7215   -4.4113  -15.0729 C   0  0  0  0  0  0  0  0  0  0  0  0
   19.7514   -4.1714  -16.2995 O   0  0  0  0  0  0  0  0  0  0  0  0
   22.2453   -5.1093  -13.9015 C   0  0  0  0  0  0  0  0  0  0  0  0
   22.4031   -5.2885  -12.6688 O   0  0  0  0  0  0  0  0  0  0  0  0
   19.4260   -3.3829  -14.1789 O   0  0  0  0  0  0  0  0  0  0  0  0
   22.7959   -3.9896  -14.5004 O   0  0  0  0  0  0  0  0  0  0  0  0
  1  2  1  0
  3  2  1  0
  3  4  1  1
  3  5  1  0
  5  6  2  0
  7  5  1  0
  7 11  1  0
  8  7  1  0
  9  8  1  0
  9 10  1  0
 10 11  1  0
 11 12  1  6
 12 13  2  0
 12 14  1  0
 14 15  1  0
 15 16  1  1
 17 16  1  0
 17 18  2  0
 19 15  1  0
 19 22  1  0
 20 19  2  0
 21 17  1  0
M  END
$$$$
