SPD.pdb
     RDKit          3D

 22 22  0  0  1  0  0  0  0  0999 V2000
   18.9449  -11.9949  -15.2243 O   0  0  0  0  0  0  0  0  0  0  0  0
   18.4907  -12.1569  -16.5134 C   0  0  0  0  0  0  0  0  0  0  0  0
   19.7101  -12.2790  -17.4401 C   0  0  2  0  0  0  0  0  0  0  0  0
   20.5392  -13.3015  -16.8758 N   0  0  0  0  0  0  0  0  0  0  0  0
   20.3377  -10.9460  -17.5022 C   0  0  0  0  0  0  0  0  0  0  0  0
   21.2863  -10.7517  -16.6607 O   0  0  0  0  0  0  0  0  0  0  0  0
   19.9664   -9.9112  -18.4004 N   0  0  0  0  0  0  0  0  0  0  0  0
   18.9793  -10.0412  -19.4435 C   0  0  0  0  0  0  0  0  0  0  0  0
   19.3332   -8.9062  -20.4283 C   0  0  0  0  0  0  0  0  0  0  0  0
   19.7254   -7.8447  -19.4405 C   0  0  0  0  0  0  0  0  0  0  0  0
   20.5345   -8.6170  -18.4370 C   0  0  1  0  0  0  0  0  0  0  0  0
   20.5388   -7.9238  -17.1176 C   0  0  0  0  0  0  0  0  0  0  0  0
   19.6671   -8.2758  -16.2884 O   0  0  0  0  0  0  0  0  0  0  0  0
   21.4431   -6.9103  -16.7316 N   0  0  0  0  0  0  0  0  0  0  0  0
   21.3596   -6.2432  -15.4328 C   0  0  1  0  0  0  0  0  0  0  0  0
   22.6650   -5.5164  -15.1369 C   0  0  0  0  0  0  0  0  0  0  0  0
   22.6168   -4.8056  -13.8534 C   0  0  0  0  0  0  0  0  0  0  0  0
   22.7546   -3.5639  -13.8082 O   0  0  0  0  0  0  0  0  0  0  0  0
   20.2510   -5.2810  -15.3758 C   0  0  0  0  0  0  0  0  0  0  0  0
   19.7269   -5.0515  -14.2582 O   0  0  0  0  0  0  0  0  0  0  0  0
   22.4159   -5.5179  -12.6717 O   0  0  0  0  0  0  0  0  0  0  0  0
   19.7711   -4.6275  -16.4974 O   0  0  0  0  0  0  0  0  0  0  0  0
  1  2  1  0
  3  2  1  0
  3  4  1  1
  3  5  1  0
  5  6  2  0
  7  5  1  0
  7 11  1  0
  8  7  1  0
  9  8  1  0
  9 10  1  0
 10 11  1  0
 11 12  1  1
 12 13  2  0
 12 14  1  0
 14 15  1  0
 15 16  1  6
 17 16  1  0
 17 18  2  0
 19 15  1  0
 19 22  1  0
 20 19  2  0
 21 17  1  0
M  END
$$$$
