SPD.pdb
     RDKit          3D

 22 22  0  0  1  0  0  0  0  0999 V2000
   20.6494  -10.6490  -19.0677 O   0  0  0  0  0  0  0  0  0  0  0  0
   19.5500  -11.2912  -18.5449 C   0  0  0  0  0  0  0  0  0  0  0  0
   19.9958  -12.0648  -17.2945 C   0  0  2  0  0  0  0  0  0  0  0  0
   18.8505  -12.8025  -16.8524 N   0  0  0  0  0  0  0  0  0  0  0  0
   20.4938  -11.0688  -16.3279 C   0  0  0  0  0  0  0  0  0  0  0  0
   19.6123  -10.2441  -15.8938 O   0  0  0  0  0  0  0  0  0  0  0  0
   21.8350  -10.9749  -15.8721 N   0  0  0  0  0  0  0  0  0  0  0  0
   22.8862  -11.9026  -16.2095 C   0  0  0  0  0  0  0  0  0  0  0  0
   23.9283  -11.7011  -15.0884 C   0  0  0  0  0  0  0  0  0  0  0  0
   23.8160  -10.2126  -14.9208 C   0  0  0  0  0  0  0  0  0  0  0  0
   22.3317   -9.9885  -14.9892 C   0  0  1  0  0  0  0  0  0  0  0  0
   22.0284   -8.5925  -15.4140 C   0  0  0  0  0  0  0  0  0  0  0  0
   21.6341   -8.4306  -16.5929 O   0  0  0  0  0  0  0  0  0  0  0  0
   22.1481   -7.4470  -14.5970 N   0  0  0  0  0  0  0  0  0  0  0  0
   21.8587   -6.1016  -15.0920 C   0  0  1  0  0  0  0  0  0  0  0  0
   20.3799   -5.9814  -15.4362 C   0  0  0  0  0  0  0  0  0  0  0  0
   20.0459   -4.6504  -15.9576 C   0  0  0  0  0  0  0  0  0  0  0  0
   20.3564   -4.3281  -17.1249 O   0  0  0  0  0  0  0  0  0  0  0  0
   22.2092   -5.0648  -14.1121 C   0  0  0  0  0  0  0  0  0  0  0  0
   22.0844   -5.3395  -12.8934 O   0  0  0  0  0  0  0  0  0  0  0  0
   19.3766   -3.7344  -15.1470 O   0  0  0  0  0  0  0  0  0  0  0  0
   22.6664   -3.8119  -14.4820 O   0  0  0  0  0  0  0  0  0  0  0  0
  1  2  1  0
  3  2  1  0
  3  4  1  1
  3  5  1  0
  5  6  2  0
  7  5  1  0
  7 11  1  0
  8  7  1  0
  9  8  1  0
  9 10  1  0
 10 11  1  0
 11 12  1  6
 12 13  2  0
 12 14  1  0
 14 15  1  0
 15 16  1  1
 17 16  1  0
 17 18  2  0
 19 15  1  0
 19 22  1  0
 20 19  2  0
 21 17  1  0
M  END
$$$$
