SPD.pdb
     RDKit          3D

 22 22  0  0  1  0  0  0  0  0999 V2000
   26.8614  -18.3520  -15.0193 O   0  0  0  0  0  0  0  0  0  0  0  0
   27.2619  -19.3764  -15.8467 C   0  0  0  0  0  0  0  0  0  0  0  0
   27.5906  -20.5975  -14.9741 C   0  0  2  0  0  0  0  0  0  0  0  0
   28.1375  -21.5834  -15.8573 N   0  0  0  0  0  0  0  0  0  0  0  0
   26.3379  -20.9990  -14.3076 C   0  0  0  0  0  0  0  0  0  0  0  0
   25.4457  -21.4986  -15.0822 O   0  0  0  0  0  0  0  0  0  0  0  0
   26.0753  -20.8681  -12.9186 N   0  0  0  0  0  0  0  0  0  0  0  0
   27.0078  -20.3472  -11.9498 C   0  0  0  0  0  0  0  0  0  0  0  0
   26.4939  -20.9080  -10.6063 C   0  0  0  0  0  0  0  0  0  0  0  0
   25.0158  -20.7964  -10.8492 C   0  0  0  0  0  0  0  0  0  0  0  0
   24.8832  -21.2656  -12.2706 C   0  0  1  0  0  0  0  0  0  0  0  0
   23.6465  -20.7151  -12.8941 C   0  0  0  0  0  0  0  0  0  0  0  0
   23.6692  -19.5077  -13.2305 O   0  0  0  0  0  0  0  0  0  0  0  0
   22.4609  -21.4433  -13.1354 N   0  0  0  0  0  0  0  0  0  0  0  0
   21.2647  -20.8213  -13.7019 C   0  0  1  0  0  0  0  0  0  0  0  0
   20.4701  -21.8502  -14.4955 C   0  0  0  0  0  0  0  0  0  0  0  0
   19.2282  -21.2841  -15.0362 C   0  0  0  0  0  0  0  0  0  0  0  0
   19.1744  -20.0845  -15.3838 O   0  0  0  0  0  0  0  0  0  0  0  0
   20.3994  -20.2418  -12.6658 C   0  0  0  0  0  0  0  0  0  0  0  0
   19.7256  -19.2246  -12.9619 O   0  0  0  0  0  0  0  0  0  0  0  0
   18.0963  -22.0880  -15.1648 O   0  0  0  0  0  0  0  0  0  0  0  0
   20.3029  -20.7723  -11.3911 O   0  0  0  0  0  0  0  0  0  0  0  0
  1  2  1  0
  3  2  1  0
  3  4  1  6
  3  5  1  0
  5  6  2  0
  7  5  1  0
  7 11  1  0
  8  7  1  0
  9  8  1  0
  9 10  1  0
 10 11  1  0
 11 12  1  6
 12 13  2  0
 12 14  1  0
 14 15  1  0
 15 16  1  1
 17 16  1  0
 17 18  2  0
 19 15  1  0
 19 22  1  0
 20 19  2  0
 21 17  1  0
M  END
$$$$
