SPD.pdb
     RDKit          3D

 22 22  0  0  1  0  0  0  0  0999 V2000
   24.4029  -23.2065  -19.3169 O   0  0  0  0  0  0  0  0  0  0  0  0
   24.8714  -24.4069  -19.8006 C   0  0  0  0  0  0  0  0  0  0  0  0
   26.3438  -24.5496  -19.3854 C   0  0  2  0  0  0  0  0  0  0  0  0
   27.1178  -24.0502  -20.4822 N   0  0  0  0  0  0  0  0  0  0  0  0
   26.5669  -25.9741  -19.0762 C   0  0  0  0  0  0  0  0  0  0  0  0
   26.0573  -26.7992  -19.9160 O   0  0  0  0  0  0  0  0  0  0  0  0
   27.2812  -26.4618  -17.9505 N   0  0  0  0  0  0  0  0  0  0  0  0
   28.0261  -25.6401  -17.0288 C   0  0  0  0  0  0  0  0  0  0  0  0
   29.0136  -26.6278  -16.3710 C   0  0  0  0  0  0  0  0  0  0  0  0
   28.1169  -27.8282  -16.2639 C   0  0  0  0  0  0  0  0  0  0  0  0
   27.4061  -27.8226  -17.5879 C   0  0  1  0  0  0  0  0  0  0  0  0
   26.1043  -28.5417  -17.4902 C   0  0  0  0  0  0  0  0  0  0  0  0
   25.1048  -27.8636  -17.1547 O   0  0  0  0  0  0  0  0  0  0  0  0
   25.9107  -29.9168  -17.7463 N   0  0  0  0  0  0  0  0  0  0  0  0
   24.6251  -30.5783  -17.5260 C   0  0  1  0  0  0  0  0  0  0  0  0
   24.6271  -31.9510  -18.1858 C   0  0  0  0  0  0  0  0  0  0  0  0
   23.3122  -32.5987  -18.1052 C   0  0  0  0  0  0  0  0  0  0  0  0
   22.2711  -31.9601  -18.3719 O   0  0  0  0  0  0  0  0  0  0  0  0
   24.3207  -30.7330  -16.0972 C   0  0  0  0  0  0  0  0  0  0  0  0
   25.2014  -31.2379  -15.3584 O   0  0  0  0  0  0  0  0  0  0  0  0
   23.2190  -33.9378  -17.7283 O   0  0  0  0  0  0  0  0  0  0  0  0
   23.1120  -30.3460  -15.5452 O   0  0  0  0  0  0  0  0  0  0  0  0
  1  2  1  0
  3  2  1  0
  3  4  1  6
  3  5  1  0
  5  6  2  0
  7  5  1  0
  7 11  1  0
  8  7  1  0
  9  8  1  0
  9 10  1  0
 10 11  1  0
 11 12  1  1
 12 13  2  0
 12 14  1  0
 14 15  1  0
 15 16  1  1
 17 16  1  0
 17 18  2  0
 19 15  1  0
 19 22  1  0
 20 19  2  0
 21 17  1  0
M  END
$$$$
