SPD.pdb
     RDKit          3D

 22 22  0  0  1  0  0  0  0  0999 V2000
   13.6604  -11.4353  -11.3824 O   0  0  0  0  0  0  0  0  0  0  0  0
   13.4181  -11.1875  -10.0504 C   0  0  0  0  0  0  0  0  0  0  0  0
   12.5825   -9.9024   -9.9457 C   0  0  2  0  0  0  0  0  0  0  0  0
   11.4121  -10.1217  -10.7415 N   0  0  0  0  0  0  0  0  0  0  0  0
   13.4387   -8.7943  -10.4074 C   0  0  0  0  0  0  0  0  0  0  0  0
   13.3238   -8.4997  -11.6507 O   0  0  0  0  0  0  0  0  0  0  0  0
   14.3440   -8.0682   -9.5896 N   0  0  0  0  0  0  0  0  0  0  0  0
   14.5382   -8.2903   -8.1781 C   0  0  0  0  0  0  0  0  0  0  0  0
   15.1540   -6.9656   -7.6787 C   0  0  0  0  0  0  0  0  0  0  0  0
   16.0371   -6.6536   -8.8531 C   0  0  0  0  0  0  0  0  0  0  0  0
   15.1567   -6.9951  -10.0221 C   0  0  1  0  0  0  0  0  0  0  0  0
   15.9774   -7.3086  -11.2260 C   0  0  0  0  0  0  0  0  0  0  0  0
   16.5458   -8.4256  -11.2508 O   0  0  0  0  0  0  0  0  0  0  0  0
   16.1613   -6.4520  -12.3335 N   0  0  0  0  0  0  0  0  0  0  0  0
   16.9804   -6.8296  -13.4847 C   0  0  1  0  0  0  0  0  0  0  0  0
   16.3308   -6.3336  -14.7699 C   0  0  0  0  0  0  0  0  0  0  0  0
   17.1057   -6.7148  -15.9571 C   0  0  0  0  0  0  0  0  0  0  0  0
   18.1979   -7.3115  -15.8393 O   0  0  0  0  0  0  0  0  0  0  0  0
   18.3429   -6.2876  -13.3954 C   0  0  0  0  0  0  0  0  0  0  0  0
   19.2671   -6.9206  -13.9623 O   0  0  0  0  0  0  0  0  0  0  0  0
   16.6229   -6.4104  -17.2292 O   0  0  0  0  0  0  0  0  0  0  0  0
   18.6382   -5.1183  -12.7165 O   0  0  0  0  0  0  0  0  0  0  0  0
  1  2  1  0
  3  2  1  0
  3  4  1  6
  3  5  1  0
  5  6  2  0
  7  5  1  0
  7 11  1  0
  8  7  1  0
  9  8  1  0
  9 10  1  0
 10 11  1  0
 11 12  1  6
 12 13  2  0
 12 14  1  0
 14 15  1  0
 15 16  1  6
 17 16  1  0
 17 18  2  0
 19 15  1  0
 19 22  1  0
 20 19  2  0
 21 17  1  0
M  END
$$$$
