CFP.pdb
     RDKit          3D

 25 26  0  0  1  0  0  0  0  0999 V2000
   11.8498  -16.5007   20.1931 N   0  0  0  0  0  0  0  0  0  0  0  0
   10.9254  -17.1040   21.1028 C   0  0  1  0  0  0  0  0  0  0  0  0
   11.4680  -18.4258   21.6628 C   0  0  0  0  0  0  0  0  0  0  0  0
   10.1087  -19.2096   22.6130 S   0  0  0  0  0  0  0  0  0  0  0  0
   10.6195  -16.2189   22.2529 C   0  0  0  0  0  0  0  0  0  0  0  0
   11.6070  -15.6469   22.8085 O   0  0  0  0  0  0  0  0  0  0  0  0
    9.2909  -16.0239   22.7060 N   0  0  0  0  0  0  0  0  0  0  0  0
    8.9561  -15.2455   23.8652 C   0  0  1  0  0  0  0  0  0  0  0  0
    7.6358  -14.5567   23.7382 C   0  0  0  0  0  0  0  0  0  0  0  0
    7.2313  -13.7199   24.8698 C   0  0  0  0  0  0  0  0  0  0  0  0
    6.5395  -14.2843   25.9273 C   0  0  0  0  0  0  0  0  0  0  0  0
    6.1725  -13.5087   27.0006 C   0  0  0  0  0  0  0  0  0  0  0  0
    6.4668  -12.1639   27.0770 C   0  0  0  0  0  0  0  0  0  0  0  0
    7.1609  -11.5885   26.0204 C   0  0  0  0  0  0  0  0  0  0  0  0
    7.5220  -12.3635   24.9588 C   0  0  0  0  0  0  0  0  0  0  0  0
    9.1703  -15.9808   25.1152 C   0  0  0  0  0  0  0  0  0  0  0  0
    9.0868  -17.2693   25.0438 O   0  0  0  0  0  0  0  0  0  0  0  0
    9.4543  -15.4844   26.3976 N   0  0  0  0  0  0  0  0  0  0  0  0
    9.0516  -14.2849   27.0944 C   0  0  0  0  0  0  0  0  0  0  0  0
   10.1312  -14.0112   28.1516 C   0  0  0  0  0  0  0  0  0  0  0  0
   11.2055  -15.0422   27.8025 C   0  0  0  0  0  0  0  0  0  0  0  0
   10.2972  -16.1825   27.4002 C   0  0  1  0  0  0  0  0  0  0  0  0
    9.5156  -16.6181   28.5618 C   0  0  0  0  0  0  0  0  0  0  0  0
    9.9820  -17.2900   29.6613 O   0  0  0  0  0  0  0  0  0  0  0  0
    8.2755  -16.3411   28.5424 O   0  0  0  0  0  0  0  0  0  0  0  0
  2  5  1  0
  2  1  1  6
  3  2  1  0
  4  3  1  0
  5  6  2  0
  7  8  1  0
  7  5  1  0
  8  9  1  6
  9 10  1  0
 10 11  2  0
 11 12  1  0
 13 12  2  0
 14 13  1  0
 15 14  2  0
 15 10  1  0
 16  8  1  0
 17 16  2  0
 18 16  1  0
 18 22  1  0
 19 20  1  0
 19 18  1  0
 20 21  1  0
 21 22  1  0
 22 23  1  1
 23 24  1  0
 25 23  2  0
M  END
$$$$
