CFP.pdb
     RDKit          3D

 25 26  0  0  1  0  0  0  0  0999 V2000
   11.7309  -16.3590   20.2071 N   0  0  0  0  0  0  0  0  0  0  0  0
   10.8064  -16.9884   21.0988 C   0  0  1  0  0  0  0  0  0  0  0  0
   11.3210  -18.3549   21.5710 C   0  0  0  0  0  0  0  0  0  0  0  0
    9.9984  -19.1067   22.5958 S   0  0  0  0  0  0  0  0  0  0  0  0
   10.5469  -16.1634   22.3037 C   0  0  0  0  0  0  0  0  0  0  0  0
   11.5644  -15.7133   22.9145 O   0  0  0  0  0  0  0  0  0  0  0  0
    9.2285  -15.8934   22.7479 N   0  0  0  0  0  0  0  0  0  0  0  0
    8.9309  -15.1108   23.9144 C   0  0  1  0  0  0  0  0  0  0  0  0
    7.6026  -14.4307   23.8317 C   0  0  0  0  0  0  0  0  0  0  0  0
    7.1764  -13.6966   25.0249 C   0  0  0  0  0  0  0  0  0  0  0  0
    7.5526  -12.3747   25.1875 C   0  0  0  0  0  0  0  0  0  0  0  0
    7.1414  -11.6745   26.2961 C   0  0  0  0  0  0  0  0  0  0  0  0
    6.3536  -12.2381   27.2773 C   0  0  0  0  0  0  0  0  0  0  0  0
    5.9710  -13.5644   27.1228 C   0  0  0  0  0  0  0  0  0  0  0  0
    6.3824  -14.2532   26.0208 C   0  0  0  0  0  0  0  0  0  0  0  0
    9.1946  -15.8381   25.1596 C   0  0  0  0  0  0  0  0  0  0  0  0
    9.0959  -17.1262   25.1030 O   0  0  0  0  0  0  0  0  0  0  0  0
    9.5412  -15.3342   26.4235 N   0  0  0  0  0  0  0  0  0  0  0  0
    9.2456  -14.0907   27.0964 C   0  0  0  0  0  0  0  0  0  0  0  0
   10.3638  -13.8755   28.1268 C   0  0  0  0  0  0  0  0  0  0  0  0
   11.3487  -14.9945   27.7850 C   0  0  0  0  0  0  0  0  0  0  0  0
   10.3479  -16.0707   27.4285 C   0  0  1  0  0  0  0  0  0  0  0  0
    9.5584  -16.4165   28.6147 C   0  0  0  0  0  0  0  0  0  0  0  0
    9.9860  -17.1196   29.7105 O   0  0  0  0  0  0  0  0  0  0  0  0
    8.3509  -16.0202   28.6230 O   0  0  0  0  0  0  0  0  0  0  0  0
  2  5  1  0
  2  1  1  6
  3  2  1  0
  4  3  1  0
  5  6  2  0
  7  8  1  0
  7  5  1  0
  8  9  1  6
  9 10  1  0
 10 11  2  0
 11 12  1  0
 13 12  2  0
 14 13  1  0
 15 14  2  0
 15 10  1  0
 16  8  1  0
 17 16  2  0
 18 16  1  0
 18 22  1  0
 19 20  1  0
 19 18  1  0
 20 21  1  0
 21 22  1  0
 22 23  1  1
 23 24  1  0
 25 23  2  0
M  END
$$$$
