CFP.pdb
     RDKit          3D

 25 26  0  0  1  0  0  0  0  0999 V2000
   11.8686  -16.4081   20.3000 N   0  0  0  0  0  0  0  0  0  0  0  0
   10.8510  -16.9879   21.1211 C   0  0  1  0  0  0  0  0  0  0  0  0
   11.2337  -18.4023   21.5776 C   0  0  0  0  0  0  0  0  0  0  0  0
   10.7547  -19.5535   20.2323 S   0  0  0  0  0  0  0  0  0  0  0  0
   10.5879  -16.1780   22.3353 C   0  0  0  0  0  0  0  0  0  0  0  0
   11.5999  -15.6768   22.9147 O   0  0  0  0  0  0  0  0  0  0  0  0
    9.2721  -15.9759   22.8214 N   0  0  0  0  0  0  0  0  0  0  0  0
    8.9662  -15.1576   23.9610 C   0  0  1  0  0  0  0  0  0  0  0  0
    7.7033  -14.3768   23.7906 C   0  0  0  0  0  0  0  0  0  0  0  0
    7.2409  -13.6307   24.9628 C   0  0  0  0  0  0  0  0  0  0  0  0
    6.5120  -14.2790   25.9445 C   0  0  0  0  0  0  0  0  0  0  0  0
    6.0902  -13.5893   27.0556 C   0  0  0  0  0  0  0  0  0  0  0  0
    6.3644  -12.2514   27.2445 C   0  0  0  0  0  0  0  0  0  0  0  0
    7.0955  -11.5922   26.2646 C   0  0  0  0  0  0  0  0  0  0  0  0
    7.5108  -12.2822   25.1648 C   0  0  0  0  0  0  0  0  0  0  0  0
    9.0949  -15.8874   25.2259 C   0  0  0  0  0  0  0  0  0  0  0  0
    8.8290  -17.1523   25.1875 O   0  0  0  0  0  0  0  0  0  0  0  0
    9.4674  -15.4074   26.4917 N   0  0  0  0  0  0  0  0  0  0  0  0
    9.1451  -14.1988   27.2142 C   0  0  0  0  0  0  0  0  0  0  0  0
   10.2913  -13.9666   28.2095 C   0  0  0  0  0  0  0  0  0  0  0  0
   11.3091  -15.0309   27.7965 C   0  0  0  0  0  0  0  0  0  0  0  0
   10.3419  -16.1383   27.4427 C   0  0  1  0  0  0  0  0  0  0  0  0
    9.6131  -16.5538   28.6452 C   0  0  0  0  0  0  0  0  0  0  0  0
   10.1054  -17.2885   29.6920 O   0  0  0  0  0  0  0  0  0  0  0  0
    8.3972  -16.1919   28.7203 O   0  0  0  0  0  0  0  0  0  0  0  0
  2  5  1  0
  2  1  1  1
  3  2  1  0
  4  3  1  0
  5  6  2  0
  7  8  1  0
  7  5  1  0
  8  9  1  6
  9 10  1  0
 10 11  2  0
 11 12  1  0
 13 12  2  0
 14 13  1  0
 15 14  2  0
 15 10  1  0
 16  8  1  0
 17 16  2  0
 18 16  1  0
 18 22  1  0
 19 20  1  0
 19 18  1  0
 20 21  1  0
 21 22  1  0
 22 23  1  1
 23 24  1  0
 25 23  2  0
M  END
$$$$
