CFP.pdb
     RDKit          3D

 25 26  0  0  1  0  0  0  0  0999 V2000
    3.7781  -19.9340   22.7598 N   0  0  0  0  0  0  0  0  0  0  0  0
    5.0663  -19.8215   23.3712 C   0  0  1  0  0  0  0  0  0  0  0  0
    6.1297  -20.6075   22.5923 C   0  0  0  0  0  0  0  0  0  0  0  0
    7.6438  -20.6417   23.6274 S   0  0  0  0  0  0  0  0  0  0  0  0
    5.5200  -18.4120   23.4564 C   0  0  0  0  0  0  0  0  0  0  0  0
    5.4003  -17.7117   22.4047 O   0  0  0  0  0  0  0  0  0  0  0  0
    6.0592  -17.8775   24.6531 N   0  0  0  0  0  0  0  0  0  0  0  0
    6.5806  -16.5439   24.7599 C   0  0  1  0  0  0  0  0  0  0  0  0
    6.5656  -16.0272   26.1622 C   0  0  0  0  0  0  0  0  0  0  0  0
    6.9102  -14.6144   26.3347 C   0  0  0  0  0  0  0  0  0  0  0  0
    8.2359  -14.2446   26.4788 C   0  0  0  0  0  0  0  0  0  0  0  0
    8.5679  -12.9190   26.6232 C   0  0  0  0  0  0  0  0  0  0  0  0
    7.6221  -11.9159   26.6317 C   0  0  0  0  0  0  0  0  0  0  0  0
    6.2888  -12.2773   26.4877 C   0  0  0  0  0  0  0  0  0  0  0  0
    5.9663  -13.5940   26.3449 C   0  0  0  0  0  0  0  0  0  0  0  0
    7.8441  -16.3763   24.0357 C   0  0  0  0  0  0  0  0  0  0  0  0
    8.6824  -17.3580   24.1108 O   0  0  0  0  0  0  0  0  0  0  0  0
    8.2852  -15.2898   23.2634 N   0  0  0  0  0  0  0  0  0  0  0  0
    7.8787  -13.9052   23.1992 C   0  0  0  0  0  0  0  0  0  0  0  0
    8.2663  -13.4010   21.8014 C   0  0  0  0  0  0  0  0  0  0  0  0
    8.7123  -14.6840   21.0985 C   0  0  0  0  0  0  0  0  0  0  0  0
    9.3879  -15.3573   22.2721 C   0  0  1  0  0  0  0  0  0  0  0  0
   10.5472  -14.5630   22.6904 C   0  0  0  0  0  0  0  0  0  0  0  0
   11.7189  -14.3923   22.0006 O   0  0  0  0  0  0  0  0  0  0  0  0
   10.4505  -13.9724   23.8116 O   0  0  0  0  0  0  0  0  0  0  0  0
  2  5  1  0
  2  1  1  6
  3  2  1  0
  4  3  1  0
  5  6  2  0
  7  8  1  0
  7  5  1  0
  8  9  1  1
  9 10  1  0
 10 11  2  0
 11 12  1  0
 13 12  2  0
 14 13  1  0
 15 14  2  0
 15 10  1  0
 16  8  1  0
 17 16  2  0
 18 16  1  0
 18 22  1  0
 19 20  1  0
 19 18  1  0
 20 21  1  0
 21 22  1  0
 22 23  1  1
 23 24  1  0
 25 23  2  0
M  END
$$$$
