CFP.pdb
     RDKit          3D

 25 26  0  0  1  0  0  0  0  0999 V2000
    3.8146  -20.1708   23.1413 N   0  0  0  0  0  0  0  0  0  0  0  0
    5.1318  -19.9349   23.6466 C   0  0  1  0  0  0  0  0  0  0  0  0
    6.1970  -20.6304   22.7881 C   0  0  0  0  0  0  0  0  0  0  0  0
    7.8196  -20.3271   23.5882 S   0  0  0  0  0  0  0  0  0  0  0  0
    5.4603  -18.4893   23.6890 C   0  0  0  0  0  0  0  0  0  0  0  0
    5.1328  -17.8018   22.6736 O   0  0  0  0  0  0  0  0  0  0  0  0
    6.1070  -17.9081   24.8082 N   0  0  0  0  0  0  0  0  0  0  0  0
    6.6052  -16.5616   24.8235 C   0  0  1  0  0  0  0  0  0  0  0  0
    6.7392  -16.0097   26.2059 C   0  0  0  0  0  0  0  0  0  0  0  0
    6.9810  -14.5689   26.3066 C   0  0  0  0  0  0  0  0  0  0  0  0
    8.2795  -14.0942   26.3684 C   0  0  0  0  0  0  0  0  0  0  0  0
    8.5142  -12.7424   26.4450 C   0  0  0  0  0  0  0  0  0  0  0  0
    7.4948  -11.8142   26.4638 C   0  0  0  0  0  0  0  0  0  0  0  0
    6.1882  -12.2812   26.4021 C   0  0  0  0  0  0  0  0  0  0  0  0
    5.9624  -13.6233   26.3263 C   0  0  0  0  0  0  0  0  0  0  0  0
    7.7726  -16.3859   23.9544 C   0  0  0  0  0  0  0  0  0  0  0  0
    8.6078  -17.3721   23.9100 O   0  0  0  0  0  0  0  0  0  0  0  0
    8.1236  -15.2872   23.1535 N   0  0  0  0  0  0  0  0  0  0  0  0
    7.6995  -13.9064   23.1454 C   0  0  0  0  0  0  0  0  0  0  0  0
    7.9399  -13.3845   21.7213 C   0  0  0  0  0  0  0  0  0  0  0  0
    8.3252  -14.6557   20.9634 C   0  0  0  0  0  0  0  0  0  0  0  0
    9.1217  -15.3334   22.0559 C   0  0  1  0  0  0  0  0  0  0  0  0
   10.3095  -14.5310   22.3644 C   0  0  0  0  0  0  0  0  0  0  0  0
   10.5951  -13.9078   23.5509 O   0  0  0  0  0  0  0  0  0  0  0  0
   11.1612  -14.4031   21.4298 O   0  0  0  0  0  0  0  0  0  0  0  0
  2  5  1  0
  2  1  1  6
  3  2  1  0
  4  3  1  0
  5  6  2  0
  7  8  1  0
  7  5  1  0
  8  9  1  1
  9 10  1  0
 10 11  2  0
 11 12  1  0
 13 12  2  0
 14 13  1  0
 15 14  2  0
 15 10  1  0
 16  8  1  0
 17 16  2  0
 18 16  1  0
 18 22  1  0
 19 20  1  0
 19 18  1  0
 20 21  1  0
 21 22  1  0
 22 23  1  1
 23 24  1  0
 25 23  2  0
M  END
$$$$
