CFP.pdb
     RDKit          3D

 25 26  0  0  1  0  0  0  0  0999 V2000
    5.2988  -19.9968   21.2653 N   0  0  0  0  0  0  0  0  0  0  0  0
    5.4018  -19.7641   22.6728 C   0  0  1  0  0  0  0  0  0  0  0  0
    6.1077  -20.9257   23.3854 C   0  0  0  0  0  0  0  0  0  0  0  0
    7.7974  -21.0459   22.6816 S   0  0  0  0  0  0  0  0  0  0  0  0
    6.1555  -18.5236   22.9774 C   0  0  0  0  0  0  0  0  0  0  0  0
    6.9592  -18.1130   22.0850 O   0  0  0  0  0  0  0  0  0  0  0  0
    5.9847  -17.8342   24.2038 N   0  0  0  0  0  0  0  0  0  0  0  0
    6.7546  -16.6813   24.5777 C   0  0  1  0  0  0  0  0  0  0  0  0
    6.0584  -15.8212   25.5823 C   0  0  0  0  0  0  0  0  0  0  0  0
    6.7414  -14.5811   25.9562 C   0  0  0  0  0  0  0  0  0  0  0  0
    6.4863  -13.4182   25.2507 C   0  0  0  0  0  0  0  0  0  0  0  0
    7.1102  -12.2470   25.6074 C   0  0  0  0  0  0  0  0  0  0  0  0
    7.9989  -12.1723   26.6589 C   0  0  0  0  0  0  0  0  0  0  0  0
    8.2613  -13.3344   27.3730 C   0  0  0  0  0  0  0  0  0  0  0  0
    7.6391  -14.4928   27.0139 C   0  0  0  0  0  0  0  0  0  0  0  0
    8.1488  -17.0139   24.8852 C   0  0  0  0  0  0  0  0  0  0  0  0
    8.3381  -18.0365   25.6537 O   0  0  0  0  0  0  0  0  0  0  0  0
    9.3258  -16.3747   24.4638 N   0  0  0  0  0  0  0  0  0  0  0  0
    9.5887  -15.0557   23.9368 C   0  0  0  0  0  0  0  0  0  0  0  0
   10.8809  -15.1640   23.1141 C   0  0  0  0  0  0  0  0  0  0  0  0
   11.1381  -16.6715   23.0987 C   0  0  0  0  0  0  0  0  0  0  0  0
   10.6758  -16.9906   24.5028 C   0  0  1  0  0  0  0  0  0  0  0  0
   11.5525  -16.3229   25.4699 C   0  0  0  0  0  0  0  0  0  0  0  0
   12.8114  -16.7135   25.8446 O   0  0  0  0  0  0  0  0  0  0  0  0
   11.0922  -15.2713   26.0153 O   0  0  0  0  0  0  0  0  0  0  0  0
  2  5  1  0
  2  1  1  6
  3  2  1  0
  4  3  1  0
  5  6  2  0
  7  8  1  0
  7  5  1  0
  8  9  1  1
  9 10  1  0
 10 11  2  0
 11 12  1  0
 13 12  2  0
 14 13  1  0
 15 14  2  0
 15 10  1  0
 16  8  1  0
 17 16  2  0
 18 16  1  0
 18 22  1  0
 19 20  1  0
 19 18  1  0
 20 21  1  0
 21 22  1  0
 22 23  1  1
 23 24  1  0
 25 23  2  0
M  END
$$$$
