CFP.pdb
     RDKit          3D

 25 26  0  0  1  0  0  0  0  0999 V2000
   12.3386  -16.7042   20.7106 N   0  0  0  0  0  0  0  0  0  0  0  0
   10.9830  -16.8775   21.1329 C   0  0  1  0  0  0  0  0  0  0  0  0
   10.6586  -18.3550   21.3921 C   0  0  0  0  0  0  0  0  0  0  0  0
   11.8650  -18.9646   22.6322 S   0  0  0  0  0  0  0  0  0  0  0  0
   10.6881  -16.1262   22.3772 C   0  0  0  0  0  0  0  0  0  0  0  0
   11.6871  -15.7221   23.0476 O   0  0  0  0  0  0  0  0  0  0  0  0
    9.3571  -15.8740   22.7935 N   0  0  0  0  0  0  0  0  0  0  0  0
    9.0243  -15.0865   23.9471 C   0  0  1  0  0  0  0  0  0  0  0  0
    7.6869  -14.4293   23.8330 C   0  0  0  0  0  0  0  0  0  0  0  0
    7.2561  -13.6350   24.9854 C   0  0  0  0  0  0  0  0  0  0  0  0
    6.5855  -14.2485   26.0289 C   0  0  0  0  0  0  0  0  0  0  0  0
    6.1941  -13.5127   27.1215 C   0  0  0  0  0  0  0  0  0  0  0  0
    6.4428  -12.1610   27.2311 C   0  0  0  0  0  0  0  0  0  0  0  0
    7.1154  -11.5364   26.1886 C   0  0  0  0  0  0  0  0  0  0  0  0
    7.5009  -12.2721   25.1078 C   0  0  0  0  0  0  0  0  0  0  0  0
    9.2759  -15.7987   25.2035 C   0  0  0  0  0  0  0  0  0  0  0  0
    9.2202  -17.0896   25.1518 O   0  0  0  0  0  0  0  0  0  0  0  0
    9.5702  -15.2775   26.4737 N   0  0  0  0  0  0  0  0  0  0  0  0
    9.1781  -14.0617   27.1479 C   0  0  0  0  0  0  0  0  0  0  0  0
   10.2654  -13.7722   28.1930 C   0  0  0  0  0  0  0  0  0  0  0  0
   11.3321  -14.8160   27.8589 C   0  0  0  0  0  0  0  0  0  0  0  0
   10.4153  -15.9594   27.4856 C   0  0  1  0  0  0  0  0  0  0  0  0
    9.6384  -16.3667   28.6605 C   0  0  0  0  0  0  0  0  0  0  0  0
    8.2764  -16.3165   28.8031 O   0  0  0  0  0  0  0  0  0  0  0  0
   10.3024  -16.8128   29.6480 O   0  0  0  0  0  0  0  0  0  0  0  0
  2  5  1  0
  2  1  1  1
  3  2  1  0
  4  3  1  0
  5  6  2  0
  7  8  1  0
  7  5  1  0
  8  9  1  6
  9 10  1  0
 10 11  2  0
 11 12  1  0
 13 12  2  0
 14 13  1  0
 15 14  2  0
 15 10  1  0
 16  8  1  0
 17 16  2  0
 18 16  1  0
 18 22  1  0
 19 20  1  0
 19 18  1  0
 20 21  1  0
 21 22  1  0
 22 23  1  1
 23 24  1  0
 25 23  2  0
M  END
$$$$
