CFP.pdb
     RDKit          3D

 25 26  0  0  1  0  0  0  0  0999 V2000
   12.1051  -16.7034   20.4304 N   0  0  0  0  0  0  0  0  0  0  0  0
   10.8359  -16.9898   21.0245 C   0  0  1  0  0  0  0  0  0  0  0  0
   10.7341  -18.4596   21.4542 C   0  0  0  0  0  0  0  0  0  0  0  0
   12.1262  -18.7852   22.6034 S   0  0  0  0  0  0  0  0  0  0  0  0
   10.5803  -16.1516   22.2211 C   0  0  0  0  0  0  0  0  0  0  0  0
   11.5963  -15.6413   22.7852 O   0  0  0  0  0  0  0  0  0  0  0  0
    9.2671  -15.9335   22.7072 N   0  0  0  0  0  0  0  0  0  0  0  0
    8.9721  -15.1196   23.8528 C   0  0  1  0  0  0  0  0  0  0  0  0
    7.6382  -14.4518   23.7602 C   0  0  0  0  0  0  0  0  0  0  0  0
    7.2052  -13.7051   24.9432 C   0  0  0  0  0  0  0  0  0  0  0  0
    7.5458  -12.3701   25.0740 C   0  0  0  0  0  0  0  0  0  0  0  0
    7.1278  -11.6587   26.1728 C   0  0  0  0  0  0  0  0  0  0  0  0
    6.3676  -12.2235   27.1749 C   0  0  0  0  0  0  0  0  0  0  0  0
    6.0209  -13.5629   27.0524 C   0  0  0  0  0  0  0  0  0  0  0  0
    6.4388  -14.2629   25.9599 C   0  0  0  0  0  0  0  0  0  0  0  0
    9.2502  -15.8085   25.1165 C   0  0  0  0  0  0  0  0  0  0  0  0
    9.1758  -17.0993   25.0942 O   0  0  0  0  0  0  0  0  0  0  0  0
    9.5878  -15.2648   26.3663 N   0  0  0  0  0  0  0  0  0  0  0  0
    9.2736  -14.0075   27.0041 C   0  0  0  0  0  0  0  0  0  0  0  0
   10.3872  -13.7479   28.0292 C   0  0  0  0  0  0  0  0  0  0  0  0
   11.3884  -14.8618   27.7197 C   0  0  0  0  0  0  0  0  0  0  0  0
   10.4034  -15.9616   27.3922 C   0  0  1  0  0  0  0  0  0  0  0  0
    9.6173  -16.2856   28.5867 C   0  0  0  0  0  0  0  0  0  0  0  0
    8.2578  -16.1869   28.7278 O   0  0  0  0  0  0  0  0  0  0  0  0
   10.2698  -16.7015   29.5949 O   0  0  0  0  0  0  0  0  0  0  0  0
  2  5  1  0
  2  1  1  1
  3  2  1  0
  4  3  1  0
  5  6  2  0
  7  8  1  0
  7  5  1  0
  8  9  1  1
  9 10  1  0
 10 11  2  0
 11 12  1  0
 13 12  2  0
 14 13  1  0
 15 14  2  0
 15 10  1  0
 16  8  1  0
 17 16  2  0
 18 16  1  0
 18 22  1  0
 19 20  1  0
 19 18  1  0
 20 21  1  0
 21 22  1  0
 22 23  1  1
 23 24  1  0
 25 23  2  0
M  END
$$$$
