CFP.pdb
     RDKit          3D

 25 26  0  0  1  0  0  0  0  0999 V2000
    4.7060  -20.3964   22.5256 N   0  0  0  0  0  0  0  0  0  0  0  0
    5.3323  -20.0527   23.7648 C   0  0  1  0  0  0  0  0  0  0  0  0
    6.4802  -21.0143   24.1012 C   0  0  0  0  0  0  0  0  0  0  0  0
    6.3718  -22.4186   22.9261 S   0  0  0  0  0  0  0  0  0  0  0  0
    5.8876  -18.6776   23.7444 C   0  0  0  0  0  0  0  0  0  0  0  0
    6.1870  -18.2022   22.6063 O   0  0  0  0  0  0  0  0  0  0  0  0
    6.0730  -17.9348   24.9371 N   0  0  0  0  0  0  0  0  0  0  0  0
    6.6664  -16.6277   24.9714 C   0  0  1  0  0  0  0  0  0  0  0  0
    6.2512  -15.8348   26.1683 C   0  0  0  0  0  0  0  0  0  0  0  0
    6.7442  -14.4575   26.2346 C   0  0  0  0  0  0  0  0  0  0  0  0
    8.0050  -14.2044   26.7458 C   0  0  0  0  0  0  0  0  0  0  0  0
    8.4811  -12.9163   26.7945 C   0  0  0  0  0  0  0  0  0  0  0  0
    7.7462  -11.8383   26.3484 C   0  0  0  0  0  0  0  0  0  0  0  0
    6.4795  -12.0825   25.8336 C   0  0  0  0  0  0  0  0  0  0  0  0
    6.0134  -13.3626   25.7881 C   0  0  0  0  0  0  0  0  0  0  0  0
    8.1066  -16.6586   24.6995 C   0  0  0  0  0  0  0  0  0  0  0  0
    8.7833  -17.5837   25.2982 O   0  0  0  0  0  0  0  0  0  0  0  0
    8.8708  -15.8176   23.8747 N   0  0  0  0  0  0  0  0  0  0  0  0
    8.6875  -14.4570   23.4256 C   0  0  0  0  0  0  0  0  0  0  0  0
    9.4751  -14.3204   22.1144 C   0  0  0  0  0  0  0  0  0  0  0  0
    9.9004  -15.7620   21.8319 C   0  0  0  0  0  0  0  0  0  0  0  0
   10.1646  -16.1991   23.2553 C   0  0  1  0  0  0  0  0  0  0  0  0
   11.2820  -15.4251   23.8051 C   0  0  0  0  0  0  0  0  0  0  0  0
   12.6095  -15.5641   23.4950 O   0  0  0  0  0  0  0  0  0  0  0  0
   10.9829  -14.5322   24.6586 O   0  0  0  0  0  0  0  0  0  0  0  0
  2  5  1  0
  2  1  1  6
  3  2  1  0
  4  3  1  0
  5  6  2  0
  7  8  1  0
  7  5  1  0
  8  9  1  1
  9 10  1  0
 10 11  2  0
 11 12  1  0
 13 12  2  0
 14 13  1  0
 15 14  2  0
 15 10  1  0
 16  8  1  0
 17 16  2  0
 18 16  1  0
 18 22  1  0
 19 20  1  0
 19 18  1  0
 20 21  1  0
 21 22  1  0
 22 23  1  1
 23 24  1  0
 25 23  2  0
M  END
$$$$
