CFP.pdb
     RDKit          3D

 25 26  0  0  1  0  0  0  0  0999 V2000
    4.1150  -20.1996   23.1859 N   0  0  0  0  0  0  0  0  0  0  0  0
    5.3701  -19.9722   23.8333 C   0  0  1  0  0  0  0  0  0  0  0  0
    6.4981  -20.7765   23.1729 C   0  0  0  0  0  0  0  0  0  0  0  0
    7.9876  -20.5850   24.2262 S   0  0  0  0  0  0  0  0  0  0  0  0
    5.7596  -18.5415   23.8037 C   0  0  0  0  0  0  0  0  0  0  0  0
    5.6750  -17.9522   22.6827 O   0  0  0  0  0  0  0  0  0  0  0  0
    6.2033  -17.8693   24.9698 N   0  0  0  0  0  0  0  0  0  0  0  0
    6.6317  -16.4989   24.9789 C   0  0  1  0  0  0  0  0  0  0  0  0
    6.5658  -15.8809   26.3381 C   0  0  0  0  0  0  0  0  0  0  0  0
    6.8405  -14.4443   26.4095 C   0  0  0  0  0  0  0  0  0  0  0  0
    5.7886  -13.5478   26.4819 C   0  0  0  0  0  0  0  0  0  0  0  0
    6.0394  -12.1994   26.5670 C   0  0  0  0  0  0  0  0  0  0  0  0
    7.3181  -11.6841   26.5842 C   0  0  0  0  0  0  0  0  0  0  0  0
    8.3803  -12.5761   26.5119 C   0  0  0  0  0  0  0  0  0  0  0  0
    8.1246  -13.9124   26.4277 C   0  0  0  0  0  0  0  0  0  0  0  0
    7.8891  -16.2999   24.2520 C   0  0  0  0  0  0  0  0  0  0  0  0
    8.7587  -17.2530   24.3391 O   0  0  0  0  0  0  0  0  0  0  0  0
    8.2949  -15.2096   23.4657 N   0  0  0  0  0  0  0  0  0  0  0  0
    7.9779  -13.8010   23.5071 C   0  0  0  0  0  0  0  0  0  0  0  0
    8.2073  -13.2602   22.0883 C   0  0  0  0  0  0  0  0  0  0  0  0
    8.4672  -14.5358   21.2857 C   0  0  0  0  0  0  0  0  0  0  0  0
    9.2473  -15.3013   22.3310 C   0  0  1  0  0  0  0  0  0  0  0  0
   10.5033  -14.5999   22.6147 C   0  0  0  0  0  0  0  0  0  0  0  0
   11.6104  -14.5383   21.8095 O   0  0  0  0  0  0  0  0  0  0  0  0
   10.5671  -13.9857   23.7254 O   0  0  0  0  0  0  0  0  0  0  0  0
  2  5  1  0
  2  1  1  6
  3  2  1  0
  4  3  1  0
  5  6  2  0
  7  8  1  0
  7  5  1  0
  8  9  1  1
  9 10  1  0
 10 11  2  0
 11 12  1  0
 13 12  2  0
 14 13  1  0
 15 14  2  0
 15 10  1  0
 16  8  1  0
 17 16  2  0
 18 16  1  0
 18 22  1  0
 19 20  1  0
 19 18  1  0
 20 21  1  0
 21 22  1  0
 22 23  1  1
 23 24  1  0
 25 23  2  0
M  END
$$$$
