CFP.pdb
     RDKit          3D

 25 26  0  0  1  0  0  0  0  0999 V2000
    4.1937  -20.2538   22.9414 N   0  0  0  0  0  0  0  0  0  0  0  0
    5.3968  -20.0158   23.6776 C   0  0  1  0  0  0  0  0  0  0  0  0
    6.5775  -20.8062   23.0976 C   0  0  0  0  0  0  0  0  0  0  0  0
    7.9193  -20.7703   24.3480 S   0  0  0  0  0  0  0  0  0  0  0  0
    5.7724  -18.5810   23.6799 C   0  0  0  0  0  0  0  0  0  0  0  0
    5.7293  -17.9802   22.5627 O   0  0  0  0  0  0  0  0  0  0  0  0
    6.1593  -17.9175   24.8709 N   0  0  0  0  0  0  0  0  0  0  0  0
    6.5927  -16.5491   24.9097 C   0  0  1  0  0  0  0  0  0  0  0  0
    6.4737  -15.9427   26.2706 C   0  0  0  0  0  0  0  0  0  0  0  0
    6.8420  -14.5300   26.3836 C   0  0  0  0  0  0  0  0  0  0  0  0
    5.8516  -13.5642   26.4242 C   0  0  0  0  0  0  0  0  0  0  0  0
    6.1894  -12.2380   26.5481 C   0  0  0  0  0  0  0  0  0  0  0  0
    7.4980  -11.8128   26.6360 C   0  0  0  0  0  0  0  0  0  0  0  0
    8.4991  -12.7748   26.5962 C   0  0  0  0  0  0  0  0  0  0  0  0
    8.1571  -14.0886   26.4731 C   0  0  0  0  0  0  0  0  0  0  0  0
    7.8796  -16.3494   24.2367 C   0  0  0  0  0  0  0  0  0  0  0  0
    8.7755  -17.2615   24.4304 O   0  0  0  0  0  0  0  0  0  0  0  0
    8.2892  -15.2968   23.4025 N   0  0  0  0  0  0  0  0  0  0  0  0
    7.8551  -13.9252   23.2723 C   0  0  0  0  0  0  0  0  0  0  0  0
    8.2139  -13.4877   21.8446 C   0  0  0  0  0  0  0  0  0  0  0  0
    8.6749  -14.7972   21.2030 C   0  0  0  0  0  0  0  0  0  0  0  0
    9.3793  -15.3956   22.4001 C   0  0  1  0  0  0  0  0  0  0  0  0
   10.5287  -14.5592   22.7595 C   0  0  0  0  0  0  0  0  0  0  0  0
   11.7242  -14.4754   22.0951 O   0  0  0  0  0  0  0  0  0  0  0  0
   10.3975  -13.8374   23.7973 O   0  0  0  0  0  0  0  0  0  0  0  0
  2  5  1  0
  2  1  1  6
  3  2  1  0
  4  3  1  0
  5  6  2  0
  7  8  1  0
  7  5  1  0
  8  9  1  1
  9 10  1  0
 10 11  2  0
 11 12  1  0
 13 12  2  0
 14 13  1  0
 15 14  2  0
 15 10  1  0
 16  8  1  0
 17 16  2  0
 18 16  1  0
 18 22  1  0
 19 20  1  0
 19 18  1  0
 20 21  1  0
 21 22  1  0
 22 23  1  1
 23 24  1  0
 25 23  2  0
M  END
$$$$
