LVL.pdb
     RDKit          3D

 24 23  0  0  1  0  0  0  0  0999 V2000
   28.9157  -19.5691  -15.8815 C   0  0  0  0  0  0  0  0  0  0  0  0
   27.9911  -18.3936  -16.0505 C   0  0  2  0  0  0  0  0  0  0  0  0
   28.7601  -17.2381  -16.6007 C   0  0  0  0  0  0  0  0  0  0  0  0
   27.3533  -18.0592  -14.6978 C   0  0  0  0  0  0  0  0  0  0  0  0
   26.6747  -19.3203  -14.2265 C   0  0  2  0  0  0  0  0  0  0  0  0
   25.5957  -19.6124  -15.1479 N   0  0  0  0  0  0  0  0  0  0  0  0
   26.0927  -19.1769  -12.8735 C   0  0  0  0  0  0  0  0  0  0  0  0
   25.6645  -18.0700  -12.4254 O   0  0  0  0  0  0  0  0  0  0  0  0
   23.0289  -20.4211  -11.7567 C   0  0  0  0  0  0  0  0  0  0  0  0
   23.9977  -20.9243  -10.7315 C   0  0  2  0  0  0  0  0  0  0  0  0
   23.2925  -20.7429   -9.3735 C   0  0  0  0  0  0  0  0  0  0  0  0
   25.2822  -20.1770  -10.6865 C   0  0  2  0  0  0  0  0  0  0  0  0
   25.9757  -20.2769  -11.9843 N   0  0  0  0  0  0  0  0  0  0  0  0
   26.2062  -20.6364   -9.6146 C   0  0  0  0  0  0  0  0  0  0  0  0
   26.7337  -21.7903   -9.6666 O   0  0  0  0  0  0  0  0  0  0  0  0
   29.5654  -18.1737   -5.0886 C   0  0  0  0  0  0  0  0  0  0  0  0
   28.9076  -19.3998   -5.6305 C   0  0  1  0  0  0  0  0  0  0  0  0
   28.2269  -20.1803   -4.4975 C   0  0  0  0  0  0  0  0  0  0  0  0
   28.0367  -19.2639   -6.8037 C   0  0  0  0  0  0  0  0  0  0  0  0
   27.2754  -20.4350   -7.3368 C   0  0  2  0  0  0  0  0  0  0  0  0
   26.5528  -19.8500   -8.5075 N   0  0  0  0  0  0  0  0  0  0  0  0
   26.3279  -21.0655   -6.4447 C   0  0  0  0  0  0  0  0  0  0  0  0
   25.1755  -20.4605   -6.0198 O   0  0  0  0  0  0  0  0  0  0  0  0
   26.5553  -22.2391   -6.0121 O   0  0  0  0  0  0  0  0  0  0  0  0
  2  1  1  1
  2  3  1  0
  4  2  1  0
  4  5  1  0
  5  7  1  0
  5  6  1  6
  7  8  2  0
 10  9  1  6
 10 12  1  0
 10 11  1  0
 13  7  1  0
 12 13  1  6
 14 15  2  0
 14 12  1  0
 17 16  1  1
 17 19  1  0
 18 17  1  0
 20 19  1  1
 20 21  1  0
 21 14  1  0
 22 20  1  0
 22 23  1  0
 24 22  2  0
M  END
$$$$
