LVL.pdb
     RDKit          3D

 24 23  0  0  1  0  0  0  0  0999 V2000
   19.1859  -12.3393    4.1293 C   0  0  0  0  0  0  0  0  0  0  0  0
   19.0480  -11.8093    5.5313 C   0  0  2  0  0  0  0  0  0  0  0  0
   20.2148  -10.9310    5.8419 C   0  0  0  0  0  0  0  0  0  0  0  0
   18.9492  -12.9882    6.5052 C   0  0  0  0  0  0  0  0  0  0  0  0
   17.7987  -13.8371    6.0268 C   0  0  2  0  0  0  0  0  0  0  0  0
   16.5759  -13.0963    6.2603 N   0  0  0  0  0  0  0  0  0  0  0  0
   17.7012  -15.1201    6.7576 C   0  0  0  0  0  0  0  0  0  0  0  0
   17.1691  -15.2166    7.9052 O   0  0  0  0  0  0  0  0  0  0  0  0
   16.1987  -18.6173    5.8866 C   0  0  0  0  0  0  0  0  0  0  0  0
   17.6711  -18.7035    6.1461 C   0  0  2  0  0  0  0  0  0  0  0  0
   17.8780  -20.0230    6.9146 C   0  0  0  0  0  0  0  0  0  0  0  0
   18.2103  -17.5964    6.9791 C   0  0  2  0  0  0  0  0  0  0  0  0
   18.2004  -16.3337    6.2170 N   0  0  0  0  0  0  0  0  0  0  0  0
   19.5895  -17.8404    7.4814 C   0  0  0  0  0  0  0  0  0  0  0  0
   20.5742  -17.8655    6.6801 O   0  0  0  0  0  0  0  0  0  0  0  0
   24.2301  -17.1007    9.8049 C   0  0  0  0  0  0  0  0  0  0  0  0
   22.9781  -16.8552   10.5808 C   0  0  1  0  0  0  0  0  0  0  0  0
   23.0744  -15.5206   11.3330 C   0  0  0  0  0  0  0  0  0  0  0  0
   21.6903  -17.0063    9.8936 C   0  0  0  0  0  0  0  0  0  0  0  0
   21.2915  -18.3123    9.2848 C   0  0  2  0  0  0  0  0  0  0  0  0
   19.8906  -18.0489    8.8342 N   0  0  0  0  0  0  0  0  0  0  0  0
   21.3164  -19.4745   10.1449 C   0  0  0  0  0  0  0  0  0  0  0  0
   22.3729  -20.3431   10.2075 O   0  0  0  0  0  0  0  0  0  0  0  0
   20.3161  -19.7304   10.8865 O   0  0  0  0  0  0  0  0  0  0  0  0
  2  1  1  6
  2  3  1  0
  4  2  1  0
  4  5  1  0
  5  7  1  0
  5  6  1  1
  7  8  2  0
 10  9  1  1
 10 12  1  0
 10 11  1  0
 13  7  1  0
 12 13  1  6
 14 15  2  0
 14 12  1  0
 17 16  1  6
 17 19  1  0
 18 17  1  0
 20 19  1  1
 20 21  1  0
 21 14  1  0
 22 20  1  0
 22 23  1  0
 24 22  2  0
M  END
$$$$
