LVL.pdb
     RDKit          3D

 24 23  0  0  1  0  0  0  0  0999 V2000
   28.4355  -16.5664  -15.9916 C   0  0  0  0  0  0  0  0  0  0  0  0
   27.1835  -15.7464  -15.8318 C   0  0  2  0  0  0  0  0  0  0  0  0
   27.5569  -14.3240  -15.5739 C   0  0  0  0  0  0  0  0  0  0  0  0
   26.3448  -16.3298  -14.6897 C   0  0  0  0  0  0  0  0  0  0  0  0
   26.0856  -17.7711  -15.0483 C   0  0  2  0  0  0  0  0  0  0  0  0
   25.1945  -17.7889  -16.1904 N   0  0  0  0  0  0  0  0  0  0  0  0
   25.4338  -18.5182  -13.9497 C   0  0  0  0  0  0  0  0  0  0  0  0
   24.2872  -18.2142  -13.4999 O   0  0  0  0  0  0  0  0  0  0  0  0
   24.0882  -21.8037  -13.9829 C   0  0  0  0  0  0  0  0  0  0  0  0
   25.0717  -21.8017  -12.8535 C   0  0  2  0  0  0  0  0  0  0  0  0
   24.4165  -22.6341  -11.7344 C   0  0  0  0  0  0  0  0  0  0  0  0
   25.3717  -20.4519  -12.3074 C   0  0  2  0  0  0  0  0  0  0  0  0
   26.0547  -19.6308  -13.3245 N   0  0  0  0  0  0  0  0  0  0  0  0
   26.2042  -20.4749  -11.0744 C   0  0  0  0  0  0  0  0  0  0  0  0
   27.3703  -20.9771  -11.0912 O   0  0  0  0  0  0  0  0  0  0  0  0
   28.1390  -17.7669   -6.2439 C   0  0  0  0  0  0  0  0  0  0  0  0
   27.9364  -19.0197   -7.0309 C   0  0  1  0  0  0  0  0  0  0  0  0
   28.0694  -20.2462   -6.1175 C   0  0  0  0  0  0  0  0  0  0  0  0
   26.7621  -19.1118   -7.9061 C   0  0  0  0  0  0  0  0  0  0  0  0
   26.3875  -20.4042   -8.5577 C   0  0  2  0  0  0  0  0  0  0  0  0
   25.7748  -19.9556   -9.8455 N   0  0  0  0  0  0  0  0  0  0  0  0
   25.4593  -21.2552   -7.8468 C   0  0  0  0  0  0  0  0  0  0  0  0
   25.8494  -22.1997   -6.9356 O   0  0  0  0  0  0  0  0  0  0  0  0
   24.2117  -21.1465   -8.0651 O   0  0  0  0  0  0  0  0  0  0  0  0
  2  1  1  1
  2  3  1  0
  4  2  1  0
  4  5  1  0
  5  7  1  0
  5  6  1  6
  7  8  2  0
 10  9  1  6
 10 12  1  0
 10 11  1  0
 13  7  1  0
 12 13  1  6
 14 15  2  0
 14 12  1  0
 17 16  1  1
 17 19  1  0
 18 17  1  0
 20 19  1  1
 20 21  1  0
 21 14  1  0
 22 20  1  0
 22 23  1  0
 24 22  2  0
M  END
$$$$
