LVL.pdb
     RDKit          3D

 24 23  0  0  1  0  0  0  0  0999 V2000
   28.3535  -18.4754  -16.8538 C   0  0  0  0  0  0  0  0  0  0  0  0
   28.0258  -17.0579  -16.4683 C   0  0  2  0  0  0  0  0  0  0  0  0
   29.2941  -16.3105  -16.2186 C   0  0  0  0  0  0  0  0  0  0  0  0
   27.1212  -17.0713  -15.2316 C   0  0  0  0  0  0  0  0  0  0  0  0
   27.1813  -18.4725  -14.6784 C   0  0  2  0  0  0  0  0  0  0  0  0
   26.6607  -19.3696  -15.6898 N   0  0  0  0  0  0  0  0  0  0  0  0
   26.3589  -18.6341  -13.4587 C   0  0  0  0  0  0  0  0  0  0  0  0
   25.8423  -17.6513  -12.8452 O   0  0  0  0  0  0  0  0  0  0  0  0
   23.2155  -20.3526  -13.3246 C   0  0  0  0  0  0  0  0  0  0  0  0
   24.0047  -20.9293  -12.1900 C   0  0  2  0  0  0  0  0  0  0  0  0
   23.0217  -21.0173  -11.0066 C   0  0  0  0  0  0  0  0  0  0  0  0
   25.1619  -20.0978  -11.7661 C   0  0  2  0  0  0  0  0  0  0  0  0
   26.0938  -19.9087  -12.8935 N   0  0  0  0  0  0  0  0  0  0  0  0
   25.9151  -20.6611  -10.6131 C   0  0  0  0  0  0  0  0  0  0  0  0
   26.4797  -21.7950  -10.7018 O   0  0  0  0  0  0  0  0  0  0  0  0
   29.0690  -20.7081   -6.0405 C   0  0  0  0  0  0  0  0  0  0  0  0
   27.8252  -19.8832   -6.0887 C   0  0  1  0  0  0  0  0  0  0  0  0
   28.0105  -18.5975   -5.2710 C   0  0  0  0  0  0  0  0  0  0  0  0
   27.2133  -19.6190   -7.3960 C   0  0  0  0  0  0  0  0  0  0  0  0
   26.5507  -20.7126   -8.1707 C   0  0  2  0  0  0  0  0  0  0  0  0
   26.0542  -19.9979   -9.3863 N   0  0  0  0  0  0  0  0  0  0  0  0
   25.4536  -21.4025   -7.5290 C   0  0  0  0  0  0  0  0  0  0  0  0
   25.5870  -22.6142   -6.9057 O   0  0  0  0  0  0  0  0  0  0  0  0
   24.2935  -20.8828   -7.5351 O   0  0  0  0  0  0  0  0  0  0  0  0
  2  1  1  1
  2  3  1  0
  4  2  1  0
  4  5  1  0
  5  7  1  0
  5  6  1  6
  7  8  2  0
 10  9  1  6
 10 12  1  0
 10 11  1  0
 13  7  1  0
 12 13  1  6
 14 15  2  0
 14 12  1  0
 17 16  1  6
 17 19  1  0
 18 17  1  0
 20 19  1  1
 20 21  1  0
 21 14  1  0
 22 20  1  0
 22 23  1  0
 24 22  2  0
M  END
$$$$
