LVL.pdb
     RDKit          3D

 24 23  0  0  1  0  0  0  0  0999 V2000
   23.0100  -14.7327  -14.6763 C   0  0  0  0  0  0  0  0  0  0  0  0
   23.8421  -14.1714  -15.7979 C   0  0  2  0  0  0  0  0  0  0  0  0
   25.2630  -14.0668  -15.3513 C   0  0  0  0  0  0  0  0  0  0  0  0
   23.2743  -12.8091  -16.2098 C   0  0  0  0  0  0  0  0  0  0  0  0
   21.8906  -13.0724  -16.7476 C   0  0  2  0  0  0  0  0  0  0  0  0
   22.0296  -13.8406  -17.9679 N   0  0  0  0  0  0  0  0  0  0  0  0
   21.1647  -11.8249  -17.0743 C   0  0  0  0  0  0  0  0  0  0  0  0
   21.4320  -11.1242  -18.0975 O   0  0  0  0  0  0  0  0  0  0  0  0
   17.4832  -11.2145  -17.8095 C   0  0  0  0  0  0  0  0  0  0  0  0
   17.9085  -10.3867  -16.6362 C   0  0  2  0  0  0  0  0  0  0  0  0
   17.1652   -9.0453  -16.7866 C   0  0  0  0  0  0  0  0  0  0  0  0
   19.3668  -10.1016  -16.5864 C   0  0  2  0  0  0  0  0  0  0  0  0
   20.1152  -11.3292  -16.2575 N   0  0  0  0  0  0  0  0  0  0  0  0
   19.7377   -9.0405  -15.6115 C   0  0  0  0  0  0  0  0  0  0  0  0
   19.5957   -9.2305  -14.3641 O   0  0  0  0  0  0  0  0  0  0  0  0
   23.6758   -4.3543  -15.7386 C   0  0  0  0  0  0  0  0  0  0  0  0
   22.5044   -4.9556  -15.0343 C   0  0  1  0  0  0  0  0  0  0  0  0
   21.5307   -3.8549  -14.5912 C   0  0  0  0  0  0  0  0  0  0  0  0
   21.8089   -6.0799  -15.6713 C   0  0  0  0  0  0  0  0  0  0  0  0
   20.7023   -6.7982  -14.9681 C   0  0  2  0  0  0  0  0  0  0  0  0
   20.2586   -7.7954  -15.9897 N   0  0  0  0  0  0  0  0  0  0  0  0
   19.5719   -6.0056  -14.5378 C   0  0  0  0  0  0  0  0  0  0  0  0
   19.3785   -5.6107  -13.2411 O   0  0  0  0  0  0  0  0  0  0  0  0
   18.6938   -5.6492  -15.3852 O   0  0  0  0  0  0  0  0  0  0  0  0
  2  1  1  1
  2  3  1  0
  4  2  1  0
  4  5  1  0
  5  7  1  0
  5  6  1  6
  7  8  2  0
 10  9  1  6
 10 12  1  0
 10 11  1  0
 13  7  1  0
 12 13  1  1
 14 15  2  0
 14 12  1  0
 17 16  1  6
 17 19  1  0
 18 17  1  0
 20 19  1  6
 20 21  1  0
 21 14  1  0
 22 20  1  0
 22 23  1  0
 24 22  2  0
M  END
$$$$
