LVL.pdb
     RDKit          3D

 24 23  0  0  1  0  0  0  0  0999 V2000
   24.9421  -18.4891  -18.6667 C   0  0  0  0  0  0  0  0  0  0  0  0
   24.2848  -19.8432  -18.6622 C   0  0  2  0  0  0  0  0  0  0  0  0
   22.8321  -19.6857  -18.9690 C   0  0  0  0  0  0  0  0  0  0  0  0
   24.5090  -20.5046  -17.2983 C   0  0  0  0  0  0  0  0  0  0  0  0
   25.9986  -20.6909  -17.1580 C   0  0  2  0  0  0  0  0  0  0  0  0
   26.3954  -21.7638  -18.0468 N   0  0  0  0  0  0  0  0  0  0  0  0
   26.3936  -21.0685  -15.7827 C   0  0  0  0  0  0  0  0  0  0  0  0
   26.2642  -22.2470  -15.3315 O   0  0  0  0  0  0  0  0  0  0  0  0
   29.8068  -20.6232  -14.2625 C   0  0  0  0  0  0  0  0  0  0  0  0
   28.8069  -20.0361  -13.3147 C   0  0  2  0  0  0  0  0  0  0  0  0
   29.2545  -20.4876  -11.9110 C   0  0  0  0  0  0  0  0  0  0  0  0
   27.4134  -20.5083  -13.5274 C   0  0  2  0  0  0  0  0  0  0  0  0
   26.9466  -20.1289  -14.8741 N   0  0  0  0  0  0  0  0  0  0  0  0
   26.4449  -19.9914  -12.5230 C   0  0  0  0  0  0  0  0  0  0  0  0
   25.8576  -18.8801  -12.7036 O   0  0  0  0  0  0  0  0  0  0  0  0
   21.8957  -19.0662  -10.8095 C   0  0  0  0  0  0  0  0  0  0  0  0
   22.3903  -20.4485  -11.0819 C   0  0  1  0  0  0  0  0  0  0  0  0
   21.4243  -21.1808  -12.0236 C   0  0  0  0  0  0  0  0  0  0  0  0
   23.7898  -20.6216  -11.4881 C   0  0  0  0  0  0  0  0  0  0  0  0
   24.9085  -20.3119  -10.5459 C   0  0  2  0  0  0  0  0  0  0  0  0
   26.1188  -20.6760  -11.3443 N   0  0  0  0  0  0  0  0  0  0  0  0
   24.9239  -21.0220   -9.2862 C   0  0  0  0  0  0  0  0  0  0  0  0
   25.4145  -22.2923   -9.1434 O   0  0  0  0  0  0  0  0  0  0  0  0
   24.4578  -20.4642   -8.2434 O   0  0  0  0  0  0  0  0  0  0  0  0
  2  1  1  1
  2  3  1  0
  4  2  1  0
  4  5  1  0
  5  7  1  0
  5  6  1  6
  7  8  2  0
 10  9  1  6
 10 12  1  0
 10 11  1  0
 13  7  1  0
 12 13  1  6
 14 15  2  0
 14 12  1  0
 17 16  1  6
 17 19  1  0
 18 17  1  0
 20 19  1  6
 20 21  1  0
 21 14  1  0
 22 20  1  0
 22 23  1  0
 24 22  2  0
M  END
$$$$
