LVL.pdb
     RDKit          3D

 24 23  0  0  1  0  0  0  0  0999 V2000
   33.1156  -22.3425   -9.8396 C   0  0  0  0  0  0  0  0  0  0  0  0
   32.1042  -22.6071  -10.9224 C   0  0  2  0  0  0  0  0  0  0  0  0
   32.7166  -23.4848  -11.9636 C   0  0  0  0  0  0  0  0  0  0  0  0
   31.6368  -21.2709  -11.5090 C   0  0  0  0  0  0  0  0  0  0  0  0
   30.4633  -21.5876  -12.4011 C   0  0  2  0  0  0  0  0  0  0  0  0
   30.8421  -21.2633  -13.7613 N   0  0  0  0  0  0  0  0  0  0  0  0
   29.2633  -20.7917  -12.0599 C   0  0  0  0  0  0  0  0  0  0  0  0
   29.2403  -19.5248  -12.1230 O   0  0  0  0  0  0  0  0  0  0  0  0
   26.0936  -20.1686  -13.5610 C   0  0  0  0  0  0  0  0  0  0  0  0
   25.7829  -20.7597  -12.2206 C   0  0  2  0  0  0  0  0  0  0  0  0
   24.5564  -19.9842  -11.7021 C   0  0  0  0  0  0  0  0  0  0  0  0
   26.8745  -20.6155  -11.2216 C   0  0  2  0  0  0  0  0  0  0  0  0
   28.0525  -21.3996  -11.6372 N   0  0  0  0  0  0  0  0  0  0  0  0
   26.4870  -21.0285   -9.8457 C   0  0  0  0  0  0  0  0  0  0  0  0
   26.2100  -22.2407   -9.5886 O   0  0  0  0  0  0  0  0  0  0  0  0
   28.5690  -18.4914   -5.4459 C   0  0  0  0  0  0  0  0  0  0  0  0
   27.9642  -19.6344   -6.1925 C   0  0  1  0  0  0  0  0  0  0  0  0
   28.3645  -20.9646   -5.5395 C   0  0  0  0  0  0  0  0  0  0  0  0
   26.5308  -19.5848   -6.5031 C   0  0  0  0  0  0  0  0  0  0  0  0
   25.9093  -20.5799   -7.4296 C   0  0  2  0  0  0  0  0  0  0  0  0
   26.4071  -20.1364   -8.7677 N   0  0  0  0  0  0  0  0  0  0  0  0
   24.4651  -20.6516   -7.4462 C   0  0  0  0  0  0  0  0  0  0  0  0
   23.7404  -21.4477   -6.6002 O   0  0  0  0  0  0  0  0  0  0  0  0
   23.8098  -19.9552   -8.2839 O   0  0  0  0  0  0  0  0  0  0  0  0
  2  1  1  1
  2  3  1  0
  4  2  1  0
  4  5  1  0
  5  7  1  0
  5  6  1  6
  7  8  2  0
 10  9  1  6
 10 12  1  0
 10 11  1  0
 13  7  1  0
 12 13  1  6
 14 15  2  0
 14 12  1  0
 17 16  1  1
 17 19  1  0
 18 17  1  0
 20 19  1  1
 20 21  1  0
 21 14  1  0
 22 20  1  0
 22 23  1  0
 24 22  2  0
M  END
$$$$
