LVL.pdb
     RDKit          3D

 24 23  0  0  1  0  0  0  0  0999 V2000
   20.2938  -21.4345  -18.3102 C   0  0  0  0  0  0  0  0  0  0  0  0
   21.3010  -22.5483  -18.2082 C   0  0  2  0  0  0  0  0  0  0  0  0
   20.8771  -23.6769  -19.0890 C   0  0  0  0  0  0  0  0  0  0  0  0
   21.4197  -22.9840  -16.7439 C   0  0  0  0  0  0  0  0  0  0  0  0
   21.8813  -21.7706  -15.9773 C   0  0  2  0  0  0  0  0  0  0  0  0
   23.3100  -21.6386  -16.1774 N   0  0  0  0  0  0  0  0  0  0  0  0
   21.6338  -21.8931  -14.5234 C   0  0  0  0  0  0  0  0  0  0  0  0
   22.3418  -22.6251  -13.7669 O   0  0  0  0  0  0  0  0  0  0  0  0
   21.0180  -19.0631  -11.7621 C   0  0  0  0  0  0  0  0  0  0  0  0
   19.8984  -20.0544  -11.8441 C   0  0  2  0  0  0  0  0  0  0  0  0
   19.4638  -20.3073  -10.3875 C   0  0  0  0  0  0  0  0  0  0  0  0
   20.2814  -21.3600  -12.4433 C   0  0  2  0  0  0  0  0  0  0  0  0
   20.5807  -21.1942  -13.8779 N   0  0  0  0  0  0  0  0  0  0  0  0
   19.2455  -22.4172  -12.2906 C   0  0  0  0  0  0  0  0  0  0  0  0
   18.2145  -22.4238  -13.0318 O   0  0  0  0  0  0  0  0  0  0  0  0
   18.9553  -27.9749   -9.6263 C   0  0  0  0  0  0  0  0  0  0  0  0
   18.1911  -26.8283  -10.2018 C   0  0  1  0  0  0  0  0  0  0  0  0
   16.9439  -26.5441   -9.3534 C   0  0  0  0  0  0  0  0  0  0  0  0
   18.9212  -25.5993  -10.5334 C   0  0  0  0  0  0  0  0  0  0  0  0
   18.2283  -24.4438  -11.1814 C   0  0  2  0  0  0  0  0  0  0  0  0
   19.3340  -23.4517  -11.3492 N   0  0  0  0  0  0  0  0  0  0  0  0
   17.1364  -23.8378  -10.4523 C   0  0  0  0  0  0  0  0  0  0  0  0
   17.3126  -23.0684   -9.3336 O   0  0  0  0  0  0  0  0  0  0  0  0
   15.9406  -24.0184  -10.8444 O   0  0  0  0  0  0  0  0  0  0  0  0
  2  1  1  1
  2  3  1  0
  4  2  1  0
  4  5  1  0
  5  7  1  0
  5  6  1  1
  7  8  2  0
 10  9  1  1
 10 12  1  0
 10 11  1  0
 13  7  1  0
 12 13  1  6
 14 15  2  0
 14 12  1  0
 17 16  1  1
 17 19  1  0
 18 17  1  0
 20 19  1  1
 20 21  1  0
 21 14  1  0
 22 20  1  0
 22 23  1  0
 24 22  2  0
M  END
$$$$
