LVL.pdb
     RDKit          3D

 24 23  0  0  1  0  0  0  0  0999 V2000
   22.1497  -22.0397  -11.1942 C   0  0  0  0  0  0  0  0  0  0  0  0
   22.5541  -21.1118  -10.0803 C   0  0  2  0  0  0  0  0  0  0  0  0
   21.3464  -20.3932   -9.5760 C   0  0  0  0  0  0  0  0  0  0  0  0
   23.6183  -20.1392  -10.5997 C   0  0  0  0  0  0  0  0  0  0  0  0
   24.7752  -20.9867  -11.0649 C   0  0  2  0  0  0  0  0  0  0  0  0
   25.5309  -21.3838   -9.8945 N   0  0  0  0  0  0  0  0  0  0  0  0
   25.6872  -20.2506  -11.9685 C   0  0  0  0  0  0  0  0  0  0  0  0
   26.5422  -19.4137  -11.5464 O   0  0  0  0  0  0  0  0  0  0  0  0
   28.1977  -21.6278  -14.5486 C   0  0  0  0  0  0  0  0  0  0  0  0
   27.2341  -20.6920  -15.2107 C   0  0  2  0  0  0  0  0  0  0  0  0
   28.0703  -19.8887  -16.2255 C   0  0  0  0  0  0  0  0  0  0  0  0
   26.5847  -19.7278  -14.2839 C   0  0  2  0  0  0  0  0  0  0  0  0
   25.6634  -20.4355  -13.3754 N   0  0  0  0  0  0  0  0  0  0  0  0
   25.8354  -18.6435  -14.9745 C   0  0  0  0  0  0  0  0  0  0  0  0
   24.6845  -18.8635  -15.4637 O   0  0  0  0  0  0  0  0  0  0  0  0
   25.7961  -13.4921  -17.2502 C   0  0  0  0  0  0  0  0  0  0  0  0
   25.6230  -13.7274  -15.7858 C   0  0  1  0  0  0  0  0  0  0  0  0
   24.2090  -13.3212  -15.3476 C   0  0  0  0  0  0  0  0  0  0  0  0
   26.0144  -15.0310  -15.2373 C   0  0  0  0  0  0  0  0  0  0  0  0
   25.5636  -16.3031  -15.8805 C   0  0  2  0  0  0  0  0  0  0  0  0
   26.3302  -17.3409  -15.1254 N   0  0  0  0  0  0  0  0  0  0  0  0
   25.8123  -16.4485  -17.2976 C   0  0  0  0  0  0  0  0  0  0  0  0
   24.8302  -16.3619  -18.2477 O   0  0  0  0  0  0  0  0  0  0  0  0
   26.9933  -16.6759  -17.7094 O   0  0  0  0  0  0  0  0  0  0  0  0
  2  1  1  6
  2  3  1  0
  4  2  1  0
  4  5  1  0
  5  7  1  0
  5  6  1  1
  7  8  2  0
 10  9  1  1
 10 12  1  0
 10 11  1  0
 13  7  1  0
 12 13  1  1
 14 15  2  0
 14 12  1  0
 17 16  1  6
 17 19  1  0
 18 17  1  0
 20 19  1  1
 20 21  1  0
 21 14  1  0
 22 20  1  0
 22 23  1  0
 24 22  2  0
M  END
$$$$
