LVL.pdb
     RDKit          3D

 24 23  0  0  1  0  0  0  0  0999 V2000
   19.6905  -21.5159    0.7387 C   0  0  0  0  0  0  0  0  0  0  0  0
   19.1924  -20.3140   -0.0181 C   0  0  2  0  0  0  0  0  0  0  0  0
   20.3317  -19.6890   -0.7533 C   0  0  0  0  0  0  0  0  0  0  0  0
   18.5460  -19.3341    0.9669 C   0  0  0  0  0  0  0  0  0  0  0  0
   17.3883  -20.0676    1.5953 C   0  0  2  0  0  0  0  0  0  0  0  0
   16.4383  -20.3755    0.5458 N   0  0  0  0  0  0  0  0  0  0  0  0
   16.6917  -19.2543    2.6166 C   0  0  0  0  0  0  0  0  0  0  0  0
   15.7386  -18.4667    2.3326 O   0  0  0  0  0  0  0  0  0  0  0  0
   14.5890  -20.0760    5.6597 C   0  0  0  0  0  0  0  0  0  0  0  0
   15.8085  -19.3143    6.0785 C   0  0  2  0  0  0  0  0  0  0  0  0
   15.3459  -18.3918    7.2229 C   0  0  0  0  0  0  0  0  0  0  0  0
   16.3941  -18.4632    5.0095 C   0  0  2  0  0  0  0  0  0  0  0  0
   17.0481  -19.3041    3.9895 N   0  0  0  0  0  0  0  0  0  0  0  0
   17.3785  -17.4654    5.5088 C   0  0  0  0  0  0  0  0  0  0  0  0
   18.5616  -17.8176    5.8063 O   0  0  0  0  0  0  0  0  0  0  0  0
   19.0879  -12.0722    3.8753 C   0  0  0  0  0  0  0  0  0  0  0  0
   19.0591  -12.9896    5.0532 C   0  0  1  0  0  0  0  0  0  0  0  0
   18.9580  -12.1794    6.3531 C   0  0  0  0  0  0  0  0  0  0  0  0
   18.1218  -14.1185    5.0357 C   0  0  0  0  0  0  0  0  0  0  0  0
   18.1203  -15.1345    6.1325 C   0  0  2  0  0  0  0  0  0  0  0  0
   17.0798  -16.1064    5.6766 N   0  0  0  0  0  0  0  0  0  0  0  0
   17.8005  -14.6666    7.4629 C   0  0  0  0  0  0  0  0  0  0  0  0
   18.7472  -14.3987    8.4151 O   0  0  0  0  0  0  0  0  0  0  0  0
   16.5855  -14.4932    7.7941 O   0  0  0  0  0  0  0  0  0  0  0  0
  2  1  1  1
  2  3  1  0
  4  2  1  0
  4  5  1  0
  5  7  1  0
  5  6  1  6
  7  8  2  0
 10  9  1  6
 10 12  1  0
 10 11  1  0
 13  7  1  0
 12 13  1  6
 14 15  2  0
 14 12  1  0
 17 16  1  6
 17 19  1  0
 18 17  1  0
 20 19  1  6
 20 21  1  0
 21 14  1  0
 22 20  1  0
 22 23  1  0
 24 22  2  0
M  END
$$$$
