LVL.pdb
     RDKit          3D

 24 23  0  0  1  0  0  0  0  0999 V2000
   19.1521  -32.3797   -7.3611 C   0  0  0  0  0  0  0  0  0  0  0  0
   19.1386  -33.8740   -7.1813 C   0  0  2  0  0  0  0  0  0  0  0  0
   18.1407  -34.2339   -6.1306 C   0  0  0  0  0  0  0  0  0  0  0  0
   20.5485  -34.3471   -6.8118 C   0  0  0  0  0  0  0  0  0  0  0  0
   21.4394  -33.9650   -7.9665 C   0  0  2  0  0  0  0  0  0  0  0  0
   21.0374  -34.7523   -9.1142 N   0  0  0  0  0  0  0  0  0  0  0  0
   22.8666  -34.2480   -7.6967 C   0  0  0  0  0  0  0  0  0  0  0  0
   23.3760  -35.4009   -7.8411 O   0  0  0  0  0  0  0  0  0  0  0  0
   26.1245  -32.7023   -8.9907 C   0  0  0  0  0  0  0  0  0  0  0  0
   26.0937  -32.5984   -7.4971 C   0  0  2  0  0  0  0  0  0  0  0  0
   27.5185  -32.9528   -7.0294 C   0  0  0  0  0  0  0  0  0  0  0  0
   25.1466  -33.5366   -6.8390 C   0  0  2  0  0  0  0  0  0  0  0  0
   23.7632  -33.2401   -7.2557 N   0  0  0  0  0  0  0  0  0  0  0  0
   25.2133  -33.5121   -5.3528 C   0  0  0  0  0  0  0  0  0  0  0  0
   24.4408  -32.7589   -4.6833 O   0  0  0  0  0  0  0  0  0  0  0  0
   22.7070  -35.3125   -1.3049 C   0  0  0  0  0  0  0  0  0  0  0  0
   24.1611  -35.0291   -1.4925 C   0  0  1  0  0  0  0  0  0  0  0  0
   25.0030  -36.0104   -0.6653 C   0  0  0  0  0  0  0  0  0  0  0  0
   24.6730  -34.8840   -2.8601 C   0  0  0  0  0  0  0  0  0  0  0  0
   26.0412  -34.3384   -3.1158 C   0  0  2  0  0  0  0  0  0  0  0  0
   26.1037  -34.2985   -4.6089 N   0  0  0  0  0  0  0  0  0  0  0  0
   27.1594  -35.0974   -2.6014 C   0  0  0  0  0  0  0  0  0  0  0  0
   27.7401  -36.1362   -3.2784 O   0  0  0  0  0  0  0  0  0  0  0  0
   27.6435  -34.8110   -1.4613 O   0  0  0  0  0  0  0  0  0  0  0  0
  2  1  1  1
  2  3  1  0
  4  2  1  0
  4  5  1  0
  5  7  1  0
  5  6  1  6
  7  8  2  0
 10  9  1  6
 10 12  1  0
 10 11  1  0
 13  7  1  0
 12 13  1  1
 14 15  2  0
 14 12  1  0
 17 16  1  6
 17 19  1  0
 18 17  1  0
 20 19  1  6
 20 21  1  0
 21 14  1  0
 22 20  1  0
 22 23  1  0
 24 22  2  0
M  END
$$$$
