LVL.pdb
     RDKit          3D

 24 23  0  0  1  0  0  0  0  0999 V2000
   22.4822  -15.9855  -17.4353 C   0  0  0  0  0  0  0  0  0  0  0  0
   21.4663  -17.0907  -17.5450 C   0  0  2  0  0  0  0  0  0  0  0  0
   20.1403  -16.5879  -17.0779 C   0  0  0  0  0  0  0  0  0  0  0  0
   21.9413  -18.2916  -16.7202 C   0  0  0  0  0  0  0  0  0  0  0  0
   23.3202  -18.6332  -17.2252 C   0  0  2  0  0  0  0  0  0  0  0  0
   23.1725  -19.2642  -18.5208 N   0  0  0  0  0  0  0  0  0  0  0  0
   24.0294  -19.5794  -16.3354 C   0  0  0  0  0  0  0  0  0  0  0  0
   23.6222  -20.7631  -16.1296 O   0  0  0  0  0  0  0  0  0  0  0  0
   27.9777  -20.2964  -16.1889 C   0  0  0  0  0  0  0  0  0  0  0  0
   27.3976  -19.9426  -14.8544 C   0  0  2  0  0  0  0  0  0  0  0  0
   28.0834  -20.8825  -13.8441 C   0  0  0  0  0  0  0  0  0  0  0  0
   25.9290  -20.1501  -14.7524 C   0  0  2  0  0  0  0  0  0  0  0  0
   25.2192  -19.2199  -15.6503 N   0  0  0  0  0  0  0  0  0  0  0  0
   25.3940  -19.9849  -13.3738 C   0  0  0  0  0  0  0  0  0  0  0  0
   25.4014  -18.8473  -12.8097 O   0  0  0  0  0  0  0  0  0  0  0  0
   20.5871  -21.1520  -11.8438 C   0  0  0  0  0  0  0  0  0  0  0  0
   21.9426  -20.5359  -11.7313 C   0  0  1  0  0  0  0  0  0  0  0  0
   21.8482  -19.1720  -11.0334 C   0  0  0  0  0  0  0  0  0  0  0  0
   23.0379  -21.3522  -11.1951 C   0  0  0  0  0  0  0  0  0  0  0  0
   24.4459  -20.8497  -11.2000 C   0  0  2  0  0  0  0  0  0  0  0  0
   24.8562  -21.0404  -12.6249 N   0  0  0  0  0  0  0  0  0  0  0  0
   25.3865  -21.5180  -10.3284 C   0  0  0  0  0  0  0  0  0  0  0  0
   25.5994  -21.1510   -9.0267 O   0  0  0  0  0  0  0  0  0  0  0  0
   26.0692  -22.4953  -10.7701 O   0  0  0  0  0  0  0  0  0  0  0  0
  2  1  1  1
  2  3  1  0
  4  2  1  0
  4  5  1  0
  5  7  1  0
  5  6  1  6
  7  8  2  0
 10  9  1  6
 10 12  1  0
 10 11  1  0
 13  7  1  0
 12 13  1  6
 14 15  2  0
 14 12  1  0
 17 16  1  1
 17 19  1  0
 18 17  1  0
 20 19  1  6
 20 21  1  0
 21 14  1  0
 22 20  1  0
 22 23  1  0
 24 22  2  0
M  END
$$$$
