LWV.pdb
     RDKit          3D

 30 31  0  0  1  0  0  0  0  0999 V2000
   28.4950  -20.8795  -17.0492 C   0  0  0  0  0  0  0  0  0  0  0  0
   28.9188  -20.3147  -15.7076 C   0  0  1  0  0  0  0  0  0  0  0  0
   28.6452  -18.8403  -15.7217 C   0  0  0  0  0  0  0  0  0  0  0  0
   28.2102  -21.0648  -14.6389 C   0  0  0  0  0  0  0  0  0  0  0  0
   28.4582  -20.5225  -13.2546 C   0  0  2  0  0  0  0  0  0  0  0  0
   29.7067  -20.9613  -12.6972 N   0  0  0  0  0  0  0  0  0  0  0  0
   27.3820  -20.9935  -12.3245 C   0  0  0  0  0  0  0  0  0  0  0  0
   26.7458  -22.0786  -12.5585 O   0  0  0  0  0  0  0  0  0  0  0  0
   27.0133  -20.2787  -11.1537 N   0  0  0  0  0  0  0  0  0  0  0  0
   25.9620  -20.8094  -10.2448 C   0  0  1  0  0  0  0  0  0  0  0  0
   26.1625  -20.2052   -8.8822 C   0  0  0  0  0  0  0  0  0  0  0  0
   27.4538  -20.4832   -8.2423 C   0  0  0  0  0  0  0  0  0  0  0  0
   28.5894  -21.0194   -8.8102 C   0  0  0  0  0  0  0  0  0  0  0  0
   29.5576  -21.1504   -7.8946 N   0  0  0  0  0  0  0  0  0  0  0  0
   29.0877  -20.7056   -6.7041 C   0  0  0  0  0  0  0  0  0  0  0  0
   29.6727  -20.6220   -5.4529 C   0  0  0  0  0  0  0  0  0  0  0  0
   28.9676  -20.1175   -4.3656 C   0  0  0  0  0  0  0  0  0  0  0  0
   27.6780  -19.7074   -4.5746 C   0  0  0  0  0  0  0  0  0  0  0  0
   27.1031  -19.7914   -5.8114 C   0  0  0  0  0  0  0  0  0  0  0  0
   27.7848  -20.2905   -6.9114 C   0  0  0  0  0  0  0  0  0  0  0  0
   24.6519  -20.4150  -10.7865 C   0  0  0  0  0  0  0  0  0  0  0  0
   24.4626  -19.1636  -10.9769 O   0  0  0  0  0  0  0  0  0  0  0  0
   23.3198  -21.3342  -13.9120 C   0  0  0  0  0  0  0  0  0  0  0  0
   22.1509  -21.4773  -12.9830 C   0  0  1  0  0  0  0  0  0  0  0  0
   21.9406  -22.9135  -12.6274 C   0  0  0  0  0  0  0  0  0  0  0  0
   22.3779  -20.7065  -11.6746 C   0  0  2  0  0  0  0  0  0  0  0  0
   23.5923  -21.2643  -11.1197 N   0  0  0  0  0  0  0  0  0  0  0  0
   21.2081  -20.7940  -10.7977 C   0  0  0  0  0  0  0  0  0  0  0  0
   20.0493  -20.0252  -11.0396 O   0  0  0  0  0  0  0  0  0  0  0  0
   21.1517  -21.5371   -9.7963 O   0  0  0  0  0  0  0  0  0  0  0  0
  2  1  1  6
  2  3  1  0
  4  2  1  0
  5  6  1  1
  5  4  1  0
  7  5  1  0
  8  7  2  0
  9  7  1  0
 10 21  1  0
 10  9  1  0
 11 12  1  0
 10 11  1  1
 12 20  1  0
 13 12  2  0
 13 14  1  0
 14 15  1  0
 15 16  1  0
 16 17  2  0
 18 17  1  0
 19 18  2  0
 20 15  2  0
 20 19  1  0
 21 27  1  0
 22 21  2  0
 24 23  1  6
 24 25  1  0
 26 24  1  0
 26 28  1  0
 26 27  1  1
 28 30  2  0
 28 29  1  0
M  END
$$$$
