LWV.pdb
     RDKit          3D

 30 31  0  0  1  0  0  0  0  0999 V2000
   27.0330  -17.6643  -16.9166 C   0  0  0  0  0  0  0  0  0  0  0  0
   27.9775  -18.6117  -16.2032 C   0  0  1  0  0  0  0  0  0  0  0  0
   29.1292  -17.8063  -15.6803 C   0  0  0  0  0  0  0  0  0  0  0  0
   27.2100  -19.3417  -15.1616 C   0  0  0  0  0  0  0  0  0  0  0  0
   28.0711  -20.1873  -14.2586 C   0  0  2  0  0  0  0  0  0  0  0  0
   28.5321  -21.3909  -14.8915 N   0  0  0  0  0  0  0  0  0  0  0  0
   27.2843  -20.6078  -13.0547 C   0  0  0  0  0  0  0  0  0  0  0  0
   26.4549  -21.5795  -13.1236 O   0  0  0  0  0  0  0  0  0  0  0  0
   27.4108  -19.9664  -11.7936 N   0  0  0  0  0  0  0  0  0  0  0  0
   26.6118  -20.4297  -10.6275 C   0  0  1  0  0  0  0  0  0  0  0  0
   27.0456  -19.6525   -9.4152 C   0  0  0  0  0  0  0  0  0  0  0  0
   26.6164  -20.1939   -8.1203 C   0  0  0  0  0  0  0  0  0  0  0  0
   25.5176  -20.9794   -7.8459 C   0  0  0  0  0  0  0  0  0  0  0  0
   25.4449  -21.2475   -6.5360 N   0  0  0  0  0  0  0  0  0  0  0  0
   26.4898  -20.6485   -5.9152 C   0  0  0  0  0  0  0  0  0  0  0  0
   26.8769  -20.6104   -4.5873 C   0  0  0  0  0  0  0  0  0  0  0  0
   28.0131  -19.9122   -4.1929 C   0  0  0  0  0  0  0  0  0  0  0  0
   28.7339  -19.2653   -5.1609 C   0  0  0  0  0  0  0  0  0  0  0  0
   28.3489  -19.3048   -6.4713 C   0  0  0  0  0  0  0  0  0  0  0  0
   27.2203  -19.9937   -6.8901 C   0  0  0  0  0  0  0  0  0  0  0  0
   25.1929  -20.1681  -10.9164 C   0  0  0  0  0  0  0  0  0  0  0  0
   24.8542  -18.9432  -11.0675 O   0  0  0  0  0  0  0  0  0  0  0  0
   22.6231  -22.9739  -12.5680 C   0  0  0  0  0  0  0  0  0  0  0  0
   22.6619  -21.4968  -12.8260 C   0  0  1  0  0  0  0  0  0  0  0  0
   21.3721  -21.0384  -13.4259 C   0  0  0  0  0  0  0  0  0  0  0  0
   22.8728  -20.7068  -11.5264 C   0  0  2  0  0  0  0  0  0  0  0  0
   24.1751  -21.1179  -11.0479 N   0  0  0  0  0  0  0  0  0  0  0  0
   21.7751  -20.9338  -10.5837 C   0  0  0  0  0  0  0  0  0  0  0  0
   20.5040  -20.3531  -10.7825 O   0  0  0  0  0  0  0  0  0  0  0  0
   21.8809  -21.6403   -9.5602 O   0  0  0  0  0  0  0  0  0  0  0  0
  2  1  1  1
  2  3  1  0
  4  2  1  0
  5  6  1  6
  5  4  1  0
  7  5  1  0
  8  7  2  0
  9  7  1  0
 10 21  1  0
 10  9  1  0
 11 12  1  0
 10 11  1  1
 12 20  1  0
 13 12  2  0
 13 14  1  0
 14 15  1  0
 15 16  1  0
 16 17  2  0
 18 17  1  0
 19 18  2  0
 20 15  2  0
 20 19  1  0
 21 27  1  0
 22 21  2  0
 24 23  1  1
 24 25  1  0
 26 24  1  0
 26 28  1  0
 26 27  1  1
 28 30  2  0
 28 29  1  0
M  END
$$$$
