LWV.pdb
     RDKit          3D

 30 31  0  0  1  0  0  0  0  0999 V2000
   27.6961  -23.8892  -19.3355 C   0  0  0  0  0  0  0  0  0  0  0  0
   28.0705  -22.6854  -18.4934 C   0  0  1  0  0  0  0  0  0  0  0  0
   27.8667  -21.4573  -19.3296 C   0  0  0  0  0  0  0  0  0  0  0  0
   27.2699  -22.7216  -17.2426 C   0  0  0  0  0  0  0  0  0  0  0  0
   27.5460  -21.5659  -16.3153 C   0  0  2  0  0  0  0  0  0  0  0  0
   28.9422  -21.4070  -16.0197 N   0  0  0  0  0  0  0  0  0  0  0  0
   26.8512  -21.7880  -15.0064 C   0  0  0  0  0  0  0  0  0  0  0  0
   25.8118  -22.5308  -14.9368 O   0  0  0  0  0  0  0  0  0  0  0  0
   27.2965  -21.2001  -13.7923 N   0  0  0  0  0  0  0  0  0  0  0  0
   26.5408  -21.4130  -12.5288 C   0  0  1  0  0  0  0  0  0  0  0  0
   27.3474  -20.8484  -11.3918 C   0  0  0  0  0  0  0  0  0  0  0  0
   26.6570  -20.7590  -10.0996 C   0  0  0  0  0  0  0  0  0  0  0  0
   25.3077  -20.8748   -9.8435 C   0  0  0  0  0  0  0  0  0  0  0  0
   25.0590  -20.7026   -8.5391 N   0  0  0  0  0  0  0  0  0  0  0  0
   26.2330  -20.4701   -7.9038 C   0  0  0  0  0  0  0  0  0  0  0  0
   26.5324  -20.2310   -6.5742 C   0  0  0  0  0  0  0  0  0  0  0  0
   27.8436  -20.0174   -6.1631 C   0  0  0  0  0  0  0  0  0  0  0  0
   28.8259  -20.0513   -7.1165 C   0  0  0  0  0  0  0  0  0  0  0  0
   28.5269  -20.2874   -8.4288 C   0  0  0  0  0  0  0  0  0  0  0  0
   27.2278  -20.5034   -8.8640 C   0  0  0  0  0  0  0  0  0  0  0  0
   25.2574  -20.7021  -12.6419 C   0  0  0  0  0  0  0  0  0  0  0  0
   25.3162  -19.4365  -12.8233 O   0  0  0  0  0  0  0  0  0  0  0  0
   23.2831  -20.4463  -15.2092 C   0  0  0  0  0  0  0  0  0  0  0  0
   22.2781  -20.7619  -14.1415 C   0  0  1  0  0  0  0  0  0  0  0  0
   21.9496  -22.2199  -14.1496 C   0  0  0  0  0  0  0  0  0  0  0  0
   22.8174  -20.4182  -12.7456 C   0  0  2  0  0  0  0  0  0  0  0  0
   23.9789  -21.2646  -12.5765 N   0  0  0  0  0  0  0  0  0  0  0  0
   21.7838  -20.5860  -11.7216 C   0  0  0  0  0  0  0  0  0  0  0  0
   20.7358  -19.6519  -11.5755 O   0  0  0  0  0  0  0  0  0  0  0  0
   21.7549  -21.5444  -10.9224 O   0  0  0  0  0  0  0  0  0  0  0  0
  2  1  1  6
  2  3  1  0
  4  2  1  0
  5  6  1  1
  5  4  1  0
  7  5  1  0
  8  7  2  0
  9  7  1  0
 10 21  1  0
 10  9  1  0
 11 12  1  0
 10 11  1  1
 12 20  1  0
 13 12  2  0
 13 14  1  0
 14 15  1  0
 15 16  1  0
 16 17  2  0
 18 17  1  0
 19 18  2  0
 20 15  2  0
 20 19  1  0
 21 27  1  0
 22 21  2  0
 24 23  1  6
 24 25  1  0
 26 24  1  0
 26 28  1  0
 26 27  1  1
 28 30  2  0
 28 29  1  0
M  END
$$$$
