LWV.pdb
     RDKit          3D

 30 31  0  0  1  0  0  0  0  0999 V2000
   29.0759  -24.4133  -18.5070 C   0  0  0  0  0  0  0  0  0  0  0  0
   28.8667  -22.9963  -18.0104 C   0  0  1  0  0  0  0  0  0  0  0  0
   28.3524  -22.1779  -19.1569 C   0  0  0  0  0  0  0  0  0  0  0  0
   27.9656  -23.0419  -16.8301 C   0  0  0  0  0  0  0  0  0  0  0  0
   27.7044  -21.6899  -16.2172 C   0  0  2  0  0  0  0  0  0  0  0  0
   28.9091  -20.9598  -15.9387 N   0  0  0  0  0  0  0  0  0  0  0  0
   26.9887  -21.8543  -14.9111 C   0  0  0  0  0  0  0  0  0  0  0  0
   26.1194  -22.7800  -14.7551 O   0  0  0  0  0  0  0  0  0  0  0  0
   27.2285  -21.0107  -13.7937 N   0  0  0  0  0  0  0  0  0  0  0  0
   26.4770  -21.2065  -12.5249 C   0  0  1  0  0  0  0  0  0  0  0  0
   27.2043  -20.4827  -11.4253 C   0  0  0  0  0  0  0  0  0  0  0  0
   26.5215  -20.4392  -10.1267 C   0  0  0  0  0  0  0  0  0  0  0  0
   25.1692  -20.5132   -9.8710 C   0  0  0  0  0  0  0  0  0  0  0  0
   24.9312  -20.4063   -8.5577 N   0  0  0  0  0  0  0  0  0  0  0  0
   26.1155  -20.2599   -7.9159 C   0  0  0  0  0  0  0  0  0  0  0  0
   26.4280  -20.1106   -6.5762 C   0  0  0  0  0  0  0  0  0  0  0  0
   27.7480  -19.9759   -6.1600 C   0  0  0  0  0  0  0  0  0  0  0  0
   28.7256  -19.9958   -7.1185 C   0  0  0  0  0  0  0  0  0  0  0  0
   28.4138  -20.1431   -8.4407 C   0  0  0  0  0  0  0  0  0  0  0  0
   27.1057  -20.2793   -8.8813 C   0  0  0  0  0  0  0  0  0  0  0  0
   25.1311  -20.6384  -12.7020 C   0  0  0  0  0  0  0  0  0  0  0  0
   25.0685  -19.4087  -13.0511 O   0  0  0  0  0  0  0  0  0  0  0  0
   22.9326  -20.9385  -15.1830 C   0  0  0  0  0  0  0  0  0  0  0  0
   22.0533  -21.1679  -13.9897 C   0  0  1  0  0  0  0  0  0  0  0  0
   21.8604  -22.6317  -13.7581 C   0  0  0  0  0  0  0  0  0  0  0  0
   22.6733  -20.5770  -12.7154 C   0  0  2  0  0  0  0  0  0  0  0  0
   23.9121  -21.3023  -12.5332 N   0  0  0  0  0  0  0  0  0  0  0  0
   21.7443  -20.6595  -11.5861 C   0  0  0  0  0  0  0  0  0  0  0  0
   20.6665  -19.7577  -11.4539 O   0  0  0  0  0  0  0  0  0  0  0  0
   21.8357  -21.5129  -10.6797 O   0  0  0  0  0  0  0  0  0  0  0  0
  2  1  1  6
  2  3  1  0
  4  2  1  0
  5  6  1  1
  5  4  1  0
  7  5  1  0
  8  7  2  0
  9  7  1  0
 10 21  1  0
 10  9  1  0
 11 12  1  0
 10 11  1  1
 12 20  1  0
 13 12  2  0
 13 14  1  0
 14 15  1  0
 15 16  1  0
 16 17  2  0
 18 17  1  0
 19 18  2  0
 20 15  2  0
 20 19  1  0
 21 27  1  0
 22 21  2  0
 24 23  1  6
 24 25  1  0
 26 24  1  0
 26 28  1  0
 26 27  1  1
 28 30  2  0
 28 29  1  0
M  END
$$$$
