LWV.pdb
     RDKit          3D

 30 31  0  0  1  0  0  0  0  0999 V2000
   31.7315  -26.2476  -16.9448 C   0  0  0  0  0  0  0  0  0  0  0  0
   30.5653  -25.5420  -17.6086 C   0  0  1  0  0  0  0  0  0  0  0  0
   29.3659  -26.4357  -17.5027 C   0  0  0  0  0  0  0  0  0  0  0  0
   30.4013  -24.2092  -16.9732 C   0  0  0  0  0  0  0  0  0  0  0  0
   29.2661  -23.4016  -17.5485 C   0  0  2  0  0  0  0  0  0  0  0  0
   29.5624  -22.8666  -18.8476 N   0  0  0  0  0  0  0  0  0  0  0  0
   28.9724  -22.2328  -16.6580 C   0  0  0  0  0  0  0  0  0  0  0  0
   29.9184  -21.4890  -16.2236 O   0  0  0  0  0  0  0  0  0  0  0  0
   27.6549  -21.8893  -16.2531 N   0  0  0  0  0  0  0  0  0  0  0  0
   27.4075  -20.6604  -15.4522 C   0  0  1  0  0  0  0  0  0  0  0  0
   26.6504  -19.6809  -16.3063 C   0  0  0  0  0  0  0  0  0  0  0  0
   26.2151  -18.4499  -15.6361 C   0  0  0  0  0  0  0  0  0  0  0  0
   26.8920  -17.7069  -14.6929 C   0  0  0  0  0  0  0  0  0  0  0  0
   26.1521  -16.6645  -14.2941 N   0  0  0  0  0  0  0  0  0  0  0  0
   24.9732  -16.6927  -14.9614 C   0  0  0  0  0  0  0  0  0  0  0  0
   23.8696  -15.8589  -14.9227 C   0  0  0  0  0  0  0  0  0  0  0  0
   22.7582  -16.1053  -15.7215 C   0  0  0  0  0  0  0  0  0  0  0  0
   22.7930  -17.1984  -16.5455 C   0  0  0  0  0  0  0  0  0  0  0  0
   23.8843  -18.0200  -16.5812 C   0  0  0  0  0  0  0  0  0  0  0  0
   25.0046  -17.7960  -15.7948 C   0  0  0  0  0  0  0  0  0  0  0  0
   26.6034  -21.0372  -14.2789 C   0  0  0  0  0  0  0  0  0  0  0  0
   25.7229  -21.9491  -14.4552 O   0  0  0  0  0  0  0  0  0  0  0  0
   26.4958  -18.9676  -10.5758 C   0  0  0  0  0  0  0  0  0  0  0  0
   26.3748  -20.4610  -10.6470 C   0  0  1  0  0  0  0  0  0  0  0  0
   25.4984  -20.9658   -9.5467 C   0  0  0  0  0  0  0  0  0  0  0  0
   25.7509  -20.9094  -11.9763 C   0  0  2  0  0  0  0  0  0  0  0  0
   26.7028  -20.5066  -12.9890 N   0  0  0  0  0  0  0  0  0  0  0  0
   24.4062  -20.3540  -12.1452 C   0  0  0  0  0  0  0  0  0  0  0  0
   23.2561  -21.0953  -11.7986 O   0  0  0  0  0  0  0  0  0  0  0  0
   24.1843  -19.2118  -12.5971 O   0  0  0  0  0  0  0  0  0  0  0  0
  2  1  1  1
  2  3  1  0
  4  2  1  0
  5  6  1  6
  5  4  1  0
  7  5  1  0
  8  7  2  0
  9  7  1  0
 10 21  1  0
 10  9  1  0
 11 12  1  0
 10 11  1  6
 12 20  1  0
 13 12  2  0
 13 14  1  0
 14 15  1  0
 15 16  1  0
 16 17  2  0
 18 17  1  0
 19 18  2  0
 20 15  2  0
 20 19  1  0
 21 27  1  0
 22 21  2  0
 24 23  1  6
 24 25  1  0
 26 24  1  0
 26 28  1  0
 26 27  1  6
 28 30  2  0
 28 29  1  0
M  END
$$$$
