LWV.pdb
     RDKit          3D

 30 31  0  0  1  0  0  0  0  0999 V2000
   29.0936  -24.5860  -17.3466 C   0  0  0  0  0  0  0  0  0  0  0  0
   29.0900  -23.2544  -16.6219 C   0  0  1  0  0  0  0  0  0  0  0  0
   30.3652  -22.5421  -16.9613 C   0  0  0  0  0  0  0  0  0  0  0  0
   27.8535  -22.5209  -16.9962 C   0  0  0  0  0  0  0  0  0  0  0  0
   27.6606  -21.2345  -16.2347 C   0  0  2  0  0  0  0  0  0  0  0  0
   28.8998  -20.5875  -15.9065 N   0  0  0  0  0  0  0  0  0  0  0  0
   26.9629  -21.5120  -14.9380 C   0  0  0  0  0  0  0  0  0  0  0  0
   25.9800  -22.3295  -14.8874 O   0  0  0  0  0  0  0  0  0  0  0  0
   27.3439  -20.8973  -13.7153 N   0  0  0  0  0  0  0  0  0  0  0  0
   26.5589  -21.1348  -12.4742 C   0  0  1  0  0  0  0  0  0  0  0  0
   27.3671  -20.6525  -11.3011 C   0  0  0  0  0  0  0  0  0  0  0  0
   26.7182  -20.7601   -9.9891 C   0  0  0  0  0  0  0  0  0  0  0  0
   25.5647  -21.4394   -9.6610 C   0  0  0  0  0  0  0  0  0  0  0  0
   25.2738  -21.2758   -8.3642 N   0  0  0  0  0  0  0  0  0  0  0  0
   26.2243  -20.4879   -7.8057 C   0  0  0  0  0  0  0  0  0  0  0  0
   26.3940  -20.0188   -6.5151 C   0  0  0  0  0  0  0  0  0  0  0  0
   27.4741  -19.2075   -6.1848 C   0  0  0  0  0  0  0  0  0  0  0  0
   28.3617  -18.8893   -7.1778 C   0  0  0  0  0  0  0  0  0  0  0  0
   28.1911  -19.3540   -8.4515 C   0  0  0  0  0  0  0  0  0  0  0  0
   27.1227  -20.1643   -8.8061 C   0  0  0  0  0  0  0  0  0  0  0  0
   25.3062  -20.3694  -12.5758 C   0  0  0  0  0  0  0  0  0  0  0  0
   25.4153  -19.1228  -12.8441 O   0  0  0  0  0  0  0  0  0  0  0  0
   22.1662  -21.6346  -14.4170 C   0  0  0  0  0  0  0  0  0  0  0  0
   22.5315  -20.2060  -14.1423 C   0  0  1  0  0  0  0  0  0  0  0  0
   21.3868  -19.3030  -14.4708 C   0  0  0  0  0  0  0  0  0  0  0  0
   22.8784  -19.9915  -12.6621 C   0  0  2  0  0  0  0  0  0  0  0  0
   24.0075  -20.8618  -12.4144 N   0  0  0  0  0  0  0  0  0  0  0  0
   21.7169  -20.2369  -11.8042 C   0  0  0  0  0  0  0  0  0  0  0  0
   20.7938  -19.2116  -11.5062 O   0  0  0  0  0  0  0  0  0  0  0  0
   21.4646  -21.3443  -11.2864 O   0  0  0  0  0  0  0  0  0  0  0  0
  2  1  1  6
  2  3  1  0
  4  2  1  0
  5  6  1  1
  5  4  1  0
  7  5  1  0
  8  7  2  0
  9  7  1  0
 10 21  1  0
 10  9  1  0
 11 12  1  0
 10 11  1  1
 12 20  1  0
 13 12  2  0
 13 14  1  0
 14 15  1  0
 15 16  1  0
 16 17  2  0
 18 17  1  0
 19 18  2  0
 20 15  2  0
 20 19  1  0
 21 27  1  0
 22 21  2  0
 24 23  1  1
 24 25  1  0
 26 24  1  0
 26 28  1  0
 26 27  1  1
 28 30  2  0
 28 29  1  0
M  END
$$$$
