LWV.pdb
     RDKit          3D

 30 31  0  0  1  0  0  0  0  0999 V2000
   28.8861  -20.6712  -18.3534 C   0  0  0  0  0  0  0  0  0  0  0  0
   28.7320  -19.8069  -17.1174 C   0  0  1  0  0  0  0  0  0  0  0  0
   28.2076  -18.4710  -17.5524 C   0  0  0  0  0  0  0  0  0  0  0  0
   27.8653  -20.5257  -16.1484 C   0  0  0  0  0  0  0  0  0  0  0  0
   27.5229  -19.7129  -14.9261 C   0  0  2  0  0  0  0  0  0  0  0  0
   28.6806  -19.3205  -14.1728 N   0  0  0  0  0  0  0  0  0  0  0  0
   26.6624  -20.5214  -14.0035 C   0  0  0  0  0  0  0  0  0  0  0  0
   26.2659  -21.6910  -14.3380 O   0  0  0  0  0  0  0  0  0  0  0  0
   26.2459  -20.0472  -12.7310 N   0  0  0  0  0  0  0  0  0  0  0  0
   25.3577  -20.8744  -11.8708 C   0  0  1  0  0  0  0  0  0  0  0  0
   25.5456  -20.4446  -10.4417 C   0  0  0  0  0  0  0  0  0  0  0  0
   26.8318  -20.7995   -9.8303 C   0  0  0  0  0  0  0  0  0  0  0  0
   27.8431  -21.5727  -10.3586 C   0  0  0  0  0  0  0  0  0  0  0  0
   28.8491  -21.6953   -9.4835 N   0  0  0  0  0  0  0  0  0  0  0  0
   28.5288  -21.0087   -8.3601 C   0  0  0  0  0  0  0  0  0  0  0  0
   29.2083  -20.8151   -7.1704 C   0  0  0  0  0  0  0  0  0  0  0  0
   28.6560  -20.0529   -6.1467 C   0  0  0  0  0  0  0  0  0  0  0  0
   27.4199  -19.5021   -6.3554 C   0  0  0  0  0  0  0  0  0  0  0  0
   26.7513  -19.6953   -7.5314 C   0  0  0  0  0  0  0  0  0  0  0  0
   27.2803  -20.4509   -8.5673 C   0  0  0  0  0  0  0  0  0  0  0  0
   23.9681  -20.6378  -12.2928 C   0  0  0  0  0  0  0  0  0  0  0  0
   23.5935  -19.4169  -12.3766 O   0  0  0  0  0  0  0  0  0  0  0  0
   22.3934  -21.4006  -15.3796 C   0  0  0  0  0  0  0  0  0  0  0  0
   21.4168  -21.8683  -14.3418 C   0  0  1  0  0  0  0  0  0  0  0  0
   21.5359  -23.3445  -14.1416 C   0  0  0  0  0  0  0  0  0  0  0  0
   21.6762  -21.1964  -12.9857 C   0  0  2  0  0  0  0  0  0  0  0  0
   23.0137  -21.6071  -12.6166 N   0  0  0  0  0  0  0  0  0  0  0  0
   20.6385  -21.5465  -12.0133 C   0  0  0  0  0  0  0  0  0  0  0  0
   20.8933  -22.4513  -10.9603 O   0  0  0  0  0  0  0  0  0  0  0  0
   19.4805  -21.0814  -12.0438 O   0  0  0  0  0  0  0  0  0  0  0  0
  2  1  1  6
  2  3  1  0
  4  2  1  0
  5  6  1  1
  5  4  1  0
  7  5  1  0
  8  7  2  0
  9  7  1  0
 10 21  1  0
 10  9  1  0
 11 12  1  0
 10 11  1  1
 12 20  1  0
 13 12  2  0
 13 14  1  0
 14 15  1  0
 15 16  1  0
 16 17  2  0
 18 17  1  0
 19 18  2  0
 20 15  2  0
 20 19  1  0
 21 27  1  0
 22 21  2  0
 24 23  1  6
 24 25  1  0
 26 24  1  0
 26 28  1  0
 26 27  1  1
 28 30  2  0
 28 29  1  0
M  END
$$$$
