LWV.pdb
     RDKit          3D

 30 31  0  0  1  0  0  0  0  0999 V2000
   25.7018  -19.6041  -17.7946 C   0  0  0  0  0  0  0  0  0  0  0  0
   26.9139  -19.7579  -16.8971 C   0  0  1  0  0  0  0  0  0  0  0  0
   27.4598  -18.3885  -16.6222 C   0  0  0  0  0  0  0  0  0  0  0  0
   26.5067  -20.5158  -15.6861 C   0  0  0  0  0  0  0  0  0  0  0  0
   27.5866  -20.6053  -14.6383 C   0  0  2  0  0  0  0  0  0  0  0  0
   28.5508  -21.6327  -14.9151 N   0  0  0  0  0  0  0  0  0  0  0  0
   26.9780  -20.9326  -13.3087 C   0  0  0  0  0  0  0  0  0  0  0  0
   26.2578  -21.9796  -13.1604 O   0  0  0  0  0  0  0  0  0  0  0  0
   27.1615  -20.1176  -12.1599 N   0  0  0  0  0  0  0  0  0  0  0  0
   26.6634  -20.5631  -10.8309 C   0  0  1  0  0  0  0  0  0  0  0  0
   27.4548  -19.8558   -9.7652 C   0  0  0  0  0  0  0  0  0  0  0  0
   27.3424  -20.4096   -8.4106 C   0  0  0  0  0  0  0  0  0  0  0  0
   27.0757  -21.7100   -8.0400 C   0  0  0  0  0  0  0  0  0  0  0  0
   27.0218  -21.8186   -6.7065 N   0  0  0  0  0  0  0  0  0  0  0  0
   27.2509  -20.5976   -6.1653 C   0  0  0  0  0  0  0  0  0  0  0  0
   27.3049  -20.1645   -4.8523 C   0  0  0  0  0  0  0  0  0  0  0  0
   27.5619  -18.8320   -4.5483 C   0  0  0  0  0  0  0  0  0  0  0  0
   27.7591  -17.9653   -5.5900 C   0  0  0  0  0  0  0  0  0  0  0  0
   27.7049  -18.3962   -6.8856 C   0  0  0  0  0  0  0  0  0  0  0  0
   27.4504  -19.7193   -7.2149 C   0  0  0  0  0  0  0  0  0  0  0  0
   25.2414  -20.1976  -10.7329 C   0  0  0  0  0  0  0  0  0  0  0  0
   24.9534  -18.9620  -10.9012 O   0  0  0  0  0  0  0  0  0  0  0  0
   22.8903  -20.3911  -12.9063 C   0  0  0  0  0  0  0  0  0  0  0  0
   22.1592  -20.9464  -11.7202 C   0  0  1  0  0  0  0  0  0  0  0  0
   22.1543  -22.4403  -11.7636 C   0  0  0  0  0  0  0  0  0  0  0  0
   22.8272  -20.5254  -10.4033 C   0  0  2  0  0  0  0  0  0  0  0  0
   24.1698  -21.0594  -10.4795 N   0  0  0  0  0  0  0  0  0  0  0  0
   22.0525  -20.9804   -9.2466 C   0  0  0  0  0  0  0  0  0  0  0  0
   22.5862  -21.9039   -8.3221 O   0  0  0  0  0  0  0  0  0  0  0  0
   20.8915  -20.5940   -8.9997 O   0  0  0  0  0  0  0  0  0  0  0  0
  2  1  1  6
  2  3  1  0
  4  2  1  0
  5  6  1  6
  5  4  1  0
  7  5  1  0
  8  7  2  0
  9  7  1  0
 10 21  1  0
 10  9  1  0
 11 12  1  0
 10 11  1  1
 12 20  1  0
 13 12  2  0
 13 14  1  0
 14 15  1  0
 15 16  1  0
 16 17  2  0
 18 17  1  0
 19 18  2  0
 20 15  2  0
 20 19  1  0
 21 27  1  0
 22 21  2  0
 24 23  1  6
 24 25  1  0
 26 24  1  0
 26 28  1  0
 26 27  1  1
 28 30  2  0
 28 29  1  0
M  END
$$$$
