LWV.pdb
     RDKit          3D

 30 31  0  0  1  0  0  0  0  0999 V2000
   30.0077  -21.0219  -13.9788 C   0  0  0  0  0  0  0  0  0  0  0  0
   28.5667  -20.5509  -13.9888 C   0  0  1  0  0  0  0  0  0  0  0  0
   27.9810  -20.8894  -15.3271 C   0  0  0  0  0  0  0  0  0  0  0  0
   27.8648  -21.1665  -12.8332 C   0  0  0  0  0  0  0  0  0  0  0  0
   26.4281  -20.7312  -12.6977 C   0  0  2  0  0  0  0  0  0  0  0  0
   26.2717  -19.3040  -12.7180 N   0  0  0  0  0  0  0  0  0  0  0  0
   25.8750  -21.2066  -11.3888 C   0  0  0  0  0  0  0  0  0  0  0  0
   26.1020  -22.3967  -10.9777 O   0  0  0  0  0  0  0  0  0  0  0  0
   25.0836  -20.3815  -10.5457 N   0  0  0  0  0  0  0  0  0  0  0  0
   24.5389  -20.9111   -9.2668 C   0  0  1  0  0  0  0  0  0  0  0  0
   24.8915  -19.9493   -8.1655 C   0  0  0  0  0  0  0  0  0  0  0  0
   26.3186  -19.8457   -7.8387 C   0  0  0  0  0  0  0  0  0  0  0  0
   27.3686  -19.5572   -8.6837 C   0  0  0  0  0  0  0  0  0  0  0  0
   28.5303  -19.5840   -8.0184 N   0  0  0  0  0  0  0  0  0  0  0  0
   28.2776  -19.8892   -6.7226 C   0  0  0  0  0  0  0  0  0  0  0  0
   29.1123  -20.0412   -5.6296 C   0  0  0  0  0  0  0  0  0  0  0  0
   28.6002  -20.3631   -4.3774 C   0  0  0  0  0  0  0  0  0  0  0  0
   27.2452  -20.5242   -4.2631 C   0  0  0  0  0  0  0  0  0  0  0  0
   26.4236  -20.3736   -5.3445 C   0  0  0  0  0  0  0  0  0  0  0  0
   26.9094  -20.0529   -6.6034 C   0  0  0  0  0  0  0  0  0  0  0  0
   23.0772  -21.0120   -9.4029 C   0  0  0  0  0  0  0  0  0  0  0  0
   22.4588  -19.9486   -9.7562 O   0  0  0  0  0  0  0  0  0  0  0  0
   18.9780  -23.1942  -10.5185 C   0  0  0  0  0  0  0  0  0  0  0  0
   20.4635  -23.1403  -10.3179 C   0  0  1  0  0  0  0  0  0  0  0  0
   21.1520  -22.8207  -11.6053 C   0  0  0  0  0  0  0  0  0  0  0  0
   20.8526  -22.0543   -9.3046 C   0  0  2  0  0  0  0  0  0  0  0  0
   22.2920  -22.1495   -9.1911 N   0  0  0  0  0  0  0  0  0  0  0  0
   20.1271  -22.2213   -8.0433 C   0  0  0  0  0  0  0  0  0  0  0  0
   18.8771  -21.6023   -7.8271 O   0  0  0  0  0  0  0  0  0  0  0  0
   20.5510  -22.9070   -7.0903 O   0  0  0  0  0  0  0  0  0  0  0  0
  2  1  1  6
  2  3  1  0
  4  2  1  0
  5  6  1  1
  5  4  1  0
  7  5  1  0
  8  7  2  0
  9  7  1  0
 10 21  1  0
 10  9  1  0
 11 12  1  0
 10 11  1  1
 12 20  1  0
 13 12  2  0
 13 14  1  0
 14 15  1  0
 15 16  1  0
 16 17  2  0
 18 17  1  0
 19 18  2  0
 20 15  2  0
 20 19  1  0
 21 27  1  0
 22 21  2  0
 24 23  1  6
 24 25  1  0
 26 24  1  0
 26 28  1  0
 26 27  1  1
 28 30  2  0
 28 29  1  0
M  END
$$$$
