LWV.pdb
     RDKit          3D

 30 31  0  0  1  0  0  0  0  0999 V2000
   26.8776  -17.4075  -17.1491 C   0  0  0  0  0  0  0  0  0  0  0  0
   27.8306  -18.1796  -16.2580 C   0  0  1  0  0  0  0  0  0  0  0  0
   28.6353  -17.1860  -15.4745 C   0  0  0  0  0  0  0  0  0  0  0  0
   27.0365  -19.1230  -15.4295 C   0  0  0  0  0  0  0  0  0  0  0  0
   27.8481  -19.8307  -14.3749 C   0  0  2  0  0  0  0  0  0  0  0  0
   28.7894  -20.7645  -14.9262 N   0  0  0  0  0  0  0  0  0  0  0  0
   26.9401  -20.6141  -13.4764 C   0  0  0  0  0  0  0  0  0  0  0  0
   26.5002  -21.7615  -13.8326 O   0  0  0  0  0  0  0  0  0  0  0  0
   26.5240  -20.1393  -12.2039 N   0  0  0  0  0  0  0  0  0  0  0  0
   25.6272  -20.9612  -11.3477 C   0  0  1  0  0  0  0  0  0  0  0  0
   25.8221  -20.5428   -9.9163 C   0  0  0  0  0  0  0  0  0  0  0  0
   27.1594  -20.7750   -9.3579 C   0  0  0  0  0  0  0  0  0  0  0  0
   28.1900  -21.5176   -9.8925 C   0  0  0  0  0  0  0  0  0  0  0  0
   29.2468  -21.5181   -9.0702 N   0  0  0  0  0  0  0  0  0  0  0  0
   28.9419  -20.7784   -7.9766 C   0  0  0  0  0  0  0  0  0  0  0  0
   29.6692  -20.4630   -6.8425 C   0  0  0  0  0  0  0  0  0  0  0  0
   29.1229  -19.6693   -5.8398 C   0  0  0  0  0  0  0  0  0  0  0  0
   27.8438  -19.2118   -6.0124 C   0  0  0  0  0  0  0  0  0  0  0  0
   27.1282  -19.5252   -7.1335 C   0  0  0  0  0  0  0  0  0  0  0  0
   27.6502  -20.3146   -8.1474 C   0  0  0  0  0  0  0  0  0  0  0  0
   24.2399  -20.7054  -11.7663 C   0  0  0  0  0  0  0  0  0  0  0  0
   23.8780  -19.4798  -11.8359 O   0  0  0  0  0  0  0  0  0  0  0  0
   20.2922  -21.8621  -14.3137 C   0  0  0  0  0  0  0  0  0  0  0  0
   21.6325  -22.1813  -13.7208 C   0  0  1  0  0  0  0  0  0  0  0  0
   22.7053  -22.0402  -14.7517 C   0  0  0  0  0  0  0  0  0  0  0  0
   21.9747  -21.2297  -12.5655 C   0  0  2  0  0  0  0  0  0  0  0  0
   23.2754  -21.6610  -12.1008 N   0  0  0  0  0  0  0  0  0  0  0  0
   20.9260  -21.2383  -11.5430 C   0  0  0  0  0  0  0  0  0  0  0  0
   19.9252  -20.2436  -11.5086 O   0  0  0  0  0  0  0  0  0  0  0  0
   20.8427  -22.1052  -10.6487 O   0  0  0  0  0  0  0  0  0  0  0  0
  2  1  1  6
  2  3  1  0
  4  2  1  0
  5  6  1  6
  5  4  1  0
  7  5  1  0
  8  7  2  0
  9  7  1  0
 10 21  1  0
 10  9  1  0
 11 12  1  0
 10 11  1  1
 12 20  1  0
 13 12  2  0
 13 14  1  0
 14 15  1  0
 15 16  1  0
 16 17  2  0
 18 17  1  0
 19 18  2  0
 20 15  2  0
 20 19  1  0
 21 27  1  0
 22 21  2  0
 24 23  1  6
 24 25  1  0
 26 24  1  0
 26 28  1  0
 26 27  1  1
 28 30  2  0
 28 29  1  0
M  END
$$$$
