LWV.pdb
     RDKit          3D

 30 31  0  0  1  0  0  0  0  0999 V2000
   25.9517  -20.2017  -18.4669 C   0  0  0  0  0  0  0  0  0  0  0  0
   25.2948  -19.4717  -17.3119 C   0  0  1  0  0  0  0  0  0  0  0  0
   24.7305  -18.1869  -17.8407 C   0  0  0  0  0  0  0  0  0  0  0  0
   24.2936  -20.3786  -16.6936 C   0  0  0  0  0  0  0  0  0  0  0  0
   23.6316  -19.8016  -15.4686 C   0  0  2  0  0  0  0  0  0  0  0  0
   23.8796  -18.3964  -15.3080 N   0  0  0  0  0  0  0  0  0  0  0  0
   24.1619  -20.4757  -14.2399 C   0  0  0  0  0  0  0  0  0  0  0  0
   24.1367  -21.7503  -14.1322 O   0  0  0  0  0  0  0  0  0  0  0  0
   24.7122  -19.7548  -13.1466 N   0  0  0  0  0  0  0  0  0  0  0  0
   25.1706  -20.4695  -11.9252 C   0  0  1  0  0  0  0  0  0  0  0  0
   26.2732  -19.6671  -11.2907 C   0  0  0  0  0  0  0  0  0  0  0  0
   27.1455  -20.3985  -10.3642 C   0  0  0  0  0  0  0  0  0  0  0  0
   27.8586  -21.5547  -10.5969 C   0  0  0  0  0  0  0  0  0  0  0  0
   28.5146  -21.9343   -9.4930 N   0  0  0  0  0  0  0  0  0  0  0  0
   28.2525  -21.0416   -8.5079 C   0  0  0  0  0  0  0  0  0  0  0  0
   28.6729  -20.9685   -7.1916 C   0  0  0  0  0  0  0  0  0  0  0  0
   28.2557  -19.9319   -6.3637 C   0  0  0  0  0  0  0  0  0  0  0  0
   27.4167  -18.9886   -6.8939 C   0  0  0  0  0  0  0  0  0  0  0  0
   27.0032  -19.0637   -8.1941 C   0  0  0  0  0  0  0  0  0  0  0  0
   27.4049  -20.0870   -9.0400 C   0  0  0  0  0  0  0  0  0  0  0  0
   24.0271  -20.5758  -11.0052 C   0  0  0  0  0  0  0  0  0  0  0  0
   23.3069  -19.5276  -10.8610 O   0  0  0  0  0  0  0  0  0  0  0  0
   20.1877  -22.5303   -9.1676 C   0  0  0  0  0  0  0  0  0  0  0  0
   21.4187  -22.4733  -10.0227 C   0  0  1  0  0  0  0  0  0  0  0  0
   21.1031  -21.8639  -11.3504 C   0  0  0  0  0  0  0  0  0  0  0  0
   22.5141  -21.6173   -9.3709 C   0  0  2  0  0  0  0  0  0  0  0  0
   23.6411  -21.7037  -10.2744 N   0  0  0  0  0  0  0  0  0  0  0  0
   22.7911  -22.0621   -8.0032 C   0  0  0  0  0  0  0  0  0  0  0  0
   21.9701  -21.6720   -6.9233 O   0  0  0  0  0  0  0  0  0  0  0  0
   23.7504  -22.8008   -7.6998 O   0  0  0  0  0  0  0  0  0  0  0  0
  2  1  1  6
  2  3  1  0
  4  2  1  0
  5  6  1  1
  5  4  1  0
  7  5  1  0
  8  7  2  0
  9  7  1  0
 10 21  1  0
 10  9  1  0
 11 12  1  0
 10 11  1  1
 12 20  1  0
 13 12  2  0
 13 14  1  0
 14 15  1  0
 15 16  1  0
 16 17  2  0
 18 17  1  0
 19 18  2  0
 20 15  2  0
 20 19  1  0
 21 27  1  0
 22 21  2  0
 24 23  1  1
 24 25  1  0
 26 24  1  0
 26 28  1  0
 26 27  1  6
 28 30  2  0
 28 29  1  0
M  END
$$$$
