LWV.pdb
     RDKit          3D

 30 31  0  0  1  0  0  0  0  0999 V2000
   27.6842  -21.7441  -18.6259 C   0  0  0  0  0  0  0  0  0  0  0  0
   28.2267  -21.1789  -17.3279 C   0  0  1  0  0  0  0  0  0  0  0  0
   28.2646  -19.6853  -17.4566 C   0  0  0  0  0  0  0  0  0  0  0  0
   27.3868  -21.6821  -16.2107 C   0  0  0  0  0  0  0  0  0  0  0  0
   27.6931  -21.0331  -14.8853 C   0  0  2  0  0  0  0  0  0  0  0  0
   28.9599  -21.4377  -14.3437 N   0  0  0  0  0  0  0  0  0  0  0  0
   26.6517  -21.4180  -13.8789 C   0  0  0  0  0  0  0  0  0  0  0  0
   25.9869  -22.5033  -14.0098 O   0  0  0  0  0  0  0  0  0  0  0  0
   26.3485  -20.6180  -12.7449 N   0  0  0  0  0  0  0  0  0  0  0  0
   25.3770  -21.0935  -11.7236 C   0  0  1  0  0  0  0  0  0  0  0  0
   25.6825  -20.4066  -10.4210 C   0  0  0  0  0  0  0  0  0  0  0  0
   26.9911  -20.7091   -9.8293 C   0  0  0  0  0  0  0  0  0  0  0  0
   27.9929  -21.5079  -10.3371 C   0  0  0  0  0  0  0  0  0  0  0  0
   29.0275  -21.5632   -9.4889 N   0  0  0  0  0  0  0  0  0  0  0  0
   28.7362  -20.8051   -8.4043 C   0  0  0  0  0  0  0  0  0  0  0  0
   29.4513  -20.5263   -7.2530 C   0  0  0  0  0  0  0  0  0  0  0  0
   28.9242  -19.7014   -6.2653 C   0  0  0  0  0  0  0  0  0  0  0  0
   27.6764  -19.1759   -6.4702 C   0  0  0  0  0  0  0  0  0  0  0  0
   26.9727  -19.4533   -7.6081 C   0  0  0  0  0  0  0  0  0  0  0  0
   27.4761  -20.2726   -8.6077 C   0  0  0  0  0  0  0  0  0  0  0  0
   24.0252  -20.7348  -12.1811 C   0  0  0  0  0  0  0  0  0  0  0  0
   23.8083  -19.4952  -12.4146 O   0  0  0  0  0  0  0  0  0  0  0  0
   22.4082  -21.6411  -15.1775 C   0  0  0  0  0  0  0  0  0  0  0  0
   21.3633  -21.8639  -14.1248 C   0  0  1  0  0  0  0  0  0  0  0  0
   21.2918  -23.3113  -13.7594 C   0  0  0  0  0  0  0  0  0  0  0  0
   21.6829  -21.0799  -12.8439 C   0  0  2  0  0  0  0  0  0  0  0  0
   22.9526  -21.6067  -12.3920 N   0  0  0  0  0  0  0  0  0  0  0  0
   20.5941  -21.1883  -11.8702 C   0  0  0  0  0  0  0  0  0  0  0  0
   19.3845  -20.4807  -12.0389 O   0  0  0  0  0  0  0  0  0  0  0  0
   20.6550  -21.8972  -10.8447 O   0  0  0  0  0  0  0  0  0  0  0  0
  2  1  1  6
  2  3  1  0
  4  2  1  0
  5  6  1  1
  5  4  1  0
  7  5  1  0
  8  7  2  0
  9  7  1  0
 10 21  1  0
 10  9  1  0
 11 12  1  0
 10 11  1  1
 12 20  1  0
 13 12  2  0
 13 14  1  0
 14 15  1  0
 15 16  1  0
 16 17  2  0
 18 17  1  0
 19 18  2  0
 20 15  2  0
 20 19  1  0
 21 27  1  0
 22 21  2  0
 24 23  1  6
 24 25  1  0
 26 24  1  0
 26 28  1  0
 26 27  1  1
 28 30  2  0
 28 29  1  0
M  END
$$$$
