LWV.pdb
     RDKit          3D

 30 31  0  0  1  0  0  0  0  0999 V2000
   31.0583  -20.1397  -11.9209 C   0  0  0  0  0  0  0  0  0  0  0  0
   29.7188  -20.0341  -12.6229 C   0  0  1  0  0  0  0  0  0  0  0  0
   29.9208  -20.4132  -14.0596 C   0  0  0  0  0  0  0  0  0  0  0  0
   28.7394  -20.8790  -11.8923 C   0  0  0  0  0  0  0  0  0  0  0  0
   27.3402  -20.7984  -12.4470 C   0  0  2  0  0  0  0  0  0  0  0  0
   26.9652  -19.4655  -12.8274 N   0  0  0  0  0  0  0  0  0  0  0  0
   26.3559  -21.2429  -11.4083 C   0  0  0  0  0  0  0  0  0  0  0  0
   26.4916  -22.3714  -10.8209 O   0  0  0  0  0  0  0  0  0  0  0  0
   25.2390  -20.4543  -11.0230 N   0  0  0  0  0  0  0  0  0  0  0  0
   24.2671  -20.9623  -10.0179 C   0  0  1  0  0  0  0  0  0  0  0  0
   24.1605  -19.9532   -8.9077 C   0  0  0  0  0  0  0  0  0  0  0  0
   25.4010  -19.6751   -8.1741 C   0  0  0  0  0  0  0  0  0  0  0  0
   26.4776  -18.9144   -8.5763 C   0  0  0  0  0  0  0  0  0  0  0  0
   27.4363  -18.9229   -7.6416 N   0  0  0  0  0  0  0  0  0  0  0  0
   27.0184  -19.6860   -6.6029 C   0  0  0  0  0  0  0  0  0  0  0  0
   27.6179  -20.0187   -5.4010 C   0  0  0  0  0  0  0  0  0  0  0  0
   26.9706  -20.8357   -4.4804 C   0  0  0  0  0  0  0  0  0  0  0  0
   25.7230  -21.2986   -4.8030 C   0  0  0  0  0  0  0  0  0  0  0  0
   25.1337  -20.9684   -5.9908 C   0  0  0  0  0  0  0  0  0  0  0  0
   25.7581  -20.1556   -6.9254 C   0  0  0  0  0  0  0  0  0  0  0  0
   22.9652  -21.1214  -10.6850 C   0  0  0  0  0  0  0  0  0  0  0  0
   22.6802  -20.2706  -11.5978 O   0  0  0  0  0  0  0  0  0  0  0  0
   19.8560  -23.9100   -9.7029 C   0  0  0  0  0  0  0  0  0  0  0  0
   20.2903  -23.5889  -11.1022 C   0  0  1  0  0  0  0  0  0  0  0  0
   19.1460  -23.7424  -12.0512 C   0  0  0  0  0  0  0  0  0  0  0  0
   20.7921  -22.1422  -11.2147 C   0  0  2  0  0  0  0  0  0  0  0  0
   22.0074  -22.1076  -10.4299 N   0  0  0  0  0  0  0  0  0  0  0  0
   19.7633  -21.1896  -10.7914 C   0  0  0  0  0  0  0  0  0  0  0  0
   19.7691  -20.6292   -9.4960 O   0  0  0  0  0  0  0  0  0  0  0  0
   18.8285  -20.8127  -11.5278 O   0  0  0  0  0  0  0  0  0  0  0  0
  2  1  1  1
  2  3  1  0
  4  2  1  0
  5  6  1  1
  5  4  1  0
  7  5  1  0
  8  7  2  0
  9  7  1  0
 10 21  1  0
 10  9  1  0
 11 12  1  0
 10 11  1  1
 12 20  1  0
 13 12  2  0
 13 14  1  0
 14 15  1  0
 15 16  1  0
 16 17  2  0
 18 17  1  0
 19 18  2  0
 20 15  2  0
 20 19  1  0
 21 27  1  0
 22 21  2  0
 24 23  1  1
 24 25  1  0
 26 24  1  0
 26 28  1  0
 26 27  1  1
 28 30  2  0
 28 29  1  0
M  END
$$$$
