LWV.pdb
     RDKit          3D

 30 31  0  0  1  0  0  0  0  0999 V2000
   28.6158  -19.7580  -19.3144 C   0  0  0  0  0  0  0  0  0  0  0  0
   28.3639  -20.7324  -18.1806 C   0  0  1  0  0  0  0  0  0  0  0  0
   29.1570  -21.9748  -18.4567 C   0  0  0  0  0  0  0  0  0  0  0  0
   28.6979  -20.0574  -16.9001 C   0  0  0  0  0  0  0  0  0  0  0  0
   28.6085  -20.9633  -15.6988 C   0  0  2  0  0  0  0  0  0  0  0  0
   27.8432  -22.1520  -15.9502 N   0  0  0  0  0  0  0  0  0  0  0  0
   27.9315  -20.2456  -14.5710 C   0  0  0  0  0  0  0  0  0  0  0  0
   28.3437  -19.0969  -14.1872 O   0  0  0  0  0  0  0  0  0  0  0  0
   26.8161  -20.7866  -13.8774 N   0  0  0  0  0  0  0  0  0  0  0  0
   26.0902  -19.9739  -12.8648 C   0  0  1  0  0  0  0  0  0  0  0  0
   24.6263  -19.9821  -13.2095 C   0  0  0  0  0  0  0  0  0  0  0  0
   24.2341  -19.1545  -14.3564 C   0  0  0  0  0  0  0  0  0  0  0  0
   23.3173  -19.4444  -15.3439 C   0  0  0  0  0  0  0  0  0  0  0  0
   23.2574  -18.4498  -16.2385 N   0  0  0  0  0  0  0  0  0  0  0  0
   24.1293  -17.4820  -15.8655 C   0  0  0  0  0  0  0  0  0  0  0  0
   24.4530  -16.2619  -16.4321 C   0  0  0  0  0  0  0  0  0  0  0  0
   25.4009  -15.4298  -15.8463 C   0  0  0  0  0  0  0  0  0  0  0  0
   26.0016  -15.8580  -14.6927 C   0  0  0  0  0  0  0  0  0  0  0  0
   25.6799  -17.0636  -14.1357 C   0  0  0  0  0  0  0  0  0  0  0  0
   24.7383  -17.9113  -14.7002 C   0  0  0  0  0  0  0  0  0  0  0  0
   26.3042  -20.5932  -11.5472 C   0  0  0  0  0  0  0  0  0  0  0  0
   26.3552  -21.8716  -11.5153 O   0  0  0  0  0  0  0  0  0  0  0  0
   27.1371  -20.5503   -6.7203 C   0  0  0  0  0  0  0  0  0  0  0  0
   27.1978  -19.9148   -8.0776 C   0  0  1  0  0  0  0  0  0  0  0  0
   28.5997  -19.9246   -8.5955 C   0  0  0  0  0  0  0  0  0  0  0  0
   26.3266  -20.6722   -9.0900 C   0  0  2  0  0  0  0  0  0  0  0  0
   26.4623  -19.9314  -10.3256 N   0  0  0  0  0  0  0  0  0  0  0  0
   24.9507  -20.8100   -8.6072 C   0  0  0  0  0  0  0  0  0  0  0  0
   24.6018  -21.7886   -7.6517 O   0  0  0  0  0  0  0  0  0  0  0  0
   24.0087  -20.0893   -8.9961 O   0  0  0  0  0  0  0  0  0  0  0  0
  2  1  1  6
  2  3  1  0
  4  2  1  0
  5  6  1  6
  5  4  1  0
  7  5  1  0
  8  7  2  0
  9  7  1  0
 10 21  1  0
 10  9  1  0
 11 12  1  0
 10 11  1  6
 12 20  1  0
 13 12  2  0
 13 14  1  0
 14 15  1  0
 15 16  1  0
 16 17  2  0
 18 17  1  0
 19 18  2  0
 20 15  2  0
 20 19  1  0
 21 27  1  0
 22 21  2  0
 24 23  1  1
 24 25  1  0
 26 24  1  0
 26 28  1  0
 26 27  1  6
 28 30  2  0
 28 29  1  0
M  END
$$$$
