LWV.pdb
     RDKit          3D

 30 31  0  0  1  0  0  0  0  0999 V2000
   30.7556  -21.4657  -20.3155 C   0  0  0  0  0  0  0  0  0  0  0  0
   29.9798  -22.3186  -19.3310 C   0  0  1  0  0  0  0  0  0  0  0  0
   30.7754  -23.5635  -19.0738 C   0  0  0  0  0  0  0  0  0  0  0  0
   29.7013  -21.5019  -18.1218 C   0  0  0  0  0  0  0  0  0  0  0  0
   29.0315  -22.2732  -17.0134 C   0  0  2  0  0  0  0  0  0  0  0  0
   28.3130  -23.4228  -17.4867 N   0  0  0  0  0  0  0  0  0  0  0  0
   28.0340  -21.3983  -16.3171 C   0  0  0  0  0  0  0  0  0  0  0  0
   28.3893  -20.2789  -15.8096 O   0  0  0  0  0  0  0  0  0  0  0  0
   26.6649  -21.7527  -16.1830 N   0  0  0  0  0  0  0  0  0  0  0  0
   25.7074  -20.8281  -15.5187 C   0  0  1  0  0  0  0  0  0  0  0  0
   24.4175  -20.8437  -16.2920 C   0  0  0  0  0  0  0  0  0  0  0  0
   23.3170  -20.0611  -15.7172 C   0  0  0  0  0  0  0  0  0  0  0  0
   23.3808  -18.8434  -15.0748 C   0  0  0  0  0  0  0  0  0  0  0  0
   22.1648  -18.4636  -14.6623 N   0  0  0  0  0  0  0  0  0  0  0  0
   21.2712  -19.4169  -15.0209 C   0  0  0  0  0  0  0  0  0  0  0  0
   19.9030  -19.5158  -14.8393 C   0  0  0  0  0  0  0  0  0  0  0  0
   19.1965  -20.6174  -15.3096 C   0  0  0  0  0  0  0  0  0  0  0  0
   19.8990  -21.5985  -15.9568 C   0  0  0  0  0  0  0  0  0  0  0  0
   21.2501  -21.4980  -16.1343 C   0  0  0  0  0  0  0  0  0  0  0  0
   21.9774  -20.4100  -15.6749 C   0  0  0  0  0  0  0  0  0  0  0  0
   25.4828  -21.3146  -14.1483 C   0  0  0  0  0  0  0  0  0  0  0  0
   25.3276  -22.5770  -14.0055 O   0  0  0  0  0  0  0  0  0  0  0  0
   25.5862  -19.0028  -10.5861 C   0  0  0  0  0  0  0  0  0  0  0  0
   25.8966  -20.4680  -10.6669 C   0  0  1  0  0  0  0  0  0  0  0  0
   25.6127  -21.1338   -9.3593 C   0  0  0  0  0  0  0  0  0  0  0  0
   25.0402  -21.1638  -11.7345 C   0  0  2  0  0  0  0  0  0  0  0  0
   25.4254  -20.5430  -12.9835 N   0  0  0  0  0  0  0  0  0  0  0  0
   23.6138  -21.0656  -11.4169 C   0  0  0  0  0  0  0  0  0  0  0  0
   22.9753  -22.0232  -10.5997 O   0  0  0  0  0  0  0  0  0  0  0  0
   22.8761  -20.1499  -11.8358 O   0  0  0  0  0  0  0  0  0  0  0  0
  2  1  1  6
  2  3  1  0
  4  2  1  0
  5  6  1  6
  5  4  1  0
  7  5  1  0
  8  7  2  0
  9  7  1  0
 10 21  1  0
 10  9  1  0
 11 12  1  0
 10 11  1  6
 12 20  1  0
 13 12  2  0
 13 14  1  0
 14 15  1  0
 15 16  1  0
 16 17  2  0
 18 17  1  0
 19 18  2  0
 20 15  2  0
 20 19  1  0
 21 27  1  0
 22 21  2  0
 24 23  1  1
 24 25  1  0
 26 24  1  0
 26 28  1  0
 26 27  1  6
 28 30  2  0
 28 29  1  0
M  END
$$$$
