MRI.pdb
     RDKit          3D

 28 27  0  0  1  0  0  0  0  0999 V2000
    7.8035  -11.0722   20.6041 C   0  0  0  0  0  0  0  0  0  0  0  0
    7.9750  -11.8289   18.9840 S   0  0  0  0  0  0  0  0  0  0  0  0
    7.6757  -13.5671   18.9124 C   0  0  0  0  0  0  0  0  0  0  0  0
    7.8649  -14.3443   20.1426 C   0  0  0  0  0  0  0  0  0  0  0  0
    7.6571  -15.7978   20.1755 C   0  0  2  0  0  0  0  0  0  0  0  0
    6.4707  -16.2747   19.5606 N   0  0  0  0  0  0  0  0  0  0  0  0
    7.8037  -16.3141   21.5890 C   0  0  0  0  0  0  0  0  0  0  0  0
    6.7634  -16.3166   22.3051 O   0  0  0  0  0  0  0  0  0  0  0  0
   13.7099  -21.7248   25.3502 N   0  0  0  0  0  0  0  0  0  0  0  0
   13.1609  -20.9297   26.4170 C   0  0  0  0  0  0  0  0  0  0  0  0
   13.5887  -21.1087   27.6184 N   0  0  0  0  0  0  0  0  0  0  0  0
   12.1653  -19.9571   26.1857 N   0  0  0  0  0  0  0  0  0  0  0  0
   11.4486  -19.9026   24.9057 C   0  0  0  0  0  0  0  0  0  0  0  0
   10.3342  -18.8579   24.9944 C   0  0  0  0  0  0  0  0  0  0  0  0
   10.1664  -18.2929   23.6330 C   0  0  0  0  0  0  0  0  0  0  0  0
    9.0945  -17.2435   23.5090 C   0  0  2  0  0  0  0  0  0  0  0  0
    9.0055  -16.7757   22.1245 N   0  0  0  0  0  0  0  0  0  0  0  0
    9.4865  -16.0946   24.3906 C   0  0  0  0  0  0  0  0  0  0  0  0
   10.4739  -15.3686   24.1239 O   0  0  0  0  0  0  0  0  0  0  0  0
   13.2294  -20.5495   28.4035 C   0  0  0  0  0  0  0  0  0  0  0  0
    6.3284  -12.3721   25.5799 C   0  0  0  0  0  0  0  0  0  0  0  0
    7.5829  -13.1611   25.4454 C   0  0  2  0  0  0  0  0  0  0  0  0
    8.0602  -13.7511   26.7625 C   0  0  0  0  0  0  0  0  0  0  0  0
    8.4023  -12.6506   27.6941 C   0  0  2  0  0  0  0  0  0  0  0  0
    9.0916  -14.7765   26.5405 N   0  0  0  0  0  0  0  0  0  0  0  0
    8.7450  -15.7852   25.5719 C   0  0  0  0  0  0  0  0  0  0  0  0
    9.7219  -15.3409   27.7526 O   0  0  0  0  0  0  0  0  0  0  0  0
   10.3289  -14.5515   28.5101 O   0  0  0  0  0  0  0  0  0  0  0  0
  2  1  1  0
  3  2  1  0
  4  3  1  0
  4  5  1  0
  5  6  1  1
  7  8  2  0
  7  5  1  0
  9 10  1  0
 10 12  1  0
 11 10  2  0
 12 13  1  0
 13 14  1  0
 14 15  1  0
 16 15  1  6
 16 17  1  0
 17  7  1  0
 18 25  1  0
 18 16  1  0
 19 18  2  0
 20 21  1  0
 21 22  1  0
 22 24  1  0
 22 23  1  1
 24 25  1  6
 24 26  1  0
 26 28  1  0
 27 26  2  0
M  END
$$$$
