MRI.pdb
     RDKit          3D

 28 27  0  0  1  0  0  0  0  0999 V2000
    7.6454  -11.5042   20.7163 C   0  0  0  0  0  0  0  0  0  0  0  0
    7.8655  -12.1567   19.0573 S   0  0  0  0  0  0  0  0  0  0  0  0
    7.1320  -13.7322   18.7477 C   0  0  0  0  0  0  0  0  0  0  0  0
    8.0275  -14.8570   18.4540 C   0  0  0  0  0  0  0  0  0  0  0  0
    9.0919  -15.2575   19.3833 C   0  0  2  0  0  0  0  0  0  0  0  0
    9.9448  -16.3032   18.9451 N   0  0  0  0  0  0  0  0  0  0  0  0
    8.5117  -15.5415   20.7502 C   0  0  0  0  0  0  0  0  0  0  0  0
    7.8456  -14.6143   21.2901 O   0  0  0  0  0  0  0  0  0  0  0  0
    9.4463  -22.0721   20.1885 N   0  0  0  0  0  0  0  0  0  0  0  0
   10.3525  -21.8100   21.2756 C   0  0  0  0  0  0  0  0  0  0  0  0
   11.5233  -22.3460   21.2609 N   0  0  0  0  0  0  0  0  0  0  0  0
    9.9956  -20.9811   22.3602 N   0  0  0  0  0  0  0  0  0  0  0  0
    8.5866  -20.7599   22.7073 C   0  0  0  0  0  0  0  0  0  0  0  0
    8.1235  -19.4269   22.1158 C   0  0  0  0  0  0  0  0  0  0  0  0
    8.3027  -18.4026   23.1738 C   0  0  0  0  0  0  0  0  0  0  0  0
    8.0582  -16.9845   22.7323 C   0  0  2  0  0  0  0  0  0  0  0  0
    8.6749  -16.7507   21.4252 N   0  0  0  0  0  0  0  0  0  0  0  0
    8.6987  -16.0820   23.7452 C   0  0  0  0  0  0  0  0  0  0  0  0
    9.9323  -15.8556   23.7371 O   0  0  0  0  0  0  0  0  0  0  0  0
   12.2100  -22.1525   22.0020 C   0  0  0  0  0  0  0  0  0  0  0  0
    5.6387  -12.0290   25.6351 C   0  0  0  0  0  0  0  0  0  0  0  0
    6.7529  -12.8993   25.1706 C   0  0  2  0  0  0  0  0  0  0  0  0
    7.4828  -13.5922   26.3098 C   0  0  0  0  0  0  0  0  0  0  0  0
    8.0185  -12.5697   27.2390 C   0  0  2  0  0  0  0  0  0  0  0  0
    8.4370  -14.5887   25.7988 N   0  0  0  0  0  0  0  0  0  0  0  0
    7.9217  -15.4449   24.7609 C   0  0  0  0  0  0  0  0  0  0  0  0
    9.2152  -15.3277   26.8152 O   0  0  0  0  0  0  0  0  0  0  0  0
    8.8307  -16.4806   27.1127 O   0  0  0  0  0  0  0  0  0  0  0  0
  2  1  1  0
  3  2  1  0
  4  3  1  0
  4  5  1  0
  5  6  1  6
  7  8  2  0
  7  5  1  0
  9 10  1  0
 10 12  1  0
 11 10  2  0
 12 13  1  0
 13 14  1  0
 14 15  1  0
 16 15  1  1
 16 17  1  0
 17  7  1  0
 18 25  1  0
 18 16  1  0
 19 18  2  0
 20 21  1  0
 21 22  1  0
 22 24  1  0
 22 23  1  1
 24 25  1  6
 24 26  1  0
 26 28  1  0
 27 26  2  0
M  END
$$$$
