MRI.pdb
     RDKit          3D

 28 27  0  0  1  0  0  0  0  0999 V2000
    8.3377  -11.6917   20.1282 C   0  0  0  0  0  0  0  0  0  0  0  0
    8.1961  -12.5365   18.5493 S   0  0  0  0  0  0  0  0  0  0  0  0
    7.5793  -14.1892   18.6148 C   0  0  0  0  0  0  0  0  0  0  0  0
    7.3272  -14.7725   19.9374 C   0  0  0  0  0  0  0  0  0  0  0  0
    6.8549  -16.1544   20.0928 C   0  0  2  0  0  0  0  0  0  0  0  0
    5.7393  -16.5277   19.2996 N   0  0  0  0  0  0  0  0  0  0  0  0
    6.6348  -16.4694   21.5551 C   0  0  0  0  0  0  0  0  0  0  0  0
    5.5054  -16.1750   22.0374 O   0  0  0  0  0  0  0  0  0  0  0  0
    7.8428  -19.9239   28.8643 N   0  0  0  0  0  0  0  0  0  0  0  0
    7.4874  -20.9559   27.9260 C   0  0  0  0  0  0  0  0  0  0  0  0
    6.7354  -21.9265   28.3143 N   0  0  0  0  0  0  0  0  0  0  0  0
    7.9393  -20.9361   26.5896 N   0  0  0  0  0  0  0  0  0  0  0  0
    8.8367  -19.8763   26.1136 C   0  0  0  0  0  0  0  0  0  0  0  0
    8.0165  -18.6246   25.7949 C   0  0  0  0  0  0  0  0  0  0  0  0
    8.1000  -18.4187   24.3282 C   0  0  0  0  0  0  0  0  0  0  0  0
    7.3919  -17.1923   23.8180 C   0  0  2  0  0  0  0  0  0  0  0  0
    7.5985  -17.0552   22.3751 N   0  0  0  0  0  0  0  0  0  0  0  0
    7.9906  -16.0058   24.5140 C   0  0  0  0  0  0  0  0  0  0  0  0
    8.1279  -14.9029   23.9327 O   0  0  0  0  0  0  0  0  0  0  0  0
    6.4846  -22.6963   27.6798 C   0  0  0  0  0  0  0  0  0  0  0  0
    6.6223  -12.1234   25.3637 C   0  0  0  0  0  0  0  0  0  0  0  0
    7.6330  -13.2153   25.3928 C   0  0  2  0  0  0  0  0  0  0  0  0
    7.7250  -13.9068   26.7432 C   0  0  0  0  0  0  0  0  0  0  0  0
    7.8508  -12.8834   27.8075 C   0  0  2  0  0  0  0  0  0  0  0  0
    8.7395  -14.9722   26.7246 N   0  0  0  0  0  0  0  0  0  0  0  0
    8.4284  -16.0907   25.8714 C   0  0  0  0  0  0  0  0  0  0  0  0
    9.2737  -15.3874   28.0388 O   0  0  0  0  0  0  0  0  0  0  0  0
    8.7611  -16.3921   28.5805 O   0  0  0  0  0  0  0  0  0  0  0  0
  2  1  1  0
  3  2  1  0
  4  3  1  0
  4  5  1  0
  5  6  1  6
  7  8  2  0
  7  5  1  0
  9 10  1  0
 10 12  1  0
 11 10  2  0
 12 13  1  0
 13 14  1  0
 14 15  1  0
 16 15  1  1
 16 17  1  0
 17  7  1  0
 18 25  1  0
 18 16  1  0
 19 18  2  0
 20 21  1  0
 21 22  1  0
 22 24  1  0
 22 23  1  1
 24 25  1  6
 24 26  1  0
 26 28  1  0
 27 26  2  0
M  END
$$$$
