MRI.pdb
     RDKit          3D

 28 27  0  0  1  0  0  0  0  0999 V2000
    6.1964  -18.2626   28.6605 C   0  0  0  0  0  0  0  0  0  0  0  0
    7.0774  -19.7570   28.1944 S   0  0  0  0  0  0  0  0  0  0  0  0
    7.4348  -19.9336   26.4748 C   0  0  0  0  0  0  0  0  0  0  0  0
    6.5604  -19.2419   25.5207 C   0  0  0  0  0  0  0  0  0  0  0  0
    6.7259  -19.3990   24.0699 C   0  0  2  0  0  0  0  0  0  0  0  0
    7.2360  -20.6476   23.6295 N   0  0  0  0  0  0  0  0  0  0  0  0
    7.5156  -18.2394   23.5061 C   0  0  0  0  0  0  0  0  0  0  0  0
    8.7445  -18.4373   23.2931 O   0  0  0  0  0  0  0  0  0  0  0  0
    8.4613  -12.0158   17.9617 N   0  0  0  0  0  0  0  0  0  0  0  0
    7.9971  -13.3597   17.7376 C   0  0  0  0  0  0  0  0  0  0  0  0
    8.2862  -13.9478   16.6291 N   0  0  0  0  0  0  0  0  0  0  0  0
    7.2327  -14.0542   18.6988 N   0  0  0  0  0  0  0  0  0  0  0  0
    6.8715  -13.4225   19.9737 C   0  0  0  0  0  0  0  0  0  0  0  0
    7.7679  -13.9754   21.0836 C   0  0  0  0  0  0  0  0  0  0  0  0
    6.9894  -15.0296   21.7789 C   0  0  0  0  0  0  0  0  0  0  0  0
    7.7861  -15.8871   22.7252 C   0  0  2  0  0  0  0  0  0  0  0  0
    6.9622  -16.9924   23.2182 N   0  0  0  0  0  0  0  0  0  0  0  0
    8.1903  -15.0226   23.8827 C   0  0  0  0  0  0  0  0  0  0  0  0
    7.8888  -13.8061   23.9314 O   0  0  0  0  0  0  0  0  0  0  0  0
    7.9875  -14.9142   16.4420 C   0  0  0  0  0  0  0  0  0  0  0  0
    6.6803  -12.0960   26.1638 C   0  0  0  0  0  0  0  0  0  0  0  0
    7.7662  -12.9834   25.6659 C   0  0  2  0  0  0  0  0  0  0  0  0
    8.2652  -13.9620   26.7166 C   0  0  0  0  0  0  0  0  0  0  0  0
    8.5973  -13.2199   27.9555 C   0  0  2  0  0  0  0  0  0  0  0  0
    9.3115  -14.8393   26.1685 N   0  0  0  0  0  0  0  0  0  0  0  0
    8.9377  -15.5573   24.9767 C   0  0  0  0  0  0  0  0  0  0  0  0
   10.0296  -15.6863   27.1442 O   0  0  0  0  0  0  0  0  0  0  0  0
    9.9324  -16.9270   27.0152 O   0  0  0  0  0  0  0  0  0  0  0  0
  2  1  1  0
  3  2  1  0
  4  3  1  0
  4  5  1  0
  5  6  1  1
  7  8  2  0
  7  5  1  0
  9 10  1  0
 10 12  1  0
 11 10  2  0
 12 13  1  0
 13 14  1  0
 14 15  1  0
 16 15  1  6
 16 17  1  0
 17  7  1  0
 18 25  1  0
 18 16  1  0
 19 18  2  0
 20 21  1  0
 21 22  1  0
 22 24  1  0
 22 23  1  1
 24 25  1  6
 24 26  1  0
 26 28  1  0
 27 26  2  0
M  END
$$$$
