MRI.pdb
     RDKit          3D

 28 27  0  0  1  0  0  0  0  0999 V2000
    6.8871  -22.5023   23.9143 C   0  0  0  0  0  0  0  0  0  0  0  0
    5.3622  -22.3530   22.9768 S   0  0  0  0  0  0  0  0  0  0  0  0
    5.0400  -20.7626   22.2819 C   0  0  0  0  0  0  0  0  0  0  0  0
    6.0581  -19.7208   22.4587 C   0  0  0  0  0  0  0  0  0  0  0  0
    5.7356  -18.4236   23.0673 C   0  0  2  0  0  0  0  0  0  0  0  0
    4.5255  -17.8165   22.6430 N   0  0  0  0  0  0  0  0  0  0  0  0
    6.9111  -17.4812   22.9410 C   0  0  0  0  0  0  0  0  0  0  0  0
    8.0437  -17.9371   23.2639 O   0  0  0  0  0  0  0  0  0  0  0  0
    9.8685  -15.1339   17.8772 N   0  0  0  0  0  0  0  0  0  0  0  0
   10.2013  -13.9310   18.5942 C   0  0  0  0  0  0  0  0  0  0  0  0
   11.4393  -13.6049   18.7341 N   0  0  0  0  0  0  0  0  0  0  0  0
    9.2093  -13.0958   19.1500 N   0  0  0  0  0  0  0  0  0  0  0  0
    7.7920  -13.4753   19.1027 C   0  0  0  0  0  0  0  0  0  0  0  0
    7.5599  -14.6781   20.0195 C   0  0  0  0  0  0  0  0  0  0  0  0
    7.7459  -14.1990   21.4111 C   0  0  0  0  0  0  0  0  0  0  0  0
    7.9715  -15.2831   22.4308 C   0  0  2  0  0  0  0  0  0  0  0  0
    6.8041  -16.1643   22.4955 N   0  0  0  0  0  0  0  0  0  0  0  0
    8.1569  -14.6162   23.7618 C   0  0  0  0  0  0  0  0  0  0  0  0
    7.9570  -13.3875   23.9150 O   0  0  0  0  0  0  0  0  0  0  0  0
   11.7172  -12.7830   19.2866 C   0  0  0  0  0  0  0  0  0  0  0  0
    6.1226  -12.0801   26.2221 C   0  0  0  0  0  0  0  0  0  0  0  0
    7.3019  -12.8800   25.7931 C   0  0  2  0  0  0  0  0  0  0  0  0
    7.6183  -14.0288   26.7368 C   0  0  0  0  0  0  0  0  0  0  0  0
    7.7313  -13.5072   28.1192 C   0  0  2  0  0  0  0  0  0  0  0  0
    8.7462  -14.8300   26.2362 N   0  0  0  0  0  0  0  0  0  0  0  0
    8.5704  -15.3613   24.9085 C   0  0  0  0  0  0  0  0  0  0  0  0
    9.3119  -15.8196   27.1773 O   0  0  0  0  0  0  0  0  0  0  0  0
    9.1200  -17.0306   26.9280 O   0  0  0  0  0  0  0  0  0  0  0  0
  2  1  1  0
  3  2  1  0
  4  3  1  0
  4  5  1  0
  5  6  1  6
  7  8  2  0
  7  5  1  0
  9 10  1  0
 10 12  1  0
 11 10  2  0
 12 13  1  0
 13 14  1  0
 14 15  1  0
 16 15  1  6
 16 17  1  0
 17  7  1  0
 18 25  1  0
 18 16  1  0
 19 18  2  0
 20 21  1  0
 21 22  1  0
 22 24  1  0
 22 23  1  6
 24 25  1  6
 24 26  1  0
 26 28  1  0
 27 26  2  0
M  END
$$$$
