MRI.pdb
     RDKit          3D

 28 27  0  0  1  0  0  0  0  0999 V2000
    7.2518  -17.7629   29.0630 C   0  0  0  0  0  0  0  0  0  0  0  0
    8.3332  -19.0869   28.5114 S   0  0  0  0  0  0  0  0  0  0  0  0
    7.7042  -20.1012   27.2108 C   0  0  0  0  0  0  0  0  0  0  0  0
    6.6227  -19.5567   26.3819 C   0  0  0  0  0  0  0  0  0  0  0  0
    6.6178  -19.7127   24.9216 C   0  0  2  0  0  0  0  0  0  0  0  0
    7.0020  -20.9857   24.4266 N   0  0  0  0  0  0  0  0  0  0  0  0
    7.4072  -18.5971   24.2749 C   0  0  0  0  0  0  0  0  0  0  0  0
    8.4660  -18.9253   23.6698 O   0  0  0  0  0  0  0  0  0  0  0  0
    8.5952  -14.8056   18.8094 N   0  0  0  0  0  0  0  0  0  0  0  0
    8.3094  -13.4275   19.1110 C   0  0  0  0  0  0  0  0  0  0  0  0
    9.0626  -12.5069   18.6176 N   0  0  0  0  0  0  0  0  0  0  0  0
    7.2256  -13.0537   19.9334 N   0  0  0  0  0  0  0  0  0  0  0  0
    6.5726  -14.0333   20.8103 C   0  0  0  0  0  0  0  0  0  0  0  0
    7.4260  -14.2378   22.0637 C   0  0  0  0  0  0  0  0  0  0  0  0
    6.7964  -15.3361   22.8370 C   0  0  0  0  0  0  0  0  0  0  0  0
    7.7607  -16.2330   23.5659 C   0  0  2  0  0  0  0  0  0  0  0  0
    7.0288  -17.2557   24.3156 N   0  0  0  0  0  0  0  0  0  0  0  0
    8.5309  -15.3771   24.5277 C   0  0  0  0  0  0  0  0  0  0  0  0
    8.4344  -14.1266   24.5174 O   0  0  0  0  0  0  0  0  0  0  0  0
    8.8866  -11.5116   18.8087 C   0  0  0  0  0  0  0  0  0  0  0  0
    6.9495  -12.9879   27.3949 C   0  0  0  0  0  0  0  0  0  0  0  0
    7.9971  -13.7160   26.6288 C   0  0  2  0  0  0  0  0  0  0  0  0
    8.8197  -14.6589   27.4917 C   0  0  0  0  0  0  0  0  0  0  0  0
    9.2559  -13.9450   28.7148 C   0  0  2  0  0  0  0  0  0  0  0  0
    9.8688  -15.3211   26.7008 N   0  0  0  0  0  0  0  0  0  0  0  0
    9.4067  -15.9594   25.4946 C   0  0  0  0  0  0  0  0  0  0  0  0
   10.8278  -16.1541   27.4567 O   0  0  0  0  0  0  0  0  0  0  0  0
   11.4695  -15.6045   28.3796 O   0  0  0  0  0  0  0  0  0  0  0  0
  2  1  1  0
  3  2  1  0
  4  3  1  0
  4  5  1  0
  5  6  1  1
  7  8  2  0
  7  5  1  0
  9 10  1  0
 10 12  1  0
 11 10  2  0
 12 13  1  0
 13 14  1  0
 14 15  1  0
 16 15  1  1
 16 17  1  0
 17  7  1  0
 18 25  1  0
 18 16  1  0
 19 18  2  0
 20 21  1  0
 21 22  1  0
 22 24  1  0
 22 23  1  1
 24 25  1  6
 24 26  1  0
 26 28  1  0
 27 26  2  0
M  END
$$$$
