MRI.pdb
     RDKit          3D

 28 27  0  0  1  0  0  0  0  0999 V2000
    7.1992  -11.1920   26.5802 C   0  0  0  0  0  0  0  0  0  0  0  0
    5.7311  -11.9444   27.2909 S   0  0  0  0  0  0  0  0  0  0  0  0
    5.2372  -13.4841   26.5827 C   0  0  0  0  0  0  0  0  0  0  0  0
    6.2790  -14.3258   25.9831 C   0  0  0  0  0  0  0  0  0  0  0  0
    5.9541  -15.5845   25.2998 C   0  0  2  0  0  0  0  0  0  0  0  0
    5.1308  -16.4913   26.0160 N   0  0  0  0  0  0  0  0  0  0  0  0
    7.2173  -16.2479   24.7996 C   0  0  0  0  0  0  0  0  0  0  0  0
    7.6124  -17.2687   25.4297 O   0  0  0  0  0  0  0  0  0  0  0  0
    7.7843  -13.7379   18.1652 N   0  0  0  0  0  0  0  0  0  0  0  0
    8.8059  -13.2940   19.0768 C   0  0  0  0  0  0  0  0  0  0  0  0
    8.8860  -12.0425   19.3699 N   0  0  0  0  0  0  0  0  0  0  0  0
    9.7250  -14.1911   19.6607 N   0  0  0  0  0  0  0  0  0  0  0  0
    9.4981  -15.6406   19.6107 C   0  0  0  0  0  0  0  0  0  0  0  0
    8.7667  -16.0819   20.8801 C   0  0  0  0  0  0  0  0  0  0  0  0
    9.6990  -15.8583   22.0122 C   0  0  0  0  0  0  0  0  0  0  0  0
    9.2305  -16.3991   23.3365 C   0  0  2  0  0  0  0  0  0  0  0  0
    7.9479  -15.7949   23.7018 N   0  0  0  0  0  0  0  0  0  0  0  0
   10.2586  -16.0256   24.3632 C   0  0  0  0  0  0  0  0  0  0  0  0
   10.8085  -14.8983   24.3629 O   0  0  0  0  0  0  0  0  0  0  0  0
    9.6335  -11.6818   19.9776 C   0  0  0  0  0  0  0  0  0  0  0  0
   10.6445  -12.8831   26.9765 C   0  0  0  0  0  0  0  0  0  0  0  0
   11.0104  -14.1727   26.3301 C   0  0  2  0  0  0  0  0  0  0  0  0
   10.8496  -15.3692   27.2536 C   0  0  0  0  0  0  0  0  0  0  0  0
   11.4264  -15.0431   28.5791 C   0  0  2  0  0  0  0  0  0  0  0  0
   11.3253  -16.6033   26.6091 N   0  0  0  0  0  0  0  0  0  0  0  0
   10.6502  -16.9460   25.3833 C   0  0  0  0  0  0  0  0  0  0  0  0
   11.5238  -17.7682   27.4970 O   0  0  0  0  0  0  0  0  0  0  0  0
   10.5713  -18.5700   27.6212 O   0  0  0  0  0  0  0  0  0  0  0  0
  2  1  1  0
  3  2  1  0
  4  3  1  0
  4  5  1  0
  5  6  1  1
  7  8  2  0
  7  5  1  0
  9 10  1  0
 10 12  1  0
 11 10  2  0
 12 13  1  0
 13 14  1  0
 14 15  1  0
 16 15  1  6
 16 17  1  0
 17  7  1  0
 18 25  1  0
 18 16  1  0
 19 18  2  0
 20 21  1  0
 21 22  1  0
 22 24  1  0
 22 23  1  1
 24 25  1  6
 24 26  1  0
 26 28  1  0
 27 26  2  0
M  END
$$$$
