MRI.pdb
     RDKit          3D

 28 27  0  0  1  0  0  0  0  0999 V2000
    7.8585  -11.8585   16.3689 C   0  0  0  0  0  0  0  0  0  0  0  0
    8.0134  -12.7726   17.9074 S   0  0  0  0  0  0  0  0  0  0  0  0
    6.6393  -13.7945   18.3358 C   0  0  0  0  0  0  0  0  0  0  0  0
    6.7478  -14.6118   19.5496 C   0  0  0  0  0  0  0  0  0  0  0  0
    8.0428  -15.1130   20.0279 C   0  0  2  0  0  0  0  0  0  0  0  0
    8.7306  -15.9992   19.1592 N   0  0  0  0  0  0  0  0  0  0  0  0
    7.8982  -15.6890   21.4183 C   0  0  0  0  0  0  0  0  0  0  0  0
    7.0494  -15.1412   22.1762 O   0  0  0  0  0  0  0  0  0  0  0  0
    9.5400  -21.9773   26.9636 N   0  0  0  0  0  0  0  0  0  0  0  0
    9.3088  -22.2217   25.5641 C   0  0  0  0  0  0  0  0  0  0  0  0
    8.7430  -23.3208   25.2031 N   0  0  0  0  0  0  0  0  0  0  0  0
    9.6844  -21.2907   24.5728 N   0  0  0  0  0  0  0  0  0  0  0  0
   10.4478  -20.0863   24.9212 C   0  0  0  0  0  0  0  0  0  0  0  0
    9.5138  -18.8745   24.9087 C   0  0  0  0  0  0  0  0  0  0  0  0
    9.4026  -18.4329   23.4969 C   0  0  0  0  0  0  0  0  0  0  0  0
    8.5249  -17.2302   23.2752 C   0  0  2  0  0  0  0  0  0  0  0  0
    8.6413  -16.7703   21.8902 N   0  0  0  0  0  0  0  0  0  0  0  0
    9.0073  -16.1467   24.1939 C   0  0  0  0  0  0  0  0  0  0  0  0
   10.1671  -15.6774   24.1049 O   0  0  0  0  0  0  0  0  0  0  0  0
    8.5852  -23.5409   24.2108 C   0  0  0  0  0  0  0  0  0  0  0  0
    7.0802  -11.0252   26.7065 C   0  0  0  0  0  0  0  0  0  0  0  0
    7.9373  -12.2282   26.8876 C   0  0  2  0  0  0  0  0  0  0  0  0
    7.4520  -13.4307   26.0946 C   0  0  0  0  0  0  0  0  0  0  0  0
    6.1039  -13.8182   26.5725 C   0  0  2  0  0  0  0  0  0  0  0  0
    8.4730  -14.4895   26.0604 N   0  0  0  0  0  0  0  0  0  0  0  0
    8.1580  -15.6081   25.2087 C   0  0  0  0  0  0  0  0  0  0  0  0
    9.0267  -14.9042   27.3667 O   0  0  0  0  0  0  0  0  0  0  0  0
    9.6038  -14.0321   28.0536 O   0  0  0  0  0  0  0  0  0  0  0  0
  2  1  1  0
  3  2  1  0
  4  3  1  0
  4  5  1  0
  5  6  1  6
  7  8  2  0
  7  5  1  0
  9 10  1  0
 10 12  1  0
 11 10  2  0
 12 13  1  0
 13 14  1  0
 14 15  1  0
 16 15  1  6
 16 17  1  0
 17  7  1  0
 18 25  1  0
 18 16  1  0
 19 18  2  0
 20 21  1  0
 21 22  1  0
 22 24  1  0
 22 23  1  6
 24 25  1  1
 24 26  1  0
 26 28  1  0
 27 26  2  0
M  END
$$$$
