MRI.pdb
     RDKit          3D

 28 27  0  0  1  0  0  0  0  0999 V2000
    8.5069  -11.6572   19.5177 C   0  0  0  0  0  0  0  0  0  0  0  0
    8.3682  -13.1150   18.4774 S   0  0  0  0  0  0  0  0  0  0  0  0
    6.8935  -14.0643   18.6775 C   0  0  0  0  0  0  0  0  0  0  0  0
    6.6780  -14.7278   19.9685 C   0  0  0  0  0  0  0  0  0  0  0  0
    7.7782  -15.3736   20.6961 C   0  0  2  0  0  0  0  0  0  0  0  0
    8.3523  -16.5148   20.0787 N   0  0  0  0  0  0  0  0  0  0  0  0
    7.3659  -15.6550   22.1232 C   0  0  0  0  0  0  0  0  0  0  0  0
    6.8715  -14.6918   22.7736 O   0  0  0  0  0  0  0  0  0  0  0  0
    4.0859  -22.1944   24.1756 N   0  0  0  0  0  0  0  0  0  0  0  0
    5.3253  -22.2873   24.9016 C   0  0  0  0  0  0  0  0  0  0  0  0
    5.4006  -23.0737   25.9185 N   0  0  0  0  0  0  0  0  0  0  0  0
    6.4637  -21.5404   24.5316 N   0  0  0  0  0  0  0  0  0  0  0  0
    6.4441  -20.6748   23.3462 C   0  0  0  0  0  0  0  0  0  0  0  0
    5.9073  -19.2960   23.7358 C   0  0  0  0  0  0  0  0  0  0  0  0
    7.0120  -18.5844   24.4244 C   0  0  0  0  0  0  0  0  0  0  0  0
    7.0988  -17.1108   24.1296 C   0  0  2  0  0  0  0  0  0  0  0  0
    7.5035  -16.8985   22.7387 N   0  0  0  0  0  0  0  0  0  0  0  0
    8.1430  -16.5319   25.0380 C   0  0  0  0  0  0  0  0  0  0  0  0
    9.3656  -16.7406   24.8513 O   0  0  0  0  0  0  0  0  0  0  0  0
    6.2795  -23.1925   26.4396 C   0  0  0  0  0  0  0  0  0  0  0  0
    7.6586  -11.4923   25.9616 C   0  0  0  0  0  0  0  0  0  0  0  0
    8.1361  -12.8958   25.8318 C   0  0  2  0  0  0  0  0  0  0  0  0
    8.3836  -13.5677   27.1725 C   0  0  0  0  0  0  0  0  0  0  0  0
    9.3537  -12.7615   27.9502 C   0  0  2  0  0  0  0  0  0  0  0  0
    8.6955  -14.9951   26.9998 N   0  0  0  0  0  0  0  0  0  0  0  0
    7.7796  -15.7179   26.1545 C   0  0  0  0  0  0  0  0  0  0  0  0
    9.0481  -15.7390   28.2276 O   0  0  0  0  0  0  0  0  0  0  0  0
    8.1599  -16.4497   28.7486 O   0  0  0  0  0  0  0  0  0  0  0  0
  2  1  1  0
  3  2  1  0
  4  3  1  0
  4  5  1  0
  5  6  1  6
  7  8  2  0
  7  5  1  0
  9 10  1  0
 10 12  1  0
 11 10  2  0
 12 13  1  0
 13 14  1  0
 14 15  1  0
 16 15  1  1
 16 17  1  0
 17  7  1  0
 18 25  1  0
 18 16  1  0
 19 18  2  0
 20 21  1  0
 21 22  1  0
 22 24  1  0
 22 23  1  1
 24 25  1  6
 24 26  1  0
 26 28  1  0
 27 26  2  0
M  END
$$$$
