MRI.pdb
     RDKit          3D

 28 27  0  0  1  0  0  0  0  0999 V2000
    8.6570  -11.4100   20.3086 C   0  0  0  0  0  0  0  0  0  0  0  0
    8.4437  -12.9802   19.4627 S   0  0  0  0  0  0  0  0  0  0  0  0
    7.0763  -13.9608   19.9961 C   0  0  0  0  0  0  0  0  0  0  0  0
    6.8375  -15.2333   19.3055 C   0  0  0  0  0  0  0  0  0  0  0  0
    7.4174  -16.4931   19.7890 C   0  0  2  0  0  0  0  0  0  0  0  0
    7.0945  -17.6572   19.0449 N   0  0  0  0  0  0  0  0  0  0  0  0
    7.1270  -16.6698   21.2622 C   0  0  0  0  0  0  0  0  0  0  0  0
    5.9127  -16.6569   21.6089 O   0  0  0  0  0  0  0  0  0  0  0  0
    5.5475  -21.5798   25.7132 N   0  0  0  0  0  0  0  0  0  0  0  0
    5.9377  -22.2677   24.5107 C   0  0  0  0  0  0  0  0  0  0  0  0
    5.1890  -23.2113   24.0553 N   0  0  0  0  0  0  0  0  0  0  0  0
    7.1194  -21.9385   23.8136 N   0  0  0  0  0  0  0  0  0  0  0  0
    7.9430  -20.7953   24.2252 C   0  0  0  0  0  0  0  0  0  0  0  0
    7.3002  -19.5015   23.7212 C   0  0  0  0  0  0  0  0  0  0  0  0
    8.2087  -18.3932   24.1047 C   0  0  0  0  0  0  0  0  0  0  0  0
    7.7744  -17.0279   23.6432 C   0  0  2  0  0  0  0  0  0  0  0  0
    8.1146  -16.8417   22.2314 N   0  0  0  0  0  0  0  0  0  0  0  0
    8.5201  -16.0179   24.4646 C   0  0  0  0  0  0  0  0  0  0  0  0
    9.7217  -15.7415   24.2345 O   0  0  0  0  0  0  0  0  0  0  0  0
    5.4516  -23.7455   23.2164 C   0  0  0  0  0  0  0  0  0  0  0  0
    5.6201  -11.9638   26.6543 C   0  0  0  0  0  0  0  0  0  0  0  0
    6.6944  -12.7916   26.0417 C   0  0  2  0  0  0  0  0  0  0  0  0
    7.6166  -13.4272   27.0695 C   0  0  0  0  0  0  0  0  0  0  0  0
    8.2441  -12.3618   27.8863 C   0  0  2  0  0  0  0  0  0  0  0  0
    8.5228  -14.3993   26.4383 N   0  0  0  0  0  0  0  0  0  0  0  0
    7.8843  -15.3315   25.5443 C   0  0  0  0  0  0  0  0  0  0  0  0
    9.5085  -15.0464   27.3298 O   0  0  0  0  0  0  0  0  0  0  0  0
    9.2178  -16.1712   27.7942 O   0  0  0  0  0  0  0  0  0  0  0  0
  2  1  1  0
  3  2  1  0
  4  3  1  0
  4  5  1  0
  5  6  1  6
  7  8  2  0
  7  5  1  0
  9 10  1  0
 10 12  1  0
 11 10  2  0
 12 13  1  0
 13 14  1  0
 14 15  1  0
 16 15  1  1
 16 17  1  0
 17  7  1  0
 18 25  1  0
 18 16  1  0
 19 18  2  0
 20 21  1  0
 21 22  1  0
 22 24  1  0
 22 23  1  1
 24 25  1  6
 24 26  1  0
 26 28  1  0
 27 26  2  0
M  END
$$$$
