MRI.pdb
     RDKit          3D

 28 27  0  0  1  0  0  0  0  0999 V2000
    6.7189  -11.1384   17.9814 C   0  0  0  0  0  0  0  0  0  0  0  0
    7.0063  -12.7690   17.2847 S   0  0  0  0  0  0  0  0  0  0  0  0
    8.3206  -13.6951   18.0135 C   0  0  0  0  0  0  0  0  0  0  0  0
    8.9490  -13.1533   19.2238 C   0  0  0  0  0  0  0  0  0  0  0  0
    9.9737  -13.9032   19.9617 C   0  0  2  0  0  0  0  0  0  0  0  0
   10.8434  -14.7084   19.1818 N   0  0  0  0  0  0  0  0  0  0  0  0
    9.3371  -14.6894   21.0853 C   0  0  0  0  0  0  0  0  0  0  0  0
    8.5282  -14.0668   21.8290 O   0  0  0  0  0  0  0  0  0  0  0  0
   11.6884  -22.7582   21.3485 N   0  0  0  0  0  0  0  0  0  0  0  0
   12.4275  -21.6723   20.7600 C   0  0  0  0  0  0  0  0  0  0  0  0
   13.5005  -21.9296   20.0960 N   0  0  0  0  0  0  0  0  0  0  0  0
   12.0107  -20.3306   20.8889 N   0  0  0  0  0  0  0  0  0  0  0  0
   10.8338  -19.9815   21.6939 C   0  0  0  0  0  0  0  0  0  0  0  0
   10.6154  -18.4681   21.6402 C   0  0  0  0  0  0  0  0  0  0  0  0
    9.4302  -18.1754   22.4830 C   0  0  0  0  0  0  0  0  0  0  0  0
    8.9618  -16.7453   22.4450 C   0  0  2  0  0  0  0  0  0  0  0  0
    9.5963  -16.0371   21.3317 N   0  0  0  0  0  0  0  0  0  0  0  0
    9.3768  -16.1025   23.7354 C   0  0  0  0  0  0  0  0  0  0  0  0
   10.5579  -15.7303   23.9344 O   0  0  0  0  0  0  0  0  0  0  0  0
   13.8288  -22.8952   19.9624 C   0  0  0  0  0  0  0  0  0  0  0  0
    7.2734  -11.7070   27.1877 C   0  0  0  0  0  0  0  0  0  0  0  0
    8.1198  -12.9292   27.1203 C   0  0  2  0  0  0  0  0  0  0  0  0
    7.7642  -13.8370   25.9541 C   0  0  0  0  0  0  0  0  0  0  0  0
    6.3016  -14.0748   25.9496 C   0  0  2  0  0  0  0  0  0  0  0  0
    8.6295  -15.0266   25.9262 N   0  0  0  0  0  0  0  0  0  0  0  0
    8.4359  -15.8904   24.7895 C   0  0  0  0  0  0  0  0  0  0  0  0
    8.7538  -15.7727   27.1962 O   0  0  0  0  0  0  0  0  0  0  0  0
    8.2729  -16.9271   27.2384 O   0  0  0  0  0  0  0  0  0  0  0  0
  2  1  1  0
  3  2  1  0
  4  3  1  0
  4  5  1  0
  5  6  1  6
  7  8  2  0
  7  5  1  0
  9 10  1  0
 10 12  1  0
 11 10  2  0
 12 13  1  0
 13 14  1  0
 14 15  1  0
 16 15  1  1
 16 17  1  0
 17  7  1  0
 18 25  1  0
 18 16  1  0
 19 18  2  0
 20 21  1  0
 21 22  1  0
 22 24  1  0
 22 23  1  6
 24 25  1  1
 24 26  1  0
 26 28  1  0
 27 26  2  0
M  END
$$$$
