MRI.pdb
     RDKit          3D

 28 27  0  0  1  0  0  0  0  0999 V2000
    8.0314  -11.5871   19.9575 C   0  0  0  0  0  0  0  0  0  0  0  0
    8.0707  -12.4888   18.4044 S   0  0  0  0  0  0  0  0  0  0  0  0
    7.8968  -14.2410   18.5286 C   0  0  0  0  0  0  0  0  0  0  0  0
    7.4912  -14.7972   19.8245 C   0  0  0  0  0  0  0  0  0  0  0  0
    7.3032  -16.2408   20.0186 C   0  0  2  0  0  0  0  0  0  0  0  0
    6.3995  -16.8795   19.1307 N   0  0  0  0  0  0  0  0  0  0  0  0
    6.9719  -16.5342   21.4643 C   0  0  0  0  0  0  0  0  0  0  0  0
    5.9022  -16.0372   21.9156 O   0  0  0  0  0  0  0  0  0  0  0  0
    7.3768  -22.2431   28.5671 N   0  0  0  0  0  0  0  0  0  0  0  0
    7.7244  -20.8794   28.2650 C   0  0  0  0  0  0  0  0  0  0  0  0
    8.8702  -20.4254   28.6383 N   0  0  0  0  0  0  0  0  0  0  0  0
    6.8450  -20.0224   27.5700 N   0  0  0  0  0  0  0  0  0  0  0  0
    6.9138  -19.8966   26.1090 C   0  0  0  0  0  0  0  0  0  0  0  0
    7.9772  -18.8600   25.7404 C   0  0  0  0  0  0  0  0  0  0  0  0
    7.9641  -18.7389   24.2619 C   0  0  0  0  0  0  0  0  0  0  0  0
    7.5114  -17.4022   23.7385 C   0  0  2  0  0  0  0  0  0  0  0  0
    7.7740  -17.3091   22.3012 N   0  0  0  0  0  0  0  0  0  0  0  0
    8.3059  -16.3481   24.4515 C   0  0  0  0  0  0  0  0  0  0  0  0
    9.4895  -16.0866   24.1292 O   0  0  0  0  0  0  0  0  0  0  0  0
    9.1794  -19.4779   28.3837 C   0  0  0  0  0  0  0  0  0  0  0  0
    6.2789  -11.6133   25.5136 C   0  0  0  0  0  0  0  0  0  0  0  0
    7.2308  -12.7372   25.3003 C   0  0  2  0  0  0  0  0  0  0  0  0
    7.6810  -13.3912   26.5965 C   0  0  0  0  0  0  0  0  0  0  0  0
    8.3413  -12.3765   27.4510 C   0  0  2  0  0  0  0  0  0  0  0  0
    8.4344  -14.6271   26.3322 N   0  0  0  0  0  0  0  0  0  0  0  0
    7.7393  -15.6008   25.5293 C   0  0  0  0  0  0  0  0  0  0  0  0
    9.1250  -15.2305   27.4914 O   0  0  0  0  0  0  0  0  0  0  0  0
    8.5900  -16.2250   28.0302 O   0  0  0  0  0  0  0  0  0  0  0  0
  2  1  1  0
  3  2  1  0
  4  3  1  0
  4  5  1  0
  5  6  1  6
  7  8  2  0
  7  5  1  0
  9 10  1  0
 10 12  1  0
 11 10  2  0
 12 13  1  0
 13 14  1  0
 14 15  1  0
 16 15  1  1
 16 17  1  0
 17  7  1  0
 18 25  1  0
 18 16  1  0
 19 18  2  0
 20 21  1  0
 21 22  1  0
 22 24  1  0
 22 23  1  1
 24 25  1  6
 24 26  1  0
 26 28  1  0
 27 26  2  0
M  END
$$$$
