NAY.pdb
     RDKit          3D

 26 26  0  0  1  0  0  0  0  0999 V2000
    8.6085  -13.8669   18.0546 N   0  0  0  0  0  0  0  0  0  0  0  0
    7.9260  -14.1618   19.2706 C   0  0  0  0  0  0  0  0  0  0  0  0
    7.1398  -13.3374   19.7826 O   0  0  0  0  0  0  0  0  0  0  0  0
    8.1711  -15.4719   19.9146 C   0  0  0  0  0  0  0  0  0  0  0  0
    8.0624  -15.3035   21.4277 C   0  0  2  0  0  0  0  0  0  0  0  0
    8.7511  -14.1049   21.8568 N   0  0  0  0  0  0  0  0  0  0  0  0
    8.7527  -16.4753   22.0229 C   0  0  0  0  0  0  0  0  0  0  0  0
    8.9398  -17.5159   21.3547 O   0  0  0  0  0  0  0  0  0  0  0  0
   11.5458  -16.3214   22.7605 C   0  0  0  0  0  0  0  0  0  0  0  0
   10.5268  -17.0203   23.6681 C   0  0  2  0  0  0  0  0  0  0  0  0
    9.2271  -16.4559   23.3778 N   0  0  0  0  0  0  0  0  0  0  0  0
   10.9342  -16.7100   25.0696 C   0  0  0  0  0  0  0  0  0  0  0  0
   12.0787  -17.1126   25.4666 O   0  0  0  0  0  0  0  0  0  0  0  0
    6.2945  -11.4169   24.8617 O   0  0  0  0  0  0  0  0  0  0  0  0
    7.0317  -12.3320   25.6368 C   0  0  0  0  0  0  0  0  0  0  0  0
    7.6917  -11.9342   26.7783 C   0  0  0  0  0  0  0  0  0  0  0  0
    8.4219  -12.8025   27.5604 C   0  0  0  0  0  0  0  0  0  0  0  0
    8.5034  -14.1452   27.1900 C   0  0  0  0  0  0  0  0  0  0  0  0
    9.2874  -15.0661   28.0384 C   0  0  0  0  0  0  0  0  0  0  0  0
   10.3947  -15.7785   27.2882 C   0  0  2  0  0  0  0  0  0  0  0  0
   10.0604  -15.9903   25.9117 N   0  0  0  0  0  0  0  0  0  0  0  0
   10.6568  -17.0580   27.9965 C   0  0  0  0  0  0  0  0  0  0  0  0
   10.3576  -18.2364   27.3178 O   0  0  0  0  0  0  0  0  0  0  0  0
    7.8431  -14.5427   26.0485 C   0  0  0  0  0  0  0  0  0  0  0  0
    7.1135  -13.6588   25.2730 C   0  0  0  0  0  0  0  0  0  0  0  0
   11.1272  -17.1085   29.1570 O   0  0  0  0  0  0  0  0  0  0  0  0
  2  3  2  0
  2  1  1  0
  4  2  1  0
  5  4  1  0
  5  7  1  0
  5  6  1  1
  7  8  2  0
 10  9  1  6
 11  7  1  0
 11 10  1  0
 12 10  1  0
 12 21  1  0
 13 12  2  0
 15 14  1  0
 16 15  2  0
 17 16  1  0
 18 24  1  0
 18 17  2  0
 19 18  1  0
 20 21  1  0
 20 19  1  1
 22 23  1  0
 22 20  1  0
 24 25  2  0
 25 15  1  0
 26 22  2  0
M  END
$$$$
