NAY.pdb
     RDKit          3D

 26 26  0  0  1  0  0  0  0  0999 V2000
    7.5140  -12.0961   18.3819 N   0  0  0  0  0  0  0  0  0  0  0  0
    8.5693  -12.7086   19.1184 C   0  0  0  0  0  0  0  0  0  0  0  0
    9.7612  -12.5662   18.7730 O   0  0  0  0  0  0  0  0  0  0  0  0
    8.2193  -13.5198   20.3060 C   0  0  0  0  0  0  0  0  0  0  0  0
    8.1481  -14.9879   19.8946 C   0  0  2  0  0  0  0  0  0  0  0  0
    6.9278  -15.2522   19.1622 N   0  0  0  0  0  0  0  0  0  0  0  0
    8.1114  -15.7680   21.1571 C   0  0  0  0  0  0  0  0  0  0  0  0
    7.0646  -15.8347   21.8385 O   0  0  0  0  0  0  0  0  0  0  0  0
   10.0945  -18.5144   22.5915 C   0  0  0  0  0  0  0  0  0  0  0  0
    9.1278  -17.3401   22.7839 C   0  0  2  0  0  0  0  0  0  0  0  0
    9.2683  -16.4690   21.6378 N   0  0  0  0  0  0  0  0  0  0  0  0
    9.5600  -16.6434   24.0306 C   0  0  0  0  0  0  0  0  0  0  0  0
   10.6103  -15.9195   23.9821 O   0  0  0  0  0  0  0  0  0  0  0  0
    6.1776  -10.4927   25.7303 O   0  0  0  0  0  0  0  0  0  0  0  0
    6.6554  -11.7629   26.1046 C   0  0  0  0  0  0  0  0  0  0  0  0
    5.8071  -12.8421   26.2164 C   0  0  0  0  0  0  0  0  0  0  0  0
    6.2403  -14.0987   26.5800 C   0  0  0  0  0  0  0  0  0  0  0  0
    7.5947  -14.2986   26.8491 C   0  0  0  0  0  0  0  0  0  0  0  0
    8.0465  -15.6510   27.2355 C   0  0  0  0  0  0  0  0  0  0  0  0
    9.2259  -16.1457   26.4226 C   0  0  2  0  0  0  0  0  0  0  0  0
    8.8110  -16.7970   25.2164 N   0  0  0  0  0  0  0  0  0  0  0  0
   10.0163  -17.0513   27.2959 C   0  0  0  0  0  0  0  0  0  0  0  0
   10.1018  -18.3887   26.9180 O   0  0  0  0  0  0  0  0  0  0  0  0
    8.4428  -13.2191   26.7370 C   0  0  0  0  0  0  0  0  0  0  0  0
    7.9928  -11.9628   26.3707 C   0  0  0  0  0  0  0  0  0  0  0  0
   10.5943  -16.6587   28.3362 O   0  0  0  0  0  0  0  0  0  0  0  0
  2  3  2  0
  2  1  1  0
  4  2  1  0
  5  4  1  0
  5  7  1  0
  5  6  1  1
  7  8  2  0
 10  9  1  6
 11  7  1  0
 11 10  1  0
 12 10  1  0
 12 21  1  0
 13 12  2  0
 15 14  1  0
 16 15  2  0
 17 16  1  0
 18 24  1  0
 18 17  2  0
 19 18  1  0
 20 21  1  0
 20 19  1  1
 22 23  1  0
 22 20  1  0
 24 25  2  0
 25 15  1  0
 26 22  2  0
M  END
$$$$
