NAY.pdb
     RDKit          3D

 26 26  0  0  1  0  0  0  0  0999 V2000
    6.8893  -21.5738   20.6228 N   0  0  0  0  0  0  0  0  0  0  0  0
    7.7312  -21.2068   21.7127 C   0  0  0  0  0  0  0  0  0  0  0  0
    8.1503  -22.0645   22.5182 O   0  0  0  0  0  0  0  0  0  0  0  0
    8.0987  -19.7814   21.8684 C   0  0  0  0  0  0  0  0  0  0  0  0
    7.4517  -18.9812   20.7412 C   0  0  2  0  0  0  0  0  0  0  0  0
    7.8109  -19.5352   19.4531 N   0  0  0  0  0  0  0  0  0  0  0  0
    8.0162  -17.6112   20.8324 C   0  0  0  0  0  0  0  0  0  0  0  0
    9.1557  -17.3569   20.3838 O   0  0  0  0  0  0  0  0  0  0  0  0
    6.7269  -14.1983   21.4997 C   0  0  0  0  0  0  0  0  0  0  0  0
    7.8718  -15.2174   21.4649 C   0  0  2  0  0  0  0  0  0  0  0  0
    7.2791  -16.5364   21.4346 N   0  0  0  0  0  0  0  0  0  0  0  0
    8.6471  -15.0175   22.7240 C   0  0  0  0  0  0  0  0  0  0  0  0
    9.2797  -13.9188   22.8731 O   0  0  0  0  0  0  0  0  0  0  0  0
    5.8422  -10.6549   26.6004 O   0  0  0  0  0  0  0  0  0  0  0  0
    6.4859  -11.9014   26.4823 C   0  0  0  0  0  0  0  0  0  0  0  0
    5.7670  -13.0661   26.3285 C   0  0  0  0  0  0  0  0  0  0  0  0
    6.3638  -14.3024   26.2097 C   0  0  0  0  0  0  0  0  0  0  0  0
    7.7558  -14.3908   26.2456 C   0  0  0  0  0  0  0  0  0  0  0  0
    8.3832  -15.7219   26.1149 C   0  0  0  0  0  0  0  0  0  0  0  0
    9.3455  -15.8206   24.9484 C   0  0  2  0  0  0  0  0  0  0  0  0
    8.6639  -16.0301   23.7064 N   0  0  0  0  0  0  0  0  0  0  0  0
   10.2950  -16.9229   25.2504 C   0  0  0  0  0  0  0  0  0  0  0  0
   10.3318  -17.9951   24.3629 O   0  0  0  0  0  0  0  0  0  0  0  0
    8.4743  -13.2258   26.3993 C   0  0  0  0  0  0  0  0  0  0  0  0
    7.8607  -11.9911   26.5173 C   0  0  0  0  0  0  0  0  0  0  0  0
   11.0453  -16.9177   26.2542 O   0  0  0  0  0  0  0  0  0  0  0  0
  2  3  2  0
  2  1  1  0
  4  2  1  0
  5  4  1  0
  5  7  1  0
  5  6  1  6
  7  8  2  0
 10  9  1  1
 11  7  1  0
 11 10  1  0
 12 10  1  0
 12 21  1  0
 13 12  2  0
 15 14  1  0
 16 15  2  0
 17 16  1  0
 18 24  1  0
 18 17  2  0
 19 18  1  0
 20 21  1  0
 20 19  1  1
 22 23  1  0
 22 20  1  0
 24 25  2  0
 25 15  1  0
 26 22  2  0
M  END
$$$$
