NAY.pdb
     RDKit          3D

 26 26  0  0  1  0  0  0  0  0999 V2000
    7.3835  -19.8907   17.1483 N   0  0  0  0  0  0  0  0  0  0  0  0
    8.5246  -19.2429   17.7046 C   0  0  0  0  0  0  0  0  0  0  0  0
    9.6503  -19.7830   17.6712 O   0  0  0  0  0  0  0  0  0  0  0  0
    8.3444  -17.9109   18.3247 C   0  0  0  0  0  0  0  0  0  0  0  0
    8.7891  -17.9836   19.7829 C   0  0  2  0  0  0  0  0  0  0  0  0
    7.7211  -18.4949   20.6154 N   0  0  0  0  0  0  0  0  0  0  0  0
    9.0736  -16.5865   20.1967 C   0  0  0  0  0  0  0  0  0  0  0  0
   10.1526  -16.0343   19.8883 O   0  0  0  0  0  0  0  0  0  0  0  0
    7.1681  -13.6816   21.4759 C   0  0  0  0  0  0  0  0  0  0  0  0
    8.4734  -14.4765   21.3538 C   0  0  2  0  0  0  0  0  0  0  0  0
    8.1264  -15.8244   20.9603 N   0  0  0  0  0  0  0  0  0  0  0  0
    9.0960  -14.4679   22.7098 C   0  0  0  0  0  0  0  0  0  0  0  0
    9.5053  -13.3525   23.1768 O   0  0  0  0  0  0  0  0  0  0  0  0
    5.6378  -11.2036   26.8158 O   0  0  0  0  0  0  0  0  0  0  0  0
    6.3869  -12.3686   26.5638 C   0  0  0  0  0  0  0  0  0  0  0  0
    7.7490  -12.4008   26.7647 C   0  0  0  0  0  0  0  0  0  0  0  0
    8.5130  -13.5231   26.5286 C   0  0  0  0  0  0  0  0  0  0  0  0
    7.8907  -14.6830   26.0659 C   0  0  0  0  0  0  0  0  0  0  0  0
    8.7208  -15.8800   25.8190 C   0  0  0  0  0  0  0  0  0  0  0  0
    9.7768  -15.6694   24.7528 C   0  0  2  0  0  0  0  0  0  0  0  0
    9.2168  -15.6723   23.4346 N   0  0  0  0  0  0  0  0  0  0  0  0
   10.7959  -16.7372   24.9226 C   0  0  0  0  0  0  0  0  0  0  0  0
   11.5033  -16.7598   26.1217 O   0  0  0  0  0  0  0  0  0  0  0  0
    6.5285  -14.6505   25.8653 C   0  0  0  0  0  0  0  0  0  0  0  0
    5.7745  -13.5155   26.1068 C   0  0  0  0  0  0  0  0  0  0  0  0
   11.0327  -17.5969   24.0420 O   0  0  0  0  0  0  0  0  0  0  0  0
  2  3  2  0
  2  1  1  0
  4  2  1  0
  5  4  1  0
  5  7  1  0
  5  6  1  1
  7  8  2  0
 10  9  1  1
 11  7  1  0
 11 10  1  0
 12 10  1  0
 12 21  1  0
 13 12  2  0
 15 14  1  0
 16 15  2  0
 17 16  1  0
 18 24  1  0
 18 17  2  0
 19 18  1  0
 20 21  1  0
 20 19  1  1
 22 23  1  0
 22 20  1  0
 24 25  2  0
 25 15  1  0
 26 22  2  0
M  END
$$$$
