NAY.pdb
     RDKit          3D

 26 26  0  0  1  0  0  0  0  0999 V2000
    6.7842  -21.3473   20.2221 N   0  0  0  0  0  0  0  0  0  0  0  0
    6.4219  -20.1073   20.8241 C   0  0  0  0  0  0  0  0  0  0  0  0
    5.3305  -19.9752   21.4170 O   0  0  0  0  0  0  0  0  0  0  0  0
    7.3720  -18.9760   20.7304 C   0  0  0  0  0  0  0  0  0  0  0  0
    6.6598  -17.7883   20.0888 C   0  0  2  0  0  0  0  0  0  0  0  0
    6.3638  -18.0630   18.6988 N   0  0  0  0  0  0  0  0  0  0  0  0
    7.6169  -16.6548   20.1456 C   0  0  0  0  0  0  0  0  0  0  0  0
    8.8134  -16.8098   19.8159 O   0  0  0  0  0  0  0  0  0  0  0  0
    7.4474  -12.9593   20.6626 C   0  0  0  0  0  0  0  0  0  0  0  0
    8.1960  -14.2973   20.6536 C   0  0  2  0  0  0  0  0  0  0  0  0
    7.2059  -15.3490   20.5779 N   0  0  0  0  0  0  0  0  0  0  0  0
    8.9409  -14.3677   21.9445 C   0  0  0  0  0  0  0  0  0  0  0  0
    9.9150  -13.5619   22.1218 O   0  0  0  0  0  0  0  0  0  0  0  0
    6.0934  -10.6448   26.9782 O   0  0  0  0  0  0  0  0  0  0  0  0
    6.6878  -11.8581   26.5823 C   0  0  0  0  0  0  0  0  0  0  0  0
    5.9519  -12.8496   25.9723 C   0  0  0  0  0  0  0  0  0  0  0  0
    6.5008  -14.0485   25.5718 C   0  0  0  0  0  0  0  0  0  0  0  0
    7.8596  -14.2793   25.7886 C   0  0  0  0  0  0  0  0  0  0  0  0
    8.4361  -15.5678   25.3524 C   0  0  0  0  0  0  0  0  0  0  0  0
    9.3222  -15.4461   24.1291 C   0  0  2  0  0  0  0  0  0  0  0  0
    8.5590  -15.3074   22.9251 N   0  0  0  0  0  0  0  0  0  0  0  0
   10.1956  -16.6476   24.0944 C   0  0  0  0  0  0  0  0  0  0  0  0
   11.1048  -16.8064   25.1369 O   0  0  0  0  0  0  0  0  0  0  0  0
    8.5951  -13.2874   26.3986 C   0  0  0  0  0  0  0  0  0  0  0  0
    8.0298  -12.0882   26.7953 C   0  0  0  0  0  0  0  0  0  0  0  0
   10.1407  -17.5015   23.1787 O   0  0  0  0  0  0  0  0  0  0  0  0
  2  3  2  0
  2  1  1  0
  4  2  1  0
  5  4  1  0
  5  7  1  0
  5  6  1  6
  7  8  2  0
 10  9  1  1
 11  7  1  0
 11 10  1  0
 12 10  1  0
 12 21  1  0
 13 12  2  0
 15 14  1  0
 16 15  2  0
 17 16  1  0
 18 24  1  0
 18 17  2  0
 19 18  1  0
 20 21  1  0
 20 19  1  1
 22 23  1  0
 22 20  1  0
 24 25  2  0
 25 15  1  0
 26 22  2  0
M  END
$$$$
