NAY.pdb
     RDKit          3D

 26 26  0  0  1  0  0  0  0  0999 V2000
   13.4847  -17.7615   17.7243 N   0  0  0  0  0  0  0  0  0  0  0  0
   12.1152  -17.7906   17.3307 C   0  0  0  0  0  0  0  0  0  0  0  0
   11.7038  -18.6239   16.4962 O   0  0  0  0  0  0  0  0  0  0  0  0
   11.1887  -16.8075   17.9358 C   0  0  0  0  0  0  0  0  0  0  0  0
   10.2898  -17.5303   18.9354 C   0  0  2  0  0  0  0  0  0  0  0  0
    9.1637  -18.1387   18.2593 N   0  0  0  0  0  0  0  0  0  0  0  0
    9.7719  -16.4852   19.8539 C   0  0  0  0  0  0  0  0  0  0  0  0
   10.5454  -15.6562   20.3819 O   0  0  0  0  0  0  0  0  0  0  0  0
    6.4113  -15.4207   21.1591 C   0  0  0  0  0  0  0  0  0  0  0  0
    7.9444  -15.4099   21.1403 C   0  0  2  0  0  0  0  0  0  0  0  0
    8.3740  -16.3895   20.1667 N   0  0  0  0  0  0  0  0  0  0  0  0
    8.3815  -15.8037   22.5115 C   0  0  0  0  0  0  0  0  0  0  0  0
    8.5646  -17.0440   22.7516 O   0  0  0  0  0  0  0  0  0  0  0  0
   10.6550  -15.2461   31.0654 O   0  0  0  0  0  0  0  0  0  0  0  0
   10.3098  -14.9493   29.7332 C   0  0  0  0  0  0  0  0  0  0  0  0
    9.6471  -13.7867   29.4078 C   0  0  0  0  0  0  0  0  0  0  0  0
    9.2941  -13.4643   28.1154 C   0  0  0  0  0  0  0  0  0  0  0  0
    9.6166  -14.3462   27.0834 C   0  0  0  0  0  0  0  0  0  0  0  0
    9.2346  -13.9876   25.7021 C   0  0  0  0  0  0  0  0  0  0  0  0
    8.8784  -15.1867   24.8467 C   0  0  2  0  0  0  0  0  0  0  0  0
    8.5801  -14.8134   23.4966 N   0  0  0  0  0  0  0  0  0  0  0  0
    7.7304  -15.8692   25.4979 C   0  0  0  0  0  0  0  0  0  0  0  0
    8.0098  -16.9965   26.2657 O   0  0  0  0  0  0  0  0  0  0  0  0
   10.2794  -15.5087   27.4092 C   0  0  0  0  0  0  0  0  0  0  0  0
   10.6274  -15.8188   28.7122 C   0  0  0  0  0  0  0  0  0  0  0  0
    6.5478  -15.4714   25.3805 O   0  0  0  0  0  0  0  0  0  0  0  0
  2  3  2  0
  2  1  1  0
  4  2  1  0
  5  4  1  0
  5  7  1  0
  5  6  1  6
  7  8  2  0
 10  9  1  1
 11  7  1  0
 11 10  1  0
 12 10  1  0
 12 21  1  0
 13 12  2  0
 15 14  1  0
 16 15  2  0
 17 16  1  0
 18 24  1  0
 18 17  2  0
 19 18  1  0
 20 21  1  0
 20 19  1  1
 22 23  1  0
 22 20  1  0
 24 25  2  0
 25 15  1  0
 26 22  2  0
M  END
$$$$
