NAY.pdb
     RDKit          3D

 26 26  0  0  1  0  0  0  0  0999 V2000
   12.8746  -17.7923   16.9739 N   0  0  0  0  0  0  0  0  0  0  0  0
   11.4840  -18.0788   17.0987 C   0  0  0  0  0  0  0  0  0  0  0  0
   11.0151  -19.1695   16.7108 O   0  0  0  0  0  0  0  0  0  0  0  0
   10.6055  -17.0507   17.7007 C   0  0  0  0  0  0  0  0  0  0  0  0
   10.0767  -17.5753   19.0329 C   0  0  2  0  0  0  0  0  0  0  0  0
    8.7938  -18.2210   18.8520 N   0  0  0  0  0  0  0  0  0  0  0  0
    9.8802  -16.3834   19.8959 C   0  0  0  0  0  0  0  0  0  0  0  0
   10.8296  -15.6070   20.1415 O   0  0  0  0  0  0  0  0  0  0  0  0
    7.1189  -14.3737   21.2883 C   0  0  0  0  0  0  0  0  0  0  0  0
    8.5100  -15.0018   21.4337 C   0  0  2  0  0  0  0  0  0  0  0  0
    8.6019  -16.0813   20.4753 N   0  0  0  0  0  0  0  0  0  0  0  0
    8.5869  -15.5278   22.8279 C   0  0  0  0  0  0  0  0  0  0  0  0
    7.8814  -16.5492   23.1254 O   0  0  0  0  0  0  0  0  0  0  0  0
    5.8397  -10.4121   27.0604 O   0  0  0  0  0  0  0  0  0  0  0  0
    6.3775  -11.6682   26.7214 C   0  0  0  0  0  0  0  0  0  0  0  0
    7.6628  -12.0150   27.0744 C   0  0  0  0  0  0  0  0  0  0  0  0
    8.2209  -13.2350   26.7594 C   0  0  0  0  0  0  0  0  0  0  0  0
    7.4607  -14.1672   26.0525 C   0  0  0  0  0  0  0  0  0  0  0  0
    8.0699  -15.4722   25.7232 C   0  0  0  0  0  0  0  0  0  0  0  0
    9.4586  -15.3538   25.1280 C   0  0  2  0  0  0  0  0  0  0  0  0
    9.4240  -14.8957   23.7715 N   0  0  0  0  0  0  0  0  0  0  0  0
   10.1049  -16.6866   25.2449 C   0  0  0  0  0  0  0  0  0  0  0  0
   10.5066  -17.3071   24.0650 O   0  0  0  0  0  0  0  0  0  0  0  0
    6.1754  -13.8200   25.6998 C   0  0  0  0  0  0  0  0  0  0  0  0
    5.6285  -12.5906   26.0233 C   0  0  0  0  0  0  0  0  0  0  0  0
   10.2952  -17.2555   26.3453 O   0  0  0  0  0  0  0  0  0  0  0  0
  2  3  2  0
  2  1  1  0
  4  2  1  0
  5  4  1  0
  5  7  1  0
  5  6  1  6
  7  8  2  0
 10  9  1  1
 11  7  1  0
 11 10  1  0
 12 10  1  0
 12 21  1  0
 13 12  2  0
 15 14  1  0
 16 15  2  0
 17 16  1  0
 18 24  1  0
 18 17  2  0
 19 18  1  0
 20 21  1  0
 20 19  1  6
 22 23  1  0
 22 20  1  0
 24 25  2  0
 25 15  1  0
 26 22  2  0
M  END
$$$$
