NAY.pdb
     RDKit          3D

 26 26  0  0  1  0  0  0  0  0999 V2000
    8.0359  -11.7825   18.8048 N   0  0  0  0  0  0  0  0  0  0  0  0
    8.4758  -13.1049   19.1032 C   0  0  0  0  0  0  0  0  0  0  0  0
    9.2401  -13.7182   18.3287 O   0  0  0  0  0  0  0  0  0  0  0  0
    8.0047  -13.7367   20.3562 C   0  0  0  0  0  0  0  0  0  0  0  0
    7.9219  -15.2460   20.1444 C   0  0  2  0  0  0  0  0  0  0  0  0
    6.7228  -15.5915   19.4108 N   0  0  0  0  0  0  0  0  0  0  0  0
    7.8286  -15.8472   21.4985 C   0  0  0  0  0  0  0  0  0  0  0  0
    6.7940  -15.7136   22.1887 O   0  0  0  0  0  0  0  0  0  0  0  0
    9.3682  -18.7079   23.1192 C   0  0  0  0  0  0  0  0  0  0  0  0
    8.6894  -17.3427   23.2800 C   0  0  2  0  0  0  0  0  0  0  0  0
    8.9152  -16.5985   22.0605 N   0  0  0  0  0  0  0  0  0  0  0  0
    9.3595  -16.6766   24.4348 C   0  0  0  0  0  0  0  0  0  0  0  0
   10.4596  -16.0652   24.2212 O   0  0  0  0  0  0  0  0  0  0  0  0
    6.0835  -10.8627   25.6672 O   0  0  0  0  0  0  0  0  0  0  0  0
    6.6726  -12.0251   26.1999 C   0  0  0  0  0  0  0  0  0  0  0  0
    8.0075  -12.0607   26.5369 C   0  0  0  0  0  0  0  0  0  0  0  0
    8.6165  -13.1806   27.0604 C   0  0  0  0  0  0  0  0  0  0  0  0
    7.8581  -14.3342   27.2623 C   0  0  0  0  0  0  0  0  0  0  0  0
    8.5225  -15.5270   27.8264 C   0  0  0  0  0  0  0  0  0  0  0  0
    9.4649  -16.2064   26.8532 C   0  0  2  0  0  0  0  0  0  0  0  0
    8.7727  -16.7356   25.7165 N   0  0  0  0  0  0  0  0  0  0  0  0
   10.1866  -17.2665   27.6035 C   0  0  0  0  0  0  0  0  0  0  0  0
   10.0177  -18.5803   27.1743 O   0  0  0  0  0  0  0  0  0  0  0  0
    6.5231  -14.2981   26.9253 C   0  0  0  0  0  0  0  0  0  0  0  0
    5.9255  -13.1657   26.4004 C   0  0  0  0  0  0  0  0  0  0  0  0
   10.9246  -17.0211   28.5863 O   0  0  0  0  0  0  0  0  0  0  0  0
  2  3  2  0
  2  1  1  0
  4  2  1  0
  5  4  1  0
  5  7  1  0
  5  6  1  6
  7  8  2  0
 10  9  1  6
 11  7  1  0
 11 10  1  0
 12 10  1  0
 12 21  1  0
 13 12  2  0
 15 14  1  0
 16 15  2  0
 17 16  1  0
 18 24  1  0
 18 17  2  0
 19 18  1  0
 20 21  1  0
 20 19  1  1
 22 23  1  0
 22 20  1  0
 24 25  2  0
 25 15  1  0
 26 22  2  0
M  END
$$$$
