NAY.pdb
     RDKit          3D

 26 26  0  0  1  0  0  0  0  0999 V2000
    7.1397  -20.2922   18.1399 N   0  0  0  0  0  0  0  0  0  0  0  0
    6.3053  -19.1775   17.8361 C   0  0  0  0  0  0  0  0  0  0  0  0
    5.5185  -19.2089   16.8665 O   0  0  0  0  0  0  0  0  0  0  0  0
    6.3926  -17.9779   18.6988 C   0  0  0  0  0  0  0  0  0  0  0  0
    7.4217  -18.2358   19.7961 C   0  0  2  0  0  0  0  0  0  0  0  0
    6.7773  -18.7450   20.9881 N   0  0  0  0  0  0  0  0  0  0  0  0
    8.0197  -16.9157   20.1182 C   0  0  0  0  0  0  0  0  0  0  0  0
    8.5504  -16.2182   19.2259 O   0  0  0  0  0  0  0  0  0  0  0  0
    7.4774  -14.0696   21.7386 C   0  0  0  0  0  0  0  0  0  0  0  0
    8.6093  -15.1033   21.7052 C   0  0  2  0  0  0  0  0  0  0  0  0
    8.0102  -16.3961   21.4564 N   0  0  0  0  0  0  0  0  0  0  0  0
    9.2459  -15.0690   23.0542 C   0  0  0  0  0  0  0  0  0  0  0  0
   10.2042  -14.2479   23.2466 O   0  0  0  0  0  0  0  0  0  0  0  0
    5.7161  -10.8091   26.5344 O   0  0  0  0  0  0  0  0  0  0  0  0
    6.4021  -12.0384   26.5292 C   0  0  0  0  0  0  0  0  0  0  0  0
    5.7857  -13.2001   26.1200 C   0  0  0  0  0  0  0  0  0  0  0  0
    6.4266  -14.4198   26.1019 C   0  0  0  0  0  0  0  0  0  0  0  0
    7.7576  -14.4937   26.5138 C   0  0  0  0  0  0  0  0  0  0  0  0
    8.4338  -15.8069   26.4873 C   0  0  0  0  0  0  0  0  0  0  0  0
    9.4260  -15.9491   25.3507 C   0  0  2  0  0  0  0  0  0  0  0  0
    8.7828  -15.9303   24.0712 N   0  0  0  0  0  0  0  0  0  0  0  0
   10.1760  -17.2122   25.5737 C   0  0  0  0  0  0  0  0  0  0  0  0
   10.9372  -17.3061   26.7358 O   0  0  0  0  0  0  0  0  0  0  0  0
    8.3737  -13.3318   26.9228 C   0  0  0  0  0  0  0  0  0  0  0  0
    7.7169  -12.1138   26.9355 C   0  0  0  0  0  0  0  0  0  0  0  0
   10.1455  -18.1719   24.7684 O   0  0  0  0  0  0  0  0  0  0  0  0
  2  3  2  0
  2  1  1  0
  4  2  1  0
  5  4  1  0
  5  7  1  0
  5  6  1  1
  7  8  2  0
 10  9  1  1
 11  7  1  0
 11 10  1  0
 12 10  1  0
 12 21  1  0
 13 12  2  0
 15 14  1  0
 16 15  2  0
 17 16  1  0
 18 24  1  0
 18 17  2  0
 19 18  1  0
 20 21  1  0
 20 19  1  1
 22 23  1  0
 22 20  1  0
 24 25  2  0
 25 15  1  0
 26 22  2  0
M  END
$$$$
