NAY.pdb
     RDKit          3D

 26 26  0  0  1  0  0  0  0  0999 V2000
   12.8692  -16.4397   15.3693 N   0  0  0  0  0  0  0  0  0  0  0  0
   11.9987  -17.5182   15.7014 C   0  0  0  0  0  0  0  0  0  0  0  0
   12.1017  -18.6257   15.1332 O   0  0  0  0  0  0  0  0  0  0  0  0
   10.9666  -17.2950   16.7387 C   0  0  0  0  0  0  0  0  0  0  0  0
   11.5424  -17.6864   18.0970 C   0  0  2  0  0  0  0  0  0  0  0  0
   11.6911  -19.1231   18.1914 N   0  0  0  0  0  0  0  0  0  0  0  0
   10.5441  -17.2544   19.1073 C   0  0  0  0  0  0  0  0  0  0  0  0
   10.3261  -16.0403   19.3138 O   0  0  0  0  0  0  0  0  0  0  0  0
    7.9006  -18.8743   21.1941 C   0  0  0  0  0  0  0  0  0  0  0  0
    8.8592  -17.7237   20.8657 C   0  0  2  0  0  0  0  0  0  0  0  0
    9.7981  -18.2086   19.8780 N   0  0  0  0  0  0  0  0  0  0  0  0
    9.5610  -17.3885   22.1391 C   0  0  0  0  0  0  0  0  0  0  0  0
   10.6569  -17.9896   22.3983 O   0  0  0  0  0  0  0  0  0  0  0  0
   10.7526  -14.1892   30.3358 O   0  0  0  0  0  0  0  0  0  0  0  0
   10.3391  -14.3884   29.0049 C   0  0  0  0  0  0  0  0  0  0  0  0
    9.0625  -14.0708   28.5972 C   0  0  0  0  0  0  0  0  0  0  0  0
    8.6243  -14.2524   27.3033 C   0  0  0  0  0  0  0  0  0  0  0  0
    9.5030  -14.7800   26.3567 C   0  0  0  0  0  0  0  0  0  0  0  0
    9.0215  -14.9674   24.9726 C   0  0  0  0  0  0  0  0  0  0  0  0
    9.6048  -16.1904   24.2939 C   0  0  2  0  0  0  0  0  0  0  0  0
    9.0076  -16.4304   23.0145 N   0  0  0  0  0  0  0  0  0  0  0  0
    9.4165  -17.3400   25.2161 C   0  0  0  0  0  0  0  0  0  0  0  0
   10.5441  -17.8197   25.8772 O   0  0  0  0  0  0  0  0  0  0  0  0
   10.7795  -15.0973   26.7648 C   0  0  0  0  0  0  0  0  0  0  0  0
   11.2052  -14.9093   28.0680 C   0  0  0  0  0  0  0  0  0  0  0  0
    8.3018  -17.8781   25.4127 O   0  0  0  0  0  0  0  0  0  0  0  0
  2  3  2  0
  2  1  1  0
  4  2  1  0
  5  4  1  0
  5  7  1  0
  5  6  1  6
  7  8  2  0
 10  9  1  1
 11  7  1  0
 11 10  1  0
 12 10  1  0
 12 21  1  0
 13 12  2  0
 15 14  1  0
 16 15  2  0
 17 16  1  0
 18 24  1  0
 18 17  2  0
 19 18  1  0
 20 21  1  0
 20 19  1  1
 22 23  1  0
 22 20  1  0
 24 25  2  0
 25 15  1  0
 26 22  2  0
M  END
$$$$
