NAY.pdb
     RDKit          3D

 26 26  0  0  1  0  0  0  0  0999 V2000
    7.6187  -20.7584   17.4903 N   0  0  0  0  0  0  0  0  0  0  0  0
    6.9310  -19.7160   18.1770 C   0  0  0  0  0  0  0  0  0  0  0  0
    5.7763  -19.8907   18.6199 O   0  0  0  0  0  0  0  0  0  0  0  0
    7.6190  -18.4173   18.3540 C   0  0  0  0  0  0  0  0  0  0  0  0
    7.7687  -18.1402   19.8474 C   0  0  2  0  0  0  0  0  0  0  0  0
    6.4708  -18.0710   20.4845 N   0  0  0  0  0  0  0  0  0  0  0  0
    8.4123  -16.8068   19.9562 C   0  0  0  0  0  0  0  0  0  0  0  0
    9.6025  -16.6400   19.6097 O   0  0  0  0  0  0  0  0  0  0  0  0
    7.3141  -13.2981   20.3645 C   0  0  0  0  0  0  0  0  0  0  0  0
    8.3749  -14.3933   20.5257 C   0  0  2  0  0  0  0  0  0  0  0  0
    7.6963  -15.6689   20.4596 N   0  0  0  0  0  0  0  0  0  0  0  0
    8.9835  -14.1900   21.8727 C   0  0  0  0  0  0  0  0  0  0  0  0
    9.7307  -13.1699   22.0477 O   0  0  0  0  0  0  0  0  0  0  0  0
   11.0519  -14.5005   30.3646 O   0  0  0  0  0  0  0  0  0  0  0  0
   10.4047  -14.6313   29.1212 C   0  0  0  0  0  0  0  0  0  0  0  0
   10.1350  -13.5325   28.3359 C   0  0  0  0  0  0  0  0  0  0  0  0
    9.5037  -13.6237   27.1144 C   0  0  0  0  0  0  0  0  0  0  0  0
    9.1164  -14.8782   26.6423 C   0  0  0  0  0  0  0  0  0  0  0  0
    8.4427  -14.9625   25.3302 C   0  0  0  0  0  0  0  0  0  0  0  0
    9.4065  -15.0046   24.1615 C   0  0  2  0  0  0  0  0  0  0  0  0
    8.7245  -15.1142   22.9069 N   0  0  0  0  0  0  0  0  0  0  0  0
   10.3294  -16.1464   24.3903 C   0  0  0  0  0  0  0  0  0  0  0  0
   11.5145  -15.8828   25.0719 O   0  0  0  0  0  0  0  0  0  0  0  0
    9.3865  -15.9768   27.4278 C   0  0  0  0  0  0  0  0  0  0  0  0
   10.0214  -15.8694   28.6527 C   0  0  0  0  0  0  0  0  0  0  0  0
   10.0804  -17.3106   23.9987 O   0  0  0  0  0  0  0  0  0  0  0  0
  2  3  2  0
  2  1  1  0
  4  2  1  0
  5  4  1  0
  5  7  1  0
  5  6  1  1
  7  8  2  0
 10  9  1  1
 11  7  1  0
 11 10  1  0
 12 10  1  0
 12 21  1  0
 13 12  2  0
 15 14  1  0
 16 15  2  0
 17 16  1  0
 18 24  1  0
 18 17  2  0
 19 18  1  0
 20 21  1  0
 20 19  1  1
 22 23  1  0
 22 20  1  0
 24 25  2  0
 25 15  1  0
 26 22  2  0
M  END
$$$$
