NAY.pdb
     RDKit          3D

 26 26  0  0  1  0  0  0  0  0999 V2000
   11.1932  -19.0551   15.1836 N   0  0  0  0  0  0  0  0  0  0  0  0
   10.8124  -18.0322   16.1001 C   0  0  0  0  0  0  0  0  0  0  0  0
   10.9274  -16.8251   15.8003 O   0  0  0  0  0  0  0  0  0  0  0  0
   10.2755  -18.4345   17.4196 C   0  0  0  0  0  0  0  0  0  0  0  0
   11.1731  -17.8587   18.5115 C   0  0  2  0  0  0  0  0  0  0  0  0
   12.5167  -18.3845   18.3951 N   0  0  0  0  0  0  0  0  0  0  0  0
   10.6019  -18.3224   19.8009 C   0  0  0  0  0  0  0  0  0  0  0  0
    9.3735  -18.2435   20.0225 O   0  0  0  0  0  0  0  0  0  0  0  0
   11.3882  -20.6295   22.4739 C   0  0  0  0  0  0  0  0  0  0  0  0
   10.8244  -19.2571   22.0874 C   0  0  2  0  0  0  0  0  0  0  0  0
   11.4337  -18.8744   20.8327 N   0  0  0  0  0  0  0  0  0  0  0  0
   11.2267  -18.3189   23.1757 C   0  0  0  0  0  0  0  0  0  0  0  0
   12.3946  -17.8058   23.1265 O   0  0  0  0  0  0  0  0  0  0  0  0
   10.9892  -13.5556   30.6261 O   0  0  0  0  0  0  0  0  0  0  0  0
   10.6306  -14.3418   29.5147 C   0  0  0  0  0  0  0  0  0  0  0  0
   10.2671  -13.7652   28.3179 C   0  0  0  0  0  0  0  0  0  0  0  0
    9.9106  -14.5037   27.2104 C   0  0  0  0  0  0  0  0  0  0  0  0
    9.9142  -15.8965   27.2931 C   0  0  0  0  0  0  0  0  0  0  0  0
    9.5323  -16.6764   26.0979 C   0  0  0  0  0  0  0  0  0  0  0  0
   10.7208  -17.1750   25.3008 C   0  0  2  0  0  0  0  0  0  0  0  0
   10.3229  -18.0238   24.2181 N   0  0  0  0  0  0  0  0  0  0  0  0
   11.6262  -17.8753   26.2481 C   0  0  0  0  0  0  0  0  0  0  0  0
   12.7523  -17.1828   26.6852 O   0  0  0  0  0  0  0  0  0  0  0  0
   10.2778  -16.4726   28.4901 C   0  0  0  0  0  0  0  0  0  0  0  0
   10.6334  -15.7176   29.5940 C   0  0  0  0  0  0  0  0  0  0  0  0
   11.4132  -19.0410   26.6560 O   0  0  0  0  0  0  0  0  0  0  0  0
  2  3  2  0
  2  1  1  0
  4  2  1  0
  5  4  1  0
  5  7  1  0
  5  6  1  6
  7  8  2  0
 10  9  1  1
 11  7  1  0
 11 10  1  0
 12 10  1  0
 12 21  1  0
 13 12  2  0
 15 14  1  0
 16 15  2  0
 17 16  1  0
 18 24  1  0
 18 17  2  0
 19 18  1  0
 20 21  1  0
 20 19  1  1
 22 23  1  0
 22 20  1  0
 24 25  2  0
 25 15  1  0
 26 22  2  0
M  END
$$$$
