NAY.pdb
     RDKit          3D

 26 26  0  0  1  0  0  0  0  0999 V2000
    8.8832  -20.2927   17.1007 N   0  0  0  0  0  0  0  0  0  0  0  0
    9.2192  -20.1220   18.4752 C   0  0  0  0  0  0  0  0  0  0  0  0
    9.2410  -21.0957   19.2572 O   0  0  0  0  0  0  0  0  0  0  0  0
    9.5428  -18.7600   18.9561 C   0  0  0  0  0  0  0  0  0  0  0  0
    8.6880  -18.4563   20.1835 C   0  0  2  0  0  0  0  0  0  0  0  0
    7.2820  -18.6068   19.8740 N   0  0  0  0  0  0  0  0  0  0  0  0
    8.9409  -17.0325   20.5193 C   0  0  0  0  0  0  0  0  0  0  0  0
   10.0247  -16.4860   20.2175 O   0  0  0  0  0  0  0  0  0  0  0  0
    6.9496  -14.0915   21.5938 C   0  0  0  0  0  0  0  0  0  0  0  0
    8.2727  -14.8622   21.5165 C   0  0  2  0  0  0  0  0  0  0  0  0
    7.9568  -16.2373   21.1977 N   0  0  0  0  0  0  0  0  0  0  0  0
    8.8923  -14.7648   22.8704 C   0  0  0  0  0  0  0  0  0  0  0  0
    9.3740  -13.6393   23.2320 O   0  0  0  0  0  0  0  0  0  0  0  0
    6.0928  -10.8382   27.0816 O   0  0  0  0  0  0  0  0  0  0  0  0
    6.7307  -12.0714   26.8492 C   0  0  0  0  0  0  0  0  0  0  0  0
    6.0074  -13.2097   26.5700 C   0  0  0  0  0  0  0  0  0  0  0  0
    6.5985  -14.4325   26.3373 C   0  0  0  0  0  0  0  0  0  0  0  0
    7.9893  -14.5343   26.3840 C   0  0  0  0  0  0  0  0  0  0  0  0
    8.6106  -15.8504   26.1304 C   0  0  0  0  0  0  0  0  0  0  0  0
    9.5931  -15.8387   24.9767 C   0  0  2  0  0  0  0  0  0  0  0  0
    8.9317  -15.8996   23.7078 N   0  0  0  0  0  0  0  0  0  0  0  0
   10.5191  -16.9840   25.1727 C   0  0  0  0  0  0  0  0  0  0  0  0
   11.3140  -16.9740   26.3159 O   0  0  0  0  0  0  0  0  0  0  0  0
    8.7123  -13.3957   26.6631 C   0  0  0  0  0  0  0  0  0  0  0  0
    8.1043  -12.1743   26.8947 C   0  0  0  0  0  0  0  0  0  0  0  0
   10.6049  -17.9353   24.3614 O   0  0  0  0  0  0  0  0  0  0  0  0
  2  3  2  0
  2  1  1  0
  4  2  1  0
  5  4  1  0
  5  7  1  0
  5  6  1  6
  7  8  2  0
 10  9  1  1
 11  7  1  0
 11 10  1  0
 12 10  1  0
 12 21  1  0
 13 12  2  0
 15 14  1  0
 16 15  2  0
 17 16  1  0
 18 24  1  0
 18 17  2  0
 19 18  1  0
 20 21  1  0
 20 19  1  1
 22 23  1  0
 22 20  1  0
 24 25  2  0
 25 15  1  0
 26 22  2  0
M  END
$$$$
