NAY.pdb
     RDKit          3D

 26 26  0  0  1  0  0  0  0  0999 V2000
    7.8001  -18.2881   13.5753 N   0  0  0  0  0  0  0  0  0  0  0  0
    8.2129  -17.3291   14.5455 C   0  0  0  0  0  0  0  0  0  0  0  0
    8.6656  -16.2178   14.1987 O   0  0  0  0  0  0  0  0  0  0  0  0
    8.0923  -17.6814   15.9781 C   0  0  0  0  0  0  0  0  0  0  0  0
    9.3556  -17.2266   16.7040 C   0  0  2  0  0  0  0  0  0  0  0  0
   10.5032  -17.9831   16.2501 N   0  0  0  0  0  0  0  0  0  0  0  0
    9.1368  -17.5301   18.1406 C   0  0  0  0  0  0  0  0  0  0  0  0
    8.0888  -17.1678   18.7193 O   0  0  0  0  0  0  0  0  0  0  0  0
   10.7338  -19.6954   20.7254 C   0  0  0  0  0  0  0  0  0  0  0  0
    9.8298  -18.5321   20.3008 C   0  0  2  0  0  0  0  0  0  0  0  0
   10.1137  -18.2455   18.9118 N   0  0  0  0  0  0  0  0  0  0  0  0
   10.2054  -17.3748   21.1645 C   0  0  0  0  0  0  0  0  0  0  0  0
   11.2763  -16.7385   20.8856 O   0  0  0  0  0  0  0  0  0  0  0  0
    7.4982  -12.6094   18.0427 O   0  0  0  0  0  0  0  0  0  0  0  0
    7.7685  -13.1753   19.3032 C   0  0  0  0  0  0  0  0  0  0  0  0
    8.9158  -12.8611   19.9973 C   0  0  0  0  0  0  0  0  0  0  0  0
    9.2121  -13.3956   21.2323 C   0  0  0  0  0  0  0  0  0  0  0  0
    8.3188  -14.2952   21.8149 C   0  0  0  0  0  0  0  0  0  0  0  0
    8.6471  -14.8592   23.1403 C   0  0  0  0  0  0  0  0  0  0  0  0
    9.7377  -15.9103   23.0926 C   0  0  2  0  0  0  0  0  0  0  0  0
    9.3825  -17.0145   22.2525 N   0  0  0  0  0  0  0  0  0  0  0  0
    9.9985  -16.3409   24.4905 C   0  0  0  0  0  0  0  0  0  0  0  0
    9.6025  -17.6274   24.8467 O   0  0  0  0  0  0  0  0  0  0  0  0
    7.1715  -14.6091   21.1205 C   0  0  0  0  0  0  0  0  0  0  0  0
    6.8876  -14.0640   19.8806 C   0  0  0  0  0  0  0  0  0  0  0  0
   10.5502  -15.6007   25.3380 O   0  0  0  0  0  0  0  0  0  0  0  0
  2  3  2  0
  2  1  1  0
  4  2  1  0
  5  4  1  0
  5  7  1  0
  5  6  1  6
  7  8  2  0
 10  9  1  1
 11  7  1  0
 11 10  1  0
 12 10  1  0
 12 21  1  0
 13 12  2  0
 15 14  1  0
 16 15  2  0
 17 16  1  0
 18 24  1  0
 18 17  2  0
 19 18  1  0
 20 21  1  0
 20 19  1  1
 22 23  1  0
 22 20  1  0
 24 25  2  0
 25 15  1  0
 26 22  2  0
M  END
$$$$
