RTQ.pdb
     RDKit          3D

 28 27  0  0  1  0  0  0  0  0999 V2000
    7.0069  -19.4507   14.0701 N   0  0  0  0  0  0  0  0  0  0  0  0
    6.6468  -18.0730   14.1990 C   0  0  0  0  0  0  0  0  0  0  0  0
    5.7616  -17.6346   13.3487 N   0  0  0  0  0  0  0  0  0  0  0  0
    7.2040  -17.2234   15.1798 N   0  0  0  0  0  0  0  0  0  0  0  0
    8.5249  -17.5169   15.6832 C   0  0  0  0  0  0  0  0  0  0  0  0
    9.5945  -16.7414   14.9947 C   0  0  0  0  0  0  0  0  0  0  0  0
   10.8559  -16.7817   15.7901 C   0  0  0  0  0  0  0  0  0  0  0  0
   11.7569  -15.5955   15.5473 C   0  0  2  0  0  0  0  0  0  0  0  0
   12.1342  -15.6225   14.1516 N   0  0  0  0  0  0  0  0  0  0  0  0
   12.9402  -15.8060   16.4357 C   0  0  0  0  0  0  0  0  0  0  0  0
   13.9083  -16.4453   15.9532 O   0  0  0  0  0  0  0  0  0  0  0  0
    5.4940  -16.6291   13.3320 C   0  0  0  0  0  0  0  0  0  0  0  0
   15.0908  -13.2871   17.7891 C   0  0  2  0  0  0  0  0  0  0  0  0
   14.7184  -14.1226   18.9899 O   0  0  0  0  0  0  0  0  0  0  0  0
   13.7969  -13.4175   19.7525 C   0  0  2  0  0  0  0  0  0  0  0  0
   14.2024  -15.4868   18.6019 N   0  0  0  0  0  0  0  0  0  0  0  0
   13.0005  -15.3193   17.7693 C   0  0  0  0  0  0  0  0  0  0  0  0
   13.9303  -16.3745   19.7452 O   0  0  0  0  0  0  0  0  0  0  0  0
   13.0401  -16.0817   20.6076 N   0  0  0  0  0  0  0  0  0  0  0  0
   17.4450  -21.3337   21.2382 C   0  0  0  0  0  0  0  0  0  0  0  0
   16.6339  -21.3006   20.0755 O   0  0  0  0  0  0  0  0  0  0  0  0
   16.8287  -22.1597   19.1783 C   0  0  0  0  0  0  0  0  0  0  0  0
   15.5966  -20.2465   19.9869 C   0  0  0  0  0  0  0  0  0  0  0  0
   15.5680  -19.4285   21.2597 C   0  0  2  0  0  0  0  0  0  0  0  0
   14.5010  -18.3565   21.2087 N   0  0  0  0  0  0  0  0  0  0  0  0
   14.6140  -17.5926   19.9754 C   0  0  0  0  0  0  0  0  0  0  0  0
   14.7682  -17.4552   22.3866 O   0  0  0  0  0  0  0  0  0  0  0  0
   15.5560  -16.3433   22.2862 O   0  0  0  0  0  0  0  0  0  0  0  0
  2  4  1  0
  2  1  1  0
  3  2  2  0
  5  4  1  0
  6  5  1  0
  7  8  1  0
  7  6  1  0
  8  9  1  6
  8 10  1  0
 10 11  2  0
 13 12  1  1
 13 15  1  0
 14 13  1  0
 16 10  1  0
 15 16  1  1
 17 15  1  0
 17 18  2  0
 19 20  1  0
 20 22  1  0
 20 21  2  0
 22 23  1  0
 24 23  1  6
 24 26  1  0
 24 25  1  0
 25 17  1  0
 26 27  1  0
 28 26  2  0
M  END
$$$$
