RTQ.pdb
     RDKit          3D

 28 27  0  0  1  0  0  0  0  0999 V2000
    7.8591  -14.7267   13.2395 N   0  0  0  0  0  0  0  0  0  0  0  0
    8.5681  -15.7293   13.9720 C   0  0  0  0  0  0  0  0  0  0  0  0
    9.0586  -16.7091   13.2661 N   0  0  0  0  0  0  0  0  0  0  0  0
    8.7374  -15.6795   15.3730 N   0  0  0  0  0  0  0  0  0  0  0  0
    7.9904  -14.7018   16.1283 C   0  0  0  0  0  0  0  0  0  0  0  0
    8.6135  -14.3843   17.4438 C   0  0  0  0  0  0  0  0  0  0  0  0
    7.7588  -13.4257   18.2028 C   0  0  0  0  0  0  0  0  0  0  0  0
    8.3829  -12.9582   19.4950 C   0  0  2  0  0  0  0  0  0  0  0  0
    9.8023  -12.8160   19.2586 N   0  0  0  0  0  0  0  0  0  0  0  0
    8.1014  -14.0399   20.4871 C   0  0  0  0  0  0  0  0  0  0  0  0
    6.8943  -14.2918   20.7282 O   0  0  0  0  0  0  0  0  0  0  0  0
    9.6021  -17.4710   13.7211 C   0  0  0  0  0  0  0  0  0  0  0  0
    8.9494  -17.6055   20.4270 C   0  0  2  0  0  0  0  0  0  0  0  0
    9.4754  -17.0917   21.7453 O   0  0  0  0  0  0  0  0  0  0  0  0
   10.8559  -16.9723   21.6559 C   0  0  2  0  0  0  0  0  0  0  0  0
    8.8232  -15.7945   22.1569 N   0  0  0  0  0  0  0  0  0  0  0  0
    9.1276  -14.7696   21.1456 C   0  0  0  0  0  0  0  0  0  0  0  0
    9.2003  -15.3323   23.5035 O   0  0  0  0  0  0  0  0  0  0  0  0
    9.8266  -14.2362   23.6709 N   0  0  0  0  0  0  0  0  0  0  0  0
    5.7431  -13.0048   26.8508 C   0  0  0  0  0  0  0  0  0  0  0  0
    7.0124  -12.4077   27.0592 O   0  0  0  0  0  0  0  0  0  0  0  0
    7.0617  -11.2097   27.4379 C   0  0  0  0  0  0  0  0  0  0  0  0
    8.2147  -13.2386   26.8160 C   0  0  0  0  0  0  0  0  0  0  0  0
    7.8136  -14.6144   26.3301 C   0  0  2  0  0  0  0  0  0  0  0  0
    9.0230  -15.4707   26.0225 N   0  0  0  0  0  0  0  0  0  0  0  0
    8.9068  -16.0454   24.6907 C   0  0  0  0  0  0  0  0  0  0  0  0
    9.0171  -16.5732   27.0499 O   0  0  0  0  0  0  0  0  0  0  0  0
    9.4206  -16.3667   28.3390 O   0  0  0  0  0  0  0  0  0  0  0  0
  2  4  1  0
  2  1  1  0
  3  2  2  0
  5  4  1  0
  6  5  1  0
  7  8  1  0
  7  6  1  0
  8  9  1  6
  8 10  1  0
 10 11  2  0
 13 12  1  1
 13 15  1  0
 14 13  1  0
 16 10  1  0
 15 16  1  1
 17 15  1  0
 17 18  2  0
 19 20  1  0
 20 22  1  0
 20 21  2  0
 22 23  1  0
 24 23  1  6
 24 26  1  0
 24 25  1  0
 25 17  1  0
 26 27  1  0
 28 26  2  0
M  END
$$$$
