RTQ.pdb
     RDKit          3D

 28 27  0  0  1  0  0  0  0  0999 V2000
    7.2797  -14.9242   15.8652 N   0  0  0  0  0  0  0  0  0  0  0  0
    8.2350  -13.9003   16.1543 C   0  0  0  0  0  0  0  0  0  0  0  0
    7.7677  -12.6847   16.2056 N   0  0  0  0  0  0  0  0  0  0  0  0
    9.6038  -14.1687   16.3738 N   0  0  0  0  0  0  0  0  0  0  0  0
   10.0630  -14.3730   17.7273 C   0  0  0  0  0  0  0  0  0  0  0  0
    8.9514  -14.6319   18.6849 C   0  0  0  0  0  0  0  0  0  0  0  0
    9.0921  -15.9902   19.2856 C   0  0  0  0  0  0  0  0  0  0  0  0
   10.1856  -16.0779   20.3221 C   0  0  2  0  0  0  0  0  0  0  0  0
   11.0553  -17.1669   19.9363 N   0  0  0  0  0  0  0  0  0  0  0  0
    9.4888  -16.3678   21.6121 C   0  0  0  0  0  0  0  0  0  0  0  0
    8.7607  -15.4586   22.0831 O   0  0  0  0  0  0  0  0  0  0  0  0
    8.3996  -11.8807   16.3984 C   0  0  0  0  0  0  0  0  0  0  0  0
    7.1770  -19.2558   22.5873 C   0  0  2  0  0  0  0  0  0  0  0  0
    8.3127  -19.1924   23.5795 O   0  0  0  0  0  0  0  0  0  0  0  0
    9.2135  -20.2081   23.2883 C   0  0  2  0  0  0  0  0  0  0  0  0
    8.9788  -17.8383   23.6033 N   0  0  0  0  0  0  0  0  0  0  0  0
    9.6216  -17.6038   22.3004 C   0  0  0  0  0  0  0  0  0  0  0  0
    9.9414  -17.6607   24.7038 O   0  0  0  0  0  0  0  0  0  0  0  0
   11.1481  -18.0519   24.5913 N   0  0  0  0  0  0  0  0  0  0  0  0
    9.6019  -13.6815   29.5119 C   0  0  0  0  0  0  0  0  0  0  0  0
   10.6210  -14.5324   30.0104 O   0  0  0  0  0  0  0  0  0  0  0  0
   11.1463  -14.2601   31.1200 C   0  0  0  0  0  0  0  0  0  0  0  0
   11.0091  -15.7012   29.1869 C   0  0  0  0  0  0  0  0  0  0  0  0
   10.0802  -15.8401   28.0004 C   0  0  1  0  0  0  0  0  0  0  0  0
   10.5700  -16.8933   27.0301 N   0  0  0  0  0  0  0  0  0  0  0  0
    9.6170  -17.0575   25.9428 C   0  0  0  0  0  0  0  0  0  0  0  0
   10.6569  -18.1723   27.8223 O   0  0  0  0  0  0  0  0  0  0  0  0
   11.7789  -18.5190   28.5210 O   0  0  0  0  0  0  0  0  0  0  0  0
  2  4  1  0
  2  1  1  0
  3  2  2  0
  5  4  1  0
  6  5  1  0
  7  8  1  0
  7  6  1  0
  8  9  1  6
  8 10  1  0
 10 11  2  0
 13 12  1  1
 13 15  1  0
 14 13  1  0
 16 10  1  0
 15 16  1  1
 17 15  1  0
 17 18  2  0
 19 20  1  0
 20 22  1  0
 20 21  2  0
 22 23  1  0
 24 23  1  6
 24 26  1  0
 24 25  1  0
 25 17  1  0
 26 27  1  0
 28 26  2  0
M  END
$$$$
