RTQ.pdb
     RDKit          3D

 28 27  0  0  1  0  0  0  0  0999 V2000
   10.2892  -13.1441   19.4235 N   0  0  0  0  0  0  0  0  0  0  0  0
    8.9289  -12.8424   19.1025 C   0  0  0  0  0  0  0  0  0  0  0  0
    8.6779  -12.6186   17.8432 N   0  0  0  0  0  0  0  0  0  0  0  0
    7.9063  -12.7855   20.0746 N   0  0  0  0  0  0  0  0  0  0  0  0
    6.8529  -13.7719   20.0328 C   0  0  0  0  0  0  0  0  0  0  0  0
    7.3463  -15.1587   20.2632 C   0  0  0  0  0  0  0  0  0  0  0  0
    6.5899  -15.7979   21.3789 C   0  0  0  0  0  0  0  0  0  0  0  0
    7.0529  -17.1998   21.6923 C   0  0  2  0  0  0  0  0  0  0  0  0
    6.1874  -18.1078   20.9730 N   0  0  0  0  0  0  0  0  0  0  0  0
    6.8928  -17.3506   23.1706 C   0  0  0  0  0  0  0  0  0  0  0  0
    5.7934  -17.7991   23.5817 O   0  0  0  0  0  0  0  0  0  0  0  0
    7.6998  -12.4931   17.5111 C   0  0  0  0  0  0  0  0  0  0  0  0
    6.2640  -19.1792   24.8323 C   0  0  2  0  0  0  0  0  0  0  0  0
    7.4452  -18.7816   25.6838 O   0  0  0  0  0  0  0  0  0  0  0  0
    8.5156  -19.6092   25.3719 C   0  0  2  0  0  0  0  0  0  0  0  0
    7.7979  -17.3223   25.5302 N   0  0  0  0  0  0  0  0  0  0  0  0
    7.9161  -17.0121   24.0965 C   0  0  0  0  0  0  0  0  0  0  0  0
    9.0128  -16.9172   26.2575 O   0  0  0  0  0  0  0  0  0  0  0  0
   10.1712  -17.2125   25.8183 N   0  0  0  0  0  0  0  0  0  0  0  0
   10.7706  -13.7607   26.4440 C   0  0  0  0  0  0  0  0  0  0  0  0
    9.5161  -13.1979   26.7908 O   0  0  0  0  0  0  0  0  0  0  0  0
    8.9434  -12.4430   25.9642 C   0  0  0  0  0  0  0  0  0  0  0  0
    8.9506  -13.5359   28.1178 C   0  0  0  0  0  0  0  0  0  0  0  0
    9.9049  -14.4250   28.8851 C   0  0  2  0  0  0  0  0  0  0  0  0
   10.1991  -15.7053   28.1336 N   0  0  0  0  0  0  0  0  0  0  0  0
    8.9969  -16.1865   27.4699 C   0  0  0  0  0  0  0  0  0  0  0  0
   10.6331  -16.7027   29.1767 O   0  0  0  0  0  0  0  0  0  0  0  0
   11.8602  -16.6407   29.7746 O   0  0  0  0  0  0  0  0  0  0  0  0
  2  4  1  0
  2  1  1  0
  3  2  2  0
  5  4  1  0
  6  5  1  0
  7  8  1  0
  7  6  1  0
  8  9  1  6
  8 10  1  0
 10 11  2  0
 13 12  1  1
 13 15  1  0
 14 13  1  0
 16 10  1  0
 15 16  1  1
 17 15  1  0
 17 18  2  0
 19 20  1  0
 20 22  1  0
 20 21  2  0
 22 23  1  0
 24 23  1  6
 24 26  1  0
 24 25  1  0
 25 17  1  0
 26 27  1  0
 28 26  2  0
M  END
$$$$
