RTQ.pdb
     RDKit          3D

 28 27  0  0  1  0  0  0  0  0999 V2000
    7.0472  -12.9797   15.7117 N   0  0  0  0  0  0  0  0  0  0  0  0
    7.9123  -14.1044   15.8883 C   0  0  0  0  0  0  0  0  0  0  0  0
    7.7728  -15.0703   15.0244 N   0  0  0  0  0  0  0  0  0  0  0  0
    8.8651  -14.1831   16.9276 N   0  0  0  0  0  0  0  0  0  0  0  0
    8.8099  -13.2127   17.9951 C   0  0  0  0  0  0  0  0  0  0  0  0
    7.4668  -13.1277   18.6341 C   0  0  0  0  0  0  0  0  0  0  0  0
    7.3086  -14.2079   19.6508 C   0  0  0  0  0  0  0  0  0  0  0  0
    8.6135  -14.6440   20.2713 C   0  0  2  0  0  0  0  0  0  0  0  0
    9.0349  -15.8442   19.5836 N   0  0  0  0  0  0  0  0  0  0  0  0
    8.2992  -14.9200   21.7062 C   0  0  0  0  0  0  0  0  0  0  0  0
    7.8861  -13.9537   22.3949 O   0  0  0  0  0  0  0  0  0  0  0  0
    8.3980  -15.9017   15.0522 C   0  0  0  0  0  0  0  0  0  0  0  0
    5.9137  -17.5626   22.7898 C   0  0  2  0  0  0  0  0  0  0  0  0
    7.1397  -17.7236   23.6556 O   0  0  0  0  0  0  0  0  0  0  0  0
    7.8451  -18.8386   23.2230 C   0  0  2  0  0  0  0  0  0  0  0  0
    7.9994  -16.4833   23.6692 N   0  0  0  0  0  0  0  0  0  0  0  0
    8.4493  -16.2039   22.2962 C   0  0  0  0  0  0  0  0  0  0  0  0
    9.1442  -16.5550   24.5931 O   0  0  0  0  0  0  0  0  0  0  0  0
   10.3010  -16.8928   24.1814 N   0  0  0  0  0  0  0  0  0  0  0  0
   10.1187  -13.6526   30.0066 C   0  0  0  0  0  0  0  0  0  0  0  0
   11.0754  -14.6899   30.1471 O   0  0  0  0  0  0  0  0  0  0  0  0
   11.7967  -14.7111   31.1768 C   0  0  0  0  0  0  0  0  0  0  0  0
   11.1684  -15.6950   29.0627 C   0  0  0  0  0  0  0  0  0  0  0  0
   10.0829  -15.4615   28.0346 C   0  0  1  0  0  0  0  0  0  0  0  0
   10.1544  -16.4718   26.9101 N   0  0  0  0  0  0  0  0  0  0  0  0
    9.0588  -16.2626   25.9756 C   0  0  0  0  0  0  0  0  0  0  0  0
   10.0102  -17.8227   27.5623 O   0  0  0  0  0  0  0  0  0  0  0  0
   11.0846  -18.5126   28.0489 O   0  0  0  0  0  0  0  0  0  0  0  0
  2  4  1  0
  2  1  1  0
  3  2  2  0
  5  4  1  0
  6  5  1  0
  7  8  1  0
  7  6  1  0
  8  9  1  6
  8 10  1  0
 10 11  2  0
 13 12  1  1
 13 15  1  0
 14 13  1  0
 16 10  1  0
 15 16  1  1
 17 15  1  0
 17 18  2  0
 19 20  1  0
 20 22  1  0
 20 21  2  0
 22 23  1  0
 24 23  1  6
 24 26  1  0
 24 25  1  0
 25 17  1  0
 26 27  1  0
 28 26  2  0
M  END
$$$$
