RTQ.pdb
     RDKit          3D

 28 27  0  0  1  0  0  0  0  0999 V2000
    5.7221  -20.1283   23.2022 N   0  0  0  0  0  0  0  0  0  0  0  0
    5.2812  -21.2822   22.4822 C   0  0  0  0  0  0  0  0  0  0  0  0
    4.1292  -21.7728   22.8446 N   0  0  0  0  0  0  0  0  0  0  0  0
    6.0321  -21.8692   21.4403 N   0  0  0  0  0  0  0  0  0  0  0  0
    6.0041  -21.2558   20.1337 C   0  0  0  0  0  0  0  0  0  0  0  0
    6.0661  -19.7683   20.1887 C   0  0  0  0  0  0  0  0  0  0  0  0
    7.4561  -19.2984   19.9195 C   0  0  0  0  0  0  0  0  0  0  0  0
    7.5140  -17.9462   19.2516 C   0  0  2  0  0  0  0  0  0  0  0  0
    8.3079  -18.0944   18.0521 N   0  0  0  0  0  0  0  0  0  0  0  0
    8.1808  -17.0432   20.2383 C   0  0  0  0  0  0  0  0  0  0  0  0
    9.4348  -17.0930   20.2992 O   0  0  0  0  0  0  0  0  0  0  0  0
    3.7829  -22.6674   22.4416 C   0  0  0  0  0  0  0  0  0  0  0  0
    8.2291  -13.4647   20.1646 C   0  0  2  0  0  0  0  0  0  0  0  0
    7.7649  -13.8008   21.5611 O   0  0  0  0  0  0  0  0  0  0  0  0
    6.3941  -13.5931   21.6350 C   0  0  2  0  0  0  0  0  0  0  0  0
    8.1452  -15.2028   21.9701 N   0  0  0  0  0  0  0  0  0  0  0  0
    7.4602  -16.1571   21.0836 C   0  0  0  0  0  0  0  0  0  0  0  0
    7.8738  -15.5114   23.3845 O   0  0  0  0  0  0  0  0  0  0  0  0
    6.8419  -16.1750   23.7262 N   0  0  0  0  0  0  0  0  0  0  0  0
    7.2796  -19.3041   27.8736 C   0  0  0  0  0  0  0  0  0  0  0  0
    8.3712  -19.1318   26.9849 O   0  0  0  0  0  0  0  0  0  0  0  0
    8.6660  -20.0697   26.2011 C   0  0  0  0  0  0  0  0  0  0  0  0
    9.1050  -17.8456   27.0336 C   0  0  0  0  0  0  0  0  0  0  0  0
    9.0919  -17.1809   25.6743 C   0  0  1  0  0  0  0  0  0  0  0  0
    8.6860  -15.7261   25.7698 N   0  0  0  0  0  0  0  0  0  0  0  0
    8.7118  -15.1092   24.4522 C   0  0  0  0  0  0  0  0  0  0  0  0
    9.7152  -15.0702   26.6540 O   0  0  0  0  0  0  0  0  0  0  0  0
    9.6876  -15.1928   28.0147 O   0  0  0  0  0  0  0  0  0  0  0  0
  2  4  1  0
  2  1  1  0
  3  2  2  0
  5  4  1  0
  6  5  1  0
  7  8  1  0
  7  6  1  0
  8  9  1  6
  8 10  1  0
 10 11  2  0
 13 12  1  1
 13 15  1  0
 14 13  1  0
 16 10  1  0
 15 16  1  1
 17 15  1  0
 17 18  2  0
 19 20  1  0
 20 22  1  0
 20 21  2  0
 22 23  1  0
 24 23  1  6
 24 26  1  0
 24 25  1  0
 25 17  1  0
 26 27  1  0
 28 26  2  0
M  END
$$$$
