RTQ.pdb
     RDKit          3D

 28 27  0  0  1  0  0  0  0  0999 V2000
    7.3199  -14.8873   16.2754 N   0  0  0  0  0  0  0  0  0  0  0  0
    7.9111  -13.5874   16.2041 C   0  0  0  0  0  0  0  0  0  0  0  0
    8.2819  -13.1955   15.0176 N   0  0  0  0  0  0  0  0  0  0  0  0
    8.0910  -12.7638   17.3370 N   0  0  0  0  0  0  0  0  0  0  0  0
    7.6840  -13.2621   18.6294 C   0  0  0  0  0  0  0  0  0  0  0  0
    8.7452  -14.0603   19.3048 C   0  0  0  0  0  0  0  0  0  0  0  0
    8.5760  -15.5103   18.9977 C   0  0  0  0  0  0  0  0  0  0  0  0
    9.5347  -16.3995   19.7515 C   0  0  2  0  0  0  0  0  0  0  0  0
    9.4880  -17.7043   19.1298 N   0  0  0  0  0  0  0  0  0  0  0  0
    9.0172  -16.4448   21.1529 C   0  0  0  0  0  0  0  0  0  0  0  0
    7.8059  -16.1569   21.3224 O   0  0  0  0  0  0  0  0  0  0  0  0
    8.7424  -12.2721   14.8834 C   0  0  0  0  0  0  0  0  0  0  0  0
    9.3011  -19.5228   23.1591 C   0  0  2  0  0  0  0  0  0  0  0  0
    9.7320  -18.4025   24.0743 O   0  0  0  0  0  0  0  0  0  0  0  0
   11.1133  -18.4457   24.2088 C   0  0  2  0  0  0  0  0  0  0  0  0
    9.2546  -17.0537   23.5942 N   0  0  0  0  0  0  0  0  0  0  0  0
    9.8300  -16.7933   22.2650 C   0  0  0  0  0  0  0  0  0  0  0  0
    9.5487  -15.9468   24.5203 O   0  0  0  0  0  0  0  0  0  0  0  0
   10.6258  -15.2748   24.4205 N   0  0  0  0  0  0  0  0  0  0  0  0
    5.3395  -12.6192   27.0374 C   0  0  0  0  0  0  0  0  0  0  0  0
    6.4273  -11.7303   26.8440 O   0  0  0  0  0  0  0  0  0  0  0  0
    6.1929  -10.4976   26.7619 C   0  0  0  0  0  0  0  0  0  0  0  0
    7.7864  -12.3123   26.7493 C   0  0  0  0  0  0  0  0  0  0  0  0
    7.7359  -13.8066   26.9822 C   0  0  2  0  0  0  0  0  0  0  0  0
    9.0035  -14.4865   26.5118 N   0  0  0  0  0  0  0  0  0  0  0  0
    8.6848  -15.5475   25.5683 C   0  0  0  0  0  0  0  0  0  0  0  0
    9.6324  -15.0809   27.7456 O   0  0  0  0  0  0  0  0  0  0  0  0
   10.2652  -14.3114   28.6808 O   0  0  0  0  0  0  0  0  0  0  0  0
  2  4  1  0
  2  1  1  0
  3  2  2  0
  5  4  1  0
  6  5  1  0
  7  8  1  0
  7  6  1  0
  8  9  1  6
  8 10  1  0
 10 11  2  0
 13 12  1  1
 13 15  1  0
 14 13  1  0
 16 10  1  0
 15 16  1  1
 17 15  1  0
 17 18  2  0
 19 20  1  0
 20 22  1  0
 20 21  2  0
 22 23  1  0
 24 23  1  6
 24 26  1  0
 24 25  1  0
 25 17  1  0
 26 27  1  0
 28 26  2  0
M  END
$$$$
