RTQ.pdb
     RDKit          3D

 28 27  0  0  1  0  0  0  0  0999 V2000
    7.1809  -14.4821   14.8448 N   0  0  0  0  0  0  0  0  0  0  0  0
    8.5477  -14.1716   15.1278 C   0  0  0  0  0  0  0  0  0  0  0  0
    9.4264  -14.6704   14.3044 N   0  0  0  0  0  0  0  0  0  0  0  0
    8.9417  -13.3760   16.2258 N   0  0  0  0  0  0  0  0  0  0  0  0
    8.7184  -13.8765   17.5615 C   0  0  0  0  0  0  0  0  0  0  0  0
    7.2781  -13.8930   17.9423 C   0  0  0  0  0  0  0  0  0  0  0  0
    7.1362  -13.9833   19.4246 C   0  0  0  0  0  0  0  0  0  0  0  0
    8.3716  -14.5076   20.1152 C   0  0  2  0  0  0  0  0  0  0  0  0
    8.9038  -15.5710   19.2923 N   0  0  0  0  0  0  0  0  0  0  0  0
    7.9001  -15.0247   21.4358 C   0  0  0  0  0  0  0  0  0  0  0  0
    6.6579  -15.1125   21.6026 O   0  0  0  0  0  0  0  0  0  0  0  0
   10.4433  -14.5036   14.4484 C   0  0  0  0  0  0  0  0  0  0  0  0
    6.2349  -16.6946   22.4296 C   0  0  2  0  0  0  0  0  0  0  0  0
    7.3649  -17.1876   23.3006 O   0  0  0  0  0  0  0  0  0  0  0  0
    8.0202  -18.2163   22.6371 C   0  0  2  0  0  0  0  0  0  0  0  0
    8.3103  -16.0796   23.6956 N   0  0  0  0  0  0  0  0  0  0  0  0
    8.7884  -15.4081   22.4765 C   0  0  0  0  0  0  0  0  0  0  0  0
    9.4406  -16.5220   24.5297 O   0  0  0  0  0  0  0  0  0  0  0  0
   10.5301  -16.9194   24.0033 N   0  0  0  0  0  0  0  0  0  0  0  0
   10.3005  -14.4501   30.2254 C   0  0  0  0  0  0  0  0  0  0  0  0
    9.8777  -13.8139   29.0306 O   0  0  0  0  0  0  0  0  0  0  0  0
    9.4222  -12.6439   29.0977 C   0  0  0  0  0  0  0  0  0  0  0  0
    9.9991  -14.5728   27.7639 C   0  0  0  0  0  0  0  0  0  0  0  0
   10.5246  -15.9659   28.0338 C   0  0  2  0  0  0  0  0  0  0  0  0
   10.5872  -16.7924   26.7675 N   0  0  0  0  0  0  0  0  0  0  0  0
    9.4134  -16.5420   25.9449 C   0  0  0  0  0  0  0  0  0  0  0  0
   10.5911  -18.2310   27.2164 O   0  0  0  0  0  0  0  0  0  0  0  0
   11.6714  -18.7963   27.8333 O   0  0  0  0  0  0  0  0  0  0  0  0
  2  4  1  0
  2  1  1  0
  3  2  2  0
  5  4  1  0
  6  5  1  0
  7  8  1  0
  7  6  1  0
  8  9  1  6
  8 10  1  0
 10 11  2  0
 13 12  1  1
 13 15  1  0
 14 13  1  0
 16 10  1  0
 15 16  1  1
 17 15  1  0
 17 18  2  0
 19 20  1  0
 20 22  1  0
 20 21  2  0
 22 23  1  0
 24 23  1  6
 24 26  1  0
 24 25  1  0
 25 17  1  0
 26 27  1  0
 28 26  2  0
M  END
$$$$
