RTQ.pdb
     RDKit          3D

 28 27  0  0  1  0  0  0  0  0999 V2000
    8.8817  -12.3012   12.7948 N   0  0  0  0  0  0  0  0  0  0  0  0
    8.8811  -13.6035   13.3851 C   0  0  0  0  0  0  0  0  0  0  0  0
    9.9995  -14.2673   13.2992 N   0  0  0  0  0  0  0  0  0  0  0  0
    7.7497  -14.1543   14.0260 N   0  0  0  0  0  0  0  0  0  0  0  0
    7.5644  -13.9119   15.4371 C   0  0  0  0  0  0  0  0  0  0  0  0
    8.3536  -14.8400   16.2945 C   0  0  0  0  0  0  0  0  0  0  0  0
    8.0159  -14.6290   17.7322 C   0  0  0  0  0  0  0  0  0  0  0  0
    8.8216  -15.4933   18.6713 C   0  0  2  0  0  0  0  0  0  0  0  0
    8.9001  -16.8107   18.0802 N   0  0  0  0  0  0  0  0  0  0  0  0
    8.0508  -15.5156   19.9516 C   0  0  0  0  0  0  0  0  0  0  0  0
    6.8120  -15.7078   19.8674 O   0  0  0  0  0  0  0  0  0  0  0  0
   10.0712  -15.2366   13.6708 C   0  0  0  0  0  0  0  0  0  0  0  0
    6.3659  -17.0813   21.2402 C   0  0  2  0  0  0  0  0  0  0  0  0
    7.2776  -16.9131   22.4314 O   0  0  0  0  0  0  0  0  0  0  0  0
    8.2238  -17.9291   22.4129 C   0  0  2  0  0  0  0  0  0  0  0  0
    7.9182  -15.5473   22.4752 N   0  0  0  0  0  0  0  0  0  0  0  0
    8.6594  -15.3315   21.2223 C   0  0  0  0  0  0  0  0  0  0  0  0
    8.7868  -15.3274   23.6442 O   0  0  0  0  0  0  0  0  0  0  0  0
    9.8749  -15.9739   23.7856 N   0  0  0  0  0  0  0  0  0  0  0  0
    5.6171  -13.3027   27.9748 C   0  0  0  0  0  0  0  0  0  0  0  0
    6.3023  -12.2591   27.3022 O   0  0  0  0  0  0  0  0  0  0  0  0
    5.7500  -11.1330   27.2131 C   0  0  0  0  0  0  0  0  0  0  0  0
    7.6394  -12.5608   26.7400 C   0  0  0  0  0  0  0  0  0  0  0  0
    8.0209  -13.9958   27.0318 C   0  0  2  0  0  0  0  0  0  0  0  0
    9.0259  -14.5197   26.0288 N   0  0  0  0  0  0  0  0  0  0  0  0
    8.4951  -14.4061   24.6787 C   0  0  0  0  0  0  0  0  0  0  0  0
    9.2274  -15.9735   26.3709 O   0  0  0  0  0  0  0  0  0  0  0  0
   10.0414  -16.3728   27.3932 O   0  0  0  0  0  0  0  0  0  0  0  0
  2  4  1  0
  2  1  1  0
  3  2  2  0
  5  4  1  0
  6  5  1  0
  7  8  1  0
  7  6  1  0
  8  9  1  6
  8 10  1  0
 10 11  2  0
 13 12  1  1
 13 15  1  0
 14 13  1  0
 16 10  1  0
 15 16  1  1
 17 15  1  0
 17 18  2  0
 19 20  1  0
 20 22  1  0
 20 21  2  0
 22 23  1  0
 24 23  1  6
 24 26  1  0
 24 25  1  0
 25 17  1  0
 26 27  1  0
 28 26  2  0
M  END
$$$$
