RTQ.pdb
     RDKit          3D

 28 27  0  0  1  0  0  0  0  0999 V2000
    8.1891  -13.4132   15.4119 N   0  0  0  0  0  0  0  0  0  0  0  0
    9.2052  -13.7781   16.3493 C   0  0  0  0  0  0  0  0  0  0  0  0
   10.0346  -14.7040   15.9573 N   0  0  0  0  0  0  0  0  0  0  0  0
    9.3201  -13.1843   17.6253 N   0  0  0  0  0  0  0  0  0  0  0  0
    8.1355  -13.0556   18.4404 C   0  0  0  0  0  0  0  0  0  0  0  0
    7.7249  -14.3392   19.0754 C   0  0  0  0  0  0  0  0  0  0  0  0
    8.1143  -14.3517   20.5154 C   0  0  0  0  0  0  0  0  0  0  0  0
    7.7943  -15.6514   21.2127 C   0  0  2  0  0  0  0  0  0  0  0  0
    6.5073  -16.0942   20.7242 N   0  0  0  0  0  0  0  0  0  0  0  0
    7.7393  -15.3188   22.6688 C   0  0  0  0  0  0  0  0  0  0  0  0
    6.9479  -14.4065   23.0152 O   0  0  0  0  0  0  0  0  0  0  0  0
   10.8140  -15.0138   16.5732 C   0  0  0  0  0  0  0  0  0  0  0  0
    5.9155  -15.3982   24.6540 C   0  0  2  0  0  0  0  0  0  0  0  0
    6.9584  -16.1093   25.4818 O   0  0  0  0  0  0  0  0  0  0  0  0
    6.7433  -17.4777   25.3863 C   0  0  2  0  0  0  0  0  0  0  0  0
    8.3637  -15.7306   25.0829 N   0  0  0  0  0  0  0  0  0  0  0  0
    8.5317  -15.9837   23.6430 C   0  0  0  0  0  0  0  0  0  0  0  0
    9.4136  -16.4090   25.8618 O   0  0  0  0  0  0  0  0  0  0  0  0
   10.3121  -17.1052   25.2873 N   0  0  0  0  0  0  0  0  0  0  0  0
   11.9557  -14.2109   30.1624 C   0  0  0  0  0  0  0  0  0  0  0  0
   10.7716  -14.2897   29.3860 O   0  0  0  0  0  0  0  0  0  0  0  0
   10.6072  -13.4668   28.4496 C   0  0  0  0  0  0  0  0  0  0  0  0
    9.7908  -15.3462   29.7278 C   0  0  0  0  0  0  0  0  0  0  0  0
   10.3963  -16.7159   29.5109 C   0  0  2  0  0  0  0  0  0  0  0  0
   10.5391  -17.0348   28.0384 N   0  0  0  0  0  0  0  0  0  0  0  0
    9.5109  -16.3464   27.2727 C   0  0  0  0  0  0  0  0  0  0  0  0
   10.3437  -18.5244   27.9203 O   0  0  0  0  0  0  0  0  0  0  0  0
    9.2700  -19.0668   27.2722 O   0  0  0  0  0  0  0  0  0  0  0  0
  2  4  1  0
  2  1  1  0
  3  2  2  0
  5  4  1  0
  6  5  1  0
  7  8  1  0
  7  6  1  0
  8  9  1  6
  8 10  1  0
 10 11  2  0
 13 12  1  1
 13 15  1  0
 14 13  1  0
 16 10  1  0
 15 16  1  1
 17 15  1  0
 17 18  2  0
 19 20  1  0
 20 22  1  0
 20 21  2  0
 22 23  1  0
 24 23  1  6
 24 26  1  0
 24 25  1  0
 25 17  1  0
 26 27  1  0
 28 26  2  0
M  END
$$$$
