RTQ.pdb
     RDKit          3D

 28 27  0  0  1  0  0  0  0  0999 V2000
    7.8371  -22.3150   18.1498 N   0  0  0  0  0  0  0  0  0  0  0  0
    8.2109  -22.3347   16.7698 C   0  0  0  0  0  0  0  0  0  0  0  0
    7.9142  -23.4224   16.1157 N   0  0  0  0  0  0  0  0  0  0  0  0
    8.8616  -21.2534   16.1362 N   0  0  0  0  0  0  0  0  0  0  0  0
    9.1728  -20.0779   16.9145 C   0  0  0  0  0  0  0  0  0  0  0  0
   10.0603  -19.1225   16.1940 C   0  0  0  0  0  0  0  0  0  0  0  0
   10.4231  -17.9818   17.0844 C   0  0  0  0  0  0  0  0  0  0  0  0
    9.4739  -16.8131   16.9796 C   0  0  2  0  0  0  0  0  0  0  0  0
    9.8900  -16.0237   15.8417 N   0  0  0  0  0  0  0  0  0  0  0  0
    9.6344  -16.0543   18.2572 C   0  0  0  0  0  0  0  0  0  0  0  0
   10.7319  -15.4701   18.4387 O   0  0  0  0  0  0  0  0  0  0  0  0
    8.1530  -23.5172   15.1074 C   0  0  0  0  0  0  0  0  0  0  0  0
    7.1774  -13.4375   19.5434 C   0  0  2  0  0  0  0  0  0  0  0  0
    7.4869  -14.3828   20.6789 O   0  0  0  0  0  0  0  0  0  0  0  0
    6.3994  -15.2262   20.8630 C   0  0  2  0  0  0  0  0  0  0  0  0
    8.7650  -15.1526   20.4523 N   0  0  0  0  0  0  0  0  0  0  0  0
    8.6134  -15.9765   19.2424 C   0  0  0  0  0  0  0  0  0  0  0  0
    9.1829  -15.9759   21.5998 O   0  0  0  0  0  0  0  0  0  0  0  0
    9.3881  -17.2263   21.4718 N   0  0  0  0  0  0  0  0  0  0  0  0
   14.6745  -16.8715   23.8766 C   0  0  0  0  0  0  0  0  0  0  0  0
   13.7418  -17.1469   22.8445 O   0  0  0  0  0  0  0  0  0  0  0  0
   14.1586  -17.2361   21.6615 C   0  0  0  0  0  0  0  0  0  0  0  0
   12.3199  -17.3143   23.2253 C   0  0  0  0  0  0  0  0  0  0  0  0
   11.6899  -15.9684   23.5107 C   0  0  2  0  0  0  0  0  0  0  0  0
   10.2331  -16.1062   23.8968 N   0  0  0  0  0  0  0  0  0  0  0  0
    9.3865  -15.4628   22.9034 C   0  0  0  0  0  0  0  0  0  0  0  0
   10.0898  -15.3956   25.2180 O   0  0  0  0  0  0  0  0  0  0  0  0
   10.2135  -14.0394   25.3304 O   0  0  0  0  0  0  0  0  0  0  0  0
  2  4  1  0
  2  1  1  0
  3  2  2  0
  5  4  1  0
  6  5  1  0
  7  8  1  0
  7  6  1  0
  8  9  1  6
  8 10  1  0
 10 11  2  0
 13 12  1  1
 13 15  1  0
 14 13  1  0
 16 10  1  0
 15 16  1  1
 17 15  1  0
 17 18  2  0
 19 20  1  0
 20 22  1  0
 20 21  2  0
 22 23  1  0
 24 23  1  6
 24 26  1  0
 24 25  1  0
 25 17  1  0
 26 27  1  0
 28 26  2  0
M  END
$$$$
