RTQ.pdb
     RDKit          3D

 28 27  0  0  1  0  0  0  0  0999 V2000
   13.4414  -17.3799   14.9939 N   0  0  0  0  0  0  0  0  0  0  0  0
   14.6285  -17.7730   15.6874 C   0  0  0  0  0  0  0  0  0  0  0  0
   15.7542  -17.4724   15.1032 N   0  0  0  0  0  0  0  0  0  0  0  0
   14.6042  -18.4457   16.9287 N   0  0  0  0  0  0  0  0  0  0  0  0
   13.3273  -18.7293   17.5398 C   0  0  0  0  0  0  0  0  0  0  0  0
   12.5873  -17.4987   17.9369 C   0  0  0  0  0  0  0  0  0  0  0  0
   11.3416  -17.8596   18.6741 C   0  0  0  0  0  0  0  0  0  0  0  0
   10.1577  -16.9970   18.3108 C   0  0  2  0  0  0  0  0  0  0  0  0
   10.4930  -16.3020   17.0879 N   0  0  0  0  0  0  0  0  0  0  0  0
    9.9941  -16.0449   19.4513 C   0  0  0  0  0  0  0  0  0  0  0  0
   10.9890  -15.3382   19.7505 O   0  0  0  0  0  0  0  0  0  0  0  0
   16.6597  -17.5936   15.6014 C   0  0  0  0  0  0  0  0  0  0  0  0
    7.2165  -13.4300   19.8943 C   0  0  2  0  0  0  0  0  0  0  0  0
    7.3082  -14.2585   21.1527 O   0  0  0  0  0  0  0  0  0  0  0  0
    6.2504  -15.1578   21.1700 C   0  0  2  0  0  0  0  0  0  0  0  0
    8.6410  -14.9538   21.2860 N   0  0  0  0  0  0  0  0  0  0  0  0
    8.7836  -15.9195   20.1847 C   0  0  0  0  0  0  0  0  0  0  0  0
    8.8508  -15.6078   22.5889 O   0  0  0  0  0  0  0  0  0  0  0  0
    9.0284  -16.8662   22.6718 N   0  0  0  0  0  0  0  0  0  0  0  0
   11.2041  -14.3923   29.2490 C   0  0  0  0  0  0  0  0  0  0  0  0
    9.9956  -14.2041   28.5313 O   0  0  0  0  0  0  0  0  0  0  0  0
    9.2927  -13.1932   28.7865 C   0  0  0  0  0  0  0  0  0  0  0  0
    9.6305  -15.2186   27.5152 C   0  0  0  0  0  0  0  0  0  0  0  0
    9.3832  -14.5571   26.1769 C   0  0  2  0  0  0  0  0  0  0  0  0
    9.0291  -15.5717   25.1113 N   0  0  0  0  0  0  0  0  0  0  0  0
    8.8728  -14.9141   23.8227 C   0  0  0  0  0  0  0  0  0  0  0  0
    7.7123  -16.1696   25.5355 O   0  0  0  0  0  0  0  0  0  0  0  0
    7.6397  -17.2374   26.3850 O   0  0  0  0  0  0  0  0  0  0  0  0
  2  4  1  0
  2  1  1  0
  3  2  2  0
  5  4  1  0
  6  5  1  0
  7  8  1  0
  7  6  1  0
  8  9  1  6
  8 10  1  0
 10 11  2  0
 13 12  1  1
 13 15  1  0
 14 13  1  0
 16 10  1  0
 15 16  1  1
 17 15  1  0
 17 18  2  0
 19 20  1  0
 20 22  1  0
 20 21  2  0
 22 23  1  0
 24 23  1  6
 24 26  1  0
 24 25  1  0
 25 17  1  0
 26 27  1  0
 28 26  2  0
M  END
$$$$
