RTQ.pdb
     RDKit          3D

 28 27  0  0  1  0  0  0  0  0999 V2000
    6.8551  -12.4735   18.9304 N   0  0  0  0  0  0  0  0  0  0  0  0
    7.7956  -13.4727   18.5286 C   0  0  0  0  0  0  0  0  0  0  0  0
    8.4895  -13.2031   17.4587 N   0  0  0  0  0  0  0  0  0  0  0  0
    7.9765  -14.6830   19.2333 N   0  0  0  0  0  0  0  0  0  0  0  0
    7.1589  -14.9386   20.3955 C   0  0  0  0  0  0  0  0  0  0  0  0
    6.0786  -15.9319   20.1386 C   0  0  0  0  0  0  0  0  0  0  0  0
    6.6064  -17.3195   20.2853 C   0  0  0  0  0  0  0  0  0  0  0  0
    7.2990  -17.8325   19.0464 C   0  0  2  0  0  0  0  0  0  0  0  0
    6.4659  -18.8755   18.4905 N   0  0  0  0  0  0  0  0  0  0  0  0
    8.6090  -18.3752   19.5187 C   0  0  0  0  0  0  0  0  0  0  0  0
    8.5968  -19.5169   20.0432 O   0  0  0  0  0  0  0  0  0  0  0  0
    9.1499  -13.9037   17.0639 C   0  0  0  0  0  0  0  0  0  0  0  0
   12.3539  -17.2528   17.9338 C   0  0  2  0  0  0  0  0  0  0  0  0
   11.9944  -18.5014   18.7020 O   0  0  0  0  0  0  0  0  0  0  0  0
   13.1665  -19.1425   19.0802 C   0  0  1  0  0  0  0  0  0  0  0  0
   11.1042  -18.2107   19.8855 N   0  0  0  0  0  0  0  0  0  0  0  0
    9.8305  -17.6597   19.3958 C   0  0  0  0  0  0  0  0  0  0  0  0
   11.7104  -17.3203   20.8900 O   0  0  0  0  0  0  0  0  0  0  0  0
   11.7050  -16.0561   20.7365 N   0  0  0  0  0  0  0  0  0  0  0  0
   11.4751  -19.1049   25.4094 C   0  0  0  0  0  0  0  0  0  0  0  0
   11.8099  -17.9111   26.0977 O   0  0  0  0  0  0  0  0  0  0  0  0
   11.2122  -17.6449   27.1715 C   0  0  0  0  0  0  0  0  0  0  0  0
   12.8528  -17.0415   25.5051 C   0  0  0  0  0  0  0  0  0  0  0  0
   13.4178  -17.6764   24.2531 C   0  0  2  0  0  0  0  0  0  0  0  0
   13.0231  -16.9062   23.0115 N   0  0  0  0  0  0  0  0  0  0  0  0
   12.3314  -17.7802   22.0761 C   0  0  0  0  0  0  0  0  0  0  0  0
   14.3139  -16.4298   22.3966 O   0  0  0  0  0  0  0  0  0  0  0  0
   15.1255  -17.2606   21.6767 O   0  0  0  0  0  0  0  0  0  0  0  0
  2  4  1  0
  2  1  1  0
  3  2  2  0
  5  4  1  0
  6  5  1  0
  7  8  1  0
  7  6  1  0
  8  9  1  1
  8 10  1  0
 10 11  2  0
 13 12  1  6
 13 15  1  0
 14 13  1  0
 16 10  1  0
 15 16  1  6
 17 15  1  0
 17 18  2  0
 19 20  1  0
 20 22  1  0
 20 21  2  0
 22 23  1  0
 24 23  1  1
 24 26  1  0
 24 25  1  0
 25 17  1  0
 26 27  1  0
 28 26  2  0
M  END
$$$$
