PVT.pdb
     RDKit          3D

 22 22  0  0  1  0  0  0  0  0999 V2000
    8.4190  -14.8707   20.2988 N   0  0  0  0  0  0  0  0  0  0  0  0
    7.5916  -15.1893   19.1493 C   0  0  0  0  0  0  0  0  0  0  0  0
    6.7239  -16.3113   19.7177 C   0  0  0  0  0  0  0  0  0  0  0  0
    6.6140  -15.9814   21.1932 C   0  0  0  0  0  0  0  0  0  0  0  0
    7.4406  -14.7299   21.3305 C   0  0  1  0  0  0  0  0  0  0  0  0
    8.0152  -14.5659   22.6810 C   0  0  0  0  0  0  0  0  0  0  0  0
    9.1792  -15.0229   22.8604 O   0  0  0  0  0  0  0  0  0  0  0  0
    8.0500  -12.5044   27.1790 C   0  0  0  0  0  0  0  0  0  0  0  0
    7.3257  -12.7458   25.8981 C   0  0  2  0  0  0  0  0  0  0  0  0
    5.8903  -13.0892   26.1790 C   0  0  0  0  0  0  0  0  0  0  0  0
    7.9767  -13.7823   25.0149 C   0  0  2  0  0  0  0  0  0  0  0  0
    7.3303  -13.9336   23.7518 N   0  0  0  0  0  0  0  0  0  0  0  0
    8.1030  -15.0938   25.7399 C   0  0  0  0  0  0  0  0  0  0  0  0
    7.0813  -15.8143   25.8759 O   0  0  0  0  0  0  0  0  0  0  0  0
    9.6420  -18.1373   24.8093 C   0  0  0  0  0  0  0  0  0  0  0  0
   10.3097  -17.7890   26.1080 C   0  0  1  0  0  0  0  0  0  0  0  0
   11.5862  -17.2679   25.9497 O   0  0  0  0  0  0  0  0  0  0  0  0
    9.4682  -16.8358   26.9326 C   0  0  2  0  0  0  0  0  0  0  0  0
    9.3223  -15.5554   26.2774 N   0  0  0  0  0  0  0  0  0  0  0  0
   10.0467  -16.6972   28.2929 C   0  0  0  0  0  0  0  0  0  0  0  0
   10.4916  -15.5739   28.6370 O   0  0  0  0  0  0  0  0  0  0  0  0
   10.1280  -17.7317   29.2123 O   0  0  0  0  0  0  0  0  0  0  0  0
  1  5  1  0
  2  1  1  0
  3  4  1  0
  3  2  1  0
  4  5  1  0
  6  7  2  0
  5  6  1  1
  9  8  1  1
  9 11  1  0
 10  9  1  0
 11 12  1  6
 11 13  1  0
 12  6  1  0
 13 19  1  0
 14 13  2  0
 16 17  1  0
 16 15  1  6
 18 16  1  0
 18 19  1  6
 20 18  1  0
 20 22  1  0
 21 20  2  0
M  END
$$$$
