PVT.pdb
     RDKit          3D

 22 22  0  0  1  0  0  0  0  0999 V2000
    8.1803  -14.6502   20.3292 N   0  0  0  0  0  0  0  0  0  0  0  0
    7.3864  -15.0908   19.1965 C   0  0  0  0  0  0  0  0  0  0  0  0
    6.7329  -16.3471   19.7705 C   0  0  0  0  0  0  0  0  0  0  0  0
    6.6099  -16.0546   21.2529 C   0  0  0  0  0  0  0  0  0  0  0  0
    7.2205  -14.6844   21.3871 C   0  0  1  0  0  0  0  0  0  0  0  0
    7.7963  -14.4402   22.7249 C   0  0  0  0  0  0  0  0  0  0  0  0
    9.0476  -14.5738   22.8357 O   0  0  0  0  0  0  0  0  0  0  0  0
    6.3591  -11.7635   25.5217 C   0  0  0  0  0  0  0  0  0  0  0  0
    6.8329  -13.0613   26.0828 C   0  0  2  0  0  0  0  0  0  0  0  0
    7.5716  -12.8231   27.3693 C   0  0  0  0  0  0  0  0  0  0  0  0
    7.6574  -13.8786   25.1182 C   0  0  2  0  0  0  0  0  0  0  0  0
    7.0209  -14.0725   23.8558 N   0  0  0  0  0  0  0  0  0  0  0  0
    8.0688  -15.1827   25.7440 C   0  0  0  0  0  0  0  0  0  0  0  0
    7.1780  -16.0072   26.0728 O   0  0  0  0  0  0  0  0  0  0  0  0
   11.5997  -18.5845   26.3516 C   0  0  0  0  0  0  0  0  0  0  0  0
   11.1312  -17.2639   25.8131 C   0  0  1  0  0  0  0  0  0  0  0  0
   10.9927  -17.2489   24.4323 O   0  0  0  0  0  0  0  0  0  0  0  0
    9.8340  -16.8231   26.4608 C   0  0  2  0  0  0  0  0  0  0  0  0
    9.4162  -15.5252   25.9805 N   0  0  0  0  0  0  0  0  0  0  0  0
    9.9728  -16.8464   27.9388 C   0  0  0  0  0  0  0  0  0  0  0  0
   10.2126  -15.7640   28.5295 O   0  0  0  0  0  0  0  0  0  0  0  0
    9.8542  -17.9904   28.7130 O   0  0  0  0  0  0  0  0  0  0  0  0
  1  5  1  0
  2  1  1  0
  3  4  1  0
  3  2  1  0
  4  5  1  0
  6  7  2  0
  5  6  1  1
  9  8  1  6
  9 11  1  0
 10  9  1  0
 11 12  1  6
 11 13  1  0
 12  6  1  0
 13 19  1  0
 14 13  2  0
 16 17  1  0
 16 15  1  1
 18 16  1  0
 18 19  1  6
 20 18  1  0
 20 22  1  0
 21 20  2  0
M  END
$$$$
