PVT.pdb
     RDKit          3D

 22 22  0  0  1  0  0  0  0  0999 V2000
    7.0369  -15.5616   21.4388 N   0  0  0  0  0  0  0  0  0  0  0  0
    6.8965  -15.5791   19.9940 C   0  0  0  0  0  0  0  0  0  0  0  0
    7.1231  -14.1049   19.6620 C   0  0  0  0  0  0  0  0  0  0  0  0
    8.0637  -13.6223   20.7485 C   0  0  0  0  0  0  0  0  0  0  0  0
    8.2632  -14.8467   21.6025 C   0  0  1  0  0  0  0  0  0  0  0  0
    8.5828  -14.5219   23.0072 C   0  0  0  0  0  0  0  0  0  0  0  0
    9.7962  -14.2920   23.2732 O   0  0  0  0  0  0  0  0  0  0  0  0
    6.5262  -12.1086   25.2987 C   0  0  0  0  0  0  0  0  0  0  0  0
    7.0094  -13.2710   26.0980 C   0  0  2  0  0  0  0  0  0  0  0  0
    7.5560  -12.7949   27.4141 C   0  0  0  0  0  0  0  0  0  0  0  0
    8.0060  -14.1400   25.3703 C   0  0  2  0  0  0  0  0  0  0  0  0
    7.6083  -14.4601   24.0378 N   0  0  0  0  0  0  0  0  0  0  0  0
    8.3206  -15.3728   26.1721 C   0  0  0  0  0  0  0  0  0  0  0  0
    7.3811  -16.1430   26.4972 O   0  0  0  0  0  0  0  0  0  0  0  0
   10.4016  -18.3005   25.3394 C   0  0  0  0  0  0  0  0  0  0  0  0
   10.9519  -17.7656   26.6296 C   0  0  1  0  0  0  0  0  0  0  0  0
   12.1464  -17.0758   26.4762 O   0  0  0  0  0  0  0  0  0  0  0  0
    9.9453  -16.8893   27.3475 C   0  0  2  0  0  0  0  0  0  0  0  0
    9.6291  -15.7066   26.5787 N   0  0  0  0  0  0  0  0  0  0  0  0
   10.4462  -16.5491   28.7031 C   0  0  0  0  0  0  0  0  0  0  0  0
   10.6687  -15.3413   28.9677 O   0  0  0  0  0  0  0  0  0  0  0  0
   10.6854  -17.4819   29.7004 O   0  0  0  0  0  0  0  0  0  0  0  0
  1  5  1  0
  2  1  1  0
  3  4  1  0
  3  2  1  0
  4  5  1  0
  6  7  2  0
  5  6  1  1
  9  8  1  6
  9 11  1  0
 10  9  1  0
 11 12  1  6
 11 13  1  0
 12  6  1  0
 13 19  1  0
 14 13  2  0
 16 17  1  0
 16 15  1  6
 18 16  1  0
 18 19  1  6
 20 18  1  0
 20 22  1  0
 21 20  2  0
M  END
$$$$
