PVT.pdb
     RDKit          3D

 22 22  0  0  1  0  0  0  0  0999 V2000
    7.0542  -14.7414   20.9042 N   0  0  0  0  0  0  0  0  0  0  0  0
    6.9937  -14.5949   19.4612 C   0  0  0  0  0  0  0  0  0  0  0  0
    7.2636  -13.0986   19.3093 C   0  0  0  0  0  0  0  0  0  0  0  0
    8.1508  -12.7619   20.4915 C   0  0  0  0  0  0  0  0  0  0  0  0
    8.2816  -14.0779   21.2120 C   0  0  1  0  0  0  0  0  0  0  0  0
    8.5286  -13.9189   22.6593 C   0  0  0  0  0  0  0  0  0  0  0  0
    9.7314  -13.7689   23.0153 O   0  0  0  0  0  0  0  0  0  0  0  0
    6.5665  -11.7026   25.3329 C   0  0  0  0  0  0  0  0  0  0  0  0
    6.8236  -13.0822   25.8370 C   0  0  2  0  0  0  0  0  0  0  0  0
    7.2158  -13.0324   27.2865 C   0  0  0  0  0  0  0  0  0  0  0  0
    7.8326  -13.8523   25.0201 C   0  0  2  0  0  0  0  0  0  0  0  0
    7.4975  -13.9279   23.6351 N   0  0  0  0  0  0  0  0  0  0  0  0
    8.0688  -15.2136   25.6142 C   0  0  0  0  0  0  0  0  0  0  0  0
    7.0984  -16.0060   25.7237 O   0  0  0  0  0  0  0  0  0  0  0  0
   11.8465  -16.7694   25.3199 C   0  0  0  0  0  0  0  0  0  0  0  0
   10.6378  -17.6415   25.4993 C   0  0  1  0  0  0  0  0  0  0  0  0
   10.9420  -18.9229   25.9372 O   0  0  0  0  0  0  0  0  0  0  0  0
    9.6251  -17.0102   26.4332 C   0  0  2  0  0  0  0  0  0  0  0  0
    9.3365  -15.6445   26.0568 N   0  0  0  0  0  0  0  0  0  0  0  0
   10.1010  -17.1073   27.8362 C   0  0  0  0  0  0  0  0  0  0  0  0
   10.2924  -16.0414   28.4731 O   0  0  0  0  0  0  0  0  0  0  0  0
   10.3490  -18.3032   28.4922 O   0  0  0  0  0  0  0  0  0  0  0  0
  1  5  1  0
  2  1  1  0
  3  4  1  0
  3  2  1  0
  4  5  1  0
  6  7  2  0
  5  6  1  1
  9  8  1  6
  9 11  1  0
 10  9  1  0
 11 12  1  6
 11 13  1  0
 12  6  1  0
 13 19  1  0
 14 13  2  0
 16 17  1  0
 16 15  1  1
 18 16  1  0
 18 19  1  6
 20 18  1  0
 20 22  1  0
 21 20  2  0
M  END
$$$$
