PVT.pdb
     RDKit          3D

 22 22  0  0  1  0  0  0  0  0999 V2000
    8.6035  -15.0944   20.5678 N   0  0  0  0  0  0  0  0  0  0  0  0
    7.9432  -15.4198   19.3166 C   0  0  0  0  0  0  0  0  0  0  0  0
    6.9444  -16.4786   19.7818 C   0  0  0  0  0  0  0  0  0  0  0  0
    6.6309  -16.0870   21.2123 C   0  0  0  0  0  0  0  0  0  0  0  0
    7.4895  -14.8697   21.4339 C   0  0  1  0  0  0  0  0  0  0  0  0
    7.8623  -14.6794   22.8502 C   0  0  0  0  0  0  0  0  0  0  0  0
    9.0218  -15.0520   23.1855 O   0  0  0  0  0  0  0  0  0  0  0  0
    6.6578  -11.6803   25.3910 C   0  0  0  0  0  0  0  0  0  0  0  0
    6.6453  -13.0418   25.9989 C   0  0  2  0  0  0  0  0  0  0  0  0
    7.1592  -12.9770   27.4093 C   0  0  0  0  0  0  0  0  0  0  0  0
    7.3871  -14.0781   25.1901 C   0  0  2  0  0  0  0  0  0  0  0  0
    6.9937  -14.1111   23.8188 N   0  0  0  0  0  0  0  0  0  0  0  0
    7.2802  -15.4320   25.8360 C   0  0  0  0  0  0  0  0  0  0  0  0
    6.1393  -15.9207   26.0386 O   0  0  0  0  0  0  0  0  0  0  0  0
    7.6354  -18.6021   24.6717 C   0  0  0  0  0  0  0  0  0  0  0  0
    8.6393  -18.5800   25.7877 C   0  0  1  0  0  0  0  0  0  0  0  0
    9.9482  -18.4354   25.3496 O   0  0  0  0  0  0  0  0  0  0  0  0
    8.3205  -17.5047   26.8068 C   0  0  2  0  0  0  0  0  0  0  0  0
    8.4077  -16.1831   26.2273 N   0  0  0  0  0  0  0  0  0  0  0  0
    9.2073  -17.6488   27.9888 C   0  0  0  0  0  0  0  0  0  0  0  0
    9.9896  -16.7047   28.2625 O   0  0  0  0  0  0  0  0  0  0  0  0
    9.2280  -18.7627   28.8140 O   0  0  0  0  0  0  0  0  0  0  0  0
  1  5  1  0
  2  1  1  0
  3  4  1  0
  3  2  1  0
  4  5  1  0
  6  7  2  0
  5  6  1  1
  9  8  1  6
  9 11  1  0
 10  9  1  0
 11 12  1  6
 11 13  1  0
 12  6  1  0
 13 19  1  0
 14 13  2  0
 16 17  1  0
 16 15  1  6
 18 16  1  0
 18 19  1  6
 20 18  1  0
 20 22  1  0
 21 20  2  0
M  END
$$$$
