NDM.pdb
     RDKit          3D

 25 24  0  0  1  0  0  0  0  0999 V2000
   23.3700  -17.1423  -17.7338 N   0  0  0  0  0  0  0  0  0  0  0  0
   22.2016  -16.4453  -18.1375 C   0  0  0  0  0  0  0  0  0  0  0  0
   21.2509  -17.0807  -18.6434 O   0  0  0  0  0  0  0  0  0  0  0  0
   22.1121  -14.9999  -17.9627 C   0  0  0  0  0  0  0  0  0  0  0  0
   21.0990  -14.4312  -18.9570 C   0  0  2  0  0  0  0  0  0  0  0  0
   21.7108  -14.5565  -20.2628 N   0  0  0  0  0  0  0  0  0  0  0  0
   20.9439  -13.0134  -18.6156 C   0  0  0  0  0  0  0  0  0  0  0  0
   21.7550  -12.1713  -19.0770 O   0  0  0  0  0  0  0  0  0  0  0  0
   19.8992  -12.5223  -17.7685 N   0  0  0  0  0  0  0  0  0  0  0  0
   19.7958  -11.1128  -17.5074 C   0  0  1  0  0  0  0  0  0  0  0  0
   18.4347  -10.7714  -16.8838 C   0  0  0  0  0  0  0  0  0  0  0  0
   18.2762   -9.3082  -16.7488 C   0  0  0  0  0  0  0  0  0  0  0  0
   18.9981   -8.4782  -17.3424 O   0  0  0  0  0  0  0  0  0  0  0  0
   20.8936  -10.6389  -16.5986 C   0  0  0  0  0  0  0  0  0  0  0  0
   21.4550  -11.4689  -15.8400 O   0  0  0  0  0  0  0  0  0  0  0  0
   17.2748   -8.8305  -15.9206 O   0  0  0  0  0  0  0  0  0  0  0  0
   26.5210  -11.8092  -15.0670 C   0  0  0  0  0  0  0  0  0  0  0  0
   26.4034  -10.2507  -15.9563 S   0  0  0  0  0  0  0  0  0  0  0  0
   24.9914   -9.2744  -15.5479 C   0  0  0  0  0  0  0  0  0  0  0  0
   23.6891   -9.6023  -16.1347 C   0  0  0  0  0  0  0  0  0  0  0  0
   22.4799   -8.8422  -15.7575 C   0  0  2  0  0  0  0  0  0  0  0  0
   21.3190   -9.2999  -16.5627 N   0  0  0  0  0  0  0  0  0  0  0  0
   22.5221   -7.3822  -15.8689 C   0  0  0  0  0  0  0  0  0  0  0  0
   21.9586   -6.8422  -16.8877 O   0  0  0  0  0  0  0  0  0  0  0  0
   23.1003   -6.4991  -14.9957 O   0  0  0  0  0  0  0  0  0  0  0  0
  2  1  1  0
  2  3  2  0
  4  2  1  0
  5  4  1  0
  5  6  1  6
  7  5  1  0
  7  8  2  0
  9  7  1  0
 10  9  1  0
 10 11  1  1
 12 13  2  0
 12 11  1  0
 14 10  1  0
 14 22  1  0
 15 14  2  0
 16 12  1  0
 18 17  1  0
 19 18  1  0
 20 19  1  0
 21 20  1  6
 21 22  1  0
 21 23  1  0
 23 24  2  0
 23 25  1  0
M  END
$$$$
