NDM.pdb
     RDKit          3D

 25 24  0  0  1  0  0  0  0  0999 V2000
   17.4690  -13.8868  -15.6754 N   0  0  0  0  0  0  0  0  0  0  0  0
   18.7533  -13.2829  -15.6690 C   0  0  0  0  0  0  0  0  0  0  0  0
   19.7608  -13.9841  -15.4305 O   0  0  0  0  0  0  0  0  0  0  0  0
   18.8948  -11.8565  -15.9386 C   0  0  0  0  0  0  0  0  0  0  0  0
   17.5080  -11.2238  -16.0598 C   0  0  2  0  0  0  0  0  0  0  0  0
   17.0120  -11.6013  -17.3663 N   0  0  0  0  0  0  0  0  0  0  0  0
   17.7154   -9.7729  -16.0080 C   0  0  0  0  0  0  0  0  0  0  0  0
   18.2739   -9.1907  -16.9718 O   0  0  0  0  0  0  0  0  0  0  0  0
   17.3097   -8.9635  -14.8987 N   0  0  0  0  0  0  0  0  0  0  0  0
   17.6079   -7.5577  -14.8946 C   0  0  1  0  0  0  0  0  0  0  0  0
   16.5514   -6.7778  -14.0984 C   0  0  0  0  0  0  0  0  0  0  0  0
   16.8281   -5.3268  -14.1485 C   0  0  0  0  0  0  0  0  0  0  0  0
   17.4932   -4.7208  -13.2808 O   0  0  0  0  0  0  0  0  0  0  0  0
   18.9679   -7.2847  -14.3189 C   0  0  0  0  0  0  0  0  0  0  0  0
   19.4886   -8.1395  -13.5588 O   0  0  0  0  0  0  0  0  0  0  0  0
   16.3237   -4.5991  -15.2129 O   0  0  0  0  0  0  0  0  0  0  0  0
   25.8257   -8.0167  -16.7140 C   0  0  0  0  0  0  0  0  0  0  0  0
   24.0298   -8.0943  -16.6667 S   0  0  0  0  0  0  0  0  0  0  0  0
   23.2708   -6.9319  -15.5775 C   0  0  0  0  0  0  0  0  0  0  0  0
   21.8138   -6.9302  -15.4203 C   0  0  0  0  0  0  0  0  0  0  0  0
   21.1596   -6.0095  -14.4681 C   0  0  2  0  0  0  0  0  0  0  0  0
   19.6834   -6.1076  -14.5974 N   0  0  0  0  0  0  0  0  0  0  0  0
   21.4970   -4.5861  -14.5450 C   0  0  0  0  0  0  0  0  0  0  0  0
   22.5873   -4.1976  -13.9906 O   0  0  0  0  0  0  0  0  0  0  0  0
   20.7757   -3.5935  -15.1544 O   0  0  0  0  0  0  0  0  0  0  0  0
  2  1  1  0
  2  3  2  0
  4  2  1  0
  5  4  1  0
  5  6  1  6
  7  5  1  0
  7  8  2  0
  9  7  1  0
 10  9  1  0
 10 11  1  1
 12 13  2  0
 12 11  1  0
 14 10  1  0
 14 22  1  0
 15 14  2  0
 16 12  1  0
 18 17  1  0
 19 18  1  0
 20 19  1  0
 21 20  1  6
 21 22  1  0
 21 23  1  0
 23 24  2  0
 23 25  1  0
M  END
$$$$
