NDM.pdb
     RDKit          3D

 25 24  0  0  1  0  0  0  0  0999 V2000
   11.4546  -10.8639  -10.4845 N   0  0  0  0  0  0  0  0  0  0  0  0
   12.7799  -11.3043  -10.2322 C   0  0  0  0  0  0  0  0  0  0  0  0
   13.0607  -12.5155  -10.3655 O   0  0  0  0  0  0  0  0  0  0  0  0
   13.8043  -10.3509   -9.8210 C   0  0  0  0  0  0  0  0  0  0  0  0
   14.8151  -10.1731  -10.9546 C   0  0  2  0  0  0  0  0  0  0  0  0
   15.7270  -11.2927  -10.8527 N   0  0  0  0  0  0  0  0  0  0  0  0
   15.5295   -8.9239  -10.6721 C   0  0  0  0  0  0  0  0  0  0  0  0
   15.9529   -8.6998   -9.5101 O   0  0  0  0  0  0  0  0  0  0  0  0
   15.7780   -7.9229  -11.6653 N   0  0  0  0  0  0  0  0  0  0  0  0
   16.4264   -6.6952  -11.2940 C   0  0  1  0  0  0  0  0  0  0  0  0
   17.1148   -6.0528  -12.5071 C   0  0  0  0  0  0  0  0  0  0  0  0
   18.5196   -6.5011  -12.6064 C   0  0  0  0  0  0  0  0  0  0  0  0
   19.0887   -7.1869  -11.7298 O   0  0  0  0  0  0  0  0  0  0  0  0
   15.4549   -5.7179  -10.6967 C   0  0  0  0  0  0  0  0  0  0  0  0
   14.3355   -5.5610  -11.2462 O   0  0  0  0  0  0  0  0  0  0  0  0
   19.2449   -6.1425  -13.7299 O   0  0  0  0  0  0  0  0  0  0  0  0
   11.9052   -2.8295   -4.4105 C   0  0  0  0  0  0  0  0  0  0  0  0
   12.7650   -4.0800   -5.3750 S   0  0  0  0  0  0  0  0  0  0  0  0
   13.4345   -3.5014   -6.9017 C   0  0  0  0  0  0  0  0  0  0  0  0
   14.2413   -4.4038   -7.7277 C   0  0  0  0  0  0  0  0  0  0  0  0
   14.8345   -3.9352   -8.9969 C   0  0  2  0  0  0  0  0  0  0  0  0
   15.7490   -4.9696   -9.5440 N   0  0  0  0  0  0  0  0  0  0  0  0
   15.5813   -2.6752   -8.9837 C   0  0  0  0  0  0  0  0  0  0  0  0
   16.8612   -2.7361   -9.0577 O   0  0  0  0  0  0  0  0  0  0  0  0
   15.0692   -1.4071   -8.9038 O   0  0  0  0  0  0  0  0  0  0  0  0
  2  1  1  0
  2  3  2  0
  4  2  1  0
  5  4  1  0
  5  6  1  1
  7  5  1  0
  7  8  2  0
  9  7  1  0
 10  9  1  0
 10 11  1  6
 12 13  2  0
 12 11  1  0
 14 10  1  0
 14 22  1  0
 15 14  2  0
 16 12  1  0
 18 17  1  0
 19 18  1  0
 20 19  1  0
 21 20  1  1
 21 22  1  0
 21 23  1  0
 23 24  2  0
 23 25  1  0
M  END
$$$$
