NDM.pdb
     RDKit          3D

 25 24  0  0  1  0  0  0  0  0999 V2000
   15.1547  -15.2341  -13.0167 N   0  0  0  0  0  0  0  0  0  0  0  0
   15.9477  -14.4824  -13.9223 C   0  0  0  0  0  0  0  0  0  0  0  0
   16.0179  -14.8381  -15.1190 O   0  0  0  0  0  0  0  0  0  0  0  0
   16.6736  -13.3050  -13.4593 C   0  0  0  0  0  0  0  0  0  0  0  0
   15.7854  -12.0697  -13.6119 C   0  0  2  0  0  0  0  0  0  0  0  0
   15.6860  -11.8254  -15.0352 N   0  0  0  0  0  0  0  0  0  0  0  0
   16.5063  -10.9666  -12.9682 C   0  0  0  0  0  0  0  0  0  0  0  0
   16.7802  -11.0348  -11.7434 O   0  0  0  0  0  0  0  0  0  0  0  0
   16.9253   -9.7908  -13.6697 N   0  0  0  0  0  0  0  0  0  0  0  0
   17.4731   -8.6813  -12.9388 C   0  0  1  0  0  0  0  0  0  0  0  0
   18.1781   -7.6987  -13.8853 C   0  0  0  0  0  0  0  0  0  0  0  0
   18.8190   -6.6084  -13.1206 C   0  0  0  0  0  0  0  0  0  0  0  0
   18.8687   -6.5778  -11.8720 O   0  0  0  0  0  0  0  0  0  0  0  0
   16.4116   -7.9534  -12.1649 C   0  0  0  0  0  0  0  0  0  0  0  0
   15.4048   -7.5168  -12.7775 O   0  0  0  0  0  0  0  0  0  0  0  0
   19.3950   -5.5643  -13.8242 O   0  0  0  0  0  0  0  0  0  0  0  0
   11.6058   -7.8458   -6.0983 C   0  0  0  0  0  0  0  0  0  0  0  0
   12.9209   -8.5702   -7.0880 S   0  0  0  0  0  0  0  0  0  0  0  0
   13.7142   -7.4472   -8.1940 C   0  0  0  0  0  0  0  0  0  0  0  0
   14.7957   -7.9251   -9.0599 C   0  0  0  0  0  0  0  0  0  0  0  0
   15.4645   -7.0083  -10.0058 C   0  0  2  0  0  0  0  0  0  0  0  0
   16.5000   -7.7406  -10.7785 N   0  0  0  0  0  0  0  0  0  0  0  0
   16.1101   -5.8106   -9.4634 C   0  0  0  0  0  0  0  0  0  0  0  0
   17.3929   -5.7706   -9.4597 O   0  0  0  0  0  0  0  0  0  0  0  0
   15.4981   -4.6978   -8.9496 O   0  0  0  0  0  0  0  0  0  0  0  0
  2  1  1  0
  2  3  2  0
  4  2  1  0
  5  4  1  0
  5  6  1  6
  7  5  1  0
  7  8  2  0
  9  7  1  0
 10  9  1  0
 10 11  1  6
 12 13  2  0
 12 11  1  0
 14 10  1  0
 14 22  1  0
 15 14  2  0
 16 12  1  0
 18 17  1  0
 19 18  1  0
 20 19  1  0
 21 20  1  1
 21 22  1  0
 21 23  1  0
 23 24  2  0
 23 25  1  0
M  END
$$$$
