NDM.pdb
     RDKit          3D

 25 24  0  0  1  0  0  0  0  0999 V2000
   28.3966  -16.4828  -17.1390 N   0  0  0  0  0  0  0  0  0  0  0  0
   28.5142  -17.8843  -16.9492 C   0  0  0  0  0  0  0  0  0  0  0  0
   28.5507  -18.6385  -17.9459 O   0  0  0  0  0  0  0  0  0  0  0  0
   28.5918  -18.4385  -15.6022 C   0  0  0  0  0  0  0  0  0  0  0  0
   27.7959  -19.7430  -15.5445 C   0  0  2  0  0  0  0  0  0  0  0  0
   26.4967  -19.4407  -16.1066 N   0  0  0  0  0  0  0  0  0  0  0  0
   27.6567  -20.0736  -14.1225 C   0  0  0  0  0  0  0  0  0  0  0  0
   28.2657  -21.0682  -13.6537 O   0  0  0  0  0  0  0  0  0  0  0  0
   26.8493  -19.3122  -13.2176 N   0  0  0  0  0  0  0  0  0  0  0  0
   25.6755  -19.9048  -12.6377 C   0  0  1  0  0  0  0  0  0  0  0  0
   25.0180  -20.8865  -13.6185 C   0  0  0  0  0  0  0  0  0  0  0  0
   23.5790  -21.0381  -13.3173 C   0  0  0  0  0  0  0  0  0  0  0  0
   23.1394  -21.7530  -12.3910 O   0  0  0  0  0  0  0  0  0  0  0  0
   25.9950  -20.6195  -11.3560 C   0  0  0  0  0  0  0  0  0  0  0  0
   26.5168  -21.7615  -11.4109 O   0  0  0  0  0  0  0  0  0  0  0  0
   22.6685  -20.3520  -14.1029 O   0  0  0  0  0  0  0  0  0  0  0  0
   29.1015  -19.8500   -4.2302 C   0  0  0  0  0  0  0  0  0  0  0  0
   28.5926  -19.2206   -5.8358 S   0  0  0  0  0  0  0  0  0  0  0  0
   27.4947  -20.2764   -6.7267 C   0  0  0  0  0  0  0  0  0  0  0  0
   27.1044  -19.9272   -8.0953 C   0  0  0  0  0  0  0  0  0  0  0  0
   26.0990  -20.7309   -8.8204 C   0  0  2  0  0  0  0  0  0  0  0  0
   25.7328  -20.0599  -10.0937 N   0  0  0  0  0  0  0  0  0  0  0  0
   24.8446  -21.0468   -8.1332 C   0  0  0  0  0  0  0  0  0  0  0  0
   23.7733  -20.4743   -8.5476 O   0  0  0  0  0  0  0  0  0  0  0  0
   24.6685  -21.9026   -7.0780 O   0  0  0  0  0  0  0  0  0  0  0  0
  2  1  1  0
  2  3  2  0
  4  2  1  0
  5  4  1  0
  5  6  1  1
  7  5  1  0
  7  8  2  0
  9  7  1  0
 10  9  1  0
 10 11  1  6
 12 13  2  0
 12 11  1  0
 14 10  1  0
 14 22  1  0
 15 14  2  0
 16 12  1  0
 18 17  1  0
 19 18  1  0
 20 19  1  0
 21 20  1  1
 21 22  1  0
 21 23  1  0
 23 24  2  0
 23 25  1  0
M  END
$$$$
