NDM.pdb
     RDKit          3D

 25 24  0  0  1  0  0  0  0  0999 V2000
   14.6377   -5.8742   -9.1642 N   0  0  0  0  0  0  0  0  0  0  0  0
   16.0434   -5.9021   -8.9709 C   0  0  0  0  0  0  0  0  0  0  0  0
   16.5821   -5.0327   -8.2516 O   0  0  0  0  0  0  0  0  0  0  0  0
   16.8512   -6.9368   -9.6067 C   0  0  0  0  0  0  0  0  0  0  0  0
   15.9410   -7.8711  -10.4048 C   0  0  2  0  0  0  0  0  0  0  0  0
   15.7421   -9.0385   -9.5723 N   0  0  0  0  0  0  0  0  0  0  0  0
   16.6919   -8.2423  -11.6086 C   0  0  0  0  0  0  0  0  0  0  0  0
   16.9075   -9.4555  -11.8566 O   0  0  0  0  0  0  0  0  0  0  0  0
   17.2050   -7.2815  -12.5380 N   0  0  0  0  0  0  0  0  0  0  0  0
   17.7800   -7.7251  -13.7782 C   0  0  1  0  0  0  0  0  0  0  0  0
   17.1366   -6.9994  -14.9688 C   0  0  0  0  0  0  0  0  0  0  0  0
   17.6498   -7.5380  -16.2459 C   0  0  0  0  0  0  0  0  0  0  0  0
   17.8413   -8.7555  -16.4541 O   0  0  0  0  0  0  0  0  0  0  0  0
   19.2658   -7.5077  -13.8055 C   0  0  0  0  0  0  0  0  0  0  0  0
   19.7356   -6.4581  -13.2983 O   0  0  0  0  0  0  0  0  0  0  0  0
   17.9343   -6.6468  -17.2666 O   0  0  0  0  0  0  0  0  0  0  0  0
   26.2879  -11.1848  -15.1816 C   0  0  0  0  0  0  0  0  0  0  0  0
   24.5059  -11.1032  -15.4085 S   0  0  0  0  0  0  0  0  0  0  0  0
   23.7452   -9.6533  -14.7506 C   0  0  0  0  0  0  0  0  0  0  0  0
   22.2861   -9.5215  -14.7841 C   0  0  0  0  0  0  0  0  0  0  0  0
   21.6303   -8.2841  -14.3136 C   0  0  2  0  0  0  0  0  0  0  0  0
   20.1542   -8.4343  -14.3776 N   0  0  0  0  0  0  0  0  0  0  0  0
   21.9575   -7.0297  -14.9955 C   0  0  0  0  0  0  0  0  0  0  0  0
   21.3759   -6.7856  -16.1132 O   0  0  0  0  0  0  0  0  0  0  0  0
   22.8271   -6.0583  -14.5751 O   0  0  0  0  0  0  0  0  0  0  0  0
  2  1  1  0
  2  3  2  0
  4  2  1  0
  5  4  1  0
  5  6  1  1
  7  5  1  0
  7  8  2  0
  9  7  1  0
 10  9  1  0
 10 11  1  6
 12 13  2  0
 12 11  1  0
 14 10  1  0
 14 22  1  0
 15 14  2  0
 16 12  1  0
 18 17  1  0
 19 18  1  0
 20 19  1  0
 21 20  1  6
 21 22  1  0
 21 23  1  0
 23 24  2  0
 23 25  1  0
M  END
$$$$
