NDM.pdb
     RDKit          3D

 25 24  0  0  1  0  0  0  0  0999 V2000
   31.6815  -23.3663  -13.3972 N   0  0  0  0  0  0  0  0  0  0  0  0
   30.7654  -22.8966  -14.3741 C   0  0  0  0  0  0  0  0  0  0  0  0
   30.6668  -23.5004  -15.4646 O   0  0  0  0  0  0  0  0  0  0  0  0
   29.9467  -21.7195  -14.1065 C   0  0  0  0  0  0  0  0  0  0  0  0
   29.1494  -21.3611  -15.3612 C   0  0  2  0  0  0  0  0  0  0  0  0
   30.0053  -20.4920  -16.1407 N   0  0  0  0  0  0  0  0  0  0  0  0
   27.9742  -20.6155  -14.8989 C   0  0  0  0  0  0  0  0  0  0  0  0
   28.1062  -19.4280  -14.5085 O   0  0  0  0  0  0  0  0  0  0  0  0
   26.6563  -21.1743  -14.8656 N   0  0  0  0  0  0  0  0  0  0  0  0
   25.5670  -20.4016  -14.3350 C   0  0  1  0  0  0  0  0  0  0  0  0
   24.4430  -20.2587  -15.3715 C   0  0  0  0  0  0  0  0  0  0  0  0
   23.2964  -19.5233  -14.7982 C   0  0  0  0  0  0  0  0  0  0  0  0
   23.3568  -18.3308  -14.4282 O   0  0  0  0  0  0  0  0  0  0  0  0
   25.0140  -21.0172  -13.0816 C   0  0  0  0  0  0  0  0  0  0  0  0
   24.6201  -22.2103  -13.1134 O   0  0  0  0  0  0  0  0  0  0  0  0
   22.0907  -20.1902  -14.6630 O   0  0  0  0  0  0  0  0  0  0  0  0
   27.3914  -18.6845   -7.6708 C   0  0  0  0  0  0  0  0  0  0  0  0
   27.3366  -20.4811   -7.7238 S   0  0  0  0  0  0  0  0  0  0  0  0
   26.3486  -21.1498   -9.0241 C   0  0  0  0  0  0  0  0  0  0  0  0
   25.1428  -20.4386   -9.4573 C   0  0  0  0  0  0  0  0  0  0  0  0
   24.3710  -20.9069  -10.6267 C   0  0  2  0  0  0  0  0  0  0  0  0
   24.9194  -20.3097  -11.8710 N   0  0  0  0  0  0  0  0  0  0  0  0
   22.9269  -20.6621  -10.6412 C   0  0  0  0  0  0  0  0  0  0  0  0
   22.5062  -19.5905  -11.2085 O   0  0  0  0  0  0  0  0  0  0  0  0
   21.9444  -21.4577  -10.1136 O   0  0  0  0  0  0  0  0  0  0  0  0
  2  1  1  0
  2  3  2  0
  4  2  1  0
  5  4  1  0
  5  6  1  6
  7  5  1  0
  7  8  2  0
  9  7  1  0
 10  9  1  0
 10 11  1  6
 12 13  2  0
 12 11  1  0
 14 10  1  0
 14 22  1  0
 15 14  2  0
 16 12  1  0
 18 17  1  0
 19 18  1  0
 20 19  1  0
 21 20  1  1
 21 22  1  0
 21 23  1  0
 23 24  2  0
 23 25  1  0
M  END
$$$$
