NDM.pdb
     RDKit          3D

 25 24  0  0  1  0  0  0  0  0999 V2000
   11.8196  -11.9436  -13.0667 N   0  0  0  0  0  0  0  0  0  0  0  0
   12.9710  -12.7473  -13.2724 C   0  0  0  0  0  0  0  0  0  0  0  0
   12.9263  -13.6847  -14.0989 O   0  0  0  0  0  0  0  0  0  0  0  0
   14.1950  -12.4808  -12.5254 C   0  0  0  0  0  0  0  0  0  0  0  0
   15.3211  -12.1413  -13.5027 C   0  0  2  0  0  0  0  0  0  0  0  0
   16.1692  -13.3134  -13.5539 N   0  0  0  0  0  0  0  0  0  0  0  0
   16.0568  -11.0223  -12.9048 C   0  0  0  0  0  0  0  0  0  0  0  0
   16.7927  -11.2257  -11.9063 O   0  0  0  0  0  0  0  0  0  0  0  0
   15.9836   -9.6822  -13.4037 N   0  0  0  0  0  0  0  0  0  0  0  0
   16.6824   -8.6279  -12.7214 C   0  0  1  0  0  0  0  0  0  0  0  0
   17.3421   -7.6713  -13.7253 C   0  0  0  0  0  0  0  0  0  0  0  0
   18.0610   -6.5902  -13.0191 C   0  0  0  0  0  0  0  0  0  0  0  0
   18.8353   -6.7894  -12.0582 O   0  0  0  0  0  0  0  0  0  0  0  0
   15.7646   -7.8509  -11.8216 C   0  0  0  0  0  0  0  0  0  0  0  0
   14.6327   -7.5149  -12.2522 O   0  0  0  0  0  0  0  0  0  0  0  0
   17.8667   -5.2868  -13.4436 O   0  0  0  0  0  0  0  0  0  0  0  0
   11.6621   -7.3311   -5.4207 C   0  0  0  0  0  0  0  0  0  0  0  0
   12.8082   -8.1321   -6.5513 S   0  0  0  0  0  0  0  0  0  0  0  0
   13.6345   -7.0370   -7.6611 C   0  0  0  0  0  0  0  0  0  0  0  0
   14.5928   -7.5746   -8.6307 C   0  0  0  0  0  0  0  0  0  0  0  0
   15.2352   -6.6906   -9.6249 C   0  0  2  0  0  0  0  0  0  0  0  0
   16.1227   -7.4837  -10.5131 N   0  0  0  0  0  0  0  0  0  0  0  0
   16.0292   -5.5629   -9.1317 C   0  0  0  0  0  0  0  0  0  0  0  0
   17.3063   -5.6893   -9.1184 O   0  0  0  0  0  0  0  0  0  0  0  0
   15.5654   -4.3576   -8.6745 O   0  0  0  0  0  0  0  0  0  0  0  0
  2  1  1  0
  2  3  2  0
  4  2  1  0
  5  4  1  0
  5  6  1  1
  7  5  1  0
  7  8  2  0
  9  7  1  0
 10  9  1  0
 10 11  1  6
 12 13  2  0
 12 11  1  0
 14 10  1  0
 14 22  1  0
 15 14  2  0
 16 12  1  0
 18 17  1  0
 19 18  1  0
 20 19  1  0
 21 20  1  1
 21 22  1  0
 21 23  1  0
 23 24  2  0
 23 25  1  0
M  END
$$$$
