NDM.pdb
     RDKit          3D

 25 24  0  0  1  0  0  0  0  0999 V2000
   18.4457  -15.5721  -16.1199 N   0  0  0  0  0  0  0  0  0  0  0  0
   18.6215  -15.0847  -17.4411 C   0  0  0  0  0  0  0  0  0  0  0  0
   18.3015  -15.8071  -18.4103 O   0  0  0  0  0  0  0  0  0  0  0  0
   19.1708  -13.7521  -17.6647 C   0  0  0  0  0  0  0  0  0  0  0  0
   19.5008  -13.1077  -16.3177 C   0  0  2  0  0  0  0  0  0  0  0  0
   18.2820  -13.1687  -15.5391 N   0  0  0  0  0  0  0  0  0  0  0  0
   19.8362  -11.7093  -16.6056 C   0  0  0  0  0  0  0  0  0  0  0  0
   20.8671  -11.4428  -17.2736 O   0  0  0  0  0  0  0  0  0  0  0  0
   19.0399  -10.6059  -16.1599 N   0  0  0  0  0  0  0  0  0  0  0  0
   19.4611   -9.2615  -16.4438 C   0  0  1  0  0  0  0  0  0  0  0  0
   18.4346   -8.2459  -15.9211 C   0  0  0  0  0  0  0  0  0  0  0  0
   17.1647   -8.3575  -16.6689 C   0  0  0  0  0  0  0  0  0  0  0  0
   16.1131   -8.8216  -16.1777 O   0  0  0  0  0  0  0  0  0  0  0  0
   20.8051   -8.9666  -15.8421 C   0  0  0  0  0  0  0  0  0  0  0  0
   20.9847   -9.1885  -14.6181 O   0  0  0  0  0  0  0  0  0  0  0  0
   17.1375   -7.9254  -17.9840 O   0  0  0  0  0  0  0  0  0  0  0  0
   27.9637  -10.9526  -15.0120 C   0  0  0  0  0  0  0  0  0  0  0  0
   26.2493  -11.0704  -15.5416 S   0  0  0  0  0  0  0  0  0  0  0  0
   25.3918   -9.5297  -15.6094 C   0  0  0  0  0  0  0  0  0  0  0  0
   23.9891   -9.4988  -16.0328 C   0  0  0  0  0  0  0  0  0  0  0  0
   23.2293   -8.2319  -16.0313 C   0  0  2  0  0  0  0  0  0  0  0  0
   21.8732   -8.4509  -16.5959 N   0  0  0  0  0  0  0  0  0  0  0  0
   23.8020   -7.0850  -16.7399 C   0  0  0  0  0  0  0  0  0  0  0  0
   24.5436   -6.2775  -16.0727 O   0  0  0  0  0  0  0  0  0  0  0  0
   23.6429   -6.7616  -18.0616 O   0  0  0  0  0  0  0  0  0  0  0  0
  2  1  1  0
  2  3  2  0
  4  2  1  0
  5  4  1  0
  5  6  1  1
  7  5  1  0
  7  8  2  0
  9  7  1  0
 10  9  1  0
 10 11  1  1
 12 13  2  0
 12 11  1  0
 14 10  1  0
 14 22  1  0
 15 14  2  0
 16 12  1  0
 18 17  1  0
 19 18  1  0
 20 19  1  0
 21 20  1  6
 21 22  1  0
 21 23  1  0
 23 24  2  0
 23 25  1  0
M  END
$$$$
