NDM.pdb
     RDKit          3D

 25 24  0  0  1  0  0  0  0  0999 V2000
   24.5715  -10.1494  -15.4154 N   0  0  0  0  0  0  0  0  0  0  0  0
   23.7272  -10.3811  -16.5323 C   0  0  0  0  0  0  0  0  0  0  0  0
   23.8957  -11.4066  -17.2277 O   0  0  0  0  0  0  0  0  0  0  0  0
   22.6723   -9.4301  -16.8646 C   0  0  0  0  0  0  0  0  0  0  0  0
   22.7014   -8.2720  -15.8665 C   0  0  2  0  0  0  0  0  0  0  0  0
   22.3118   -8.8365  -14.5918 N   0  0  0  0  0  0  0  0  0  0  0  0
   21.6835   -7.3179  -16.3186 C   0  0  0  0  0  0  0  0  0  0  0  0
   21.8165   -6.7487  -17.4313 O   0  0  0  0  0  0  0  0  0  0  0  0
   20.5215   -6.9902  -15.5488 N   0  0  0  0  0  0  0  0  0  0  0  0
   19.5631   -6.0533  -16.0675 C   0  0  1  0  0  0  0  0  0  0  0  0
   18.1919   -6.2518  -15.4053 C   0  0  0  0  0  0  0  0  0  0  0  0
   17.6731   -7.6084  -15.6792 C   0  0  0  0  0  0  0  0  0  0  0  0
   17.5004   -8.0617  -16.8312 O   0  0  0  0  0  0  0  0  0  0  0  0
   20.0138   -4.6350  -15.8650 C   0  0  0  0  0  0  0  0  0  0  0  0
   20.6000   -4.3306  -14.7957 O   0  0  0  0  0  0  0  0  0  0  0  0
   17.3611   -8.4211  -14.6026 O   0  0  0  0  0  0  0  0  0  0  0  0
   23.9567   -0.4039  -20.4174 C   0  0  0  0  0  0  0  0  0  0  0  0
   22.2223   -0.6035  -19.9866 S   0  0  0  0  0  0  0  0  0  0  0  0
   21.9353   -1.3265  -18.4027 C   0  0  0  0  0  0  0  0  0  0  0  0
   20.5655   -1.6391  -17.9861 C   0  0  0  0  0  0  0  0  0  0  0  0
   20.2989   -2.2406  -16.6634 C   0  0  2  0  0  0  0  0  0  0  0  0
   19.8054   -3.6317  -16.8268 N   0  0  0  0  0  0  0  0  0  0  0  0
   19.3547   -1.5588  -15.7751 C   0  0  0  0  0  0  0  0  0  0  0  0
   18.1649   -2.0319  -15.6881 O   0  0  0  0  0  0  0  0  0  0  0  0
   19.5919   -0.4522  -15.0030 O   0  0  0  0  0  0  0  0  0  0  0  0
  2  1  1  0
  2  3  2  0
  4  2  1  0
  5  4  1  0
  5  6  1  1
  7  5  1  0
  7  8  2  0
  9  7  1  0
 10  9  1  0
 10 11  1  1
 12 13  2  0
 12 11  1  0
 14 10  1  0
 14 22  1  0
 15 14  2  0
 16 12  1  0
 18 17  1  0
 19 18  1  0
 20 19  1  0
 21 20  1  6
 21 22  1  0
 21 23  1  0
 23 24  2  0
 23 25  1  0
M  END
$$$$
