NDM.pdb
     RDKit          3D

 25 24  0  0  1  0  0  0  0  0999 V2000
   22.5794  -11.9954  -15.0463 N   0  0  0  0  0  0  0  0  0  0  0  0
   23.4043  -10.8407  -15.0614 C   0  0  0  0  0  0  0  0  0  0  0  0
   24.5348  -10.8863  -14.5291 O   0  0  0  0  0  0  0  0  0  0  0  0
   22.9359   -9.6123  -15.6931 C   0  0  0  0  0  0  0  0  0  0  0  0
   21.4583   -9.7617  -16.0575 C   0  0  2  0  0  0  0  0  0  0  0  0
   21.4219  -10.6145  -17.2266 N   0  0  0  0  0  0  0  0  0  0  0  0
   20.9867   -8.4181  -16.4085 C   0  0  0  0  0  0  0  0  0  0  0  0
   20.4452   -8.2223  -17.5258 O   0  0  0  0  0  0  0  0  0  0  0  0
   21.1102   -7.2919  -15.5330 N   0  0  0  0  0  0  0  0  0  0  0  0
   20.5615   -6.0220  -15.9224 C   0  0  1  0  0  0  0  0  0  0  0  0
   19.8619   -5.3426  -14.7362 C   0  0  0  0  0  0  0  0  0  0  0  0
   18.4339   -5.7206  -14.6881 C   0  0  0  0  0  0  0  0  0  0  0  0
   17.8359   -6.2800  -15.6325 O   0  0  0  0  0  0  0  0  0  0  0  0
   21.6214   -5.1075  -16.4665 C   0  0  0  0  0  0  0  0  0  0  0  0
   22.7452   -5.0778  -15.9046 O   0  0  0  0  0  0  0  0  0  0  0  0
   17.7195   -5.4402  -13.5357 O   0  0  0  0  0  0  0  0  0  0  0  0
   23.8683   -0.9752  -22.9553 C   0  0  0  0  0  0  0  0  0  0  0  0
   22.7444   -2.1029  -22.1195 S   0  0  0  0  0  0  0  0  0  0  0  0
   23.0621   -2.3173  -20.3970 C   0  0  0  0  0  0  0  0  0  0  0  0
   22.1918   -3.1885  -19.6025 C   0  0  0  0  0  0  0  0  0  0  0  0
   22.4658   -3.4229  -18.1698 C   0  0  2  0  0  0  0  0  0  0  0  0
   21.4054   -4.2810  -17.5825 N   0  0  0  0  0  0  0  0  0  0  0  0
   22.5981   -2.2559  -17.2945 C   0  0  0  0  0  0  0  0  0  0  0  0
   23.7632   -1.7338  -17.1636 O   0  0  0  0  0  0  0  0  0  0  0  0
   21.6058   -1.6347  -16.5830 O   0  0  0  0  0  0  0  0  0  0  0  0
  2  1  1  0
  2  3  2  0
  4  2  1  0
  5  4  1  0
  5  6  1  6
  7  5  1  0
  7  8  2  0
  9  7  1  0
 10  9  1  0
 10 11  1  1
 12 13  2  0
 12 11  1  0
 14 10  1  0
 14 22  1  0
 15 14  2  0
 16 12  1  0
 18 17  1  0
 19 18  1  0
 20 19  1  0
 21 20  1  6
 21 22  1  0
 21 23  1  0
 23 24  2  0
 23 25  1  0
M  END
$$$$
