NDM.pdb
     RDKit          3D

 25 24  0  0  1  0  0  0  0  0999 V2000
   22.2902  -12.9567  -19.9196 N   0  0  0  0  0  0  0  0  0  0  0  0
   21.2817  -12.7967  -18.9341 C   0  0  0  0  0  0  0  0  0  0  0  0
   20.5425  -13.7640  -18.6487 O   0  0  0  0  0  0  0  0  0  0  0  0
   21.1104  -11.5142  -18.2608 C   0  0  0  0  0  0  0  0  0  0  0  0
   22.0973  -10.5010  -18.8423 C   0  0  2  0  0  0  0  0  0  0  0  0
   23.3582  -10.7472  -18.1753 N   0  0  0  0  0  0  0  0  0  0  0  0
   21.5893   -9.1766  -18.4699 C   0  0  0  0  0  0  0  0  0  0  0  0
   20.6906   -8.6384  -19.1646 O   0  0  0  0  0  0  0  0  0  0  0  0
   22.0685   -8.4451  -17.3362 N   0  0  0  0  0  0  0  0  0  0  0  0
   21.5831   -7.1154  -17.0880 C   0  0  1  0  0  0  0  0  0  0  0  0
   21.9238   -6.6675  -15.6592 C   0  0  0  0  0  0  0  0  0  0  0  0
   21.0415   -7.3358  -14.6798 C   0  0  0  0  0  0  0  0  0  0  0  0
   20.0075   -7.9623  -14.9974 O   0  0  0  0  0  0  0  0  0  0  0  0
   22.1513   -6.1296  -18.0683 C   0  0  0  0  0  0  0  0  0  0  0  0
   23.1529   -6.4607  -18.7515 O   0  0  0  0  0  0  0  0  0  0  0  0
   21.3773   -7.2644  -13.3385 O   0  0  0  0  0  0  0  0  0  0  0  0
   24.7971   -5.6420  -22.9925 C   0  0  0  0  0  0  0  0  0  0  0  0
   23.3355   -4.6079  -23.1595 S   0  0  0  0  0  0  0  0  0  0  0  0
   22.8549   -3.7681  -21.6838 C   0  0  0  0  0  0  0  0  0  0  0  0
   22.4482   -4.5431  -20.5084 C   0  0  0  0  0  0  0  0  0  0  0  0
   22.1514   -3.8695  -19.2276 C   0  0  2  0  0  0  0  0  0  0  0  0
   21.6056   -4.8476  -18.2524 N   0  0  0  0  0  0  0  0  0  0  0  0
   21.2291   -2.7316  -19.2459 C   0  0  0  0  0  0  0  0  0  0  0  0
   21.5535   -1.7083  -19.9493 O   0  0  0  0  0  0  0  0  0  0  0  0
   20.0306   -2.6234  -18.5912 O   0  0  0  0  0  0  0  0  0  0  0  0
  2  1  1  0
  2  3  2  0
  4  2  1  0
  5  4  1  0
  5  6  1  1
  7  5  1  0
  7  8  2  0
  9  7  1  0
 10  9  1  0
 10 11  1  1
 12 13  2  0
 12 11  1  0
 14 10  1  0
 14 22  1  0
 15 14  2  0
 16 12  1  0
 18 17  1  0
 19 18  1  0
 20 19  1  0
 21 20  1  6
 21 22  1  0
 21 23  1  0
 23 24  2  0
 23 25  1  0
M  END
$$$$
