NDM.pdb
     RDKit          3D

 25 24  0  0  1  0  0  0  0  0999 V2000
   24.8123  -24.4641  -13.6265 N   0  0  0  0  0  0  0  0  0  0  0  0
   24.4158  -25.2920  -14.7088 C   0  0  0  0  0  0  0  0  0  0  0  0
   25.2540  -26.0534  -15.2392 O   0  0  0  0  0  0  0  0  0  0  0  0
   23.0418  -25.2539  -15.1969 C   0  0  0  0  0  0  0  0  0  0  0  0
   23.0160  -24.6213  -16.5888 C   0  0  2  0  0  0  0  0  0  0  0  0
   24.3635  -24.1546  -16.8379 N   0  0  0  0  0  0  0  0  0  0  0  0
   22.1031  -23.4770  -16.5002 C   0  0  0  0  0  0  0  0  0  0  0  0
   21.8402  -22.8108  -17.5332 O   0  0  0  0  0  0  0  0  0  0  0  0
   21.4803  -23.0657  -15.2782 N   0  0  0  0  0  0  0  0  0  0  0  0
   20.6028  -21.9275  -15.2727 C   0  0  1  0  0  0  0  0  0  0  0  0
   19.4299  -22.1472  -14.3061 C   0  0  0  0  0  0  0  0  0  0  0  0
   19.9247  -22.4144  -12.9393 C   0  0  0  0  0  0  0  0  0  0  0  0
   21.1311  -22.3539  -12.6180 O   0  0  0  0  0  0  0  0  0  0  0  0
   21.3327  -20.6710  -14.8934 C   0  0  0  0  0  0  0  0  0  0  0  0
   20.8947  -19.9778  -13.9409 O   0  0  0  0  0  0  0  0  0  0  0  0
   19.0032  -22.7502  -11.9620 O   0  0  0  0  0  0  0  0  0  0  0  0
   24.7938  -20.2427   -9.7623 C   0  0  0  0  0  0  0  0  0  0  0  0
   25.3368  -21.0427  -11.2784 S   0  0  0  0  0  0  0  0  0  0  0  0
   25.0541  -20.1065  -12.7472 C   0  0  0  0  0  0  0  0  0  0  0  0
   23.9485  -20.4708  -13.6375 C   0  0  0  0  0  0  0  0  0  0  0  0
   23.6733  -19.6848  -14.8577 C   0  0  2  0  0  0  0  0  0  0  0  0
   22.4897  -20.2382  -15.5637 N   0  0  0  0  0  0  0  0  0  0  0  0
   24.7407  -19.5633  -15.8534 C   0  0  0  0  0  0  0  0  0  0  0  0
   24.7261  -20.3722  -16.8497 O   0  0  0  0  0  0  0  0  0  0  0  0
   25.7773  -18.6676  -15.8546 O   0  0  0  0  0  0  0  0  0  0  0  0
  2  1  1  0
  2  3  2  0
  4  2  1  0
  5  4  1  0
  5  6  1  1
  7  5  1  0
  7  8  2  0
  9  7  1  0
 10  9  1  0
 10 11  1  1
 12 13  2  0
 12 11  1  0
 14 10  1  0
 14 22  1  0
 15 14  2  0
 16 12  1  0
 18 17  1  0
 19 18  1  0
 20 19  1  0
 21 20  1  1
 21 22  1  0
 21 23  1  0
 23 24  2  0
 23 25  1  0
M  END
$$$$
