NDM.pdb
     RDKit          3D

 25 24  0  0  1  0  0  0  0  0999 V2000
   19.1381  -15.1973  -15.5676 N   0  0  0  0  0  0  0  0  0  0  0  0
   18.3465  -14.0360  -15.7644 C   0  0  0  0  0  0  0  0  0  0  0  0
   17.1005  -14.1388  -15.7899 O   0  0  0  0  0  0  0  0  0  0  0  0
   18.9825  -12.7345  -15.9350 C   0  0  0  0  0  0  0  0  0  0  0  0
   18.2083  -11.9249  -16.9760 C   0  0  2  0  0  0  0  0  0  0  0  0
   18.6010  -12.4557  -18.2641 N   0  0  0  0  0  0  0  0  0  0  0  0
   18.6754  -10.5408  -16.8463 C   0  0  0  0  0  0  0  0  0  0  0  0
   19.6898  -10.1652  -17.4864 O   0  0  0  0  0  0  0  0  0  0  0  0
   18.0285   -9.5713  -16.0145 N   0  0  0  0  0  0  0  0  0  0  0  0
   18.4934   -8.2114  -16.0100 C   0  0  1  0  0  0  0  0  0  0  0  0
   17.4104   -7.2660  -15.4701 C   0  0  0  0  0  0  0  0  0  0  0  0
   17.8754   -5.8638  -15.5120 C   0  0  0  0  0  0  0  0  0  0  0  0
   18.6571   -5.4217  -16.3814 O   0  0  0  0  0  0  0  0  0  0  0  0
   19.7423   -8.0589  -15.1899 C   0  0  0  0  0  0  0  0  0  0  0  0
   19.9941   -8.9120  -14.3020 O   0  0  0  0  0  0  0  0  0  0  0  0
   17.4216   -4.9927  -14.5362 O   0  0  0  0  0  0  0  0  0  0  0  0
   26.5383   -9.8794  -14.6612 C   0  0  0  0  0  0  0  0  0  0  0  0
   24.7816   -9.7293  -15.0143 S   0  0  0  0  0  0  0  0  0  0  0  0
   24.2756   -8.1325  -15.5695 C   0  0  0  0  0  0  0  0  0  0  0  0
   22.8586   -7.8743  -15.8394 C   0  0  0  0  0  0  0  0  0  0  0  0
   22.0552   -7.0443  -14.9186 C   0  0  2  0  0  0  0  0  0  0  0  0
   20.6433   -6.9965  -15.3767 N   0  0  0  0  0  0  0  0  0  0  0  0
   22.4748   -5.6585  -14.6974 C   0  0  0  0  0  0  0  0  0  0  0  0
   22.0436   -4.7644  -15.5109 O   0  0  0  0  0  0  0  0  0  0  0  0
   23.2887   -5.1861  -13.7018 O   0  0  0  0  0  0  0  0  0  0  0  0
  2  1  1  0
  2  3  2  0
  4  2  1  0
  5  4  1  0
  5  6  1  6
  7  5  1  0
  7  8  2  0
  9  7  1  0
 10  9  1  0
 10 11  1  1
 12 13  2  0
 12 11  1  0
 14 10  1  0
 14 22  1  0
 15 14  2  0
 16 12  1  0
 18 17  1  0
 19 18  1  0
 20 19  1  0
 21 20  1  6
 21 22  1  0
 21 23  1  0
 23 24  2  0
 23 25  1  0
M  END
$$$$
