NDM.pdb
     RDKit          3D

 25 24  0  0  1  0  0  0  0  0999 V2000
   17.1921  -13.8340  -13.5641 N   0  0  0  0  0  0  0  0  0  0  0  0
   16.6044  -13.0770  -14.6107 C   0  0  0  0  0  0  0  0  0  0  0  0
   15.4317  -13.3265  -14.9659 O   0  0  0  0  0  0  0  0  0  0  0  0
   17.3632  -12.0172  -15.2653 C   0  0  0  0  0  0  0  0  0  0  0  0
   16.4013  -10.9346  -15.7565 C   0  0  2  0  0  0  0  0  0  0  0  0
   15.9423  -11.3720  -17.0578 N   0  0  0  0  0  0  0  0  0  0  0  0
   17.1997   -9.7125  -15.8970 C   0  0  0  0  0  0  0  0  0  0  0  0
   18.1940   -9.7053  -16.6659 O   0  0  0  0  0  0  0  0  0  0  0  0
   16.9057   -8.5006  -15.1934 N   0  0  0  0  0  0  0  0  0  0  0  0
   17.7407   -7.3461  -15.3814 C   0  0  1  0  0  0  0  0  0  0  0  0
   16.9920   -6.0621  -14.9954 C   0  0  0  0  0  0  0  0  0  0  0  0
   17.8393   -4.8744  -15.2315 C   0  0  0  0  0  0  0  0  0  0  0  0
   18.2212   -4.1072  -14.3215 O   0  0  0  0  0  0  0  0  0  0  0  0
   19.0066   -7.4453  -14.5795 C   0  0  0  0  0  0  0  0  0  0  0  0
   18.9481   -7.8859  -13.4038 O   0  0  0  0  0  0  0  0  0  0  0  0
   18.2313   -4.5958  -16.5298 O   0  0  0  0  0  0  0  0  0  0  0  0
   26.3703   -9.9385  -14.6230 C   0  0  0  0  0  0  0  0  0  0  0  0
   24.7568   -9.6682  -15.3693 S   0  0  0  0  0  0  0  0  0  0  0  0
   23.7261   -8.5278  -14.5027 C   0  0  0  0  0  0  0  0  0  0  0  0
   22.3852   -8.2301  -15.0133 C   0  0  0  0  0  0  0  0  0  0  0  0
   21.5266   -7.2340  -14.3403 C   0  0  2  0  0  0  0  0  0  0  0  0
   20.2578   -7.0637  -15.0932 N   0  0  0  0  0  0  0  0  0  0  0  0
   22.0712   -5.8921  -14.1210 C   0  0  0  0  0  0  0  0  0  0  0  0
   21.7588   -4.9736  -14.9612 O   0  0  0  0  0  0  0  0  0  0  0  0
   22.8910   -5.4848  -13.1017 O   0  0  0  0  0  0  0  0  0  0  0  0
  2  1  1  0
  2  3  2  0
  4  2  1  0
  5  4  1  0
  5  6  1  6
  7  5  1  0
  7  8  2  0
  9  7  1  0
 10  9  1  0
 10 11  1  1
 12 13  2  0
 12 11  1  0
 14 10  1  0
 14 22  1  0
 15 14  2  0
 16 12  1  0
 18 17  1  0
 19 18  1  0
 20 19  1  0
 21 20  1  6
 21 22  1  0
 21 23  1  0
 23 24  2  0
 23 25  1  0
M  END
$$$$
