NDM.pdb
     RDKit          3D

 25 24  0  0  1  0  0  0  0  0999 V2000
   22.1291  -11.9190  -16.5702 N   0  0  0  0  0  0  0  0  0  0  0  0
   21.0275  -11.0756  -16.2716 C   0  0  0  0  0  0  0  0  0  0  0  0
   19.9817  -11.1669  -16.9510 O   0  0  0  0  0  0  0  0  0  0  0  0
   21.1162  -10.1111  -15.1810 C   0  0  0  0  0  0  0  0  0  0  0  0
   21.1599   -8.6959  -15.7586 C   0  0  2  0  0  0  0  0  0  0  0  0
   22.5146   -8.2269  -15.5581 N   0  0  0  0  0  0  0  0  0  0  0  0
   20.2333   -7.8964  -14.9504 C   0  0  0  0  0  0  0  0  0  0  0  0
   20.4966   -7.6741  -13.7416 O   0  0  0  0  0  0  0  0  0  0  0  0
   19.0195   -7.3426  -15.4700 N   0  0  0  0  0  0  0  0  0  0  0  0
   18.1576   -6.5798  -14.6094 C   0  0  1  0  0  0  0  0  0  0  0  0
   17.3813   -5.5244  -15.4104 C   0  0  0  0  0  0  0  0  0  0  0  0
   16.5522   -4.6945  -14.5114 C   0  0  0  0  0  0  0  0  0  0  0  0
   16.5166   -4.8447  -13.2710 O   0  0  0  0  0  0  0  0  0  0  0  0
   17.1880   -7.4631  -13.8777 C   0  0  0  0  0  0  0  0  0  0  0  0
   16.6425   -8.4107  -14.4974 O   0  0  0  0  0  0  0  0  0  0  0  0
   15.7726   -3.6973  -15.0725 O   0  0  0  0  0  0  0  0  0  0  0  0
   14.6496  -12.6852   -9.5426 C   0  0  0  0  0  0  0  0  0  0  0  0
   15.6501  -11.6472  -10.6174 S   0  0  0  0  0  0  0  0  0  0  0  0
   15.8691   -9.9918  -10.0470 C   0  0  0  0  0  0  0  0  0  0  0  0
   16.6075   -9.0323  -10.8728 C   0  0  0  0  0  0  0  0  0  0  0  0
   15.8934   -8.1258  -11.7951 C   0  0  2  0  0  0  0  0  0  0  0  0
   16.8655   -7.2712  -12.5233 N   0  0  0  0  0  0  0  0  0  0  0  0
   14.8810   -7.2291  -11.2324 C   0  0  0  0  0  0  0  0  0  0  0  0
   15.2548   -6.0567  -10.8677 O   0  0  0  0  0  0  0  0  0  0  0  0
   13.5497   -7.4927  -11.0459 O   0  0  0  0  0  0  0  0  0  0  0  0
  2  1  1  0
  2  3  2  0
  4  2  1  0
  5  4  1  0
  5  6  1  1
  7  5  1  0
  7  8  2  0
  9  7  1  0
 10  9  1  0
 10 11  1  6
 12 13  2  0
 12 11  1  0
 14 10  1  0
 14 22  1  0
 15 14  2  0
 16 12  1  0
 18 17  1  0
 19 18  1  0
 20 19  1  0
 21 20  1  1
 21 22  1  0
 21 23  1  0
 23 24  2  0
 23 25  1  0
M  END
$$$$
