LPG.pdb
     RDKit          3D

 20 20  0  0  1  0  0  0  0  0999 V2000
    5.8890  -12.6878   26.2226 C   0  0  0  0  0  0  0  0  0  0  0  0
    7.2139  -13.4561   26.2564 C   0  0  1  0  0  0  0  0  0  0  0  0
    8.2234  -12.7596   27.1451 C   0  0  0  0  0  0  0  0  0  0  0  0
    6.9520  -14.8519   26.7710 C   0  0  0  0  0  0  0  0  0  0  0  0
    6.2805  -15.6813   25.6777 C   0  0  2  0  0  0  0  0  0  0  0  0
    5.4933  -16.7502   26.1930 N   0  0  0  0  0  0  0  0  0  0  0  0
    7.3224  -16.1592   24.7596 C   0  0  0  0  0  0  0  0  0  0  0  0
    7.9064  -17.2799   24.9864 O   0  0  0  0  0  0  0  0  0  0  0  0
    7.7274  -15.4102   23.5923 N   0  0  0  0  0  0  0  0  0  0  0  0
    7.3435  -14.0750   23.2727 C   0  0  0  0  0  0  0  0  0  0  0  0
    7.9229  -13.7536   21.9264 C   0  0  0  0  0  0  0  0  0  0  0  0
    8.2453  -15.1298   21.3443 C   0  0  0  0  0  0  0  0  0  0  0  0
    8.6126  -15.9263   22.5683 C   0  0  1  0  0  0  0  0  0  0  0  0
   10.0281  -15.6877   22.9745 C   0  0  0  0  0  0  0  0  0  0  0  0
   10.3284  -14.6531   23.6157 O   0  0  0  0  0  0  0  0  0  0  0  0
   11.0685  -16.5902   22.6650 N   0  0  0  0  0  0  0  0  0  0  0  0
   12.2790  -16.6628   23.4460 C   0  0  0  0  0  0  0  0  0  0  0  0
   13.4270  -16.0839   22.7045 C   0  0  0  0  0  0  0  0  0  0  0  0
   13.2445  -15.2643   21.7880 O   0  0  0  0  0  0  0  0  0  0  0  0
   14.7127  -16.4685   23.0461 O   0  0  0  0  0  0  0  0  0  0  0  0
  2  1  1  1
  3  2  1  0
  4  2  1  0
  5  7  1  0
  5  4  1  0
  5  6  1  1
  7  8  2  0
  9 10  1  0
  9  7  1  0
 11 10  1  0
 12 13  1  0
 12 11  1  0
 13  9  1  0
 14 16  1  0
 13 14  1  1
 15 14  2  0
 17 16  1  0
 18 20  1  0
 18 17  1  0
 19 18  2  0
M  END
$$$$
