LPG.pdb
     RDKit          3D

 20 20  0  0  1  0  0  0  0  0999 V2000
    7.5351  -11.9950   27.4109 C   0  0  0  0  0  0  0  0  0  0  0  0
    6.7400  -13.1906   26.8769 C   0  0  1  0  0  0  0  0  0  0  0  0
    5.6076  -12.7336   25.9809 C   0  0  0  0  0  0  0  0  0  0  0  0
    7.6763  -14.0897   26.1047 C   0  0  0  0  0  0  0  0  0  0  0  0
    6.9231  -15.3372   25.6455 C   0  0  2  0  0  0  0  0  0  0  0  0
    6.6228  -16.2314   26.7123 N   0  0  0  0  0  0  0  0  0  0  0  0
    7.7115  -15.9861   24.5900 C   0  0  0  0  0  0  0  0  0  0  0  0
    8.2819  -17.1127   24.8221 O   0  0  0  0  0  0  0  0  0  0  0  0
    7.8777  -15.4020   23.2790 N   0  0  0  0  0  0  0  0  0  0  0  0
    7.3306  -14.1635   22.8327 C   0  0  0  0  0  0  0  0  0  0  0  0
    7.6832  -14.0163   21.3817 C   0  0  0  0  0  0  0  0  0  0  0  0
    8.0469  -15.4403   20.9616 C   0  0  0  0  0  0  0  0  0  0  0  0
    8.6545  -16.0080   22.2171 C   0  0  1  0  0  0  0  0  0  0  0  0
   10.0846  -15.6098   22.3638 C   0  0  0  0  0  0  0  0  0  0  0  0
   10.3843  -14.4028   22.5223 O   0  0  0  0  0  0  0  0  0  0  0  0
   11.1401  -16.5468   22.3321 N   0  0  0  0  0  0  0  0  0  0  0  0
   12.5196  -16.1539   22.4836 C   0  0  0  0  0  0  0  0  0  0  0  0
   13.4154  -17.3373   22.4681 C   0  0  0  0  0  0  0  0  0  0  0  0
   14.0096  -17.6991   23.4983 O   0  0  0  0  0  0  0  0  0  0  0  0
   13.5842  -18.0393   21.2866 O   0  0  0  0  0  0  0  0  0  0  0  0
  2  1  1  6
  3  2  1  0
  4  2  1  0
  5  7  1  0
  5  4  1  0
  5  6  1  1
  7  8  2  0
  9 10  1  0
  9  7  1  0
 11 10  1  0
 12 13  1  0
 12 11  1  0
 13  9  1  0
 14 16  1  0
 13 14  1  1
 15 14  2  0
 17 16  1  0
 18 20  1  0
 18 17  1  0
 19 18  2  0
M  END
$$$$
