LPG.pdb
     RDKit          3D

 20 20  0  0  1  0  0  0  0  0999 V2000
    7.4547  -12.0927   27.5433 C   0  0  0  0  0  0  0  0  0  0  0  0
    6.6171  -13.2191   26.9296 C   0  0  1  0  0  0  0  0  0  0  0  0
    5.4655  -12.6605   26.1198 C   0  0  0  0  0  0  0  0  0  0  0  0
    7.5080  -14.0593   26.0455 C   0  0  0  0  0  0  0  0  0  0  0  0
    6.7114  -15.2402   25.4930 C   0  0  2  0  0  0  0  0  0  0  0  0
    6.2796  -16.1439   26.5053 N   0  0  0  0  0  0  0  0  0  0  0  0
    7.5299  -15.9080   24.4727 C   0  0  0  0  0  0  0  0  0  0  0  0
    7.9234  -17.1155   24.6617 O   0  0  0  0  0  0  0  0  0  0  0  0
    7.9196  -15.2546   23.2445 N   0  0  0  0  0  0  0  0  0  0  0  0
    7.6535  -13.8998   22.8894 C   0  0  0  0  0  0  0  0  0  0  0  0
    8.1579  -13.6971   21.4908 C   0  0  0  0  0  0  0  0  0  0  0  0
    8.2892  -15.1223   20.9540 C   0  0  0  0  0  0  0  0  0  0  0  0
    8.6647  -15.9037   22.1852 C   0  0  1  0  0  0  0  0  0  0  0  0
   10.1243  -15.8026   22.4760 C   0  0  0  0  0  0  0  0  0  0  0  0
   10.5508  -14.8928   23.2259 O   0  0  0  0  0  0  0  0  0  0  0  0
   11.0695  -16.7014   21.9359 N   0  0  0  0  0  0  0  0  0  0  0  0
   12.2149  -17.1534   22.6870 C   0  0  0  0  0  0  0  0  0  0  0  0
   13.3957  -16.2922   22.4281 C   0  0  0  0  0  0  0  0  0  0  0  0
   13.8027  -16.1021   21.2691 O   0  0  0  0  0  0  0  0  0  0  0  0
   14.0441  -15.6983   23.4978 O   0  0  0  0  0  0  0  0  0  0  0  0
  2  1  1  6
  3  2  1  0
  4  2  1  0
  5  7  1  0
  5  4  1  0
  5  6  1  1
  7  8  2  0
  9 10  1  0
  9  7  1  0
 11 10  1  0
 12 13  1  0
 12 11  1  0
 13  9  1  0
 14 16  1  0
 13 14  1  1
 15 14  2  0
 17 16  1  0
 18 20  1  0
 18 17  1  0
 19 18  2  0
M  END
$$$$
