LPG.pdb
     RDKit          3D

 20 20  0  0  1  0  0  0  0  0999 V2000
    7.5546  -12.2008   27.6651 C   0  0  0  0  0  0  0  0  0  0  0  0
    6.6901  -13.2838   27.0122 C   0  0  1  0  0  0  0  0  0  0  0  0
    5.5645  -12.6685   26.2069 C   0  0  0  0  0  0  0  0  0  0  0  0
    7.5645  -14.1262   26.1138 C   0  0  0  0  0  0  0  0  0  0  0  0
    6.7442  -15.2797   25.5387 C   0  0  2  0  0  0  0  0  0  0  0  0
    6.2955  -16.1949   26.5331 N   0  0  0  0  0  0  0  0  0  0  0  0
    7.5484  -15.9430   24.5042 C   0  0  0  0  0  0  0  0  0  0  0  0
    7.9799  -17.1362   24.7001 O   0  0  0  0  0  0  0  0  0  0  0  0
    7.8824  -15.3004   23.2540 N   0  0  0  0  0  0  0  0  0  0  0  0
    7.5360  -13.9718   22.8704 C   0  0  0  0  0  0  0  0  0  0  0  0
    8.0069  -13.7770   21.4591 C   0  0  0  0  0  0  0  0  0  0  0  0
    8.2090  -15.2059   20.9551 C   0  0  0  0  0  0  0  0  0  0  0  0
    8.6461  -15.9340   22.1987 C   0  0  1  0  0  0  0  0  0  0  0  0
   10.1022  -15.7452   22.4625 C   0  0  0  0  0  0  0  0  0  0  0  0
   10.4803  -14.8910   23.2988 O   0  0  0  0  0  0  0  0  0  0  0  0
   11.0968  -16.4981   21.8017 N   0  0  0  0  0  0  0  0  0  0  0  0
   12.1321  -17.1998   22.5203 C   0  0  0  0  0  0  0  0  0  0  0  0
   13.3164  -16.3306   22.7322 C   0  0  0  0  0  0  0  0  0  0  0  0
   14.0452  -16.0046   21.7794 O   0  0  0  0  0  0  0  0  0  0  0  0
   13.6038  -15.8832   24.0108 O   0  0  0  0  0  0  0  0  0  0  0  0
  2  1  1  6
  3  2  1  0
  4  2  1  0
  5  7  1  0
  5  4  1  0
  5  6  1  1
  7  8  2  0
  9 10  1  0
  9  7  1  0
 11 10  1  0
 12 13  1  0
 12 11  1  0
 13  9  1  0
 14 16  1  0
 13 14  1  1
 15 14  2  0
 17 16  1  0
 18 20  1  0
 18 17  1  0
 19 18  2  0
M  END
$$$$
