LPG.pdb
     RDKit          3D

 20 20  0  0  1  0  0  0  0  0999 V2000
    7.8339  -12.1293   27.4495 C   0  0  0  0  0  0  0  0  0  0  0  0
    6.9214  -13.2423   26.9248 C   0  0  1  0  0  0  0  0  0  0  0  0
    5.7085  -12.6657   26.2245 C   0  0  0  0  0  0  0  0  0  0  0  0
    7.7088  -14.1028   25.9652 C   0  0  0  0  0  0  0  0  0  0  0  0
    6.8456  -15.2769   25.5063 C   0  0  2  0  0  0  0  0  0  0  0  0
    6.5290  -16.1814   26.5596 N   0  0  0  0  0  0  0  0  0  0  0  0
    7.5351  -15.9463   24.3957 C   0  0  0  0  0  0  0  0  0  0  0  0
    7.9375  -17.1578   24.5332 O   0  0  0  0  0  0  0  0  0  0  0  0
    7.7863  -15.2900   23.1333 N   0  0  0  0  0  0  0  0  0  0  0  0
    7.4594  -13.9418   22.8047 C   0  0  0  0  0  0  0  0  0  0  0  0
    7.8162  -13.7345   21.3621 C   0  0  0  0  0  0  0  0  0  0  0  0
    7.9202  -15.1588   20.8170 C   0  0  0  0  0  0  0  0  0  0  0  0
    8.4330  -15.9285   22.0054 C   0  0  1  0  0  0  0  0  0  0  0  0
    9.9124  -15.7985   22.1471 C   0  0  0  0  0  0  0  0  0  0  0  0
   10.4012  -14.7791   22.6891 O   0  0  0  0  0  0  0  0  0  0  0  0
   10.8082  -16.7894   21.6906 N   0  0  0  0  0  0  0  0  0  0  0  0
   12.2348  -16.6759   21.8709 C   0  0  0  0  0  0  0  0  0  0  0  0
   12.6719  -17.3658   23.1102 C   0  0  0  0  0  0  0  0  0  0  0  0
   12.9637  -18.5740   23.0968 O   0  0  0  0  0  0  0  0  0  0  0  0
   12.7519  -16.6454   24.2901 O   0  0  0  0  0  0  0  0  0  0  0  0
  2  1  1  6
  3  2  1  0
  4  2  1  0
  5  7  1  0
  5  4  1  0
  5  6  1  1
  7  8  2  0
  9 10  1  0
  9  7  1  0
 11 10  1  0
 12 13  1  0
 12 11  1  0
 13  9  1  0
 14 16  1  0
 13 14  1  1
 15 14  2  0
 17 16  1  0
 18 20  1  0
 18 17  1  0
 19 18  2  0
M  END
$$$$
