LPG.pdb
     RDKit          3D

 20 20  0  0  1  0  0  0  0  0999 V2000
    7.8064  -12.2002   27.6749 C   0  0  0  0  0  0  0  0  0  0  0  0
    6.8806  -13.2255   27.0127 C   0  0  1  0  0  0  0  0  0  0  0  0
    5.7222  -12.5418   26.3165 C   0  0  0  0  0  0  0  0  0  0  0  0
    7.6808  -14.0270   26.0134 C   0  0  0  0  0  0  0  0  0  0  0  0
    6.8140  -15.1523   25.4504 C   0  0  2  0  0  0  0  0  0  0  0  0
    6.3639  -16.0622   26.4490 N   0  0  0  0  0  0  0  0  0  0  0  0
    7.5734  -15.8299   24.3916 C   0  0  0  0  0  0  0  0  0  0  0  0
    7.9801  -17.0344   24.5704 O   0  0  0  0  0  0  0  0  0  0  0  0
    7.8896  -15.1892   23.1358 N   0  0  0  0  0  0  0  0  0  0  0  0
    7.5163  -13.8700   22.7452 C   0  0  0  0  0  0  0  0  0  0  0  0
    7.9772  -13.6756   21.3305 C   0  0  0  0  0  0  0  0  0  0  0  0
    8.2041  -15.1037   20.8348 C   0  0  0  0  0  0  0  0  0  0  0  0
    8.6605  -15.8152   22.0811 C   0  0  1  0  0  0  0  0  0  0  0  0
   10.1139  -15.5971   22.3370 C   0  0  0  0  0  0  0  0  0  0  0  0
   10.4787  -14.8915   23.3070 O   0  0  0  0  0  0  0  0  0  0  0  0
   11.1204  -16.1590   21.5222 N   0  0  0  0  0  0  0  0  0  0  0  0
   12.0646  -17.1259   22.0260 C   0  0  0  0  0  0  0  0  0  0  0  0
   13.0247  -16.4940   22.9651 C   0  0  0  0  0  0  0  0  0  0  0  0
   14.1681  -16.1810   22.5912 O   0  0  0  0  0  0  0  0  0  0  0  0
   12.6316  -16.2548   24.2711 O   0  0  0  0  0  0  0  0  0  0  0  0
  2  1  1  6
  3  2  1  0
  4  2  1  0
  5  7  1  0
  5  4  1  0
  5  6  1  1
  7  8  2  0
  9 10  1  0
  9  7  1  0
 11 10  1  0
 12 13  1  0
 12 11  1  0
 13  9  1  0
 14 16  1  0
 13 14  1  1
 15 14  2  0
 17 16  1  0
 18 20  1  0
 18 17  1  0
 19 18  2  0
M  END
$$$$
