LPG.pdb
     RDKit          3D

 20 20  0  0  1  0  0  0  0  0999 V2000
    7.6774  -12.2148   27.4984 C   0  0  0  0  0  0  0  0  0  0  0  0
    6.7953  -13.3218   26.9126 C   0  0  1  0  0  0  0  0  0  0  0  0
    5.5873  -12.7390   26.2090 C   0  0  0  0  0  0  0  0  0  0  0  0
    7.6171  -14.1320   25.9382 C   0  0  0  0  0  0  0  0  0  0  0  0
    6.7983  -15.3254   25.4486 C   0  0  2  0  0  0  0  0  0  0  0  0
    6.4579  -16.2335   26.4915 N   0  0  0  0  0  0  0  0  0  0  0  0
    7.5467  -15.9832   24.3697 C   0  0  0  0  0  0  0  0  0  0  0  0
    8.0139  -17.1658   24.5475 O   0  0  0  0  0  0  0  0  0  0  0  0
    7.7857  -15.3467   23.0949 N   0  0  0  0  0  0  0  0  0  0  0  0
    7.4566  -14.0035   22.7486 C   0  0  0  0  0  0  0  0  0  0  0  0
    7.7991  -13.8189   21.2994 C   0  0  0  0  0  0  0  0  0  0  0  0
    7.8967  -15.2517   20.7755 C   0  0  0  0  0  0  0  0  0  0  0  0
    8.4208  -16.0032   21.9706 C   0  0  1  0  0  0  0  0  0  0  0  0
    9.9016  -15.8723   22.0956 C   0  0  0  0  0  0  0  0  0  0  0  0
   10.3901  -15.0349   22.8906 O   0  0  0  0  0  0  0  0  0  0  0  0
   10.7991  -16.6628   21.3457 N   0  0  0  0  0  0  0  0  0  0  0  0
   11.6922  -17.6092   21.9679 C   0  0  0  0  0  0  0  0  0  0  0  0
   12.8798  -16.9257   22.5383 C   0  0  0  0  0  0  0  0  0  0  0  0
   13.8369  -16.6025   21.8140 O   0  0  0  0  0  0  0  0  0  0  0  0
   12.9115  -16.6495   23.8949 O   0  0  0  0  0  0  0  0  0  0  0  0
  2  1  1  6
  3  2  1  0
  4  2  1  0
  5  7  1  0
  5  4  1  0
  5  6  1  1
  7  8  2  0
  9 10  1  0
  9  7  1  0
 11 10  1  0
 12 13  1  0
 12 11  1  0
 13  9  1  0
 14 16  1  0
 13 14  1  1
 15 14  2  0
 17 16  1  0
 18 20  1  0
 18 17  1  0
 19 18  2  0
M  END
$$$$
