LPG.pdb
     RDKit          3D

 20 20  0  0  1  0  0  0  0  0999 V2000
    7.4037  -12.0742   27.6648 C   0  0  0  0  0  0  0  0  0  0  0  0
    6.5495  -13.1686   27.0173 C   0  0  1  0  0  0  0  0  0  0  0  0
    5.4354  -12.5677   26.1856 C   0  0  0  0  0  0  0  0  0  0  0  0
    7.4376  -14.0250   26.1459 C   0  0  0  0  0  0  0  0  0  0  0  0
    6.6303  -15.1970   25.5900 C   0  0  2  0  0  0  0  0  0  0  0  0
    6.1546  -16.0769   26.6036 N   0  0  0  0  0  0  0  0  0  0  0  0
    7.4596  -15.8963   24.6001 C   0  0  0  0  0  0  0  0  0  0  0  0
    7.8723  -17.0877   24.8422 O   0  0  0  0  0  0  0  0  0  0  0  0
    7.8393  -15.2918   23.3439 N   0  0  0  0  0  0  0  0  0  0  0  0
    7.5245  -13.9689   22.9160 C   0  0  0  0  0  0  0  0  0  0  0  0
    8.0388  -13.8183   21.5145 C   0  0  0  0  0  0  0  0  0  0  0  0
    8.2335  -15.2628   21.0538 C   0  0  0  0  0  0  0  0  0  0  0  0
    8.6233  -15.9641   22.3282 C   0  0  1  0  0  0  0  0  0  0  0  0
   10.0739  -15.7896   22.6294 C   0  0  0  0  0  0  0  0  0  0  0  0
   10.4835  -14.7157   23.1303 O   0  0  0  0  0  0  0  0  0  0  0  0
   11.0287  -16.7971   22.3722 N   0  0  0  0  0  0  0  0  0  0  0  0
   12.3405  -16.7821   22.9717 C   0  0  0  0  0  0  0  0  0  0  0  0
   13.3965  -16.6317   21.9396 C   0  0  0  0  0  0  0  0  0  0  0  0
   13.1032  -16.5729   20.7331 O   0  0  0  0  0  0  0  0  0  0  0  0
   14.7210  -16.5570   22.3365 O   0  0  0  0  0  0  0  0  0  0  0  0
  2  1  1  6
  3  2  1  0
  4  2  1  0
  5  7  1  0
  5  4  1  0
  5  6  1  1
  7  8  2  0
  9 10  1  0
  9  7  1  0
 11 10  1  0
 12 13  1  0
 12 11  1  0
 13  9  1  0
 14 16  1  0
 13 14  1  1
 15 14  2  0
 17 16  1  0
 18 20  1  0
 18 17  1  0
 19 18  2  0
M  END
$$$$
