LPG.pdb
     RDKit          3D

 20 20  0  0  1  0  0  0  0  0999 V2000
    8.0892  -12.3478   27.5275 C   0  0  0  0  0  0  0  0  0  0  0  0
    7.0753  -13.3632   26.9910 C   0  0  1  0  0  0  0  0  0  0  0  0
    5.8739  -12.6650   26.3886 C   0  0  0  0  0  0  0  0  0  0  0  0
    7.7517  -14.2176   25.9452 C   0  0  0  0  0  0  0  0  0  0  0  0
    6.7973  -15.3214   25.4924 C   0  0  2  0  0  0  0  0  0  0  0  0
    6.4519  -16.2237   26.5385 N   0  0  0  0  0  0  0  0  0  0  0  0
    7.4059  -16.0130   24.3487 C   0  0  0  0  0  0  0  0  0  0  0  0
    7.7928  -17.2309   24.4730 O   0  0  0  0  0  0  0  0  0  0  0  0
    7.5930  -15.3719   23.0675 N   0  0  0  0  0  0  0  0  0  0  0  0
    7.1588  -14.0622   22.7091 C   0  0  0  0  0  0  0  0  0  0  0  0
    7.4846  -13.8650   21.2577 C   0  0  0  0  0  0  0  0  0  0  0  0
    7.6944  -15.2906   20.7472 C   0  0  0  0  0  0  0  0  0  0  0  0
    8.2770  -15.9871   21.9485 C   0  0  1  0  0  0  0  0  0  0  0  0
    9.7429  -15.7388   22.0700 C   0  0  0  0  0  0  0  0  0  0  0  0
   10.1674  -14.5709   22.2367 O   0  0  0  0  0  0  0  0  0  0  0  0
   10.6964  -16.7778   22.0048 N   0  0  0  0  0  0  0  0  0  0  0  0
   12.0963  -16.5522   22.2687 C   0  0  0  0  0  0  0  0  0  0  0  0
   12.8628  -17.8213   22.2001 C   0  0  0  0  0  0  0  0  0  0  0  0
   13.2389  -18.3944   23.2370 O   0  0  0  0  0  0  0  0  0  0  0  0
   13.1571  -18.3647   20.9609 O   0  0  0  0  0  0  0  0  0  0  0  0
  2  1  1  6
  3  2  1  0
  4  2  1  0
  5  7  1  0
  5  4  1  0
  5  6  1  1
  7  8  2  0
  9 10  1  0
  9  7  1  0
 11 10  1  0
 12 13  1  0
 12 11  1  0
 13  9  1  0
 14 16  1  0
 13 14  1  1
 15 14  2  0
 17 16  1  0
 18 20  1  0
 18 17  1  0
 19 18  2  0
M  END
$$$$
