LPG.pdb
     RDKit          3D

 20 20  0  0  1  0  0  0  0  0999 V2000
    5.4914  -11.9582   26.3582 C   0  0  0  0  0  0  0  0  0  0  0  0
    6.8407  -12.6662   26.2008 C   0  0  1  0  0  0  0  0  0  0  0  0
    7.7358  -12.4012   27.3935 C   0  0  0  0  0  0  0  0  0  0  0  0
    6.5962  -14.1501   26.0608 C   0  0  0  0  0  0  0  0  0  0  0  0
    7.8943  -14.8451   25.6531 C   0  0  2  0  0  0  0  0  0  0  0  0
    8.9988  -13.9514   25.5568 N   0  0  0  0  0  0  0  0  0  0  0  0
    7.6551  -15.5609   24.3932 C   0  0  0  0  0  0  0  0  0  0  0  0
    7.2800  -16.7885   24.4192 O   0  0  0  0  0  0  0  0  0  0  0  0
    7.8271  -14.9339   23.1030 N   0  0  0  0  0  0  0  0  0  0  0  0
    8.1086  -13.5566   22.8660 C   0  0  0  0  0  0  0  0  0  0  0  0
    8.1036  -13.3487   21.3800 C   0  0  0  0  0  0  0  0  0  0  0  0
    7.3571  -14.5753   20.8555 C   0  0  0  0  0  0  0  0  0  0  0  0
    7.7465  -15.6436   21.8427 C   0  0  1  0  0  0  0  0  0  0  0  0
    9.0802  -16.2292   21.5207 C   0  0  0  0  0  0  0  0  0  0  0  0
   10.0751  -15.4791   21.3815 O   0  0  0  0  0  0  0  0  0  0  0  0
    9.2809  -17.6175   21.3616 N   0  0  0  0  0  0  0  0  0  0  0  0
   10.5279  -18.1628   20.8841 C   0  0  0  0  0  0  0  0  0  0  0  0
   11.3891  -18.5924   22.0140 C   0  0  0  0  0  0  0  0  0  0  0  0
   12.5700  -18.9296   21.8217 O   0  0  0  0  0  0  0  0  0  0  0  0
   10.8606  -18.6140   23.2938 O   0  0  0  0  0  0  0  0  0  0  0  0
  2  1  1  1
  3  2  1  0
  4  2  1  0
  5  7  1  0
  5  4  1  0
  5  6  1  6
  7  8  2  0
  9 10  1  0
  9  7  1  0
 11 10  1  0
 12 13  1  0
 12 11  1  0
 13  9  1  0
 14 16  1  0
 13 14  1  6
 15 14  2  0
 17 16  1  0
 18 20  1  0
 18 17  1  0
 19 18  2  0
M  END
$$$$
