LPG.pdb
     RDKit          3D

 20 20  0  0  1  0  0  0  0  0999 V2000
    7.6436  -12.0963   27.4828 C   0  0  0  0  0  0  0  0  0  0  0  0
    6.7601  -13.2164   26.9247 C   0  0  1  0  0  0  0  0  0  0  0  0
    5.6152  -12.6509   26.1104 C   0  0  0  0  0  0  0  0  0  0  0  0
    7.6092  -14.1189   26.0610 C   0  0  0  0  0  0  0  0  0  0  0  0
    6.7518  -15.2615   25.5192 C   0  0  2  0  0  0  0  0  0  0  0  0
    6.3039  -16.1528   26.5355 N   0  0  0  0  0  0  0  0  0  0  0  0
    7.5193  -15.9566   24.4778 C   0  0  0  0  0  0  0  0  0  0  0  0
    7.8866  -17.1730   24.6619 O   0  0  0  0  0  0  0  0  0  0  0  0
    7.8868  -15.3207   23.2336 N   0  0  0  0  0  0  0  0  0  0  0  0
    7.6252  -13.9675   22.8693 C   0  0  0  0  0  0  0  0  0  0  0  0
    8.0992  -13.7851   21.4574 C   0  0  0  0  0  0  0  0  0  0  0  0
    8.2049  -15.2174   20.9338 C   0  0  0  0  0  0  0  0  0  0  0  0
    8.6013  -15.9886   22.1650 C   0  0  1  0  0  0  0  0  0  0  0  0
   10.0681  -15.8983   22.4212 C   0  0  0  0  0  0  0  0  0  0  0  0
   10.5253  -14.9565   23.1109 O   0  0  0  0  0  0  0  0  0  0  0  0
   10.9865  -16.8425   21.9134 N   0  0  0  0  0  0  0  0  0  0  0  0
   12.1425  -17.2686   22.6634 C   0  0  0  0  0  0  0  0  0  0  0  0
   13.3439  -16.4851   22.2818 C   0  0  0  0  0  0  0  0  0  0  0  0
   13.6907  -16.3911   21.0918 O   0  0  0  0  0  0  0  0  0  0  0  0
   14.0799  -15.8551   23.2712 O   0  0  0  0  0  0  0  0  0  0  0  0
  2  1  1  6
  3  2  1  0
  4  2  1  0
  5  7  1  0
  5  4  1  0
  5  6  1  1
  7  8  2  0
  9 10  1  0
  9  7  1  0
 11 10  1  0
 12 13  1  0
 12 11  1  0
 13  9  1  0
 14 16  1  0
 13 14  1  1
 15 14  2  0
 17 16  1  0
 18 20  1  0
 18 17  1  0
 19 18  2  0
M  END
$$$$
