VTK.pdb
     RDKit          3D

 24 23  0  0  1  0  0  0  0  0999 V2000
   18.0382  -14.1403  -16.5984 C   0  0  0  0  0  0  0  0  0  0  0  0
   16.7622  -14.4003  -15.8288 C   0  0  2  0  0  0  0  0  0  0  0  0
   15.9615  -15.4769  -16.5394 C   0  0  0  0  0  0  0  0  0  0  0  0
   15.9983  -13.0969  -15.7469 C   0  0  2  0  0  0  0  0  0  0  0  0
   15.6520  -12.6959  -17.0916 N   0  0  0  0  0  0  0  0  0  0  0  0
   16.8240  -12.0843  -15.0561 C   0  0  0  0  0  0  0  0  0  0  0  0
   17.1090  -12.3168  -13.8444 O   0  0  0  0  0  0  0  0  0  0  0  0
   20.2110  -10.6735  -15.7494 C   0  0  0  0  0  0  0  0  0  0  0  0
   19.2365   -9.5404  -15.7794 C   0  0  1  0  0  0  0  0  0  0  0  0
   18.8539   -9.1497  -17.0442 O   0  0  0  0  0  0  0  0  0  0  0  0
   18.0194   -9.9489  -14.9442 C   0  0  2  0  0  0  0  0  0  0  0  0
   17.2849  -10.9048  -15.6975 N   0  0  0  0  0  0  0  0  0  0  0  0
   17.2401   -8.7254  -14.6263 C   0  0  0  0  0  0  0  0  0  0  0  0
   16.2508   -8.3404  -15.2718 O   0  0  0  0  0  0  0  0  0  0  0  0
   17.6514   -7.9449  -13.5135 N   0  0  0  0  0  0  0  0  0  0  0  0
   17.0017   -6.6362  -13.2089 C   0  0  1  0  0  0  0  0  0  0  0  0
   16.5934   -6.7065  -11.7640 C   0  0  0  0  0  0  0  0  0  0  0  0
   15.9645   -5.4239  -11.3190 C   0  0  0  0  0  0  0  0  0  0  0  0
   15.5236   -5.5488   -9.8822 C   0  0  0  0  0  0  0  0  0  0  0  0
   14.6499   -4.3780   -9.4655 C   0  0  0  0  0  0  0  0  0  0  0  0
   14.2428   -4.4564   -8.0972 N   0  0  0  0  0  0  0  0  0  0  0  0
   18.0529   -5.6112  -13.3656 C   0  0  0  0  0  0  0  0  0  0  0  0
   19.4022   -5.8961  -13.2134 O   0  0  0  0  0  0  0  0  0  0  0  0
   17.7584   -4.4301  -13.6458 O   0  0  0  0  0  0  0  0  0  0  0  0
  2  1  1  6
  2  4  1  0
  3  2  1  0
  4  5  1  6
  6  7  2  0
  6  4  1  0
  9  8  1  6
 10  9  1  0
 11  9  1  0
 11 12  1  6
 12  6  1  0
 13 11  1  0
 14 13  2  0
 15 13  1  0
 16 15  1  0
 16 17  1  1
 17 18  1  0
 19 18  1  0
 20 19  1  0
 21 20  1  0
 22 23  1  0
 22 16  1  0
 24 22  2  0
M  END
$$$$
