VTK.pdb
     RDKit          3D

 24 23  0  0  1  0  0  0  0  0999 V2000
   14.4141  -11.0201  -14.6750 C   0  0  0  0  0  0  0  0  0  0  0  0
   15.3355  -10.5019  -15.7568 C   0  0  2  0  0  0  0  0  0  0  0  0
   14.8989  -11.0665  -17.0968 C   0  0  0  0  0  0  0  0  0  0  0  0
   16.7451  -10.9236  -15.4042 C   0  0  2  0  0  0  0  0  0  0  0  0
   16.7968  -12.3679  -15.4183 N   0  0  0  0  0  0  0  0  0  0  0  0
   17.1122  -10.3633  -14.0868 C   0  0  0  0  0  0  0  0  0  0  0  0
   16.9744  -11.1287  -13.0875 O   0  0  0  0  0  0  0  0  0  0  0  0
   20.3274   -8.7689  -13.0666 C   0  0  0  0  0  0  0  0  0  0  0  0
   19.2430   -7.7949  -12.7350 C   0  0  1  0  0  0  0  0  0  0  0  0
   19.1184   -6.7533  -13.6284 O   0  0  0  0  0  0  0  0  0  0  0  0
   17.9308   -8.5769  -12.6238 C   0  0  2  0  0  0  0  0  0  0  0  0
   17.5962   -9.0386  -13.9259 N   0  0  0  0  0  0  0  0  0  0  0  0
   16.9030   -7.6816  -12.0346 C   0  0  0  0  0  0  0  0  0  0  0  0
   16.0316   -7.0901  -12.6938 O   0  0  0  0  0  0  0  0  0  0  0  0
   16.9161   -7.4886  -10.6278 N   0  0  0  0  0  0  0  0  0  0  0  0
   15.8990   -6.6243   -9.9598 C   0  0  1  0  0  0  0  0  0  0  0  0
   14.9248   -7.5651   -9.3076 C   0  0  0  0  0  0  0  0  0  0  0  0
   13.8113   -6.8148   -8.6475 C   0  0  0  0  0  0  0  0  0  0  0  0
   12.7975   -7.7900   -8.1035 C   0  0  0  0  0  0  0  0  0  0  0  0
   11.5596   -7.0752   -7.5893 C   0  0  0  0  0  0  0  0  0  0  0  0
   10.5922   -7.9759   -7.0444 N   0  0  0  0  0  0  0  0  0  0  0  0
   16.6227   -5.8748   -8.9134 C   0  0  0  0  0  0  0  0  0  0  0  0
   16.1737   -4.6579   -8.4210 O   0  0  0  0  0  0  0  0  0  0  0  0
   17.6837   -6.3186   -8.4261 O   0  0  0  0  0  0  0  0  0  0  0  0
  2  1  1  1
  2  4  1  0
  3  2  1  0
  4  5  1  1
  6  7  2  0
  6  4  1  0
  9  8  1  6
 10  9  1  0
 11  9  1  0
 11 12  1  6
 12  6  1  0
 13 11  1  0
 14 13  2  0
 15 13  1  0
 16 15  1  0
 16 17  1  1
 17 18  1  0
 19 18  1  0
 20 19  1  0
 21 20  1  0
 22 23  1  0
 22 16  1  0
 24 22  2  0
M  END
$$$$
