VTK.pdb
     RDKit          3D

 24 23  0  0  1  0  0  0  0  0999 V2000
   28.4986  -19.4833  -17.2278 C   0  0  0  0  0  0  0  0  0  0  0  0
   27.0755  -19.9516  -17.0195 C   0  0  2  0  0  0  0  0  0  0  0  0
   26.1726  -18.7431  -16.8482 C   0  0  0  0  0  0  0  0  0  0  0  0
   27.0565  -20.8422  -15.7965 C   0  0  2  0  0  0  0  0  0  0  0  0
   28.0754  -21.8535  -15.9635 N   0  0  0  0  0  0  0  0  0  0  0  0
   25.7090  -21.4269  -15.6336 C   0  0  0  0  0  0  0  0  0  0  0  0
   25.6174  -22.6833  -15.7622 O   0  0  0  0  0  0  0  0  0  0  0  0
   24.7910  -22.9287  -13.8588 C   0  0  0  0  0  0  0  0  0  0  0  0
   23.6228  -22.0203  -13.6475 C   0  0  1  0  0  0  0  0  0  0  0  0
   23.7764  -21.1241  -12.6122 O   0  0  0  0  0  0  0  0  0  0  0  0
   23.3559  -21.2883  -14.9662 C   0  0  2  0  0  0  0  0  0  0  0  0
   24.5623  -20.6405  -15.3477 N   0  0  0  0  0  0  0  0  0  0  0  0
   22.2243  -20.3496  -14.7576 C   0  0  0  0  0  0  0  0  0  0  0  0
   22.2595  -19.3732  -13.9901 O   0  0  0  0  0  0  0  0  0  0  0  0
   21.0248  -20.5821  -15.4812 N   0  0  0  0  0  0  0  0  0  0  0  0
   19.8582  -19.6598  -15.3545 C   0  0  1  0  0  0  0  0  0  0  0  0
   18.8815  -20.0842  -16.4154 C   0  0  0  0  0  0  0  0  0  0  0  0
   17.6931  -19.1759  -16.4478 C   0  0  0  0  0  0  0  0  0  0  0  0
   16.7171  -19.6575  -17.4919 C   0  0  0  0  0  0  0  0  0  0  0  0
   15.5580  -18.6896  -17.6570 C   0  0  0  0  0  0  0  0  0  0  0  0
   14.5870  -19.1514  -18.5994 N   0  0  0  0  0  0  0  0  0  0  0  0
   19.2723  -19.9212  -14.0246 C   0  0  0  0  0  0  0  0  0  0  0  0
   18.6516  -18.9326  -13.2748 O   0  0  0  0  0  0  0  0  0  0  0  0
   19.3160  -21.0626  -13.5191 O   0  0  0  0  0  0  0  0  0  0  0  0
  2  1  1  1
  2  4  1  0
  3  2  1  0
  4  5  1  6
  6  7  2  0
  6  4  1  0
  9  8  1  6
 10  9  1  0
 11  9  1  0
 11 12  1  1
 12  6  1  0
 13 11  1  0
 14 13  2  0
 15 13  1  0
 16 15  1  0
 16 17  1  6
 17 18  1  0
 19 18  1  0
 20 19  1  0
 21 20  1  0
 22 23  1  0
 22 16  1  0
 24 22  2  0
M  END
$$$$
