VTK.pdb
     RDKit          3D

 24 23  0  0  1  0  0  0  0  0999 V2000
   22.5487  -14.3067  -19.4179 C   0  0  0  0  0  0  0  0  0  0  0  0
   23.9563  -13.9873  -19.8702 C   0  0  2  0  0  0  0  0  0  0  0  0
   24.2886  -14.8217  -21.0943 C   0  0  0  0  0  0  0  0  0  0  0  0
   24.8907  -14.2865  -18.7184 C   0  0  2  0  0  0  0  0  0  0  0  0
   24.8222  -15.7037  -18.4431 N   0  0  0  0  0  0  0  0  0  0  0  0
   24.5073  -13.4698  -17.5478 C   0  0  0  0  0  0  0  0  0  0  0  0
   23.7445  -14.0191  -16.6994 O   0  0  0  0  0  0  0  0  0  0  0  0
   26.6413  -11.7305  -15.1208 C   0  0  0  0  0  0  0  0  0  0  0  0
   25.7022  -10.6837  -15.6275 C   0  0  1  0  0  0  0  0  0  0  0  0
   26.2608   -9.8033  -16.5284 O   0  0  0  0  0  0  0  0  0  0  0  0
   24.4941  -11.3975  -16.2413 C   0  0  2  0  0  0  0  0  0  0  0  0
   24.9585  -12.1366  -17.3632 N   0  0  0  0  0  0  0  0  0  0  0  0
   23.4761  -10.3745  -16.5910 C   0  0  0  0  0  0  0  0  0  0  0  0
   23.3411   -9.8826  -17.7238 O   0  0  0  0  0  0  0  0  0  0  0  0
   22.6005   -9.9293  -15.5654 N   0  0  0  0  0  0  0  0  0  0  0  0
   21.5142   -8.9471  -15.8532 C   0  0  1  0  0  0  0  0  0  0  0  0
   20.2244   -9.6685  -15.5783 C   0  0  0  0  0  0  0  0  0  0  0  0
   19.0531   -8.7472  -15.7117 C   0  0  0  0  0  0  0  0  0  0  0  0
   17.7859   -9.4869  -15.3625 C   0  0  0  0  0  0  0  0  0  0  0  0
   16.5532   -8.6597  -15.6851 C   0  0  0  0  0  0  0  0  0  0  0  0
   15.3363   -9.3536  -15.3992 N   0  0  0  0  0  0  0  0  0  0  0  0
   21.6778   -7.8566  -14.8713 C   0  0  0  0  0  0  0  0  0  0  0  0
   21.2187   -6.5680  -15.1032 O   0  0  0  0  0  0  0  0  0  0  0  0
   22.2455   -8.0601  -13.7775 O   0  0  0  0  0  0  0  0  0  0  0  0
  2  1  1  1
  2  4  1  0
  3  2  1  0
  4  5  1  1
  6  7  2  0
  6  4  1  0
  9  8  1  6
 10  9  1  0
 11  9  1  0
 11 12  1  6
 12  6  1  0
 13 11  1  0
 14 13  2  0
 15 13  1  0
 16 15  1  0
 16 17  1  1
 17 18  1  0
 19 18  1  0
 20 19  1  0
 21 20  1  0
 22 23  1  0
 22 16  1  0
 24 22  2  0
M  END
$$$$
