VTK.pdb
     RDKit          3D

 24 23  0  0  1  0  0  0  0  0999 V2000
   18.6411  -15.8303  -19.7052 C   0  0  0  0  0  0  0  0  0  0  0  0
   18.7701  -14.6731  -18.7396 C   0  0  2  0  0  0  0  0  0  0  0  0
   18.5671  -13.3702  -19.4921 C   0  0  0  0  0  0  0  0  0  0  0  0
   20.1440  -14.7477  -18.1102 C   0  0  2  0  0  0  0  0  0  0  0  0
   20.2617  -16.0240  -17.4424 N   0  0  0  0  0  0  0  0  0  0  0  0
   20.3231  -13.6118  -17.1818 C   0  0  0  0  0  0  0  0  0  0  0  0
   19.6770  -13.6622  -16.0939 O   0  0  0  0  0  0  0  0  0  0  0  0
   23.3385  -12.3798  -15.6154 C   0  0  0  0  0  0  0  0  0  0  0  0
   22.7633  -11.1824  -16.3010 C   0  0  1  0  0  0  0  0  0  0  0  0
   23.3906  -10.8433  -17.4800 O   0  0  0  0  0  0  0  0  0  0  0  0
   21.2732  -11.4486  -16.5341 C   0  0  2  0  0  0  0  0  0  0  0  0
   21.1700  -12.5105  -17.4733 N   0  0  0  0  0  0  0  0  0  0  0  0
   20.6415  -10.1878  -16.9995 C   0  0  0  0  0  0  0  0  0  0  0  0
   20.4838   -9.8854  -18.1942 O   0  0  0  0  0  0  0  0  0  0  0  0
   20.1885   -9.2682  -16.0168 N   0  0  0  0  0  0  0  0  0  0  0  0
   19.6492   -7.9314  -16.4038 C   0  0  1  0  0  0  0  0  0  0  0  0
   18.1557   -8.0363  -16.2701 C   0  0  0  0  0  0  0  0  0  0  0  0
   17.4899   -6.7491  -16.6422 C   0  0  0  0  0  0  0  0  0  0  0  0
   16.0022   -6.8683  -16.4254 C   0  0  0  0  0  0  0  0  0  0  0  0
   15.2757   -5.6043  -16.8522 C   0  0  0  0  0  0  0  0  0  0  0  0
   13.8543   -5.7328  -16.7674 N   0  0  0  0  0  0  0  0  0  0  0  0
   20.1595   -6.9776  -15.3987 C   0  0  0  0  0  0  0  0  0  0  0  0
   20.1922   -5.6080  -15.6182 O   0  0  0  0  0  0  0  0  0  0  0  0
   20.5873   -7.3780  -14.2957 O   0  0  0  0  0  0  0  0  0  0  0  0
  2  1  1  6
  2  4  1  0
  3  2  1  0
  4  5  1  1
  6  7  2  0
  6  4  1  0
  9  8  1  6
 10  9  1  0
 11  9  1  0
 11 12  1  6
 12  6  1  0
 13 11  1  0
 14 13  2  0
 15 13  1  0
 16 15  1  0
 16 17  1  1
 17 18  1  0
 19 18  1  0
 20 19  1  0
 21 20  1  0
 22 23  1  0
 22 16  1  0
 24 22  2  0
M  END
$$$$
