VTK.pdb
     RDKit          3D

 24 23  0  0  1  0  0  0  0  0999 V2000
   24.8421  -24.6504  -15.3288 C   0  0  0  0  0  0  0  0  0  0  0  0
   24.4393  -23.8675  -16.5587 C   0  0  2  0  0  0  0  0  0  0  0  0
   25.3042  -24.2982  -17.7298 C   0  0  0  0  0  0  0  0  0  0  0  0
   24.6113  -22.3969  -16.2471 C   0  0  2  0  0  0  0  0  0  0  0  0
   26.0234  -22.1363  -16.0835 N   0  0  0  0  0  0  0  0  0  0  0  0
   23.8353  -22.0557  -15.0365 C   0  0  0  0  0  0  0  0  0  0  0  0
   24.4685  -22.0531  -13.9399 O   0  0  0  0  0  0  0  0  0  0  0  0
   22.1682  -19.0447  -14.0779 C   0  0  0  0  0  0  0  0  0  0  0  0
   21.0952  -20.0846  -14.0347 C   0  0  1  0  0  0  0  0  0  0  0  0
   20.2584  -20.0874  -15.1294 O   0  0  0  0  0  0  0  0  0  0  0  0
   21.7724  -21.4476  -13.8634 C   0  0  2  0  0  0  0  0  0  0  0  0
   22.4511  -21.7436  -15.0768 N   0  0  0  0  0  0  0  0  0  0  0  0
   20.7298  -22.4455  -13.5136 C   0  0  0  0  0  0  0  0  0  0  0  0
   20.1445  -23.1633  -14.3418 O   0  0  0  0  0  0  0  0  0  0  0  0
   20.3787  -22.5893  -12.1452 N   0  0  0  0  0  0  0  0  0  0  0  0
   19.2790  -23.5067  -11.7248 C   0  0  1  0  0  0  0  0  0  0  0  0
   19.4437  -23.6936  -10.2425 C   0  0  0  0  0  0  0  0  0  0  0  0
   18.3452  -24.5401   -9.6810 C   0  0  0  0  0  0  0  0  0  0  0  0
   18.4551  -24.5789   -8.1773 C   0  0  0  0  0  0  0  0  0  0  0  0
   17.3816  -25.4620   -7.5646 C   0  0  0  0  0  0  0  0  0  0  0  0
   17.5512  -25.6350   -6.1556 N   0  0  0  0  0  0  0  0  0  0  0  0
   18.0193  -22.7814  -11.9843 C   0  0  0  0  0  0  0  0  0  0  0  0
   16.8616  -23.4217  -12.4023 O   0  0  0  0  0  0  0  0  0  0  0  0
   17.9509  -21.5433  -11.8338 O   0  0  0  0  0  0  0  0  0  0  0  0
  2  1  1  1
  2  4  1  0
  3  2  1  0
  4  5  1  1
  6  7  2  0
  6  4  1  0
  9  8  1  6
 10  9  1  0
 11  9  1  0
 11 12  1  6
 12  6  1  0
 13 11  1  0
 14 13  2  0
 15 13  1  0
 16 15  1  0
 16 17  1  1
 17 18  1  0
 19 18  1  0
 20 19  1  0
 21 20  1  0
 22 23  1  0
 22 16  1  0
 24 22  2  0
M  END
$$$$
