VTK.pdb
     RDKit          3D

 24 23  0  0  1  0  0  0  0  0999 V2000
   18.4158  -12.6280  -18.8214 C   0  0  0  0  0  0  0  0  0  0  0  0
   19.5582  -13.4606  -19.3596 C   0  0  2  0  0  0  0  0  0  0  0  0
   19.0534  -14.3187  -20.5059 C   0  0  0  0  0  0  0  0  0  0  0  0
   20.0913  -14.3038  -18.2220 C   0  0  2  0  0  0  0  0  0  0  0  0
   19.0391  -15.1988  -17.7971 N   0  0  0  0  0  0  0  0  0  0  0  0
   20.5515  -13.4221  -17.1287 C   0  0  0  0  0  0  0  0  0  0  0  0
   19.6782  -13.0634  -16.2849 O   0  0  0  0  0  0  0  0  0  0  0  0
   24.1192  -11.2664  -14.6316 C   0  0  0  0  0  0  0  0  0  0  0  0
   23.7436  -12.2379  -15.7039 C   0  0  1  0  0  0  0  0  0  0  0  0
   24.0556  -13.5497  -15.4206 O   0  0  0  0  0  0  0  0  0  0  0  0
   22.2439  -12.0806  -15.9722 C   0  0  2  0  0  0  0  0  0  0  0  0
   21.8976  -12.9873  -17.0107 N   0  0  0  0  0  0  0  0  0  0  0  0
   21.9783  -10.6609  -16.3175 C   0  0  0  0  0  0  0  0  0  0  0  0
   22.3147  -10.1282  -17.3883 O   0  0  0  0  0  0  0  0  0  0  0  0
   21.2963   -9.8603  -15.3633 N   0  0  0  0  0  0  0  0  0  0  0  0
   21.0506   -8.4091  -15.6108 C   0  0  1  0  0  0  0  0  0  0  0  0
   19.5891   -8.2904  -15.9417 C   0  0  0  0  0  0  0  0  0  0  0  0
   19.1894   -6.8583  -16.1089 C   0  0  0  0  0  0  0  0  0  0  0  0
   17.7197   -6.7787  -16.4379 C   0  0  0  0  0  0  0  0  0  0  0  0
   17.2482   -5.3375  -16.5288 C   0  0  0  0  0  0  0  0  0  0  0  0
   15.8360   -5.2333  -16.7260 N   0  0  0  0  0  0  0  0  0  0  0  0
   21.3139   -7.7250  -14.3291 C   0  0  0  0  0  0  0  0  0  0  0  0
   21.7132   -6.3981  -14.2593 O   0  0  0  0  0  0  0  0  0  0  0  0
   21.1840   -8.3283  -13.2431 O   0  0  0  0  0  0  0  0  0  0  0  0
  2  1  1  1
  2  4  1  0
  3  2  1  0
  4  5  1  1
  6  7  2  0
  6  4  1  0
  9  8  1  1
 10  9  1  0
 11  9  1  0
 11 12  1  6
 12  6  1  0
 13 11  1  0
 14 13  2  0
 15 13  1  0
 16 15  1  0
 16 17  1  1
 17 18  1  0
 19 18  1  0
 20 19  1  0
 21 20  1  0
 22 23  1  0
 22 16  1  0
 24 22  2  0
M  END
$$$$
