VTK.pdb
     RDKit          3D

 24 23  0  0  1  0  0  0  0  0999 V2000
   30.4107  -25.7170  -18.5890 C   0  0  0  0  0  0  0  0  0  0  0  0
   31.2901  -24.5150  -18.3247 C   0  0  2  0  0  0  0  0  0  0  0  0
   32.7389  -24.8913  -18.5780 C   0  0  0  0  0  0  0  0  0  0  0  0
   31.0659  -24.0848  -16.8915 C   0  0  2  0  0  0  0  0  0  0  0  0
   31.4049  -25.1964  -16.0324 N   0  0  0  0  0  0  0  0  0  0  0  0
   29.6629  -23.6527  -16.7204 C   0  0  0  0  0  0  0  0  0  0  0  0
   28.8623  -24.5066  -16.2372 O   0  0  0  0  0  0  0  0  0  0  0  0
   28.4435  -21.0872  -14.5787 C   0  0  0  0  0  0  0  0  0  0  0  0
   27.9215  -20.7106  -15.9279 C   0  0  1  0  0  0  0  0  0  0  0  0
   28.6408  -19.7217  -16.5628 O   0  0  0  0  0  0  0  0  0  0  0  0
   27.8727  -21.9816  -16.7812 C   0  0  2  0  0  0  0  0  0  0  0  0
   29.2134  -22.3531  -17.0725 N   0  0  0  0  0  0  0  0  0  0  0  0
   27.0637  -21.6983  -17.9938 C   0  0  0  0  0  0  0  0  0  0  0  0
   27.5383  -21.5644  -19.1342 O   0  0  0  0  0  0  0  0  0  0  0  0
   25.6575  -21.5720  -17.8412 N   0  0  0  0  0  0  0  0  0  0  0  0
   24.7910  -21.1753  -18.9898 C   0  0  1  0  0  0  0  0  0  0  0  0
   23.4873  -21.8962  -18.7894 C   0  0  0  0  0  0  0  0  0  0  0  0
   22.5358  -21.6093  -19.9078 C   0  0  0  0  0  0  0  0  0  0  0  0
   21.2441  -22.3525  -19.6758 C   0  0  0  0  0  0  0  0  0  0  0  0
   20.2937  -22.1945  -20.8503 C   0  0  0  0  0  0  0  0  0  0  0  0
   19.0053  -22.7585  -20.5938 N   0  0  0  0  0  0  0  0  0  0  0  0
   24.5671  -19.7224  -18.8508 C   0  0  0  0  0  0  0  0  0  0  0  0
   24.7390  -19.0522  -17.6482 O   0  0  0  0  0  0  0  0  0  0  0  0
   24.2085  -19.0336  -19.8291 O   0  0  0  0  0  0  0  0  0  0  0  0
  2  1  1  1
  2  4  1  0
  3  2  1  0
  4  5  1  1
  6  7  2  0
  6  4  1  0
  9  8  1  1
 10  9  1  0
 11  9  1  0
 11 12  1  6
 12  6  1  0
 13 11  1  0
 14 13  2  0
 15 13  1  0
 16 15  1  0
 16 17  1  1
 17 18  1  0
 19 18  1  0
 20 19  1  0
 21 20  1  0
 22 23  1  0
 22 16  1  0
 24 22  2  0
M  END
$$$$
