VTK.pdb
     RDKit          3D

 24 23  0  0  1  0  0  0  0  0999 V2000
   21.5505  -17.6204  -22.2155 C   0  0  0  0  0  0  0  0  0  0  0  0
   22.6913  -17.4183  -23.1880 C   0  0  2  0  0  0  0  0  0  0  0  0
   22.8326  -18.6562  -24.0555 C   0  0  0  0  0  0  0  0  0  0  0  0
   23.9441  -17.1537  -22.3819 C   0  0  2  0  0  0  0  0  0  0  0  0
   24.2346  -18.3373  -21.6050 N   0  0  0  0  0  0  0  0  0  0  0  0
   23.7405  -15.9622  -21.5317 C   0  0  0  0  0  0  0  0  0  0  0  0
   23.1451  -16.1477  -20.4297 O   0  0  0  0  0  0  0  0  0  0  0  0
   25.9963  -14.1467  -19.7306 C   0  0  0  0  0  0  0  0  0  0  0  0
   25.3790  -13.0884  -20.5872 C   0  0  1  0  0  0  0  0  0  0  0  0
   26.1305  -12.7330  -21.6860 O   0  0  0  0  0  0  0  0  0  0  0  0
   23.9926  -13.5814  -21.0121 C   0  0  2  0  0  0  0  0  0  0  0  0
   24.1811  -14.6669  -21.9102 N   0  0  0  0  0  0  0  0  0  0  0  0
   23.2564  -12.4407  -21.6138 C   0  0  0  0  0  0  0  0  0  0  0  0
   23.2262  -12.1933  -22.8310 O   0  0  0  0  0  0  0  0  0  0  0  0
   22.5407  -11.5769  -20.7431 N   0  0  0  0  0  0  0  0  0  0  0  0
   21.6679  -10.4922  -21.2809 C   0  0  1  0  0  0  0  0  0  0  0  0
   20.6265  -10.2416  -20.2263 C   0  0  0  0  0  0  0  0  0  0  0  0
   19.4951  -11.2134  -20.3450 C   0  0  0  0  0  0  0  0  0  0  0  0
   18.4691  -10.9275  -19.2772 C   0  0  0  0  0  0  0  0  0  0  0  0
   17.3655  -11.9714  -19.2737 C   0  0  0  0  0  0  0  0  0  0  0  0
   16.4226  -11.7700  -18.2180 N   0  0  0  0  0  0  0  0  0  0  0  0
   22.5281   -9.2985  -21.4052 C   0  0  0  0  0  0  0  0  0  0  0  0
   23.7594   -9.1967  -20.7740 O   0  0  0  0  0  0  0  0  0  0  0  0
   22.1705   -8.3210  -22.0956 O   0  0  0  0  0  0  0  0  0  0  0  0
  2  1  1  1
  2  4  1  0
  3  2  1  0
  4  5  1  1
  6  7  2  0
  6  4  1  0
  9  8  1  6
 10  9  1  0
 11  9  1  0
 11 12  1  6
 12  6  1  0
 13 11  1  0
 14 13  2  0
 15 13  1  0
 16 15  1  0
 16 17  1  1
 17 18  1  0
 19 18  1  0
 20 19  1  0
 21 20  1  0
 22 23  1  0
 22 16  1  0
 24 22  2  0
M  END
$$$$
