VTK.pdb
     RDKit          3D

 24 23  0  0  1  0  0  0  0  0999 V2000
   22.1122  -13.9262  -17.9467 C   0  0  0  0  0  0  0  0  0  0  0  0
   21.8345  -12.5006  -17.5238 C   0  0  2  0  0  0  0  0  0  0  0  0
   20.9824  -11.8232  -18.5821 C   0  0  0  0  0  0  0  0  0  0  0  0
   23.1658  -11.8037  -17.3467 C   0  0  2  0  0  0  0  0  0  0  0  0
   23.9148  -12.5191  -16.3387 N   0  0  0  0  0  0  0  0  0  0  0  0
   22.9372  -10.3912  -16.9768 C   0  0  0  0  0  0  0  0  0  0  0  0
   22.4437  -10.1788  -15.8301 O   0  0  0  0  0  0  0  0  0  0  0  0
   23.7392   -5.6714  -17.6592 C   0  0  0  0  0  0  0  0  0  0  0  0
   24.0990   -7.0902  -17.9628 C   0  0  1  0  0  0  0  0  0  0  0  0
   25.3227   -7.4870  -17.4692 O   0  0  0  0  0  0  0  0  0  0  0  0
   22.9781   -7.9824  -17.4213 C   0  0  2  0  0  0  0  0  0  0  0  0
   23.2469   -9.3122  -17.8455 N   0  0  0  0  0  0  0  0  0  0  0  0
   21.6817   -7.4565  -17.9194 C   0  0  0  0  0  0  0  0  0  0  0  0
   21.3566   -7.4216  -19.1180 O   0  0  0  0  0  0  0  0  0  0  0  0
   20.7536   -6.9615  -16.9653 N   0  0  0  0  0  0  0  0  0  0  0  0
   19.4186   -6.4439  -17.3866 C   0  0  1  0  0  0  0  0  0  0  0  0
   18.4651   -6.8247  -16.2887 C   0  0  0  0  0  0  0  0  0  0  0  0
   17.0749   -6.3675  -16.6003 C   0  0  0  0  0  0  0  0  0  0  0  0
   16.1569   -6.7270  -15.4589 C   0  0  0  0  0  0  0  0  0  0  0  0
   14.7132   -6.3758  -15.7757 C   0  0  0  0  0  0  0  0  0  0  0  0
   13.8034   -6.8374  -14.7741 N   0  0  0  0  0  0  0  0  0  0  0  0
   19.5449   -4.9734  -17.4298 C   0  0  0  0  0  0  0  0  0  0  0  0
   20.4062   -4.2732  -16.5974 O   0  0  0  0  0  0  0  0  0  0  0  0
   18.8681   -4.2962  -18.2319 O   0  0  0  0  0  0  0  0  0  0  0  0
  2  1  1  6
  2  4  1  0
  3  2  1  0
  4  5  1  1
  6  7  2  0
  6  4  1  0
  9  8  1  1
 10  9  1  0
 11  9  1  0
 11 12  1  6
 12  6  1  0
 13 11  1  0
 14 13  2  0
 15 13  1  0
 16 15  1  0
 16 17  1  1
 17 18  1  0
 19 18  1  0
 20 19  1  0
 21 20  1  0
 22 23  1  0
 22 16  1  0
 24 22  2  0
M  END
$$$$
