VTK.pdb
     RDKit          3D

 24 23  0  0  1  0  0  0  0  0999 V2000
   25.2302  -16.2125  -15.9164 C   0  0  0  0  0  0  0  0  0  0  0  0
   26.5731  -16.2085  -15.2204 C   0  0  2  0  0  0  0  0  0  0  0  0
   27.3529  -14.9778  -15.6475 C   0  0  0  0  0  0  0  0  0  0  0  0
   27.2924  -17.4853  -15.5970 C   0  0  2  0  0  0  0  0  0  0  0  0
   27.4747  -17.4901  -17.0307 N   0  0  0  0  0  0  0  0  0  0  0  0
   26.5100  -18.6483  -15.1284 C   0  0  0  0  0  0  0  0  0  0  0  0
   25.7487  -19.1981  -15.9779 O   0  0  0  0  0  0  0  0  0  0  0  0
   25.5057  -21.9571  -11.6932 C   0  0  0  0  0  0  0  0  0  0  0  0
   26.4026  -20.8535  -12.1539 C   0  0  1  0  0  0  0  0  0  0  0  0
   27.7092  -21.2331  -12.3718 O   0  0  0  0  0  0  0  0  0  0  0  0
   25.7909  -20.2538  -13.4235 C   0  0  2  0  0  0  0  0  0  0  0  0
   26.5913  -19.1409  -13.7997 N   0  0  0  0  0  0  0  0  0  0  0  0
   24.3795  -19.8931  -13.1355 C   0  0  0  0  0  0  0  0  0  0  0  0
   24.0352  -18.9795  -12.3672 O   0  0  0  0  0  0  0  0  0  0  0  0
   23.3572  -20.6397  -13.7791 N   0  0  0  0  0  0  0  0  0  0  0  0
   21.9164  -20.3104  -13.5712 C   0  0  1  0  0  0  0  0  0  0  0  0
   21.3531  -20.0483  -14.9400 C   0  0  0  0  0  0  0  0  0  0  0  0
   19.8791  -19.7994  -14.8772 C   0  0  0  0  0  0  0  0  0  0  0  0
   19.3501  -19.5431  -16.2661 C   0  0  0  0  0  0  0  0  0  0  0  0
   17.8548  -19.2759  -16.2503 C   0  0  0  0  0  0  0  0  0  0  0  0
   17.2995  -19.1839  -17.5646 N   0  0  0  0  0  0  0  0  0  0  0  0
   21.2939  -21.5291  -13.0168 C   0  0  0  0  0  0  0  0  0  0  0  0
   20.1655  -21.4904  -12.2104 O   0  0  0  0  0  0  0  0  0  0  0  0
   21.7703  -22.6581  -13.2589 O   0  0  0  0  0  0  0  0  0  0  0  0
  2  1  1  6
  2  4  1  0
  3  2  1  0
  4  5  1  6
  6  7  2  0
  6  4  1  0
  9  8  1  6
 10  9  1  0
 11  9  1  0
 11 12  1  1
 12  6  1  0
 13 11  1  0
 14 13  2  0
 15 13  1  0
 16 15  1  0
 16 17  1  6
 17 18  1  0
 19 18  1  0
 20 19  1  0
 21 20  1  0
 22 23  1  0
 22 16  1  0
 24 22  2  0
M  END
$$$$
