VTK.pdb
     RDKit          3D

 24 23  0  0  1  0  0  0  0  0999 V2000
   18.2977  -15.5069  -20.1887 C   0  0  0  0  0  0  0  0  0  0  0  0
   19.6283  -15.2933  -20.8755 C   0  0  2  0  0  0  0  0  0  0  0  0
   20.4390  -16.5749  -20.8024 C   0  0  0  0  0  0  0  0  0  0  0  0
   20.3290  -14.1474  -20.1789 C   0  0  2  0  0  0  0  0  0  0  0  0
   20.6166  -14.5566  -18.8229 N   0  0  0  0  0  0  0  0  0  0  0  0
   19.4744  -12.9427  -20.2305 C   0  0  0  0  0  0  0  0  0  0  0  0
   19.3056  -12.4165  -21.3699 O   0  0  0  0  0  0  0  0  0  0  0  0
   15.9400  -12.4030  -19.5564 C   0  0  0  0  0  0  0  0  0  0  0  0
   16.6897  -11.5409  -18.5923 C   0  0  1  0  0  0  0  0  0  0  0  0
   16.8359  -12.0845  -17.3347 O   0  0  0  0  0  0  0  0  0  0  0  0
   18.0547  -11.2259  -19.2114 C   0  0  2  0  0  0  0  0  0  0  0  0
   18.8641  -12.3866  -19.0759 N   0  0  0  0  0  0  0  0  0  0  0  0
   18.6146  -10.0345  -18.5242 C   0  0  0  0  0  0  0  0  0  0  0  0
   19.3510  -10.0867  -17.5249 O   0  0  0  0  0  0  0  0  0  0  0  0
   18.2879   -8.7531  -19.0416 N   0  0  0  0  0  0  0  0  0  0  0  0
   18.7151   -7.5074  -18.3392 C   0  0  1  0  0  0  0  0  0  0  0  0
   18.3411   -6.3725  -19.2512 C   0  0  0  0  0  0  0  0  0  0  0  0
   18.7123   -5.0537  -18.6499 C   0  0  0  0  0  0  0  0  0  0  0  0
   18.2332   -3.9376  -19.5441 C   0  0  0  0  0  0  0  0  0  0  0  0
   18.6018   -2.5764  -18.9794 C   0  0  0  0  0  0  0  0  0  0  0  0
   17.9950   -1.5006  -19.6994 N   0  0  0  0  0  0  0  0  0  0  0  0
   17.8997   -7.4301  -17.1107 C   0  0  0  0  0  0  0  0  0  0  0  0
   18.4349   -7.0767  -15.8804 O   0  0  0  0  0  0  0  0  0  0  0  0
   16.6772   -7.6849  -17.1368 O   0  0  0  0  0  0  0  0  0  0  0  0
  2  1  1  1
  2  4  1  0
  3  2  1  0
  4  5  1  1
  6  7  2  0
  6  4  1  0
  9  8  1  6
 10  9  1  0
 11  9  1  0
 11 12  1  1
 12  6  1  0
 13 11  1  0
 14 13  2  0
 15 13  1  0
 16 15  1  0
 16 17  1  6
 17 18  1  0
 19 18  1  0
 20 19  1  0
 21 20  1  0
 22 23  1  0
 22 16  1  0
 24 22  2  0
M  END
$$$$
