FHP.pdb
     RDKit          3D

 29 31  0  0  1  0  0  0  0  0999 V2000
   22.7914   -4.1060  -20.0167 N   0  0  0  0  0  0  0  0  0  0  0  0
   21.9500   -4.3811  -18.8874 C   0  0  1  0  0  0  0  0  0  0  0  0
   20.5211   -3.9480  -19.1766 C   0  0  0  0  0  0  0  0  0  0  0  0
   20.3944   -2.4845  -19.2628 C   0  0  0  0  0  0  0  0  0  0  0  0
   20.4372   -1.8829  -20.4956 C   0  0  0  0  0  0  0  0  0  0  0  0
   20.3204   -0.5214  -20.5862 C   0  0  0  0  0  0  0  0  0  0  0  0
   20.1600    0.2624  -19.4597 C   0  0  0  0  0  0  0  0  0  0  0  0
   20.1189   -0.3457  -18.2411 C   0  0  0  0  0  0  0  0  0  0  0  0
   20.2354   -1.7127  -18.1415 C   0  0  0  0  0  0  0  0  0  0  0  0
   21.9045   -5.8226  -18.5341 C   0  0  0  0  0  0  0  0  0  0  0  0
   21.7957   -6.6469  -19.4739 O   0  0  0  0  0  0  0  0  0  0  0  0
   21.9749   -6.3231  -17.2225 N   0  0  0  0  0  0  0  0  0  0  0  0
   21.9458   -7.7502  -16.8989 C   0  0  1  0  0  0  0  0  0  0  0  0
   23.0065   -7.8931  -15.8144 C   0  0  0  0  0  0  0  0  0  0  0  0
   23.1366   -9.3125  -15.3795 C   0  0  0  0  0  0  0  0  0  0  0  0
   22.4048  -10.3701  -15.8553 C   0  0  0  0  0  0  0  0  0  0  0  0
   22.8080  -11.4755  -15.2238 N   0  0  0  0  0  0  0  0  0  0  0  0
   23.7761  -11.1141  -14.3673 C   0  0  0  0  0  0  0  0  0  0  0  0
   23.9801   -9.7917  -14.4594 N   0  0  0  0  0  0  0  0  0  0  0  0
   20.5960   -8.1141  -16.4497 C   0  0  0  0  0  0  0  0  0  0  0  0
   19.9992   -7.2622  -15.6850 O   0  0  0  0  0  0  0  0  0  0  0  0
   19.9016   -9.2836  -16.7693 N   0  0  0  0  0  0  0  0  0  0  0  0
   20.4124  -10.3716  -17.5631 C   0  0  0  0  0  0  0  0  0  0  0  0
   19.1937  -10.8557  -18.2994 C   0  0  0  0  0  0  0  0  0  0  0  0
   18.0022  -10.0804  -17.7194 C   0  0  0  0  0  0  0  0  0  0  0  0
   18.5851   -9.6709  -16.3668 C   0  0  1  0  0  0  0  0  0  0  0  0
   18.5713  -10.7956  -15.4144 C   0  0  0  0  0  0  0  0  0  0  0  0
   17.4955  -11.1540  -14.8996 O   0  0  0  0  0  0  0  0  0  0  0  0
   19.7399  -11.4395  -15.1004 O   0  0  0  0  0  0  0  0  0  0  0  0
  2  1  1  6
  2 10  1  0
  2  3  1  0
  4  3  1  0
  4  9  1  0
  5  4  2  0
  6  5  1  0
  6  7  2  0
  7  8  1  0
  8  9  2  0
 10 11  2  0
 12 13  1  0
 12 10  1  0
 13 14  1  1
 14 15  1  0
 15 19  1  0
 15 16  2  0
 16 17  1  0
 18 17  1  0
 19 18  2  0
 20 13  1  0
 21 20  2  0
 22 20  1  0
 23 22  1  0
 24 25  1  0
 24 23  1  0
 25 26  1  0
 26 22  1  0
 26 27  1  1
 28 27  2  0
 29 27  1  0
M  END
$$$$
