FHP.pdb
     RDKit          3D

 29 31  0  0  1  0  0  0  0  0999 V2000
   26.7555  -35.5090   -2.6452 N   0  0  0  0  0  0  0  0  0  0  0  0
   27.7526  -34.9662   -1.7677 C   0  0  1  0  0  0  0  0  0  0  0  0
   28.0903  -33.5395   -2.1718 C   0  0  0  0  0  0  0  0  0  0  0  0
   26.8835  -32.7197   -2.3638 C   0  0  0  0  0  0  0  0  0  0  0  0
   26.3046  -32.6660   -3.6070 C   0  0  0  0  0  0  0  0  0  0  0  0
   25.1814  -31.9056   -3.7959 C   0  0  0  0  0  0  0  0  0  0  0  0
   24.6164  -31.1888   -2.7585 C   0  0  0  0  0  0  0  0  0  0  0  0
   25.1996  -31.2495   -1.5286 C   0  0  0  0  0  0  0  0  0  0  0  0
   26.3280  -32.0110   -1.3307 C   0  0  0  0  0  0  0  0  0  0  0  0
   27.3175  -34.9248   -0.3486 C   0  0  0  0  0  0  0  0  0  0  0  0
   26.0870  -34.8311   -0.1218 O   0  0  0  0  0  0  0  0  0  0  0  0
   28.1887  -34.9834    0.7529 N   0  0  0  0  0  0  0  0  0  0  0  0
   27.7358  -34.9563    2.1444 C   0  0  1  0  0  0  0  0  0  0  0  0
   27.9069  -36.3988    2.6047 C   0  0  0  0  0  0  0  0  0  0  0  0
   26.8097  -37.2597    2.0796 C   0  0  0  0  0  0  0  0  0  0  0  0
   26.9189  -38.1694    1.0593 C   0  0  0  0  0  0  0  0  0  0  0  0
   25.7256  -38.7413    0.8794 N   0  0  0  0  0  0  0  0  0  0  0  0
   24.8847  -38.1976    1.7729 C   0  0  0  0  0  0  0  0  0  0  0  0
   25.5438  -37.2907    2.5091 N   0  0  0  0  0  0  0  0  0  0  0  0
   28.5556  -33.9997    2.8986 C   0  0  0  0  0  0  0  0  0  0  0  0
   29.7457  -33.7857    2.4461 O   0  0  0  0  0  0  0  0  0  0  0  0
   28.1733  -33.3038    4.0482 N   0  0  0  0  0  0  0  0  0  0  0  0
   26.9338  -33.4787    4.7608 C   0  0  0  0  0  0  0  0  0  0  0  0
   26.6260  -32.0909    5.2519 C   0  0  0  0  0  0  0  0  0  0  0  0
   27.8492  -31.2295    4.9070 C   0  0  0  0  0  0  0  0  0  0  0  0
   28.9129  -32.3195    4.7758 C   0  0  1  0  0  0  0  0  0  0  0  0
   29.3671  -32.7873    6.0975 C   0  0  0  0  0  0  0  0  0  0  0  0
   28.9779  -33.8890    6.5285 O   0  0  0  0  0  0  0  0  0  0  0  0
   30.2131  -32.0092    6.8442 O   0  0  0  0  0  0  0  0  0  0  0  0
  2  1  1  6
  2 10  1  0
  2  3  1  0
  4  3  1  0
  4  9  1  0
  5  4  2  0
  6  5  1  0
  6  7  2  0
  7  8  1  0
  8  9  2  0
 10 11  2  0
 12 13  1  0
 12 10  1  0
 13 14  1  1
 14 15  1  0
 15 19  1  0
 15 16  2  0
 16 17  1  0
 18 17  1  0
 19 18  2  0
 20 13  1  0
 21 20  2  0
 22 20  1  0
 23 22  1  0
 24 25  1  0
 24 23  1  0
 25 26  1  0
 26 22  1  0
 26 27  1  1
 28 27  2  0
 29 27  1  0
M  END
$$$$
