FHP.pdb
     RDKit          3D

 29 31  0  0  1  0  0  0  0  0999 V2000
   29.3092  -23.1303  -18.5205 N   0  0  0  0  0  0  0  0  0  0  0  0
   28.1245  -23.3892  -17.7534 C   0  0  1  0  0  0  0  0  0  0  0  0
   28.1671  -24.7955  -17.1760 C   0  0  0  0  0  0  0  0  0  0  0  0
   26.8459  -25.4429  -17.2015 C   0  0  0  0  0  0  0  0  0  0  0  0
   26.1289  -25.5414  -16.0354 C   0  0  0  0  0  0  0  0  0  0  0  0
   24.8985  -26.1425  -16.0486 C   0  0  0  0  0  0  0  0  0  0  0  0
   24.3614  -26.6539  -17.2145 C   0  0  0  0  0  0  0  0  0  0  0  0
   25.0820  -26.5505  -18.3662 C   0  0  0  0  0  0  0  0  0  0  0  0
   26.3187  -25.9481  -18.3613 C   0  0  0  0  0  0  0  0  0  0  0  0
   27.9561  -22.4551  -16.6114 C   0  0  0  0  0  0  0  0  0  0  0  0
   28.9608  -22.2280  -15.8948 O   0  0  0  0  0  0  0  0  0  0  0  0
   26.7511  -21.8111  -16.2811 N   0  0  0  0  0  0  0  0  0  0  0  0
   26.6093  -20.8908  -15.1520 C   0  0  1  0  0  0  0  0  0  0  0  0
   26.1636  -19.5884  -15.8055 C   0  0  0  0  0  0  0  0  0  0  0  0
   27.3093  -18.9069  -16.4717 C   0  0  0  0  0  0  0  0  0  0  0  0
   27.5057  -18.8003  -17.8247 C   0  0  0  0  0  0  0  0  0  0  0  0
   28.6385  -18.1237  -18.0307 N   0  0  0  0  0  0  0  0  0  0  0  0
   29.1414  -17.8128  -16.8259 C   0  0  0  0  0  0  0  0  0  0  0  0
   28.3313  -18.2901  -15.8694 N   0  0  0  0  0  0  0  0  0  0  0  0
   25.6280  -21.4373  -14.2062 C   0  0  0  0  0  0  0  0  0  0  0  0
   24.8894  -22.4020  -14.6428 O   0  0  0  0  0  0  0  0  0  0  0  0
   25.4203  -21.0176  -12.8899 N   0  0  0  0  0  0  0  0  0  0  0  0
   26.1146  -19.9392  -12.2343 C   0  0  0  0  0  0  0  0  0  0  0  0
   26.2209  -20.4186  -10.8128 C   0  0  0  0  0  0  0  0  0  0  0  0
   25.3992  -21.7129  -10.7308 C   0  0  0  0  0  0  0  0  0  0  0  0
   24.4799  -21.5204  -11.9370 C   0  0  1  0  0  0  0  0  0  0  0  0
   23.3902  -20.5751  -11.6352 C   0  0  0  0  0  0  0  0  0  0  0  0
   23.4420  -19.4127  -12.0794 O   0  0  0  0  0  0  0  0  0  0  0  0
   22.3281  -20.9788  -10.8685 O   0  0  0  0  0  0  0  0  0  0  0  0
  2  1  1  1
  2 10  1  0
  2  3  1  0
  4  3  1  0
  4  9  1  0
  5  4  2  0
  6  5  1  0
  6  7  2  0
  7  8  1  0
  8  9  2  0
 10 11  2  0
 12 13  1  0
 12 10  1  0
 13 14  1  6
 14 15  1  0
 15 19  1  0
 15 16  2  0
 16 17  1  0
 18 17  1  0
 19 18  2  0
 20 13  1  0
 21 20  2  0
 22 20  1  0
 23 22  1  0
 24 25  1  0
 24 23  1  0
 25 26  1  0
 26 22  1  0
 26 27  1  1
 28 27  2  0
 29 27  1  0
M  END
$$$$
