FHP.pdb
     RDKit          3D

 29 31  0  0  1  0  0  0  0  0999 V2000
   11.4329   -6.5912   -9.9354 N   0  0  0  0  0  0  0  0  0  0  0  0
   11.5131   -6.8935   -8.5350 C   0  0  1  0  0  0  0  0  0  0  0  0
   12.6115   -6.0706   -7.8800 C   0  0  0  0  0  0  0  0  0  0  0  0
   13.9457   -6.4254   -8.3895 C   0  0  0  0  0  0  0  0  0  0  0  0
   14.6225   -5.5233   -9.1716 C   0  0  0  0  0  0  0  0  0  0  0  0
   15.8645   -5.8443   -9.6509 C   0  0  0  0  0  0  0  0  0  0  0  0
   16.4531   -7.0609   -9.3632 C   0  0  0  0  0  0  0  0  0  0  0  0
   15.7720   -7.9487   -8.5858 C   0  0  0  0  0  0  0  0  0  0  0  0
   14.5240   -7.6338   -8.1005 C   0  0  0  0  0  0  0  0  0  0  0  0
   10.2545   -6.5992   -7.8040 C   0  0  0  0  0  0  0  0  0  0  0  0
    9.5999   -5.5895   -8.1595 O   0  0  0  0  0  0  0  0  0  0  0  0
    9.7499   -7.3731   -6.7447 N   0  0  0  0  0  0  0  0  0  0  0  0
    8.4764   -7.0985   -6.0777 C   0  0  1  0  0  0  0  0  0  0  0  0
    8.0176   -8.4717   -5.6028 C   0  0  0  0  0  0  0  0  0  0  0  0
    7.6069   -9.3243   -6.7540 C   0  0  0  0  0  0  0  0  0  0  0  0
    6.4065   -9.2615   -7.4139 C   0  0  0  0  0  0  0  0  0  0  0  0
    6.4130  -10.1810   -8.3823 N   0  0  0  0  0  0  0  0  0  0  0  0
    7.5984  -10.8081   -8.3281 C   0  0  0  0  0  0  0  0  0  0  0  0
    8.3317  -10.2870   -7.3333 N   0  0  0  0  0  0  0  0  0  0  0  0
    8.7020   -6.1455   -4.9837 C   0  0  0  0  0  0  0  0  0  0  0  0
    9.8822   -6.1454   -4.4602 O   0  0  0  0  0  0  0  0  0  0  0  0
    7.7699   -5.2456   -4.4608 N   0  0  0  0  0  0  0  0  0  0  0  0
    6.3986   -5.1191   -4.8829 C   0  0  0  0  0  0  0  0  0  0  0  0
    6.1339   -3.6456   -4.7390 C   0  0  0  0  0  0  0  0  0  0  0  0
    7.3751   -3.0479   -4.0612 C   0  0  0  0  0  0  0  0  0  0  0  0
    7.9465   -4.3024   -3.4005 C   0  0  1  0  0  0  0  0  0  0  0  0
    7.2019   -4.6506   -2.1772 C   0  0  0  0  0  0  0  0  0  0  0  0
    7.3389   -3.9549   -1.1533 O   0  0  0  0  0  0  0  0  0  0  0  0
    6.3650   -5.7361   -2.1723 O   0  0  0  0  0  0  0  0  0  0  0  0
  2  1  1  6
  2 10  1  0
  2  3  1  0
  4  3  1  0
  4  9  1  0
  5  4  2  0
  6  5  1  0
  6  7  2  0
  7  8  1  0
  8  9  2  0
 10 11  2  0
 12 13  1  0
 12 10  1  0
 13 14  1  1
 14 15  1  0
 15 19  1  0
 15 16  2  0
 16 17  1  0
 18 17  1  0
 19 18  2  0
 20 13  1  0
 21 20  2  0
 22 20  1  0
 23 22  1  0
 24 25  1  0
 24 23  1  0
 25 26  1  0
 26 22  1  0
 26 27  1  1
 28 27  2  0
 29 27  1  0
M  END
$$$$
