FHP.pdb
     RDKit          3D

 29 31  0  0  1  0  0  0  0  0999 V2000
   16.6060  -12.6272    5.6866 N   0  0  0  0  0  0  0  0  0  0  0  0
   16.9351  -13.8580    5.0265 C   0  0  1  0  0  0  0  0  0  0  0  0
   18.2785  -13.7367    4.3239 C   0  0  0  0  0  0  0  0  0  0  0  0
   19.2899  -13.0893    5.1745 C   0  0  0  0  0  0  0  0  0  0  0  0
   19.4497  -11.7282    5.1023 C   0  0  0  0  0  0  0  0  0  0  0  0
   20.3885  -11.1164    5.8895 C   0  0  0  0  0  0  0  0  0  0  0  0
   21.1811  -11.8423    6.7579 C   0  0  0  0  0  0  0  0  0  0  0  0
   21.0138  -13.1930    6.8212 C   0  0  0  0  0  0  0  0  0  0  0  0
   20.0729  -13.8151    6.0338 C   0  0  0  0  0  0  0  0  0  0  0  0
   17.0345  -15.0091    5.9592 C   0  0  0  0  0  0  0  0  0  0  0  0
   17.3958  -14.7717    7.1371 O   0  0  0  0  0  0  0  0  0  0  0  0
   16.7520  -16.3415    5.6118 N   0  0  0  0  0  0  0  0  0  0  0  0
   16.8457  -17.4595    6.5518 C   0  0  1  0  0  0  0  0  0  0  0  0
   15.9373  -18.5188    5.9397 C   0  0  0  0  0  0  0  0  0  0  0  0
   15.8382  -19.7128    6.8260 C   0  0  0  0  0  0  0  0  0  0  0  0
   16.3257  -20.9640    6.5478 C   0  0  0  0  0  0  0  0  0  0  0  0
   16.0427  -21.7622    7.5804 N   0  0  0  0  0  0  0  0  0  0  0  0
   15.3891  -21.0214    8.4889 C   0  0  0  0  0  0  0  0  0  0  0  0
   15.2619  -19.7671    8.0313 N   0  0  0  0  0  0  0  0  0  0  0  0
   18.2480  -17.8815    6.6592 C   0  0  0  0  0  0  0  0  0  0  0  0
   18.9937  -17.6537    5.6302 O   0  0  0  0  0  0  0  0  0  0  0  0
   18.8473  -18.4991    7.7598 N   0  0  0  0  0  0  0  0  0  0  0  0
   18.1951  -18.8065    9.0068 C   0  0  0  0  0  0  0  0  0  0  0  0
   19.2889  -18.6081   10.0197 C   0  0  0  0  0  0  0  0  0  0  0  0
   20.5755  -18.3530    9.2218 C   0  0  0  0  0  0  0  0  0  0  0  0
   20.1874  -18.9828    7.8840 C   0  0  1  0  0  0  0  0  0  0  0  0
   20.2765  -20.4529    7.9376 C   0  0  0  0  0  0  0  0  0  0  0  0
   19.2372  -21.1295    8.0524 O   0  0  0  0  0  0  0  0  0  0  0  0
   21.4997  -21.0666    7.8615 O   0  0  0  0  0  0  0  0  0  0  0  0
  2  1  1  1
  2 10  1  0
  2  3  1  0
  4  3  1  0
  4  9  1  0
  5  4  2  0
  6  5  1  0
  6  7  2  0
  7  8  1  0
  8  9  2  0
 10 11  2  0
 12 13  1  0
 12 10  1  0
 13 14  1  6
 14 15  1  0
 15 19  1  0
 15 16  2  0
 16 17  1  0
 18 17  1  0
 19 18  2  0
 20 13  1  0
 21 20  2  0
 22 20  1  0
 23 22  1  0
 24 25  1  0
 24 23  1  0
 25 26  1  0
 26 22  1  0
 26 27  1  1
 28 27  2  0
 29 27  1  0
M  END
$$$$
