FHP.pdb
     RDKit          3D

 29 31  0  0  1  0  0  0  0  0999 V2000
   22.3993  -20.2754  -17.9340 N   0  0  0  0  0  0  0  0  0  0  0  0
   22.5067  -19.4757  -16.7474 C   0  0  1  0  0  0  0  0  0  0  0  0
   21.2510  -19.6165  -15.9012 C   0  0  0  0  0  0  0  0  0  0  0  0
   20.0967  -18.9351  -16.5084 C   0  0  0  0  0  0  0  0  0  0  0  0
   19.9737  -17.5757  -16.3652 C   0  0  0  0  0  0  0  0  0  0  0  0
   18.9029  -16.9323  -16.9263 C   0  0  0  0  0  0  0  0  0  0  0  0
   17.9403  -17.6244  -17.6360 C   0  0  0  0  0  0  0  0  0  0  0  0
   18.0726  -18.9737  -17.7718 C   0  0  0  0  0  0  0  0  0  0  0  0
   19.1453  -19.6274  -17.2112 C   0  0  0  0  0  0  0  0  0  0  0  0
   23.6553  -19.8614  -15.8888 C   0  0  0  0  0  0  0  0  0  0  0  0
   23.8727  -21.0865  -15.7269 O   0  0  0  0  0  0  0  0  0  0  0  0
   24.5114  -18.9491  -15.2480 N   0  0  0  0  0  0  0  0  0  0  0  0
   25.6109  -19.3519  -14.3699 C   0  0  1  0  0  0  0  0  0  0  0  0
   26.5267  -18.1340  -14.3615 C   0  0  0  0  0  0  0  0  0  0  0  0
   27.2767  -18.0221  -15.6444 C   0  0  0  0  0  0  0  0  0  0  0  0
   28.3818  -18.7536  -15.9969 C   0  0  0  0  0  0  0  0  0  0  0  0
   28.7670  -18.3682  -17.2161 N   0  0  0  0  0  0  0  0  0  0  0  0
   27.9163  -17.4113  -17.6185 C   0  0  0  0  0  0  0  0  0  0  0  0
   27.0031  -17.1966  -16.6600 N   0  0  0  0  0  0  0  0  0  0  0  0
   25.0711  -19.6880  -13.0464 C   0  0  0  0  0  0  0  0  0  0  0  0
   23.8894  -19.2411  -12.7809 O   0  0  0  0  0  0  0  0  0  0  0  0
   25.7083  -20.4402  -12.0564 N   0  0  0  0  0  0  0  0  0  0  0  0
   27.0744  -20.8950  -12.0979 C   0  0  0  0  0  0  0  0  0  0  0  0
   27.0095  -22.2279  -11.4044 C   0  0  0  0  0  0  0  0  0  0  0  0
   25.5827  -22.3590  -10.8530 C   0  0  0  0  0  0  0  0  0  0  0  0
   25.1808  -20.8848  -10.8037 C   0  0  1  0  0  0  0  0  0  0  0  0
   25.7799  -20.2044   -9.6416 C   0  0  0  0  0  0  0  0  0  0  0  0
   25.2959  -20.3801   -8.5077 O   0  0  0  0  0  0  0  0  0  0  0  0
   26.8637  -19.3832   -9.8145 O   0  0  0  0  0  0  0  0  0  0  0  0
  2  1  1  6
  2 10  1  0
  2  3  1  0
  4  3  1  0
  4  9  1  0
  5  4  2  0
  6  5  1  0
  6  7  2  0
  7  8  1  0
  8  9  2  0
 10 11  2  0
 12 13  1  0
 12 10  1  0
 13 14  1  1
 14 15  1  0
 15 19  1  0
 15 16  2  0
 16 17  1  0
 18 17  1  0
 19 18  2  0
 20 13  1  0
 21 20  2  0
 22 20  1  0
 23 22  1  0
 24 25  1  0
 24 23  1  0
 25 26  1  0
 26 22  1  0
 26 27  1  1
 28 27  2  0
 29 27  1  0
M  END
$$$$
