FHP.pdb
     RDKit          3D

 29 31  0  0  1  0  0  0  0  0999 V2000
   25.9069  -11.1896  -18.4713 N   0  0  0  0  0  0  0  0  0  0  0  0
   25.4453  -10.7661  -17.1804 C   0  0  1  0  0  0  0  0  0  0  0  0
   26.3036   -9.6223  -16.6627 C   0  0  0  0  0  0  0  0  0  0  0  0
   27.7275   -9.9872  -16.5951 C   0  0  0  0  0  0  0  0  0  0  0  0
   28.1135  -11.0188  -15.7763 C   0  0  0  0  0  0  0  0  0  0  0  0
   29.4364  -11.3658  -15.7062 C   0  0  0  0  0  0  0  0  0  0  0  0
   30.3944  -10.6976  -16.4444 C   0  0  0  0  0  0  0  0  0  0  0  0
   29.9998   -9.6751  -17.2539 C   0  0  0  0  0  0  0  0  0  0  0  0
   28.6728   -9.3204  -17.3299 C   0  0  0  0  0  0  0  0  0  0  0  0
   24.0409  -10.2840  -17.1948 C   0  0  0  0  0  0  0  0  0  0  0  0
   23.6076   -9.7918  -18.2646 O   0  0  0  0  0  0  0  0  0  0  0  0
   23.1682  -10.3422  -16.0944 N   0  0  0  0  0  0  0  0  0  0  0  0
   21.7779   -9.8871  -16.1400 C   0  0  1  0  0  0  0  0  0  0  0  0
   21.0837  -10.7518  -15.0949 C   0  0  0  0  0  0  0  0  0  0  0  0
   19.6275  -10.4422  -15.0287 C   0  0  0  0  0  0  0  0  0  0  0  0
   18.9847   -9.8143  -13.9928 C   0  0  0  0  0  0  0  0  0  0  0  0
   17.6888   -9.7190  -14.3012 N   0  0  0  0  0  0  0  0  0  0  0  0
   17.5249  -10.2784  -15.5101 C   0  0  0  0  0  0  0  0  0  0  0  0
   18.7085  -10.7220  -15.9587 N   0  0  0  0  0  0  0  0  0  0  0  0
   21.7317   -8.4511  -15.8367 C   0  0  0  0  0  0  0  0  0  0  0  0
   22.6069   -8.0168  -14.9928 O   0  0  0  0  0  0  0  0  0  0  0  0
   20.8395   -7.5179  -16.3708 N   0  0  0  0  0  0  0  0  0  0  0  0
   19.7617   -7.8132  -17.2796 C   0  0  0  0  0  0  0  0  0  0  0  0
   19.7163   -6.5944  -18.1594 C   0  0  0  0  0  0  0  0  0  0  0  0
   20.7039   -5.5870  -17.5535 C   0  0  0  0  0  0  0  0  0  0  0  0
   20.7715   -6.1118  -16.1192 C   0  0  1  0  0  0  0  0  0  0  0  0
   19.5823   -5.7124  -15.3455 C   0  0  0  0  0  0  0  0  0  0  0  0
   19.4725   -4.5377  -14.9468 O   0  0  0  0  0  0  0  0  0  0  0  0
   18.6059   -6.6338  -15.0690 O   0  0  0  0  0  0  0  0  0  0  0  0
  2  1  1  6
  2 10  1  0
  2  3  1  0
  4  3  1  0
  4  9  1  0
  5  4  2  0
  6  5  1  0
  6  7  2  0
  7  8  1  0
  8  9  2  0
 10 11  2  0
 12 13  1  0
 12 10  1  0
 13 14  1  1
 14 15  1  0
 15 19  1  0
 15 16  2  0
 16 17  1  0
 18 17  1  0
 19 18  2  0
 20 13  1  0
 21 20  2  0
 22 20  1  0
 23 22  1  0
 24 25  1  0
 24 23  1  0
 25 26  1  0
 26 22  1  0
 26 27  1  1
 28 27  2  0
 29 27  1  0
M  END
$$$$
