FHP.pdb
     RDKit          3D

 29 31  0  0  1  0  0  0  0  0999 V2000
   27.1541  -21.9974  -16.2568 N   0  0  0  0  0  0  0  0  0  0  0  0
   25.9833  -21.4354  -16.8670 C   0  0  1  0  0  0  0  0  0  0  0  0
   25.4386  -22.3775  -17.9294 C   0  0  0  0  0  0  0  0  0  0  0  0
   26.3202  -22.4524  -19.1053 C   0  0  0  0  0  0  0  0  0  0  0  0
   26.3114  -21.4224  -20.0122 C   0  0  0  0  0  0  0  0  0  0  0  0
   27.1280  -21.4830  -21.1099 C   0  0  0  0  0  0  0  0  0  0  0  0
   27.9634  -22.5623  -21.3250 C   0  0  0  0  0  0  0  0  0  0  0  0
   27.9639  -23.5791  -20.4180 C   0  0  0  0  0  0  0  0  0  0  0  0
   27.1466  -23.5259  -19.3128 C   0  0  0  0  0  0  0  0  0  0  0  0
   24.8844  -21.1898  -15.8989 C   0  0  0  0  0  0  0  0  0  0  0  0
   24.8248  -21.9318  -14.8888 O   0  0  0  0  0  0  0  0  0  0  0  0
   23.9107  -20.1858  -16.0383 N   0  0  0  0  0  0  0  0  0  0  0  0
   22.8455  -19.9513  -15.0622 C   0  0  1  0  0  0  0  0  0  0  0  0
   22.5752  -18.4563  -15.1795 C   0  0  0  0  0  0  0  0  0  0  0  0
   21.3886  -18.0638  -14.3679 C   0  0  0  0  0  0  0  0  0  0  0  0
   20.1049  -17.9313  -14.8314 C   0  0  0  0  0  0  0  0  0  0  0  0
   19.3268  -17.5662  -13.8093 N   0  0  0  0  0  0  0  0  0  0  0  0
   20.1119  -17.4723  -12.7248 C   0  0  0  0  0  0  0  0  0  0  0  0
   21.3740  -17.7758  -13.0622 N   0  0  0  0  0  0  0  0  0  0  0  0
   21.6864  -20.7848  -15.4056 C   0  0  0  0  0  0  0  0  0  0  0  0
   21.5065  -21.0238  -16.6615 O   0  0  0  0  0  0  0  0  0  0  0  0
   20.7688  -21.3404  -14.5105 N   0  0  0  0  0  0  0  0  0  0  0  0
   20.7807  -21.1651  -13.0809 C   0  0  0  0  0  0  0  0  0  0  0  0
   20.2831  -22.4901  -12.5724 C   0  0  0  0  0  0  0  0  0  0  0  0
   19.8520  -23.2928  -13.8081 C   0  0  0  0  0  0  0  0  0  0  0  0
   19.6274  -22.1518  -14.8005 C   0  0  1  0  0  0  0  0  0  0  0  0
   18.3453  -21.4690  -14.5513 C   0  0  0  0  0  0  0  0  0  0  0  0
   17.2758  -22.0793  -14.7376 O   0  0  0  0  0  0  0  0  0  0  0  0
   18.3364  -20.1689  -14.1174 O   0  0  0  0  0  0  0  0  0  0  0  0
  2  1  1  1
  2 10  1  0
  2  3  1  0
  4  3  1  0
  4  9  1  0
  5  4  2  0
  6  5  1  0
  6  7  2  0
  7  8  1  0
  8  9  2  0
 10 11  2  0
 12 13  1  0
 12 10  1  0
 13 14  1  6
 14 15  1  0
 15 19  1  0
 15 16  2  0
 16 17  1  0
 18 17  1  0
 19 18  2  0
 20 13  1  0
 21 20  2  0
 22 20  1  0
 23 22  1  0
 24 25  1  0
 24 23  1  0
 25 26  1  0
 26 22  1  0
 26 27  1  1
 28 27  2  0
 29 27  1  0
M  END
$$$$
