FHP.pdb
     RDKit          3D

 29 31  0  0  1  0  0  0  0  0999 V2000
   28.4002  -20.8074   -8.9752 N   0  0  0  0  0  0  0  0  0  0  0  0
   26.9760  -20.6474   -8.9062 C   0  0  1  0  0  0  0  0  0  0  0  0
   26.6206  -19.4645   -8.0189 C   0  0  0  0  0  0  0  0  0  0  0  0
   27.2627  -19.5528   -6.6977 C   0  0  0  0  0  0  0  0  0  0  0  0
   26.6010  -20.1860   -5.6757 C   0  0  0  0  0  0  0  0  0  0  0  0
   27.1900  -20.2731   -4.4424 C   0  0  0  0  0  0  0  0  0  0  0  0
   28.4403  -19.7354   -4.2039 C   0  0  0  0  0  0  0  0  0  0  0  0
   29.0879  -19.1090   -5.2260 C   0  0  0  0  0  0  0  0  0  0  0  0
   28.5031  -19.0173   -6.4677 C   0  0  0  0  0  0  0  0  0  0  0  0
   26.3543  -20.3990  -10.2317 C   0  0  0  0  0  0  0  0  0  0  0  0
   26.6893  -19.3558  -10.8431 O   0  0  0  0  0  0  0  0  0  0  0  0
   25.4193  -21.2512  -10.8443 N   0  0  0  0  0  0  0  0  0  0  0  0
   24.8202  -20.9867  -12.1532 C   0  0  1  0  0  0  0  0  0  0  0  0
   25.3418  -22.1244  -13.0222 C   0  0  0  0  0  0  0  0  0  0  0  0
   26.6839  -21.7964  -13.5809 C   0  0  0  0  0  0  0  0  0  0  0  0
   26.9258  -21.1068  -14.7412 C   0  0  0  0  0  0  0  0  0  0  0  0
   28.2480  -21.0147  -14.9051 N   0  0  0  0  0  0  0  0  0  0  0  0
   28.8226  -21.6368  -13.8638 C   0  0  0  0  0  0  0  0  0  0  0  0
   27.8693  -22.1164  -13.0514 N   0  0  0  0  0  0  0  0  0  0  0  0
   23.3580  -20.9748  -12.0195 C   0  0  0  0  0  0  0  0  0  0  0  0
   22.8783  -21.5035  -10.9438 O   0  0  0  0  0  0  0  0  0  0  0  0
   22.4445  -20.4490  -12.9365 N   0  0  0  0  0  0  0  0  0  0  0  0
   22.7569  -20.0059  -14.2710 C   0  0  0  0  0  0  0  0  0  0  0  0
   21.8217  -18.8453  -14.4708 C   0  0  0  0  0  0  0  0  0  0  0  0
   20.8961  -18.8204  -13.2461 C   0  0  0  0  0  0  0  0  0  0  0  0
   21.0344  -20.2696  -12.7797 C   0  0  1  0  0  0  0  0  0  0  0  0
   20.2319  -21.1807  -13.6152 C   0  0  0  0  0  0  0  0  0  0  0  0
   20.7913  -21.8671  -14.4911 O   0  0  0  0  0  0  0  0  0  0  0  0
   18.8773  -21.2674  -13.4250 O   0  0  0  0  0  0  0  0  0  0  0  0
  2  1  1  6
  2 10  1  0
  2  3  1  0
  4  3  1  0
  4  9  1  0
  5  4  2  0
  6  5  1  0
  6  7  2  0
  7  8  1  0
  8  9  2  0
 10 11  2  0
 12 13  1  0
 12 10  1  0
 13 14  1  6
 14 15  1  0
 15 19  1  0
 15 16  2  0
 16 17  1  0
 18 17  1  0
 19 18  2  0
 20 13  1  0
 21 20  2  0
 22 20  1  0
 23 22  1  0
 24 25  1  0
 24 23  1  0
 25 26  1  0
 26 22  1  0
 26 27  1  6
 28 27  2  0
 29 27  1  0
M  END
$$$$
