FHP.pdb
     RDKit          3D

 29 31  0  0  1  0  0  0  0  0999 V2000
   25.1348  -20.4537  -13.8450 N   0  0  0  0  0  0  0  0  0  0  0  0
   26.1822  -20.6982  -12.8953 C   0  0  1  0  0  0  0  0  0  0  0  0
   27.4986  -20.1322  -13.4049 C   0  0  0  0  0  0  0  0  0  0  0  0
   28.0066  -20.8771  -14.5678 C   0  0  0  0  0  0  0  0  0  0  0  0
   28.7876  -21.9863  -14.3600 C   0  0  0  0  0  0  0  0  0  0  0  0
   29.2654  -22.6862  -15.4358 C   0  0  0  0  0  0  0  0  0  0  0  0
   28.9774  -22.2984  -16.7304 C   0  0  0  0  0  0  0  0  0  0  0  0
   28.2011  -21.1956  -16.9248 C   0  0  0  0  0  0  0  0  0  0  0  0
   27.7173  -20.4872  -15.8494 C   0  0  0  0  0  0  0  0  0  0  0  0
   25.9241  -20.0752  -11.5723 C   0  0  0  0  0  0  0  0  0  0  0  0
   25.6317  -18.8552  -11.5528 O   0  0  0  0  0  0  0  0  0  0  0  0
   25.9853  -20.7585  -10.3454 N   0  0  0  0  0  0  0  0  0  0  0  0
   25.8994  -20.0936   -9.0444 C   0  0  1  0  0  0  0  0  0  0  0  0
   24.5001  -20.4452   -8.5544 C   0  0  0  0  0  0  0  0  0  0  0  0
   23.5419  -20.5289   -9.6928 C   0  0  0  0  0  0  0  0  0  0  0  0
   23.8365  -20.2942  -11.0113 C   0  0  0  0  0  0  0  0  0  0  0  0
   22.7217  -20.4670  -11.7260 N   0  0  0  0  0  0  0  0  0  0  0  0
   21.7466  -20.8042  -10.8677 C   0  0  0  0  0  0  0  0  0  0  0  0
   22.2442  -20.8432   -9.6228 N   0  0  0  0  0  0  0  0  0  0  0  0
   26.9688  -20.5990   -8.1744 C   0  0  0  0  0  0  0  0  0  0  0  0
   27.5331  -21.7002   -8.5431 O   0  0  0  0  0  0  0  0  0  0  0  0
   27.4311  -20.0062   -6.9967 N   0  0  0  0  0  0  0  0  0  0  0  0
   26.9192  -18.7936   -6.4115 C   0  0  0  0  0  0  0  0  0  0  0  0
   28.1452  -18.1628   -5.8110 C   0  0  0  0  0  0  0  0  0  0  0  0
   29.2777  -19.1882   -5.9640 C   0  0  0  0  0  0  0  0  0  0  0  0
   28.4571  -20.4692   -6.1146 C   0  0  1  0  0  0  0  0  0  0  0  0
   27.9446  -20.9337   -4.8132 C   0  0  0  0  0  0  0  0  0  0  0  0
   26.7270  -20.8504   -4.5651 O   0  0  0  0  0  0  0  0  0  0  0  0
   28.8085  -21.4533   -3.8845 O   0  0  0  0  0  0  0  0  0  0  0  0
  2  1  1  6
  2 10  1  0
  2  3  1  0
  4  3  1  0
  4  9  1  0
  5  4  2  0
  6  5  1  0
  6  7  2  0
  7  8  1  0
  8  9  2  0
 10 11  2  0
 12 13  1  0
 12 10  1  0
 13 14  1  1
 14 15  1  0
 15 19  1  0
 15 16  2  0
 16 17  1  0
 18 17  1  0
 19 18  2  0
 20 13  1  0
 21 20  2  0
 22 20  1  0
 23 22  1  0
 24 25  1  0
 24 23  1  0
 25 26  1  0
 26 22  1  0
 26 27  1  1
 28 27  2  0
 29 27  1  0
M  END
$$$$
