FHP.pdb
     RDKit          3D

 29 31  0  0  1  0  0  0  0  0999 V2000
   24.6859  -20.3054   -7.4449 N   0  0  0  0  0  0  0  0  0  0  0  0
   25.8935  -20.0968   -8.1912 C   0  0  1  0  0  0  0  0  0  0  0  0
   27.0207  -20.9410   -7.6170 C   0  0  0  0  0  0  0  0  0  0  0  0
   27.6232  -20.3211   -6.4261 C   0  0  0  0  0  0  0  0  0  0  0  0
   27.4205  -20.8998   -5.1983 C   0  0  0  0  0  0  0  0  0  0  0  0
   27.9768  -20.3303   -4.0840 C   0  0  0  0  0  0  0  0  0  0  0  0
   28.7403  -19.1818   -4.1693 C   0  0  0  0  0  0  0  0  0  0  0  0
   28.9349  -18.6160   -5.3935 C   0  0  0  0  0  0  0  0  0  0  0  0
   28.3795  -19.1819   -6.5176 C   0  0  0  0  0  0  0  0  0  0  0  0
   25.7619  -20.4638   -9.6241 C   0  0  0  0  0  0  0  0  0  0  0  0
   24.7009  -21.0294   -9.9828 O   0  0  0  0  0  0  0  0  0  0  0  0
   26.7427  -20.2207  -10.6012 N   0  0  0  0  0  0  0  0  0  0  0  0
   26.4465  -19.6715  -11.9251 C   0  0  1  0  0  0  0  0  0  0  0  0
   27.7832  -19.1010  -12.3831 C   0  0  0  0  0  0  0  0  0  0  0  0
   27.6956  -18.5949  -13.7821 C   0  0  0  0  0  0  0  0  0  0  0  0
   28.2165  -19.2069  -14.8932 C   0  0  0  0  0  0  0  0  0  0  0  0
   27.9349  -18.4511  -15.9576 N   0  0  0  0  0  0  0  0  0  0  0  0
   27.2493  -17.3843  -15.5183 C   0  0  0  0  0  0  0  0  0  0  0  0
   27.1007  -17.4684  -14.1880 N   0  0  0  0  0  0  0  0  0  0  0  0
   25.9410  -20.7455  -12.7894 C   0  0  0  0  0  0  0  0  0  0  0  0
   26.4193  -21.9252  -12.5740 O   0  0  0  0  0  0  0  0  0  0  0  0
   24.9988  -20.6139  -13.8125 N   0  0  0  0  0  0  0  0  0  0  0  0
   24.3818  -19.3813  -14.2306 C   0  0  0  0  0  0  0  0  0  0  0  0
   22.9937  -19.8111  -14.6181 C   0  0  0  0  0  0  0  0  0  0  0  0
   22.9797  -21.3446  -14.5439 C   0  0  0  0  0  0  0  0  0  0  0  0
   24.4760  -21.6300  -14.6723 C   0  0  1  0  0  0  0  0  0  0  0  0
   24.9279  -21.5041  -16.0695 C   0  0  0  0  0  0  0  0  0  0  0  0
   25.6543  -20.5474  -16.3984 O   0  0  0  0  0  0  0  0  0  0  0  0
   24.5469  -22.4379  -16.9978 O   0  0  0  0  0  0  0  0  0  0  0  0
  2  1  1  1
  2 10  1  0
  2  3  1  0
  4  3  1  0
  4  9  1  0
  5  4  2  0
  6  5  1  0
  6  7  2  0
  7  8  1  0
  8  9  2  0
 10 11  2  0
 12 13  1  0
 12 10  1  0
 13 14  1  6
 14 15  1  0
 15 19  1  0
 15 16  2  0
 16 17  1  0
 18 17  1  0
 19 18  2  0
 20 13  1  0
 21 20  2  0
 22 20  1  0
 23 22  1  0
 24 25  1  0
 24 23  1  0
 25 26  1  0
 26 22  1  0
 26 27  1  6
 28 27  2  0
 29 27  1  0
M  END
$$$$
