FHP.pdb
     RDKit          3D

 29 31  0  0  1  0  0  0  0  0999 V2000
   24.6148  -13.8564  -16.9668 N   0  0  0  0  0  0  0  0  0  0  0  0
   24.0464  -12.9243  -16.0357 C   0  0  1  0  0  0  0  0  0  0  0  0
   25.0207  -12.6529  -14.9000 C   0  0  0  0  0  0  0  0  0  0  0  0
   26.4136  -12.5912  -15.3703 C   0  0  0  0  0  0  0  0  0  0  0  0
   26.9812  -11.3659  -15.6153 C   0  0  0  0  0  0  0  0  0  0  0  0
   28.2768  -11.2980  -16.0535 C   0  0  0  0  0  0  0  0  0  0  0  0
   29.0277  -12.4403  -16.2552 C   0  0  0  0  0  0  0  0  0  0  0  0
   28.4540  -13.6513  -16.0088 C   0  0  0  0  0  0  0  0  0  0  0  0
   27.1531  -13.7280  -15.5683 C   0  0  0  0  0  0  0  0  0  0  0  0
   23.7206  -11.6131  -16.6519 C   0  0  0  0  0  0  0  0  0  0  0  0
   24.4146  -11.2433  -17.6296 O   0  0  0  0  0  0  0  0  0  0  0  0
   22.6908  -10.7622  -16.2145 N   0  0  0  0  0  0  0  0  0  0  0  0
   22.3280   -9.5169  -16.8926 C   0  0  1  0  0  0  0  0  0  0  0  0
   20.8914   -9.7582  -17.3396 C   0  0  0  0  0  0  0  0  0  0  0  0
   20.8462  -10.6603  -18.5251 C   0  0  0  0  0  0  0  0  0  0  0  0
   21.2402  -10.3364  -19.7980 C   0  0  0  0  0  0  0  0  0  0  0  0
   21.0480  -11.4024  -20.5792 N   0  0  0  0  0  0  0  0  0  0  0  0
   20.5422  -12.3763  -19.8065 C   0  0  0  0  0  0  0  0  0  0  0  0
   20.4172  -11.9264  -18.5492 N   0  0  0  0  0  0  0  0  0  0  0  0
   22.4687   -8.3982  -15.9520 C   0  0  0  0  0  0  0  0  0  0  0  0
   22.4474   -8.7007  -14.6971 O   0  0  0  0  0  0  0  0  0  0  0  0
   22.6236   -7.0497  -16.2827 N   0  0  0  0  0  0  0  0  0  0  0  0
   22.4750   -6.4872  -17.6004 C   0  0  0  0  0  0  0  0  0  0  0  0
   23.5004   -5.3872  -17.6174 C   0  0  0  0  0  0  0  0  0  0  0  0
   24.0623   -5.2983  -16.1913 C   0  0  0  0  0  0  0  0  0  0  0  0
   22.9195   -5.9524  -15.4147 C   0  0  1  0  0  0  0  0  0  0  0  0
   21.7890   -5.0230  -15.2399 C   0  0  0  0  0  0  0  0  0  0  0  0
   20.7888   -5.1242  -15.9750 O   0  0  0  0  0  0  0  0  0  0  0  0
   21.8444   -4.0540  -14.2721 O   0  0  0  0  0  0  0  0  0  0  0  0
  2  1  1  6
  2 10  1  0
  2  3  1  0
  4  3  1  0
  4  9  1  0
  5  4  2  0
  6  5  1  0
  6  7  2  0
  7  8  1  0
  8  9  2  0
 10 11  2  0
 12 13  1  0
 12 10  1  0
 13 14  1  1
 14 15  1  0
 15 19  1  0
 15 16  2  0
 16 17  1  0
 18 17  1  0
 19 18  2  0
 20 13  1  0
 21 20  2  0
 22 20  1  0
 23 22  1  0
 24 25  1  0
 24 23  1  0
 25 26  1  0
 26 22  1  0
 26 27  1  6
 28 27  2  0
 29 27  1  0
M  END
$$$$
