FHP.pdb
     RDKit          3D

 29 31  0  0  1  0  0  0  0  0999 V2000
   27.9927  -20.8065  -18.5786 N   0  0  0  0  0  0  0  0  0  0  0  0
   27.1639  -19.8788  -17.8635 C   0  0  1  0  0  0  0  0  0  0  0  0
   25.9205  -19.5489  -18.6747 C   0  0  0  0  0  0  0  0  0  0  0  0
   26.2302  -18.7103  -19.8435 C   0  0  0  0  0  0  0  0  0  0  0  0
   26.0792  -19.2376  -21.1015 C   0  0  0  0  0  0  0  0  0  0  0  0
   26.3652  -18.4652  -22.1956 C   0  0  0  0  0  0  0  0  0  0  0  0
   26.8040  -17.1621  -22.0601 C   0  0  0  0  0  0  0  0  0  0  0  0
   26.9502  -16.6489  -20.8063 C   0  0  0  0  0  0  0  0  0  0  0  0
   26.6650  -17.4183  -19.7022 C   0  0  0  0  0  0  0  0  0  0  0  0
   26.7019  -20.4029  -16.5532 C   0  0  0  0  0  0  0  0  0  0  0  0
   26.3892  -21.6165  -16.4915 O   0  0  0  0  0  0  0  0  0  0  0  0
   26.5921  -19.6331  -15.3822 N   0  0  0  0  0  0  0  0  0  0  0  0
   26.0571  -20.1501  -14.1218 C   0  0  1  0  0  0  0  0  0  0  0  0
   26.7317  -19.2845  -13.0647 C   0  0  0  0  0  0  0  0  0  0  0  0
   27.7764  -20.0545  -12.3323 C   0  0  0  0  0  0  0  0  0  0  0  0
   27.9999  -21.4038  -12.4324 C   0  0  0  0  0  0  0  0  0  0  0  0
   29.0157  -21.7204  -11.6254 N   0  0  0  0  0  0  0  0  0  0  0  0
   29.4201  -20.5872  -11.0308 C   0  0  0  0  0  0  0  0  0  0  0  0
   28.6646  -19.5657  -11.4605 N   0  0  0  0  0  0  0  0  0  0  0  0
   24.5940  -20.0267  -14.1336 C   0  0  0  0  0  0  0  0  0  0  0  0
   24.0921  -19.2651  -15.0473 O   0  0  0  0  0  0  0  0  0  0  0  0
   23.7010  -20.6507  -13.2589 N   0  0  0  0  0  0  0  0  0  0  0  0
   24.0652  -21.4960  -12.1509 C   0  0  0  0  0  0  0  0  0  0  0  0
   22.9587  -22.5143  -12.1230 C   0  0  0  0  0  0  0  0  0  0  0  0
   21.9209  -22.0529  -13.1560 C   0  0  0  0  0  0  0  0  0  0  0  0
   22.2734  -20.5678  -13.2413 C   0  0  1  0  0  0  0  0  0  0  0  0
   21.7445  -19.8239  -12.0841 C   0  0  0  0  0  0  0  0  0  0  0  0
   22.5090  -19.5073  -11.1533 O   0  0  0  0  0  0  0  0  0  0  0  0
   20.4170  -19.4857  -12.0380 O   0  0  0  0  0  0  0  0  0  0  0  0
  2  1  1  6
  2 10  1  0
  2  3  1  0
  4  3  1  0
  4  9  1  0
  5  4  2  0
  6  5  1  0
  6  7  2  0
  7  8  1  0
  8  9  2  0
 10 11  2  0
 12 13  1  0
 12 10  1  0
 13 14  1  1
 14 15  1  0
 15 19  1  0
 15 16  2  0
 16 17  1  0
 18 17  1  0
 19 18  2  0
 20 13  1  0
 21 20  2  0
 22 20  1  0
 23 22  1  0
 24 25  1  0
 24 23  1  0
 25 26  1  0
 26 22  1  0
 26 27  1  1
 28 27  2  0
 29 27  1  0
M  END
$$$$
