FHP.pdb
     RDKit          3D

 29 31  0  0  1  0  0  0  0  0999 V2000
   28.4810  -22.8034  -19.0194 N   0  0  0  0  0  0  0  0  0  0  0  0
   27.1712  -22.4717  -18.5365 C   0  0  1  0  0  0  0  0  0  0  0  0
   26.2738  -23.6992  -18.5608 C   0  0  0  0  0  0  0  0  0  0  0  0
   25.8657  -24.0580  -19.9283 C   0  0  0  0  0  0  0  0  0  0  0  0
   24.9476  -23.2717  -20.5783 C   0  0  0  0  0  0  0  0  0  0  0  0
   24.5613  -23.5974  -21.8511 C   0  0  0  0  0  0  0  0  0  0  0  0
   25.0774  -24.7042  -22.4974 C   0  0  0  0  0  0  0  0  0  0  0  0
   25.9882  -25.4776  -21.8425 C   0  0  0  0  0  0  0  0  0  0  0  0
   26.3815  -25.1572  -20.5639 C   0  0  0  0  0  0  0  0  0  0  0  0
   27.1775  -21.9650  -17.1407 C   0  0  0  0  0  0  0  0  0  0  0  0
   27.9856  -22.4899  -16.3369 O   0  0  0  0  0  0  0  0  0  0  0  0
   26.3420  -20.9411  -16.6620 N   0  0  0  0  0  0  0  0  0  0  0  0
   26.4366  -20.3854  -15.3112 C   0  0  1  0  0  0  0  0  0  0  0  0
   26.3088  -18.8832  -15.5323 C   0  0  0  0  0  0  0  0  0  0  0  0
   27.4724  -18.3565  -16.3002 C   0  0  0  0  0  0  0  0  0  0  0  0
   27.4330  -17.8490  -17.5735 C   0  0  0  0  0  0  0  0  0  0  0  0
   28.6704  -17.4816  -17.9158 N   0  0  0  0  0  0  0  0  0  0  0  0
   29.4698  -17.7552  -16.8730 C   0  0  0  0  0  0  0  0  0  0  0  0
   28.7409  -18.2906  -15.8826 N   0  0  0  0  0  0  0  0  0  0  0  0
   25.3630  -20.9490  -14.4830 C   0  0  0  0  0  0  0  0  0  0  0  0
   24.4728  -21.6506  -15.1012 O   0  0  0  0  0  0  0  0  0  0  0  0
   25.2152  -20.8010  -13.1016 N   0  0  0  0  0  0  0  0  0  0  0  0
   26.0485  -19.9900  -12.2514 C   0  0  0  0  0  0  0  0  0  0  0  0
   26.0917  -20.7755  -10.9697 C   0  0  0  0  0  0  0  0  0  0  0  0
   25.1044  -21.9385  -11.1423 C   0  0  0  0  0  0  0  0  0  0  0  0
   24.2174  -21.3713  -12.2506 C   0  0  1  0  0  0  0  0  0  0  0  0
   23.2643  -20.3802  -11.7202 C   0  0  0  0  0  0  0  0  0  0  0  0
   23.4861  -19.1651  -11.8799 O   0  0  0  0  0  0  0  0  0  0  0  0
   22.1417  -20.7996  -11.0549 O   0  0  0  0  0  0  0  0  0  0  0  0
  2  1  1  1
  2 10  1  0
  2  3  1  0
  4  3  1  0
  4  9  1  0
  5  4  2  0
  6  5  1  0
  6  7  2  0
  7  8  1  0
  8  9  2  0
 10 11  2  0
 12 13  1  0
 12 10  1  0
 13 14  1  6
 14 15  1  0
 15 19  1  0
 15 16  2  0
 16 17  1  0
 18 17  1  0
 19 18  2  0
 20 13  1  0
 21 20  2  0
 22 20  1  0
 23 22  1  0
 24 25  1  0
 24 23  1  0
 25 26  1  0
 26 22  1  0
 26 27  1  1
 28 27  2  0
 29 27  1  0
M  END
$$$$
