LRN.pdb
     RDKit          3D

 28 27  0  0  1  0  0  0  0  0999 V2000
    9.0306  -16.4509   13.9057 C   0  0  0  0  0  0  0  0  0  0  0  0
    9.8380  -15.2206   14.1016 C   0  0  2  0  0  0  0  0  0  0  0  0
   11.0456  -15.1684   13.1745 C   0  0  0  0  0  0  0  0  0  0  0  0
   10.1870  -14.9426   15.5022 C   0  0  0  0  0  0  0  0  0  0  0  0
    9.1498  -14.9691   16.5502 C   0  0  2  0  0  0  0  0  0  0  0  0
    8.3106  -13.7323   16.4028 N   0  0  0  0  0  0  0  0  0  0  0  0
    9.5271  -15.1431   17.9431 C   0  0  0  0  0  0  0  0  0  0  0  0
    9.8406  -14.1333   18.6656 O   0  0  0  0  0  0  0  0  0  0  0  0
    6.3058  -21.9870   21.0337 N   0  0  0  0  0  0  0  0  0  0  0  0
    5.9097  -21.2242   19.9119 C   0  0  0  0  0  0  0  0  0  0  0  0
    4.9953  -21.6462   19.1003 N   0  0  0  0  0  0  0  0  0  0  0  0
    6.5039  -19.9489   19.6260 N   0  0  0  0  0  0  0  0  0  0  0  0
    7.6360  -19.4501   20.3959 C   0  0  0  0  0  0  0  0  0  0  0  0
    8.1201  -18.1323   19.8797 C   0  0  0  0  0  0  0  0  0  0  0  0
    9.3555  -17.7197   20.6025 C   0  0  0  0  0  0  0  0  0  0  0  0
    9.9515  -16.4632   20.0360 C   0  0  2  0  0  0  0  0  0  0  0  0
    9.5773  -16.4073   18.5968 N   0  0  0  0  0  0  0  0  0  0  0  0
   11.4221  -16.5419   20.0311 C   0  0  0  0  0  0  0  0  0  0  0  0
   11.9860  -17.3404   19.1995 O   0  0  0  0  0  0  0  0  0  0  0  0
    4.7763  -21.1207   18.2187 N   0  0  0  0  0  0  0  0  0  0  0  0
   13.3711  -13.4515   18.4815 C   0  0  0  0  0  0  0  0  0  0  0  0
   14.1921  -14.5128   19.0069 O   0  0  0  0  0  0  0  0  0  0  0  0
   14.7717  -15.2497   18.1832 C   0  0  0  0  0  0  0  0  0  0  0  0
   14.3112  -14.6811   20.4503 C   0  0  2  0  0  0  0  0  0  0  0  0
   13.6733  -15.9906   20.8832 N   0  0  0  0  0  0  0  0  0  0  0  0
   12.2107  -15.7708   20.8934 C   0  0  0  0  0  0  0  0  0  0  0  0
   14.0549  -16.3928   22.2478 O   0  0  0  0  0  0  0  0  0  0  0  0
   13.2111  -16.2327   23.1845 O   0  0  0  0  0  0  0  0  0  0  0  0
  2  1  1  1
  2  3  1  0
  4  2  1  0
  5  4  1  0
  5  6  1  1
  7  5  1  0
  8  7  2  0
  9 10  1  0
 10 11  2  0
 12 13  1  0
 12 10  1  0
 13 14  1  0
 15 14  1  0
 16 15  1  6
 16 17  1  0
 17  7  1  0
 18 16  1  0
 18 19  2  0
 20 21  1  0
 21 22  2  0
 24 23  1  6
 23 21  1  0
 24 25  1  0
 25 18  1  0
 26 24  1  0
 27 26  2  0
 28 26  1  0
M  END
$$$$
