LRN.pdb
     RDKit          3D

 28 27  0  0  1  0  0  0  0  0999 V2000
    5.9236  -12.5561   26.6029 C   0  0  0  0  0  0  0  0  0  0  0  0
    7.1318  -13.0352   27.3202 C   0  0  2  0  0  0  0  0  0  0  0  0
    7.9962  -11.8876   27.8266 C   0  0  0  0  0  0  0  0  0  0  0  0
    7.9071  -14.0483   26.5898 C   0  0  0  0  0  0  0  0  0  0  0  0
    7.2327  -15.2104   25.9820 C   0  0  2  0  0  0  0  0  0  0  0  0
    7.2069  -16.3153   26.9990 N   0  0  0  0  0  0  0  0  0  0  0  0
    7.6897  -15.7305   24.7039 C   0  0  0  0  0  0  0  0  0  0  0  0
    8.3704  -16.8136   24.6456 O   0  0  0  0  0  0  0  0  0  0  0  0
    8.4398  -12.1628   18.9934 N   0  0  0  0  0  0  0  0  0  0  0  0
    8.7601  -12.9693   17.8778 C   0  0  0  0  0  0  0  0  0  0  0  0
    9.6654  -12.6109   17.0264 N   0  0  0  0  0  0  0  0  0  0  0  0
    8.0958  -14.2201   17.6426 N   0  0  0  0  0  0  0  0  0  0  0  0
    7.1712  -14.7827   18.6182 C   0  0  0  0  0  0  0  0  0  0  0  0
    7.8928  -15.4549   19.7428 C   0  0  0  0  0  0  0  0  0  0  0  0
    7.3610  -14.9809   21.0509 C   0  0  0  0  0  0  0  0  0  0  0  0
    7.9938  -15.6923   22.2121 C   0  0  2  0  0  0  0  0  0  0  0  0
    7.4272  -15.1002   23.4542 N   0  0  0  0  0  0  0  0  0  0  0  0
    9.4335  -15.3906   22.2842 C   0  0  0  0  0  0  0  0  0  0  0  0
    9.8081  -14.3707   22.9672 O   0  0  0  0  0  0  0  0  0  0  0  0
    9.8399  -13.1755   16.1592 N   0  0  0  0  0  0  0  0  0  0  0  0
   12.9996  -15.0647   24.0983 C   0  0  0  0  0  0  0  0  0  0  0  0
   13.1117  -16.4599   23.7558 O   0  0  0  0  0  0  0  0  0  0  0  0
   13.7435  -17.1938   24.5429 C   0  0  0  0  0  0  0  0  0  0  0  0
   12.4955  -16.9497   22.5284 C   0  0  2  0  0  0  0  0  0  0  0  0
   11.8159  -15.8099   21.7880 N   0  0  0  0  0  0  0  0  0  0  0  0
   10.3923  -16.1836   21.6423 C   0  0  0  0  0  0  0  0  0  0  0  0
   12.3469  -15.6096   20.4288 O   0  0  0  0  0  0  0  0  0  0  0  0
   11.7887  -16.2207   19.4644 O   0  0  0  0  0  0  0  0  0  0  0  0
  2  1  1  6
  2  3  1  0
  4  2  1  0
  5  4  1  0
  5  6  1  1
  7  5  1  0
  8  7  2  0
  9 10  1  0
 10 11  2  0
 12 13  1  0
 12 10  1  0
 13 14  1  0
 15 14  1  0
 16 15  1  6
 16 17  1  0
 17  7  1  0
 18 16  1  0
 18 19  2  0
 20 21  1  0
 21 22  2  0
 24 23  1  1
 23 21  1  0
 24 25  1  0
 25 18  1  0
 26 24  1  0
 27 26  2  0
 28 26  1  0
M  END
$$$$
