LRN.pdb
     RDKit          3D

 28 27  0  0  1  0  0  0  0  0999 V2000
    7.6331  -11.4165   27.1352 C   0  0  0  0  0  0  0  0  0  0  0  0
    6.4123  -12.0216   26.5458 C   0  0  2  0  0  0  0  0  0  0  0  0
    5.2251  -11.9724   27.4990 C   0  0  0  0  0  0  0  0  0  0  0  0
    6.6181  -13.3568   25.9663 C   0  0  0  0  0  0  0  0  0  0  0  0
    7.9110  -13.7144   25.3538 C   0  0  2  0  0  0  0  0  0  0  0  0
    8.2215  -12.6929   24.2975 N   0  0  0  0  0  0  0  0  0  0  0  0
    8.1188  -15.0506   24.8205 C   0  0  0  0  0  0  0  0  0  0  0  0
    7.5649  -16.0661   25.3700 O   0  0  0  0  0  0  0  0  0  0  0  0
    9.0640  -14.2828   17.0005 N   0  0  0  0  0  0  0  0  0  0  0  0
    8.4057  -13.6052   18.0516 C   0  0  0  0  0  0  0  0  0  0  0  0
    8.3466  -12.3135   18.0863 N   0  0  0  0  0  0  0  0  0  0  0  0
    7.7742  -14.3205   19.1242 N   0  0  0  0  0  0  0  0  0  0  0  0
    8.3702  -15.5253   19.6865 C   0  0  0  0  0  0  0  0  0  0  0  0
    8.4404  -15.4645   21.1793 C   0  0  0  0  0  0  0  0  0  0  0  0
    9.0443  -16.7156   21.7168 C   0  0  0  0  0  0  0  0  0  0  0  0
    9.0603  -16.7385   23.2182 C   0  0  2  0  0  0  0  0  0  0  0  0
    8.9274  -15.3309   23.6824 N   0  0  0  0  0  0  0  0  0  0  0  0
   10.3777  -17.1677   23.7174 C   0  0  0  0  0  0  0  0  0  0  0  0
   11.1107  -16.3043   24.3209 O   0  0  0  0  0  0  0  0  0  0  0  0
    7.8923  -11.8186   18.8924 N   0  0  0  0  0  0  0  0  0  0  0  0
   12.4685  -18.3409   27.1182 C   0  0  0  0  0  0  0  0  0  0  0  0
   11.0954  -18.7758   27.0752 O   0  0  0  0  0  0  0  0  0  0  0  0
   10.4430  -18.7186   28.1375 C   0  0  0  0  0  0  0  0  0  0  0  0
   10.5332  -19.2558   25.8183 C   0  0  2  0  0  0  0  0  0  0  0  0
   11.5478  -19.1093   24.6966 N   0  0  0  0  0  0  0  0  0  0  0  0
   10.8408  -18.4796   23.5603 C   0  0  0  0  0  0  0  0  0  0  0  0
   12.0640  -20.4023   24.2156 O   0  0  0  0  0  0  0  0  0  0  0  0
   11.3887  -21.0388   23.3474 O   0  0  0  0  0  0  0  0  0  0  0  0
  2  1  1  1
  2  3  1  0
  4  2  1  0
  5  4  1  0
  5  6  1  6
  7  5  1  0
  8  7  2  0
  9 10  1  0
 10 11  2  0
 12 13  1  0
 12 10  1  0
 13 14  1  0
 15 14  1  0
 16 15  1  6
 16 17  1  0
 17  7  1  0
 18 16  1  0
 18 19  2  0
 20 21  1  0
 21 22  2  0
 24 23  1  1
 23 21  1  0
 24 25  1  0
 25 18  1  0
 26 24  1  0
 27 26  2  0
 28 26  1  0
M  END
$$$$
