LRN.pdb
     RDKit          3D

 28 27  0  0  1  0  0  0  0  0999 V2000
    5.1986  -12.0481   27.4967 C   0  0  0  0  0  0  0  0  0  0  0  0
    6.2368  -12.1543   26.4409 C   0  0  2  0  0  0  0  0  0  0  0  0
    6.4597  -10.8337   25.7149 C   0  0  0  0  0  0  0  0  0  0  0  0
    6.0480  -13.2829   25.5180 C   0  0  0  0  0  0  0  0  0  0  0  0
    6.8789  -14.4951   25.6402 C   0  0  2  0  0  0  0  0  0  0  0  0
    8.0354  -14.1750   26.5434 N   0  0  0  0  0  0  0  0  0  0  0  0
    7.3606  -15.1704   24.4466 C   0  0  0  0  0  0  0  0  0  0  0  0
    6.5626  -15.8585   23.7189 O   0  0  0  0  0  0  0  0  0  0  0  0
    8.5143  -12.0486   18.9020 N   0  0  0  0  0  0  0  0  0  0  0  0
    8.3971  -13.3712   18.4181 C   0  0  0  0  0  0  0  0  0  0  0  0
    7.2780  -13.8194   17.9493 N   0  0  0  0  0  0  0  0  0  0  0  0
    9.5142  -14.2729   18.4251 N   0  0  0  0  0  0  0  0  0  0  0  0
   10.4456  -14.3176   19.5448 C   0  0  0  0  0  0  0  0  0  0  0  0
   10.0912  -15.3967   20.5181 C   0  0  0  0  0  0  0  0  0  0  0  0
    9.6462  -14.7994   21.8080 C   0  0  0  0  0  0  0  0  0  0  0  0
    9.0873  -15.8291   22.7473 C   0  0  2  0  0  0  0  0  0  0  0  0
    8.7131  -15.1239   24.0031 N   0  0  0  0  0  0  0  0  0  0  0  0
   10.1338  -16.7807   23.1575 C   0  0  0  0  0  0  0  0  0  0  0  0
   10.8240  -17.3579   22.2423 O   0  0  0  0  0  0  0  0  0  0  0  0
    7.2142  -14.7856   17.5449 N   0  0  0  0  0  0  0  0  0  0  0  0
   11.2112  -16.0937   27.8424 C   0  0  0  0  0  0  0  0  0  0  0  0
   11.3078  -17.3588   27.1593 O   0  0  0  0  0  0  0  0  0  0  0  0
   10.5975  -18.2937   27.5820 C   0  0  0  0  0  0  0  0  0  0  0  0
   12.2129  -17.4946   26.0242 C   0  0  1  0  0  0  0  0  0  0  0  0
   11.4663  -18.0346   24.8158 N   0  0  0  0  0  0  0  0  0  0  0  0
   10.3976  -17.0610   24.5036 C   0  0  0  0  0  0  0  0  0  0  0  0
   10.8063  -19.3251   25.0771 O   0  0  0  0  0  0  0  0  0  0  0  0
    9.5361  -19.3656   25.0823 O   0  0  0  0  0  0  0  0  0  0  0  0
  2  1  1  6
  2  3  1  0
  4  2  1  0
  5  4  1  0
  5  6  1  1
  7  5  1  0
  8  7  2  0
  9 10  1  0
 10 11  2  0
 12 13  1  0
 12 10  1  0
 13 14  1  0
 15 14  1  0
 16 15  1  6
 16 17  1  0
 17  7  1  0
 18 16  1  0
 18 19  2  0
 20 21  1  0
 21 22  2  0
 24 23  1  6
 23 21  1  0
 24 25  1  0
 25 18  1  0
 26 24  1  0
 27 26  2  0
 28 26  1  0
M  END
$$$$
