LRN.pdb
     RDKit          3D

 28 27  0  0  1  0  0  0  0  0999 V2000
    9.2220  -12.5811   18.8738 C   0  0  0  0  0  0  0  0  0  0  0  0
    7.9819  -13.2129   19.3906 C   0  0  2  0  0  0  0  0  0  0  0  0
    6.8834  -12.1929   19.6615 C   0  0  0  0  0  0  0  0  0  0  0  0
    8.1951  -14.1289   20.5204 C   0  0  0  0  0  0  0  0  0  0  0  0
    9.2359  -15.1713   20.4512 C   0  0  2  0  0  0  0  0  0  0  0  0
    9.0197  -15.9589   19.1908 N   0  0  0  0  0  0  0  0  0  0  0  0
    9.4323  -16.0789   21.5695 C   0  0  0  0  0  0  0  0  0  0  0  0
    9.6011  -15.6265   22.7555 O   0  0  0  0  0  0  0  0  0  0  0  0
    9.1582  -20.3666   18.3224 N   0  0  0  0  0  0  0  0  0  0  0  0
    7.7849  -20.6923   18.3955 C   0  0  0  0  0  0  0  0  0  0  0  0
    6.9935  -20.5000   17.3906 N   0  0  0  0  0  0  0  0  0  0  0  0
    7.2101  -21.2509   19.5865 N   0  0  0  0  0  0  0  0  0  0  0  0
    7.8757  -21.1323   20.8773 C   0  0  0  0  0  0  0  0  0  0  0  0
    8.3867  -19.7464   21.1126 C   0  0  0  0  0  0  0  0  0  0  0  0
    9.1568  -19.6918   22.3864 C   0  0  0  0  0  0  0  0  0  0  0  0
    9.7271  -18.3273   22.6468 C   0  0  2  0  0  0  0  0  0  0  0  0
    9.4523  -17.4972   21.4427 N   0  0  0  0  0  0  0  0  0  0  0  0
   11.1965  -18.3849   22.7265 C   0  0  0  0  0  0  0  0  0  0  0  0
   11.8782  -17.9061   21.7502 O   0  0  0  0  0  0  0  0  0  0  0  0
    5.9690  -20.7143   17.4658 N   0  0  0  0  0  0  0  0  0  0  0  0
   15.1584  -15.3973   23.1928 C   0  0  0  0  0  0  0  0  0  0  0  0
   14.6245  -16.7326   23.1019 O   0  0  0  0  0  0  0  0  0  0  0  0
   15.3569  -17.6093   22.5996 C   0  0  0  0  0  0  0  0  0  0  0  0
   13.2772  -17.0020   23.5900 C   0  0  2  0  0  0  0  0  0  0  0  0
   13.1977  -18.4029   24.1732 N   0  0  0  0  0  0  0  0  0  0  0  0
   11.8602  -18.9333   23.8305 C   0  0  0  0  0  0  0  0  0  0  0  0
   13.3014  -18.4209   25.6424 O   0  0  0  0  0  0  0  0  0  0  0  0
   14.1477  -19.2017   26.1802 O   0  0  0  0  0  0  0  0  0  0  0  0
  2  1  1  1
  2  3  1  0
  4  2  1  0
  5  4  1  0
  5  6  1  6
  7  5  1  0
  8  7  2  0
  9 10  1  0
 10 11  2  0
 12 13  1  0
 12 10  1  0
 13 14  1  0
 15 14  1  0
 16 15  1  6
 16 17  1  0
 17  7  1  0
 18 16  1  0
 18 19  2  0
 20 21  1  0
 21 22  2  0
 24 23  1  6
 23 21  1  0
 24 25  1  0
 25 18  1  0
 26 24  1  0
 27 26  2  0
 28 26  1  0
M  END
$$$$
