LRN.pdb
     RDKit          3D

 28 27  0  0  1  0  0  0  0  0999 V2000
    6.3565  -12.1100   28.0247 C   0  0  0  0  0  0  0  0  0  0  0  0
    6.5655  -12.0461   26.5563 C   0  0  2  0  0  0  0  0  0  0  0  0
    6.0464  -10.7463   25.9548 C   0  0  0  0  0  0  0  0  0  0  0  0
    6.0986  -13.2337   25.8265 C   0  0  0  0  0  0  0  0  0  0  0  0
    7.0173  -14.3561   25.5602 C   0  0  2  0  0  0  0  0  0  0  0  0
    8.3934  -13.9421   25.9968 N   0  0  0  0  0  0  0  0  0  0  0  0
    7.0801  -14.9459   24.2332 C   0  0  0  0  0  0  0  0  0  0  0  0
    6.0077  -15.2424   23.5992 O   0  0  0  0  0  0  0  0  0  0  0  0
    8.4375  -15.5286   17.8333 N   0  0  0  0  0  0  0  0  0  0  0  0
    8.2899  -14.3129   17.1279 C   0  0  0  0  0  0  0  0  0  0  0  0
    8.2941  -14.2806   15.8348 N   0  0  0  0  0  0  0  0  0  0  0  0
    8.1280  -13.0630   17.8154 N   0  0  0  0  0  0  0  0  0  0  0  0
    8.2868  -12.9665   19.2607 C   0  0  0  0  0  0  0  0  0  0  0  0
    8.2959  -14.3145   19.9088 C   0  0  0  0  0  0  0  0  0  0  0  0
    8.2676  -14.1722   21.3913 C   0  0  0  0  0  0  0  0  0  0  0  0
    8.2617  -15.5019   22.0890 C   0  0  2  0  0  0  0  0  0  0  0  0
    8.2974  -15.2326   23.5521 N   0  0  0  0  0  0  0  0  0  0  0  0
    9.5098  -16.2357   21.8193 C   0  0  0  0  0  0  0  0  0  0  0  0
    9.7476  -16.6100   20.6149 O   0  0  0  0  0  0  0  0  0  0  0  0
    8.2492  -13.3669   15.3208 N   0  0  0  0  0  0  0  0  0  0  0  0
   13.5515  -19.1378   21.9064 C   0  0  0  0  0  0  0  0  0  0  0  0
   12.2087  -19.5099   21.5393 O   0  0  0  0  0  0  0  0  0  0  0  0
   12.0431  -20.6452   21.0483 C   0  0  0  0  0  0  0  0  0  0  0  0
   11.1184  -18.5653   21.7514 C   0  0  2  0  0  0  0  0  0  0  0  0
   11.6251  -17.3286   22.4745 N   0  0  0  0  0  0  0  0  0  0  0  0
   10.4360  -16.5235   22.8290 C   0  0  0  0  0  0  0  0  0  0  0  0
   12.4808  -16.4784   21.6292 O   0  0  0  0  0  0  0  0  0  0  0  0
   13.5717  -16.0440   22.1153 O   0  0  0  0  0  0  0  0  0  0  0  0
  2  1  1  1
  2  3  1  0
  4  2  1  0
  5  4  1  0
  5  6  1  6
  7  5  1  0
  8  7  2  0
  9 10  1  0
 10 11  2  0
 12 13  1  0
 12 10  1  0
 13 14  1  0
 15 14  1  0
 16 15  1  6
 16 17  1  0
 17  7  1  0
 18 16  1  0
 18 19  2  0
 20 21  1  0
 21 22  2  0
 24 23  1  1
 23 21  1  0
 24 25  1  0
 25 18  1  0
 26 24  1  0
 27 26  2  0
 28 26  1  0
M  END
$$$$
