LRN.pdb
     RDKit          3D

 28 27  0  0  1  0  0  0  0  0999 V2000
    7.4353  -12.3038   27.8471 C   0  0  0  0  0  0  0  0  0  0  0  0
    6.6281  -12.5654   26.6290 C   0  0  2  0  0  0  0  0  0  0  0  0
    5.7315  -11.3884   26.2663 C   0  0  0  0  0  0  0  0  0  0  0  0
    5.9039  -13.8445   26.6462 C   0  0  0  0  0  0  0  0  0  0  0  0
    6.6356  -15.1192   26.5255 C   0  0  2  0  0  0  0  0  0  0  0  0
    7.8367  -15.0508   27.4246 N   0  0  0  0  0  0  0  0  0  0  0  0
    7.0304  -15.6103   25.2157 C   0  0  0  0  0  0  0  0  0  0  0  0
    6.2055  -16.2669   24.4888 O   0  0  0  0  0  0  0  0  0  0  0  0
    8.6675  -14.5115   17.5042 N   0  0  0  0  0  0  0  0  0  0  0  0
    8.5080  -13.3811   18.3372 C   0  0  0  0  0  0  0  0  0  0  0  0
    9.0991  -12.2614   18.0724 N   0  0  0  0  0  0  0  0  0  0  0  0
    7.6832  -13.4265   19.5114 N   0  0  0  0  0  0  0  0  0  0  0  0
    7.1361  -14.6833   20.0056 C   0  0  0  0  0  0  0  0  0  0  0  0
    8.1003  -15.3936   20.9017 C   0  0  0  0  0  0  0  0  0  0  0  0
    7.8423  -15.0323   22.3235 C   0  0  0  0  0  0  0  0  0  0  0  0
    8.5989  -15.9101   23.2784 C   0  0  2  0  0  0  0  0  0  0  0  0
    8.3226  -15.4088   24.6520 N   0  0  0  0  0  0  0  0  0  0  0  0
   10.0510  -15.7334   23.1074 C   0  0  0  0  0  0  0  0  0  0  0  0
   10.6860  -15.0369   23.9784 O   0  0  0  0  0  0  0  0  0  0  0  0
    8.9808  -11.4302   18.7018 N   0  0  0  0  0  0  0  0  0  0  0  0
   13.9417  -19.1417   24.3730 C   0  0  0  0  0  0  0  0  0  0  0  0
   13.6709  -17.9274   23.6461 O   0  0  0  0  0  0  0  0  0  0  0  0
   14.6516  -17.2881   23.2137 C   0  0  0  0  0  0  0  0  0  0  0  0
   12.2905  -17.5016   23.4481 C   0  0  2  0  0  0  0  0  0  0  0  0
   12.1847  -16.6078   22.2237 N   0  0  0  0  0  0  0  0  0  0  0  0
   10.7487  -16.3065   22.0373 C   0  0  0  0  0  0  0  0  0  0  0  0
   12.6474  -17.2656   20.9897 O   0  0  0  0  0  0  0  0  0  0  0  0
   11.8275  -17.9943   20.3480 O   0  0  0  0  0  0  0  0  0  0  0  0
  2  1  1  1
  2  3  1  0
  4  2  1  0
  5  4  1  0
  5  6  1  1
  7  5  1  0
  8  7  2  0
  9 10  1  0
 10 11  2  0
 12 13  1  0
 12 10  1  0
 13 14  1  0
 15 14  1  0
 16 15  1  6
 16 17  1  0
 17  7  1  0
 18 16  1  0
 18 19  2  0
 20 21  1  0
 21 22  2  0
 24 23  1  1
 23 21  1  0
 24 25  1  0
 25 18  1  0
 26 24  1  0
 27 26  2  0
 28 26  1  0
M  END
$$$$
