LRN.pdb
     RDKit          3D

 28 27  0  0  1  0  0  0  0  0999 V2000
    6.4855  -11.9997   24.9984 C   0  0  0  0  0  0  0  0  0  0  0  0
    6.6747  -12.6816   26.3034 C   0  0  2  0  0  0  0  0  0  0  0  0
    7.2733  -11.7579   27.3565 C   0  0  0  0  0  0  0  0  0  0  0  0
    7.3759  -13.9707   26.2165 C   0  0  0  0  0  0  0  0  0  0  0  0
    6.9412  -14.9940   25.2478 C   0  0  2  0  0  0  0  0  0  0  0  0
    5.6080  -15.5202   25.6967 N   0  0  0  0  0  0  0  0  0  0  0  0
    7.8205  -16.1032   24.9171 C   0  0  0  0  0  0  0  0  0  0  0  0
    7.8800  -17.1363   25.6714 O   0  0  0  0  0  0  0  0  0  0  0  0
   11.3840  -20.6504   18.7076 N   0  0  0  0  0  0  0  0  0  0  0  0
   10.3170  -19.7239   18.6887 C   0  0  0  0  0  0  0  0  0  0  0  0
    9.7413  -19.3833   17.5817 N   0  0  0  0  0  0  0  0  0  0  0  0
    9.8262  -19.1223   19.8963 N   0  0  0  0  0  0  0  0  0  0  0  0
   10.3927  -19.4591   21.1959 C   0  0  0  0  0  0  0  0  0  0  0  0
   11.0568  -18.2803   21.8336 C   0  0  0  0  0  0  0  0  0  0  0  0
   10.0506  -17.2238   22.1340 C   0  0  0  0  0  0  0  0  0  0  0  0
    9.5438  -17.3075   23.5450 C   0  0  2  0  0  0  0  0  0  0  0  0
    8.6594  -16.1315   23.7667 N   0  0  0  0  0  0  0  0  0  0  0  0
   10.6460  -17.1252   24.5047 C   0  0  0  0  0  0  0  0  0  0  0  0
   11.3339  -16.0435   24.4429 O   0  0  0  0  0  0  0  0  0  0  0  0
    8.9131  -18.7388   17.5837 N   0  0  0  0  0  0  0  0  0  0  0  0
   12.1092  -20.8304   27.3590 C   0  0  0  0  0  0  0  0  0  0  0  0
   11.2335  -19.7189   27.6314 O   0  0  0  0  0  0  0  0  0  0  0  0
   10.0206  -19.9696   27.7843 C   0  0  0  0  0  0  0  0  0  0  0  0
   11.7870  -18.3726   27.7160 C   0  0  1  0  0  0  0  0  0  0  0  0
   12.1388  -17.8588   26.3298 N   0  0  0  0  0  0  0  0  0  0  0  0
   10.9525  -18.0857   25.4761 C   0  0  0  0  0  0  0  0  0  0  0  0
   13.2570  -18.5915   25.7116 O   0  0  0  0  0  0  0  0  0  0  0  0
   14.4040  -18.5157   26.2536 O   0  0  0  0  0  0  0  0  0  0  0  0
  2  1  1  6
  2  3  1  0
  4  2  1  0
  5  4  1  0
  5  6  1  1
  7  5  1  0
  8  7  2  0
  9 10  1  0
 10 11  2  0
 12 13  1  0
 12 10  1  0
 13 14  1  0
 15 14  1  0
 16 15  1  6
 16 17  1  0
 17  7  1  0
 18 16  1  0
 18 19  2  0
 20 21  1  0
 21 22  2  0
 24 23  1  1
 23 21  1  0
 24 25  1  0
 25 18  1  0
 26 24  1  0
 27 26  2  0
 28 26  1  0
M  END
$$$$
