LRN.pdb
     RDKit          3D

 28 27  0  0  1  0  0  0  0  0999 V2000
    9.5446  -12.4736   19.6739 C   0  0  0  0  0  0  0  0  0  0  0  0
    8.2827  -12.9939   19.0901 C   0  0  2  0  0  0  0  0  0  0  0  0
    7.2455  -11.8972   18.8854 C   0  0  0  0  0  0  0  0  0  0  0  0
    7.7349  -14.1691   19.7827 C   0  0  0  0  0  0  0  0  0  0  0  0
    8.6289  -15.2439   20.2521 C   0  0  2  0  0  0  0  0  0  0  0  0
    8.6230  -16.3351   19.2201 N   0  0  0  0  0  0  0  0  0  0  0  0
    8.4444  -15.8182   21.5746 C   0  0  0  0  0  0  0  0  0  0  0  0
    7.2854  -15.8457   22.1184 O   0  0  0  0  0  0  0  0  0  0  0  0
   13.5007  -21.5865   24.7728 N   0  0  0  0  0  0  0  0  0  0  0  0
   12.2031  -21.3715   24.2556 C   0  0  0  0  0  0  0  0  0  0  0  0
   11.9473  -21.5223   22.9967 N   0  0  0  0  0  0  0  0  0  0  0  0
   11.1143  -20.9780   25.1045 N   0  0  0  0  0  0  0  0  0  0  0  0
    9.7956  -20.6837   24.5590 C   0  0  0  0  0  0  0  0  0  0  0  0
    9.4186  -19.2506   24.7621 C   0  0  0  0  0  0  0  0  0  0  0  0
    9.5286  -18.5033   23.4783 C   0  0  0  0  0  0  0  0  0  0  0  0
    9.1772  -17.0518   23.6347 C   0  0  2  0  0  0  0  0  0  0  0  0
    9.5010  -16.3783   22.3479 N   0  0  0  0  0  0  0  0  0  0  0  0
   10.0610  -16.4065   24.6203 C   0  0  0  0  0  0  0  0  0  0  0  0
   11.3084  -16.7082   24.6087 O   0  0  0  0  0  0  0  0  0  0  0  0
   11.0013  -21.2851   22.6092 N   0  0  0  0  0  0  0  0  0  0  0  0
   11.4037  -14.8731   29.2583 C   0  0  0  0  0  0  0  0  0  0  0  0
   10.0157  -14.5160   29.1083 O   0  0  0  0  0  0  0  0  0  0  0  0
    9.4484  -13.9974   30.0914 C   0  0  0  0  0  0  0  0  0  0  0  0
    9.3421  -14.7693   27.8402 C   0  0  2  0  0  0  0  0  0  0  0  0
   10.3266  -15.3158   26.8198 N   0  0  0  0  0  0  0  0  0  0  0  0
    9.5825  -15.4772   25.5518 C   0  0  0  0  0  0  0  0  0  0  0  0
   10.8505  -16.6443   27.1804 O   0  0  0  0  0  0  0  0  0  0  0  0
   10.0761  -17.6473   27.0840 O   0  0  0  0  0  0  0  0  0  0  0  0
  2  1  1  1
  2  3  1  0
  4  2  1  0
  5  4  1  0
  5  6  1  6
  7  5  1  0
  8  7  2  0
  9 10  1  0
 10 11  2  0
 12 13  1  0
 12 10  1  0
 13 14  1  0
 15 14  1  0
 16 15  1  6
 16 17  1  0
 17  7  1  0
 18 16  1  0
 18 19  2  0
 20 21  1  0
 21 22  2  0
 24 23  1  6
 23 21  1  0
 24 25  1  0
 25 18  1  0
 26 24  1  0
 27 26  2  0
 28 26  1  0
M  END
$$$$
