LRN.pdb
     RDKit          3D

 28 27  0  0  1  0  0  0  0  0999 V2000
    8.8071  -12.2118   19.2504 C   0  0  0  0  0  0  0  0  0  0  0  0
    7.8276  -13.3274   19.2492 C   0  0  2  0  0  0  0  0  0  0  0  0
    6.4126  -12.8536   18.9430 C   0  0  0  0  0  0  0  0  0  0  0  0
    7.8911  -14.1896   20.4382 C   0  0  0  0  0  0  0  0  0  0  0  0
    9.1935  -14.6075   20.9895 C   0  0  2  0  0  0  0  0  0  0  0  0
   10.0341  -15.1193   19.8549 N   0  0  0  0  0  0  0  0  0  0  0  0
    9.2468  -15.5430   22.1007 C   0  0  0  0  0  0  0  0  0  0  0  0
    8.4569  -15.4147   23.1005 O   0  0  0  0  0  0  0  0  0  0  0  0
   13.9079  -20.6912   26.0029 N   0  0  0  0  0  0  0  0  0  0  0  0
   12.9747  -21.7506   25.9389 C   0  0  0  0  0  0  0  0  0  0  0  0
   12.9653  -22.6934   26.8245 N   0  0  0  0  0  0  0  0  0  0  0  0
   11.9974  -21.8253   24.8899 N   0  0  0  0  0  0  0  0  0  0  0  0
   11.9498  -20.8311   23.8257 C   0  0  0  0  0  0  0  0  0  0  0  0
   11.0070  -19.7161   24.1501 C   0  0  0  0  0  0  0  0  0  0  0  0
   10.9632  -18.7373   23.0282 C   0  0  0  0  0  0  0  0  0  0  0  0
   10.1004  -17.5497   23.3447 C   0  0  2  0  0  0  0  0  0  0  0  0
   10.1505  -16.6416   22.1669 N   0  0  0  0  0  0  0  0  0  0  0  0
   10.6844  -16.7609   24.4427 C   0  0  0  0  0  0  0  0  0  0  0  0
   11.1824  -15.6105   24.1676 O   0  0  0  0  0  0  0  0  0  0  0  0
   12.2340  -23.4455   26.7998 N   0  0  0  0  0  0  0  0  0  0  0  0
   10.7590  -13.1016   27.7452 C   0  0  0  0  0  0  0  0  0  0  0  0
    9.8978  -14.2537   27.8308 O   0  0  0  0  0  0  0  0  0  0  0  0
    9.2346  -14.3964   28.8782 C   0  0  0  0  0  0  0  0  0  0  0  0
    9.8360  -15.1886   26.7135 C   0  0  1  0  0  0  0  0  0  0  0  0
   10.9254  -16.2398   26.8444 N   0  0  0  0  0  0  0  0  0  0  0  0
   10.7014  -17.2244   25.7637 C   0  0  0  0  0  0  0  0  0  0  0  0
   10.8613  -16.9792   28.1167 O   0  0  0  0  0  0  0  0  0  0  0  0
   11.7549  -16.7564   28.9924 O   0  0  0  0  0  0  0  0  0  0  0  0
  2  1  1  1
  2  3  1  0
  4  2  1  0
  5  4  1  0
  5  6  1  6
  7  5  1  0
  8  7  2  0
  9 10  1  0
 10 11  2  0
 12 13  1  0
 12 10  1  0
 13 14  1  0
 15 14  1  0
 16 15  1  6
 16 17  1  0
 17  7  1  0
 18 16  1  0
 18 19  2  0
 20 21  1  0
 21 22  2  0
 24 23  1  6
 23 21  1  0
 24 25  1  0
 25 18  1  0
 26 24  1  0
 27 26  2  0
 28 26  1  0
M  END
$$$$
