LRN.pdb
     RDKit          3D

 28 27  0  0  1  0  0  0  0  0999 V2000
    7.4033  -12.1570   27.9773 C   0  0  0  0  0  0  0  0  0  0  0  0
    6.8469  -12.2034   26.6018 C   0  0  2  0  0  0  0  0  0  0  0  0
    5.7121  -11.2066   26.4037 C   0  0  0  0  0  0  0  0  0  0  0  0
    6.5025  -13.5536   26.1335 C   0  0  0  0  0  0  0  0  0  0  0  0
    7.5481  -14.5833   25.9880 C   0  0  2  0  0  0  0  0  0  0  0  0
    8.8829  -13.9148   26.1532 N   0  0  0  0  0  0  0  0  0  0  0  0
    7.5693  -15.4377   24.8122 C   0  0  0  0  0  0  0  0  0  0  0  0
    6.6358  -16.2901   24.6079 O   0  0  0  0  0  0  0  0  0  0  0  0
    7.6298  -11.7971   18.7004 N   0  0  0  0  0  0  0  0  0  0  0  0
    8.5825  -12.8342   18.8189 C   0  0  0  0  0  0  0  0  0  0  0  0
    9.8357  -12.6277   18.5741 N   0  0  0  0  0  0  0  0  0  0  0  0
    8.2009  -14.1597   19.2167 N   0  0  0  0  0  0  0  0  0  0  0  0
    6.9502  -14.4094   19.9215 C   0  0  0  0  0  0  0  0  0  0  0  0
    7.1863  -14.8437   21.3332 C   0  0  0  0  0  0  0  0  0  0  0  0
    8.4628  -15.6053   21.4300 C   0  0  0  0  0  0  0  0  0  0  0  0
    8.5633  -16.3840   22.7100 C   0  0  2  0  0  0  0  0  0  0  0  0
    8.5945  -15.3985   23.8246 N   0  0  0  0  0  0  0  0  0  0  0  0
    9.8596  -17.0777   22.7957 C   0  0  0  0  0  0  0  0  0  0  0  0
   10.1339  -17.9663   21.9113 O   0  0  0  0  0  0  0  0  0  0  0  0
   10.5195  -13.4236   18.5682 N   0  0  0  0  0  0  0  0  0  0  0  0
   14.7332  -18.1087   23.4044 C   0  0  0  0  0  0  0  0  0  0  0  0
   14.4468  -16.7160   23.1705 O   0  0  0  0  0  0  0  0  0  0  0  0
   15.4132  -15.9664   22.9222 C   0  0  0  0  0  0  0  0  0  0  0  0
   13.0678  -16.2463   23.2317 C   0  0  1  0  0  0  0  0  0  0  0  0
   12.1472  -17.3697   23.6785 N   0  0  0  0  0  0  0  0  0  0  0  0
   10.7921  -16.7894   23.7994 C   0  0  0  0  0  0  0  0  0  0  0  0
   12.5005  -17.9106   25.0022 O   0  0  0  0  0  0  0  0  0  0  0  0
   13.6615  -18.4007   25.1659 O   0  0  0  0  0  0  0  0  0  0  0  0
  2  1  1  1
  2  3  1  0
  4  2  1  0
  5  4  1  0
  5  6  1  6
  7  5  1  0
  8  7  2  0
  9 10  1  0
 10 11  2  0
 12 13  1  0
 12 10  1  0
 13 14  1  0
 15 14  1  0
 16 15  1  6
 16 17  1  0
 17  7  1  0
 18 16  1  0
 18 19  2  0
 20 21  1  0
 21 22  2  0
 24 23  1  6
 23 21  1  0
 24 25  1  0
 25 18  1  0
 26 24  1  0
 27 26  2  0
 28 26  1  0
M  END
$$$$
