LRN.pdb
     RDKit          3D

 28 27  0  0  1  0  0  0  0  0999 V2000
    6.9301  -11.1203   26.3242 C   0  0  0  0  0  0  0  0  0  0  0  0
    6.1988  -12.2775   26.8987 C   0  0  2  0  0  0  0  0  0  0  0  0
    6.0672  -12.1834   28.4135 C   0  0  0  0  0  0  0  0  0  0  0  0
    6.6944  -13.5879   26.4538 C   0  0  0  0  0  0  0  0  0  0  0  0
    7.1795  -13.7741   25.0737 C   0  0  2  0  0  0  0  0  0  0  0  0
    6.0721  -13.3844   24.1369 N   0  0  0  0  0  0  0  0  0  0  0  0
    7.7407  -15.0514   24.6657 C   0  0  0  0  0  0  0  0  0  0  0  0
    7.5072  -16.1130   25.3427 O   0  0  0  0  0  0  0  0  0  0  0  0
    8.2929  -14.3982   17.0718 N   0  0  0  0  0  0  0  0  0  0  0  0
    8.9418  -13.7896   18.1698 C   0  0  0  0  0  0  0  0  0  0  0  0
    9.0543  -12.5039   18.2565 N   0  0  0  0  0  0  0  0  0  0  0  0
    9.5024  -14.5712   19.2356 N   0  0  0  0  0  0  0  0  0  0  0  0
    9.1272  -15.9654   19.4318 C   0  0  0  0  0  0  0  0  0  0  0  0
    8.5227  -16.1925   20.7810 C   0  0  0  0  0  0  0  0  0  0  0  0
    9.5848  -16.5265   21.7705 C   0  0  0  0  0  0  0  0  0  0  0  0
    9.0546  -16.5849   23.1742 C   0  0  2  0  0  0  0  0  0  0  0  0
    8.5678  -15.2217   23.5191 N   0  0  0  0  0  0  0  0  0  0  0  0
   10.1447  -16.8395   24.1312 C   0  0  0  0  0  0  0  0  0  0  0  0
   10.8597  -15.8462   24.5174 O   0  0  0  0  0  0  0  0  0  0  0  0
    9.5578  -12.0626   19.0646 N   0  0  0  0  0  0  0  0  0  0  0  0
   10.4425  -18.9181   29.1259 C   0  0  0  0  0  0  0  0  0  0  0  0
   10.9875  -18.3337   27.9268 O   0  0  0  0  0  0  0  0  0  0  0  0
   11.3677  -17.1468   27.9898 C   0  0  0  0  0  0  0  0  0  0  0  0
   11.0717  -19.1352   26.7116 C   0  0  2  0  0  0  0  0  0  0  0  0
   11.5579  -18.2837   25.5507 N   0  0  0  0  0  0  0  0  0  0  0  0
   10.4112  -18.1199   24.6311 C   0  0  0  0  0  0  0  0  0  0  0  0
   12.6366  -18.9248   24.7794 O   0  0  0  0  0  0  0  0  0  0  0  0
   12.3320  -19.5458   23.7133 O   0  0  0  0  0  0  0  0  0  0  0  0
  2  1  1  1
  2  3  1  0
  4  2  1  0
  5  4  1  0
  5  6  1  6
  7  5  1  0
  8  7  2  0
  9 10  1  0
 10 11  2  0
 12 13  1  0
 12 10  1  0
 13 14  1  0
 15 14  1  0
 16 15  1  6
 16 17  1  0
 17  7  1  0
 18 16  1  0
 18 19  2  0
 20 21  1  0
 21 22  2  0
 24 23  1  1
 23 21  1  0
 24 25  1  0
 25 18  1  0
 26 24  1  0
 27 26  2  0
 28 26  1  0
M  END
$$$$
