LRN.pdb
     RDKit          3D

 28 27  0  0  1  0  0  0  0  0999 V2000
    7.4130  -11.8518   27.6748 C   0  0  0  0  0  0  0  0  0  0  0  0
    6.4705  -12.2234   26.5895 C   0  0  2  0  0  0  0  0  0  0  0  0
    5.0752  -11.6559   26.8166 C   0  0  0  0  0  0  0  0  0  0  0  0
    6.4530  -13.6578   26.2683 C   0  0  0  0  0  0  0  0  0  0  0  0
    7.7149  -14.3942   26.0682 C   0  0  2  0  0  0  0  0  0  0  0  0
    8.8283  -13.3902   25.9796 N   0  0  0  0  0  0  0  0  0  0  0  0
    7.8327  -15.3546   24.9835 C   0  0  0  0  0  0  0  0  0  0  0  0
    6.9567  -16.2760   24.8293 O   0  0  0  0  0  0  0  0  0  0  0  0
    9.7593  -14.0943   18.3039 N   0  0  0  0  0  0  0  0  0  0  0  0
    8.8075  -13.2624   18.9359 C   0  0  0  0  0  0  0  0  0  0  0  0
    8.8658  -11.9744   18.8328 N   0  0  0  0  0  0  0  0  0  0  0  0
    7.7355  -13.8108   19.7176 N   0  0  0  0  0  0  0  0  0  0  0  0
    7.5708  -15.2500   19.8748 C   0  0  0  0  0  0  0  0  0  0  0  0
    7.6017  -15.6579   21.3135 C   0  0  0  0  0  0  0  0  0  0  0  0
    8.9926  -16.0023   21.7203 C   0  0  0  0  0  0  0  0  0  0  0  0
    9.0606  -16.5187   23.1287 C   0  0  2  0  0  0  0  0  0  0  0  0
    8.8953  -15.3504   24.0354 N   0  0  0  0  0  0  0  0  0  0  0  0
   10.4082  -17.0305   23.4300 C   0  0  0  0  0  0  0  0  0  0  0  0
   11.3426  -16.1828   23.6654 O   0  0  0  0  0  0  0  0  0  0  0  0
    8.1841  -11.3636   19.3460 N   0  0  0  0  0  0  0  0  0  0  0  0
   10.2722  -20.9207   26.2110 C   0  0  0  0  0  0  0  0  0  0  0  0
   11.3360  -20.0293   25.8235 O   0  0  0  0  0  0  0  0  0  0  0  0
   11.6855  -19.1616   26.6494 C   0  0  0  0  0  0  0  0  0  0  0  0
   11.9500  -20.1729   24.5088 C   0  0  2  0  0  0  0  0  0  0  0  0
   12.0640  -18.8186   23.8291 N   0  0  0  0  0  0  0  0  0  0  0  0
   10.6901  -18.4012   23.4746 C   0  0  0  0  0  0  0  0  0  0  0  0
   12.8333  -18.8680   22.5740 O   0  0  0  0  0  0  0  0  0  0  0  0
   12.1968  -18.9297   21.4757 O   0  0  0  0  0  0  0  0  0  0  0  0
  2  1  1  1
  2  3  1  0
  4  2  1  0
  5  4  1  0
  5  6  1  6
  7  5  1  0
  8  7  2  0
  9 10  1  0
 10 11  2  0
 12 13  1  0
 12 10  1  0
 13 14  1  0
 15 14  1  0
 16 15  1  6
 16 17  1  0
 17  7  1  0
 18 16  1  0
 18 19  2  0
 20 21  1  0
 21 22  2  0
 24 23  1  1
 23 21  1  0
 24 25  1  0
 25 18  1  0
 26 24  1  0
 27 26  2  0
 28 26  1  0
M  END
$$$$
