LRN.pdb
     RDKit          3D

 28 27  0  0  1  0  0  0  0  0999 V2000
    5.3660  -12.2384   26.2296 C   0  0  0  0  0  0  0  0  0  0  0  0
    6.3626  -12.8997   27.1091 C   0  0  2  0  0  0  0  0  0  0  0  0
    7.1665  -11.8973   27.9272 C   0  0  0  0  0  0  0  0  0  0  0  0
    7.2134  -13.8846   26.4257 C   0  0  0  0  0  0  0  0  0  0  0  0
    6.6185  -14.8880   25.5235 C   0  0  2  0  0  0  0  0  0  0  0  0
    6.1575  -16.0473   26.3596 N   0  0  0  0  0  0  0  0  0  0  0  0
    7.3718  -15.3762   24.3802 C   0  0  0  0  0  0  0  0  0  0  0  0
    7.8160  -16.5770   24.3558 O   0  0  0  0  0  0  0  0  0  0  0  0
    7.7387  -13.0865   15.7904 N   0  0  0  0  0  0  0  0  0  0  0  0
    8.3443  -14.3569   15.9197 C   0  0  0  0  0  0  0  0  0  0  0  0
    8.6501  -15.0652   14.8815 N   0  0  0  0  0  0  0  0  0  0  0  0
    8.6470  -14.9147   17.2074 N   0  0  0  0  0  0  0  0  0  0  0  0
    8.2917  -14.2191   18.4376 C   0  0  0  0  0  0  0  0  0  0  0  0
    8.7283  -14.9785   19.6500 C   0  0  0  0  0  0  0  0  0  0  0  0
    8.0954  -14.4058   20.8707 C   0  0  0  0  0  0  0  0  0  0  0  0
    8.4130  -15.2041   22.1023 C   0  0  2  0  0  0  0  0  0  0  0  0
    7.6676  -14.5867   23.2326 N   0  0  0  0  0  0  0  0  0  0  0  0
    9.8310  -15.0510   22.4693 C   0  0  0  0  0  0  0  0  0  0  0  0
   10.4976  -14.0927   21.9362 O   0  0  0  0  0  0  0  0  0  0  0  0
    9.1777  -15.9666   14.9833 N   0  0  0  0  0  0  0  0  0  0  0  0
   12.9829  -18.7905   21.7256 C   0  0  0  0  0  0  0  0  0  0  0  0
   11.6764  -18.6081   21.1457 O   0  0  0  0  0  0  0  0  0  0  0  0
   11.3843  -19.3137   20.1587 C   0  0  0  0  0  0  0  0  0  0  0  0
   10.7654  -17.6266   21.7226 C   0  0  1  0  0  0  0  0  0  0  0  0
   11.4452  -16.8790   22.8576 N   0  0  0  0  0  0  0  0  0  0  0  0
   10.4597  -15.9080   23.3806 C   0  0  0  0  0  0  0  0  0  0  0  0
   12.6165  -16.1034   22.4151 O   0  0  0  0  0  0  0  0  0  0  0  0
   12.4210  -15.0308   21.7620 O   0  0  0  0  0  0  0  0  0  0  0  0
  2  1  1  6
  2  3  1  0
  4  2  1  0
  5  4  1  0
  5  6  1  1
  7  5  1  0
  8  7  2  0
  9 10  1  0
 10 11  2  0
 12 13  1  0
 12 10  1  0
 13 14  1  0
 15 14  1  0
 16 15  1  6
 16 17  1  0
 17  7  1  0
 18 16  1  0
 18 19  2  0
 20 21  1  0
 21 22  2  0
 24 23  1  1
 23 21  1  0
 24 25  1  0
 25 18  1  0
 26 24  1  0
 27 26  2  0
 28 26  1  0
M  END
$$$$
