CTS.pdb
     RDKit          3D

 20 19  0  0  1  0  0  0  0  0999 V2000
   23.3688  -12.9234  -18.1158 N   0  0  0  0  0  0  0  0  0  0  0  0
   23.5316  -12.1383  -16.8911 C   0  0  1  0  0  0  0  0  0  0  0  0
   25.0121  -12.1515  -16.5223 C   0  0  0  0  0  0  0  0  0  0  0  0
   25.5238  -13.7835  -15.9461 S   0  0  0  0  0  0  0  0  0  0  0  0
   23.0699  -10.7595  -17.0912 C   0  0  0  0  0  0  0  0  0  0  0  0
   23.4143  -10.1608  -18.1382 O   0  0  0  0  0  0  0  0  0  0  0  0
   19.5465   -9.6020  -17.4864 C   0  0  0  0  0  0  0  0  0  0  0  0
   20.1892   -8.7619  -16.4216 C   0  0  1  0  0  0  0  0  0  0  0  0
   19.7509   -9.2283  -15.1882 O   0  0  0  0  0  0  0  0  0  0  0  0
   21.6999   -8.7609  -16.5186 C   0  0  2  0  0  0  0  0  0  0  0  0
   22.2535  -10.0475  -16.1762 N   0  0  0  0  0  0  0  0  0  0  0  0
   22.1855   -7.6929  -15.5845 C   0  0  0  0  0  0  0  0  0  0  0  0
   22.6207   -8.0207  -14.4542 O   0  0  0  0  0  0  0  0  0  0  0  0
   23.0330   -2.9358  -15.1687 O   0  0  0  0  0  0  0  0  0  0  0  0
   22.5326   -3.9699  -15.9810 C   0  0  0  0  0  0  0  0  0  0  0  0
   22.6360   -5.2715  -15.1997 C   0  0  2  0  0  0  0  0  0  0  0  0
   22.1405   -6.3396  -16.0022 N   0  0  0  0  0  0  0  0  0  0  0  0
   21.9717   -5.1685  -13.8812 C   0  0  0  0  0  0  0  0  0  0  0  0
   20.7522   -5.3737  -13.6999 O   0  0  0  0  0  0  0  0  0  0  0  0
   22.7494   -4.8241  -12.7843 O   0  0  0  0  0  0  0  0  0  0  0  0
  2  3  1  0
  2  1  1  6
  4  3  1  0
  5  2  1  0
  5  6  2  0
  8  7  1  6
  8 10  1  0
  9  8  1  0
 10 12  1  0
 10 11  1  1
 11  5  1  0
 12 13  2  0
 15 14  1  0
 16 15  1  6
 17 16  1  0
 17 12  1  0
 18 16  1  0
 19 18  2  0
 20 18  1  0
M  END
$$$$
