CTS.pdb
     RDKit          3D

 20 19  0  0  1  0  0  0  0  0999 V2000
   20.8186  -14.6149  -16.6208 N   0  0  0  0  0  0  0  0  0  0  0  0
   20.7007  -13.3306  -17.3133 C   0  0  1  0  0  0  0  0  0  0  0  0
   19.3031  -13.2553  -17.9209 C   0  0  0  0  0  0  0  0  0  0  0  0
   19.0671  -14.5374  -19.1691 S   0  0  0  0  0  0  0  0  0  0  0  0
   20.9108  -12.2158  -16.3820 C   0  0  0  0  0  0  0  0  0  0  0  0
   20.3694  -12.2718  -15.2520 O   0  0  0  0  0  0  0  0  0  0  0  0
   23.9419  -11.1679  -14.6658 C   0  0  0  0  0  0  0  0  0  0  0  0
   23.4030   -9.9400  -15.3400 C   0  0  1  0  0  0  0  0  0  0  0  0
   24.1680   -9.7072  -16.4765 O   0  0  0  0  0  0  0  0  0  0  0  0
   21.9299  -10.0593  -15.6678 C   0  0  2  0  0  0  0  0  0  0  0  0
   21.6903  -11.0670  -16.6709 N   0  0  0  0  0  0  0  0  0  0  0  0
   21.4880   -8.7058  -16.1390 C   0  0  0  0  0  0  0  0  0  0  0  0
   21.6108   -8.4106  -17.3524 O   0  0  0  0  0  0  0  0  0  0  0  0
   18.2736   -7.0865  -15.0069 O   0  0  0  0  0  0  0  0  0  0  0  0
   19.2717   -6.1312  -14.7405 C   0  0  0  0  0  0  0  0  0  0  0  0
   20.4973   -6.4908  -15.5675 C   0  0  2  0  0  0  0  0  0  0  0  0
   20.9427   -7.7940  -15.2014 N   0  0  0  0  0  0  0  0  0  0  0  0
   21.5499   -5.4564  -15.4579 C   0  0  0  0  0  0  0  0  0  0  0  0
   22.6915   -5.6731  -14.9974 O   0  0  0  0  0  0  0  0  0  0  0  0
   21.2503   -4.1726  -15.8920 O   0  0  0  0  0  0  0  0  0  0  0  0
  2  3  1  0
  2  1  1  1
  4  3  1  0
  5  2  1  0
  5  6  2  0
  8  7  1  6
  8 10  1  0
  9  8  1  0
 10 12  1  0
 10 11  1  6
 11  5  1  0
 12 13  2  0
 15 14  1  0
 16 15  1  1
 17 16  1  0
 17 12  1  0
 18 16  1  0
 19 18  2  0
 20 18  1  0
M  END
$$$$
