CTS.pdb
     RDKit          3D

 20 19  0  0  1  0  0  0  0  0999 V2000
   23.2294  -13.1911  -17.9222 N   0  0  0  0  0  0  0  0  0  0  0  0
   23.5269  -12.3680  -16.7489 C   0  0  1  0  0  0  0  0  0  0  0  0
   25.0441  -12.2911  -16.6060 C   0  0  0  0  0  0  0  0  0  0  0  0
   25.7348  -13.8916  -16.1381 S   0  0  0  0  0  0  0  0  0  0  0  0
   22.9619  -11.0219  -16.9003 C   0  0  0  0  0  0  0  0  0  0  0  0
   23.0768  -10.4476  -18.0094 O   0  0  0  0  0  0  0  0  0  0  0  0
   19.3956  -10.0632  -16.7429 C   0  0  0  0  0  0  0  0  0  0  0  0
   20.1407   -9.1494  -15.8143 C   0  0  1  0  0  0  0  0  0  0  0  0
   19.9235   -9.5923  -14.5151 O   0  0  0  0  0  0  0  0  0  0  0  0
   21.6163   -9.0689  -16.1422 C   0  0  2  0  0  0  0  0  0  0  0  0
   22.2878  -10.3158  -15.8717 N   0  0  0  0  0  0  0  0  0  0  0  0
   22.1774   -7.9559  -15.3082 C   0  0  0  0  0  0  0  0  0  0  0  0
   22.8448   -8.2364  -14.2833 O   0  0  0  0  0  0  0  0  0  0  0  0
   23.5197   -4.8183  -17.0755 O   0  0  0  0  0  0  0  0  0  0  0  0
   22.7054   -4.3613  -16.0229 C   0  0  0  0  0  0  0  0  0  0  0  0
   22.5340   -5.5041  -15.0330 C   0  0  2  0  0  0  0  0  0  0  0  0
   21.9396   -6.6148  -15.6990 N   0  0  0  0  0  0  0  0  0  0  0  0
   21.7903   -5.0730  -13.8283 C   0  0  0  0  0  0  0  0  0  0  0  0
   20.6419   -5.4738  -13.5405 O   0  0  0  0  0  0  0  0  0  0  0  0
   22.4052   -4.1720  -12.9701 O   0  0  0  0  0  0  0  0  0  0  0  0
  2  3  1  0
  2  1  1  6
  4  3  1  0
  5  2  1  0
  5  6  2  0
  8  7  1  6
  8 10  1  0
  9  8  1  0
 10 12  1  0
 10 11  1  1
 11  5  1  0
 12 13  2  0
 15 14  1  0
 16 15  1  6
 17 16  1  0
 17 12  1  0
 18 16  1  0
 19 18  2  0
 20 18  1  0
M  END
$$$$
