CTS.pdb
     RDKit          3D

 20 19  0  0  1  0  0  0  0  0999 V2000
   17.1013  -12.9519  -15.5613 N   0  0  0  0  0  0  0  0  0  0  0  0
   16.8653  -11.5072  -15.5584 C   0  0  1  0  0  0  0  0  0  0  0  0
   16.0262  -11.1745  -14.3282 C   0  0  0  0  0  0  0  0  0  0  0  0
   14.4250  -12.0050  -14.3896 S   0  0  0  0  0  0  0  0  0  0  0  0
   18.1352  -10.7722  -15.5214 C   0  0  0  0  0  0  0  0  0  0  0  0
   19.1131  -11.2991  -14.9389 O   0  0  0  0  0  0  0  0  0  0  0  0
   20.1446   -9.7469  -18.5154 C   0  0  0  0  0  0  0  0  0  0  0  0
   20.0000   -8.5473  -17.6250 C   0  0  1  0  0  0  0  0  0  0  0  0
   19.0381   -7.7148  -18.1843 O   0  0  0  0  0  0  0  0  0  0  0  0
   19.6587   -8.9231  -16.1989 C   0  0  2  0  0  0  0  0  0  0  0  0
   18.3386   -9.4951  -16.1032 N   0  0  0  0  0  0  0  0  0  0  0  0
   19.7671   -7.6649  -15.3898 C   0  0  0  0  0  0  0  0  0  0  0  0
   18.7228   -7.0332  -15.0988 O   0  0  0  0  0  0  0  0  0  0  0  0
   22.7135   -4.9483  -12.7090 O   0  0  0  0  0  0  0  0  0  0  0  0
   22.5752   -6.1094  -13.4915 C   0  0  0  0  0  0  0  0  0  0  0  0
   21.2374   -6.0321  -14.2125 C   0  0  2  0  0  0  0  0  0  0  0  0
   21.0471   -7.2212  -14.9742 N   0  0  0  0  0  0  0  0  0  0  0  0
   21.1231   -4.7940  -15.0152 C   0  0  0  0  0  0  0  0  0  0  0  0
   21.5554   -4.6805  -16.1824 O   0  0  0  0  0  0  0  0  0  0  0  0
   20.4998   -3.6970  -14.4367 O   0  0  0  0  0  0  0  0  0  0  0  0
  2  3  1  0
  2  1  1  1
  4  3  1  0
  5  2  1  0
  5  6  2  0
  8  7  1  6
  8 10  1  0
  9  8  1  0
 10 12  1  0
 10 11  1  6
 11  5  1  0
 12 13  2  0
 15 14  1  0
 16 15  1  6
 17 16  1  0
 17 12  1  0
 18 16  1  0
 19 18  2  0
 20 18  1  0
M  END
$$$$
