CTS.pdb
     RDKit          3D

 20 19  0  0  1  0  0  0  0  0999 V2000
   20.2528  -13.3697  -16.9076 N   0  0  0  0  0  0  0  0  0  0  0  0
   19.4493  -12.1565  -16.7479 C   0  0  1  0  0  0  0  0  0  0  0  0
   18.6764  -12.2784  -15.4380 C   0  0  0  0  0  0  0  0  0  0  0  0
   17.4749  -13.6230  -15.5150 S   0  0  0  0  0  0  0  0  0  0  0  0
   20.3054  -10.9645  -16.7239 C   0  0  0  0  0  0  0  0  0  0  0  0
   21.4898  -11.0881  -16.3299 O   0  0  0  0  0  0  0  0  0  0  0  0
   21.3787   -8.7787  -19.6059 C   0  0  0  0  0  0  0  0  0  0  0  0
   20.8091   -7.9004  -18.5303 C   0  0  1  0  0  0  0  0  0  0  0  0
   19.5266   -7.5305  -18.9168 O   0  0  0  0  0  0  0  0  0  0  0  0
   20.8168   -8.5694  -17.1724 C   0  0  2  0  0  0  0  0  0  0  0  0
   19.8855   -9.6688  -17.1183 N   0  0  0  0  0  0  0  0  0  0  0  0
   20.4652   -7.5079  -16.1732 C   0  0  0  0  0  0  0  0  0  0  0  0
   19.2638   -7.3478  -15.8482 O   0  0  0  0  0  0  0  0  0  0  0  0
   23.5508   -5.1133  -14.6608 O   0  0  0  0  0  0  0  0  0  0  0  0
   22.4820   -5.4672  -13.8168 C   0  0  0  0  0  0  0  0  0  0  0  0
   21.2476   -5.6687  -14.6834 C   0  0  2  0  0  0  0  0  0  0  0  0
   21.4993   -6.7119  -15.6208 N   0  0  0  0  0  0  0  0  0  0  0  0
   20.8134   -4.4023  -15.3142 C   0  0  0  0  0  0  0  0  0  0  0  0
   20.8324   -4.1982  -16.5472 O   0  0  0  0  0  0  0  0  0  0  0  0
   20.3594   -3.3840  -14.4875 O   0  0  0  0  0  0  0  0  0  0  0  0
  2  3  1  0
  2  1  1  1
  4  3  1  0
  5  2  1  0
  5  6  2  0
  8  7  1  6
  8 10  1  0
  9  8  1  0
 10 12  1  0
 10 11  1  6
 11  5  1  0
 12 13  2  0
 15 14  1  0
 16 15  1  6
 17 16  1  0
 17 12  1  0
 18 16  1  0
 19 18  2  0
 20 18  1  0
M  END
$$$$
