CTS.pdb
     RDKit          3D

 20 19  0  0  1  0  0  0  0  0999 V2000
   14.2352  -13.2739  -11.5085 N   0  0  0  0  0  0  0  0  0  0  0  0
   13.6841  -11.9196  -11.4384 C   0  0  1  0  0  0  0  0  0  0  0  0
   12.4559  -11.9624  -10.5340 C   0  0  0  0  0  0  0  0  0  0  0  0
   11.0827  -12.8096  -11.3424 S   0  0  0  0  0  0  0  0  0  0  0  0
   14.6770  -10.9805  -10.9031 C   0  0  0  0  0  0  0  0  0  0  0  0
   15.3520  -11.3300   -9.9053 O   0  0  0  0  0  0  0  0  0  0  0  0
   17.8372   -9.9087  -12.2046 C   0  0  0  0  0  0  0  0  0  0  0  0
   17.0896   -8.6430  -11.9012 C   0  0  1  0  0  0  0  0  0  0  0  0
   16.6148   -8.1301  -13.1023 O   0  0  0  0  0  0  0  0  0  0  0  0
   15.9745   -8.8555  -10.8998 C   0  0  2  0  0  0  0  0  0  0  0  0
   14.9311   -9.6922  -11.4385 N   0  0  0  0  0  0  0  0  0  0  0  0
   15.4536   -7.4939  -10.5479 C   0  0  0  0  0  0  0  0  0  0  0  0
   14.5471   -6.9855  -11.2509 O   0  0  0  0  0  0  0  0  0  0  0  0
   14.9859   -6.2216   -6.9016 O   0  0  0  0  0  0  0  0  0  0  0  0
   15.8135   -5.3028   -7.5729 C   0  0  0  0  0  0  0  0  0  0  0  0
   15.6084   -5.4934   -9.0686 C   0  0  2  0  0  0  0  0  0  0  0  0
   15.9987   -6.8155   -9.4296 N   0  0  0  0  0  0  0  0  0  0  0  0
   16.2971   -4.4421   -9.8501 C   0  0  0  0  0  0  0  0  0  0  0  0
   17.2738   -4.6607  -10.5988 O   0  0  0  0  0  0  0  0  0  0  0  0
   15.8300   -3.1394   -9.7443 O   0  0  0  0  0  0  0  0  0  0  0  0
  2  3  1  0
  2  1  1  1
  4  3  1  0
  5  2  1  0
  5  6  2  0
  8  7  1  6
  8 10  1  0
  9  8  1  0
 10 12  1  0
 10 11  1  6
 11  5  1  0
 12 13  2  0
 15 14  1  0
 16 15  1  1
 17 16  1  0
 17 12  1  0
 18 16  1  0
 19 18  2  0
 20 18  1  0
M  END
$$$$
