CTS.pdb
     RDKit          3D

 20 19  0  0  1  0  0  0  0  0999 V2000
   18.9605  -13.0291  -16.7293 N   0  0  0  0  0  0  0  0  0  0  0  0
   19.4485  -11.7590  -17.2691 C   0  0  1  0  0  0  0  0  0  0  0  0
   18.2841  -11.0770  -17.9812 C   0  0  0  0  0  0  0  0  0  0  0  0
   17.7445  -12.0371  -19.4110 S   0  0  0  0  0  0  0  0  0  0  0  0
   19.9613  -10.8996  -16.1954 C   0  0  0  0  0  0  0  0  0  0  0  0
   19.3692  -10.9084  -15.0897 O   0  0  0  0  0  0  0  0  0  0  0  0
   23.1129  -10.8612  -14.2553 C   0  0  0  0  0  0  0  0  0  0  0  0
   22.9372   -9.4827  -14.8224 C   0  0  1  0  0  0  0  0  0  0  0  0
   23.8149   -9.3463  -15.8911 O   0  0  0  0  0  0  0  0  0  0  0  0
   21.5064   -9.2027  -15.2298 C   0  0  2  0  0  0  0  0  0  0  0  0
   21.0902  -10.0505  -16.3193 N   0  0  0  0  0  0  0  0  0  0  0  0
   21.4492   -7.7542  -15.6141 C   0  0  0  0  0  0  0  0  0  0  0  0
   21.4268   -7.4446  -16.8299 O   0  0  0  0  0  0  0  0  0  0  0  0
   19.5509   -5.2539  -16.2500 O   0  0  0  0  0  0  0  0  0  0  0  0
   20.0568   -4.8379  -15.0047 C   0  0  0  0  0  0  0  0  0  0  0  0
   21.4745   -5.3746  -14.8719 C   0  0  2  0  0  0  0  0  0  0  0  0
   21.4219   -6.7711  -14.5939 N   0  0  0  0  0  0  0  0  0  0  0  0
   22.2562   -4.6055  -13.8781 C   0  0  0  0  0  0  0  0  0  0  0  0
   22.6899   -5.0893  -12.8104 O   0  0  0  0  0  0  0  0  0  0  0  0
   22.5218   -3.2704  -14.1492 O   0  0  0  0  0  0  0  0  0  0  0  0
  2  3  1  0
  2  1  1  1
  4  3  1  0
  5  2  1  0
  5  6  2  0
  8  7  1  6
  8 10  1  0
  9  8  1  0
 10 12  1  0
 10 11  1  6
 11  5  1  0
 12 13  2  0
 15 14  1  0
 16 15  1  1
 17 16  1  0
 17 12  1  0
 18 16  1  0
 19 18  2  0
 20 18  1  0
M  END
$$$$
