CTS.pdb
     RDKit          3D

 20 19  0  0  1  0  0  0  0  0999 V2000
   23.5951  -12.3592  -17.8043 N   0  0  0  0  0  0  0  0  0  0  0  0
   23.7608  -10.9075  -17.8937 C   0  0  1  0  0  0  0  0  0  0  0  0
   24.0554  -10.5608  -19.3502 C   0  0  0  0  0  0  0  0  0  0  0  0
   25.6548  -11.2200  -19.8645 S   0  0  0  0  0  0  0  0  0  0  0  0
   22.5475  -10.2160  -17.4421 C   0  0  0  0  0  0  0  0  0  0  0  0
   21.4819  -10.4045  -18.0764 O   0  0  0  0  0  0  0  0  0  0  0  0
   20.6367  -10.3102  -14.1332 C   0  0  0  0  0  0  0  0  0  0  0  0
   20.9646   -8.8860  -14.4749 C   0  0  1  0  0  0  0  0  0  0  0  0
   22.0339   -8.4921  -13.6796 O   0  0  0  0  0  0  0  0  0  0  0  0
   21.2591   -8.6974  -15.9478 C   0  0  2  0  0  0  0  0  0  0  0  0
   22.4923   -9.3405  -16.3279 N   0  0  0  0  0  0  0  0  0  0  0  0
   21.3214   -7.2176  -16.1831 C   0  0  0  0  0  0  0  0  0  0  0  0
   22.4416   -6.6573  -16.2602 O   0  0  0  0  0  0  0  0  0  0  0  0
   19.6283   -3.3844  -18.1023 O   0  0  0  0  0  0  0  0  0  0  0  0
   19.6538   -4.7816  -17.9383 C   0  0  0  0  0  0  0  0  0  0  0  0
   20.0845   -5.0780  -16.5093 C   0  0  2  0  0  0  0  0  0  0  0  0
   20.1130   -6.4890  -16.3124 N   0  0  0  0  0  0  0  0  0  0  0  0
   19.2389   -4.3633  -15.5273 C   0  0  0  0  0  0  0  0  0  0  0  0
   19.2916   -3.1298  -15.3328 O   0  0  0  0  0  0  0  0  0  0  0  0
   18.3363   -5.1075  -14.7803 O   0  0  0  0  0  0  0  0  0  0  0  0
  2  3  1  0
  2  1  1  6
  4  3  1  0
  5  2  1  0
  5  6  2  0
  8  7  1  6
  8 10  1  0
  9  8  1  0
 10 12  1  0
 10 11  1  1
 11  5  1  0
 12 13  2  0
 15 14  1  0
 16 15  1  6
 17 16  1  0
 17 12  1  0
 18 16  1  0
 19 18  2  0
 20 18  1  0
M  END
$$$$
