CTS.pdb
     RDKit          3D

 20 19  0  0  1  0  0  0  0  0999 V2000
   14.2734   -9.9931   -9.3947 N   0  0  0  0  0  0  0  0  0  0  0  0
   14.7652   -8.6331   -9.6209 C   0  0  1  0  0  0  0  0  0  0  0  0
   14.8577   -7.9394   -8.2650 C   0  0  0  0  0  0  0  0  0  0  0  0
   13.2361   -7.8263   -7.4808 S   0  0  0  0  0  0  0  0  0  0  0  0
   16.0811   -8.6566  -10.2706 C   0  0  0  0  0  0  0  0  0  0  0  0
   16.9265   -9.4952   -9.8763 O   0  0  0  0  0  0  0  0  0  0  0  0
   17.0529  -10.0266  -13.2613 C   0  0  0  0  0  0  0  0  0  0  0  0
   17.5410   -8.6108  -13.3616 C   0  0  1  0  0  0  0  0  0  0  0  0
   16.6405   -7.9042  -14.1496 O   0  0  0  0  0  0  0  0  0  0  0  0
   17.7286   -7.9659  -12.0050 C   0  0  2  0  0  0  0  0  0  0  0  0
   16.4701   -7.7901  -11.3236 N   0  0  0  0  0  0  0  0  0  0  0  0
   18.4042   -6.6495  -12.2494 C   0  0  0  0  0  0  0  0  0  0  0  0
   17.7046   -5.6131  -12.3532 O   0  0  0  0  0  0  0  0  0  0  0  0
   22.5639   -6.4301  -11.9612 O   0  0  0  0  0  0  0  0  0  0  0  0
   21.7351   -5.3245  -11.6955 C   0  0  0  0  0  0  0  0  0  0  0  0
   20.5324   -5.4066  -12.6240 C   0  0  2  0  0  0  0  0  0  0  0  0
   19.8166   -6.6095  -12.3571 N   0  0  0  0  0  0  0  0  0  0  0  0
   20.9292   -5.2599  -14.0421 C   0  0  0  0  0  0  0  0  0  0  0  0
   20.8202   -6.1702  -14.8917 O   0  0  0  0  0  0  0  0  0  0  0  0
   21.4521   -4.0407  -14.4502 O   0  0  0  0  0  0  0  0  0  0  0  0
  2  3  1  0
  2  1  1  1
  4  3  1  0
  5  2  1  0
  5  6  2  0
  8  7  1  1
  8 10  1  0
  9  8  1  0
 10 12  1  0
 10 11  1  6
 11  5  1  0
 12 13  2  0
 15 14  1  0
 16 15  1  1
 17 16  1  0
 17 12  1  0
 18 16  1  0
 19 18  2  0
 20 18  1  0
M  END
$$$$
