CTS.pdb
     RDKit          3D

 20 19  0  0  1  0  0  0  0  0999 V2000
   18.4024  -12.5665  -17.3028 N   0  0  0  0  0  0  0  0  0  0  0  0
   19.0830  -11.9368  -16.1701 C   0  0  1  0  0  0  0  0  0  0  0  0
   20.4488  -12.6002  -16.0197 C   0  0  0  0  0  0  0  0  0  0  0  0
   20.3124  -14.1808  -15.1593 S   0  0  0  0  0  0  0  0  0  0  0  0
   19.2403  -10.4947  -16.3933 C   0  0  0  0  0  0  0  0  0  0  0  0
   19.7636  -10.1104  -17.4665 O   0  0  0  0  0  0  0  0  0  0  0  0
   16.8878   -7.6856  -16.9492 C   0  0  0  0  0  0  0  0  0  0  0  0
   17.7490   -7.3262  -15.7737 C   0  0  1  0  0  0  0  0  0  0  0  0
   17.0057   -7.5407  -14.6193 O   0  0  0  0  0  0  0  0  0  0  0  0
   19.0526   -8.0955  -15.7548 C   0  0  2  0  0  0  0  0  0  0  0  0
   18.8388   -9.4933  -15.4731 N   0  0  0  0  0  0  0  0  0  0  0  0
   19.9104   -7.4533  -14.7055 C   0  0  0  0  0  0  0  0  0  0  0  0
   20.4538   -8.1746  -13.8344 O   0  0  0  0  0  0  0  0  0  0  0  0
   23.4867   -5.2415  -13.8038 O   0  0  0  0  0  0  0  0  0  0  0  0
   22.4697   -5.9753  -14.4417 C   0  0  0  0  0  0  0  0  0  0  0  0
   21.1313   -5.3942  -14.0100 C   0  0  2  0  0  0  0  0  0  0  0  0
   20.0855   -6.0473  -14.7244 N   0  0  0  0  0  0  0  0  0  0  0  0
   21.1081   -3.9210  -14.1484 C   0  0  0  0  0  0  0  0  0  0  0  0
   20.7055   -3.3256  -15.1709 O   0  0  0  0  0  0  0  0  0  0  0  0
   21.5598   -3.1585  -13.0801 O   0  0  0  0  0  0  0  0  0  0  0  0
  2  3  1  0
  2  1  1  6
  4  3  1  0
  5  2  1  0
  5  6  2  0
  8  7  1  6
  8 10  1  0
  9  8  1  0
 10 12  1  0
 10 11  1  1
 11  5  1  0
 12 13  2  0
 15 14  1  0
 16 15  1  6
 17 16  1  0
 17 12  1  0
 18 16  1  0
 19 18  2  0
 20 18  1  0
M  END
$$$$
