CTS.pdb
     RDKit          3D

 20 19  0  0  1  0  0  0  0  0999 V2000
   18.3859  -11.6021  -17.9169 N   0  0  0  0  0  0  0  0  0  0  0  0
   18.9604  -10.2986  -18.2542 C   0  0  1  0  0  0  0  0  0  0  0  0
   18.0573   -9.6471  -19.2973 C   0  0  0  0  0  0  0  0  0  0  0  0
   18.6448   -7.9951  -19.7248 S   0  0  0  0  0  0  0  0  0  0  0  0
   19.0561   -9.4476  -17.0622 C   0  0  0  0  0  0  0  0  0  0  0  0
   18.0087   -9.2055  -16.4159 O   0  0  0  0  0  0  0  0  0  0  0  0
   20.3902  -10.0145  -13.7995 C   0  0  0  0  0  0  0  0  0  0  0  0
   21.0529   -8.7541  -14.2738 C   0  0  1  0  0  0  0  0  0  0  0  0
   22.3460   -9.0751  -14.6689 O   0  0  0  0  0  0  0  0  0  0  0  0
   20.2779   -8.0747  -15.3824 C   0  0  2  0  0  0  0  0  0  0  0  0
   20.2607   -8.8730  -16.5830 N   0  0  0  0  0  0  0  0  0  0  0  0
   20.9434   -6.7515  -15.6176 C   0  0  0  0  0  0  0  0  0  0  0  0
   21.8213   -6.6585  -16.5094 O   0  0  0  0  0  0  0  0  0  0  0  0
   19.0621   -3.4925  -15.7736 O   0  0  0  0  0  0  0  0  0  0  0  0
   20.0527   -3.2922  -14.7946 C   0  0  0  0  0  0  0  0  0  0  0  0
   21.1331   -4.3441  -14.9990 C   0  0  2  0  0  0  0  0  0  0  0  0
   20.5638   -5.6389  -14.8263 N   0  0  0  0  0  0  0  0  0  0  0  0
   22.3052   -4.0956  -14.1303 C   0  0  0  0  0  0  0  0  0  0  0  0
   23.0575   -3.1042  -14.2456 O   0  0  0  0  0  0  0  0  0  0  0  0
   22.5832   -5.0176  -13.1308 O   0  0  0  0  0  0  0  0  0  0  0  0
  2  3  1  0
  2  1  1  1
  4  3  1  0
  5  2  1  0
  5  6  2  0
  8  7  1  6
  8 10  1  0
  9  8  1  0
 10 12  1  0
 10 11  1  6
 11  5  1  0
 12 13  2  0
 15 14  1  0
 16 15  1  1
 17 16  1  0
 17 12  1  0
 18 16  1  0
 19 18  2  0
 20 18  1  0
M  END
$$$$
