WVE.pdb
     RDKit          3D

 31 32  0  0  1  0  0  0  0  0999 V2000
    9.8890  -15.3079   21.8140 N   0  0  0  0  0  0  0  0  0  0  0  0
    8.8484  -14.7717   22.7301 C   0  0  1  0  0  0  0  0  0  0  0  0
    7.5751  -15.3634   22.2702 C   0  0  0  0  0  0  0  0  0  0  0  0
    7.3036  -15.2109   20.8452 C   0  0  0  0  0  0  0  0  0  0  0  0
    6.7227  -16.2432   20.0982 C   0  0  0  0  0  0  0  0  0  0  0  0
    6.6654  -15.7893   18.8413 N   0  0  0  0  0  0  0  0  0  0  0  0
    7.1668  -14.5489   18.7484 C   0  0  0  0  0  0  0  0  0  0  0  0
    7.3167  -13.6561   17.7064 C   0  0  0  0  0  0  0  0  0  0  0  0
    7.8597  -12.4222   17.9395 C   0  0  0  0  0  0  0  0  0  0  0  0
    8.2608  -12.0540   19.2017 C   0  0  0  0  0  0  0  0  0  0  0  0
    8.1231  -12.9234   20.2542 C   0  0  0  0  0  0  0  0  0  0  0  0
    7.5733  -14.1714   20.0086 C   0  0  0  0  0  0  0  0  0  0  0  0
    9.3056  -15.1006   24.0853 C   0  0  0  0  0  0  0  0  0  0  0  0
   10.4872  -14.8379   24.4368 O   0  0  0  0  0  0  0  0  0  0  0  0
    6.3120  -13.6380   26.1294 C   0  0  0  0  0  0  0  0  0  0  0  0
    7.7851  -13.7635   26.2466 C   0  0  1  0  0  0  0  0  0  0  0  0
    8.3206  -12.9096   27.4040 C   0  0  0  0  0  0  0  0  0  0  0  0
    8.3427  -15.1307   26.4237 C   0  0  2  0  0  0  0  0  0  0  0  0
    8.4909  -15.7189   25.0664 N   0  0  0  0  0  0  0  0  0  0  0  0
    7.5408  -16.0516   27.2507 C   0  0  0  0  0  0  0  0  0  0  0  0
    7.1184  -15.6618   28.3624 O   0  0  0  0  0  0  0  0  0  0  0  0
    7.2341  -17.3516   26.8247 N   0  0  0  0  0  0  0  0  0  0  0  0
    8.1674  -18.4689   26.9678 C   0  0  1  0  0  0  0  0  0  0  0  0
    9.2774  -18.3970   25.9946 C   0  0  0  0  0  0  0  0  0  0  0  0
   10.4270  -19.2732   26.4107 C   0  0  0  0  0  0  0  0  0  0  0  0
   11.4466  -19.3675   25.3121 C   0  0  0  0  0  0  0  0  0  0  0  0
   11.4764  -20.3727   24.5357 O   0  0  0  0  0  0  0  0  0  0  0  0
    8.5544  -18.5876   28.3587 C   0  0  0  0  0  0  0  0  0  0  0  0
    9.4020  -17.8587   28.9709 O   0  0  0  0  0  0  0  0  0  0  0  0
   12.3811  -18.3662   25.1129 O   0  0  0  0  0  0  0  0  0  0  0  0
    7.9812  -19.5738   29.1589 O   0  0  0  0  0  0  0  0  0  0  0  0
  2 13  1  0
  2  1  1  6
  3  2  1  0
  4  3  1  0
  4  5  2  0
  6  5  1  0
  7 12  2  0
  7  6  1  0
  8  7  1  0
  9 10  1  0
  9  8  2  0
 10 11  2  0
 11 12  1  0
 12  4  1  0
 13 14  2  0
 16 15  1  1
 16 18  1  0
 16 17  1  0
 18 19  1  6
 19 13  1  0
 20 18  1  0
 21 20  2  0
 22 20  1  0
 23 24  1  6
 23 22  1  0
 25 26  1  0
 25 24  1  0
 26 30  1  0
 27 26  2  0
 28 31  1  0
 28 23  1  0
 29 28  2  0
M  END
$$$$
