WVE.pdb
     RDKit          3D

 31 32  0  0  1  0  0  0  0  0999 V2000
    6.5820  -16.9641   25.5329 N   0  0  0  0  0  0  0  0  0  0  0  0
    7.3022  -15.7877   24.9789 C   0  0  1  0  0  0  0  0  0  0  0  0
    8.3823  -15.4960   25.9439 C   0  0  0  0  0  0  0  0  0  0  0  0
    8.0814  -14.4416   26.9058 C   0  0  0  0  0  0  0  0  0  0  0  0
    8.4712  -14.5441   28.2470 C   0  0  0  0  0  0  0  0  0  0  0  0
    7.9968  -13.4453   28.8443 N   0  0  0  0  0  0  0  0  0  0  0  0
    7.3402  -12.6635   27.9749 C   0  0  0  0  0  0  0  0  0  0  0  0
    6.6983  -11.4463   28.0827 C   0  0  0  0  0  0  0  0  0  0  0  0
    6.1257  -10.8781   26.9778 C   0  0  0  0  0  0  0  0  0  0  0  0
    6.1792  -11.5024   25.7543 C   0  0  0  0  0  0  0  0  0  0  0  0
    6.8107  -12.7132   25.6208 C   0  0  0  0  0  0  0  0  0  0  0  0
    7.3868  -13.2819   26.7454 C   0  0  0  0  0  0  0  0  0  0  0  0
    7.6876  -16.1653   23.6142 C   0  0  0  0  0  0  0  0  0  0  0  0
    7.8286  -17.3800   23.3084 O   0  0  0  0  0  0  0  0  0  0  0  0
    6.7124  -14.1165   20.1957 C   0  0  0  0  0  0  0  0  0  0  0  0
    8.1176  -14.5832   20.2811 C   0  0  1  0  0  0  0  0  0  0  0  0
    9.0642  -13.4226   20.6168 C   0  0  0  0  0  0  0  0  0  0  0  0
    8.4172  -15.6777   21.2422 C   0  0  2  0  0  0  0  0  0  0  0  0
    7.9272  -15.2333   22.5736 N   0  0  0  0  0  0  0  0  0  0  0  0
    9.8373  -16.0561   21.3658 C   0  0  0  0  0  0  0  0  0  0  0  0
   10.6255  -15.2823   21.9543 O   0  0  0  0  0  0  0  0  0  0  0  0
   10.3295  -17.2615   20.8458 N   0  0  0  0  0  0  0  0  0  0  0  0
   11.7452  -17.6251   20.9034 C   0  0  1  0  0  0  0  0  0  0  0  0
   11.9473  -19.0062   21.3892 C   0  0  0  0  0  0  0  0  0  0  0  0
   11.4255  -19.1750   22.7898 C   0  0  0  0  0  0  0  0  0  0  0  0
   11.6996  -20.5627   23.2943 C   0  0  0  0  0  0  0  0  0  0  0  0
   12.8517  -21.0842   23.1728 O   0  0  0  0  0  0  0  0  0  0  0  0
   12.3685  -17.3046   19.6357 C   0  0  0  0  0  0  0  0  0  0  0  0
   11.7801  -17.2047   18.5095 O   0  0  0  0  0  0  0  0  0  0  0  0
   10.7092  -21.3128   23.9045 O   0  0  0  0  0  0  0  0  0  0  0  0
   13.7410  -17.0718   19.5740 O   0  0  0  0  0  0  0  0  0  0  0  0
  2 13  1  0
  2  1  1  1
  3  2  1  0
  4  3  1  0
  4  5  2  0
  6  5  1  0
  7 12  2  0
  7  6  1  0
  8  7  1  0
  9 10  1  0
  9  8  2  0
 10 11  2  0
 11 12  1  0
 12  4  1  0
 13 14  2  0
 16 15  1  1
 16 18  1  0
 16 17  1  0
 18 19  1  1
 19 13  1  0
 20 18  1  0
 21 20  2  0
 22 20  1  0
 23 24  1  6
 23 22  1  0
 25 26  1  0
 25 24  1  0
 26 30  1  0
 27 26  2  0
 28 31  1  0
 28 23  1  0
 29 28  2  0
M  END
$$$$
