WVE.pdb
     RDKit          3D

 31 32  0  0  1  0  0  0  0  0999 V2000
    6.5733  -17.4475   24.0815 N   0  0  0  0  0  0  0  0  0  0  0  0
    7.0616  -16.0851   23.7428 C   0  0  1  0  0  0  0  0  0  0  0  0
    7.8692  -15.6556   24.9031 C   0  0  0  0  0  0  0  0  0  0  0  0
    7.1565  -14.8445   25.8838 C   0  0  0  0  0  0  0  0  0  0  0  0
    6.2275  -15.4127   26.7643 C   0  0  0  0  0  0  0  0  0  0  0  0
    5.7362  -14.3925   27.4763 N   0  0  0  0  0  0  0  0  0  0  0  0
    6.2907  -13.2290   27.1061 C   0  0  0  0  0  0  0  0  0  0  0  0
    6.1437  -11.9240   27.5315 C   0  0  0  0  0  0  0  0  0  0  0  0
    6.8880  -10.9317   26.9545 C   0  0  0  0  0  0  0  0  0  0  0  0
    7.7855  -11.2137   25.9522 C   0  0  0  0  0  0  0  0  0  0  0  0
    7.9497  -12.5025   25.5110 C   0  0  0  0  0  0  0  0  0  0  0  0
    7.1909  -13.5010   26.1003 C   0  0  0  0  0  0  0  0  0  0  0  0
    7.7402  -16.2176   22.4483 C   0  0  0  0  0  0  0  0  0  0  0  0
    7.9866  -17.3598   21.9758 O   0  0  0  0  0  0  0  0  0  0  0  0
    6.5658  -13.4156   19.8492 C   0  0  0  0  0  0  0  0  0  0  0  0
    7.9398  -13.9172   19.6040 C   0  0  1  0  0  0  0  0  0  0  0  0
    8.9895  -12.9126   20.0982 C   0  0  0  0  0  0  0  0  0  0  0  0
    8.2987  -15.2386   20.1843 C   0  0  2  0  0  0  0  0  0  0  0  0
    8.1604  -15.1176   21.6595 N   0  0  0  0  0  0  0  0  0  0  0  0
    9.6548  -15.7303   19.8775 C   0  0  0  0  0  0  0  0  0  0  0  0
    9.9952  -15.8743   18.6818 O   0  0  0  0  0  0  0  0  0  0  0  0
   10.5765  -16.0375   20.8883 N   0  0  0  0  0  0  0  0  0  0  0  0
   11.9027  -16.5862   20.6057 C   0  0  1  0  0  0  0  0  0  0  0  0
   12.9529  -15.9651   21.4397 C   0  0  0  0  0  0  0  0  0  0  0  0
   12.9215  -16.4988   22.8456 C   0  0  0  0  0  0  0  0  0  0  0  0
   14.0961  -15.9912   23.6320 C   0  0  0  0  0  0  0  0  0  0  0  0
   15.2315  -15.8403   23.0824 O   0  0  0  0  0  0  0  0  0  0  0  0
   11.8358  -18.0326   20.6489 C   0  0  0  0  0  0  0  0  0  0  0  0
   12.7402  -18.8417   20.2591 O   0  0  0  0  0  0  0  0  0  0  0  0
   13.9777  -15.6739   24.9740 O   0  0  0  0  0  0  0  0  0  0  0  0
   10.7000  -18.6621   21.1542 O   0  0  0  0  0  0  0  0  0  0  0  0
  2 13  1  0
  2  1  1  1
  3  2  1  0
  4  3  1  0
  4  5  2  0
  6  5  1  0
  7 12  2  0
  7  6  1  0
  8  7  1  0
  9 10  1  0
  9  8  2  0
 10 11  2  0
 11 12  1  0
 12  4  1  0
 13 14  2  0
 16 15  1  1
 16 18  1  0
 16 17  1  0
 18 19  1  1
 19 13  1  0
 20 18  1  0
 21 20  2  0
 22 20  1  0
 23 24  1  1
 23 22  1  0
 25 26  1  0
 25 24  1  0
 26 30  1  0
 27 26  2  0
 28 31  1  0
 28 23  1  0
 29 28  2  0
M  END
$$$$
