WVE.pdb
     RDKit          3D

 31 32  0  0  1  0  0  0  0  0999 V2000
    6.6457  -16.8668   24.1136 N   0  0  0  0  0  0  0  0  0  0  0  0
    7.2933  -15.7219   23.4213 C   0  0  1  0  0  0  0  0  0  0  0  0
    8.0389  -14.9968   24.4707 C   0  0  0  0  0  0  0  0  0  0  0  0
    7.2130  -14.4106   25.5203 C   0  0  0  0  0  0  0  0  0  0  0  0
    6.1267  -15.1047   26.0677 C   0  0  0  0  0  0  0  0  0  0  0  0
    5.5727  -14.2668   26.9509 N   0  0  0  0  0  0  0  0  0  0  0  0
    6.2334  -13.1008   26.9963 C   0  0  0  0  0  0  0  0  0  0  0  0
    6.0788  -11.9447   27.7347 C   0  0  0  0  0  0  0  0  0  0  0  0
    6.9526  -10.9059   27.5645 C   0  0  0  0  0  0  0  0  0  0  0  0
    7.9886  -10.9943   26.6653 C   0  0  0  0  0  0  0  0  0  0  0  0
    8.1635  -12.1322   25.9188 C   0  0  0  0  0  0  0  0  0  0  0  0
    7.2731  -13.1789   26.0969 C   0  0  0  0  0  0  0  0  0  0  0  0
    8.0620  -16.3092   22.3178 C   0  0  0  0  0  0  0  0  0  0  0  0
    9.2019  -16.8031   22.5316 O   0  0  0  0  0  0  0  0  0  0  0  0
    6.8493  -13.8992   21.3664 C   0  0  0  0  0  0  0  0  0  0  0  0
    7.7612  -14.1019   20.2145 C   0  0  1  0  0  0  0  0  0  0  0  0
    9.0312  -13.2527   20.3610 C   0  0  0  0  0  0  0  0  0  0  0  0
    8.2017  -15.4931   19.9281 C   0  0  2  0  0  0  0  0  0  0  0  0
    7.6062  -16.3623   20.9768 N   0  0  0  0  0  0  0  0  0  0  0  0
    9.6595  -15.7155   19.9045 C   0  0  0  0  0  0  0  0  0  0  0  0
   10.3184  -15.3343   18.9111 O   0  0  0  0  0  0  0  0  0  0  0  0
   10.3299  -16.3390   20.9663 N   0  0  0  0  0  0  0  0  0  0  0  0
   11.7453  -16.7020   20.9004 C   0  0  1  0  0  0  0  0  0  0  0  0
   12.5378  -15.7208   20.1299 C   0  0  0  0  0  0  0  0  0  0  0  0
   13.9717  -16.1564   20.0012 C   0  0  0  0  0  0  0  0  0  0  0  0
   14.7039  -15.2875   19.0192 C   0  0  0  0  0  0  0  0  0  0  0  0
   15.3031  -14.2346   19.4015 O   0  0  0  0  0  0  0  0  0  0  0  0
   12.2235  -16.9888   22.2373 C   0  0  0  0  0  0  0  0  0  0  0  0
   13.4024  -17.3547   22.5547 O   0  0  0  0  0  0  0  0  0  0  0  0
   14.7478  -15.6062   17.6730 O   0  0  0  0  0  0  0  0  0  0  0  0
   11.3605  -16.8722   23.3252 O   0  0  0  0  0  0  0  0  0  0  0  0
  2 13  1  0
  2  1  1  1
  3  2  1  0
  4  3  1  0
  4  5  2  0
  6  5  1  0
  7 12  2  0
  7  6  1  0
  8  7  1  0
  9 10  1  0
  9  8  2  0
 10 11  2  0
 11 12  1  0
 12  4  1  0
 13 14  2  0
 16 15  1  1
 16 18  1  0
 16 17  1  0
 18 19  1  1
 19 13  1  0
 20 18  1  0
 21 20  2  0
 22 20  1  0
 23 24  1  1
 23 22  1  0
 25 26  1  0
 25 24  1  0
 26 30  1  0
 27 26  2  0
 28 31  1  0
 28 23  1  0
 29 28  2  0
M  END
$$$$
