WVE.pdb
     RDKit          3D

 31 32  0  0  1  0  0  0  0  0999 V2000
    6.3444  -18.1078   25.0436 N   0  0  0  0  0  0  0  0  0  0  0  0
    6.6690  -16.6928   24.7249 C   0  0  1  0  0  0  0  0  0  0  0  0
    7.3487  -16.1638   25.9254 C   0  0  0  0  0  0  0  0  0  0  0  0
    6.7551  -14.9560   26.4878 C   0  0  0  0  0  0  0  0  0  0  0  0
    5.4334  -14.9394   26.9505 C   0  0  0  0  0  0  0  0  0  0  0  0
    5.2061  -13.6816   27.3447 N   0  0  0  0  0  0  0  0  0  0  0  0
    6.2889  -12.9114   27.1632 C   0  0  0  0  0  0  0  0  0  0  0  0
    6.5690  -11.5840   27.4179 C   0  0  0  0  0  0  0  0  0  0  0  0
    7.8099  -11.0831   27.1338 C   0  0  0  0  0  0  0  0  0  0  0  0
    8.7889  -11.8842   26.5958 C   0  0  0  0  0  0  0  0  0  0  0  0
    8.5355  -13.2068   26.3326 C   0  0  0  0  0  0  0  0  0  0  0  0
    7.2755  -13.7053   26.6225 C   0  0  0  0  0  0  0  0  0  0  0  0
    7.4293  -16.7333   23.4703 C   0  0  0  0  0  0  0  0  0  0  0  0
    8.0453  -17.7809   23.1359 O   0  0  0  0  0  0  0  0  0  0  0  0
    8.8167  -14.3803   19.2500 C   0  0  0  0  0  0  0  0  0  0  0  0
    8.0968  -14.5178   20.5393 C   0  0  1  0  0  0  0  0  0  0  0  0
    6.5770  -14.4838   20.3281 C   0  0  0  0  0  0  0  0  0  0  0  0
    8.3923  -15.7207   21.3623 C   0  0  2  0  0  0  0  0  0  0  0  0
    7.5324  -15.6415   22.5724 N   0  0  0  0  0  0  0  0  0  0  0  0
    9.7944  -15.8796   21.7910 C   0  0  0  0  0  0  0  0  0  0  0  0
   10.2252  -15.1833   22.7376 O   0  0  0  0  0  0  0  0  0  0  0  0
   10.6587  -16.7926   21.1705 N   0  0  0  0  0  0  0  0  0  0  0  0
   12.0278  -17.0211   21.6322 C   0  0  1  0  0  0  0  0  0  0  0  0
   12.1909  -18.3495   22.2590 C   0  0  0  0  0  0  0  0  0  0  0  0
   13.6394  -18.6533   22.5274 C   0  0  0  0  0  0  0  0  0  0  0  0
   13.7836  -19.9750   23.2259 C   0  0  0  0  0  0  0  0  0  0  0  0
   12.9887  -20.3085   24.1591 O   0  0  0  0  0  0  0  0  0  0  0  0
   12.9480  -16.7136   20.5566 C   0  0  0  0  0  0  0  0  0  0  0  0
   12.7090  -16.8104   19.3084 O   0  0  0  0  0  0  0  0  0  0  0  0
   14.7829  -20.8662   22.8756 O   0  0  0  0  0  0  0  0  0  0  0  0
   14.2342  -16.2638   20.8482 O   0  0  0  0  0  0  0  0  0  0  0  0
  2 13  1  0
  2  1  1  1
  3  2  1  0
  4  3  1  0
  4  5  2  0
  6  5  1  0
  7 12  2  0
  7  6  1  0
  8  7  1  0
  9 10  1  0
  9  8  2  0
 10 11  2  0
 11 12  1  0
 12  4  1  0
 13 14  2  0
 16 15  1  6
 16 18  1  0
 16 17  1  0
 18 19  1  1
 19 13  1  0
 20 18  1  0
 21 20  2  0
 22 20  1  0
 23 24  1  6
 23 22  1  0
 25 26  1  0
 25 24  1  0
 26 30  1  0
 27 26  2  0
 28 31  1  0
 28 23  1  0
 29 28  2  0
M  END
$$$$
