WVE.pdb
     RDKit          3D

 31 32  0  0  1  0  0  0  0  0999 V2000
    6.5171  -17.0956   23.5732 N   0  0  0  0  0  0  0  0  0  0  0  0
    7.1981  -15.7895   23.3744 C   0  0  1  0  0  0  0  0  0  0  0  0
    8.0712  -15.6162   24.5537 C   0  0  0  0  0  0  0  0  0  0  0  0
    7.4640  -14.9010   25.6705 C   0  0  0  0  0  0  0  0  0  0  0  0
    6.6131  -15.5479   26.5754 C   0  0  0  0  0  0  0  0  0  0  0  0
    6.2041  -14.5994   27.4253 N   0  0  0  0  0  0  0  0  0  0  0  0
    6.7377  -13.4080   27.1186 C   0  0  0  0  0  0  0  0  0  0  0  0
    6.6488  -12.1499   27.6797 C   0  0  0  0  0  0  0  0  0  0  0  0
    7.3497  -11.1096   27.1337 C   0  0  0  0  0  0  0  0  0  0  0  0
    8.1462  -11.2970   26.0292 C   0  0  0  0  0  0  0  0  0  0  0  0
    8.2511  -12.5375   25.4524 C   0  0  0  0  0  0  0  0  0  0  0  0
    7.5367  -13.5851   26.0113 C   0  0  0  0  0  0  0  0  0  0  0  0
    7.8375  -15.8722   22.0561 C   0  0  0  0  0  0  0  0  0  0  0  0
    8.1561  -16.9930   21.5753 O   0  0  0  0  0  0  0  0  0  0  0  0
    6.9771  -12.9135   19.3235 C   0  0  0  0  0  0  0  0  0  0  0  0
    8.3023  -13.5637   19.1800 C   0  0  1  0  0  0  0  0  0  0  0  0
    9.4204  -12.6604   19.7182 C   0  0  0  0  0  0  0  0  0  0  0  0
    8.4814  -14.8974   19.8129 C   0  0  2  0  0  0  0  0  0  0  0  0
    8.1405  -14.7451   21.2520 N   0  0  0  0  0  0  0  0  0  0  0  0
    9.8302  -15.4845   19.7085 C   0  0  0  0  0  0  0  0  0  0  0  0
   10.1884  -16.0005   18.6260 O   0  0  0  0  0  0  0  0  0  0  0  0
   10.7256  -15.4773   20.7873 N   0  0  0  0  0  0  0  0  0  0  0  0
   12.0593  -16.0730   20.7088 C   0  0  1  0  0  0  0  0  0  0  0  0
   12.9917  -15.2505   19.9098 C   0  0  0  0  0  0  0  0  0  0  0  0
   14.3370  -15.9121   19.7872 C   0  0  0  0  0  0  0  0  0  0  0  0
   15.2243  -15.1406   18.8530 C   0  0  0  0  0  0  0  0  0  0  0  0
   15.0678  -13.8904   18.6898 O   0  0  0  0  0  0  0  0  0  0  0  0
   12.5048  -16.4146   22.0441 C   0  0  0  0  0  0  0  0  0  0  0  0
   11.9168  -16.1167   23.1350 O   0  0  0  0  0  0  0  0  0  0  0  0
   16.2356  -15.7656   18.1442 O   0  0  0  0  0  0  0  0  0  0  0  0
   13.6825  -17.1381   22.2213 O   0  0  0  0  0  0  0  0  0  0  0  0
  2 13  1  0
  2  1  1  1
  3  2  1  0
  4  3  1  0
  4  5  2  0
  6  5  1  0
  7 12  2  0
  7  6  1  0
  8  7  1  0
  9 10  1  0
  9  8  2  0
 10 11  2  0
 11 12  1  0
 12  4  1  0
 13 14  2  0
 16 15  1  1
 16 18  1  0
 16 17  1  0
 18 19  1  1
 19 13  1  0
 20 18  1  0
 21 20  2  0
 22 20  1  0
 23 24  1  1
 23 22  1  0
 25 26  1  0
 25 24  1  0
 26 30  1  0
 27 26  2  0
 28 31  1  0
 28 23  1  0
 29 28  2  0
M  END
$$$$
