WVE.pdb
     RDKit          3D

 31 32  0  0  1  0  0  0  0  0999 V2000
    6.5421  -17.8649   25.2180 N   0  0  0  0  0  0  0  0  0  0  0  0
    6.9346  -16.4684   24.8939 C   0  0  1  0  0  0  0  0  0  0  0  0
    7.8946  -16.0742   25.9455 C   0  0  0  0  0  0  0  0  0  0  0  0
    7.4046  -15.0690   26.8820 C   0  0  0  0  0  0  0  0  0  0  0  0
    6.9151  -15.4249   28.1449 C   0  0  0  0  0  0  0  0  0  0  0  0
    6.5105  -14.2816   28.7091 N   0  0  0  0  0  0  0  0  0  0  0  0
    6.7122  -13.2376   27.8921 C   0  0  0  0  0  0  0  0  0  0  0  0
    6.4891  -11.8801   28.0058 C   0  0  0  0  0  0  0  0  0  0  0  0
    6.8310  -11.0452   26.9773 C   0  0  0  0  0  0  0  0  0  0  0  0
    7.3967  -11.5381   25.8255 C   0  0  0  0  0  0  0  0  0  0  0  0
    7.6281  -12.8835   25.6875 C   0  0  0  0  0  0  0  0  0  0  0  0
    7.2776  -13.7218   26.7336 C   0  0  0  0  0  0  0  0  0  0  0  0
    7.4147  -16.5030   23.5075 C   0  0  0  0  0  0  0  0  0  0  0  0
    7.7488  -17.5978   22.9796 O   0  0  0  0  0  0  0  0  0  0  0  0
    8.6338  -13.9567   19.3495 C   0  0  0  0  0  0  0  0  0  0  0  0
    7.9795  -14.1539   20.6658 C   0  0  1  0  0  0  0  0  0  0  0  0
    6.4520  -14.0759   20.5391 C   0  0  0  0  0  0  0  0  0  0  0  0
    8.2890  -15.4086   21.4018 C   0  0  2  0  0  0  0  0  0  0  0  0
    7.5408  -15.3554   22.6854 N   0  0  0  0  0  0  0  0  0  0  0  0
    9.7140  -15.6477   21.6973 C   0  0  0  0  0  0  0  0  0  0  0  0
   10.2985  -14.9076   22.5200 O   0  0  0  0  0  0  0  0  0  0  0  0
   10.4325  -16.6843   21.0853 N   0  0  0  0  0  0  0  0  0  0  0  0
   11.8204  -16.9921   21.4301 C   0  0  1  0  0  0  0  0  0  0  0  0
   11.9660  -18.3473   22.0017 C   0  0  0  0  0  0  0  0  0  0  0  0
   13.4061  -18.6630   22.2999 C   0  0  0  0  0  0  0  0  0  0  0  0
   13.5382  -20.0442   22.8746 C   0  0  0  0  0  0  0  0  0  0  0  0
   13.1710  -21.0635   22.2112 O   0  0  0  0  0  0  0  0  0  0  0  0
   12.6683  -16.6917   20.2948 C   0  0  0  0  0  0  0  0  0  0  0  0
   13.8899  -16.3309   20.3399 O   0  0  0  0  0  0  0  0  0  0  0  0
   14.0618  -20.2477   24.1396 O   0  0  0  0  0  0  0  0  0  0  0  0
   12.1592  -16.7873   19.0011 O   0  0  0  0  0  0  0  0  0  0  0  0
  2 13  1  0
  2  1  1  1
  3  2  1  0
  4  3  1  0
  4  5  2  0
  6  5  1  0
  7 12  2  0
  7  6  1  0
  8  7  1  0
  9 10  1  0
  9  8  2  0
 10 11  2  0
 11 12  1  0
 12  4  1  0
 13 14  2  0
 16 15  1  6
 16 18  1  0
 16 17  1  0
 18 19  1  1
 19 13  1  0
 20 18  1  0
 21 20  2  0
 22 20  1  0
 23 24  1  6
 23 22  1  0
 25 26  1  0
 25 24  1  0
 26 30  1  0
 27 26  2  0
 28 31  1  0
 28 23  1  0
 29 28  2  0
M  END
$$$$
