WVE.pdb
     RDKit          3D

 31 32  0  0  1  0  0  0  0  0999 V2000
    5.5482  -17.0054   23.6552 N   0  0  0  0  0  0  0  0  0  0  0  0
    6.5042  -15.8767   23.5082 C   0  0  1  0  0  0  0  0  0  0  0  0
    7.2803  -15.8506   24.7651 C   0  0  0  0  0  0  0  0  0  0  0  0
    6.7918  -14.9149   25.7718 C   0  0  0  0  0  0  0  0  0  0  0  0
    5.6485  -15.1915   26.5318 C   0  0  0  0  0  0  0  0  0  0  0  0
    5.4627  -14.1167   27.3060 N   0  0  0  0  0  0  0  0  0  0  0  0
    6.4063  -13.1895   27.0863 C   0  0  0  0  0  0  0  0  0  0  0  0
    6.6652  -11.9454   27.6255 C   0  0  0  0  0  0  0  0  0  0  0  0
    7.7488  -11.2292   27.1960 C   0  0  0  0  0  0  0  0  0  0  0  0
    8.5895  -11.7304   26.2309 C   0  0  0  0  0  0  0  0  0  0  0  0
    8.3536  -12.9641   25.6787 C   0  0  0  0  0  0  0  0  0  0  0  0
    7.2532  -13.6821   26.1188 C   0  0  0  0  0  0  0  0  0  0  0  0
    7.2320  -16.1336   22.2600 C   0  0  0  0  0  0  0  0  0  0  0  0
    7.4769  -17.3168   21.9011 O   0  0  0  0  0  0  0  0  0  0  0  0
    6.8633  -13.9114   18.9080 C   0  0  0  0  0  0  0  0  0  0  0  0
    8.2584  -14.3116   19.2129 C   0  0  1  0  0  0  0  0  0  0  0  0
    9.0630  -13.1275   19.7661 C   0  0  0  0  0  0  0  0  0  0  0  0
    8.4539  -15.4453   20.1553 C   0  0  2  0  0  0  0  0  0  0  0  0
    7.7032  -15.1144   21.3951 N   0  0  0  0  0  0  0  0  0  0  0  0
    9.8509  -15.7485   20.5179 C   0  0  0  0  0  0  0  0  0  0  0  0
   10.3344  -15.2444   21.5563 O   0  0  0  0  0  0  0  0  0  0  0  0
   10.6527  -16.5898   19.7337 N   0  0  0  0  0  0  0  0  0  0  0  0
   11.9176  -17.1458   20.2141 C   0  0  1  0  0  0  0  0  0  0  0  0
   12.2662  -18.4099   19.5323 C   0  0  0  0  0  0  0  0  0  0  0  0
   13.5663  -18.9667   20.0443 C   0  0  0  0  0  0  0  0  0  0  0  0
   13.8958  -20.2613   19.3581 C   0  0  0  0  0  0  0  0  0  0  0  0
   12.9787  -20.9876   18.8627 O   0  0  0  0  0  0  0  0  0  0  0  0
   12.9315  -16.1117   20.1832 C   0  0  0  0  0  0  0  0  0  0  0  0
   12.9536  -15.0995   19.4091 O   0  0  0  0  0  0  0  0  0  0  0  0
   15.2034  -20.7007   19.2451 O   0  0  0  0  0  0  0  0  0  0  0  0
   14.0135  -16.1714   21.0594 O   0  0  0  0  0  0  0  0  0  0  0  0
  2 13  1  0
  2  1  1  1
  3  2  1  0
  4  3  1  0
  4  5  2  0
  6  5  1  0
  7 12  2  0
  7  6  1  0
  8  7  1  0
  9 10  1  0
  9  8  2  0
 10 11  2  0
 11 12  1  0
 12  4  1  0
 13 14  2  0
 16 15  1  1
 16 18  1  0
 16 17  1  0
 18 19  1  1
 19 13  1  0
 20 18  1  0
 21 20  2  0
 22 20  1  0
 23 24  1  6
 23 22  1  0
 25 26  1  0
 25 24  1  0
 26 30  1  0
 27 26  2  0
 28 31  1  0
 28 23  1  0
 29 28  2  0
M  END
$$$$
