WVE.pdb
     RDKit          3D

 31 32  0  0  1  0  0  0  0  0999 V2000
   10.6258  -16.0129   21.9399 N   0  0  0  0  0  0  0  0  0  0  0  0
    9.6137  -15.4680   22.8823 C   0  0  1  0  0  0  0  0  0  0  0  0
    8.3617  -16.1914   22.5784 C   0  0  0  0  0  0  0  0  0  0  0  0
    7.6244  -15.6892   21.4244 C   0  0  0  0  0  0  0  0  0  0  0  0
    6.7884  -16.5242   20.6725 C   0  0  0  0  0  0  0  0  0  0  0  0
    6.3199  -15.7626   19.6778 N   0  0  0  0  0  0  0  0  0  0  0  0
    6.8009  -14.5131   19.7534 C   0  0  0  0  0  0  0  0  0  0  0  0
    6.6153  -13.3721   18.9990 C   0  0  0  0  0  0  0  0  0  0  0  0
    7.2467  -12.2113   19.3532 C   0  0  0  0  0  0  0  0  0  0  0  0
    8.0677  -12.1613   20.4546 C   0  0  0  0  0  0  0  0  0  0  0  0
    8.2691  -13.2817   21.2205 C   0  0  0  0  0  0  0  0  0  0  0  0
    7.6266  -14.4533   20.8537 C   0  0  0  0  0  0  0  0  0  0  0  0
   10.1905  -15.6319   24.2218 C   0  0  0  0  0  0  0  0  0  0  0  0
   11.1195  -16.4616   24.4148 O   0  0  0  0  0  0  0  0  0  0  0  0
    8.3583  -14.0612   27.7770 C   0  0  0  0  0  0  0  0  0  0  0  0
    9.8315  -14.0958   27.6096 C   0  0  1  0  0  0  0  0  0  0  0  0
   10.5357  -14.2749   28.9615 C   0  0  0  0  0  0  0  0  0  0  0  0
   10.3910  -15.1228   26.6910 C   0  0  2  0  0  0  0  0  0  0  0  0
    9.7642  -14.9040   25.3608 N   0  0  0  0  0  0  0  0  0  0  0  0
   10.1765  -16.5271   27.0870 C   0  0  0  0  0  0  0  0  0  0  0  0
    9.0327  -17.0233   26.9784 O   0  0  0  0  0  0  0  0  0  0  0  0
   11.2196  -17.3247   27.5783 N   0  0  0  0  0  0  0  0  0  0  0  0
   11.0119  -18.6966   28.0415 C   0  0  1  0  0  0  0  0  0  0  0  0
   12.1073  -19.5977   27.6259 C   0  0  0  0  0  0  0  0  0  0  0  0
   12.5124  -19.3442   26.1998 C   0  0  0  0  0  0  0  0  0  0  0  0
   13.6151  -20.2769   25.7879 C   0  0  0  0  0  0  0  0  0  0  0  0
   14.8315  -19.9859   26.0105 O   0  0  0  0  0  0  0  0  0  0  0  0
   10.7136  -18.6780   29.4589 C   0  0  0  0  0  0  0  0  0  0  0  0
   10.8298  -17.6786   30.2413 O   0  0  0  0  0  0  0  0  0  0  0  0
   13.3405  -21.4772   25.1556 O   0  0  0  0  0  0  0  0  0  0  0  0
   10.2511  -19.8320   30.0881 O   0  0  0  0  0  0  0  0  0  0  0  0
  2 13  1  0
  2  1  1  6
  3  2  1  0
  4  3  1  0
  4  5  2  0
  6  5  1  0
  7 12  2  0
  7  6  1  0
  8  7  1  0
  9 10  1  0
  9  8  2  0
 10 11  2  0
 11 12  1  0
 12  4  1  0
 13 14  2  0
 16 15  1  1
 16 18  1  0
 16 17  1  0
 18 19  1  6
 19 13  1  0
 20 18  1  0
 21 20  2  0
 22 20  1  0
 23 24  1  1
 23 22  1  0
 25 26  1  0
 25 24  1  0
 26 30  1  0
 27 26  2  0
 28 31  1  0
 28 23  1  0
 29 28  2  0
M  END
$$$$
