WVE.pdb
     RDKit          3D

 31 32  0  0  1  0  0  0  0  0999 V2000
   10.4020  -16.3317   22.1725 N   0  0  0  0  0  0  0  0  0  0  0  0
    9.8583  -15.4469   23.2359 C   0  0  1  0  0  0  0  0  0  0  0  0
    8.3934  -15.6351   23.1949 C   0  0  0  0  0  0  0  0  0  0  0  0
    7.6104  -14.4160   23.3631 C   0  0  0  0  0  0  0  0  0  0  0  0
    7.3617  -13.5540   22.2878 C   0  0  0  0  0  0  0  0  0  0  0  0
    6.6705  -12.5299   22.8002 N   0  0  0  0  0  0  0  0  0  0  0  0
    6.4680  -12.6893   24.1163 C   0  0  0  0  0  0  0  0  0  0  0  0
    5.8148  -11.9453   25.0781 C   0  0  0  0  0  0  0  0  0  0  0  0
    5.7616  -12.3965   26.3685 C   0  0  0  0  0  0  0  0  0  0  0  0
    6.3510  -13.5858   26.7259 C   0  0  0  0  0  0  0  0  0  0  0  0
    7.0070  -14.3436   25.7888 C   0  0  0  0  0  0  0  0  0  0  0  0
    7.0569  -13.8783   24.4845 C   0  0  0  0  0  0  0  0  0  0  0  0
   10.5626  -15.8266   24.4661 C   0  0  0  0  0  0  0  0  0  0  0  0
   11.3949  -16.7731   24.4537 O   0  0  0  0  0  0  0  0  0  0  0  0
   11.0021  -13.1341   27.4724 C   0  0  0  0  0  0  0  0  0  0  0  0
   10.9602  -14.5407   27.9407 C   0  0  1  0  0  0  0  0  0  0  0  0
    9.6448  -14.8386   28.6733 C   0  0  0  0  0  0  0  0  0  0  0  0
   11.1375  -15.6068   26.9192 C   0  0  2  0  0  0  0  0  0  0  0  0
   10.3687  -15.1893   25.7172 N   0  0  0  0  0  0  0  0  0  0  0  0
   10.6964  -16.9575   27.3141 C   0  0  0  0  0  0  0  0  0  0  0  0
    9.4982  -17.1408   27.6258 O   0  0  0  0  0  0  0  0  0  0  0  0
   11.5812  -18.0446   27.3466 N   0  0  0  0  0  0  0  0  0  0  0  0
   11.1818  -19.3725   27.8123 C   0  0  1  0  0  0  0  0  0  0  0  0
   12.0365  -20.4406   27.2527 C   0  0  0  0  0  0  0  0  0  0  0  0
   12.0982  -20.3614   25.7520 C   0  0  0  0  0  0  0  0  0  0  0  0
   12.9833  -21.4419   25.1999 C   0  0  0  0  0  0  0  0  0  0  0  0
   12.7093  -22.6680   25.3884 O   0  0  0  0  0  0  0  0  0  0  0  0
   11.0615  -19.3518   29.2557 C   0  0  0  0  0  0  0  0  0  0  0  0
   11.4575  -18.4224   30.0326 O   0  0  0  0  0  0  0  0  0  0  0  0
   14.1199  -21.1358   24.4718 O   0  0  0  0  0  0  0  0  0  0  0  0
   10.4645  -20.4216   29.9198 O   0  0  0  0  0  0  0  0  0  0  0  0
  2 13  1  0
  2  1  1  6
  3  2  1  0
  4  3  1  0
  4  5  2  0
  6  5  1  0
  7 12  2  0
  7  6  1  0
  8  7  1  0
  9 10  1  0
  9  8  2  0
 10 11  2  0
 11 12  1  0
 12  4  1  0
 13 14  2  0
 16 15  1  6
 16 18  1  0
 16 17  1  0
 18 19  1  6
 19 13  1  0
 20 18  1  0
 21 20  2  0
 22 20  1  0
 23 24  1  1
 23 22  1  0
 25 26  1  0
 25 24  1  0
 26 30  1  0
 27 26  2  0
 28 31  1  0
 28 23  1  0
 29 28  2  0
M  END
$$$$
