WVE.pdb
     RDKit          3D

 31 32  0  0  1  0  0  0  0  0999 V2000
    6.6010  -17.1799   25.3261 N   0  0  0  0  0  0  0  0  0  0  0  0
    7.1164  -15.8813   24.8186 C   0  0  1  0  0  0  0  0  0  0  0  0
    8.2549  -15.5387   25.6958 C   0  0  0  0  0  0  0  0  0  0  0  0
    7.9714  -14.5259   26.7064 C   0  0  0  0  0  0  0  0  0  0  0  0
    8.4217  -14.6646   28.0252 C   0  0  0  0  0  0  0  0  0  0  0  0
    7.9481  -13.5992   28.6808 N   0  0  0  0  0  0  0  0  0  0  0  0
    7.2359  -12.8047   27.8685 C   0  0  0  0  0  0  0  0  0  0  0  0
    6.5708  -11.6084   28.0467 C   0  0  0  0  0  0  0  0  0  0  0  0
    5.9373  -11.0171   26.9880 C   0  0  0  0  0  0  0  0  0  0  0  0
    5.9520  -11.5975   25.7421 C   0  0  0  0  0  0  0  0  0  0  0  0
    6.6054  -12.7868   25.5389 C   0  0  0  0  0  0  0  0  0  0  0  0
    7.2434  -13.3791   26.6170 C   0  0  0  0  0  0  0  0  0  0  0  0
    7.3910  -16.0937   23.3927 C   0  0  0  0  0  0  0  0  0  0  0  0
    7.6717  -17.2460   22.9660 O   0  0  0  0  0  0  0  0  0  0  0  0
    8.0804  -12.7300   20.7245 C   0  0  0  0  0  0  0  0  0  0  0  0
    7.6405  -14.0692   20.2635 C   0  0  1  0  0  0  0  0  0  0  0  0
    8.1397  -14.3535   18.8402 C   0  0  0  0  0  0  0  0  0  0  0  0
    8.0232  -15.2391   21.0979 C   0  0  2  0  0  0  0  0  0  0  0  0
    7.3685  -15.0623   22.4209 N   0  0  0  0  0  0  0  0  0  0  0  0
    9.4696  -15.4332   21.3109 C   0  0  0  0  0  0  0  0  0  0  0  0
    9.9911  -15.0177   22.3700 O   0  0  0  0  0  0  0  0  0  0  0  0
   10.2776  -16.0745   20.3615 N   0  0  0  0  0  0  0  0  0  0  0  0
   11.5116  -16.7736   20.7197 C   0  0  1  0  0  0  0  0  0  0  0  0
   11.3058  -17.7421   21.8170 C   0  0  0  0  0  0  0  0  0  0  0  0
   12.5484  -18.5500   22.0733 C   0  0  0  0  0  0  0  0  0  0  0  0
   12.3272  -19.5210   23.1974 C   0  0  0  0  0  0  0  0  0  0  0  0
   11.2226  -19.5509   23.8244 O   0  0  0  0  0  0  0  0  0  0  0  0
   12.1224  -17.3025   19.5175 C   0  0  0  0  0  0  0  0  0  0  0  0
   13.3283  -17.6963   19.3943 O   0  0  0  0  0  0  0  0  0  0  0  0
   13.3161  -20.4093   23.5831 O   0  0  0  0  0  0  0  0  0  0  0  0
   11.3726  -17.4178   18.3485 O   0  0  0  0  0  0  0  0  0  0  0  0
  2 13  1  0
  2  1  1  1
  3  2  1  0
  4  3  1  0
  4  5  2  0
  6  5  1  0
  7 12  2  0
  7  6  1  0
  8  7  1  0
  9 10  1  0
  9  8  2  0
 10 11  2  0
 11 12  1  0
 12  4  1  0
 13 14  2  0
 16 15  1  1
 16 18  1  0
 16 17  1  0
 18 19  1  1
 19 13  1  0
 20 18  1  0
 21 20  2  0
 22 20  1  0
 23 24  1  1
 23 22  1  0
 25 26  1  0
 25 24  1  0
 26 30  1  0
 27 26  2  0
 28 31  1  0
 28 23  1  0
 29 28  2  0
M  END
$$$$
