WVE.pdb
     RDKit          3D

 31 32  0  0  1  0  0  0  0  0999 V2000
    6.7968  -17.0493   25.6724 N   0  0  0  0  0  0  0  0  0  0  0  0
    7.1310  -15.8095   24.9237 C   0  0  1  0  0  0  0  0  0  0  0  0
    8.3590  -15.2854   25.5565 C   0  0  0  0  0  0  0  0  0  0  0  0
    8.1374  -14.3074   26.6157 C   0  0  0  0  0  0  0  0  0  0  0  0
    8.7406  -14.4431   27.8723 C   0  0  0  0  0  0  0  0  0  0  0  0
    8.2875  -13.4173   28.6014 N   0  0  0  0  0  0  0  0  0  0  0  0
    7.4464  -12.6503   27.8924 C   0  0  0  0  0  0  0  0  0  0  0  0
    6.7422  -11.4963   28.1716 C   0  0  0  0  0  0  0  0  0  0  0  0
    5.9623  -10.9235   27.2045 C   0  0  0  0  0  0  0  0  0  0  0  0
    5.8675  -11.4809   25.9516 C   0  0  0  0  0  0  0  0  0  0  0  0
    6.5568  -12.6280   25.6491 C   0  0  0  0  0  0  0  0  0  0  0  0
    7.3434  -13.2019   26.6350 C   0  0  0  0  0  0  0  0  0  0  0  0
    7.2043  -16.2060   23.5126 C   0  0  0  0  0  0  0  0  0  0  0  0
    6.1853  -16.6645   22.9293 O   0  0  0  0  0  0  0  0  0  0  0  0
    8.1871  -13.3846   21.5930 C   0  0  0  0  0  0  0  0  0  0  0  0
    7.5756  -14.6184   21.0422 C   0  0  1  0  0  0  0  0  0  0  0  0
    7.3370  -14.4882   19.5316 C   0  0  0  0  0  0  0  0  0  0  0  0
    8.3043  -15.8969   21.2564 C   0  0  2  0  0  0  0  0  0  0  0  0
    8.3791  -16.1139   22.7252 N   0  0  0  0  0  0  0  0  0  0  0  0
    9.6691  -15.9617   20.7011 C   0  0  0  0  0  0  0  0  0  0  0  0
   10.3974  -14.9452   20.7533 O   0  0  0  0  0  0  0  0  0  0  0  0
   10.1762  -17.1321   20.1193 N   0  0  0  0  0  0  0  0  0  0  0  0
   11.4670  -17.7060   20.4991 C   0  0  1  0  0  0  0  0  0  0  0  0
   11.3223  -19.0308   21.1381 C   0  0  0  0  0  0  0  0  0  0  0  0
   12.6625  -19.6646   21.3920 C   0  0  0  0  0  0  0  0  0  0  0  0
   12.4982  -21.0213   22.0147 C   0  0  0  0  0  0  0  0  0  0  0  0
   11.8779  -21.9471   21.4047 O   0  0  0  0  0  0  0  0  0  0  0  0
   12.3638  -17.6479   19.3631 C   0  0  0  0  0  0  0  0  0  0  0  0
   13.6142  -17.4040   19.4006 O   0  0  0  0  0  0  0  0  0  0  0  0
   13.0155  -21.3032   23.2672 O   0  0  0  0  0  0  0  0  0  0  0  0
   11.8743  -17.8711   18.0777 O   0  0  0  0  0  0  0  0  0  0  0  0
  2 13  1  0
  2  1  1  1
  3  2  1  0
  4  3  1  0
  4  5  2  0
  6  5  1  0
  7 12  2  0
  7  6  1  0
  8  7  1  0
  9 10  1  0
  9  8  2  0
 10 11  2  0
 11 12  1  0
 12  4  1  0
 13 14  2  0
 16 15  1  6
 16 18  1  0
 16 17  1  0
 18 19  1  1
 19 13  1  0
 20 18  1  0
 21 20  2  0
 22 20  1  0
 23 24  1  6
 23 22  1  0
 25 26  1  0
 25 24  1  0
 26 30  1  0
 27 26  2  0
 28 31  1  0
 28 23  1  0
 29 28  2  0
M  END
$$$$
