WVE.pdb
     RDKit          3D

 31 32  0  0  1  0  0  0  0  0999 V2000
    6.5414  -18.5628   25.1927 N   0  0  0  0  0  0  0  0  0  0  0  0
    6.6457  -17.0956   24.9793 C   0  0  1  0  0  0  0  0  0  0  0  0
    7.0873  -16.5388   26.2747 C   0  0  0  0  0  0  0  0  0  0  0  0
    6.5070  -15.2460   26.6199 C   0  0  0  0  0  0  0  0  0  0  0  0
    5.1442  -15.1125   26.9135 C   0  0  0  0  0  0  0  0  0  0  0  0
    4.9494  -13.8073   27.1317 N   0  0  0  0  0  0  0  0  0  0  0  0
    6.0904  -13.1157   26.9970 C   0  0  0  0  0  0  0  0  0  0  0  0
    6.4191  -11.7818   27.1315 C   0  0  0  0  0  0  0  0  0  0  0  0
    7.7125  -11.3769   26.9454 C   0  0  0  0  0  0  0  0  0  0  0  0
    8.6968  -12.2814   26.6249 C   0  0  0  0  0  0  0  0  0  0  0  0
    8.3959  -13.6128   26.4848 C   0  0  0  0  0  0  0  0  0  0  0  0
    7.0830  -14.0137   26.6740 C   0  0  0  0  0  0  0  0  0  0  0  0
    7.5333  -16.9252   23.8231 C   0  0  0  0  0  0  0  0  0  0  0  0
    8.3305  -17.8447   23.4950 O   0  0  0  0  0  0  0  0  0  0  0  0
    8.7548  -14.1795   19.7991 C   0  0  0  0  0  0  0  0  0  0  0  0
    7.9588  -14.5456   20.9957 C   0  0  1  0  0  0  0  0  0  0  0  0
    6.5096  -14.8762   20.6135 C   0  0  0  0  0  0  0  0  0  0  0  0
    8.4549  -15.6741   21.8277 C   0  0  2  0  0  0  0  0  0  0  0  0
    7.5682  -15.7593   23.0179 N   0  0  0  0  0  0  0  0  0  0  0  0
    9.8520  -15.5696   22.2882 C   0  0  0  0  0  0  0  0  0  0  0  0
   10.0987  -14.9628   23.3547 O   0  0  0  0  0  0  0  0  0  0  0  0
   10.9129  -16.1350   21.5668 N   0  0  0  0  0  0  0  0  0  0  0  0
   12.2973  -16.0924   22.0372 C   0  0  1  0  0  0  0  0  0  0  0  0
   12.4586  -16.7389   23.3565 C   0  0  0  0  0  0  0  0  0  0  0  0
   12.2254  -18.2223   23.2705 C   0  0  0  0  0  0  0  0  0  0  0  0
   12.5503  -18.8869   24.5775 C   0  0  0  0  0  0  0  0  0  0  0  0
   13.1432  -18.2494   25.5027 O   0  0  0  0  0  0  0  0  0  0  0  0
   13.1696  -16.5758   20.9867 C   0  0  0  0  0  0  0  0  0  0  0  0
   12.8041  -17.0707   19.8705 O   0  0  0  0  0  0  0  0  0  0  0  0
   12.2151  -20.2091   24.8127 O   0  0  0  0  0  0  0  0  0  0  0  0
   14.5524  -16.5226   21.1506 O   0  0  0  0  0  0  0  0  0  0  0  0
  2 13  1  0
  2  1  1  1
  3  2  1  0
  4  3  1  0
  4  5  2  0
  6  5  1  0
  7 12  2  0
  7  6  1  0
  8  7  1  0
  9 10  1  0
  9  8  2  0
 10 11  2  0
 11 12  1  0
 12  4  1  0
 13 14  2  0
 16 15  1  6
 16 18  1  0
 16 17  1  0
 18 19  1  1
 19 13  1  0
 20 18  1  0
 21 20  2  0
 22 20  1  0
 23 24  1  1
 23 22  1  0
 25 26  1  0
 25 24  1  0
 26 30  1  0
 27 26  2  0
 28 31  1  0
 28 23  1  0
 29 28  2  0
M  END
$$$$
