TYL.pdb
     RDKit          3D

 28 28  0  0  1  0  0  0  0  0999 V2000
    6.1842  -20.7277   26.0555 C   0  0  0  0  0  0  0  0  0  0  0  0
    6.7431  -19.4737   25.3814 C   0  0  1  0  0  0  0  0  0  0  0  0
    7.9752  -19.2216   25.9872 O   0  0  0  0  0  0  0  0  0  0  0  0
    6.9381  -19.8002   23.9290 C   0  0  2  0  0  0  0  0  0  0  0  0
    7.7682  -20.9815   23.8286 N   0  0  0  0  0  0  0  0  0  0  0  0
    7.5200  -18.7243   23.1374 C   0  0  0  0  0  0  0  0  0  0  0  0
    8.7675  -18.7082   22.9416 O   0  0  0  0  0  0  0  0  0  0  0  0
    8.8643  -11.5760   18.0341 O   0  0  0  0  0  0  0  0  0  0  0  0
    8.3021  -12.5776   18.8145 C   0  0  0  0  0  0  0  0  0  0  0  0
    8.3052  -13.9023   18.4524 C   0  0  0  0  0  0  0  0  0  0  0  0
    7.7342  -14.8516   19.2634 C   0  0  0  0  0  0  0  0  0  0  0  0
    7.1289  -14.5237   20.4822 C   0  0  0  0  0  0  0  0  0  0  0  0
    6.5157  -15.5877   21.2957 C   0  0  0  0  0  0  0  0  0  0  0  0
    7.4679  -16.5349   21.9430 C   0  0  2  0  0  0  0  0  0  0  0  0
    6.7793  -17.6626   22.5515 N   0  0  0  0  0  0  0  0  0  0  0  0
    8.2636  -15.8269   22.9760 C   0  0  0  0  0  0  0  0  0  0  0  0
    9.3044  -15.2130   22.5545 O   0  0  0  0  0  0  0  0  0  0  0  0
    7.1295  -13.1815   20.8416 C   0  0  0  0  0  0  0  0  0  0  0  0
    7.7087  -12.2467   20.0115 C   0  0  0  0  0  0  0  0  0  0  0  0
    8.3006  -13.3035   27.8201 C   0  0  0  0  0  0  0  0  0  0  0  0
    7.6269  -12.7467   26.5708 C   0  0  2  0  0  0  0  0  0  0  0  0
    6.4392  -11.9341   27.0108 C   0  0  0  0  0  0  0  0  0  0  0  0
    7.2556  -13.8499   25.6193 C   0  0  0  0  0  0  0  0  0  0  0  0
    8.3943  -14.7206   25.2152 C   0  0  2  0  0  0  0  0  0  0  0  0
    7.9427  -15.8002   24.3337 N   0  0  0  0  0  0  0  0  0  0  0  0
    9.0191  -15.3234   26.4158 C   0  0  0  0  0  0  0  0  0  0  0  0
    8.4215  -16.2956   27.0036 O   0  0  0  0  0  0  0  0  0  0  0  0
   10.2049  -14.9436   26.9821 O   0  0  0  0  0  0  0  0  0  0  0  0
  2  1  1  1
  2  3  1  0
  4  2  1  0
  4  5  1  1
  6  7  2  0
  6  4  1  0
  9  8  1  0
 10  9  2  0
 11 10  1  0
 12 18  1  0
 12 11  2  0
 14 13  1  1
 13 12  1  0
 14 15  1  0
 15  6  1  0
 16 14  1  0
 17 16  2  0
 18 19  2  0
 19  9  1  0
 21 20  1  1
 21 22  1  0
 24 23  1  1
 23 21  1  0
 24 25  1  0
 25 16  1  0
 26 28  1  0
 26 24  1  0
 27 26  2  0
M  END
$$$$
