TYL.pdb
     RDKit          3D

 28 28  0  0  1  0  0  0  0  0999 V2000
    7.2082  -20.6545   18.2593 C   0  0  0  0  0  0  0  0  0  0  0  0
    8.1798  -20.0713   19.2867 C   0  0  1  0  0  0  0  0  0  0  0  0
    9.4024  -20.7103   19.0738 O   0  0  0  0  0  0  0  0  0  0  0  0
    8.3055  -18.6038   18.9953 C   0  0  2  0  0  0  0  0  0  0  0  0
    8.8685  -18.4424   17.6718 N   0  0  0  0  0  0  0  0  0  0  0  0
    9.1031  -17.8591   19.9607 C   0  0  0  0  0  0  0  0  0  0  0  0
   10.2804  -17.5186   19.6557 O   0  0  0  0  0  0  0  0  0  0  0  0
    7.7206  -11.8425   18.2867 O   0  0  0  0  0  0  0  0  0  0  0  0
    8.0298  -12.7057   19.3296 C   0  0  0  0  0  0  0  0  0  0  0  0
    9.3060  -12.8813   19.8056 C   0  0  0  0  0  0  0  0  0  0  0  0
    9.5546  -13.7487   20.8402 C   0  0  0  0  0  0  0  0  0  0  0  0
    8.5365  -14.4875   21.4541 C   0  0  0  0  0  0  0  0  0  0  0  0
    8.8736  -15.4172   22.5459 C   0  0  0  0  0  0  0  0  0  0  0  0
    9.5156  -16.6965   22.1289 C   0  0  2  0  0  0  0  0  0  0  0  0
    8.6533  -17.4738   21.2523 N   0  0  0  0  0  0  0  0  0  0  0  0
    9.8602  -17.5042   23.3249 C   0  0  0  0  0  0  0  0  0  0  0  0
    8.8695  -17.9789   23.9816 O   0  0  0  0  0  0  0  0  0  0  0  0
    7.2481  -14.3046   20.9670 C   0  0  0  0  0  0  0  0  0  0  0  0
    7.0228  -13.4286   19.9278 C   0  0  0  0  0  0  0  0  0  0  0  0
   12.2494  -21.6110   23.6170 C   0  0  0  0  0  0  0  0  0  0  0  0
   12.7363  -20.1822   23.4027 C   0  0  2  0  0  0  0  0  0  0  0  0
   14.1137  -20.2498   22.8007 C   0  0  0  0  0  0  0  0  0  0  0  0
   12.7012  -19.4006   24.6867 C   0  0  0  0  0  0  0  0  0  0  0  0
   11.4474  -18.6256   24.8990 C   0  0  2  0  0  0  0  0  0  0  0  0
   11.1638  -17.7608   23.7510 N   0  0  0  0  0  0  0  0  0  0  0  0
   11.5773  -17.7772   26.1068 C   0  0  0  0  0  0  0  0  0  0  0  0
   11.6410  -16.5030   25.9653 O   0  0  0  0  0  0  0  0  0  0  0  0
   11.6364  -18.2213   27.3992 O   0  0  0  0  0  0  0  0  0  0  0  0
  2  1  1  6
  2  3  1  0
  4  2  1  0
  4  5  1  6
  6  7  2  0
  6  4  1  0
  9  8  1  0
 10  9  2  0
 11 10  1  0
 12 18  1  0
 12 11  2  0
 14 13  1  1
 13 12  1  0
 14 15  1  0
 15  6  1  0
 16 14  1  0
 17 16  2  0
 18 19  2  0
 19  9  1  0
 21 20  1  1
 21 22  1  0
 24 23  1  6
 23 21  1  0
 24 25  1  0
 25 16  1  0
 26 28  1  0
 26 24  1  0
 27 26  2  0
M  END
$$$$
