TYL.pdb
     RDKit          3D

 28 28  0  0  1  0  0  0  0  0999 V2000
    8.9188  -14.3462   20.4025 C   0  0  0  0  0  0  0  0  0  0  0  0
    7.8337  -14.9510   19.5101 C   0  0  1  0  0  0  0  0  0  0  0  0
    8.2174  -14.6846   18.1947 O   0  0  0  0  0  0  0  0  0  0  0  0
    7.8297  -16.4318   19.7580 C   0  0  2  0  0  0  0  0  0  0  0  0
    6.8302  -17.0399   18.9059 N   0  0  0  0  0  0  0  0  0  0  0  0
    7.5909  -16.8151   21.1431 C   0  0  0  0  0  0  0  0  0  0  0  0
    6.4107  -16.7997   21.5923 O   0  0  0  0  0  0  0  0  0  0  0  0
    8.0563  -19.8080   29.4706 O   0  0  0  0  0  0  0  0  0  0  0  0
    8.2664  -19.5194   28.1287 C   0  0  0  0  0  0  0  0  0  0  0  0
    7.2910  -19.6507   27.1708 C   0  0  0  0  0  0  0  0  0  0  0  0
    7.5543  -19.3508   25.8572 C   0  0  0  0  0  0  0  0  0  0  0  0
    8.8106  -18.9028   25.4326 C   0  0  0  0  0  0  0  0  0  0  0  0
    9.0335  -18.6183   24.0046 C   0  0  0  0  0  0  0  0  0  0  0  0
    8.2812  -17.4552   23.4532 C   0  0  2  0  0  0  0  0  0  0  0  0
    8.6042  -17.2156   22.0552 N   0  0  0  0  0  0  0  0  0  0  0  0
    8.5808  -16.2364   24.2447 C   0  0  0  0  0  0  0  0  0  0  0  0
    9.7547  -15.7490   24.0951 O   0  0  0  0  0  0  0  0  0  0  0  0
    9.7922  -18.7727   26.4074 C   0  0  0  0  0  0  0  0  0  0  0  0
    9.5047  -19.0795   27.7194 C   0  0  0  0  0  0  0  0  0  0  0  0
    5.6447  -11.5583   26.7778 C   0  0  0  0  0  0  0  0  0  0  0  0
    6.9616  -12.2226   26.3915 C   0  0  2  0  0  0  0  0  0  0  0  0
    7.3885  -11.6616   25.0621 C   0  0  0  0  0  0  0  0  0  0  0  0
    6.8272  -13.7200   26.3741 C   0  0  0  0  0  0  0  0  0  0  0  0
    8.0413  -14.4393   25.8983 C   0  0  2  0  0  0  0  0  0  0  0  0
    7.6773  -15.6203   25.1113 N   0  0  0  0  0  0  0  0  0  0  0  0
    8.8541  -14.8780   27.0568 C   0  0  0  0  0  0  0  0  0  0  0  0
    8.4738  -15.9038   27.7280 O   0  0  0  0  0  0  0  0  0  0  0  0
   10.0058  -14.2883   27.5008 O   0  0  0  0  0  0  0  0  0  0  0  0
  2  1  1  1
  2  3  1  0
  4  2  1  0
  4  5  1  6
  6  7  2  0
  6  4  1  0
  9  8  1  0
 10  9  2  0
 11 10  1  0
 12 18  1  0
 12 11  2  0
 14 13  1  1
 13 12  1  0
 14 15  1  0
 15  6  1  0
 16 14  1  0
 17 16  2  0
 18 19  2  0
 19  9  1  0
 21 20  1  6
 21 22  1  0
 24 23  1  1
 23 21  1  0
 24 25  1  0
 25 16  1  0
 26 28  1  0
 26 24  1  0
 27 26  2  0
M  END
$$$$
