TYL.pdb
     RDKit          3D

 28 28  0  0  1  0  0  0  0  0999 V2000
    6.1675  -18.4658   24.9896 C   0  0  0  0  0  0  0  0  0  0  0  0
    6.6368  -19.4262   23.8956 C   0  0  1  0  0  0  0  0  0  0  0  0
    5.6141  -20.3623   23.7335 O   0  0  0  0  0  0  0  0  0  0  0  0
    6.8043  -18.6205   22.6398 C   0  0  2  0  0  0  0  0  0  0  0  0
    6.8348  -19.5258   21.5110 N   0  0  0  0  0  0  0  0  0  0  0  0
    7.9869  -17.7699   22.6172 C   0  0  0  0  0  0  0  0  0  0  0  0
    9.0475  -18.2027   22.0855 O   0  0  0  0  0  0  0  0  0  0  0  0
    7.3618  -13.4716   17.4199 O   0  0  0  0  0  0  0  0  0  0  0  0
    7.8119  -13.6710   18.7184 C   0  0  0  0  0  0  0  0  0  0  0  0
    9.1148  -13.9815   19.0219 C   0  0  0  0  0  0  0  0  0  0  0  0
    9.5052  -14.1680   20.3248 C   0  0  0  0  0  0  0  0  0  0  0  0
    8.6098  -14.0532   21.3946 C   0  0  0  0  0  0  0  0  0  0  0  0
    9.0886  -14.2864   22.7680 C   0  0  0  0  0  0  0  0  0  0  0  0
    9.2970  -15.7137   23.1451 C   0  0  2  0  0  0  0  0  0  0  0  0
    8.0469  -16.4576   23.1588 N   0  0  0  0  0  0  0  0  0  0  0  0
    9.9352  -15.7969   24.4820 C   0  0  0  0  0  0  0  0  0  0  0  0
   11.1458  -15.3872   24.5484 O   0  0  0  0  0  0  0  0  0  0  0  0
    7.2935  -13.7390   21.0796 C   0  0  0  0  0  0  0  0  0  0  0  0
    6.9250  -13.5563   19.7646 C   0  0  0  0  0  0  0  0  0  0  0  0
   10.8589  -13.4620   28.2151 C   0  0  0  0  0  0  0  0  0  0  0  0
    9.5607  -13.9813   27.6072 C   0  0  2  0  0  0  0  0  0  0  0  0
    8.4352  -13.1264   28.1238 C   0  0  0  0  0  0  0  0  0  0  0  0
    9.3676  -15.4412   27.9104 C   0  0  0  0  0  0  0  0  0  0  0  0
    9.9891  -16.3613   26.9178 C   0  0  2  0  0  0  0  0  0  0  0  0
    9.3017  -16.2824   25.6265 N   0  0  0  0  0  0  0  0  0  0  0  0
    9.9124  -17.7577   27.4074 C   0  0  0  0  0  0  0  0  0  0  0  0
    9.1791  -18.5979   26.7719 O   0  0  0  0  0  0  0  0  0  0  0  0
   10.5627  -18.2642   28.4990 O   0  0  0  0  0  0  0  0  0  0  0  0
  2  1  1  1
  2  3  1  0
  4  2  1  0
  4  5  1  6
  6  7  2  0
  6  4  1  0
  9  8  1  0
 10  9  2  0
 11 10  1  0
 12 18  1  0
 12 11  2  0
 14 13  1  1
 13 12  1  0
 14 15  1  0
 15  6  1  0
 16 14  1  0
 17 16  2  0
 18 19  2  0
 19  9  1  0
 21 20  1  1
 21 22  1  0
 24 23  1  1
 23 21  1  0
 24 25  1  0
 25 16  1  0
 26 28  1  0
 26 24  1  0
 27 26  2  0
M  END
$$$$
