TYL.pdb
     RDKit          3D

 28 28  0  0  1  0  0  0  0  0999 V2000
    7.9979  -19.3891   22.9960 C   0  0  0  0  0  0  0  0  0  0  0  0
    8.8264  -19.6782   21.7431 C   0  0  1  0  0  0  0  0  0  0  0  0
    8.3810  -20.9084   21.2565 O   0  0  0  0  0  0  0  0  0  0  0  0
    8.5267  -18.5908   20.7523 C   0  0  2  0  0  0  0  0  0  0  0  0
    9.0761  -18.9716   19.4686 N   0  0  0  0  0  0  0  0  0  0  0  0
    9.0247  -17.2739   21.1267 C   0  0  0  0  0  0  0  0  0  0  0  0
   10.2234  -16.9717   20.8683 O   0  0  0  0  0  0  0  0  0  0  0  0
    7.7077  -13.2159   15.9144 O   0  0  0  0  0  0  0  0  0  0  0  0
    7.7751  -13.3495   17.2950 C   0  0  0  0  0  0  0  0  0  0  0  0
    8.5355  -12.5297   18.0923 C   0  0  0  0  0  0  0  0  0  0  0  0
    8.5649  -12.7072   19.4534 C   0  0  0  0  0  0  0  0  0  0  0  0
    7.8331  -13.7170   20.0890 C   0  0  0  0  0  0  0  0  0  0  0  0
    7.9250  -13.8669   21.5515 C   0  0  0  0  0  0  0  0  0  0  0  0
    8.8182  -14.9591   22.0333 C   0  0  2  0  0  0  0  0  0  0  0  0
    8.2518  -16.2741   21.7764 N   0  0  0  0  0  0  0  0  0  0  0  0
    9.0681  -14.8051   23.4878 C   0  0  0  0  0  0  0  0  0  0  0  0
    9.8688  -13.8634   23.8194 O   0  0  0  0  0  0  0  0  0  0  0  0
    7.0664  -14.5425   19.2757 C   0  0  0  0  0  0  0  0  0  0  0  0
    7.0524  -14.3451   17.9122 C   0  0  0  0  0  0  0  0  0  0  0  0
    5.6724  -12.5413   27.0919 C   0  0  0  0  0  0  0  0  0  0  0  0
    6.8816  -13.4670   27.1656 C   0  0  2  0  0  0  0  0  0  0  0  0
    8.0135  -12.6982   27.7917 C   0  0  0  0  0  0  0  0  0  0  0  0
    7.2298  -14.0110   25.8079 C   0  0  0  0  0  0  0  0  0  0  0  0
    8.2356  -15.1091   25.8264 C   0  0  2  0  0  0  0  0  0  0  0  0
    8.4932  -15.6082   24.4733 N   0  0  0  0  0  0  0  0  0  0  0  0
    7.7406  -16.2325   26.6562 C   0  0  0  0  0  0  0  0  0  0  0  0
    6.6844  -16.8597   26.2840 O   0  0  0  0  0  0  0  0  0  0  0  0
    8.3091  -16.6889   27.8136 O   0  0  0  0  0  0  0  0  0  0  0  0
  2  1  1  1
  2  3  1  0
  4  2  1  0
  4  5  1  6
  6  7  2  0
  6  4  1  0
  9  8  1  0
 10  9  2  0
 11 10  1  0
 12 18  1  0
 12 11  2  0
 14 13  1  1
 13 12  1  0
 14 15  1  0
 15  6  1  0
 16 14  1  0
 17 16  2  0
 18 19  2  0
 19  9  1  0
 21 20  1  6
 21 22  1  0
 24 23  1  6
 23 21  1  0
 24 25  1  0
 25 16  1  0
 26 28  1  0
 26 24  1  0
 27 26  2  0
M  END
$$$$
