TYL.pdb
     RDKit          3D

 28 28  0  0  1  0  0  0  0  0999 V2000
    9.3997  -12.9935   19.6025 C   0  0  0  0  0  0  0  0  0  0  0  0
    8.1740  -13.6176   18.9333 C   0  0  1  0  0  0  0  0  0  0  0  0
    8.2371  -13.2538   17.5871 O   0  0  0  0  0  0  0  0  0  0  0  0
    8.3023  -15.1069   19.0731 C   0  0  2  0  0  0  0  0  0  0  0  0
    7.2313  -15.7345   18.3289 N   0  0  0  0  0  0  0  0  0  0  0  0
    8.2927  -15.5910   20.4473 C   0  0  0  0  0  0  0  0  0  0  0  0
    7.1905  -15.7035   21.0535 O   0  0  0  0  0  0  0  0  0  0  0  0
   10.7202  -19.0932   28.2815 O   0  0  0  0  0  0  0  0  0  0  0  0
   10.6874  -18.6641   26.9612 C   0  0  0  0  0  0  0  0  0  0  0  0
   11.6041  -17.7880   26.4336 C   0  0  0  0  0  0  0  0  0  0  0  0
   11.5239  -17.3971   25.1199 C   0  0  0  0  0  0  0  0  0  0  0  0
   10.5198  -17.8639   24.2637 C   0  0  0  0  0  0  0  0  0  0  0  0
   10.4778  -17.3889   22.8700 C   0  0  0  0  0  0  0  0  0  0  0  0
    9.3305  -16.5015   22.5249 C   0  0  2  0  0  0  0  0  0  0  0  0
    9.4529  -15.9569   21.1816 N   0  0  0  0  0  0  0  0  0  0  0  0
    9.2386  -15.3886   23.5020 C   0  0  0  0  0  0  0  0  0  0  0  0
   10.1781  -14.5212   23.4491 O   0  0  0  0  0  0  0  0  0  0  0  0
    9.5961  -18.7497   24.8048 C   0  0  0  0  0  0  0  0  0  0  0  0
    9.6967  -19.1277   26.1258 C   0  0  0  0  0  0  0  0  0  0  0  0
    5.4013  -11.7731   26.5064 C   0  0  0  0  0  0  0  0  0  0  0  0
    6.8101  -12.3541   26.4591 C   0  0  2  0  0  0  0  0  0  0  0  0
    7.7662  -11.2238   26.1892 C   0  0  0  0  0  0  0  0  0  0  0  0
    6.9076  -13.4537   25.4383 C   0  0  0  0  0  0  0  0  0  0  0  0
    8.2139  -14.1688   25.4299 C   0  0  2  0  0  0  0  0  0  0  0  0
    8.2150  -15.2487   24.4398 N   0  0  0  0  0  0  0  0  0  0  0  0
    8.4770  -14.7544   26.7653 C   0  0  0  0  0  0  0  0  0  0  0  0
    7.9327  -15.8767   27.0682 O   0  0  0  0  0  0  0  0  0  0  0  0
    9.2657  -14.2097   27.7412 O   0  0  0  0  0  0  0  0  0  0  0  0
  2  1  1  1
  2  3  1  0
  4  2  1  0
  4  5  1  6
  6  7  2  0
  6  4  1  0
  9  8  1  0
 10  9  2  0
 11 10  1  0
 12 18  1  0
 12 11  2  0
 14 13  1  1
 13 12  1  0
 14 15  1  0
 15  6  1  0
 16 14  1  0
 17 16  2  0
 18 19  2  0
 19  9  1  0
 21 20  1  6
 21 22  1  0
 24 23  1  1
 23 21  1  0
 24 25  1  0
 25 16  1  0
 26 28  1  0
 26 24  1  0
 27 26  2  0
M  END
$$$$
