TYL.pdb
     RDKit          3D

 28 28  0  0  1  0  0  0  0  0999 V2000
    4.1884  -18.9689   22.1852 C   0  0  0  0  0  0  0  0  0  0  0  0
    4.9363  -17.7108   22.6296 C   0  0  1  0  0  0  0  0  0  0  0  0
    5.4767  -18.0010   23.8836 O   0  0  0  0  0  0  0  0  0  0  0  0
    6.0357  -17.4736   21.6350 C   0  0  2  0  0  0  0  0  0  0  0  0
    6.8514  -18.6665   21.5550 N   0  0  0  0  0  0  0  0  0  0  0  0
    6.8796  -16.3221   21.9257 C   0  0  0  0  0  0  0  0  0  0  0  0
    6.3473  -15.1838   22.0516 O   0  0  0  0  0  0  0  0  0  0  0  0
    8.5857  -13.2889   16.3429 O   0  0  0  0  0  0  0  0  0  0  0  0
    8.5647  -13.4522   17.7217 C   0  0  0  0  0  0  0  0  0  0  0  0
    9.6462  -13.8977   18.4415 C   0  0  0  0  0  0  0  0  0  0  0  0
    9.5695  -14.0407   19.8048 C   0  0  0  0  0  0  0  0  0  0  0  0
    8.4036  -13.7446   20.5205 C   0  0  0  0  0  0  0  0  0  0  0  0
    8.3807  -13.9399   21.9804 C   0  0  0  0  0  0  0  0  0  0  0  0
    9.0318  -15.1867   22.4750 C   0  0  2  0  0  0  0  0  0  0  0  0
    8.2908  -16.3757   22.0835 N   0  0  0  0  0  0  0  0  0  0  0  0
    9.1511  -15.1442   23.9533 C   0  0  0  0  0  0  0  0  0  0  0  0
   10.0943  -14.4131   24.4158 O   0  0  0  0  0  0  0  0  0  0  0  0
    7.3137  -13.2947   19.7854 C   0  0  0  0  0  0  0  0  0  0  0  0
    7.4142  -13.1590   18.4180 C   0  0  0  0  0  0  0  0  0  0  0  0
    7.6845  -12.7621   27.2392 C   0  0  0  0  0  0  0  0  0  0  0  0
    6.7783  -13.7159   26.4687 C   0  0  2  0  0  0  0  0  0  0  0  0
    5.3523  -13.3374   26.7647 C   0  0  0  0  0  0  0  0  0  0  0  0
    7.0828  -15.1475   26.8127 C   0  0  0  0  0  0  0  0  0  0  0  0
    8.3821  -15.6435   26.2801 C   0  0  2  0  0  0  0  0  0  0  0  0
    8.3153  -15.8374   24.8295 N   0  0  0  0  0  0  0  0  0  0  0  0
    8.7252  -16.9386   26.9128 C   0  0  0  0  0  0  0  0  0  0  0  0
    8.9147  -16.9776   28.1817 O   0  0  0  0  0  0  0  0  0  0  0  0
    8.8639  -18.1370   26.2681 O   0  0  0  0  0  0  0  0  0  0  0  0
  2  1  1  6
  2  3  1  0
  4  2  1  0
  4  5  1  1
  6  7  2  0
  6  4  1  0
  9  8  1  0
 10  9  2  0
 11 10  1  0
 12 18  1  0
 12 11  2  0
 14 13  1  1
 13 12  1  0
 14 15  1  0
 15  6  1  0
 16 14  1  0
 17 16  2  0
 18 19  2  0
 19  9  1  0
 21 20  1  1
 21 22  1  0
 24 23  1  1
 23 21  1  0
 24 25  1  0
 25 16  1  0
 26 28  1  0
 26 24  1  0
 27 26  2  0
M  END
$$$$
