TYL.pdb
     RDKit          3D

 28 28  0  0  1  0  0  0  0  0999 V2000
    7.8929  -12.4145   20.9489 C   0  0  0  0  0  0  0  0  0  0  0  0
    7.3657  -13.3372   19.8487 C   0  0  1  0  0  0  0  0  0  0  0  0
    6.8233  -12.5046   18.8683 O   0  0  0  0  0  0  0  0  0  0  0  0
    8.5433  -14.0872   19.2966 C   0  0  2  0  0  0  0  0  0  0  0  0
    8.1091  -14.8426   18.1409 N   0  0  0  0  0  0  0  0  0  0  0  0
    9.1956  -14.9783   20.2470 C   0  0  0  0  0  0  0  0  0  0  0  0
    8.8923  -16.2042   20.2508 O   0  0  0  0  0  0  0  0  0  0  0  0
   14.8648  -16.0589   17.1492 O   0  0  0  0  0  0  0  0  0  0  0  0
   14.2282  -15.9304   18.3766 C   0  0  0  0  0  0  0  0  0  0  0  0
   13.7973  -17.0052   19.1150 C   0  0  0  0  0  0  0  0  0  0  0  0
   13.1729  -16.8196   20.3236 C   0  0  0  0  0  0  0  0  0  0  0  0
   12.9467  -15.5456   20.8574 C   0  0  0  0  0  0  0  0  0  0  0  0
   12.2521  -15.4148   22.1499 C   0  0  0  0  0  0  0  0  0  0  0  0
   10.7675  -15.5415   22.1003 C   0  0  2  0  0  0  0  0  0  0  0  0
   10.1717  -14.5704   21.1958 N   0  0  0  0  0  0  0  0  0  0  0  0
   10.1979  -15.3644   23.4590 C   0  0  0  0  0  0  0  0  0  0  0  0
   10.9789  -14.8409   24.3271 O   0  0  0  0  0  0  0  0  0  0  0  0
   13.3853  -14.4633   20.1045 C   0  0  0  0  0  0  0  0  0  0  0  0
   14.0095  -14.6741   18.8945 C   0  0  0  0  0  0  0  0  0  0  0  0
    8.3096  -12.6283   25.8274 C   0  0  0  0  0  0  0  0  0  0  0  0
    7.3819  -13.3591   24.8631 C   0  0  2  0  0  0  0  0  0  0  0  0
    6.0879  -12.5938   24.7989 C   0  0  0  0  0  0  0  0  0  0  0  0
    7.1898  -14.7913   25.2784 C   0  0  0  0  0  0  0  0  0  0  0  0
    8.4228  -15.6230   25.2017 C   0  0  2  0  0  0  0  0  0  0  0  0
    8.9002  -15.7281   23.8206 N   0  0  0  0  0  0  0  0  0  0  0  0
    8.1435  -16.9871   25.7083 C   0  0  0  0  0  0  0  0  0  0  0  0
    7.7073  -17.1257   26.9074 O   0  0  0  0  0  0  0  0  0  0  0  0
    8.3040  -18.1527   25.0107 O   0  0  0  0  0  0  0  0  0  0  0  0
  2  1  1  1
  2  3  1  0
  4  2  1  0
  4  5  1  6
  6  7  2  0
  6  4  1  0
  9  8  1  0
 10  9  2  0
 11 10  1  0
 12 18  1  0
 12 11  2  0
 14 13  1  1
 13 12  1  0
 14 15  1  0
 15  6  1  0
 16 14  1  0
 17 16  2  0
 18 19  2  0
 19  9  1  0
 21 20  1  1
 21 22  1  0
 24 23  1  6
 23 21  1  0
 24 25  1  0
 25 16  1  0
 26 28  1  0
 26 24  1  0
 27 26  2  0
M  END
$$$$
