TYL.pdb
     RDKit          3D

 28 28  0  0  1  0  0  0  0  0999 V2000
    9.1972  -16.3339   17.5117 C   0  0  0  0  0  0  0  0  0  0  0  0
    8.8113  -16.2646   18.9901 C   0  0  1  0  0  0  0  0  0  0  0  0
    7.8837  -15.2275   19.1028 O   0  0  0  0  0  0  0  0  0  0  0  0
    8.1678  -17.5745   19.3426 C   0  0  2  0  0  0  0  0  0  0  0  0
    7.0068  -17.7605   18.4986 N   0  0  0  0  0  0  0  0  0  0  0  0
    7.7820  -17.7047   20.7415 C   0  0  0  0  0  0  0  0  0  0  0  0
    6.5774  -17.5135   21.0691 O   0  0  0  0  0  0  0  0  0  0  0  0
    7.6176  -19.1555   29.5152 O   0  0  0  0  0  0  0  0  0  0  0  0
    7.9448  -19.1481   28.1657 C   0  0  0  0  0  0  0  0  0  0  0  0
    9.2032  -18.8553   27.6999 C   0  0  0  0  0  0  0  0  0  0  0  0
    9.4711  -18.8628   26.3534 C   0  0  0  0  0  0  0  0  0  0  0  0
    8.4911  -19.1645   25.4005 C   0  0  0  0  0  0  0  0  0  0  0  0
    8.8390  -19.1344   23.9694 C   0  0  0  0  0  0  0  0  0  0  0  0
    8.2121  -18.0390   23.1758 C   0  0  2  0  0  0  0  0  0  0  0  0
    8.6737  -18.0381   21.7963 N   0  0  0  0  0  0  0  0  0  0  0  0
    8.5133  -16.7260   23.7977 C   0  0  0  0  0  0  0  0  0  0  0  0
    9.6634  -16.2328   23.5298 O   0  0  0  0  0  0  0  0  0  0  0  0
    7.2205  -19.4594   25.8794 C   0  0  0  0  0  0  0  0  0  0  0  0
    6.9754  -19.4457   27.2351 C   0  0  0  0  0  0  0  0  0  0  0  0
    5.7758  -12.1222   26.9796 C   0  0  0  0  0  0  0  0  0  0  0  0
    7.0520  -12.7209   26.3985 C   0  0  2  0  0  0  0  0  0  0  0  0
    7.6694  -11.6947   25.4874 C   0  0  0  0  0  0  0  0  0  0  0  0
    6.7698  -14.0224   25.7007 C   0  0  0  0  0  0  0  0  0  0  0  0
    7.9842  -14.7323   25.2119 C   0  0  2  0  0  0  0  0  0  0  0  0
    7.6350  -16.0303   24.6293 N   0  0  0  0  0  0  0  0  0  0  0  0
    8.9231  -14.9581   26.3358 C   0  0  0  0  0  0  0  0  0  0  0  0
    8.6126  -15.8142   27.2403 O   0  0  0  0  0  0  0  0  0  0  0  0
   10.1260  -14.3326   26.5171 O   0  0  0  0  0  0  0  0  0  0  0  0
  2  1  1  6
  2  3  1  0
  4  2  1  0
  4  5  1  6
  6  7  2  0
  6  4  1  0
  9  8  1  0
 10  9  2  0
 11 10  1  0
 12 18  1  0
 12 11  2  0
 14 13  1  1
 13 12  1  0
 14 15  1  0
 15  6  1  0
 16 14  1  0
 17 16  2  0
 18 19  2  0
 19  9  1  0
 21 20  1  6
 21 22  1  0
 24 23  1  1
 23 21  1  0
 24 25  1  0
 25 16  1  0
 26 28  1  0
 26 24  1  0
 27 26  2  0
M  END
$$$$
