TYL.pdb
     RDKit          3D

 28 28  0  0  1  0  0  0  0  0999 V2000
    6.5660  -18.5927   26.8255 C   0  0  0  0  0  0  0  0  0  0  0  0
    7.3178  -19.8138   26.2933 C   0  0  1  0  0  0  0  0  0  0  0  0
    6.8227  -20.9135   26.9963 O   0  0  0  0  0  0  0  0  0  0  0  0
    6.9842  -19.9394   24.8349 C   0  0  2  0  0  0  0  0  0  0  0  0
    7.4341  -21.2334   24.3680 N   0  0  0  0  0  0  0  0  0  0  0  0
    7.5452  -18.8925   23.9912 C   0  0  0  0  0  0  0  0  0  0  0  0
    8.7245  -19.0168   23.5566 O   0  0  0  0  0  0  0  0  0  0  0  0
    8.9819  -11.8988   18.7563 O   0  0  0  0  0  0  0  0  0  0  0  0
    8.3919  -12.8174   19.6144 C   0  0  0  0  0  0  0  0  0  0  0  0
    7.9977  -12.5051   20.8924 C   0  0  0  0  0  0  0  0  0  0  0  0
    7.4186  -13.4537   21.6984 C   0  0  0  0  0  0  0  0  0  0  0  0
    7.2033  -14.7676   21.2663 C   0  0  0  0  0  0  0  0  0  0  0  0
    6.5962  -15.7429   22.1883 C   0  0  0  0  0  0  0  0  0  0  0  0
    7.5488  -16.6618   22.8746 C   0  0  2  0  0  0  0  0  0  0  0  0
    6.8561  -17.7109   23.6065 N   0  0  0  0  0  0  0  0  0  0  0  0
    8.4095  -15.8946   23.8084 C   0  0  0  0  0  0  0  0  0  0  0  0
    9.5478  -15.5332   23.3484 O   0  0  0  0  0  0  0  0  0  0  0  0
    7.6049  -15.0759   19.9723 C   0  0  0  0  0  0  0  0  0  0  0  0
    8.1838  -14.1073   19.1818 C   0  0  0  0  0  0  0  0  0  0  0  0
    7.5919  -11.8808   25.3263 C   0  0  0  0  0  0  0  0  0  0  0  0
    7.0056  -13.0696   26.0797 C   0  0  2  0  0  0  0  0  0  0  0  0
    5.9252  -12.5512   26.9900 C   0  0  0  0  0  0  0  0  0  0  0  0
    8.0763  -13.8227   26.8191 C   0  0  0  0  0  0  0  0  0  0  0  0
    8.8994  -14.7196   25.9612 C   0  0  2  0  0  0  0  0  0  0  0  0
    8.0499  -15.5613   25.1148 N   0  0  0  0  0  0  0  0  0  0  0  0
    9.7377  -15.5991   26.8092 C   0  0  0  0  0  0  0  0  0  0  0  0
   10.6002  -15.0637   27.5948 O   0  0  0  0  0  0  0  0  0  0  0  0
    9.6875  -16.9655   26.8471 O   0  0  0  0  0  0  0  0  0  0  0  0
  2  1  1  1
  2  3  1  0
  4  2  1  0
  4  5  1  6
  6  7  2  0
  6  4  1  0
  9  8  1  0
 10  9  2  0
 11 10  1  0
 12 18  1  0
 12 11  2  0
 14 13  1  1
 13 12  1  0
 14 15  1  0
 15  6  1  0
 16 14  1  0
 17 16  2  0
 18 19  2  0
 19  9  1  0
 21 20  1  1
 21 22  1  0
 24 23  1  1
 23 21  1  0
 24 25  1  0
 25 16  1  0
 26 28  1  0
 26 24  1  0
 27 26  2  0
M  END
$$$$
