TYL.pdb
     RDKit          3D

 28 28  0  0  1  0  0  0  0  0999 V2000
    5.7167  -18.0324   23.8876 C   0  0  0  0  0  0  0  0  0  0  0  0
    6.3383  -19.0336   22.9126 C   0  0  1  0  0  0  0  0  0  0  0  0
    5.3307  -19.9460   22.5953 O   0  0  0  0  0  0  0  0  0  0  0  0
    6.7454  -18.2661   21.6881 C   0  0  2  0  0  0  0  0  0  0  0  0
    7.0275  -19.2076   20.6256 N   0  0  0  0  0  0  0  0  0  0  0  0
    7.8892  -17.3837   21.8767 C   0  0  0  0  0  0  0  0  0  0  0  0
    9.0553  -17.8463   21.7311 O   0  0  0  0  0  0  0  0  0  0  0  0
    7.7154  -13.6107   16.2306 O   0  0  0  0  0  0  0  0  0  0  0  0
    7.9697  -13.6582   17.5949 C   0  0  0  0  0  0  0  0  0  0  0  0
    7.1853  -13.0245   18.5272 C   0  0  0  0  0  0  0  0  0  0  0  0
    7.4836  -13.1052   19.8649 C   0  0  0  0  0  0  0  0  0  0  0  0
    8.5851  -13.8261   20.3404 C   0  0  0  0  0  0  0  0  0  0  0  0
    8.8618  -13.8555   21.7869 C   0  0  0  0  0  0  0  0  0  0  0  0
    9.0042  -15.2118   22.3893 C   0  0  2  0  0  0  0  0  0  0  0  0
    7.7984  -16.0079   22.2204 N   0  0  0  0  0  0  0  0  0  0  0  0
    9.3193  -15.0942   23.8345 C   0  0  0  0  0  0  0  0  0  0  0  0
   10.4510  -14.5677   24.1173 O   0  0  0  0  0  0  0  0  0  0  0  0
    9.3740  -14.4644   19.3911 C   0  0  0  0  0  0  0  0  0  0  0  0
    9.0549  -14.3693   18.0542 C   0  0  0  0  0  0  0  0  0  0  0  0
    8.2459  -12.1585   26.6662 C   0  0  0  0  0  0  0  0  0  0  0  0
    7.2603  -13.2660   26.3104 C   0  0  2  0  0  0  0  0  0  0  0  0
    5.8864  -12.8103   26.7215 C   0  0  0  0  0  0  0  0  0  0  0  0
    7.6560  -14.5680   26.9498 C   0  0  0  0  0  0  0  0  0  0  0  0
    8.7818  -15.2677   26.2708 C   0  0  2  0  0  0  0  0  0  0  0  0
    8.4722  -15.5147   24.8603 N   0  0  0  0  0  0  0  0  0  0  0  0
    9.0387  -16.5689   26.9313 C   0  0  0  0  0  0  0  0  0  0  0  0
    9.4054  -16.5780   28.1613 O   0  0  0  0  0  0  0  0  0  0  0  0
    8.9207  -17.8023   26.3516 O   0  0  0  0  0  0  0  0  0  0  0  0
  2  1  1  1
  2  3  1  0
  4  2  1  0
  4  5  1  6
  6  7  2  0
  6  4  1  0
  9  8  1  0
 10  9  2  0
 11 10  1  0
 12 18  1  0
 12 11  2  0
 14 13  1  1
 13 12  1  0
 14 15  1  0
 15  6  1  0
 16 14  1  0
 17 16  2  0
 18 19  2  0
 19  9  1  0
 21 20  1  1
 21 22  1  0
 24 23  1  1
 23 21  1  0
 24 25  1  0
 25 16  1  0
 26 28  1  0
 26 24  1  0
 27 26  2  0
M  END
$$$$
