TYL.pdb
     RDKit          3D

 28 28  0  0  1  0  0  0  0  0999 V2000
    8.2605  -16.0733   20.4631 C   0  0  0  0  0  0  0  0  0  0  0  0
    6.7861  -16.2741   20.1089 C   0  0  1  0  0  0  0  0  0  0  0  0
    6.7301  -16.3798   18.7181 O   0  0  0  0  0  0  0  0  0  0  0  0
    6.3488  -17.5626   20.7436 C   0  0  2  0  0  0  0  0  0  0  0  0
    4.9834  -17.8325   20.3471 N   0  0  0  0  0  0  0  0  0  0  0  0
    6.4510  -17.5892   22.1967 C   0  0  0  0  0  0  0  0  0  0  0  0
    5.5258  -17.0799   22.8891 O   0  0  0  0  0  0  0  0  0  0  0  0
    8.7824  -19.2190   30.6219 O   0  0  0  0  0  0  0  0  0  0  0  0
    8.6271  -19.2289   29.2421 C   0  0  0  0  0  0  0  0  0  0  0  0
    7.4146  -19.4141   28.6244 C   0  0  0  0  0  0  0  0  0  0  0  0
    7.3189  -19.4146   27.2549 C   0  0  0  0  0  0  0  0  0  0  0  0
    8.4345  -19.2293   26.4300 C   0  0  0  0  0  0  0  0  0  0  0  0
    8.2668  -19.2618   24.9669 C   0  0  0  0  0  0  0  0  0  0  0  0
    7.5667  -18.0879   24.3714 C   0  0  2  0  0  0  0  0  0  0  0  0
    7.5355  -18.1565   22.9186 N   0  0  0  0  0  0  0  0  0  0  0  0
    8.2356  -16.8319   24.7917 C   0  0  0  0  0  0  0  0  0  0  0  0
    9.2923  -16.5183   24.1414 O   0  0  0  0  0  0  0  0  0  0  0  0
    9.6577  -19.0428   27.0622 C   0  0  0  0  0  0  0  0  0  0  0  0
    9.7292  -19.0460   28.4381 C   0  0  0  0  0  0  0  0  0  0  0  0
    7.4044  -12.2667   24.9672 C   0  0  0  0  0  0  0  0  0  0  0  0
    6.6597  -13.1425   25.9687 C   0  0  2  0  0  0  0  0  0  0  0  0
    5.6668  -12.2736   26.6923 C   0  0  0  0  0  0  0  0  0  0  0  0
    7.6169  -13.8314   26.9014 C   0  0  0  0  0  0  0  0  0  0  0  0
    8.5208  -14.8118   26.2384 C   0  0  2  0  0  0  0  0  0  0  0  0
    7.7839  -16.0081   25.8233 N   0  0  0  0  0  0  0  0  0  0  0  0
    9.5941  -15.2212   27.1742 C   0  0  0  0  0  0  0  0  0  0  0  0
   10.4689  -14.3529   27.5322 O   0  0  0  0  0  0  0  0  0  0  0  0
    9.7563  -16.4663   27.7171 O   0  0  0  0  0  0  0  0  0  0  0  0
  2  1  1  6
  2  3  1  0
  4  2  1  0
  4  5  1  1
  6  7  2  0
  6  4  1  0
  9  8  1  0
 10  9  2  0
 11 10  1  0
 12 18  1  0
 12 11  2  0
 14 13  1  1
 13 12  1  0
 14 15  1  0
 15  6  1  0
 16 14  1  0
 17 16  2  0
 18 19  2  0
 19  9  1  0
 21 20  1  6
 21 22  1  0
 24 23  1  1
 23 21  1  0
 24 25  1  0
 25 16  1  0
 26 28  1  0
 26 24  1  0
 27 26  2  0
M  END
$$$$
