FMD.pdb
     RDKit          3D

 28 28  0  0  1  0  0  0  0  0999 V2000
   28.2120  -20.5668  -15.4797 N   0  0  0  0  0  0  0  0  0  0  0  0
   27.4094  -19.7960  -14.5202 C   0  0  1  0  0  0  0  0  0  0  0  0
   26.3237  -19.1308  -15.3642 C   0  0  0  0  0  0  0  0  0  0  0  0
   26.9478  -17.9494  -16.0162 C   0  0  0  0  0  0  0  0  0  0  0  0
   27.0991  -16.7336  -15.3657 C   0  0  0  0  0  0  0  0  0  0  0  0
   27.6829  -15.6521  -15.9896 C   0  0  0  0  0  0  0  0  0  0  0  0
   28.1293  -15.7661  -17.2835 C   0  0  0  0  0  0  0  0  0  0  0  0
   27.9898  -16.9525  -17.9399 C   0  0  0  0  0  0  0  0  0  0  0  0
   27.4035  -18.0359  -17.3112 C   0  0  0  0  0  0  0  0  0  0  0  0
   26.8256  -20.6847  -13.4994 C   0  0  0  0  0  0  0  0  0  0  0  0
   26.7460  -21.9107  -13.7295 O   0  0  0  0  0  0  0  0  0  0  0  0
   26.2750  -20.4151   -5.7089 C   0  0  0  0  0  0  0  0  0  0  0  0
   26.4913  -19.7250   -7.3492 S   0  0  0  0  0  0  0  0  0  0  0  0
   25.7879  -20.8460   -8.6381 C   0  0  0  0  0  0  0  0  0  0  0  0
   26.2525  -20.2760   -9.9441 C   0  0  0  0  0  0  0  0  0  0  0  0
   25.8542  -21.0128  -11.1761 C   0  0  2  0  0  0  0  0  0  0  0  0
   26.3660  -20.1608  -12.2863 N   0  0  0  0  0  0  0  0  0  0  0  0
   24.3898  -21.0065  -11.3462 C   0  0  0  0  0  0  0  0  0  0  0  0
   23.6308  -21.5781  -10.4724 O   0  0  0  0  0  0  0  0  0  0  0  0
   23.6777  -20.4041  -12.4186 N   0  0  0  0  0  0  0  0  0  0  0  0
   22.2042  -20.4864  -12.4779 C   0  0  1  0  0  0  0  0  0  0  0  0
   21.6338  -19.0947  -12.5387 C   0  0  0  0  0  0  0  0  0  0  0  0
   20.3901  -18.9600  -11.7946 C   0  0  0  0  0  0  0  0  0  0  0  0
   19.8711  -19.8944  -11.1679 O   0  0  0  0  0  0  0  0  0  0  0  0
   21.9173  -21.3117  -13.6683 C   0  0  0  0  0  0  0  0  0  0  0  0
   20.8187  -21.8941  -13.7757 O   0  0  0  0  0  0  0  0  0  0  0  0
   19.7378  -17.7203  -11.7776 O   0  0  0  0  0  0  0  0  0  0  0  0
   22.8049  -21.4994  -14.7200 O   0  0  0  0  0  0  0  0  0  0  0  0
  2  3  1  0
  2  1  1  6
  4  5  2  0
  4  3  1  0
  6  5  1  0
  7  6  2  0
  8  7  1  0
  8  9  2  0
  9  4  1  0
 10  2  1  0
 11 10  2  0
 13 12  1  0
 14 13  1  0
 15 14  1  0
 16 15  1  1
 16 17  1  0
 17 10  1  0
 18 16  1  0
 18 20  1  0
 19 18  2  0
 21 22  1  6
 21 20  1  0
 21 25  1  0
 23 24  2  0
 23 22  1  0
 25 28  1  0
 26 25  2  0
 27 23  1  0
M  END
$$$$
