FMD.pdb
     RDKit          3D

 28 28  0  0  1  0  0  0  0  0999 V2000
   28.4243  -21.0369  -15.8075 N   0  0  0  0  0  0  0  0  0  0  0  0
   27.6490  -20.1384  -14.9412 C   0  0  1  0  0  0  0  0  0  0  0  0
   26.7046  -19.4008  -15.8886 C   0  0  0  0  0  0  0  0  0  0  0  0
   27.4937  -18.3119  -16.5227 C   0  0  0  0  0  0  0  0  0  0  0  0
   27.7158  -17.0932  -15.8985 C   0  0  0  0  0  0  0  0  0  0  0  0
   28.4527  -16.0986  -16.5048 C   0  0  0  0  0  0  0  0  0  0  0  0
   28.9847  -16.3046  -17.7541 C   0  0  0  0  0  0  0  0  0  0  0  0
   28.7776  -17.4955  -18.3841 C   0  0  0  0  0  0  0  0  0  0  0  0
   28.0378  -18.4916  -17.7732 C   0  0  0  0  0  0  0  0  0  0  0  0
   26.9013  -20.9085  -13.9310 C   0  0  0  0  0  0  0  0  0  0  0  0
   26.3948  -22.0056  -14.2503 O   0  0  0  0  0  0  0  0  0  0  0  0
   27.9869  -20.2792   -7.5490 C   0  0  0  0  0  0  0  0  0  0  0  0
   26.2633  -19.8216   -7.7315 S   0  0  0  0  0  0  0  0  0  0  0  0
   25.4727  -20.7548   -9.1159 C   0  0  0  0  0  0  0  0  0  0  0  0
   26.2525  -20.3723  -10.3374 C   0  0  0  0  0  0  0  0  0  0  0  0
   25.8867  -21.0589  -11.6079 C   0  0  2  0  0  0  0  0  0  0  0  0
   26.7609  -20.4159  -12.6291 N   0  0  0  0  0  0  0  0  0  0  0  0
   24.5145  -20.7124  -12.0206 C   0  0  0  0  0  0  0  0  0  0  0  0
   24.2395  -19.5188  -12.4281 O   0  0  0  0  0  0  0  0  0  0  0  0
   23.3986  -21.5926  -12.0279 N   0  0  0  0  0  0  0  0  0  0  0  0
   22.1106  -21.1631  -12.6090 C   0  0  1  0  0  0  0  0  0  0  0  0
   21.7418  -22.0926  -13.7341 C   0  0  0  0  0  0  0  0  0  0  0  0
   20.3852  -21.8840  -14.2187 C   0  0  0  0  0  0  0  0  0  0  0  0
   19.6128  -21.0471  -13.7309 O   0  0  0  0  0  0  0  0  0  0  0  0
   21.1611  -21.1735  -11.4781 C   0  0  0  0  0  0  0  0  0  0  0  0
   21.4962  -21.6733  -10.3846 O   0  0  0  0  0  0  0  0  0  0  0  0
   19.9173  -22.6598  -15.2873 O   0  0  0  0  0  0  0  0  0  0  0  0
   19.8753  -20.6514  -11.5340 O   0  0  0  0  0  0  0  0  0  0  0  0
  2  3  1  0
  2  1  1  6
  4  5  2  0
  4  3  1  0
  6  5  1  0
  7  6  2  0
  8  7  1  0
  8  9  2  0
  9  4  1  0
 10  2  1  0
 11 10  2  0
 13 12  1  0
 14 13  1  0
 15 14  1  0
 16 15  1  1
 16 17  1  0
 17 10  1  0
 18 16  1  0
 18 20  1  0
 19 18  2  0
 21 22  1  6
 21 20  1  0
 21 25  1  0
 23 24  2  0
 23 22  1  0
 25 28  1  0
 26 25  2  0
 27 23  1  0
M  END
$$$$
