FMD.pdb
     RDKit          3D

 28 28  0  0  1  0  0  0  0  0999 V2000
   22.8349  -10.5100  -15.2380 N   0  0  0  0  0  0  0  0  0  0  0  0
   21.8764   -9.7332  -16.0360 C   0  0  1  0  0  0  0  0  0  0  0  0
   20.6216  -10.6024  -16.0945 C   0  0  0  0  0  0  0  0  0  0  0  0
   20.8538  -11.6243  -17.1492 C   0  0  0  0  0  0  0  0  0  0  0  0
   21.0675  -12.9628  -16.8544 C   0  0  0  0  0  0  0  0  0  0  0  0
   21.2784  -13.8933  -17.8491 C   0  0  0  0  0  0  0  0  0  0  0  0
   21.2799  -13.5010  -19.1654 C   0  0  0  0  0  0  0  0  0  0  0  0
   21.0718  -12.1901  -19.4756 C   0  0  0  0  0  0  0  0  0  0  0  0
   20.8604  -11.2588  -18.4752 C   0  0  0  0  0  0  0  0  0  0  0  0
   21.5997   -8.4347  -15.3957 C   0  0  0  0  0  0  0  0  0  0  0  0
   21.5977   -8.3563  -14.1482 O   0  0  0  0  0  0  0  0  0  0  0  0
   21.8667   -1.8904  -13.3260 C   0  0  0  0  0  0  0  0  0  0  0  0
   21.9665   -3.5988  -13.8595 S   0  0  0  0  0  0  0  0  0  0  0  0
   22.3016   -3.7086  -15.6729 C   0  0  0  0  0  0  0  0  0  0  0  0
   22.3167   -5.1761  -15.9770 C   0  0  0  0  0  0  0  0  0  0  0  0
   21.1040   -5.9520  -15.5944 C   0  0  2  0  0  0  0  0  0  0  0  0
   21.3423   -7.3028  -16.1766 N   0  0  0  0  0  0  0  0  0  0  0  0
   19.9100   -5.4486  -16.2975 C   0  0  0  0  0  0  0  0  0  0  0  0
   19.8467   -5.4932  -17.5861 O   0  0  0  0  0  0  0  0  0  0  0  0
   18.7533   -4.8948  -15.6850 N   0  0  0  0  0  0  0  0  0  0  0  0
   17.6815   -4.3010  -16.5097 C   0  0  1  0  0  0  0  0  0  0  0  0
   16.4185   -5.0996  -16.3279 C   0  0  0  0  0  0  0  0  0  0  0  0
   15.8868   -5.0172  -14.9755 C   0  0  0  0  0  0  0  0  0  0  0  0
   16.4821   -4.4533  -14.0467 O   0  0  0  0  0  0  0  0  0  0  0  0
   17.5836   -2.8998  -16.0542 C   0  0  0  0  0  0  0  0  0  0  0  0
   18.3601   -2.4719  -15.1759 O   0  0  0  0  0  0  0  0  0  0  0  0
   14.6433   -5.5990  -14.6964 O   0  0  0  0  0  0  0  0  0  0  0  0
   16.6620   -1.9830  -16.5433 O   0  0  0  0  0  0  0  0  0  0  0  0
  2  3  1  0
  2  1  1  1
  4  5  2  0
  4  3  1  0
  6  5  1  0
  7  6  2  0
  8  7  1  0
  8  9  2  0
  9  4  1  0
 10  2  1  0
 11 10  2  0
 13 12  1  0
 14 13  1  0
 15 14  1  0
 16 15  1  6
 16 17  1  0
 17 10  1  0
 18 16  1  0
 18 20  1  0
 19 18  2  0
 21 22  1  1
 21 20  1  0
 21 25  1  0
 23 24  2  0
 23 22  1  0
 25 28  1  0
 26 25  2  0
 27 23  1  0
M  END
$$$$
