FMD.pdb
     RDKit          3D

 28 28  0  0  1  0  0  0  0  0999 V2000
   28.1706  -20.5939  -15.0811 N   0  0  0  0  0  0  0  0  0  0  0  0
   27.3641  -19.7110  -14.2274 C   0  0  1  0  0  0  0  0  0  0  0  0
   26.5189  -18.8914  -15.2008 C   0  0  0  0  0  0  0  0  0  0  0  0
   27.3974  -17.8185  -15.7368 C   0  0  0  0  0  0  0  0  0  0  0  0
   27.9324  -17.8643  -17.0158 C   0  0  0  0  0  0  0  0  0  0  0  0
   28.7429  -16.8566  -17.4926 C   0  0  0  0  0  0  0  0  0  0  0  0
   29.0359  -15.7775  -16.6951 C   0  0  0  0  0  0  0  0  0  0  0  0
   28.5198  -15.7140  -15.4351 C   0  0  0  0  0  0  0  0  0  0  0  0
   27.7068  -16.7267  -14.9595 C   0  0  0  0  0  0  0  0  0  0  0  0
   26.5170  -20.5017  -13.3163 C   0  0  0  0  0  0  0  0  0  0  0  0
   26.1266  -21.6342  -13.6730 O   0  0  0  0  0  0  0  0  0  0  0  0
   27.8297  -20.1411   -6.1979 C   0  0  0  0  0  0  0  0  0  0  0  0
   26.5988  -19.5792   -7.3738 S   0  0  0  0  0  0  0  0  0  0  0  0
   26.4532  -20.7529   -8.7929 C   0  0  0  0  0  0  0  0  0  0  0  0
   25.5820  -20.0506   -9.7899 C   0  0  0  0  0  0  0  0  0  0  0  0
   25.3395  -20.7540  -11.0805 C   0  0  2  0  0  0  0  0  0  0  0  0
   26.1546  -19.9892  -12.0660 N   0  0  0  0  0  0  0  0  0  0  0  0
   23.9467  -20.5727  -11.5284 C   0  0  0  0  0  0  0  0  0  0  0  0
   23.5106  -19.3978  -11.8382 O   0  0  0  0  0  0  0  0  0  0  0  0
   22.9766  -21.6014  -11.6727 N   0  0  0  0  0  0  0  0  0  0  0  0
   21.6416  -21.2984  -12.2269 C   0  0  1  0  0  0  0  0  0  0  0  0
   21.3436  -22.2564  -13.3491 C   0  0  0  0  0  0  0  0  0  0  0  0
   21.8599  -21.8029  -14.6322 C   0  0  0  0  0  0  0  0  0  0  0  0
   21.8868  -20.6107  -14.9685 O   0  0  0  0  0  0  0  0  0  0  0  0
   20.7201  -21.4050  -11.0780 C   0  0  0  0  0  0  0  0  0  0  0  0
   19.5095  -21.1365  -11.2200 O   0  0  0  0  0  0  0  0  0  0  0  0
   22.3532  -22.7488  -15.5402 O   0  0  0  0  0  0  0  0  0  0  0  0
   21.1057  -21.7959   -9.8022 O   0  0  0  0  0  0  0  0  0  0  0  0
  2  3  1  0
  2  1  1  6
  4  5  2  0
  4  3  1  0
  6  5  1  0
  7  6  2  0
  8  7  1  0
  8  9  2  0
  9  4  1  0
 10  2  1  0
 11 10  2  0
 13 12  1  0
 14 13  1  0
 15 14  1  0
 16 15  1  1
 16 17  1  0
 17 10  1  0
 18 16  1  0
 18 20  1  0
 19 18  2  0
 21 22  1  6
 21 20  1  0
 21 25  1  0
 23 24  2  0
 23 22  1  0
 25 28  1  0
 26 25  2  0
 27 23  1  0
M  END
$$$$
