FMD.pdb
     RDKit          3D

 28 28  0  0  1  0  0  0  0  0999 V2000
   26.5445  -22.6386  -12.0881 N   0  0  0  0  0  0  0  0  0  0  0  0
   25.6533  -21.6720  -11.4322 C   0  0  1  0  0  0  0  0  0  0  0  0
   26.4682  -20.3825  -11.3498 C   0  0  0  0  0  0  0  0  0  0  0  0
   27.2685  -20.4574  -10.0991 C   0  0  0  0  0  0  0  0  0  0  0  0
   26.7530  -20.0961   -8.8629 C   0  0  0  0  0  0  0  0  0  0  0  0
   27.5130  -20.1759   -7.7159 C   0  0  0  0  0  0  0  0  0  0  0  0
   28.8107  -20.6209   -7.7831 C   0  0  0  0  0  0  0  0  0  0  0  0
   29.3356  -20.9805   -8.9886 C   0  0  0  0  0  0  0  0  0  0  0  0
   28.5704  -20.8994  -10.1378 C   0  0  0  0  0  0  0  0  0  0  0  0
   24.4241  -21.4798  -12.2226 C   0  0  0  0  0  0  0  0  0  0  0  0
   24.4871  -21.5188  -13.4703 O   0  0  0  0  0  0  0  0  0  0  0  0
   20.0215  -24.1958   -9.4092 C   0  0  0  0  0  0  0  0  0  0  0  0
   18.8204  -23.0830  -10.1390 S   0  0  0  0  0  0  0  0  0  0  0  0
   19.5548  -22.1507  -11.5545 C   0  0  0  0  0  0  0  0  0  0  0  0
   21.0100  -22.0200  -11.2204 C   0  0  0  0  0  0  0  0  0  0  0  0
   21.8857  -21.4182  -12.2645 C   0  0  2  0  0  0  0  0  0  0  0  0
   23.2005  -21.2563  -11.5822 N   0  0  0  0  0  0  0  0  0  0  0  0
   21.4600  -20.0434  -12.5841 C   0  0  0  0  0  0  0  0  0  0  0  0
   21.6892  -19.0817  -11.7539 O   0  0  0  0  0  0  0  0  0  0  0  0
   20.7947  -19.6310  -13.7705 N   0  0  0  0  0  0  0  0  0  0  0  0
   20.4152  -18.2166  -13.9624 C   0  0  1  0  0  0  0  0  0  0  0  0
   20.6970  -17.8185  -15.3864 C   0  0  0  0  0  0  0  0  0  0  0  0
   20.2713  -16.4598  -15.6888 C   0  0  0  0  0  0  0  0  0  0  0  0
   19.8780  -15.6648  -14.8237 O   0  0  0  0  0  0  0  0  0  0  0  0
   18.9890  -18.1514  -13.5856 C   0  0  0  0  0  0  0  0  0  0  0  0
   18.1937  -19.0226  -13.9933 O   0  0  0  0  0  0  0  0  0  0  0  0
   20.3027  -16.0164  -17.0174 O   0  0  0  0  0  0  0  0  0  0  0  0
   18.4387  -17.1609  -12.7822 O   0  0  0  0  0  0  0  0  0  0  0  0
  2  3  1  0
  2  1  1  6
  4  5  2  0
  4  3  1  0
  6  5  1  0
  7  6  2  0
  8  7  1  0
  8  9  2  0
  9  4  1  0
 10  2  1  0
 11 10  2  0
 13 12  1  0
 14 13  1  0
 15 14  1  0
 16 15  1  1
 16 17  1  0
 17 10  1  0
 18 16  1  0
 18 20  1  0
 19 18  2  0
 21 22  1  6
 21 20  1  0
 21 25  1  0
 23 24  2  0
 23 22  1  0
 25 28  1  0
 26 25  2  0
 27 23  1  0
M  END
$$$$
