FMD.pdb
     RDKit          3D

 28 28  0  0  1  0  0  0  0  0999 V2000
   25.8408  -14.1646  -20.8252 N   0  0  0  0  0  0  0  0  0  0  0  0
   24.6486  -13.4057  -20.4232 C   0  0  1  0  0  0  0  0  0  0  0  0
   23.9903  -14.2573  -19.3394 C   0  0  0  0  0  0  0  0  0  0  0  0
   23.4776  -15.4832  -20.0063 C   0  0  0  0  0  0  0  0  0  0  0  0
   24.1725  -16.6836  -19.9932 C   0  0  0  0  0  0  0  0  0  0  0  0
   23.6766  -17.8083  -20.6167 C   0  0  0  0  0  0  0  0  0  0  0  0
   22.4692  -17.7541  -21.2692 C   0  0  0  0  0  0  0  0  0  0  0  0
   21.7711  -16.5836  -21.2934 C   0  0  0  0  0  0  0  0  0  0  0  0
   22.2714  -15.4567  -20.6669 C   0  0  0  0  0  0  0  0  0  0  0  0
   25.0280  -12.0787  -19.9056 C   0  0  0  0  0  0  0  0  0  0  0  0
   26.1142  -11.9455  -19.3019 O   0  0  0  0  0  0  0  0  0  0  0  0
   25.2154   -4.9523  -22.4949 C   0  0  0  0  0  0  0  0  0  0  0  0
   25.1685   -6.7440  -22.4639 S   0  0  0  0  0  0  0  0  0  0  0  0
   25.0090   -7.3732  -20.7344 C   0  0  0  0  0  0  0  0  0  0  0  0
   24.7277   -8.8383  -20.8784 C   0  0  0  0  0  0  0  0  0  0  0  0
   24.5187   -9.6072  -19.6197 C   0  0  2  0  0  0  0  0  0  0  0  0
   24.1806  -10.9806  -20.0888 N   0  0  0  0  0  0  0  0  0  0  0  0
   23.3097   -9.1468  -18.9129 C   0  0  0  0  0  0  0  0  0  0  0  0
   22.1472   -9.2788  -19.4582 O   0  0  0  0  0  0  0  0  0  0  0  0
   23.2747   -8.5464  -17.6251 N   0  0  0  0  0  0  0  0  0  0  0  0
   21.9979   -8.0684  -17.0569 C   0  0  1  0  0  0  0  0  0  0  0  0
   21.9602   -8.3901  -15.5869 C   0  0  0  0  0  0  0  0  0  0  0  0
   20.7611   -7.8918  -14.9293 C   0  0  0  0  0  0  0  0  0  0  0  0
   19.8369   -7.3341  -15.5376 O   0  0  0  0  0  0  0  0  0  0  0  0
   21.9630   -6.6242  -17.3625 C   0  0  0  0  0  0  0  0  0  0  0  0
   20.9366   -6.1138  -17.8562 O   0  0  0  0  0  0  0  0  0  0  0  0
   20.6323   -8.0434  -13.5425 O   0  0  0  0  0  0  0  0  0  0  0  0
   23.0207   -5.7529  -17.1359 O   0  0  0  0  0  0  0  0  0  0  0  0
  2  3  1  0
  2  1  1  1
  4  5  2  0
  4  3  1  0
  6  5  1  0
  7  6  2  0
  8  7  1  0
  8  9  2  0
  9  4  1  0
 10  2  1  0
 11 10  2  0
 13 12  1  0
 14 13  1  0
 15 14  1  0
 16 15  1  6
 16 17  1  0
 17 10  1  0
 18 16  1  0
 18 20  1  0
 19 18  2  0
 21 22  1  1
 21 20  1  0
 21 25  1  0
 23 24  2  0
 23 22  1  0
 25 28  1  0
 26 25  2  0
 27 23  1  0
M  END
$$$$
