FMD.pdb
     RDKit          3D

 28 28  0  0  1  0  0  0  0  0999 V2000
   28.4869  -20.2909  -14.9425 N   0  0  0  0  0  0  0  0  0  0  0  0
   27.5970  -19.5706  -14.0215 C   0  0  1  0  0  0  0  0  0  0  0  0
   26.4471  -19.0752  -14.8966 C   0  0  0  0  0  0  0  0  0  0  0  0
   26.9441  -17.8779  -15.6245 C   0  0  0  0  0  0  0  0  0  0  0  0
   27.0682  -16.6365  -15.0180 C   0  0  0  0  0  0  0  0  0  0  0  0
   27.5335  -15.5405  -15.7122 C   0  0  0  0  0  0  0  0  0  0  0  0
   27.8857  -15.6652  -17.0339 C   0  0  0  0  0  0  0  0  0  0  0  0
   27.7709  -16.8768  -17.6479 C   0  0  0  0  0  0  0  0  0  0  0  0
   27.3036  -17.9748  -16.9486 C   0  0  0  0  0  0  0  0  0  0  0  0
   27.1129  -20.4691  -12.9581 C   0  0  0  0  0  0  0  0  0  0  0  0
   27.1378  -21.7049  -13.1436 O   0  0  0  0  0  0  0  0  0  0  0  0
   26.7803  -20.0914   -5.1934 C   0  0  0  0  0  0  0  0  0  0  0  0
   26.8077  -19.3648   -6.8319 S   0  0  0  0  0  0  0  0  0  0  0  0
   26.0964  -20.5232   -8.0828 C   0  0  0  0  0  0  0  0  0  0  0  0
   26.5380  -19.9819   -9.4088 C   0  0  0  0  0  0  0  0  0  0  0  0
   26.2022  -20.7963  -10.6102 C   0  0  2  0  0  0  0  0  0  0  0  0
   26.6310  -19.9435  -11.7545 N   0  0  0  0  0  0  0  0  0  0  0  0
   24.7425  -20.9272  -10.7696 C   0  0  0  0  0  0  0  0  0  0  0  0
   24.0449  -21.5549   -9.8832 O   0  0  0  0  0  0  0  0  0  0  0  0
   23.9711  -20.4069  -11.8440 N   0  0  0  0  0  0  0  0  0  0  0  0
   22.5096  -20.6159  -11.8857 C   0  0  1  0  0  0  0  0  0  0  0  0
   21.8268  -19.2903  -12.0919 C   0  0  0  0  0  0  0  0  0  0  0  0
   20.7241  -19.0720  -11.1671 C   0  0  0  0  0  0  0  0  0  0  0  0
   20.4432  -19.8568  -10.2505 O   0  0  0  0  0  0  0  0  0  0  0  0
   22.2952  -21.5848  -12.9791 C   0  0  0  0  0  0  0  0  0  0  0  0
   23.0897  -21.6287  -13.9407 O   0  0  0  0  0  0  0  0  0  0  0  0
   19.9343  -17.9236  -11.3086 O   0  0  0  0  0  0  0  0  0  0  0  0
   21.2406  -22.4874  -13.0263 O   0  0  0  0  0  0  0  0  0  0  0  0
  2  3  1  0
  2  1  1  6
  4  5  2  0
  4  3  1  0
  6  5  1  0
  7  6  2  0
  8  7  1  0
  8  9  2  0
  9  4  1  0
 10  2  1  0
 11 10  2  0
 13 12  1  0
 14 13  1  0
 15 14  1  0
 16 15  1  1
 16 17  1  0
 17 10  1  0
 18 16  1  0
 18 20  1  0
 19 18  2  0
 21 22  1  6
 21 20  1  0
 21 25  1  0
 23 24  2  0
 23 22  1  0
 25 28  1  0
 26 25  2  0
 27 23  1  0
M  END
$$$$
