FMD.pdb
     RDKit          3D

 28 28  0  0  1  0  0  0  0  0999 V2000
   28.6481  -21.3248   -9.3058 N   0  0  0  0  0  0  0  0  0  0  0  0
   27.2726  -20.8082   -9.3148 C   0  0  1  0  0  0  0  0  0  0  0  0
   27.3588  -19.4551   -8.6111 C   0  0  0  0  0  0  0  0  0  0  0  0
   27.5712  -19.7333   -7.1661 C   0  0  0  0  0  0  0  0  0  0  0  0
   26.6694  -20.4665   -6.4089 C   0  0  0  0  0  0  0  0  0  0  0  0
   26.8882  -20.7140   -5.0709 C   0  0  0  0  0  0  0  0  0  0  0  0
   28.0196  -20.2304   -4.4605 C   0  0  0  0  0  0  0  0  0  0  0  0
   28.9180  -19.5077   -5.1875 C   0  0  0  0  0  0  0  0  0  0  0  0
   28.6956  -19.2609   -6.5300 C   0  0  0  0  0  0  0  0  0  0  0  0
   26.7815  -20.6632  -10.6970 C   0  0  0  0  0  0  0  0  0  0  0  0
   27.5537  -20.2270  -11.5776 O   0  0  0  0  0  0  0  0  0  0  0  0
   27.4221  -23.8774  -14.4611 C   0  0  0  0  0  0  0  0  0  0  0  0
   25.7480  -23.8152  -15.0990 S   0  0  0  0  0  0  0  0  0  0  0  0
   24.8618  -22.3132  -14.4898 C   0  0  0  0  0  0  0  0  0  0  0  0
   25.3697  -22.1013  -13.0957 C   0  0  0  0  0  0  0  0  0  0  0  0
   24.9019  -20.8746  -12.3916 C   0  0  2  0  0  0  0  0  0  0  0  0
   25.4650  -21.0107  -11.0187 N   0  0  0  0  0  0  0  0  0  0  0  0
   23.4405  -20.8997  -12.1991 C   0  0  0  0  0  0  0  0  0  0  0  0
   22.9292  -21.4982  -11.1760 O   0  0  0  0  0  0  0  0  0  0  0  0
   22.4764  -20.3016  -13.0551 N   0  0  0  0  0  0  0  0  0  0  0  0
   21.0380  -20.3730  -12.7272 C   0  0  1  0  0  0  0  0  0  0  0  0
   20.2807  -19.4252  -13.6183 C   0  0  0  0  0  0  0  0  0  0  0  0
   20.2653  -18.0613  -13.1103 C   0  0  0  0  0  0  0  0  0  0  0  0
   20.7091  -17.7482  -11.9966 O   0  0  0  0  0  0  0  0  0  0  0  0
   20.6773  -21.7934  -12.9074 C   0  0  0  0  0  0  0  0  0  0  0  0
   19.8493  -22.3303  -12.1432 O   0  0  0  0  0  0  0  0  0  0  0  0
   19.7258  -17.0438  -13.9079 O   0  0  0  0  0  0  0  0  0  0  0  0
   21.2044  -22.6129  -13.8973 O   0  0  0  0  0  0  0  0  0  0  0  0
  2  3  1  0
  2  1  1  6
  4  5  2  0
  4  3  1  0
  6  5  1  0
  7  6  2  0
  8  7  1  0
  8  9  2  0
  9  4  1  0
 10  2  1  0
 11 10  2  0
 13 12  1  0
 14 13  1  0
 15 14  1  0
 16 15  1  6
 16 17  1  0
 17 10  1  0
 18 16  1  0
 18 20  1  0
 19 18  2  0
 21 22  1  6
 21 20  1  0
 21 25  1  0
 23 24  2  0
 23 22  1  0
 25 28  1  0
 26 25  2  0
 27 23  1  0
M  END
$$$$
