FMD.pdb
     RDKit          3D

 28 28  0  0  1  0  0  0  0  0999 V2000
   19.2396   -9.5509  -16.5110 N   0  0  0  0  0  0  0  0  0  0  0  0
   19.4700  -10.0247  -15.1394 C   0  0  1  0  0  0  0  0  0  0  0  0
   20.4111  -11.2183  -15.2911 C   0  0  0  0  0  0  0  0  0  0  0  0
   19.6343  -12.2982  -15.9549 C   0  0  0  0  0  0  0  0  0  0  0  0
   19.7246  -12.5514  -17.3158 C   0  0  0  0  0  0  0  0  0  0  0  0
   18.9963  -13.5598  -17.9094 C   0  0  0  0  0  0  0  0  0  0  0  0
   18.1588  -14.3390  -17.1494 C   0  0  0  0  0  0  0  0  0  0  0  0
   18.0561  -14.1061  -15.8103 C   0  0  0  0  0  0  0  0  0  0  0  0
   18.7882  -13.0934  -15.2175 C   0  0  0  0  0  0  0  0  0  0  0  0
   20.0792   -8.9626  -14.3187 C   0  0  0  0  0  0  0  0  0  0  0  0
   20.5488   -9.2504  -13.1968 O   0  0  0  0  0  0  0  0  0  0  0  0
   25.4971   -7.5350  -18.6132 C   0  0  0  0  0  0  0  0  0  0  0  0
   23.9873   -8.1481  -17.8661 S   0  0  0  0  0  0  0  0  0  0  0  0
   23.3958   -7.0099  -16.5367 C   0  0  0  0  0  0  0  0  0  0  0  0
   22.1049   -7.6052  -16.0617 C   0  0  0  0  0  0  0  0  0  0  0  0
   21.4055   -6.8928  -14.9559 C   0  0  2  0  0  0  0  0  0  0  0  0
   20.1308   -7.6468  -14.7915 N   0  0  0  0  0  0  0  0  0  0  0  0
   20.9883   -5.5429  -15.3766 C   0  0  0  0  0  0  0  0  0  0  0  0
   21.8612   -4.5992  -15.4943 O   0  0  0  0  0  0  0  0  0  0  0  0
   19.6620   -5.1403  -15.6914 N   0  0  0  0  0  0  0  0  0  0  0  0
   19.3636   -3.7287  -16.0070 C   0  0  1  0  0  0  0  0  0  0  0  0
   19.9365   -2.8495  -14.9278 C   0  0  0  0  0  0  0  0  0  0  0  0
   19.5635   -1.4508  -15.0802 C   0  0  0  0  0  0  0  0  0  0  0  0
   18.8754   -1.0319  -16.0216 O   0  0  0  0  0  0  0  0  0  0  0  0
   19.9488   -3.5064  -17.3444 C   0  0  0  0  0  0  0  0  0  0  0  0
   20.6812   -4.3761  -17.8591 O   0  0  0  0  0  0  0  0  0  0  0  0
   19.9964   -0.5228  -14.1241 O   0  0  0  0  0  0  0  0  0  0  0  0
   19.7420   -2.3638  -18.1065 O   0  0  0  0  0  0  0  0  0  0  0  0
  2  3  1  0
  2  1  1  6
  4  5  2  0
  4  3  1  0
  6  5  1  0
  7  6  2  0
  8  7  1  0
  8  9  2  0
  9  4  1  0
 10  2  1  0
 11 10  2  0
 13 12  1  0
 14 13  1  0
 15 14  1  0
 16 15  1  6
 16 17  1  0
 17 10  1  0
 18 16  1  0
 18 20  1  0
 19 18  2  0
 21 22  1  1
 21 20  1  0
 21 25  1  0
 23 24  2  0
 23 22  1  0
 25 28  1  0
 26 25  2  0
 27 23  1  0
M  END
$$$$
