FMD.pdb
     RDKit          3D

 28 28  0  0  1  0  0  0  0  0999 V2000
   16.9533  -11.0838  -18.1679 N   0  0  0  0  0  0  0  0  0  0  0  0
   18.0661  -10.1248  -18.1976 C   0  0  1  0  0  0  0  0  0  0  0  0
   17.7323   -9.1742  -19.3459 C   0  0  0  0  0  0  0  0  0  0  0  0
   17.9811   -9.9190  -20.6083 C   0  0  0  0  0  0  0  0  0  0  0  0
   19.2456  -10.0364  -21.1664 C   0  0  0  0  0  0  0  0  0  0  0  0
   19.4530  -10.7338  -22.3369 C   0  0  0  0  0  0  0  0  0  0  0  0
   18.3938  -11.3308  -22.9758 C   0  0  0  0  0  0  0  0  0  0  0  0
   17.1433  -11.2269  -22.4434 C   0  0  0  0  0  0  0  0  0  0  0  0
   16.9384  -10.5264  -21.2687 C   0  0  0  0  0  0  0  0  0  0  0  0
   18.1643   -9.4036  -16.9159 C   0  0  0  0  0  0  0  0  0  0  0  0
   17.1205   -9.1410  -16.2806 O   0  0  0  0  0  0  0  0  0  0  0  0
   23.2724   -9.6422  -11.1107 C   0  0  0  0  0  0  0  0  0  0  0  0
   22.6686   -9.8884  -12.7805 S   0  0  0  0  0  0  0  0  0  0  0  0
   21.2243   -8.7914  -13.1317 C   0  0  0  0  0  0  0  0  0  0  0  0
   20.7688   -9.1773  -14.5065 C   0  0  0  0  0  0  0  0  0  0  0  0
   19.5993   -8.4367  -15.0571 C   0  0  2  0  0  0  0  0  0  0  0  0
   19.4130   -9.0177  -16.4166 N   0  0  0  0  0  0  0  0  0  0  0  0
   19.9354   -7.0219  -15.2994 C   0  0  0  0  0  0  0  0  0  0  0  0
   20.6058   -6.6829  -16.3492 O   0  0  0  0  0  0  0  0  0  0  0  0
   19.5804   -5.9262  -14.4667 N   0  0  0  0  0  0  0  0  0  0  0  0
   19.9797   -4.5511  -14.8288 C   0  0  1  0  0  0  0  0  0  0  0  0
   18.7942   -3.6361  -14.6759 C   0  0  0  0  0  0  0  0  0  0  0  0
   19.1235   -2.2387  -14.9156 C   0  0  0  0  0  0  0  0  0  0  0  0
   20.2589   -1.8545  -15.2294 O   0  0  0  0  0  0  0  0  0  0  0  0
   21.1093   -4.2348  -13.9319 C   0  0  0  0  0  0  0  0  0  0  0  0
   21.2006   -4.7937  -12.8198 O   0  0  0  0  0  0  0  0  0  0  0  0
   18.1184   -1.2711  -14.7890 O   0  0  0  0  0  0  0  0  0  0  0  0
   22.1186   -3.3308  -14.2374 O   0  0  0  0  0  0  0  0  0  0  0  0
  2  3  1  0
  2  1  1  1
  4  5  2  0
  4  3  1  0
  6  5  1  0
  7  6  2  0
  8  7  1  0
  8  9  2  0
  9  4  1  0
 10  2  1  0
 11 10  2  0
 13 12  1  0
 14 13  1  0
 15 14  1  0
 16 15  1  6
 16 17  1  0
 17 10  1  0
 18 16  1  0
 18 20  1  0
 19 18  2  0
 21 22  1  1
 21 20  1  0
 21 25  1  0
 23 24  2  0
 23 22  1  0
 25 28  1  0
 26 25  2  0
 27 23  1  0
M  END
$$$$
