FMD.pdb
     RDKit          3D

 28 28  0  0  1  0  0  0  0  0999 V2000
   20.5649  -23.6931  -14.3578 N   0  0  0  0  0  0  0  0  0  0  0  0
   19.5593  -23.2245  -13.3945 C   0  0  1  0  0  0  0  0  0  0  0  0
   19.3723  -24.3910  -12.4261 C   0  0  0  0  0  0  0  0  0  0  0  0
   18.7727  -25.5063  -13.2053 C   0  0  0  0  0  0  0  0  0  0  0  0
   19.5422  -26.4155  -13.9162 C   0  0  0  0  0  0  0  0  0  0  0  0
   18.9645  -27.4433  -14.6299 C   0  0  0  0  0  0  0  0  0  0  0  0
   17.5982  -27.5827  -14.6468 C   0  0  0  0  0  0  0  0  0  0  0  0
   16.8246  -26.6993  -13.9546 C   0  0  0  0  0  0  0  0  0  0  0  0
   17.4073  -25.6690  -13.2393 C   0  0  0  0  0  0  0  0  0  0  0  0
   20.0339  -22.0173  -12.6943 C   0  0  0  0  0  0  0  0  0  0  0  0
   19.2900  -21.4649  -11.8555 O   0  0  0  0  0  0  0  0  0  0  0  0
   25.9086  -21.8388  -11.4448 C   0  0  0  0  0  0  0  0  0  0  0  0
   24.9432  -21.3988   -9.9999 S   0  0  0  0  0  0  0  0  0  0  0  0
   23.1551  -21.2179  -10.4271 C   0  0  0  0  0  0  0  0  0  0  0  0
   23.1427  -20.6182  -11.8007 C   0  0  0  0  0  0  0  0  0  0  0  0
   21.8128  -20.2373  -12.3533 C   0  0  2  0  0  0  0  0  0  0  0  0
   21.3035  -21.4965  -12.9663 N   0  0  0  0  0  0  0  0  0  0  0  0
   21.9577  -19.3040  -13.4852 C   0  0  0  0  0  0  0  0  0  0  0  0
   23.1307  -18.9877  -13.9217 O   0  0  0  0  0  0  0  0  0  0  0  0
   20.8946  -18.6827  -14.1950 N   0  0  0  0  0  0  0  0  0  0  0  0
   20.8795  -18.6841  -15.6719 C   0  0  1  0  0  0  0  0  0  0  0  0
   21.6687  -19.8641  -16.1728 C   0  0  0  0  0  0  0  0  0  0  0  0
   21.6786  -19.9628  -17.6249 C   0  0  0  0  0  0  0  0  0  0  0  0
   22.0113  -19.0267  -18.3653 O   0  0  0  0  0  0  0  0  0  0  0  0
   19.4491  -18.7123  -16.0373 C   0  0  0  0  0  0  0  0  0  0  0  0
   19.1081  -18.6394  -17.2357 O   0  0  0  0  0  0  0  0  0  0  0  0
   21.2960  -21.1681  -18.2279 O   0  0  0  0  0  0  0  0  0  0  0  0
   18.4114  -18.8182  -15.1202 O   0  0  0  0  0  0  0  0  0  0  0  0
  2  3  1  0
  2  1  1  6
  4  5  2  0
  4  3  1  0
  6  5  1  0
  7  6  2  0
  8  7  1  0
  8  9  2  0
  9  4  1  0
 10  2  1  0
 11 10  2  0
 13 12  1  0
 14 13  1  0
 15 14  1  0
 16 15  1  6
 16 17  1  0
 17 10  1  0
 18 16  1  0
 18 20  1  0
 19 18  2  0
 21 22  1  1
 21 20  1  0
 21 25  1  0
 23 24  2  0
 23 22  1  0
 25 28  1  0
 26 25  2  0
 27 23  1  0
M  END
$$$$
