LQW.pdb
     RDKit          3D

 32 33  0  0  1  0  0  0  0  0999 V2000
   28.6920  -15.9914  -17.3943 C   0  0  0  0  0  0  0  0  0  0  0  0
   28.1278  -17.3416  -17.0596 C   0  0  1  0  0  0  0  0  0  0  0  0
   29.3021  -18.3164  -16.9314 C   0  0  0  0  0  0  0  0  0  0  0  0
   27.2723  -17.3679  -15.8445 C   0  0  0  0  0  0  0  0  0  0  0  0
   26.9085  -18.6962  -15.2999 C   0  0  2  0  0  0  0  0  0  0  0  0
   26.1229  -19.3936  -16.3088 N   0  0  0  0  0  0  0  0  0  0  0  0
   26.2313  -18.7204  -13.9954 C   0  0  0  0  0  0  0  0  0  0  0  0
   25.4781  -17.7368  -13.6786 O   0  0  0  0  0  0  0  0  0  0  0  0
   21.4544  -20.3527  -12.2340 N   0  0  0  0  0  0  0  0  0  0  0  0
   22.2359  -21.2908  -12.9402 C   0  0  0  0  0  0  0  0  0  0  0  0
   21.6606  -22.2323  -13.5301 O   0  0  0  0  0  0  0  0  0  0  0  0
   23.7459  -21.1617  -12.9844 C   0  0  0  0  0  0  0  0  0  0  0  0
   24.1019  -19.9523  -12.1857 C   0  0  0  0  0  0  0  0  0  0  0  0
   25.5616  -19.8313  -11.8034 C   0  0  2  0  0  0  0  0  0  0  0  0
   26.3426  -19.7458  -13.0599 N   0  0  0  0  0  0  0  0  0  0  0  0
   26.0642  -20.9357  -10.9683 C   0  0  0  0  0  0  0  0  0  0  0  0
   26.9076  -21.7311  -11.4642 O   0  0  0  0  0  0  0  0  0  0  0  0
   25.6330  -21.1220   -9.6384 N   0  0  0  0  0  0  0  0  0  0  0  0
   26.3998  -21.4896   -8.4992 C   0  0  1  0  0  0  0  0  0  0  0  0
   27.7079  -20.7991   -8.3742 C   0  0  0  0  0  0  0  0  0  0  0  0
   27.7032  -19.7635   -7.3130 C   0  0  0  0  0  0  0  0  0  0  0  0
   27.0065  -18.5549   -7.3353 C   0  0  0  0  0  0  0  0  0  0  0  0
   27.2998  -17.9397   -6.1827 N   0  0  0  0  0  0  0  0  0  0  0  0
   28.1260  -18.6692   -5.4411 C   0  0  0  0  0  0  0  0  0  0  0  0
   28.7336  -18.5124   -4.1944 C   0  0  0  0  0  0  0  0  0  0  0  0
   29.5737  -19.4737   -3.6674 C   0  0  0  0  0  0  0  0  0  0  0  0
   29.8403  -20.6288   -4.3634 C   0  0  0  0  0  0  0  0  0  0  0  0
   29.2371  -20.7807   -5.5975 C   0  0  0  0  0  0  0  0  0  0  0  0
   28.3976  -19.8162   -6.1203 C   0  0  0  0  0  0  0  0  0  0  0  0
   25.6380  -21.6121   -7.2206 C   0  0  0  0  0  0  0  0  0  0  0  0
   24.5615  -20.9394   -7.0488 O   0  0  0  0  0  0  0  0  0  0  0  0
   25.9862  -22.4056   -6.1507 O   0  0  0  0  0  0  0  0  0  0  0  0
  2  1  1  1
  3  2  1  0
  4  5  1  0
  4  2  1  0
  5  6  1  6
  7  5  1  0
  7  8  2  0
  9 10  1  0
 10 12  1  0
 11 10  2  0
 12 13  1  0
 14 13  1  6
 14 15  1  0
 15  7  1  0
 16 14  1  0
 17 16  2  0
 18 16  1  0
 19 20  1  1
 19 18  1  0
 20 21  1  0
 21 22  2  0
 21 29  1  0
 22 23  1  0
 23 24  1  0
 24 25  2  0
 25 26  1  0
 27 26  2  0
 28 27  1  0
 29 28  2  0
 29 24  1  0
 30 19  1  0
 31 30  2  0
 32 30  1  0
M  END
$$$$
