LQW.pdb
     RDKit          3D

 32 33  0  0  1  0  0  0  0  0999 V2000
   19.8199  -16.1887    2.7605 C   0  0  0  0  0  0  0  0  0  0  0  0
   18.5663  -15.5414    3.2734 C   0  0  1  0  0  0  0  0  0  0  0  0
   18.8371  -14.0390    3.3969 C   0  0  0  0  0  0  0  0  0  0  0  0
   17.3565  -15.8038    2.4509 C   0  0  0  0  0  0  0  0  0  0  0  0
   16.0408  -15.5301    3.0735 C   0  0  2  0  0  0  0  0  0  0  0  0
   16.2345  -14.5165    4.1015 N   0  0  0  0  0  0  0  0  0  0  0  0
   15.3003  -16.6837    3.6041 C   0  0  0  0  0  0  0  0  0  0  0  0
   14.0587  -16.5419    3.8751 O   0  0  0  0  0  0  0  0  0  0  0  0
   11.8926  -19.1669    1.4890 N   0  0  0  0  0  0  0  0  0  0  0  0
   11.5394  -19.5289    2.8057 C   0  0  0  0  0  0  0  0  0  0  0  0
   10.3412  -19.7841    3.0599 O   0  0  0  0  0  0  0  0  0  0  0  0
   12.5917  -19.6076    3.8944 C   0  0  0  0  0  0  0  0  0  0  0  0
   13.8945  -19.2387    3.2666 C   0  0  0  0  0  0  0  0  0  0  0  0
   15.0708  -19.1459    4.2147 C   0  0  2  0  0  0  0  0  0  0  0  0
   15.8488  -17.9421    3.8382 N   0  0  0  0  0  0  0  0  0  0  0  0
   15.9432  -20.3326    4.2181 C   0  0  0  0  0  0  0  0  0  0  0  0
   16.4385  -20.7201    3.1252 O   0  0  0  0  0  0  0  0  0  0  0  0
   16.2396  -21.0381    5.4029 N   0  0  0  0  0  0  0  0  0  0  0  0
   17.5112  -21.3696    5.9450 C   0  0  1  0  0  0  0  0  0  0  0  0
   18.5511  -20.3215    5.7910 C   0  0  0  0  0  0  0  0  0  0  0  0
   19.8504  -20.7206    6.3839 C   0  0  0  0  0  0  0  0  0  0  0  0
   20.6867  -21.7448    5.9389 C   0  0  0  0  0  0  0  0  0  0  0  0
   21.7358  -21.7510    6.7709 N   0  0  0  0  0  0  0  0  0  0  0  0
   21.6209  -20.8105    7.7020 C   0  0  0  0  0  0  0  0  0  0  0  0
   22.3978  -20.3906    8.7828 C   0  0  0  0  0  0  0  0  0  0  0  0
   22.0044  -19.3506    9.6021 C   0  0  0  0  0  0  0  0  0  0  0  0
   20.8209  -18.6891    9.3753 C   0  0  0  0  0  0  0  0  0  0  0  0
   20.0542  -19.1077    8.3043 C   0  0  0  0  0  0  0  0  0  0  0  0
   20.4520  -20.1485    7.4877 C   0  0  0  0  0  0  0  0  0  0  0  0
   17.4897  -22.0305    7.2840 C   0  0  0  0  0  0  0  0  0  0  0  0
   16.8974  -21.4646    8.2688 O   0  0  0  0  0  0  0  0  0  0  0  0
   18.0698  -23.2405    7.5922 O   0  0  0  0  0  0  0  0  0  0  0  0
  2  1  1  6
  3  2  1  0
  4  5  1  0
  4  2  1  0
  5  6  1  1
  7  5  1  0
  7  8  2  0
  9 10  1  0
 10 12  1  0
 11 10  2  0
 12 13  1  0
 14 13  1  6
 14 15  1  0
 15  7  1  0
 16 14  1  0
 17 16  2  0
 18 16  1  0
 19 20  1  1
 19 18  1  0
 20 21  1  0
 21 22  2  0
 21 29  1  0
 22 23  1  0
 23 24  1  0
 24 25  2  0
 25 26  1  0
 27 26  2  0
 28 27  1  0
 29 28  2  0
 29 24  1  0
 30 19  1  0
 31 30  2  0
 32 30  1  0
M  END
$$$$
