LQW.pdb
     RDKit          3D

 32 33  0  0  1  0  0  0  0  0999 V2000
   27.7440  -32.9415  -16.7825 C   0  0  0  0  0  0  0  0  0  0  0  0
   27.1624  -32.9500  -15.3985 C   0  0  1  0  0  0  0  0  0  0  0  0
   27.9284  -31.9167  -14.5671 C   0  0  0  0  0  0  0  0  0  0  0  0
   25.6975  -32.7044  -15.3443 C   0  0  0  0  0  0  0  0  0  0  0  0
   25.0761  -32.6032  -14.0038 C   0  0  2  0  0  0  0  0  0  0  0  0
   25.1544  -33.9143  -13.3742 N   0  0  0  0  0  0  0  0  0  0  0  0
   23.7080  -32.0693  -13.9407 C   0  0  0  0  0  0  0  0  0  0  0  0
   22.7281  -32.8784  -14.0839 O   0  0  0  0  0  0  0  0  0  0  0  0
   20.1309  -28.1616  -10.7970 N   0  0  0  0  0  0  0  0  0  0  0  0
   20.0530  -29.5542  -10.5868 C   0  0  0  0  0  0  0  0  0  0  0  0
   19.2480  -29.9909   -9.7344 O   0  0  0  0  0  0  0  0  0  0  0  0
   20.9285  -30.5056  -11.3787 C   0  0  0  0  0  0  0  0  0  0  0  0
   21.7958  -29.6677  -12.2579 C   0  0  0  0  0  0  0  0  0  0  0  0
   22.0045  -30.1965  -13.6608 C   0  0  2  0  0  0  0  0  0  0  0  0
   23.3848  -30.7311  -13.7316 N   0  0  0  0  0  0  0  0  0  0  0  0
   21.7921  -29.1990  -14.7236 C   0  0  0  0  0  0  0  0  0  0  0  0
   22.6139  -28.2488  -14.8317 O   0  0  0  0  0  0  0  0  0  0  0  0
   20.7049  -29.2812  -15.6182 N   0  0  0  0  0  0  0  0  0  0  0  0
   20.4002  -28.4432  -16.7254 C   0  0  1  0  0  0  0  0  0  0  0  0
   21.5365  -28.1791  -17.6434 C   0  0  0  0  0  0  0  0  0  0  0  0
   21.8263  -29.3299  -18.5325 C   0  0  0  0  0  0  0  0  0  0  0  0
   20.9348  -30.3361  -18.9058 C   0  0  0  0  0  0  0  0  0  0  0  0
   21.6243  -31.1613  -19.7036 N   0  0  0  0  0  0  0  0  0  0  0  0
   22.8779  -30.7500  -19.8584 C   0  0  0  0  0  0  0  0  0  0  0  0
   23.9915  -31.2172  -20.5581 C   0  0  0  0  0  0  0  0  0  0  0  0
   25.2028  -30.5543  -20.5259 C   0  0  0  0  0  0  0  0  0  0  0  0
   25.3504  -29.3998  -19.7945 C   0  0  0  0  0  0  0  0  0  0  0  0
   24.2457  -28.9402  -19.1029 C   0  0  0  0  0  0  0  0  0  0  0  0
   23.0363  -29.6068  -19.1383 C   0  0  0  0  0  0  0  0  0  0  0  0
   19.1023  -28.7233  -17.4089 C   0  0  0  0  0  0  0  0  0  0  0  0
   18.6676  -27.9248  -18.3114 O   0  0  0  0  0  0  0  0  0  0  0  0
   18.2783  -29.7978  -17.1595 O   0  0  0  0  0  0  0  0  0  0  0  0
  2  1  1  6
  3  2  1  0
  4  5  1  0
  4  2  1  0
  5  6  1  6
  7  5  1  0
  7  8  2  0
  9 10  1  0
 10 12  1  0
 11 10  2  0
 12 13  1  0
 14 13  1  1
 14 15  1  0
 15  7  1  0
 16 14  1  0
 17 16  2  0
 18 16  1  0
 19 20  1  6
 19 18  1  0
 20 21  1  0
 21 22  2  0
 21 29  1  0
 22 23  1  0
 23 24  1  0
 24 25  2  0
 25 26  1  0
 27 26  2  0
 28 27  1  0
 29 28  2  0
 29 24  1  0
 30 19  1  0
 31 30  2  0
 32 30  1  0
M  END
$$$$
