LQW.pdb
     RDKit          3D

 32 33  0  0  1  0  0  0  0  0999 V2000
   28.8101  -16.5716  -17.4035 C   0  0  0  0  0  0  0  0  0  0  0  0
   28.4003  -17.8972  -16.8306 C   0  0  1  0  0  0  0  0  0  0  0  0
   29.6774  -18.6871  -16.5292 C   0  0  0  0  0  0  0  0  0  0  0  0
   27.5284  -17.8066  -15.6303 C   0  0  0  0  0  0  0  0  0  0  0  0
   27.2876  -19.0554  -14.8714 C   0  0  2  0  0  0  0  0  0  0  0  0
   26.6713  -20.0167  -15.7757 N   0  0  0  0  0  0  0  0  0  0  0  0
   26.5207  -18.9404  -13.6226 C   0  0  0  0  0  0  0  0  0  0  0  0
   25.7734  -17.9164  -13.4554 O   0  0  0  0  0  0  0  0  0  0  0  0
   22.0726  -21.2638  -13.2959 N   0  0  0  0  0  0  0  0  0  0  0  0
   21.9235  -20.9452  -11.9299 C   0  0  0  0  0  0  0  0  0  0  0  0
   20.8437  -21.2206  -11.3612 O   0  0  0  0  0  0  0  0  0  0  0  0
   23.0507  -20.2810  -11.1636 C   0  0  0  0  0  0  0  0  0  0  0  0
   24.1830  -20.1076  -12.1203 C   0  0  0  0  0  0  0  0  0  0  0  0
   25.5479  -19.9348  -11.4889 C   0  0  2  0  0  0  0  0  0  0  0  0
   26.5395  -19.8728  -12.5885 N   0  0  0  0  0  0  0  0  0  0  0  0
   25.9144  -20.9956  -10.5350 C   0  0  0  0  0  0  0  0  0  0  0  0
   25.6682  -22.1936  -10.8416 O   0  0  0  0  0  0  0  0  0  0  0  0
   26.5322  -20.7083   -9.3001 N   0  0  0  0  0  0  0  0  0  0  0  0
   26.0413  -20.9395   -7.9862 C   0  0  1  0  0  0  0  0  0  0  0  0
   25.7738  -19.7143   -7.1919 C   0  0  0  0  0  0  0  0  0  0  0  0
   27.0177  -19.0763   -6.6975 C   0  0  0  0  0  0  0  0  0  0  0  0
   27.5651  -17.8713   -7.1389 C   0  0  0  0  0  0  0  0  0  0  0  0
   28.6834  -17.6916   -6.4247 N   0  0  0  0  0  0  0  0  0  0  0  0
   28.8785  -18.6905   -5.5710 C   0  0  0  0  0  0  0  0  0  0  0  0
   29.8522  -19.0017   -4.6207 C   0  0  0  0  0  0  0  0  0  0  0  0
   29.7854  -20.1520   -3.8591 C   0  0  0  0  0  0  0  0  0  0  0  0
   28.7448  -21.0365   -4.0159 C   0  0  0  0  0  0  0  0  0  0  0  0
   27.7826  -20.7253   -4.9577 C   0  0  0  0  0  0  0  0  0  0  0  0
   27.8539  -19.5734   -5.7171 C   0  0  0  0  0  0  0  0  0  0  0  0
   24.9952  -21.9983   -7.8651 C   0  0  0  0  0  0  0  0  0  0  0  0
   24.5035  -22.2854   -6.7176 O   0  0  0  0  0  0  0  0  0  0  0  0
   24.4786  -22.7400   -8.9037 O   0  0  0  0  0  0  0  0  0  0  0  0
  2  1  1  1
  3  2  1  0
  4  5  1  0
  4  2  1  0
  5  6  1  6
  7  5  1  0
  7  8  2  0
  9 10  1  0
 10 12  1  0
 11 10  2  0
 12 13  1  0
 14 13  1  6
 14 15  1  0
 15  7  1  0
 16 14  1  0
 17 16  2  0
 18 16  1  0
 19 20  1  6
 19 18  1  0
 20 21  1  0
 21 22  2  0
 21 29  1  0
 22 23  1  0
 23 24  1  0
 24 25  2  0
 25 26  1  0
 27 26  2  0
 28 27  1  0
 29 28  2  0
 29 24  1  0
 30 19  1  0
 31 30  2  0
 32 30  1  0
M  END
$$$$
