LQW.pdb
     RDKit          3D

 32 33  0  0  1  0  0  0  0  0999 V2000
   29.1158  -15.6327  -16.9662 C   0  0  0  0  0  0  0  0  0  0  0  0
   28.7111  -17.0747  -16.8645 C   0  0  1  0  0  0  0  0  0  0  0  0
   29.9916  -17.9129  -16.8053 C   0  0  0  0  0  0  0  0  0  0  0  0
   27.8132  -17.3833  -15.7209 C   0  0  0  0  0  0  0  0  0  0  0  0
   27.3928  -18.7931  -15.5503 C   0  0  2  0  0  0  0  0  0  0  0  0
   27.0313  -19.3141  -16.8616 N   0  0  0  0  0  0  0  0  0  0  0  0
   26.3328  -19.0594  -14.5672 C   0  0  0  0  0  0  0  0  0  0  0  0
   25.1455  -18.6603  -14.8242 O   0  0  0  0  0  0  0  0  0  0  0  0
   24.3019  -24.2450  -13.7599 N   0  0  0  0  0  0  0  0  0  0  0  0
   23.7671  -23.2684  -14.6258 C   0  0  0  0  0  0  0  0  0  0  0  0
   22.7319  -23.5394  -15.2740 O   0  0  0  0  0  0  0  0  0  0  0  0
   24.4339  -21.9142  -14.7694 C   0  0  0  0  0  0  0  0  0  0  0  0
   25.6036  -21.9056  -13.8426 C   0  0  0  0  0  0  0  0  0  0  0  0
   25.6230  -20.7811  -12.8295 C   0  0  2  0  0  0  0  0  0  0  0  0
   26.5179  -19.7247  -13.3580 N   0  0  0  0  0  0  0  0  0  0  0  0
   26.0573  -21.1856  -11.4814 C   0  0  0  0  0  0  0  0  0  0  0  0
   27.2085  -21.6808  -11.3420 O   0  0  0  0  0  0  0  0  0  0  0  0
   25.2272  -21.0308  -10.3517 N   0  0  0  0  0  0  0  0  0  0  0  0
   25.5663  -21.1531   -8.9766 C   0  0  1  0  0  0  0  0  0  0  0  0
   26.9073  -20.6309   -8.6126 C   0  0  0  0  0  0  0  0  0  0  0  0
   27.2297  -20.8451   -7.1812 C   0  0  0  0  0  0  0  0  0  0  0  0
   26.9454  -21.9842   -6.4274 C   0  0  0  0  0  0  0  0  0  0  0  0
   27.4064  -21.7347   -5.1952 N   0  0  0  0  0  0  0  0  0  0  0  0
   27.9567  -20.5280   -5.1193 C   0  0  0  0  0  0  0  0  0  0  0  0
   28.5690  -19.7835   -4.1100 C   0  0  0  0  0  0  0  0  0  0  0  0
   29.0592  -18.5124   -4.3378 C   0  0  0  0  0  0  0  0  0  0  0  0
   28.9576  -17.9347   -5.5810 C   0  0  0  0  0  0  0  0  0  0  0  0
   28.3507  -18.6748   -6.5779 C   0  0  0  0  0  0  0  0  0  0  0  0
   27.8620  -19.9458   -6.3451 C   0  0  0  0  0  0  0  0  0  0  0  0
   24.4816  -20.8050   -8.0110 C   0  0  0  0  0  0  0  0  0  0  0  0
   24.7251  -20.7849   -6.7535 O   0  0  0  0  0  0  0  0  0  0  0  0
   23.1821  -20.4921   -8.3409 O   0  0  0  0  0  0  0  0  0  0  0  0
  2  1  1  1
  3  2  1  0
  4  5  1  0
  4  2  1  0
  5  6  1  6
  7  5  1  0
  7  8  2  0
  9 10  1  0
 10 12  1  0
 11 10  2  0
 12 13  1  0
 14 13  1  6
 14 15  1  0
 15  7  1  0
 16 14  1  0
 17 16  2  0
 18 16  1  0
 19 20  1  1
 19 18  1  0
 20 21  1  0
 21 22  2  0
 21 29  1  0
 22 23  1  0
 23 24  1  0
 24 25  2  0
 25 26  1  0
 27 26  2  0
 28 27  1  0
 29 28  2  0
 29 24  1  0
 30 19  1  0
 31 30  2  0
 32 30  1  0
M  END
$$$$
