LQW.pdb
     RDKit          3D

 32 33  0  0  1  0  0  0  0  0999 V2000
   28.6620  -16.1964  -18.9691 C   0  0  0  0  0  0  0  0  0  0  0  0
   28.5537  -17.4730  -18.1866 C   0  0  1  0  0  0  0  0  0  0  0  0
   29.8184  -18.2928  -18.4591 C   0  0  0  0  0  0  0  0  0  0  0  0
   28.3386  -17.2852  -16.7280 C   0  0  0  0  0  0  0  0  0  0  0  0
   28.2516  -18.5052  -15.8929 C   0  0  2  0  0  0  0  0  0  0  0  0
   27.8375  -19.6066  -16.7515 N   0  0  0  0  0  0  0  0  0  0  0  0
   27.4116  -18.4315  -14.6887 C   0  0  0  0  0  0  0  0  0  0  0  0
   27.5688  -17.4433  -13.8925 O   0  0  0  0  0  0  0  0  0  0  0  0
   21.8280  -20.1192  -15.5810 N   0  0  0  0  0  0  0  0  0  0  0  0
   22.2374  -20.7187  -14.3717 C   0  0  0  0  0  0  0  0  0  0  0  0
   21.3666  -21.1947  -13.6098 O   0  0  0  0  0  0  0  0  0  0  0  0
   23.7060  -20.7858  -14.0006 C   0  0  0  0  0  0  0  0  0  0  0  0
   24.1276  -19.3992  -13.6443 C   0  0  0  0  0  0  0  0  0  0  0  0
   25.5533  -19.2578  -13.1554 C   0  0  2  0  0  0  0  0  0  0  0  0
   26.4394  -19.3648  -14.3383 N   0  0  0  0  0  0  0  0  0  0  0  0
   25.9466  -20.2459  -12.1363 C   0  0  0  0  0  0  0  0  0  0  0  0
   26.3948  -21.3607  -12.5187 O   0  0  0  0  0  0  0  0  0  0  0  0
   25.8396  -19.9777  -10.7558 N   0  0  0  0  0  0  0  0  0  0  0  0
   25.9726  -20.8772   -9.6631 C   0  0  1  0  0  0  0  0  0  0  0  0
   27.2544  -20.7773   -8.9210 C   0  0  0  0  0  0  0  0  0  0  0  0
   27.0559  -20.7126   -7.4529 C   0  0  0  0  0  0  0  0  0  0  0  0
   26.0254  -21.3106   -6.7271 C   0  0  0  0  0  0  0  0  0  0  0  0
   26.2393  -20.9833   -5.4464 N   0  0  0  0  0  0  0  0  0  0  0  0
   27.3232  -20.2268   -5.3145 C   0  0  0  0  0  0  0  0  0  0  0  0
   27.9824  -19.6239   -4.2421 C   0  0  0  0  0  0  0  0  0  0  0  0
   29.1254  -18.8694   -4.4209 C   0  0  0  0  0  0  0  0  0  0  0  0
   29.6553  -18.6871   -5.6761 C   0  0  0  0  0  0  0  0  0  0  0  0
   29.0000  -19.2854   -6.7356 C   0  0  0  0  0  0  0  0  0  0  0  0
   27.8570  -20.0391   -6.5516 C   0  0  0  0  0  0  0  0  0  0  0  0
   24.7644  -21.0249   -8.7979 C   0  0  0  0  0  0  0  0  0  0  0  0
   24.6111  -22.0784   -8.0854 O   0  0  0  0  0  0  0  0  0  0  0  0
   23.7439  -20.1083   -8.6798 O   0  0  0  0  0  0  0  0  0  0  0  0
  2  1  1  6
  3  2  1  0
  4  5  1  0
  4  2  1  0
  5  6  1  6
  7  5  1  0
  7  8  2  0
  9 10  1  0
 10 12  1  0
 11 10  2  0
 12 13  1  0
 14 13  1  6
 14 15  1  0
 15  7  1  0
 16 14  1  0
 17 16  2  0
 18 16  1  0
 19 20  1  1
 19 18  1  0
 20 21  1  0
 21 22  2  0
 21 29  1  0
 22 23  1  0
 23 24  1  0
 24 25  2  0
 25 26  1  0
 27 26  2  0
 28 27  1  0
 29 28  2  0
 29 24  1  0
 30 19  1  0
 31 30  2  0
 32 30  1  0
M  END
$$$$
