LQW.pdb
     RDKit          3D

 32 33  0  0  1  0  0  0  0  0999 V2000
   32.6944  -30.2067  -19.7285 C   0  0  0  0  0  0  0  0  0  0  0  0
   32.0704  -30.6664  -18.4428 C   0  0  1  0  0  0  0  0  0  0  0  0
   31.9580  -29.4489  -17.5205 C   0  0  0  0  0  0  0  0  0  0  0  0
   30.7566  -31.3427  -18.6029 C   0  0  0  0  0  0  0  0  0  0  0  0
   30.0885  -31.8260  -17.3727 C   0  0  2  0  0  0  0  0  0  0  0  0
   30.9308  -32.8568  -16.7815 N   0  0  0  0  0  0  0  0  0  0  0  0
   28.7006  -32.2919  -17.5057 C   0  0  0  0  0  0  0  0  0  0  0  0
   28.4757  -33.3648  -18.1640 O   0  0  0  0  0  0  0  0  0  0  0  0
   27.4105  -31.6833  -13.7315 N   0  0  0  0  0  0  0  0  0  0  0  0
   27.2077  -33.0688  -13.9013 C   0  0  0  0  0  0  0  0  0  0  0  0
   27.8091  -33.8632  -13.1446 O   0  0  0  0  0  0  0  0  0  0  0  0
   26.2780  -33.5873  -14.9810 C   0  0  0  0  0  0  0  0  0  0  0  0
   25.6963  -32.3941  -15.6631 C   0  0  0  0  0  0  0  0  0  0  0  0
   26.1958  -32.1403  -17.0693 C   0  0  2  0  0  0  0  0  0  0  0  0
   27.5904  -31.6509  -16.9620 N   0  0  0  0  0  0  0  0  0  0  0  0
   25.3813  -31.1853  -17.8400 C   0  0  0  0  0  0  0  0  0  0  0  0
   24.1718  -31.4650  -18.0609 O   0  0  0  0  0  0  0  0  0  0  0  0
   25.9139  -29.9744  -18.3293 N   0  0  0  0  0  0  0  0  0  0  0  0
   25.2873  -28.9941  -19.1462 C   0  0  1  0  0  0  0  0  0  0  0  0
   26.1286  -27.8137  -19.4663 C   0  0  0  0  0  0  0  0  0  0  0  0
   25.3490  -26.7116  -20.0799 C   0  0  0  0  0  0  0  0  0  0  0  0
   24.6641  -25.7020  -19.4032 C   0  0  0  0  0  0  0  0  0  0  0  0
   24.1031  -24.9394  -20.3501 N   0  0  0  0  0  0  0  0  0  0  0  0
   24.3834  -25.3935  -21.5666 C   0  0  0  0  0  0  0  0  0  0  0  0
   24.0653  -24.9970  -22.8665 C   0  0  0  0  0  0  0  0  0  0  0  0
   24.5159  -25.6929  -23.9711 C   0  0  0  0  0  0  0  0  0  0  0  0
   25.3014  -26.8112  -23.8221 C   0  0  0  0  0  0  0  0  0  0  0  0
   25.6143  -27.2008  -22.5337 C   0  0  0  0  0  0  0  0  0  0  0  0
   25.1611  -26.5015  -21.4320 C   0  0  0  0  0  0  0  0  0  0  0  0
   24.4964  -29.5230  -20.2972 C   0  0  0  0  0  0  0  0  0  0  0  0
   23.2742  -29.1714  -20.4506 O   0  0  0  0  0  0  0  0  0  0  0  0
   24.9593  -30.3944  -21.2574 O   0  0  0  0  0  0  0  0  0  0  0  0
  2  1  1  6
  3  2  1  0
  4  5  1  0
  4  2  1  0
  5  6  1  6
  7  5  1  0
  7  8  2  0
  9 10  1  0
 10 12  1  0
 11 10  2  0
 12 13  1  0
 14 13  1  1
 14 15  1  0
 15  7  1  0
 16 14  1  0
 17 16  2  0
 18 16  1  0
 19 20  1  6
 19 18  1  0
 20 21  1  0
 21 22  2  0
 21 29  1  0
 22 23  1  0
 23 24  1  0
 24 25  2  0
 25 26  1  0
 27 26  2  0
 28 27  1  0
 29 28  2  0
 29 24  1  0
 30 19  1  0
 31 30  2  0
 32 30  1  0
M  END
$$$$
