LQW.pdb
     RDKit          3D

 32 33  0  0  1  0  0  0  0  0999 V2000
   26.4152  -27.4831  -16.8633 C   0  0  0  0  0  0  0  0  0  0  0  0
   25.9244  -26.2239  -16.2097 C   0  0  1  0  0  0  0  0  0  0  0  0
   26.7295  -25.0566  -16.7885 C   0  0  0  0  0  0  0  0  0  0  0  0
   24.4631  -25.9886  -16.3453 C   0  0  0  0  0  0  0  0  0  0  0  0
   23.9120  -24.7660  -15.7169 C   0  0  2  0  0  0  0  0  0  0  0  0
   24.6795  -24.4994  -14.5080 N   0  0  0  0  0  0  0  0  0  0  0  0
   22.4687  -24.7509  -15.4385 C   0  0  0  0  0  0  0  0  0  0  0  0
   21.6568  -24.9525  -16.4056 O   0  0  0  0  0  0  0  0  0  0  0  0
   20.0926  -25.9440   -9.9216 N   0  0  0  0  0  0  0  0  0  0  0  0
   20.4395  -26.9521  -10.8452 C   0  0  0  0  0  0  0  0  0  0  0  0
   20.6190  -28.1173  -10.4265 O   0  0  0  0  0  0  0  0  0  0  0  0
   20.5925  -26.6307  -12.3190 C   0  0  0  0  0  0  0  0  0  0  0  0
   20.3217  -25.1714  -12.4756 C   0  0  0  0  0  0  0  0  0  0  0  0
   20.4546  -24.6322  -13.8838 C   0  0  2  0  0  0  0  0  0  0  0  0
   21.9022  -24.5335  -14.1851 N   0  0  0  0  0  0  0  0  0  0  0  0
   19.8020  -23.3294  -14.0994 C   0  0  0  0  0  0  0  0  0  0  0  0
   20.4405  -22.2804  -13.8131 O   0  0  0  0  0  0  0  0  0  0  0  0
   18.4942  -23.2260  -14.6172 N   0  0  0  0  0  0  0  0  0  0  0  0
   17.7588  -22.0546  -14.9456 C   0  0  1  0  0  0  0  0  0  0  0  0
   18.5325  -21.0078  -15.6591 C   0  0  0  0  0  0  0  0  0  0  0  0
   18.4025  -21.1120  -17.1326 C   0  0  0  0  0  0  0  0  0  0  0  0
   17.2398  -20.9193  -17.8793 C   0  0  0  0  0  0  0  0  0  0  0  0
   17.5856  -21.1202  -19.1572 N   0  0  0  0  0  0  0  0  0  0  0  0
   18.8741  -21.4240  -19.2681 C   0  0  0  0  0  0  0  0  0  0  0  0
   19.7308  -21.7220  -20.3288 C   0  0  0  0  0  0  0  0  0  0  0  0
   21.0669  -22.0084  -20.1277 C   0  0  0  0  0  0  0  0  0  0  0  0
   21.6003  -22.0084  -18.8607 C   0  0  0  0  0  0  0  0  0  0  0  0
   20.7492  -21.7128  -17.8129 C   0  0  0  0  0  0  0  0  0  0  0  0
   19.4134  -21.4272  -18.0192 C   0  0  0  0  0  0  0  0  0  0  0  0
   16.3844  -22.2848  -15.4825 C   0  0  0  0  0  0  0  0  0  0  0  0
   16.0995  -23.3911  -16.0619 O   0  0  0  0  0  0  0  0  0  0  0  0
   15.3387  -21.3910  -15.4238 O   0  0  0  0  0  0  0  0  0  0  0  0
  2  1  1  6
  3  2  1  0
  4  5  1  0
  4  2  1  0
  5  6  1  1
  7  5  1  0
  7  8  2  0
  9 10  1  0
 10 12  1  0
 11 10  2  0
 12 13  1  0
 14 13  1  1
 14 15  1  0
 15  7  1  0
 16 14  1  0
 17 16  2  0
 18 16  1  0
 19 20  1  6
 19 18  1  0
 20 21  1  0
 21 22  2  0
 21 29  1  0
 22 23  1  0
 23 24  1  0
 24 25  2  0
 25 26  1  0
 27 26  2  0
 28 27  1  0
 29 28  2  0
 29 24  1  0
 30 19  1  0
 31 30  2  0
 32 30  1  0
M  END
$$$$
