LQW.pdb
     RDKit          3D

 32 33  0  0  1  0  0  0  0  0999 V2000
   26.7969  -15.1234  -17.5767 C   0  0  0  0  0  0  0  0  0  0  0  0
   27.2547  -16.4260  -16.9874 C   0  0  1  0  0  0  0  0  0  0  0  0
   28.6012  -16.7769  -17.6274 C   0  0  0  0  0  0  0  0  0  0  0  0
   27.3465  -16.4327  -15.5040 C   0  0  0  0  0  0  0  0  0  0  0  0
   27.8002  -17.6860  -14.8584 C   0  0  2  0  0  0  0  0  0  0  0  0
   28.2983  -18.5719  -15.9018 N   0  0  0  0  0  0  0  0  0  0  0  0
   26.8339  -18.3801  -13.9950 C   0  0  0  0  0  0  0  0  0  0  0  0
   25.8384  -17.7209  -13.5373 O   0  0  0  0  0  0  0  0  0  0  0  0
   24.9188  -23.8896  -14.9570 N   0  0  0  0  0  0  0  0  0  0  0  0
   24.5635  -23.9257  -13.5924 C   0  0  0  0  0  0  0  0  0  0  0  0
   23.9729  -24.9360  -13.1499 O   0  0  0  0  0  0  0  0  0  0  0  0
   24.8910  -22.7620  -12.6774 C   0  0  0  0  0  0  0  0  0  0  0  0
   25.6026  -21.7449  -13.5060 C   0  0  0  0  0  0  0  0  0  0  0  0
   25.9051  -20.4349  -12.8106 C   0  0  2  0  0  0  0  0  0  0  0  0
   26.9132  -19.7215  -13.6297 N   0  0  0  0  0  0  0  0  0  0  0  0
   26.3871  -20.5794  -11.4262 C   0  0  0  0  0  0  0  0  0  0  0  0
   27.6308  -20.5864  -11.2183 O   0  0  0  0  0  0  0  0  0  0  0  0
   25.5007  -20.7048  -10.3363 N   0  0  0  0  0  0  0  0  0  0  0  0
   25.8056  -20.8451   -8.9549 C   0  0  1  0  0  0  0  0  0  0  0  0
   26.6526  -19.7665   -8.3869 C   0  0  0  0  0  0  0  0  0  0  0  0
   26.8643  -19.9210   -6.9275 C   0  0  0  0  0  0  0  0  0  0  0  0
   25.9053  -20.2899   -5.9837 C   0  0  0  0  0  0  0  0  0  0  0  0
   26.5348  -20.2947   -4.8019 N   0  0  0  0  0  0  0  0  0  0  0  0
   27.8129  -19.9573   -4.9326 C   0  0  0  0  0  0  0  0  0  0  0  0
   28.8892  -19.8067   -4.0570 C   0  0  0  0  0  0  0  0  0  0  0  0
   30.1421  -19.4310   -4.5007 C   0  0  0  0  0  0  0  0  0  0  0  0
   30.3700  -19.1911   -5.8350 C   0  0  0  0  0  0  0  0  0  0  0  0
   29.3020  -19.3412   -6.6990 C   0  0  0  0  0  0  0  0  0  0  0  0
   28.0507  -19.7171   -6.2504 C   0  0  0  0  0  0  0  0  0  0  0  0
   24.6689  -21.2660   -8.0826 C   0  0  0  0  0  0  0  0  0  0  0  0
   23.4669  -20.9627   -8.4052 O   0  0  0  0  0  0  0  0  0  0  0  0
   24.7775  -21.9764   -6.9083 O   0  0  0  0  0  0  0  0  0  0  0  0
  2  1  1  6
  3  2  1  0
  4  5  1  0
  4  2  1  0
  5  6  1  6
  7  5  1  0
  7  8  2  0
  9 10  1  0
 10 12  1  0
 11 10  2  0
 12 13  1  0
 14 13  1  6
 14 15  1  0
 15  7  1  0
 16 14  1  0
 17 16  2  0
 18 16  1  0
 19 20  1  1
 19 18  1  0
 20 21  1  0
 21 22  2  0
 21 29  1  0
 22 23  1  0
 23 24  1  0
 24 25  2  0
 25 26  1  0
 27 26  2  0
 28 27  1  0
 29 28  2  0
 29 24  1  0
 30 19  1  0
 31 30  2  0
 32 30  1  0
M  END
$$$$
