LQW.pdb
     RDKit          3D

 32 33  0  0  1  0  0  0  0  0999 V2000
   30.4939  -16.0789  -18.9663 C   0  0  0  0  0  0  0  0  0  0  0  0
   29.9841  -17.3582  -18.3688 C   0  0  1  0  0  0  0  0  0  0  0  0
   31.1539  -18.3455  -18.3191 C   0  0  0  0  0  0  0  0  0  0  0  0
   29.3526  -17.2052  -17.0321 C   0  0  0  0  0  0  0  0  0  0  0  0
   28.9515  -18.4437  -16.3259 C   0  0  2  0  0  0  0  0  0  0  0  0
   28.5715  -19.4281  -17.3299 N   0  0  0  0  0  0  0  0  0  0  0  0
   27.9132  -18.3169  -15.2930 C   0  0  0  0  0  0  0  0  0  0  0  0
   28.1285  -17.5391  -14.3011 O   0  0  0  0  0  0  0  0  0  0  0  0
   22.0401  -18.8615  -16.4389 N   0  0  0  0  0  0  0  0  0  0  0  0
   21.8872  -18.7123  -15.0447 C   0  0  0  0  0  0  0  0  0  0  0  0
   20.7331  -18.6120  -14.5722 O   0  0  0  0  0  0  0  0  0  0  0  0
   23.0989  -18.6740  -14.1340 C   0  0  0  0  0  0  0  0  0  0  0  0
   24.3019  -18.8177  -15.0055 C   0  0  0  0  0  0  0  0  0  0  0  0
   25.6318  -18.8284  -14.2826 C   0  0  2  0  0  0  0  0  0  0  0  0
   26.6911  -18.9843  -15.3070 N   0  0  0  0  0  0  0  0  0  0  0  0
   25.7580  -19.8798  -13.2588 C   0  0  0  0  0  0  0  0  0  0  0  0
   26.7934  -20.5996  -13.2580 O   0  0  0  0  0  0  0  0  0  0  0  0
   24.7610  -20.0975  -12.2852 N   0  0  0  0  0  0  0  0  0  0  0  0
   24.9151  -20.4982  -10.9300 C   0  0  1  0  0  0  0  0  0  0  0  0
   26.1145  -19.9519  -10.2471 C   0  0  0  0  0  0  0  0  0  0  0  0
   26.2460  -20.4420   -8.8538 C   0  0  0  0  0  0  0  0  0  0  0  0
   25.5247  -21.4827   -8.2680 C   0  0  0  0  0  0  0  0  0  0  0  0
   25.9642  -21.5704   -7.0062 N   0  0  0  0  0  0  0  0  0  0  0  0
   26.9042  -20.6655   -6.7568 C   0  0  0  0  0  0  0  0  0  0  0  0
   27.6764  -20.3240   -5.6455 C   0  0  0  0  0  0  0  0  0  0  0  0
   28.6029  -19.3005   -5.6890 C   0  0  0  0  0  0  0  0  0  0  0  0
   28.7952  -18.5782   -6.8427 C   0  0  0  0  0  0  0  0  0  0  0  0
   28.0289  -18.9191   -7.9410 C   0  0  0  0  0  0  0  0  0  0  0  0
   27.1034  -19.9436   -7.8925 C   0  0  0  0  0  0  0  0  0  0  0  0
   23.6697  -20.4802  -10.1061 C   0  0  0  0  0  0  0  0  0  0  0  0
   23.5810  -21.2173   -9.0622 O   0  0  0  0  0  0  0  0  0  0  0  0
   22.5483  -19.7232  -10.3612 O   0  0  0  0  0  0  0  0  0  0  0  0
  2  1  1  1
  3  2  1  0
  4  5  1  0
  4  2  1  0
  5  6  1  6
  7  5  1  0
  7  8  2  0
  9 10  1  0
 10 12  1  0
 11 10  2  0
 12 13  1  0
 14 13  1  6
 14 15  1  0
 15  7  1  0
 16 14  1  0
 17 16  2  0
 18 16  1  0
 19 20  1  1
 19 18  1  0
 20 21  1  0
 21 22  2  0
 21 29  1  0
 22 23  1  0
 23 24  1  0
 24 25  2  0
 25 26  1  0
 27 26  2  0
 28 27  1  0
 29 28  2  0
 29 24  1  0
 30 19  1  0
 31 30  2  0
 32 30  1  0
M  END
$$$$
