LQW.pdb
     RDKit          3D

 32 33  0  0  1  0  0  0  0  0999 V2000
   20.2522  -21.8927  -17.9173 C   0  0  0  0  0  0  0  0  0  0  0  0
   20.5267  -22.4630  -16.5561 C   0  0  1  0  0  0  0  0  0  0  0  0
   19.1788  -22.6660  -15.8577 C   0  0  0  0  0  0  0  0  0  0  0  0
   21.3229  -23.7180  -16.5631 C   0  0  0  0  0  0  0  0  0  0  0  0
   22.7496  -23.6138  -16.9468 C   0  0  2  0  0  0  0  0  0  0  0  0
   23.0676  -24.7506  -17.8000 N   0  0  0  0  0  0  0  0  0  0  0  0
   23.7266  -23.4840  -15.8562 C   0  0  0  0  0  0  0  0  0  0  0  0
   24.0182  -24.5222  -15.1690 O   0  0  0  0  0  0  0  0  0  0  0  0
   29.0453  -22.3188  -15.7900 N   0  0  0  0  0  0  0  0  0  0  0  0
   28.9774  -21.6595  -14.5449 C   0  0  0  0  0  0  0  0  0  0  0  0
   30.0282  -21.5140  -13.8817 O   0  0  0  0  0  0  0  0  0  0  0  0
   27.6552  -21.1361  -14.0186 C   0  0  0  0  0  0  0  0  0  0  0  0
   26.6074  -21.5341  -15.0039 C   0  0  0  0  0  0  0  0  0  0  0  0
   25.3705  -22.1777  -14.4145 C   0  0  2  0  0  0  0  0  0  0  0  0
   24.3744  -22.3026  -15.5046 N   0  0  0  0  0  0  0  0  0  0  0  0
   24.7881  -21.4449  -13.2772 C   0  0  0  0  0  0  0  0  0  0  0  0
   24.1706  -20.3695  -13.5053 O   0  0  0  0  0  0  0  0  0  0  0  0
   24.8989  -21.9136  -11.9515 N   0  0  0  0  0  0  0  0  0  0  0  0
   24.4158  -21.3171  -10.7551 C   0  0  1  0  0  0  0  0  0  0  0  0
   25.1308  -21.7226   -9.5190 C   0  0  0  0  0  0  0  0  0  0  0  0
   26.5450  -21.2770   -9.5100 C   0  0  0  0  0  0  0  0  0  0  0  0
   27.4765  -21.4492  -10.5344 C   0  0  0  0  0  0  0  0  0  0  0  0
   28.6157  -20.9022  -10.0917 N   0  0  0  0  0  0  0  0  0  0  0  0
   28.4696  -20.4014   -8.8700 C   0  0  0  0  0  0  0  0  0  0  0  0
   29.3048  -19.7435   -7.9659 C   0  0  0  0  0  0  0  0  0  0  0  0
   28.8553  -19.3299   -6.7271 C   0  0  0  0  0  0  0  0  0  0  0  0
   27.5552  -19.5565   -6.3421 C   0  0  0  0  0  0  0  0  0  0  0  0
   26.7311  -20.2083   -7.2398 C   0  0  0  0  0  0  0  0  0  0  0  0
   27.1855  -20.6200   -8.4777 C   0  0  0  0  0  0  0  0  0  0  0  0
   24.1032  -19.8593  -10.8413 C   0  0  0  0  0  0  0  0  0  0  0  0
   23.1285  -19.3718  -10.1681 O   0  0  0  0  0  0  0  0  0  0  0  0
   24.7795  -18.9365  -11.6072 O   0  0  0  0  0  0  0  0  0  0  0  0
  2  1  1  6
  3  2  1  0
  4  5  1  0
  4  2  1  0
  5  6  1  1
  7  5  1  0
  7  8  2  0
  9 10  1  0
 10 12  1  0
 11 10  2  0
 12 13  1  0
 14 13  1  6
 14 15  1  0
 15  7  1  0
 16 14  1  0
 17 16  2  0
 18 16  1  0
 19 20  1  1
 19 18  1  0
 20 21  1  0
 21 22  2  0
 21 29  1  0
 22 23  1  0
 23 24  1  0
 24 25  2  0
 25 26  1  0
 27 26  2  0
 28 27  1  0
 29 28  2  0
 29 24  1  0
 30 19  1  0
 31 30  2  0
 32 30  1  0
M  END
$$$$
