LQW.pdb
     RDKit          3D

 32 33  0  0  1  0  0  0  0  0999 V2000
   26.6172  -15.8101  -17.5031 C   0  0  0  0  0  0  0  0  0  0  0  0
   27.1511  -16.5779  -16.3288 C   0  0  1  0  0  0  0  0  0  0  0  0
   27.5505  -15.5628  -15.2537 C   0  0  0  0  0  0  0  0  0  0  0  0
   26.2180  -17.5986  -15.7843 C   0  0  0  0  0  0  0  0  0  0  0  0
   26.6315  -18.3057  -14.5504 C   0  0  2  0  0  0  0  0  0  0  0  0
   28.0594  -18.5763  -14.6470 N   0  0  0  0  0  0  0  0  0  0  0  0
   25.8873  -19.5232  -14.1974 C   0  0  0  0  0  0  0  0  0  0  0  0
   24.6097  -19.4741  -14.1728 O   0  0  0  0  0  0  0  0  0  0  0  0
   25.0372  -25.0474  -15.5565 N   0  0  0  0  0  0  0  0  0  0  0  0
   25.6660  -24.1046  -16.3963 C   0  0  0  0  0  0  0  0  0  0  0  0
   25.5107  -24.2017  -17.6339 O   0  0  0  0  0  0  0  0  0  0  0  0
   26.5149  -22.9929  -15.8110 C   0  0  0  0  0  0  0  0  0  0  0  0
   26.4354  -23.1217  -14.3262 C   0  0  0  0  0  0  0  0  0  0  0  0
   25.7168  -21.9965  -13.6129 C   0  0  2  0  0  0  0  0  0  0  0  0
   26.4692  -20.7489  -13.8840 N   0  0  0  0  0  0  0  0  0  0  0  0
   25.5696  -22.1942  -12.1607 C   0  0  0  0  0  0  0  0  0  0  0  0
   24.7402  -23.0504  -11.7497 O   0  0  0  0  0  0  0  0  0  0  0  0
   26.3290  -21.4596  -11.2264 N   0  0  0  0  0  0  0  0  0  0  0  0
   26.2769  -21.5059   -9.8065 C   0  0  1  0  0  0  0  0  0  0  0  0
   27.5845  -21.3342   -9.1250 C   0  0  0  0  0  0  0  0  0  0  0  0
   27.5412  -20.2938   -8.0693 C   0  0  0  0  0  0  0  0  0  0  0  0
   26.7282  -19.1601   -8.0535 C   0  0  0  0  0  0  0  0  0  0  0  0
   27.0281  -18.5079   -6.9232 N   0  0  0  0  0  0  0  0  0  0  0  0
   27.9657  -19.1451   -6.2307 C   0  0  0  0  0  0  0  0  0  0  0  0
   28.6287  -18.9171   -5.0239 C   0  0  0  0  0  0  0  0  0  0  0  0
   29.5901  -19.7858   -4.5455 C   0  0  0  0  0  0  0  0  0  0  0  0
   29.9273  -20.9156   -5.2523 C   0  0  0  0  0  0  0  0  0  0  0  0
   29.2689  -21.1382   -6.4467 C   0  0  0  0  0  0  0  0  0  0  0  0
   28.3080  -20.2663   -6.9210 C   0  0  0  0  0  0  0  0  0  0  0  0
   25.1465  -20.7600   -9.1775 C   0  0  0  0  0  0  0  0  0  0  0  0
   24.8047  -21.0135   -7.9692 O   0  0  0  0  0  0  0  0  0  0  0  0
   24.3905  -19.7835   -9.7863 O   0  0  0  0  0  0  0  0  0  0  0  0
  2  1  1  6
  3  2  1  0
  4  5  1  0
  4  2  1  0
  5  6  1  6
  7  5  1  0
  7  8  2  0
  9 10  1  0
 10 12  1  0
 11 10  2  0
 12 13  1  0
 14 13  1  1
 14 15  1  0
 15  7  1  0
 16 14  1  0
 17 16  2  0
 18 16  1  0
 19 20  1  1
 19 18  1  0
 20 21  1  0
 21 22  2  0
 21 29  1  0
 22 23  1  0
 23 24  1  0
 24 25  2  0
 25 26  1  0
 27 26  2  0
 28 27  1  0
 29 28  2  0
 29 24  1  0
 30 19  1  0
 31 30  2  0
 32 30  1  0
M  END
$$$$
