LQW.pdb
     RDKit          3D

 32 33  0  0  1  0  0  0  0  0999 V2000
   24.5798  -15.2993  -19.4452 C   0  0  0  0  0  0  0  0  0  0  0  0
   24.3076  -16.0077  -18.1500 C   0  0  1  0  0  0  0  0  0  0  0  0
   22.8272  -16.4001  -18.1380 C   0  0  0  0  0  0  0  0  0  0  0  0
   25.1780  -17.1856  -17.8972 C   0  0  0  0  0  0  0  0  0  0  0  0
   24.8856  -17.9992  -16.6946 C   0  0  2  0  0  0  0  0  0  0  0  0
   25.0350  -17.1414  -15.5270 N   0  0  0  0  0  0  0  0  0  0  0  0
   25.6450  -19.2472  -16.5321 C   0  0  0  0  0  0  0  0  0  0  0  0
   25.5444  -20.1469  -17.4352 O   0  0  0  0  0  0  0  0  0  0  0  0
   28.6367  -17.6984  -15.8244 N   0  0  0  0  0  0  0  0  0  0  0  0
   29.2775  -18.4911  -16.7994 C   0  0  0  0  0  0  0  0  0  0  0  0
   29.7891  -17.9283  -17.7927 O   0  0  0  0  0  0  0  0  0  0  0  0
   29.3460  -19.9982  -16.6474 C   0  0  0  0  0  0  0  0  0  0  0  0
   28.7580  -20.3274  -15.3157 C   0  0  0  0  0  0  0  0  0  0  0  0
   27.3074  -20.7597  -15.3336 C   0  0  2  0  0  0  0  0  0  0  0  0
   26.4822  -19.5351  -15.4572 N   0  0  0  0  0  0  0  0  0  0  0  0
   26.8903  -21.5351  -14.1528 C   0  0  0  0  0  0  0  0  0  0  0  0
   27.5630  -22.5517  -13.8304 O   0  0  0  0  0  0  0  0  0  0  0  0
   25.7697  -21.1703  -13.3778 N   0  0  0  0  0  0  0  0  0  0  0  0
   25.2694  -21.7823  -12.1963 C   0  0  1  0  0  0  0  0  0  0  0  0
   26.2965  -22.1059  -11.1745 C   0  0  0  0  0  0  0  0  0  0  0  0
   26.4277  -21.0450  -10.1468 C   0  0  0  0  0  0  0  0  0  0  0  0
   25.4052  -20.2318   -9.6575 C   0  0  0  0  0  0  0  0  0  0  0  0
   25.9777  -19.4218   -8.7580 N   0  0  0  0  0  0  0  0  0  0  0  0
   27.2789  -19.6647   -8.6466 C   0  0  0  0  0  0  0  0  0  0  0  0
   28.3213  -19.1330   -7.8860 C   0  0  0  0  0  0  0  0  0  0  0  0
   29.6149  -19.6057   -7.9918 C   0  0  0  0  0  0  0  0  0  0  0  0
   29.9187  -20.6269   -8.8603 C   0  0  0  0  0  0  0  0  0  0  0  0
   28.8841  -21.1509   -9.6119 C   0  0  0  0  0  0  0  0  0  0  0  0
   27.5919  -20.6747   -9.5025 C   0  0  0  0  0  0  0  0  0  0  0  0
   24.0117  -21.1933  -11.6472 C   0  0  0  0  0  0  0  0  0  0  0  0
   23.6647  -20.0043  -11.9740 O   0  0  0  0  0  0  0  0  0  0  0  0
   23.1430  -21.8185  -10.7811 O   0  0  0  0  0  0  0  0  0  0  0  0
  2  1  1  6
  3  2  1  0
  4  5  1  0
  4  2  1  0
  5  6  1  1
  7  5  1  0
  7  8  2  0
  9 10  1  0
 10 12  1  0
 11 10  2  0
 12 13  1  0
 14 13  1  1
 14 15  1  0
 15  7  1  0
 16 14  1  0
 17 16  2  0
 18 16  1  0
 19 20  1  1
 19 18  1  0
 20 21  1  0
 21 22  2  0
 21 29  1  0
 22 23  1  0
 23 24  1  0
 24 25  2  0
 25 26  1  0
 27 26  2  0
 28 27  1  0
 29 28  2  0
 29 24  1  0
 30 19  1  0
 31 30  2  0
 32 30  1  0
M  END
$$$$
