LQW.pdb
     RDKit          3D

 32 33  0  0  1  0  0  0  0  0999 V2000
   18.1689  -17.7918  -15.3510 C   0  0  0  0  0  0  0  0  0  0  0  0
   17.8179  -19.2465  -15.2315 C   0  0  1  0  0  0  0  0  0  0  0  0
   17.3255  -19.7191  -16.6027 C   0  0  0  0  0  0  0  0  0  0  0  0
   18.9210  -20.1073  -14.7305 C   0  0  0  0  0  0  0  0  0  0  0  0
   20.3065  -19.6406  -14.9677 C   0  0  2  0  0  0  0  0  0  0  0  0
   20.4599  -19.4022  -16.3964 N   0  0  0  0  0  0  0  0  0  0  0  0
   21.3932  -20.4875  -14.4553 C   0  0  0  0  0  0  0  0  0  0  0  0
   21.2417  -21.0578  -13.3208 O   0  0  0  0  0  0  0  0  0  0  0  0
   23.7488  -24.8877  -15.7949 N   0  0  0  0  0  0  0  0  0  0  0  0
   25.0881  -24.5267  -15.5387 C   0  0  0  0  0  0  0  0  0  0  0  0
   25.9112  -25.4255  -15.2563 O   0  0  0  0  0  0  0  0  0  0  0  0
   25.5236  -23.0758  -15.6042 C   0  0  0  0  0  0  0  0  0  0  0  0
   24.2975  -22.2657  -15.8647 C   0  0  0  0  0  0  0  0  0  0  0  0
   23.6513  -21.6512  -14.6415 C   0  0  2  0  0  0  0  0  0  0  0  0
   22.5953  -20.7263  -15.1164 N   0  0  0  0  0  0  0  0  0  0  0  0
   24.5865  -20.9396  -13.7535 C   0  0  0  0  0  0  0  0  0  0  0  0
   25.0751  -19.8451  -14.1449 O   0  0  0  0  0  0  0  0  0  0  0  0
   24.9430  -21.4447  -12.4858 N   0  0  0  0  0  0  0  0  0  0  0  0
   25.9410  -20.9730  -11.5901 C   0  0  1  0  0  0  0  0  0  0  0  0
   26.1142  -21.7855  -10.3599 C   0  0  0  0  0  0  0  0  0  0  0  0
   26.6660  -20.9962   -9.2323 C   0  0  0  0  0  0  0  0  0  0  0  0
   25.9808  -20.0547   -8.4639 C   0  0  0  0  0  0  0  0  0  0  0  0
   26.8667  -19.5917   -7.5730 N   0  0  0  0  0  0  0  0  0  0  0  0
   28.0530  -20.1700   -7.7243 C   0  0  0  0  0  0  0  0  0  0  0  0
   29.2914  -20.0645   -7.0894 C   0  0  0  0  0  0  0  0  0  0  0  0
   30.3786  -20.8199   -7.4833 C   0  0  0  0  0  0  0  0  0  0  0  0
   30.2727  -21.7097   -8.5257 C   0  0  0  0  0  0  0  0  0  0  0  0
   29.0451  -21.8115   -9.1521 C   0  0  0  0  0  0  0  0  0  0  0  0
   27.9606  -21.0537   -8.7544 C   0  0  0  0  0  0  0  0  0  0  0  0
   27.2175  -20.5261  -12.2235 C   0  0  0  0  0  0  0  0  0  0  0  0
   27.8815  -21.3320  -12.9654 O   0  0  0  0  0  0  0  0  0  0  0  0
   27.7895  -19.2812  -12.0867 O   0  0  0  0  0  0  0  0  0  0  0  0
  2  1  1  6
  3  2  1  0
  4  5  1  0
  4  2  1  0
  5  6  1  6
  7  5  1  0
  7  8  2  0
  9 10  1  0
 10 12  1  0
 11 10  2  0
 12 13  1  0
 14 13  1  6
 14 15  1  0
 15  7  1  0
 16 14  1  0
 17 16  2  0
 18 16  1  0
 19 20  1  1
 19 18  1  0
 20 21  1  0
 21 22  2  0
 21 29  1  0
 22 23  1  0
 23 24  1  0
 24 25  2  0
 25 26  1  0
 27 26  2  0
 28 27  1  0
 29 28  2  0
 29 24  1  0
 30 19  1  0
 31 30  2  0
 32 30  1  0
M  END
$$$$
