QRC.pdb
     RDKit          3D

 27 26  0  0  1  0  0  0  0  0999 V2000
   18.7560  -21.3849  -18.6022 N   0  0  0  0  0  0  0  0  0  0  0  0
   20.0931  -20.9567  -18.8079 C   0  0  0  0  0  0  0  0  0  0  0  0
   20.4355  -20.6644  -19.9813 O   0  0  0  0  0  0  0  0  0  0  0  0
   21.0038  -20.8780  -17.6401 C   0  0  0  0  0  0  0  0  0  0  0  0
   20.3247  -21.3923  -16.3896 C   0  0  0  0  0  0  0  0  0  0  0  0
   20.7191  -20.6060  -15.1705 C   0  0  2  0  0  0  0  0  0  0  0  0
   20.5765  -19.1911  -15.4177 N   0  0  0  0  0  0  0  0  0  0  0  0
   22.0881  -20.9509  -14.6935 C   0  0  0  0  0  0  0  0  0  0  0  0
   22.3517  -22.1457  -14.4016 O   0  0  0  0  0  0  0  0  0  0  0  0
   27.0553  -18.0729  -17.6406 N   0  0  0  0  0  0  0  0  0  0  0  0
   27.5939  -19.3878  -17.5837 C   0  0  0  0  0  0  0  0  0  0  0  0
   27.6747  -20.0745  -18.6491 N   0  0  0  0  0  0  0  0  0  0  0  0
   28.0386  -19.9375  -16.3350 N   0  0  0  0  0  0  0  0  0  0  0  0
   27.9720  -19.1933  -15.0865 C   0  0  0  0  0  0  0  0  0  0  0  0
   26.8855  -19.8264  -14.2453 C   0  0  0  0  0  0  0  0  0  0  0  0
   25.5097  -19.6344  -14.8371 C   0  0  0  0  0  0  0  0  0  0  0  0
   24.4401  -20.2425  -14.0112 C   0  0  2  0  0  0  0  0  0  0  0  0
   23.1171  -19.9985  -14.5490 N   0  0  0  0  0  0  0  0  0  0  0  0
   24.4220  -19.8445  -12.6043 C   0  0  0  0  0  0  0  0  0  0  0  0
   23.5840  -18.9891  -12.2342 O   0  0  0  0  0  0  0  0  0  0  0  0
   28.1385  -20.9995  -18.6531 N   0  0  0  0  0  0  0  0  0  0  0  0
   25.2891  -20.3538  -11.6068 C   0  0  2  0  0  0  0  0  0  0  0  0
   25.2141  -20.0084  -10.2239 C   0  0  0  0  0  0  0  0  0  0  0  0
   23.8567  -20.3607   -9.6220 S   0  0  0  0  0  0  0  0  0  0  0  0
   24.0404  -20.8502   -7.8951 C   0  0  0  0  0  0  0  0  0  0  0  0
   26.3081  -20.6715   -9.4711 O   0  0  0  0  0  0  0  0  0  0  0  0
   26.7693  -20.2040   -8.2518 O   0  0  0  0  0  0  0  0  0  0  0  0
  2  1  1  0
  3  2  2  0
  4  2  1  0
  5  4  1  0
  6  8  1  0
  6  5  1  0
  6  7  1  6
  8  9  2  0
 11 12  2  0
 11 10  1  0
 13 11  1  0
 14 13  1  0
 15 14  1  0
 16 15  1  0
 17 16  1  6
 18 17  1  0
 18  8  1  0
 19 17  1  0
 20 19  2  0
 21 19  1  0
 22 23  1  6
 22 21  1  0
 23 24  1  0
 25 26  1  0
 25 22  1  0
 27 25  2  0
M  END
$$$$
