QRC.pdb
     RDKit          3D

 27 26  0  0  1  0  0  0  0  0999 V2000
   19.5364  -24.1815   -8.4880 N   0  0  0  0  0  0  0  0  0  0  0  0
   18.1721  -24.2061   -8.8778 C   0  0  0  0  0  0  0  0  0  0  0  0
   17.4681  -25.1630   -8.4678 O   0  0  0  0  0  0  0  0  0  0  0  0
   17.6570  -23.1134   -9.7380 C   0  0  0  0  0  0  0  0  0  0  0  0
   18.7608  -22.1434  -10.0984 C   0  0  0  0  0  0  0  0  0  0  0  0
   19.0326  -22.1235  -11.5769 C   0  0  2  0  0  0  0  0  0  0  0  0
   19.5862  -23.3866  -12.0027 N   0  0  0  0  0  0  0  0  0  0  0  0
   19.8947  -20.9761  -11.9781 C   0  0  0  0  0  0  0  0  0  0  0  0
   19.5126  -19.8050  -11.7234 O   0  0  0  0  0  0  0  0  0  0  0  0
   27.7605  -21.3995  -11.3614 N   0  0  0  0  0  0  0  0  0  0  0  0
   27.1255  -21.3136  -12.6309 C   0  0  0  0  0  0  0  0  0  0  0  0
   27.8290  -21.0965  -13.6658 N   0  0  0  0  0  0  0  0  0  0  0  0
   25.7031  -21.4659  -12.7437 N   0  0  0  0  0  0  0  0  0  0  0  0
   24.9088  -22.1512  -11.7354 C   0  0  0  0  0  0  0  0  0  0  0  0
   23.5771  -21.4378  -11.6536 C   0  0  0  0  0  0  0  0  0  0  0  0
   23.4383  -20.3506  -12.6922 C   0  0  0  0  0  0  0  0  0  0  0  0
   22.0263  -20.0695  -13.0429 C   0  0  2  0  0  0  0  0  0  0  0  0
   21.1310  -21.1337  -12.6365 N   0  0  0  0  0  0  0  0  0  0  0  0
   21.7668  -19.7933  -14.4551 C   0  0  0  0  0  0  0  0  0  0  0  0
   21.3337  -20.7214  -15.1776 O   0  0  0  0  0  0  0  0  0  0  0  0
   27.4038  -21.0981  -14.6092 N   0  0  0  0  0  0  0  0  0  0  0  0
   21.9686  -18.5415  -15.0864 C   0  0  2  0  0  0  0  0  0  0  0  0
   21.7582  -18.2995  -16.4773 C   0  0  0  0  0  0  0  0  0  0  0  0
   21.7097  -16.8075  -16.7945 S   0  0  0  0  0  0  0  0  0  0  0  0
   21.4895  -16.5461  -18.5661 C   0  0  0  0  0  0  0  0  0  0  0  0
   22.8125  -18.9705  -17.2783 O   0  0  0  0  0  0  0  0  0  0  0  0
   22.5545  -19.5838  -18.4928 O   0  0  0  0  0  0  0  0  0  0  0  0
  2  1  1  0
  3  2  2  0
  4  2  1  0
  5  4  1  0
  6  8  1  0
  6  5  1  0
  6  7  1  1
  8  9  2  0
 11 12  2  0
 11 10  1  0
 13 11  1  0
 14 13  1  0
 15 14  1  0
 16 15  1  0
 17 16  1  6
 18 17  1  0
 18  8  1  0
 19 17  1  0
 20 19  2  0
 21 19  1  0
 22 23  1  1
 22 21  1  0
 23 24  1  0
 25 26  1  0
 25 22  1  0
 27 25  2  0
M  END
$$$$
