QRC.pdb
     RDKit          3D

 27 26  0  0  1  0  0  0  0  0999 V2000
   23.2323  -22.6631  -18.4071 N   0  0  0  0  0  0  0  0  0  0  0  0
   23.1713  -21.3771  -19.0039 C   0  0  0  0  0  0  0  0  0  0  0  0
   22.5886  -21.2785  -20.1131 O   0  0  0  0  0  0  0  0  0  0  0  0
   23.7915  -20.2320  -18.2944 C   0  0  0  0  0  0  0  0  0  0  0  0
   24.3886  -20.6727  -16.9758 C   0  0  0  0  0  0  0  0  0  0  0  0
   23.9641  -19.7839  -15.8401 C   0  0  2  0  0  0  0  0  0  0  0  0
   24.9657  -18.7750  -15.5906 N   0  0  0  0  0  0  0  0  0  0  0  0
   23.6363  -20.5569  -14.6090 C   0  0  0  0  0  0  0  0  0  0  0  0
   22.7899  -21.4850  -14.6763 O   0  0  0  0  0  0  0  0  0  0  0  0
   29.5826  -22.1936  -12.7035 N   0  0  0  0  0  0  0  0  0  0  0  0
   28.7546  -21.3691  -13.5139 C   0  0  0  0  0  0  0  0  0  0  0  0
   28.7548  -21.5327  -14.7735 N   0  0  0  0  0  0  0  0  0  0  0  0
   27.9292  -20.3582  -12.9174 N   0  0  0  0  0  0  0  0  0  0  0  0
   27.4428  -20.4544  -11.5494 C   0  0  0  0  0  0  0  0  0  0  0  0
   26.2985  -21.4442  -11.5497 C   0  0  0  0  0  0  0  0  0  0  0  0
   24.9965  -20.8237  -11.1029 C   0  0  0  0  0  0  0  0  0  0  0  0
   23.9178  -20.9674  -12.1087 C   0  0  2  0  0  0  0  0  0  0  0  0
   24.2303  -20.3010  -13.3567 N   0  0  0  0  0  0  0  0  0  0  0  0
   22.5938  -20.5117  -11.6876 C   0  0  0  0  0  0  0  0  0  0  0  0
   22.4381  -19.3002  -11.4069 O   0  0  0  0  0  0  0  0  0  0  0  0
   28.1716  -20.9387  -15.3881 N   0  0  0  0  0  0  0  0  0  0  0  0
   21.4517  -21.3409  -11.5675 C   0  0  1  0  0  0  0  0  0  0  0  0
   20.1410  -20.8646  -11.2636 C   0  0  0  0  0  0  0  0  0  0  0  0
   19.7002  -19.7610  -12.2211 S   0  0  0  0  0  0  0  0  0  0  0  0
   18.0943  -19.1026  -11.7283 C   0  0  0  0  0  0  0  0  0  0  0  0
   19.1718  -21.9888  -11.2794 O   0  0  0  0  0  0  0  0  0  0  0  0
   18.1386  -22.1005  -10.3642 O   0  0  0  0  0  0  0  0  0  0  0  0
  2  1  1  0
  3  2  2  0
  4  2  1  0
  5  4  1  0
  6  8  1  0
  6  5  1  0
  6  7  1  1
  8  9  2  0
 11 12  2  0
 11 10  1  0
 13 11  1  0
 14 13  1  0
 15 14  1  0
 16 15  1  0
 17 16  1  1
 18 17  1  0
 18  8  1  0
 19 17  1  0
 20 19  2  0
 21 19  1  0
 22 23  1  1
 22 21  1  0
 23 24  1  0
 25 26  1  0
 25 22  1  0
 27 25  2  0
M  END
$$$$
