QRC.pdb
     RDKit          3D

 27 26  0  0  1  0  0  0  0  0999 V2000
   28.1628  -27.2332  -16.6816 N   0  0  0  0  0  0  0  0  0  0  0  0
   26.8428  -26.7983  -16.9684 C   0  0  0  0  0  0  0  0  0  0  0  0
   26.0435  -27.6432  -17.4444 O   0  0  0  0  0  0  0  0  0  0  0  0
   26.4823  -25.3863  -16.6937 C   0  0  0  0  0  0  0  0  0  0  0  0
   27.6178  -24.6632  -16.0031 C   0  0  0  0  0  0  0  0  0  0  0  0
   27.9987  -23.3979  -16.7201 C   0  0  2  0  0  0  0  0  0  0  0  0
   29.3418  -23.4997  -17.2390 N   0  0  0  0  0  0  0  0  0  0  0  0
   27.8237  -22.1893  -15.8662 C   0  0  0  0  0  0  0  0  0  0  0  0
   28.8256  -21.7022  -15.2820 O   0  0  0  0  0  0  0  0  0  0  0  0
   25.9662  -15.9331  -17.7089 N   0  0  0  0  0  0  0  0  0  0  0  0
   25.5785  -15.1983  -16.5548 C   0  0  0  0  0  0  0  0  0  0  0  0
   24.7871  -14.2128  -16.6806 N   0  0  0  0  0  0  0  0  0  0  0  0
   26.0786  -15.5618  -15.2599 N   0  0  0  0  0  0  0  0  0  0  0  0
   26.7698  -16.8185  -15.0144 C   0  0  0  0  0  0  0  0  0  0  0  0
   25.7363  -17.9206  -15.0937 C   0  0  0  0  0  0  0  0  0  0  0  0
   26.2488  -19.1437  -15.8158 C   0  0  0  0  0  0  0  0  0  0  0  0
   26.3491  -20.3303  -14.9339 C   0  0  2  0  0  0  0  0  0  0  0  0
   26.5802  -21.5541  -15.6744 N   0  0  0  0  0  0  0  0  0  0  0  0
   25.2075  -20.5614  -14.0499 C   0  0  0  0  0  0  0  0  0  0  0  0
   24.1561  -19.9079  -14.2454 O   0  0  0  0  0  0  0  0  0  0  0  0
   24.4711  -13.6744  -15.8554 N   0  0  0  0  0  0  0  0  0  0  0  0
   25.1911  -21.4785  -12.9706 C   0  0  2  0  0  0  0  0  0  0  0  0
   24.6691  -21.1856  -11.6748 C   0  0  0  0  0  0  0  0  0  0  0  0
   25.6101  -20.2931  -10.8705 S   0  0  0  0  0  0  0  0  0  0  0  0
   25.5110  -20.6930   -9.1139 C   0  0  0  0  0  0  0  0  0  0  0  0
   23.3283  -20.5597  -11.7931 O   0  0  0  0  0  0  0  0  0  0  0  0
   22.2585  -20.9228  -10.9922 O   0  0  0  0  0  0  0  0  0  0  0  0
  2  1  1  0
  3  2  2  0
  4  2  1  0
  5  4  1  0
  6  8  1  0
  6  5  1  0
  6  7  1  1
  8  9  2  0
 11 12  2  0
 11 10  1  0
 13 11  1  0
 14 13  1  0
 15 14  1  0
 16 15  1  0
 17 16  1  6
 18 17  1  0
 18  8  1  0
 19 17  1  0
 20 19  2  0
 21 19  1  0
 22 23  1  6
 22 21  1  0
 23 24  1  0
 25 26  1  0
 25 22  1  0
 27 25  2  0
M  END
$$$$
