QRC.pdb
     RDKit          3D

 27 26  0  0  1  0  0  0  0  0999 V2000
   14.0368  -13.1928  -14.3617 N   0  0  0  0  0  0  0  0  0  0  0  0
   13.6943  -12.9568  -13.0050 C   0  0  0  0  0  0  0  0  0  0  0  0
   12.8982  -13.7613  -12.4586 O   0  0  0  0  0  0  0  0  0  0  0  0
   14.2878  -11.7870  -12.3133 C   0  0  0  0  0  0  0  0  0  0  0  0
   15.0493  -10.9133  -13.2859 C   0  0  0  0  0  0  0  0  0  0  0  0
   16.3266  -10.3890  -12.6910 C   0  0  2  0  0  0  0  0  0  0  0  0
   16.7469  -11.2223  -11.5900 N   0  0  0  0  0  0  0  0  0  0  0  0
   16.2193   -8.9568  -12.2937 C   0  0  0  0  0  0  0  0  0  0  0  0
   15.8234   -8.1147  -13.1401 O   0  0  0  0  0  0  0  0  0  0  0  0
   13.1504   -4.5864   -5.4157 N   0  0  0  0  0  0  0  0  0  0  0  0
   12.7703   -5.1038   -6.6846 C   0  0  0  0  0  0  0  0  0  0  0  0
   11.5557   -5.4104   -6.8938 N   0  0  0  0  0  0  0  0  0  0  0  0
   13.7486   -5.2831   -7.7189 N   0  0  0  0  0  0  0  0  0  0  0  0
   15.1765   -5.3307   -7.4433 C   0  0  0  0  0  0  0  0  0  0  0  0
   15.8829   -5.5051   -8.7698 C   0  0  0  0  0  0  0  0  0  0  0  0
   15.8638   -6.9358   -9.2520 C   0  0  0  0  0  0  0  0  0  0  0  0
   16.5261   -7.1069  -10.5665 C   0  0  2  0  0  0  0  0  0  0  0  0
   16.5422   -8.4879  -11.0043 N   0  0  0  0  0  0  0  0  0  0  0  0
   17.8954   -6.6020  -10.6568 C   0  0  0  0  0  0  0  0  0  0  0  0
   18.7626   -7.0808   -9.8890 O   0  0  0  0  0  0  0  0  0  0  0  0
   11.2408   -5.7358   -7.8243 N   0  0  0  0  0  0  0  0  0  0  0  0
   18.3312   -5.5978  -11.5557 C   0  0  1  0  0  0  0  0  0  0  0  0
   19.6999   -5.3290  -11.8585 C   0  0  0  0  0  0  0  0  0  0  0  0
   20.4543   -6.5949  -12.2553 S   0  0  0  0  0  0  0  0  0  0  0  0
   22.1398   -6.1932  -12.7584 C   0  0  0  0  0  0  0  0  0  0  0  0
   19.7954   -4.3058  -12.9295 O   0  0  0  0  0  0  0  0  0  0  0  0
   20.7494   -3.3019  -12.9239 O   0  0  0  0  0  0  0  0  0  0  0  0
  2  1  1  0
  3  2  2  0
  4  2  1  0
  5  4  1  0
  6  8  1  0
  6  5  1  0
  6  7  1  1
  8  9  2  0
 11 12  2  0
 11 10  1  0
 13 11  1  0
 14 13  1  0
 15 14  1  0
 16 15  1  0
 17 16  1  1
 18 17  1  0
 18  8  1  0
 19 17  1  0
 20 19  2  0
 21 19  1  0
 22 23  1  1
 22 21  1  0
 23 24  1  0
 25 26  1  0
 25 22  1  0
 27 25  2  0
M  END
$$$$
