QRC.pdb
     RDKit          3D

 27 26  0  0  1  0  0  0  0  0999 V2000
   27.6358  -18.6935  -15.0488 N   0  0  0  0  0  0  0  0  0  0  0  0
   27.4146  -19.4057  -16.2560 C   0  0  0  0  0  0  0  0  0  0  0  0
   27.8529  -18.8977  -17.3187 O   0  0  0  0  0  0  0  0  0  0  0  0
   26.6866  -20.6964  -16.1989 C   0  0  0  0  0  0  0  0  0  0  0  0
   26.4273  -21.1076  -14.7661 C   0  0  0  0  0  0  0  0  0  0  0  0
   25.5904  -22.3535  -14.6802 C   0  0  2  0  0  0  0  0  0  0  0  0
   26.0866  -23.3556  -15.5929 N   0  0  0  0  0  0  0  0  0  0  0  0
   24.1416  -22.0774  -14.8932 C   0  0  0  0  0  0  0  0  0  0  0  0
   23.6078  -22.4138  -15.9814 O   0  0  0  0  0  0  0  0  0  0  0  0
   16.7110  -22.1888  -11.6962 N   0  0  0  0  0  0  0  0  0  0  0  0
   17.8550  -22.6355  -10.9792 C   0  0  0  0  0  0  0  0  0  0  0  0
   17.8265  -23.7672  -10.4033 N   0  0  0  0  0  0  0  0  0  0  0  0
   19.0301  -21.8156  -10.9020 N   0  0  0  0  0  0  0  0  0  0  0  0
   19.1064  -20.5004  -11.5198 C   0  0  0  0  0  0  0  0  0  0  0  0
   19.7777  -20.6757  -12.8643 C   0  0  0  0  0  0  0  0  0  0  0  0
   21.2485  -20.9937  -12.7398 C   0  0  0  0  0  0  0  0  0  0  0  0
   21.9085  -21.1785  -14.0536 C   0  0  2  0  0  0  0  0  0  0  0  0
   23.3260  -21.4511  -13.9291 N   0  0  0  0  0  0  0  0  0  0  0  0
   21.7555  -20.0750  -15.0007 C   0  0  0  0  0  0  0  0  0  0  0  0
   22.5458  -19.1053  -14.9238 O   0  0  0  0  0  0  0  0  0  0  0  0
   18.6387  -24.1100   -9.8614 N   0  0  0  0  0  0  0  0  0  0  0  0
   20.7698  -20.0091  -16.0158 C   0  0  2  0  0  0  0  0  0  0  0  0
   20.6788  -18.9615  -16.9809 C   0  0  0  0  0  0  0  0  0  0  0  0
   21.5401  -19.2426  -18.2090 S   0  0  0  0  0  0  0  0  0  0  0  0
   21.7192  -17.7512  -19.2085 C   0  0  0  0  0  0  0  0  0  0  0  0
   19.2630  -18.7485  -17.3726 O   0  0  0  0  0  0  0  0  0  0  0  0
   18.8569  -17.6919  -18.1704 O   0  0  0  0  0  0  0  0  0  0  0  0
  2  1  1  0
  3  2  2  0
  4  2  1  0
  5  4  1  0
  6  8  1  0
  6  5  1  0
  6  7  1  6
  8  9  2  0
 11 12  2  0
 11 10  1  0
 13 11  1  0
 14 13  1  0
 15 14  1  0
 16 15  1  0
 17 16  1  1
 18 17  1  0
 18  8  1  0
 19 17  1  0
 20 19  2  0
 21 19  1  0
 22 23  1  6
 22 21  1  0
 23 24  1  0
 25 26  1  0
 25 22  1  0
 27 25  2  0
M  END
$$$$
