QRC.pdb
     RDKit          3D

 27 26  0  0  1  0  0  0  0  0999 V2000
   24.9488  -27.5836  -18.4819 N   0  0  0  0  0  0  0  0  0  0  0  0
   26.3631  -27.4742  -18.4434 C   0  0  0  0  0  0  0  0  0  0  0  0
   27.0092  -27.9537  -19.4088 O   0  0  0  0  0  0  0  0  0  0  0  0
   26.9949  -26.8072  -17.2793 C   0  0  0  0  0  0  0  0  0  0  0  0
   25.9498  -26.3541  -16.2834 C   0  0  0  0  0  0  0  0  0  0  0  0
   25.4278  -24.9803  -16.6004 C   0  0  2  0  0  0  0  0  0  0  0  0
   26.5153  -24.0338  -16.6707 N   0  0  0  0  0  0  0  0  0  0  0  0
   24.3715  -24.5422  -15.6449 C   0  0  0  0  0  0  0  0  0  0  0  0
   23.3615  -25.2718  -15.4722 O   0  0  0  0  0  0  0  0  0  0  0  0
   25.3555  -20.9441   -8.8963 N   0  0  0  0  0  0  0  0  0  0  0  0
   25.8628  -20.7962  -10.2166 C   0  0  0  0  0  0  0  0  0  0  0  0
   27.0781  -21.0799  -10.4524 N   0  0  0  0  0  0  0  0  0  0  0  0
   25.0129  -20.3268  -11.2732 N   0  0  0  0  0  0  0  0  0  0  0  0
   23.5656  -20.2589  -11.1393 C   0  0  0  0  0  0  0  0  0  0  0  0
   22.9779  -21.2422  -12.1276 C   0  0  0  0  0  0  0  0  0  0  0  0
   24.0232  -21.8451  -13.0352 C   0  0  0  0  0  0  0  0  0  0  0  0
   23.4626  -22.8538  -13.9648 C   0  0  2  0  0  0  0  0  0  0  0  0
   24.4433  -23.3387  -14.9147 N   0  0  0  0  0  0  0  0  0  0  0  0
   22.2871  -22.4313  -14.7248 C   0  0  0  0  0  0  0  0  0  0  0  0
   22.4127  -21.5005  -15.5546 O   0  0  0  0  0  0  0  0  0  0  0  0
   27.4872  -20.9330  -11.3914 N   0  0  0  0  0  0  0  0  0  0  0  0
   20.9943  -22.9963  -14.5984 C   0  0  2  0  0  0  0  0  0  0  0  0
   19.8547  -22.5707  -15.3450 C   0  0  0  0  0  0  0  0  0  0  0  0
   18.7297  -23.6011  -15.3032 S   0  0  0  0  0  0  0  0  0  0  0  0
   17.9596  -23.6282  -13.6718 C   0  0  0  0  0  0  0  0  0  0  0  0
   19.3787  -21.2560  -14.8467 O   0  0  0  0  0  0  0  0  0  0  0  0
   18.5655  -20.4209  -15.5945 O   0  0  0  0  0  0  0  0  0  0  0  0
  2  1  1  0
  3  2  2  0
  4  2  1  0
  5  4  1  0
  6  8  1  0
  6  5  1  0
  6  7  1  1
  8  9  2  0
 11 12  2  0
 11 10  1  0
 13 11  1  0
 14 13  1  0
 15 14  1  0
 16 15  1  0
 17 16  1  6
 18 17  1  0
 18  8  1  0
 19 17  1  0
 20 19  2  0
 21 19  1  0
 22 23  1  1
 22 21  1  0
 23 24  1  0
 25 26  1  0
 25 22  1  0
 27 25  2  0
M  END
$$$$
