QRC.pdb
     RDKit          3D

 27 26  0  0  1  0  0  0  0  0999 V2000
   26.3794  -14.7633  -15.7781 N   0  0  0  0  0  0  0  0  0  0  0  0
   26.4177  -16.1450  -15.4572 C   0  0  0  0  0  0  0  0  0  0  0  0
   27.5358  -16.6452  -15.1761 O   0  0  0  0  0  0  0  0  0  0  0  0
   25.1504  -16.9151  -15.4707 C   0  0  0  0  0  0  0  0  0  0  0  0
   23.9962  -16.0484  -15.9244 C   0  0  0  0  0  0  0  0  0  0  0  0
   22.6932  -16.7983  -15.9207 C   0  0  2  0  0  0  0  0  0  0  0  0
   22.8345  -18.0538  -16.6187 N   0  0  0  0  0  0  0  0  0  0  0  0
   21.5704  -15.9838  -16.4651 C   0  0  0  0  0  0  0  0  0  0  0  0
   21.1369  -16.2330  -17.6193 O   0  0  0  0  0  0  0  0  0  0  0  0
   13.3067  -14.3822  -14.4678 N   0  0  0  0  0  0  0  0  0  0  0  0
   13.6833  -13.3856  -15.4097 C   0  0  0  0  0  0  0  0  0  0  0  0
   12.7859  -12.6636  -15.9450 N   0  0  0  0  0  0  0  0  0  0  0  0
   15.0629  -13.1982  -15.7570 N   0  0  0  0  0  0  0  0  0  0  0  0
   16.1285  -14.0091  -15.1874 C   0  0  0  0  0  0  0  0  0  0  0  0
   17.4035  -13.6506  -15.9187 C   0  0  0  0  0  0  0  0  0  0  0  0
   18.5826  -14.4780  -15.4660 C   0  0  0  0  0  0  0  0  0  0  0  0
   19.8315  -14.1401  -16.1883 C   0  0  2  0  0  0  0  0  0  0  0  0
   20.9598  -14.9352  -15.7479 N   0  0  0  0  0  0  0  0  0  0  0  0
   20.2358  -12.7360  -16.1326 C   0  0  0  0  0  0  0  0  0  0  0  0
   20.7940  -12.3138  -15.0928 O   0  0  0  0  0  0  0  0  0  0  0  0
   13.0206  -11.9905  -16.6951 N   0  0  0  0  0  0  0  0  0  0  0  0
   20.0450  -11.7958  -17.1746 C   0  0  2  0  0  0  0  0  0  0  0  0
   20.4960  -10.4423  -17.1286 C   0  0  0  0  0  0  0  0  0  0  0  0
   20.5683   -9.8189  -18.5197 S   0  0  0  0  0  0  0  0  0  0  0  0
   21.9349  -10.5296  -19.4592 C   0  0  0  0  0  0  0  0  0  0  0  0
   19.6173   -9.6403  -16.2410 O   0  0  0  0  0  0  0  0  0  0  0  0
   20.0853   -8.5808  -15.4819 O   0  0  0  0  0  0  0  0  0  0  0  0
  2  1  1  0
  3  2  2  0
  4  2  1  0
  5  4  1  0
  6  8  1  0
  6  5  1  0
  6  7  1  6
  8  9  2  0
 11 12  2  0
 11 10  1  0
 13 11  1  0
 14 13  1  0
 15 14  1  0
 16 15  1  0
 17 16  1  1
 18 17  1  0
 18  8  1  0
 19 17  1  0
 20 19  2  0
 21 19  1  0
 22 23  1  6
 22 21  1  0
 23 24  1  0
 25 26  1  0
 25 22  1  0
 27 25  2  0
M  END
$$$$
