QRC.pdb
     RDKit          3D

 27 26  0  0  1  0  0  0  0  0999 V2000
   19.0500  -34.8805   -1.1980 N   0  0  0  0  0  0  0  0  0  0  0  0
   17.9620  -34.1121   -1.6874 C   0  0  0  0  0  0  0  0  0  0  0  0
   16.9294  -34.0471   -0.9740 O   0  0  0  0  0  0  0  0  0  0  0  0
   18.1010  -33.4348   -2.9994 C   0  0  0  0  0  0  0  0  0  0  0  0
   19.4439  -33.7406   -3.6258 C   0  0  0  0  0  0  0  0  0  0  0  0
   19.6500  -32.9891   -4.9114 C   0  0  2  0  0  0  0  0  0  0  0  0
   20.8992  -33.3743   -5.5234 N   0  0  0  0  0  0  0  0  0  0  0  0
   19.5546  -31.5137   -4.7257 C   0  0  0  0  0  0  0  0  0  0  0  0
   20.5498  -30.8873   -4.2788 O   0  0  0  0  0  0  0  0  0  0  0  0
   17.1276  -24.0382   -8.9151 N   0  0  0  0  0  0  0  0  0  0  0  0
   16.3843  -24.2274   -7.7176 C   0  0  0  0  0  0  0  0  0  0  0  0
   15.3330  -23.5420   -7.5222 N   0  0  0  0  0  0  0  0  0  0  0  0
   16.8181  -25.1796   -6.7357 N   0  0  0  0  0  0  0  0  0  0  0  0
   16.9608  -26.5969   -7.0323 C   0  0  0  0  0  0  0  0  0  0  0  0
   16.9773  -27.3316   -5.7098 C   0  0  0  0  0  0  0  0  0  0  0  0
   17.2170  -28.8133   -5.8738 C   0  0  0  0  0  0  0  0  0  0  0  0
   18.2560  -29.3316   -4.9531 C   0  0  2  0  0  0  0  0  0  0  0  0
   18.3945  -30.7719   -5.0268 N   0  0  0  0  0  0  0  0  0  0  0  0
   18.0877  -28.9785   -3.5442 C   0  0  0  0  0  0  0  0  0  0  0  0
   17.3533  -29.6999   -2.8292 O   0  0  0  0  0  0  0  0  0  0  0  0
   14.7964  -23.6283   -6.6416 N   0  0  0  0  0  0  0  0  0  0  0  0
   18.6959  -27.8683   -2.9087 C   0  0  2  0  0  0  0  0  0  0  0  0
   18.5389  -27.5479   -1.5267 C   0  0  0  0  0  0  0  0  0  0  0  0
   19.7967  -26.9098   -0.9439 S   0  0  0  0  0  0  0  0  0  0  0  0
   20.6400  -28.0667    0.1543 C   0  0  0  0  0  0  0  0  0  0  0  0
   17.3657  -26.6585   -1.3380 O   0  0  0  0  0  0  0  0  0  0  0  0
   16.6972  -26.5457   -0.1304 O   0  0  0  0  0  0  0  0  0  0  0  0
  2  1  1  0
  3  2  2  0
  4  2  1  0
  5  4  1  0
  6  8  1  0
  6  5  1  0
  6  7  1  1
  8  9  2  0
 11 12  2  0
 11 10  1  0
 13 11  1  0
 14 13  1  0
 15 14  1  0
 16 15  1  0
 17 16  1  6
 18 17  1  0
 18  8  1  0
 19 17  1  0
 20 19  2  0
 21 19  1  0
 22 23  1  6
 22 21  1  0
 23 24  1  0
 25 26  1  0
 25 22  1  0
 27 25  2  0
M  END
$$$$
