QRC.pdb
     RDKit          3D

 27 26  0  0  1  0  0  0  0  0999 V2000
   18.6684  -17.9861  -14.1963 N   0  0  0  0  0  0  0  0  0  0  0  0
   19.8357  -18.2566  -14.9564 C   0  0  0  0  0  0  0  0  0  0  0  0
   20.1636  -19.4602  -15.1088 O   0  0  0  0  0  0  0  0  0  0  0  0
   20.5968  -17.1171  -15.5235 C   0  0  0  0  0  0  0  0  0  0  0  0
   19.9941  -15.7975  -15.0938 C   0  0  0  0  0  0  0  0  0  0  0  0
   20.1171  -14.7474  -16.1627 C   0  0  2  0  0  0  0  0  0  0  0  0
   20.6410  -15.3259  -17.3769 N   0  0  0  0  0  0  0  0  0  0  0  0
   20.9208  -13.5754  -15.7144 C   0  0  0  0  0  0  0  0  0  0  0  0
   20.6286  -13.0122  -14.6283 O   0  0  0  0  0  0  0  0  0  0  0  0
   28.3684  -14.2570  -17.3695 N   0  0  0  0  0  0  0  0  0  0  0  0
   27.8729  -14.9822  -16.2510 C   0  0  0  0  0  0  0  0  0  0  0  0
   28.3231  -16.1459  -16.0141 N   0  0  0  0  0  0  0  0  0  0  0  0
   26.8707  -14.4086  -15.3992 N   0  0  0  0  0  0  0  0  0  0  0  0
   26.2829  -13.1023  -15.6551 C   0  0  0  0  0  0  0  0  0  0  0  0
   24.9128  -13.3372  -16.2522 C   0  0  0  0  0  0  0  0  0  0  0  0
   24.2175  -12.0509  -16.6292 C   0  0  0  0  0  0  0  0  0  0  0  0
   22.8529  -11.9486  -16.0608 C   0  0  2  0  0  0  0  0  0  0  0  0
   22.0046  -13.0564  -16.4511 N   0  0  0  0  0  0  0  0  0  0  0  0
   22.1304  -10.7143  -16.3649 C   0  0  0  0  0  0  0  0  0  0  0  0
   21.9430  -10.4101  -17.5662 O   0  0  0  0  0  0  0  0  0  0  0  0
   27.8895  -16.7486  -15.2933 N   0  0  0  0  0  0  0  0  0  0  0  0
   21.6161   -9.8169  -15.3972 C   0  0  1  0  0  0  0  0  0  0  0  0
   20.9259   -8.6072  -15.7094 C   0  0  0  0  0  0  0  0  0  0  0  0
   19.4114   -8.7931  -15.6835 S   0  0  0  0  0  0  0  0  0  0  0  0
   18.5790   -7.1924  -15.7009 C   0  0  0  0  0  0  0  0  0  0  0  0
   21.3365   -7.5286  -14.7759 O   0  0  0  0  0  0  0  0  0  0  0  0
   21.1979   -6.1840  -15.0769 O   0  0  0  0  0  0  0  0  0  0  0  0
  2  1  1  0
  3  2  2  0
  4  2  1  0
  5  4  1  0
  6  8  1  0
  6  5  1  0
  6  7  1  6
  8  9  2  0
 11 12  2  0
 11 10  1  0
 13 11  1  0
 14 13  1  0
 15 14  1  0
 16 15  1  0
 17 16  1  6
 18 17  1  0
 18  8  1  0
 19 17  1  0
 20 19  2  0
 21 19  1  0
 22 23  1  6
 22 21  1  0
 23 24  1  0
 25 26  1  0
 25 22  1  0
 27 25  2  0
M  END
$$$$
