QRC.pdb
     RDKit          3D

 27 26  0  0  1  0  0  0  0  0999 V2000
   25.9628  -12.2961  -21.1275 N   0  0  0  0  0  0  0  0  0  0  0  0
   25.4635  -13.3314  -20.2955 C   0  0  0  0  0  0  0  0  0  0  0  0
   25.4207  -14.4923  -20.7751 O   0  0  0  0  0  0  0  0  0  0  0  0
   25.0243  -12.9914  -18.9205 C   0  0  0  0  0  0  0  0  0  0  0  0
   25.2399  -11.5218  -18.6323 C   0  0  0  0  0  0  0  0  0  0  0  0
   24.8324  -11.1566  -17.2320 C   0  0  2  0  0  0  0  0  0  0  0  0
   24.6167  -12.3473  -16.4452 N   0  0  0  0  0  0  0  0  0  0  0  0
   23.6489  -10.2516  -17.2052 C   0  0  0  0  0  0  0  0  0  0  0  0
   23.7310   -9.1201  -17.7486 O   0  0  0  0  0  0  0  0  0  0  0  0
   15.7646  -10.0313  -13.9690 N   0  0  0  0  0  0  0  0  0  0  0  0
   15.4659   -9.5519  -15.2741 C   0  0  0  0  0  0  0  0  0  0  0  0
   14.4266   -8.8446  -15.4550 N   0  0  0  0  0  0  0  0  0  0  0  0
   16.3264   -9.8664  -16.3785 N   0  0  0  0  0  0  0  0  0  0  0  0
   17.4900  -10.7290  -16.2406 C   0  0  0  0  0  0  0  0  0  0  0  0
   18.7136   -9.8714  -16.4778 C   0  0  0  0  0  0  0  0  0  0  0  0
   19.9944  -10.6707  -16.4521 C   0  0  0  0  0  0  0  0  0  0  0  0
   21.1997   -9.8288  -16.6376 C   0  0  2  0  0  0  0  0  0  0  0  0
   22.4263  -10.5988  -16.5957 N   0  0  0  0  0  0  0  0  0  0  0  0
   21.3470   -8.7173  -15.6990 C   0  0  0  0  0  0  0  0  0  0  0  0
   21.8008   -8.9550  -14.5551 O   0  0  0  0  0  0  0  0  0  0  0  0
   14.2006   -8.4583  -16.3880 N   0  0  0  0  0  0  0  0  0  0  0  0
   21.0128   -7.3698  -15.9798 C   0  0  1  0  0  0  0  0  0  0  0  0
   21.2752   -6.2766  -15.1005 C   0  0  0  0  0  0  0  0  0  0  0  0
   22.7518   -6.1902  -14.7247 S   0  0  0  0  0  0  0  0  0  0  0  0
   23.0735   -4.6921  -13.7720 C   0  0  0  0  0  0  0  0  0  0  0  0
   20.8163   -5.0053  -15.7140 O   0  0  0  0  0  0  0  0  0  0  0  0
   20.3067   -3.9548  -14.9692 O   0  0  0  0  0  0  0  0  0  0  0  0
  2  1  1  0
  3  2  2  0
  4  2  1  0
  5  4  1  0
  6  8  1  0
  6  5  1  0
  6  7  1  1
  8  9  2  0
 11 12  2  0
 11 10  1  0
 13 11  1  0
 14 13  1  0
 15 14  1  0
 16 15  1  0
 17 16  1  1
 18 17  1  0
 18  8  1  0
 19 17  1  0
 20 19  2  0
 21 19  1  0
 22 23  1  6
 22 21  1  0
 23 24  1  0
 25 26  1  0
 25 22  1  0
 27 25  2  0
M  END
$$$$
