DMG.pdb
     RDKit          3D

 21 20  0  0  1  0  0  0  0  0999 V2000
    7.6018  -16.8454   21.3501 N   0  0  0  0  0  0  0  0  0  0  0  0
    8.6952  -15.9034   21.4334 C   0  0  1  0  0  0  0  0  0  0  0  0
    8.4596  -14.7746   20.4437 C   0  0  0  0  0  0  0  0  0  0  0  0
    8.6052  -15.2568   19.0590 C   0  0  0  0  0  0  0  0  0  0  0  0
    9.2194  -16.3325   18.8428 O   0  0  0  0  0  0  0  0  0  0  0  0
    8.7584  -15.3495   22.8041 C   0  0  0  0  0  0  0  0  0  0  0  0
    9.6925  -14.5514   23.0756 O   0  0  0  0  0  0  0  0  0  0  0  0
    8.0722  -14.5320   18.0249 O   0  0  0  0  0  0  0  0  0  0  0  0
    7.0355  -10.8394   26.8786 C   0  0  0  0  0  0  0  0  0  0  0  0
    7.4238  -12.5973   26.8591 S   0  0  0  0  0  0  0  0  0  0  0  0
    6.3392  -13.4659   25.6460 C   0  0  0  0  0  0  0  0  0  0  0  0
    6.6819  -14.9110   25.7608 C   0  0  0  0  0  0  0  0  0  0  0  0
    8.0209  -15.3107   25.2158 C   0  0  2  0  0  0  0  0  0  0  0  0
    7.8039  -15.6953   23.7959 N   0  0  0  0  0  0  0  0  0  0  0  0
    8.6897  -16.4050   25.9258 C   0  0  0  0  0  0  0  0  0  0  0  0
    8.9035  -16.2447   27.1852 O   0  0  0  0  0  0  0  0  0  0  0  0
    9.1271  -17.6228   25.3848 N   0  0  0  0  0  0  0  0  0  0  0  0
    9.6518  -18.6726   26.2133 C   0  0  0  0  0  0  0  0  0  0  0  0
   11.0921  -18.4606   26.5280 C   0  0  0  0  0  0  0  0  0  0  0  0
   11.6487  -17.3510   26.3175 O   0  0  0  0  0  0  0  0  0  0  0  0
   11.8269  -19.5061   27.0605 O   0  0  0  0  0  0  0  0  0  0  0  0
  2  1  1  1
  3  2  1  0
  4  3  1  0
  4  5  2  0
  6  2  1  0
  7  6  2  0
  8  4  1  0
  9 10  1  0
 11 12  1  0
 11 10  1  0
 13 12  1  1
 13 15  1  0
 13 14  1  0
 14  6  1  0
 15 17  1  0
 16 15  2  0
 17 18  1  0
 19 21  1  0
 19 18  1  0
 20 19  2  0
M  END
$$$$
