DMG.pdb
     RDKit          3D

 21 20  0  0  1  0  0  0  0  0999 V2000
    7.5426  -17.5307   21.7847 N   0  0  0  0  0  0  0  0  0  0  0  0
    8.9518  -17.2203   21.6965 C   0  0  1  0  0  0  0  0  0  0  0  0
    9.2811  -16.7887   20.2772 C   0  0  0  0  0  0  0  0  0  0  0  0
    8.9548  -17.8588   19.3182 C   0  0  0  0  0  0  0  0  0  0  0  0
    8.9224  -19.0518   19.7141 O   0  0  0  0  0  0  0  0  0  0  0  0
    9.2678  -16.1174   22.6310 C   0  0  0  0  0  0  0  0  0  0  0  0
   10.4237  -15.6221   22.5901 O   0  0  0  0  0  0  0  0  0  0  0  0
    8.6907  -17.5450   18.0102 O   0  0  0  0  0  0  0  0  0  0  0  0
    5.8442  -10.6555   27.1870 C   0  0  0  0  0  0  0  0  0  0  0  0
    5.8236  -12.1649   26.2058 S   0  0  0  0  0  0  0  0  0  0  0  0
    7.5352  -12.5801   25.6575 C   0  0  0  0  0  0  0  0  0  0  0  0
    7.3988  -13.7765   24.7806 C   0  0  0  0  0  0  0  0  0  0  0  0
    8.6673  -14.5224   24.4903 C   0  0  2  0  0  0  0  0  0  0  0  0
    8.3099  -15.6193   23.5522 N   0  0  0  0  0  0  0  0  0  0  0  0
    9.3536  -15.0786   25.6601 C   0  0  0  0  0  0  0  0  0  0  0  0
    9.7704  -14.2453   26.5485 O   0  0  0  0  0  0  0  0  0  0  0  0
    9.6099  -16.4314   25.9274 N   0  0  0  0  0  0  0  0  0  0  0  0
   10.2345  -16.8549   27.1497 C   0  0  0  0  0  0  0  0  0  0  0  0
   10.5326  -18.3142   27.1414 C   0  0  0  0  0  0  0  0  0  0  0  0
   11.0406  -18.8814   28.1440 O   0  0  0  0  0  0  0  0  0  0  0  0
   10.2441  -19.0548   26.0077 O   0  0  0  0  0  0  0  0  0  0  0  0
  2  1  1  6
  3  2  1  0
  4  3  1  0
  4  5  2  0
  6  2  1  0
  7  6  2  0
  8  4  1  0
  9 10  1  0
 11 12  1  0
 11 10  1  0
 13 12  1  1
 13 15  1  0
 13 14  1  0
 14  6  1  0
 15 17  1  0
 16 15  2  0
 17 18  1  0
 19 21  1  0
 19 18  1  0
 20 19  2  0
M  END
$$$$
