DMG.pdb
     RDKit          3D

 21 20  0  0  1  0  0  0  0  0999 V2000
    9.3430  -15.3882   21.1852 N   0  0  0  0  0  0  0  0  0  0  0  0
    9.7456  -16.4273   22.1060 C   0  0  1  0  0  0  0  0  0  0  0  0
   11.2596  -16.5558   22.0844 C   0  0  0  0  0  0  0  0  0  0  0  0
   11.7157  -17.1295   20.8061 C   0  0  0  0  0  0  0  0  0  0  0  0
   10.9030  -17.7742   20.0955 O   0  0  0  0  0  0  0  0  0  0  0  0
    9.3027  -16.0676   23.4713 C   0  0  0  0  0  0  0  0  0  0  0  0
   10.1863  -15.8523   24.3408 O   0  0  0  0  0  0  0  0  0  0  0  0
   13.0150  -16.9555   20.4055 O   0  0  0  0  0  0  0  0  0  0  0  0
    7.2105  -10.9966   26.4906 C   0  0  0  0  0  0  0  0  0  0  0  0
    7.1592  -12.7961   26.5152 S   0  0  0  0  0  0  0  0  0  0  0  0
    6.4192  -13.4241   24.9466 C   0  0  0  0  0  0  0  0  0  0  0  0
    6.2499  -14.8914   25.1395 C   0  0  0  0  0  0  0  0  0  0  0  0
    7.5164  -15.6917   25.2119 C   0  0  2  0  0  0  0  0  0  0  0  0
    7.9282  -15.9631   23.8091 N   0  0  0  0  0  0  0  0  0  0  0  0
    7.4233  -16.9542   25.9510 C   0  0  0  0  0  0  0  0  0  0  0  0
    6.4074  -17.7058   25.7052 O   0  0  0  0  0  0  0  0  0  0  0  0
    8.3262  -17.4449   26.9056 N   0  0  0  0  0  0  0  0  0  0  0  0
    8.1270  -18.7120   27.5526 C   0  0  0  0  0  0  0  0  0  0  0  0
    9.2533  -19.0483   28.4675 C   0  0  0  0  0  0  0  0  0  0  0  0
   10.2616  -18.3004   28.5623 O   0  0  0  0  0  0  0  0  0  0  0  0
    9.1846  -20.2057   29.2242 O   0  0  0  0  0  0  0  0  0  0  0  0
  2  1  1  6
  3  2  1  0
  4  3  1  0
  4  5  2  0
  6  2  1  0
  7  6  2  0
  8  4  1  0
  9 10  1  0
 11 12  1  0
 11 10  1  0
 13 12  1  6
 13 15  1  0
 13 14  1  0
 14  6  1  0
 15 17  1  0
 16 15  2  0
 17 18  1  0
 19 21  1  0
 19 18  1  0
 20 19  2  0
M  END
$$$$
