DMG.pdb
     RDKit          3D

 21 20  0  0  1  0  0  0  0  0999 V2000
    5.5505  -19.7452   23.8544 N   0  0  0  0  0  0  0  0  0  0  0  0
    6.3782  -19.1085   24.8541 C   0  0  1  0  0  0  0  0  0  0  0  0
    7.5742  -19.9969   25.1531 C   0  0  0  0  0  0  0  0  0  0  0  0
    7.1632  -21.1805   25.9286 C   0  0  0  0  0  0  0  0  0  0  0  0
    7.2958  -22.3243   25.4235 O   0  0  0  0  0  0  0  0  0  0  0  0
    6.8515  -17.8052   24.3374 C   0  0  0  0  0  0  0  0  0  0  0  0
    7.2562  -17.7540   23.1472 O   0  0  0  0  0  0  0  0  0  0  0  0
    6.6432  -21.0241   27.1872 O   0  0  0  0  0  0  0  0  0  0  0  0
    6.8878  -11.8793   27.8566 C   0  0  0  0  0  0  0  0  0  0  0  0
    6.2850  -11.7526   26.1648 S   0  0  0  0  0  0  0  0  0  0  0  0
    7.2492  -12.8806   25.0692 C   0  0  0  0  0  0  0  0  0  0  0  0
    6.7856  -14.2572   25.3994 C   0  0  0  0  0  0  0  0  0  0  0  0
    7.4332  -15.3680   24.6271 C   0  0  2  0  0  0  0  0  0  0  0  0
    6.8561  -16.6373   25.1439 N   0  0  0  0  0  0  0  0  0  0  0  0
    8.8958  -15.4231   24.7078 C   0  0  0  0  0  0  0  0  0  0  0  0
    9.4292  -15.2152   25.8609 O   0  0  0  0  0  0  0  0  0  0  0  0
    9.7924  -15.6816   23.6606 N   0  0  0  0  0  0  0  0  0  0  0  0
   11.2085  -15.4965   23.8155 C   0  0  0  0  0  0  0  0  0  0  0  0
   11.9474  -15.8115   22.5612 C   0  0  0  0  0  0  0  0  0  0  0  0
   11.3513  -16.2690   21.5510 O   0  0  0  0  0  0  0  0  0  0  0  0
   13.3141  -15.5960   22.5115 O   0  0  0  0  0  0  0  0  0  0  0  0
  2  1  1  6
  3  2  1  0
  4  3  1  0
  4  5  2  0
  6  2  1  0
  7  6  2  0
  8  4  1  0
  9 10  1  0
 11 12  1  0
 11 10  1  0
 13 12  1  1
 13 15  1  0
 13 14  1  0
 14  6  1  0
 15 17  1  0
 16 15  2  0
 17 18  1  0
 19 21  1  0
 19 18  1  0
 20 19  2  0
M  END
$$$$
