DMG.pdb
     RDKit          3D

 21 20  0  0  1  0  0  0  0  0999 V2000
    8.3105  -17.8144   21.5398 N   0  0  0  0  0  0  0  0  0  0  0  0
    9.5707  -17.1236   21.3834 C   0  0  1  0  0  0  0  0  0  0  0  0
    9.7106  -16.6578   19.9438 C   0  0  0  0  0  0  0  0  0  0  0  0
    9.6976  -17.8064   19.0209 C   0  0  0  0  0  0  0  0  0  0  0  0
   10.4401  -18.7936   19.2557 O   0  0  0  0  0  0  0  0  0  0  0  0
    9.5987  -15.9501   22.2843 C   0  0  0  0  0  0  0  0  0  0  0  0
   10.5911  -15.1793   22.2188 O   0  0  0  0  0  0  0  0  0  0  0  0
    8.8801  -17.7880   17.9208 O   0  0  0  0  0  0  0  0  0  0  0  0
    6.0457  -11.8951   27.6841 C   0  0  0  0  0  0  0  0  0  0  0  0
    6.3544  -13.3003   26.6018 S   0  0  0  0  0  0  0  0  0  0  0  0
    7.0569  -12.7156   24.9996 C   0  0  0  0  0  0  0  0  0  0  0  0
    7.2234  -13.9366   24.1626 C   0  0  0  0  0  0  0  0  0  0  0  0
    8.6120  -14.4997   24.0967 C   0  0  2  0  0  0  0  0  0  0  0  0
    8.5478  -15.6846   23.2005 N   0  0  0  0  0  0  0  0  0  0  0  0
    9.1974  -14.8866   25.3837 C   0  0  0  0  0  0  0  0  0  0  0  0
    9.3686  -13.9550   26.2555 O   0  0  0  0  0  0  0  0  0  0  0  0
    9.5956  -16.1716   25.7805 N   0  0  0  0  0  0  0  0  0  0  0  0
   10.1576  -16.4212   27.0788 C   0  0  0  0  0  0  0  0  0  0  0  0
   10.5312  -17.8524   27.2534 C   0  0  0  0  0  0  0  0  0  0  0  0
   10.6476  -18.6211   26.2631 O   0  0  0  0  0  0  0  0  0  0  0  0
   10.7524  -18.3406   28.5299 O   0  0  0  0  0  0  0  0  0  0  0  0
  2  1  1  6
  3  2  1  0
  4  3  1  0
  4  5  2  0
  6  2  1  0
  7  6  2  0
  8  4  1  0
  9 10  1  0
 11 12  1  0
 11 10  1  0
 13 12  1  1
 13 15  1  0
 13 14  1  0
 14  6  1  0
 15 17  1  0
 16 15  2  0
 17 18  1  0
 19 21  1  0
 19 18  1  0
 20 19  2  0
M  END
$$$$
