DMG.pdb
     RDKit          3D

 21 20  0  0  1  0  0  0  0  0999 V2000
    7.8203  -15.7380   19.0331 N   0  0  0  0  0  0  0  0  0  0  0  0
    7.4455  -16.2842   20.3181 C   0  0  1  0  0  0  0  0  0  0  0  0
    7.8676  -17.7424   20.3841 C   0  0  0  0  0  0  0  0  0  0  0  0
    7.2337  -18.5178   19.3033 C   0  0  0  0  0  0  0  0  0  0  0  0
    7.9580  -19.0917   18.4506 O   0  0  0  0  0  0  0  0  0  0  0  0
    8.1299  -15.5258   21.3887 C   0  0  0  0  0  0  0  0  0  0  0  0
    9.2731  -15.0607   21.1441 O   0  0  0  0  0  0  0  0  0  0  0  0
    5.8674  -18.6061   19.2383 O   0  0  0  0  0  0  0  0  0  0  0  0
    6.4746  -11.1868   27.7365 C   0  0  0  0  0  0  0  0  0  0  0  0
    6.0498  -12.3563   26.4352 S   0  0  0  0  0  0  0  0  0  0  0  0
    7.5591  -12.7972   25.4708 C   0  0  0  0  0  0  0  0  0  0  0  0
    7.1113  -13.7856   24.4503 C   0  0  0  0  0  0  0  0  0  0  0  0
    8.2014  -14.4655   23.6762 C   0  0  2  0  0  0  0  0  0  0  0  0
    7.5314  -15.3183   22.6588 N   0  0  0  0  0  0  0  0  0  0  0  0
    9.1252  -15.2804   24.4708 C   0  0  0  0  0  0  0  0  0  0  0  0
    8.6129  -16.0236   25.3887 O   0  0  0  0  0  0  0  0  0  0  0  0
   10.5204  -15.3461   24.3432 N   0  0  0  0  0  0  0  0  0  0  0  0
   11.3583  -15.7818   25.4256 C   0  0  0  0  0  0  0  0  0  0  0  0
   11.6310  -17.2446   25.3590 C   0  0  0  0  0  0  0  0  0  0  0  0
   10.9642  -18.0637   26.0443 O   0  0  0  0  0  0  0  0  0  0  0  0
   12.6373  -17.7057   24.5275 O   0  0  0  0  0  0  0  0  0  0  0  0
  2  1  1  6
  3  2  1  0
  4  3  1  0
  4  5  2  0
  6  2  1  0
  7  6  2  0
  8  4  1  0
  9 10  1  0
 11 12  1  0
 11 10  1  0
 13 12  1  1
 13 15  1  0
 13 14  1  0
 14  6  1  0
 15 17  1  0
 16 15  2  0
 17 18  1  0
 19 21  1  0
 19 18  1  0
 20 19  2  0
M  END
$$$$
