DMG.pdb
     RDKit          3D

 21 20  0  0  1  0  0  0  0  0999 V2000
    6.5999  -15.8416   21.1816 N   0  0  0  0  0  0  0  0  0  0  0  0
    8.0452  -15.8754   21.1862 C   0  0  1  0  0  0  0  0  0  0  0  0
    8.5723  -14.8667   20.1794 C   0  0  0  0  0  0  0  0  0  0  0  0
    8.4055  -15.3677   18.8037 C   0  0  0  0  0  0  0  0  0  0  0  0
    7.8817  -16.4956   18.6183 O   0  0  0  0  0  0  0  0  0  0  0  0
    8.5369  -15.5240   22.5369 C   0  0  0  0  0  0  0  0  0  0  0  0
    9.7477  -15.2044   22.6594 O   0  0  0  0  0  0  0  0  0  0  0  0
    8.8207  -14.6031   17.7445 O   0  0  0  0  0  0  0  0  0  0  0  0
    5.5852  -11.1365   26.1524 C   0  0  0  0  0  0  0  0  0  0  0  0
    6.8203  -12.3488   26.6487 S   0  0  0  0  0  0  0  0  0  0  0  0
    7.0479  -13.5967   25.3096 C   0  0  0  0  0  0  0  0  0  0  0  0
    8.0678  -14.5549   25.8202 C   0  0  0  0  0  0  0  0  0  0  0  0
    8.2374  -15.8149   25.0243 C   0  0  2  0  0  0  0  0  0  0  0  0
    7.6845  -15.5405   23.6715 N   0  0  0  0  0  0  0  0  0  0  0  0
    7.5956  -17.0070   25.5862 C   0  0  0  0  0  0  0  0  0  0  0  0
    6.3670  -17.2194   25.2660 O   0  0  0  0  0  0  0  0  0  0  0  0
    8.1740  -17.9561   26.4418 N   0  0  0  0  0  0  0  0  0  0  0  0
    8.9484  -17.5678   27.5877 C   0  0  0  0  0  0  0  0  0  0  0  0
    9.9370  -18.6152   27.9673 C   0  0  0  0  0  0  0  0  0  0  0  0
   10.1818  -18.8733   29.1750 O   0  0  0  0  0  0  0  0  0  0  0  0
   10.5957  -19.3137   26.9698 O   0  0  0  0  0  0  0  0  0  0  0  0
  2  1  1  1
  3  2  1  0
  4  3  1  0
  4  5  2  0
  6  2  1  0
  7  6  2  0
  8  4  1  0
  9 10  1  0
 11 12  1  0
 11 10  1  0
 13 12  1  1
 13 15  1  0
 13 14  1  0
 14  6  1  0
 15 17  1  0
 16 15  2  0
 17 18  1  0
 19 21  1  0
 19 18  1  0
 20 19  2  0
M  END
$$$$
