DMG.pdb
     RDKit          3D

 21 20  0  0  1  0  0  0  0  0999 V2000
    7.6726  -17.0650   21.3987 N   0  0  0  0  0  0  0  0  0  0  0  0
    9.0657  -16.7156   21.5638 C   0  0  1  0  0  0  0  0  0  0  0  0
    9.5261  -15.9122   20.3590 C   0  0  0  0  0  0  0  0  0  0  0  0
    9.3703  -16.6949   19.1203 C   0  0  0  0  0  0  0  0  0  0  0  0
    8.8476  -17.8371   19.1751 O   0  0  0  0  0  0  0  0  0  0  0  0
    9.2218  -15.8987   22.7877 C   0  0  0  0  0  0  0  0  0  0  0  0
   10.3317  -15.3405   22.9869 O   0  0  0  0  0  0  0  0  0  0  0  0
    9.7942  -16.1727   17.9259 O   0  0  0  0  0  0  0  0  0  0  0  0
    6.7787  -10.6409   25.2741 C   0  0  0  0  0  0  0  0  0  0  0  0
    6.0599  -11.9630   26.2624 S   0  0  0  0  0  0  0  0  0  0  0  0
    7.2908  -13.3182   26.4875 C   0  0  0  0  0  0  0  0  0  0  0  0
    7.2675  -14.0991   25.2192 C   0  0  0  0  0  0  0  0  0  0  0  0
    8.4040  -15.0575   25.0205 C   0  0  2  0  0  0  0  0  0  0  0  0
    8.1639  -15.7373   23.7199 N   0  0  0  0  0  0  0  0  0  0  0  0
    8.5755  -16.0600   26.0760 C   0  0  0  0  0  0  0  0  0  0  0  0
    8.6965  -15.6283   27.2828 O   0  0  0  0  0  0  0  0  0  0  0  0
    8.6213  -17.4533   25.9210 N   0  0  0  0  0  0  0  0  0  0  0  0
    8.7874  -18.3334   27.0442 C   0  0  0  0  0  0  0  0  0  0  0  0
   10.2251  -18.5647   27.3571 C   0  0  0  0  0  0  0  0  0  0  0  0
   11.1353  -18.0057   26.6906 O   0  0  0  0  0  0  0  0  0  0  0  0
   10.5604  -19.4109   28.4003 O   0  0  0  0  0  0  0  0  0  0  0  0
  2  1  1  6
  3  2  1  0
  4  3  1  0
  4  5  2  0
  6  2  1  0
  7  6  2  0
  8  4  1  0
  9 10  1  0
 11 12  1  0
 11 10  1  0
 13 12  1  1
 13 15  1  0
 13 14  1  0
 14  6  1  0
 15 17  1  0
 16 15  2  0
 17 18  1  0
 19 21  1  0
 19 18  1  0
 20 19  2  0
M  END
$$$$
