DMG.pdb
     RDKit          3D

 21 20  0  0  1  0  0  0  0  0999 V2000
    6.6430  -16.6181   20.5701 N   0  0  0  0  0  0  0  0  0  0  0  0
    7.9917  -16.1747   20.2975 C   0  0  1  0  0  0  0  0  0  0  0  0
    7.9974  -15.3422   19.0264 C   0  0  0  0  0  0  0  0  0  0  0  0
    7.8311  -16.2007   17.8404 C   0  0  0  0  0  0  0  0  0  0  0  0
    7.2774  -17.3227   17.9651 O   0  0  0  0  0  0  0  0  0  0  0  0
    8.4714  -15.3488   21.4277 C   0  0  0  0  0  0  0  0  0  0  0  0
    9.6185  -14.8391   21.3411 O   0  0  0  0  0  0  0  0  0  0  0  0
    8.2790  -15.7701   16.6186 O   0  0  0  0  0  0  0  0  0  0  0  0
    6.6698  -11.0170   27.6365 C   0  0  0  0  0  0  0  0  0  0  0  0
    6.1722  -12.2195   26.3924 S   0  0  0  0  0  0  0  0  0  0  0  0
    7.6438  -13.1694   25.8141 C   0  0  0  0  0  0  0  0  0  0  0  0
    7.2380  -13.7972   24.5257 C   0  0  0  0  0  0  0  0  0  0  0  0
    8.2932  -14.6063   23.8317 C   0  0  2  0  0  0  0  0  0  0  0  0
    7.6766  -15.1262   22.5823 N   0  0  0  0  0  0  0  0  0  0  0  0
    8.8466  -15.7197   24.6081 C   0  0  0  0  0  0  0  0  0  0  0  0
    8.0175  -16.4304   25.2900 O   0  0  0  0  0  0  0  0  0  0  0  0
   10.1922  -16.1063   24.6931 N   0  0  0  0  0  0  0  0  0  0  0  0
   10.6852  -16.8900   25.7914 C   0  0  0  0  0  0  0  0  0  0  0  0
   12.1360  -17.1940   25.6460 C   0  0  0  0  0  0  0  0  0  0  0  0
   12.8932  -16.4500   24.9690 O   0  0  0  0  0  0  0  0  0  0  0  0
   12.6554  -18.3165   26.2682 O   0  0  0  0  0  0  0  0  0  0  0  0
  2  1  1  1
  3  2  1  0
  4  3  1  0
  4  5  2  0
  6  2  1  0
  7  6  2  0
  8  4  1  0
  9 10  1  0
 11 12  1  0
 11 10  1  0
 13 12  1  1
 13 15  1  0
 13 14  1  0
 14  6  1  0
 15 17  1  0
 16 15  2  0
 17 18  1  0
 19 21  1  0
 19 18  1  0
 20 19  2  0
M  END
$$$$
