DMG.pdb
     RDKit          3D

 21 20  0  0  1  0  0  0  0  0999 V2000
    7.9888  -14.4831   19.8701 N   0  0  0  0  0  0  0  0  0  0  0  0
    7.5993  -15.5040   20.8166 C   0  0  1  0  0  0  0  0  0  0  0  0
    8.2130  -16.8309   20.4019 C   0  0  0  0  0  0  0  0  0  0  0  0
    7.5099  -17.3873   19.2326 C   0  0  0  0  0  0  0  0  0  0  0  0
    7.0818  -16.6083   18.3432 O   0  0  0  0  0  0  0  0  0  0  0  0
    8.0913  -15.1346   22.1624 C   0  0  0  0  0  0  0  0  0  0  0  0
    9.2814  -14.7399   22.2678 O   0  0  0  0  0  0  0  0  0  0  0  0
    7.3305  -18.7420   19.1258 O   0  0  0  0  0  0  0  0  0  0  0  0
    8.3025  -11.8028   28.4274 C   0  0  0  0  0  0  0  0  0  0  0  0
    7.8531  -12.3251   26.7641 S   0  0  0  0  0  0  0  0  0  0  0  0
    6.9101  -13.9088   26.8371 C   0  0  0  0  0  0  0  0  0  0  0  0
    6.6291  -14.2767   25.4213 C   0  0  0  0  0  0  0  0  0  0  0  0
    7.7878  -14.8329   24.6481 C   0  0  2  0  0  0  0  0  0  0  0  0
    7.2616  -15.2157   23.3110 N   0  0  0  0  0  0  0  0  0  0  0  0
    8.4608  -15.9824   25.2601 C   0  0  0  0  0  0  0  0  0  0  0  0
    7.8310  -17.1052   25.2519 O   0  0  0  0  0  0  0  0  0  0  0  0
    9.7289  -16.0007   25.8591 N   0  0  0  0  0  0  0  0  0  0  0  0
   10.3332  -17.2229   26.3115 C   0  0  0  0  0  0  0  0  0  0  0  0
   10.5353  -17.2263   27.7872 C   0  0  0  0  0  0  0  0  0  0  0  0
   10.0835  -16.2989   28.5090 O   0  0  0  0  0  0  0  0  0  0  0  0
   11.2337  -18.2702   28.3697 O   0  0  0  0  0  0  0  0  0  0  0  0
  2  1  1  6
  3  2  1  0
  4  3  1  0
  4  5  2  0
  6  2  1  0
  7  6  2  0
  8  4  1  0
  9 10  1  0
 11 12  1  0
 11 10  1  0
 13 12  1  1
 13 15  1  0
 13 14  1  0
 14  6  1  0
 15 17  1  0
 16 15  2  0
 17 18  1  0
 19 21  1  0
 19 18  1  0
 20 19  2  0
M  END
$$$$
