DMG.pdb
     RDKit          3D

 21 20  0  0  1  0  0  0  0  0999 V2000
    8.4228  -16.4950   20.5501 N   0  0  0  0  0  0  0  0  0  0  0  0
    9.6951  -16.5887   21.2301 C   0  0  1  0  0  0  0  0  0  0  0  0
   10.7661  -15.9243   20.3813 C   0  0  0  0  0  0  0  0  0  0  0  0
   10.8961  -16.6040   19.0804 C   0  0  0  0  0  0  0  0  0  0  0  0
    9.8624  -17.0152   18.4943 O   0  0  0  0  0  0  0  0  0  0  0  0
    9.6029  -15.8965   22.5347 C   0  0  0  0  0  0  0  0  0  0  0  0
   10.6729  -15.6524   23.1501 O   0  0  0  0  0  0  0  0  0  0  0  0
   12.1363  -16.7805   18.5241 O   0  0  0  0  0  0  0  0  0  0  0  0
    6.7719  -11.3602   27.7377 C   0  0  0  0  0  0  0  0  0  0  0  0
    7.1632  -11.9707   26.0898 S   0  0  0  0  0  0  0  0  0  0  0  0
    6.6294  -13.7290   25.9291 C   0  0  0  0  0  0  0  0  0  0  0  0
    7.0417  -14.1525   24.5618 C   0  0  0  0  0  0  0  0  0  0  0  0
    8.2797  -14.9956   24.4839 C   0  0  2  0  0  0  0  0  0  0  0  0
    8.3555  -15.5114   23.0913 N   0  0  0  0  0  0  0  0  0  0  0  0
    8.3405  -16.1154   25.4279 C   0  0  0  0  0  0  0  0  0  0  0  0
    7.4027  -16.9945   25.3584 O   0  0  0  0  0  0  0  0  0  0  0  0
    9.3164  -16.3434   26.4092 N   0  0  0  0  0  0  0  0  0  0  0  0
    9.3080  -17.5277   27.2222 C   0  0  0  0  0  0  0  0  0  0  0  0
   10.4705  -17.5675   28.1526 C   0  0  0  0  0  0  0  0  0  0  0  0
   11.3706  -16.6883   28.1090 O   0  0  0  0  0  0  0  0  0  0  0  0
   10.5576  -18.5924   29.0793 O   0  0  0  0  0  0  0  0  0  0  0  0
  2  1  1  6
  3  2  1  0
  4  3  1  0
  4  5  2  0
  6  2  1  0
  7  6  2  0
  8  4  1  0
  9 10  1  0
 11 12  1  0
 11 10  1  0
 13 12  1  6
 13 15  1  0
 13 14  1  0
 14  6  1  0
 15 17  1  0
 16 15  2  0
 17 18  1  0
 19 21  1  0
 19 18  1  0
 20 19  2  0
M  END
$$$$
