HVW.pdb
     RDKit          3D

 32 34  0  0  1  0  0  0  0  0999 V2000
   26.9924  -20.6298  -18.1961 N   0  0  0  0  0  0  0  0  0  0  0  0
   26.9809  -21.6799  -17.2165 C   0  0  1  0  0  0  0  0  0  0  0  0
   27.7264  -22.8924  -17.7385 C   0  0  0  0  0  0  0  0  0  0  0  0
   26.9414  -23.5552  -18.8336 C   0  0  0  0  0  0  0  0  0  0  0  0
   25.6640  -23.2308  -19.2313 C   0  0  0  0  0  0  0  0  0  0  0  0
   25.3151  -24.0547  -20.2333 N   0  0  0  0  0  0  0  0  0  0  0  0
   26.3459  -24.8700  -20.4545 C   0  0  0  0  0  0  0  0  0  0  0  0
   27.3398  -24.5730  -19.6071 N   0  0  0  0  0  0  0  0  0  0  0  0
   27.6462  -21.2099  -15.9330 C   0  0  0  0  0  0  0  0  0  0  0  0
   28.8868  -21.2128  -15.8450 O   0  0  0  0  0  0  0  0  0  0  0  0
   25.5812  -18.2916  -13.8015 C   0  0  0  0  0  0  0  0  0  0  0  0
   27.0118  -18.6885  -13.5340 C   0  0  2  0  0  0  0  0  0  0  0  0
   27.8739  -18.0911  -14.6261 C   0  0  0  0  0  0  0  0  0  0  0  0
   27.1130  -20.1942  -13.6362 C   0  0  2  0  0  0  0  0  0  0  0  0
   26.8186  -20.7863  -14.8866 N   0  0  0  0  0  0  0  0  0  0  0  0
   26.4413  -20.8374  -12.4920 C   0  0  0  0  0  0  0  0  0  0  0  0
   25.3173  -21.3994  -12.5323 O   0  0  0  0  0  0  0  0  0  0  0  0
   27.0587  -20.8700  -11.1840 N   0  0  0  0  0  0  0  0  0  0  0  0
   26.3438  -21.3862  -10.0159 C   0  0  1  0  0  0  0  0  0  0  0  0
   27.2849  -21.6928   -8.9144 C   0  0  0  0  0  0  0  0  0  0  0  0
   27.5104  -20.5854   -7.9921 C   0  0  0  0  0  0  0  0  0  0  0  0
   26.9290  -19.3135   -8.0602 C   0  0  0  0  0  0  0  0  0  0  0  0
   27.4038  -18.5569   -7.0662 N   0  0  0  0  0  0  0  0  0  0  0  0
   28.2807  -19.2506   -6.3221 C   0  0  0  0  0  0  0  0  0  0  0  0
   29.0179  -18.9373   -5.1969 C   0  0  0  0  0  0  0  0  0  0  0  0
   29.8401  -19.8675   -4.6101 C   0  0  0  0  0  0  0  0  0  0  0  0
   29.9382  -21.1472   -5.1510 C   0  0  0  0  0  0  0  0  0  0  0  0
   29.1926  -21.4234   -6.2696 C   0  0  0  0  0  0  0  0  0  0  0  0
   28.3504  -20.5284   -6.9020 C   0  0  0  0  0  0  0  0  0  0  0  0
   25.2943  -20.4494   -9.6504 C   0  0  0  0  0  0  0  0  0  0  0  0
   24.1597  -20.7225   -8.8996 O   0  0  0  0  0  0  0  0  0  0  0  0
   25.3965  -19.2362  -10.0554 O   0  0  0  0  0  0  0  0  0  0  0  0
  2  1  1  6
  2  3  1  0
  3  4  1  0
  4  5  2  0
  6  5  1  0
  7  6  1  0
  8  7  2  0
  8  4  1  0
  9  2  1  0
 10  9  2  0
 12 14  1  0
 12 11  1  6
 13 12  1  0
 14 15  1  6
 15  9  1  0
 16 18  1  0
 16 14  1  0
 17 16  2  0
 19 30  1  0
 19 18  1  0
 19 20  1  1
 21 22  2  0
 21 20  1  0
 23 22  1  0
 24 29  2  0
 24 23  1  0
 25 24  1  0
 26 27  1  0
 26 25  2  0
 27 28  2  0
 28 29  1  0
 29 21  1  0
 30 31  1  0
 32 30  2  0
M  END
$$$$
