HVW.pdb
     RDKit          3D

 32 34  0  0  1  0  0  0  0  0999 V2000
   27.9881  -20.1928  -15.5644 N   0  0  0  0  0  0  0  0  0  0  0  0
   28.1108  -18.9482  -14.8586 C   0  0  1  0  0  0  0  0  0  0  0  0
   28.0856  -17.7875  -15.8336 C   0  0  0  0  0  0  0  0  0  0  0  0
   29.2954  -17.8269  -16.7222 C   0  0  0  0  0  0  0  0  0  0  0  0
   29.5202  -18.7104  -17.7536 C   0  0  0  0  0  0  0  0  0  0  0  0
   30.7133  -18.4226  -18.2996 N   0  0  0  0  0  0  0  0  0  0  0  0
   31.2185  -17.3884  -17.6278 C   0  0  0  0  0  0  0  0  0  0  0  0
   30.3622  -17.0195  -16.6661 N   0  0  0  0  0  0  0  0  0  0  0  0
   26.9644  -18.7863  -13.8734 C   0  0  0  0  0  0  0  0  0  0  0  0
   26.0001  -18.0568  -14.1644 O   0  0  0  0  0  0  0  0  0  0  0  0
   25.3723  -22.0444  -12.6393 C   0  0  0  0  0  0  0  0  0  0  0  0
   24.8787  -20.6691  -12.2648 C   0  0  2  0  0  0  0  0  0  0  0  0
   24.3897  -19.9891  -13.5264 C   0  0  0  0  0  0  0  0  0  0  0  0
   26.0504  -19.8730  -11.7345 C   0  0  2  0  0  0  0  0  0  0  0  0
   27.0452  -19.4782  -12.6593 N   0  0  0  0  0  0  0  0  0  0  0  0
   26.5815  -20.4896  -10.5050 C   0  0  0  0  0  0  0  0  0  0  0  0
   27.6277  -21.1835  -10.4343 O   0  0  0  0  0  0  0  0  0  0  0  0
   25.9058  -20.3292   -9.2358 N   0  0  0  0  0  0  0  0  0  0  0  0
   25.6131  -21.4779   -8.3773 C   0  0  1  0  0  0  0  0  0  0  0  0
   26.4803  -21.4739   -7.1769 C   0  0  0  0  0  0  0  0  0  0  0  0
   27.1815  -20.2156   -6.9474 C   0  0  0  0  0  0  0  0  0  0  0  0
   26.8865  -18.9789   -7.5342 C   0  0  0  0  0  0  0  0  0  0  0  0
   27.7671  -18.0675   -7.1103 N   0  0  0  0  0  0  0  0  0  0  0  0
   28.6489  -18.6215   -6.2619 C   0  0  0  0  0  0  0  0  0  0  0  0
   29.7181  -18.1147   -5.5495 C   0  0  0  0  0  0  0  0  0  0  0  0
   30.4550  -18.9187   -4.7151 C   0  0  0  0  0  0  0  0  0  0  0  0
   30.1264  -20.2653   -4.5796 C   0  0  0  0  0  0  0  0  0  0  0  0
   29.0590  -20.7351   -5.3030 C   0  0  0  0  0  0  0  0  0  0  0  0
   28.2833  -19.9740   -6.1569 C   0  0  0  0  0  0  0  0  0  0  0  0
   24.1911  -21.4947   -8.0766 C   0  0  0  0  0  0  0  0  0  0  0  0
   23.5083  -22.4502   -7.3373 O   0  0  0  0  0  0  0  0  0  0  0  0
   23.4632  -20.5426   -8.5348 O   0  0  0  0  0  0  0  0  0  0  0  0
  2  1  1  6
  2  3  1  0
  3  4  1  0
  4  5  2  0
  6  5  1  0
  7  6  1  0
  8  7  2  0
  8  4  1  0
  9  2  1  0
 10  9  2  0
 12 14  1  0
 12 11  1  6
 13 12  1  0
 14 15  1  6
 15  9  1  0
 16 18  1  0
 16 14  1  0
 17 16  2  0
 19 30  1  0
 19 18  1  0
 19 20  1  1
 21 22  2  0
 21 20  1  0
 23 22  1  0
 24 29  2  0
 24 23  1  0
 25 24  1  0
 26 27  1  0
 26 25  2  0
 27 28  2  0
 28 29  1  0
 29 21  1  0
 30 31  1  0
 32 30  2  0
M  END
$$$$
