HVW.pdb
     RDKit          3D

 32 34  0  0  1  0  0  0  0  0999 V2000
   18.9437  -10.8891  -20.5503 N   0  0  0  0  0  0  0  0  0  0  0  0
   19.3702  -10.3857  -19.2747 C   0  0  1  0  0  0  0  0  0  0  0  0
   20.5561  -11.1817  -18.7664 C   0  0  0  0  0  0  0  0  0  0  0  0
   20.1578  -12.6076  -18.5157 C   0  0  0  0  0  0  0  0  0  0  0  0
   19.5306  -13.0923  -17.3902 C   0  0  0  0  0  0  0  0  0  0  0  0
   19.3507  -14.4142  -17.5472 N   0  0  0  0  0  0  0  0  0  0  0  0
   19.8515  -14.7449  -18.7371 C   0  0  0  0  0  0  0  0  0  0  0  0
   20.3447  -13.6514  -19.3332 N   0  0  0  0  0  0  0  0  0  0  0  0
   19.7742   -8.9250  -19.3934 C   0  0  0  0  0  0  0  0  0  0  0  0
   20.3664   -8.5303  -20.4134 O   0  0  0  0  0  0  0  0  0  0  0  0
   17.1936   -6.1229  -17.8501 C   0  0  0  0  0  0  0  0  0  0  0  0
   18.4050   -5.8300  -18.7001 C   0  0  2  0  0  0  0  0  0  0  0  0
   18.1005   -6.2743  -20.1154 C   0  0  0  0  0  0  0  0  0  0  0  0
   19.5561   -6.6679  -18.1896 C   0  0  2  0  0  0  0  0  0  0  0  0
   19.4563   -8.0718  -18.3303 N   0  0  0  0  0  0  0  0  0  0  0  0
   19.9623   -6.2247  -16.8433 C   0  0  0  0  0  0  0  0  0  0  0  0
   19.7114   -6.8336  -15.7722 O   0  0  0  0  0  0  0  0  0  0  0  0
   20.7144   -5.0035  -16.6530 N   0  0  0  0  0  0  0  0  0  0  0  0
   21.1312   -4.5644  -15.3205 C   0  0  1  0  0  0  0  0  0  0  0  0
   22.6042   -4.6271  -15.1812 C   0  0  0  0  0  0  0  0  0  0  0  0
   23.1489   -5.9803  -15.1711 C   0  0  0  0  0  0  0  0  0  0  0  0
   24.0524   -6.5210  -16.0941 C   0  0  0  0  0  0  0  0  0  0  0  0
   24.2926   -7.7978  -15.7812 N   0  0  0  0  0  0  0  0  0  0  0  0
   23.5975   -8.1552  -14.6888 C   0  0  0  0  0  0  0  0  0  0  0  0
   23.5137   -9.3297  -13.9670 C   0  0  0  0  0  0  0  0  0  0  0  0
   22.7234   -9.4153  -12.8474 C   0  0  0  0  0  0  0  0  0  0  0  0
   21.9925   -8.3069  -12.4269 C   0  0  0  0  0  0  0  0  0  0  0  0
   22.0986   -7.1569  -13.1683 C   0  0  0  0  0  0  0  0  0  0  0  0
   22.8762   -7.0133  -14.3018 C   0  0  0  0  0  0  0  0  0  0  0  0
   20.5701   -3.2496  -15.0576 C   0  0  0  0  0  0  0  0  0  0  0  0
   20.6039   -2.5556  -13.8564 O   0  0  0  0  0  0  0  0  0  0  0  0
   19.9683   -2.6446  -16.0158 O   0  0  0  0  0  0  0  0  0  0  0  0
  2  1  1  6
  2  3  1  0
  3  4  1  0
  4  5  2  0
  6  5  1  0
  7  6  1  0
  8  7  2  0
  8  4  1  0
  9  2  1  0
 10  9  2  0
 12 14  1  0
 12 11  1  1
 13 12  1  0
 14 15  1  1
 15  9  1  0
 16 18  1  0
 16 14  1  0
 17 16  2  0
 19 30  1  0
 19 18  1  0
 19 20  1  6
 21 22  2  0
 21 20  1  0
 23 22  1  0
 24 29  2  0
 24 23  1  0
 25 24  1  0
 26 27  1  0
 26 25  2  0
 27 28  2  0
 28 29  1  0
 29 21  1  0
 30 31  1  0
 32 30  2  0
M  END
$$$$
