HVW.pdb
     RDKit          3D

 32 34  0  0  1  0  0  0  0  0999 V2000
   25.0855  -18.4720  -16.3481 N   0  0  0  0  0  0  0  0  0  0  0  0
   25.9021  -18.0729  -15.2362 C   0  0  1  0  0  0  0  0  0  0  0  0
   26.1114  -16.5715  -15.2512 C   0  0  0  0  0  0  0  0  0  0  0  0
   26.9042  -16.1679  -16.4608 C   0  0  0  0  0  0  0  0  0  0  0  0
   28.1142  -16.6934  -16.8544 C   0  0  0  0  0  0  0  0  0  0  0  0
   28.4973  -16.0670  -17.9792 N   0  0  0  0  0  0  0  0  0  0  0  0
   27.5528  -15.1759  -18.2791 C   0  0  0  0  0  0  0  0  0  0  0  0
   26.5796  -15.2305  -17.3603 N   0  0  0  0  0  0  0  0  0  0  0  0
   25.2353  -18.4623  -13.9267 C   0  0  0  0  0  0  0  0  0  0  0  0
   24.3402  -17.7407  -13.4524 O   0  0  0  0  0  0  0  0  0  0  0  0
   25.6574  -22.5842  -12.7207 C   0  0  0  0  0  0  0  0  0  0  0  0
   24.6403  -21.6193  -12.1639 C   0  0  2  0  0  0  0  0  0  0  0  0
   23.4890  -21.5375  -13.1441 C   0  0  0  0  0  0  0  0  0  0  0  0
   25.2791  -20.2505  -12.0850 C   0  0  2  0  0  0  0  0  0  0  0  0
   25.6651  -19.6378  -13.3000 N   0  0  0  0  0  0  0  0  0  0  0  0
   26.3185  -20.2234  -11.0396 C   0  0  0  0  0  0  0  0  0  0  0  0
   27.5222  -20.5474  -11.2042 O   0  0  0  0  0  0  0  0  0  0  0  0
   26.0117  -19.8001   -9.6906 N   0  0  0  0  0  0  0  0  0  0  0  0
   27.0270  -19.8173   -8.6365 C   0  0  1  0  0  0  0  0  0  0  0  0
   26.5891  -19.0181   -7.4693 C   0  0  0  0  0  0  0  0  0  0  0  0
   27.6353  -18.7743   -6.4824 C   0  0  0  0  0  0  0  0  0  0  0  0
   28.4427  -17.6341   -6.3892 C   0  0  0  0  0  0  0  0  0  0  0  0
   29.3096  -17.7877   -5.3839 N   0  0  0  0  0  0  0  0  0  0  0  0
   29.1330  -18.9771   -4.7854 C   0  0  0  0  0  0  0  0  0  0  0  0
   29.7459  -19.5925   -3.7115 C   0  0  0  0  0  0  0  0  0  0  0  0
   29.3416  -20.8332   -3.2840 C   0  0  0  0  0  0  0  0  0  0  0  0
   28.2998  -21.4874   -3.9370 C   0  0  0  0  0  0  0  0  0  0  0  0
   27.7145  -20.8472   -5.0005 C   0  0  0  0  0  0  0  0  0  0  0  0
   28.0795  -19.6012   -5.4744 C   0  0  0  0  0  0  0  0  0  0  0  0
   27.3546  -21.1967   -8.3164 C   0  0  0  0  0  0  0  0  0  0  0  0
   28.6236  -21.7339   -8.1523 O   0  0  0  0  0  0  0  0  0  0  0  0
   26.3905  -22.0307   -8.1705 O   0  0  0  0  0  0  0  0  0  0  0  0
  2  1  1  6
  2  3  1  0
  3  4  1  0
  4  5  2  0
  6  5  1  0
  7  6  1  0
  8  7  2  0
  8  4  1  0
  9  2  1  0
 10  9  2  0
 12 14  1  0
 12 11  1  6
 13 12  1  0
 14 15  1  6
 15  9  1  0
 16 18  1  0
 16 14  1  0
 17 16  2  0
 19 30  1  0
 19 18  1  0
 19 20  1  1
 21 22  2  0
 21 20  1  0
 23 22  1  0
 24 29  2  0
 24 23  1  0
 25 24  1  0
 26 27  1  0
 26 25  2  0
 27 28  2  0
 28 29  1  0
 29 21  1  0
 30 31  1  0
 32 30  2  0
M  END
$$$$
