HVW.pdb
     RDKit          3D

 32 34  0  0  1  0  0  0  0  0999 V2000
   23.4925  -19.7190  -15.6404 N   0  0  0  0  0  0  0  0  0  0  0  0
   23.9944  -19.4517  -14.3217 C   0  0  1  0  0  0  0  0  0  0  0  0
   22.8494  -19.3682  -13.3315 C   0  0  0  0  0  0  0  0  0  0  0  0
   21.8961  -18.2778  -13.7279 C   0  0  0  0  0  0  0  0  0  0  0  0
   22.0171  -17.4466  -14.8185 C   0  0  0  0  0  0  0  0  0  0  0  0
   20.9688  -16.6066  -14.8237 N   0  0  0  0  0  0  0  0  0  0  0  0
   20.2150  -16.9055  -13.7661 C   0  0  0  0  0  0  0  0  0  0  0  0
   20.7719  -17.9214  -13.0937 N   0  0  0  0  0  0  0  0  0  0  0  0
   24.9415  -20.5575  -13.8845 C   0  0  0  0  0  0  0  0  0  0  0  0
   24.7149  -21.7326  -14.2230 O   0  0  0  0  0  0  0  0  0  0  0  0
   28.7375  -19.2503  -12.1074 C   0  0  0  0  0  0  0  0  0  0  0  0
   28.4869  -20.6076  -12.7159 C   0  0  2  0  0  0  0  0  0  0  0  0
   28.6861  -20.4922  -14.2125 C   0  0  0  0  0  0  0  0  0  0  0  0
   27.0414  -20.9783  -12.4687 C   0  0  2  0  0  0  0  0  0  0  0  0
   26.0480  -20.1988  -13.1059 N   0  0  0  0  0  0  0  0  0  0  0  0
   26.8023  -21.2010  -11.0309 C   0  0  0  0  0  0  0  0  0  0  0  0
   27.4243  -22.0225  -10.3103 O   0  0  0  0  0  0  0  0  0  0  0  0
   25.7907  -20.4533  -10.3163 N   0  0  0  0  0  0  0  0  0  0  0  0
   25.4883  -20.7299   -8.9112 C   0  0  1  0  0  0  0  0  0  0  0  0
   25.5420  -19.4884   -8.1058 C   0  0  0  0  0  0  0  0  0  0  0  0
   26.8344  -19.2354   -7.4785 C   0  0  0  0  0  0  0  0  0  0  0  0
   27.7971  -18.3096   -7.8991 C   0  0  0  0  0  0  0  0  0  0  0  0
   28.8647  -18.3884   -7.0993 N   0  0  0  0  0  0  0  0  0  0  0  0
   28.6778  -19.3225   -6.1525 C   0  0  0  0  0  0  0  0  0  0  0  0
   29.4531  -19.7653   -5.0987 C   0  0  0  0  0  0  0  0  0  0  0  0
   28.9966  -20.7419   -4.2481 C   0  0  0  0  0  0  0  0  0  0  0  0
   27.7354  -21.2992   -4.4437 C   0  0  0  0  0  0  0  0  0  0  0  0
   26.9928  -20.8363   -5.5009 C   0  0  0  0  0  0  0  0  0  0  0  0
   27.4004  -19.8580   -6.3881 C   0  0  0  0  0  0  0  0  0  0  0  0
   24.2178  -21.4310   -8.8289 C   0  0  0  0  0  0  0  0  0  0  0  0
   23.6958  -22.0794   -7.7186 O   0  0  0  0  0  0  0  0  0  0  0  0
   23.4821  -21.4780   -9.8790 O   0  0  0  0  0  0  0  0  0  0  0  0
  2  1  1  6
  2  3  1  0
  3  4  1  0
  4  5  2  0
  6  5  1  0
  7  6  1  0
  8  7  2  0
  8  4  1  0
  9  2  1  0
 10  9  2  0
 12 14  1  0
 12 11  1  1
 13 12  1  0
 14 15  1  1
 15  9  1  0
 16 18  1  0
 16 14  1  0
 17 16  2  0
 19 30  1  0
 19 18  1  0
 19 20  1  1
 21 22  2  0
 21 20  1  0
 23 22  1  0
 24 29  2  0
 24 23  1  0
 25 24  1  0
 26 27  1  0
 26 25  2  0
 27 28  2  0
 28 29  1  0
 29 21  1  0
 30 31  1  0
 32 30  2  0
M  END
$$$$
