HVW.pdb
     RDKit          3D

 32 34  0  0  1  0  0  0  0  0999 V2000
   24.6890  -18.3922  -19.2117 N   0  0  0  0  0  0  0  0  0  0  0  0
   24.4569  -18.2441  -17.8023 C   0  0  1  0  0  0  0  0  0  0  0  0
   22.9689  -18.1793  -17.5196 C   0  0  0  0  0  0  0  0  0  0  0  0
   22.4139  -16.8521  -17.9504 C   0  0  0  0  0  0  0  0  0  0  0  0
   22.1933  -15.7602  -17.1417 C   0  0  0  0  0  0  0  0  0  0  0  0
   21.6869  -14.7731  -17.8991 N   0  0  0  0  0  0  0  0  0  0  0  0
   21.5945  -15.2362  -19.1454 C   0  0  0  0  0  0  0  0  0  0  0  0
   22.0348  -16.5006  -19.1855 N   0  0  0  0  0  0  0  0  0  0  0  0
   25.0494  -19.4213  -17.0445 C   0  0  0  0  0  0  0  0  0  0  0  0
   24.8848  -20.5767  -17.4742 O   0  0  0  0  0  0  0  0  0  0  0  0
   28.7020  -18.9076  -14.9822 C   0  0  0  0  0  0  0  0  0  0  0  0
   27.9743  -20.1879  -15.3088 C   0  0  2  0  0  0  0  0  0  0  0  0
   28.1125  -20.4370  -16.7960 C   0  0  0  0  0  0  0  0  0  0  0  0
   26.5055  -19.9884  -15.0075 C   0  0  2  0  0  0  0  0  0  0  0  0
   25.7680  -19.1489  -15.8746 N   0  0  0  0  0  0  0  0  0  0  0  0
   26.3049  -19.7007  -13.5754 C   0  0  0  0  0  0  0  0  0  0  0  0
   26.3576  -18.5596  -13.0499 O   0  0  0  0  0  0  0  0  0  0  0  0
   26.0179  -20.7599  -12.6327 N   0  0  0  0  0  0  0  0  0  0  0  0
   25.8609  -20.4868  -11.2034 C   0  0  1  0  0  0  0  0  0  0  0  0
   24.6923  -19.6107  -10.9590 C   0  0  0  0  0  0  0  0  0  0  0  0
   23.4122  -20.1980  -11.3387 C   0  0  0  0  0  0  0  0  0  0  0  0
   22.5762  -20.9709  -10.5236 C   0  0  0  0  0  0  0  0  0  0  0  0
   21.5108  -21.3626  -11.2288 N   0  0  0  0  0  0  0  0  0  0  0  0
   21.5781  -20.8941  -12.4858 C   0  0  0  0  0  0  0  0  0  0  0  0
   20.7379  -20.9979  -13.5770 C   0  0  0  0  0  0  0  0  0  0  0  0
   21.0462  -20.3845  -14.7662 C   0  0  0  0  0  0  0  0  0  0  0  0
   22.2210  -19.6455  -14.8822 C   0  0  0  0  0  0  0  0  0  0  0  0
   23.0327  -19.5644  -13.7787 C   0  0  0  0  0  0  0  0  0  0  0  0
   22.7740  -20.1602  -12.5587 C   0  0  0  0  0  0  0  0  0  0  0  0
   25.8126  -21.7480  -10.4823 C   0  0  0  0  0  0  0  0  0  0  0  0
   25.7170  -21.9177   -9.1084 O   0  0  0  0  0  0  0  0  0  0  0  0
   25.8690  -22.8362  -11.1597 O   0  0  0  0  0  0  0  0  0  0  0  0
  2  1  1  6
  2  3  1  0
  3  4  1  0
  4  5  2  0
  6  5  1  0
  7  6  1  0
  8  7  2  0
  8  4  1  0
  9  2  1  0
 10  9  2  0
 12 14  1  0
 12 11  1  6
 13 12  1  0
 14 15  1  6
 15  9  1  0
 16 18  1  0
 16 14  1  0
 17 16  2  0
 19 30  1  0
 19 18  1  0
 19 20  1  6
 21 22  2  0
 21 20  1  0
 23 22  1  0
 24 29  2  0
 24 23  1  0
 25 24  1  0
 26 27  1  0
 26 25  2  0
 27 28  2  0
 28 29  1  0
 29 21  1  0
 30 31  1  0
 32 30  2  0
M  END
$$$$
