HVW.pdb
     RDKit          3D

 32 34  0  0  1  0  0  0  0  0999 V2000
   26.0261  -17.5228  -18.9068 N   0  0  0  0  0  0  0  0  0  0  0  0
   25.4382  -17.7858  -17.6233 C   0  0  1  0  0  0  0  0  0  0  0  0
   23.9397  -17.5618  -17.6768 C   0  0  0  0  0  0  0  0  0  0  0  0
   23.6372  -16.1026  -17.8620 C   0  0  0  0  0  0  0  0  0  0  0  0
   24.1575  -15.2800  -18.8355 C   0  0  0  0  0  0  0  0  0  0  0  0
   23.6464  -14.0499  -18.6619 N   0  0  0  0  0  0  0  0  0  0  0  0
   22.8301  -14.1037  -17.6099 C   0  0  0  0  0  0  0  0  0  0  0  0
   22.8186  -15.3492  -17.1170 N   0  0  0  0  0  0  0  0  0  0  0  0
   25.7047  -19.2233  -17.2066 C   0  0  0  0  0  0  0  0  0  0  0  0
   25.5088  -20.1462  -18.0168 O   0  0  0  0  0  0  0  0  0  0  0  0
   28.2032  -21.6329  -13.7542 C   0  0  0  0  0  0  0  0  0  0  0  0
   27.9891  -20.9606  -15.0875 C   0  0  2  0  0  0  0  0  0  0  0  0
   28.7491  -19.6510  -15.0773 C   0  0  0  0  0  0  0  0  0  0  0  0
   26.5173  -20.6405  -15.2261 C   0  0  2  0  0  0  0  0  0  0  0  0
   26.1679  -19.4500  -15.9053 N   0  0  0  0  0  0  0  0  0  0  0  0
   25.8235  -20.8252  -13.9382 C   0  0  0  0  0  0  0  0  0  0  0  0
   26.3705  -20.7856  -12.8068 O   0  0  0  0  0  0  0  0  0  0  0  0
   24.3993  -21.0737  -13.8847 N   0  0  0  0  0  0  0  0  0  0  0  0
   23.6727  -21.0759  -12.6142 C   0  0  1  0  0  0  0  0  0  0  0  0
   23.6852  -19.7298  -11.9971 C   0  0  0  0  0  0  0  0  0  0  0  0
   24.7526  -19.5256  -11.0240 C   0  0  0  0  0  0  0  0  0  0  0  0
   25.9636  -18.8582  -11.2443 C   0  0  0  0  0  0  0  0  0  0  0  0
   26.7025  -18.9050  -10.1318 N   0  0  0  0  0  0  0  0  0  0  0  0
   26.0547  -19.5714   -9.1622 C   0  0  0  0  0  0  0  0  0  0  0  0
   26.3710  -19.8729   -7.8520 C   0  0  0  0  0  0  0  0  0  0  0  0
   25.4922  -20.5642   -7.0548 C   0  0  0  0  0  0  0  0  0  0  0  0
   24.2626  -20.9709   -7.5669 C   0  0  0  0  0  0  0  0  0  0  0  0
   23.9819  -20.6553   -8.8726 C   0  0  0  0  0  0  0  0  0  0  0  0
   24.8264  -19.9636   -9.7203 C   0  0  0  0  0  0  0  0  0  0  0  0
   22.3393  -21.6119  -12.8316 C   0  0  0  0  0  0  0  0  0  0  0  0
   21.4583  -22.0694  -11.8620 O   0  0  0  0  0  0  0  0  0  0  0  0
   21.9058  -21.6888  -14.0367 O   0  0  0  0  0  0  0  0  0  0  0  0
  2  1  1  6
  2  3  1  0
  3  4  1  0
  4  5  2  0
  6  5  1  0
  7  6  1  0
  8  7  2  0
  8  4  1  0
  9  2  1  0
 10  9  2  0
 12 14  1  0
 12 11  1  1
 13 12  1  0
 14 15  1  1
 15  9  1  0
 16 18  1  0
 16 14  1  0
 17 16  2  0
 19 30  1  0
 19 18  1  0
 19 20  1  6
 21 22  2  0
 21 20  1  0
 23 22  1  0
 24 29  2  0
 24 23  1  0
 25 24  1  0
 26 27  1  0
 26 25  2  0
 27 28  2  0
 28 29  1  0
 29 21  1  0
 30 31  1  0
 32 30  2  0
M  END
$$$$
