HVW.pdb
     RDKit          3D

 32 34  0  0  1  0  0  0  0  0999 V2000
   23.7183  -19.1996  -15.8518 N   0  0  0  0  0  0  0  0  0  0  0  0
   23.9972  -18.6913  -14.5380 C   0  0  1  0  0  0  0  0  0  0  0  0
   22.7384  -18.1145  -13.9206 C   0  0  0  0  0  0  0  0  0  0  0  0
   22.2112  -16.9907  -14.7655 C   0  0  0  0  0  0  0  0  0  0  0  0
   22.8336  -15.7850  -14.9980 C   0  0  0  0  0  0  0  0  0  0  0  0
   22.0415  -15.0518  -15.7977 N   0  0  0  0  0  0  0  0  0  0  0  0
   20.9557  -15.7797  -16.0570 C   0  0  0  0  0  0  0  0  0  0  0  0
   21.0507  -16.9610  -15.4328 N   0  0  0  0  0  0  0  0  0  0  0  0
   24.5176  -19.8039  -13.6424 C   0  0  0  0  0  0  0  0  0  0  0  0
   23.7353  -20.6765  -13.2259 O   0  0  0  0  0  0  0  0  0  0  0  0
   28.6590  -21.9373  -11.9505 C   0  0  0  0  0  0  0  0  0  0  0  0
   28.0685  -20.9466  -12.9228 C   0  0  2  0  0  0  0  0  0  0  0  0
   28.8681  -19.6643  -12.8260 C   0  0  0  0  0  0  0  0  0  0  0  0
   26.6520  -20.6426  -12.4882 C   0  0  2  0  0  0  0  0  0  0  0  0
   25.8796  -19.7983  -13.3196 N   0  0  0  0  0  0  0  0  0  0  0  0
   26.6152  -20.2790  -11.0597 C   0  0  0  0  0  0  0  0  0  0  0  0
   27.4689  -19.5697  -10.4690 O   0  0  0  0  0  0  0  0  0  0  0  0
   25.5434  -20.7321  -10.2000 N   0  0  0  0  0  0  0  0  0  0  0  0
   25.7429  -20.9077   -8.7607 C   0  0  1  0  0  0  0  0  0  0  0  0
   25.6981  -19.6045   -8.0590 C   0  0  0  0  0  0  0  0  0  0  0  0
   26.9550  -19.2200   -7.4264 C   0  0  0  0  0  0  0  0  0  0  0  0
   27.8651  -18.2649   -7.8954 C   0  0  0  0  0  0  0  0  0  0  0  0
   28.9153  -18.2130   -7.0707 N   0  0  0  0  0  0  0  0  0  0  0  0
   28.7663  -19.0858   -6.0607 C   0  0  0  0  0  0  0  0  0  0  0  0
   29.5423  -19.3972   -4.9614 C   0  0  0  0  0  0  0  0  0  0  0  0
   29.1296  -20.3373   -4.0496 C   0  0  0  0  0  0  0  0  0  0  0  0
   27.9128  -20.9910   -4.2284 C   0  0  0  0  0  0  0  0  0  0  0  0
   27.1683  -20.6577   -5.3320 C   0  0  0  0  0  0  0  0  0  0  0  0
   27.5331  -19.7217   -6.2813 C   0  0  0  0  0  0  0  0  0  0  0  0
   24.7812  -21.8777   -8.2638 C   0  0  0  0  0  0  0  0  0  0  0  0
   23.6934  -22.3979   -8.9508 O   0  0  0  0  0  0  0  0  0  0  0  0
   24.9228  -22.3126   -7.0650 O   0  0  0  0  0  0  0  0  0  0  0  0
  2  1  1  6
  2  3  1  0
  3  4  1  0
  4  5  2  0
  6  5  1  0
  7  6  1  0
  8  7  2  0
  8  4  1  0
  9  2  1  0
 10  9  2  0
 12 14  1  0
 12 11  1  1
 13 12  1  0
 14 15  1  6
 15  9  1  0
 16 18  1  0
 16 14  1  0
 17 16  2  0
 19 30  1  0
 19 18  1  0
 19 20  1  1
 21 22  2  0
 21 20  1  0
 23 22  1  0
 24 29  2  0
 24 23  1  0
 25 24  1  0
 26 27  1  0
 26 25  2  0
 27 28  2  0
 28 29  1  0
 29 21  1  0
 30 31  1  0
 32 30  2  0
M  END
$$$$
