HVW.pdb
     RDKit          3D

 32 34  0  0  1  0  0  0  0  0999 V2000
   28.6900  -21.4871  -18.5613 N   0  0  0  0  0  0  0  0  0  0  0  0
   27.6690  -21.7316  -17.5814 C   0  0  1  0  0  0  0  0  0  0  0  0
   27.2896  -23.1994  -17.5741 C   0  0  0  0  0  0  0  0  0  0  0  0
   26.4369  -23.5232  -18.7669 C   0  0  0  0  0  0  0  0  0  0  0  0
   26.5558  -24.6300  -19.5769 C   0  0  0  0  0  0  0  0  0  0  0  0
   25.6150  -24.5528  -20.5327 N   0  0  0  0  0  0  0  0  0  0  0  0
   24.9285  -23.4297  -20.3247 C   0  0  0  0  0  0  0  0  0  0  0  0
   25.4220  -22.7969  -19.2522 N   0  0  0  0  0  0  0  0  0  0  0  0
   28.1646  -21.3461  -16.1970 C   0  0  0  0  0  0  0  0  0  0  0  0
   29.3706  -21.4672  -15.9183 O   0  0  0  0  0  0  0  0  0  0  0  0
   25.9231  -18.3181  -14.2697 C   0  0  0  0  0  0  0  0  0  0  0  0
   27.3225  -18.7610  -13.9217 C   0  0  2  0  0  0  0  0  0  0  0  0
   28.2622  -18.2067  -14.9717 C   0  0  0  0  0  0  0  0  0  0  0  0
   27.3760  -20.2704  -14.0033 C   0  0  2  0  0  0  0  0  0  0  0  0
   27.2251  -20.8623  -15.2790 N   0  0  0  0  0  0  0  0  0  0  0  0
   26.5346  -20.8760  -12.9548 C   0  0  0  0  0  0  0  0  0  0  0  0
   25.4213  -21.4281  -13.1463 O   0  0  0  0  0  0  0  0  0  0  0  0
   26.9523  -20.8793  -11.5697 N   0  0  0  0  0  0  0  0  0  0  0  0
   26.1179  -21.4711  -10.5230 C   0  0  1  0  0  0  0  0  0  0  0  0
   26.9184  -21.7617   -9.3115 C   0  0  0  0  0  0  0  0  0  0  0  0
   27.1803  -20.5979   -8.4719 C   0  0  0  0  0  0  0  0  0  0  0  0
   26.5060  -19.3715   -8.5150 C   0  0  0  0  0  0  0  0  0  0  0  0
   27.0486  -18.5375   -7.6228 N   0  0  0  0  0  0  0  0  0  0  0  0
   28.0603  -19.1350   -6.9720 C   0  0  0  0  0  0  0  0  0  0  0  0
   28.9107  -18.7193   -5.9663 C   0  0  0  0  0  0  0  0  0  0  0  0
   29.8650  -19.5638   -5.4548 C   0  0  0  0  0  0  0  0  0  0  0  0
   29.9841  -20.8594   -5.9517 C   0  0  0  0  0  0  0  0  0  0  0  0
   29.1236  -21.2384   -6.9514 C   0  0  0  0  0  0  0  0  0  0  0  0
   28.1462  -20.4326   -7.5040 C   0  0  0  0  0  0  0  0  0  0  0  0
   24.9759  -20.6051  -10.2807 C   0  0  0  0  0  0  0  0  0  0  0  0
   23.7677  -20.9642   -9.7002 O   0  0  0  0  0  0  0  0  0  0  0  0
   25.0616  -19.3752  -10.6362 O   0  0  0  0  0  0  0  0  0  0  0  0
  2  1  1  6
  2  3  1  0
  3  4  1  0
  4  5  2  0
  6  5  1  0
  7  6  1  0
  8  7  2  0
  8  4  1  0
  9  2  1  0
 10  9  2  0
 12 14  1  0
 12 11  1  6
 13 12  1  0
 14 15  1  6
 15  9  1  0
 16 18  1  0
 16 14  1  0
 17 16  2  0
 19 30  1  0
 19 18  1  0
 19 20  1  1
 21 22  2  0
 21 20  1  0
 23 22  1  0
 24 29  2  0
 24 23  1  0
 25 24  1  0
 26 27  1  0
 26 25  2  0
 27 28  2  0
 28 29  1  0
 29 21  1  0
 30 31  1  0
 32 30  2  0
M  END
$$$$
