HVW.pdb
     RDKit          3D

 32 34  0  0  1  0  0  0  0  0999 V2000
   28.6794  -21.0190  -18.9606 N   0  0  0  0  0  0  0  0  0  0  0  0
   29.3182  -21.6266  -17.8270 C   0  0  1  0  0  0  0  0  0  0  0  0
   30.8074  -21.7642  -18.0755 C   0  0  0  0  0  0  0  0  0  0  0  0
   31.0644  -22.7758  -19.1550 C   0  0  0  0  0  0  0  0  0  0  0  0
   31.3347  -22.5052  -20.4774 C   0  0  0  0  0  0  0  0  0  0  0  0
   31.4995  -23.6737  -21.1192 N   0  0  0  0  0  0  0  0  0  0  0  0
   31.3368  -24.6460  -20.2223 C   0  0  0  0  0  0  0  0  0  0  0  0
   31.0718  -24.1085  -19.0244 N   0  0  0  0  0  0  0  0  0  0  0  0
   29.1045  -20.7775  -16.5843 C   0  0  0  0  0  0  0  0  0  0  0  0
   30.0383  -20.0843  -16.1436 O   0  0  0  0  0  0  0  0  0  0  0  0
   27.1088  -17.9229  -16.0087 C   0  0  0  0  0  0  0  0  0  0  0  0
   26.3571  -18.9534  -15.2035 C   0  0  2  0  0  0  0  0  0  0  0  0
   25.9490  -18.3147  -13.8926 C   0  0  0  0  0  0  0  0  0  0  0  0
   27.3027  -20.0914  -14.8891 C   0  0  2  0  0  0  0  0  0  0  0  0
   27.8429  -20.8131  -15.9790 N   0  0  0  0  0  0  0  0  0  0  0  0
   26.7522  -20.9412  -13.8173 C   0  0  0  0  0  0  0  0  0  0  0  0
   26.0230  -21.9504  -13.9933 O   0  0  0  0  0  0  0  0  0  0  0  0
   27.0278  -20.6614  -12.4249 N   0  0  0  0  0  0  0  0  0  0  0  0
   26.5924  -21.5704  -11.3637 C   0  0  1  0  0  0  0  0  0  0  0  0
   27.6371  -21.7049  -10.3228 C   0  0  0  0  0  0  0  0  0  0  0  0
   27.4228  -20.8698   -9.1461 C   0  0  0  0  0  0  0  0  0  0  0  0
   26.2909  -20.0925   -8.8717 C   0  0  0  0  0  0  0  0  0  0  0  0
   26.4730  -19.4381   -7.7209 N   0  0  0  0  0  0  0  0  0  0  0  0
   27.6740  -19.7311   -7.1957 C   0  0  0  0  0  0  0  0  0  0  0  0
   28.3174  -19.3404   -6.0376 C   0  0  0  0  0  0  0  0  0  0  0  0
   29.5642  -19.8237   -5.7255 C   0  0  0  0  0  0  0  0  0  0  0  0
   30.1961  -20.7207   -6.5833 C   0  0  0  0  0  0  0  0  0  0  0  0
   29.5283  -21.0862   -7.7252 C   0  0  0  0  0  0  0  0  0  0  0  0
   28.2749  -20.6324   -8.0903 C   0  0  0  0  0  0  0  0  0  0  0  0
   25.3070  -21.1227  -10.8538 C   0  0  0  0  0  0  0  0  0  0  0  0
   24.3785  -21.8821  -10.1560 O   0  0  0  0  0  0  0  0  0  0  0  0
   24.9639  -19.9038  -11.0607 O   0  0  0  0  0  0  0  0  0  0  0  0
  2  1  1  6
  2  3  1  0
  3  4  1  0
  4  5  2  0
  6  5  1  0
  7  6  1  0
  8  7  2  0
  8  4  1  0
  9  2  1  0
 10  9  2  0
 12 14  1  0
 12 11  1  6
 13 12  1  0
 14 15  1  6
 15  9  1  0
 16 18  1  0
 16 14  1  0
 17 16  2  0
 19 30  1  0
 19 18  1  0
 19 20  1  1
 21 22  2  0
 21 20  1  0
 23 22  1  0
 24 29  2  0
 24 23  1  0
 25 24  1  0
 26 27  1  0
 26 25  2  0
 27 28  2  0
 28 29  1  0
 29 21  1  0
 30 31  1  0
 32 30  2  0
M  END
$$$$
