HVW.pdb
     RDKit          3D

 32 34  0  0  1  0  0  0  0  0999 V2000
   15.0623  -23.3156   -2.6002 N   0  0  0  0  0  0  0  0  0  0  0  0
   13.7670  -22.9125   -2.1292 C   0  0  1  0  0  0  0  0  0  0  0  0
   12.6855  -23.4431   -3.0498 C   0  0  0  0  0  0  0  0  0  0  0  0
   12.8680  -22.8975   -4.4368 C   0  0  0  0  0  0  0  0  0  0  0  0
   12.7676  -21.5769   -4.8125 C   0  0  0  0  0  0  0  0  0  0  0  0
   12.9932  -21.4990   -6.1344 N   0  0  0  0  0  0  0  0  0  0  0  0
   13.2279  -22.7360   -6.5711 C   0  0  0  0  0  0  0  0  0  0  0  0
   13.1537  -23.5933   -5.5446 N   0  0  0  0  0  0  0  0  0  0  0  0
   13.5255  -23.4500   -0.7278 C   0  0  0  0  0  0  0  0  0  0  0  0
   12.7714  -24.4252   -0.5632 O   0  0  0  0  0  0  0  0  0  0  0  0
   16.2603  -24.5734    1.8365 C   0  0  0  0  0  0  0  0  0  0  0  0
   14.7687  -24.5299    2.0578 C   0  0  2  0  0  0  0  0  0  0  0  0
   14.1254  -25.5059    1.0953 C   0  0  0  0  0  0  0  0  0  0  0  0
   14.2778  -23.1428    1.7075 C   0  0  2  0  0  0  0  0  0  0  0  0
   14.1743  -22.8124    0.3361 N   0  0  0  0  0  0  0  0  0  0  0  0
   14.9708  -22.1271    2.5213 C   0  0  0  0  0  0  0  0  0  0  0  0
   16.0669  -21.5857    2.2274 O   0  0  0  0  0  0  0  0  0  0  0  0
   14.4104  -21.6598    3.7705 N   0  0  0  0  0  0  0  0  0  0  0  0
   15.0911  -20.6487    4.5808 C   0  0  1  0  0  0  0  0  0  0  0  0
   14.1179  -19.6965    5.1631 C   0  0  0  0  0  0  0  0  0  0  0  0
   13.4407  -20.1865    6.3586 C   0  0  0  0  0  0  0  0  0  0  0  0
   14.0267  -20.4293    7.6069 C   0  0  0  0  0  0  0  0  0  0  0  0
   13.1009  -20.9064    8.4442 N   0  0  0  0  0  0  0  0  0  0  0  0
   11.9109  -21.0006    7.8286 C   0  0  0  0  0  0  0  0  0  0  0  0
   10.6604  -21.4076    8.2509 C   0  0  0  0  0  0  0  0  0  0  0  0
    9.5840  -21.3800    7.3987 C   0  0  0  0  0  0  0  0  0  0  0  0
    9.7469  -20.9371    6.0884 C   0  0  0  0  0  0  0  0  0  0  0  0
   11.0030  -20.5413    5.7025 C   0  0  0  0  0  0  0  0  0  0  0  0
   12.1209  -20.5482    6.5151 C   0  0  0  0  0  0  0  0  0  0  0  0
   15.9258  -21.3147    5.5668 C   0  0  0  0  0  0  0  0  0  0  0  0
   16.8919  -20.7278    6.3718 O   0  0  0  0  0  0  0  0  0  0  0  0
   15.7819  -22.5795    5.7282 O   0  0  0  0  0  0  0  0  0  0  0  0
  2  1  1  6
  2  3  1  0
  3  4  1  0
  4  5  2  0
  6  5  1  0
  7  6  1  0
  8  7  2  0
  8  4  1  0
  9  2  1  0
 10  9  2  0
 12 14  1  0
 12 11  1  6
 13 12  1  0
 14 15  1  6
 15  9  1  0
 16 18  1  0
 16 14  1  0
 17 16  2  0
 19 30  1  0
 19 18  1  0
 19 20  1  1
 21 22  2  0
 21 20  1  0
 23 22  1  0
 24 29  2  0
 24 23  1  0
 25 24  1  0
 26 27  1  0
 26 25  2  0
 27 28  2  0
 28 29  1  0
 29 21  1  0
 30 31  1  0
 32 30  2  0
M  END
$$$$
