HVW.pdb
     RDKit          3D

 32 34  0  0  1  0  0  0  0  0999 V2000
   23.3120  -19.8156  -15.1425 N   0  0  0  0  0  0  0  0  0  0  0  0
   23.6322  -19.3284  -13.8301 C   0  0  1  0  0  0  0  0  0  0  0  0
   22.3644  -19.1090  -13.0282 C   0  0  0  0  0  0  0  0  0  0  0  0
   21.5130  -18.0560  -13.6771 C   0  0  0  0  0  0  0  0  0  0  0  0
   21.7906  -17.3936  -14.8515 C   0  0  0  0  0  0  0  0  0  0  0  0
   20.7907  -16.5293  -15.0917 N   0  0  0  0  0  0  0  0  0  0  0  0
   19.9139  -16.6493  -14.0952 C   0  0  0  0  0  0  0  0  0  0  0  0
   20.3456  -17.5762  -13.2299 N   0  0  0  0  0  0  0  0  0  0  0  0
   24.5097  -20.3297  -13.0963 C   0  0  0  0  0  0  0  0  0  0  0  0
   24.0968  -21.4872  -12.9052 O   0  0  0  0  0  0  0  0  0  0  0  0
   28.2628  -20.7153  -13.8576 C   0  0  0  0  0  0  0  0  0  0  0  0
   28.2079  -20.3853  -12.3867 C   0  0  2  0  0  0  0  0  0  0  0  0
   29.0576  -21.3985  -11.6490 C   0  0  0  0  0  0  0  0  0  0  0  0
   26.7795  -20.5496  -11.9170 C   0  0  2  0  0  0  0  0  0  0  0  0
   25.7676  -19.8978  -12.6598 N   0  0  0  0  0  0  0  0  0  0  0  0
   26.6862  -20.3419  -10.4603 C   0  0  0  0  0  0  0  0  0  0  0  0
   27.2370  -19.4081   -9.8234 O   0  0  0  0  0  0  0  0  0  0  0  0
   25.9168  -21.2380   -9.6247 N   0  0  0  0  0  0  0  0  0  0  0  0
   25.8578  -21.0646   -8.1726 C   0  0  1  0  0  0  0  0  0  0  0  0
   25.9448  -19.6318   -7.8084 C   0  0  0  0  0  0  0  0  0  0  0  0
   27.1669  -19.2655   -7.1013 C   0  0  0  0  0  0  0  0  0  0  0  0
   27.9685  -18.1446   -7.3498 C   0  0  0  0  0  0  0  0  0  0  0  0
   29.0215  -18.1635   -6.5273 N   0  0  0  0  0  0  0  0  0  0  0  0
   28.9778  -19.2426   -5.7287 C   0  0  0  0  0  0  0  0  0  0  0  0
   29.7992  -19.7011   -4.7174 C   0  0  0  0  0  0  0  0  0  0  0  0
   29.4983  -20.8514   -4.0305 C   0  0  0  0  0  0  0  0  0  0  0  0
   28.3507  -21.5721   -4.3519 C   0  0  0  0  0  0  0  0  0  0  0  0
   27.5583  -21.0882   -5.3625 C   0  0  0  0  0  0  0  0  0  0  0  0
   27.8113  -19.9388   -6.0872 C   0  0  0  0  0  0  0  0  0  0  0  0
   24.6705  -21.7308   -7.6635 C   0  0  0  0  0  0  0  0  0  0  0  0
   24.4355  -22.1266   -6.3544 O   0  0  0  0  0  0  0  0  0  0  0  0
   23.7258  -22.0004   -8.4887 O   0  0  0  0  0  0  0  0  0  0  0  0
  2  1  1  6
  2  3  1  0
  3  4  1  0
  4  5  2  0
  6  5  1  0
  7  6  1  0
  8  7  2  0
  8  4  1  0
  9  2  1  0
 10  9  2  0
 12 14  1  0
 12 11  1  6
 13 12  1  0
 14 15  1  6
 15  9  1  0
 16 18  1  0
 16 14  1  0
 17 16  2  0
 19 30  1  0
 19 18  1  0
 19 20  1  6
 21 22  2  0
 21 20  1  0
 23 22  1  0
 24 29  2  0
 24 23  1  0
 25 24  1  0
 26 27  1  0
 26 25  2  0
 27 28  2  0
 28 29  1  0
 29 21  1  0
 30 31  1  0
 32 30  2  0
M  END
$$$$
