HVW.pdb
     RDKit          3D

 32 34  0  0  1  0  0  0  0  0999 V2000
   24.1346  -16.0701  -18.3674 N   0  0  0  0  0  0  0  0  0  0  0  0
   23.4561  -14.8049  -18.4023 C   0  0  1  0  0  0  0  0  0  0  0  0
   21.9787  -15.0092  -18.6743 C   0  0  0  0  0  0  0  0  0  0  0  0
   21.7810  -15.6724  -20.0069 C   0  0  0  0  0  0  0  0  0  0  0  0
   21.2397  -16.9194  -20.2240 C   0  0  0  0  0  0  0  0  0  0  0  0
   21.2391  -17.1515  -21.5471 N   0  0  0  0  0  0  0  0  0  0  0  0
   21.7650  -16.0794  -22.1388 C   0  0  0  0  0  0  0  0  0  0  0  0
   22.0976  -15.1744  -21.2089 N   0  0  0  0  0  0  0  0  0  0  0  0
   23.6152  -14.0852  -17.0727 C   0  0  0  0  0  0  0  0  0  0  0  0
   23.2816  -14.6560  -16.0192 O   0  0  0  0  0  0  0  0  0  0  0  0
   25.6227  -10.2280  -14.7611 C   0  0  0  0  0  0  0  0  0  0  0  0
   25.6906  -11.2476  -15.8708 C   0  0  2  0  0  0  0  0  0  0  0  0
   26.0771  -10.5259  -17.1447 C   0  0  0  0  0  0  0  0  0  0  0  0
   24.3070  -11.8261  -16.0682 C   0  0  2  0  0  0  0  0  0  0  0  0
   24.1400  -12.7877  -17.0919 N   0  0  0  0  0  0  0  0  0  0  0  0
   23.2940  -10.7548  -16.0769 C   0  0  0  0  0  0  0  0  0  0  0  0
   22.9676  -10.0724  -17.0813 O   0  0  0  0  0  0  0  0  0  0  0  0
   22.5703  -10.4000  -14.8755 N   0  0  0  0  0  0  0  0  0  0  0  0
   21.5574   -9.3434  -14.8793 C   0  0  1  0  0  0  0  0  0  0  0  0
   20.2032   -9.9101  -14.6845 C   0  0  0  0  0  0  0  0  0  0  0  0
   19.1418   -8.9131  -14.6010 C   0  0  0  0  0  0  0  0  0  0  0  0
   18.5397   -8.4339  -13.4312 C   0  0  0  0  0  0  0  0  0  0  0  0
   17.5839   -7.5573  -13.7535 N   0  0  0  0  0  0  0  0  0  0  0  0
   17.5044   -7.4140  -15.0866 C   0  0  0  0  0  0  0  0  0  0  0  0
   16.7125   -6.6329  -15.9054 C   0  0  0  0  0  0  0  0  0  0  0  0
   16.8609   -6.6650  -17.2702 C   0  0  0  0  0  0  0  0  0  0  0  0
   17.8210   -7.4942  -17.8450 C   0  0  0  0  0  0  0  0  0  0  0  0
   18.5892   -8.2571  -17.0017 C   0  0  0  0  0  0  0  0  0  0  0  0
   18.4839   -8.2661  -15.6237 C   0  0  0  0  0  0  0  0  0  0  0  0
   21.9207   -8.3349  -13.8977 C   0  0  0  0  0  0  0  0  0  0  0  0
   21.6480   -6.9758  -13.9612 O   0  0  0  0  0  0  0  0  0  0  0  0
   22.5680   -8.7092  -12.8550 O   0  0  0  0  0  0  0  0  0  0  0  0
  2  1  1  1
  2  3  1  0
  3  4  1  0
  4  5  2  0
  6  5  1  0
  7  6  1  0
  8  7  2  0
  8  4  1  0
  9  2  1  0
 10  9  2  0
 12 14  1  0
 12 11  1  1
 13 12  1  0
 14 15  1  6
 15  9  1  0
 16 18  1  0
 16 14  1  0
 17 16  2  0
 19 30  1  0
 19 18  1  0
 19 20  1  1
 21 22  2  0
 21 20  1  0
 23 22  1  0
 24 29  2  0
 24 23  1  0
 25 24  1  0
 26 27  1  0
 26 25  2  0
 27 28  2  0
 28 29  1  0
 29 21  1  0
 30 31  1  0
 32 30  2  0
M  END
$$$$
