HVW.pdb
     RDKit          3D

 32 34  0  0  1  0  0  0  0  0999 V2000
   23.6847  -19.5532  -15.9550 N   0  0  0  0  0  0  0  0  0  0  0  0
   23.9106  -19.0326  -14.6359 C   0  0  1  0  0  0  0  0  0  0  0  0
   22.6112  -18.5249  -14.0425 C   0  0  0  0  0  0  0  0  0  0  0  0
   22.0685  -17.3935  -14.8673 C   0  0  0  0  0  0  0  0  0  0  0  0
   21.0678  -17.4787  -15.8088 C   0  0  0  0  0  0  0  0  0  0  0  0
   20.8752  -16.2546  -16.3276 N   0  0  0  0  0  0  0  0  0  0  0  0
   21.7315  -15.4291  -15.7266 C   0  0  0  0  0  0  0  0  0  0  0  0
   22.4616  -16.1139  -14.8365 N   0  0  0  0  0  0  0  0  0  0  0  0
   24.4726  -20.1171  -13.7309 C   0  0  0  0  0  0  0  0  0  0  0  0
   23.7977  -21.1351  -13.4967 O   0  0  0  0  0  0  0  0  0  0  0  0
   28.7591  -19.8022  -12.8055 C   0  0  0  0  0  0  0  0  0  0  0  0
   27.9369  -21.0668  -12.7872 C   0  0  2  0  0  0  0  0  0  0  0  0
   27.8435  -21.5834  -14.2075 C   0  0  0  0  0  0  0  0  0  0  0  0
   26.5385  -20.7163  -12.3294 C   0  0  2  0  0  0  0  0  0  0  0  0
   25.7487  -19.9194  -13.1906 N   0  0  0  0  0  0  0  0  0  0  0  0
   26.5518  -20.2580  -10.9281 C   0  0  0  0  0  0  0  0  0  0  0  0
   27.2779  -19.3383  -10.4719 O   0  0  0  0  0  0  0  0  0  0  0  0
   25.6888  -20.8609   -9.9357 N   0  0  0  0  0  0  0  0  0  0  0  0
   26.0125  -20.8066   -8.5094 C   0  0  1  0  0  0  0  0  0  0  0  0
   25.9754  -19.4119   -8.0127 C   0  0  0  0  0  0  0  0  0  0  0  0
   27.1473  -19.0196   -7.2378 C   0  0  0  0  0  0  0  0  0  0  0  0
   28.1522  -18.1312   -7.6399 C   0  0  0  0  0  0  0  0  0  0  0  0
   29.0792  -18.0494   -6.6808 N   0  0  0  0  0  0  0  0  0  0  0  0
   28.7558  -18.8381   -5.6428 C   0  0  0  0  0  0  0  0  0  0  0  0
   29.3585  -19.0891   -4.4257 C   0  0  0  0  0  0  0  0  0  0  0  0
   28.7851  -19.9442   -3.5171 C   0  0  0  0  0  0  0  0  0  0  0  0
   27.5790  -20.5717   -3.8194 C   0  0  0  0  0  0  0  0  0  0  0  0
   27.0090  -20.3002   -5.0379 C   0  0  0  0  0  0  0  0  0  0  0  0
   27.5400  -19.4506   -5.9899 C   0  0  0  0  0  0  0  0  0  0  0  0
   25.1330  -21.7120   -7.7888 C   0  0  0  0  0  0  0  0  0  0  0  0
   24.1060  -22.4763   -8.3245 O   0  0  0  0  0  0  0  0  0  0  0  0
   25.2945  -21.8339   -6.5218 O   0  0  0  0  0  0  0  0  0  0  0  0
  2  1  1  6
  2  3  1  0
  3  4  1  0
  4  5  2  0
  6  5  1  0
  7  6  1  0
  8  7  2  0
  8  4  1  0
  9  2  1  0
 10  9  2  0
 12 14  1  0
 12 11  1  6
 13 12  1  0
 14 15  1  6
 15  9  1  0
 16 18  1  0
 16 14  1  0
 17 16  2  0
 19 30  1  0
 19 18  1  0
 19 20  1  1
 21 22  2  0
 21 20  1  0
 23 22  1  0
 24 29  2  0
 24 23  1  0
 25 24  1  0
 26 27  1  0
 26 25  2  0
 27 28  2  0
 28 29  1  0
 29 21  1  0
 30 31  1  0
 32 30  2  0
M  END
$$$$
