HVW.pdb
     RDKit          3D

 32 34  0  0  1  0  0  0  0  0999 V2000
   19.9791  -25.8622  -15.1886 N   0  0  0  0  0  0  0  0  0  0  0  0
   20.2704  -24.7039  -14.3914 C   0  0  1  0  0  0  0  0  0  0  0  0
   19.2603  -24.5722  -13.2685 C   0  0  0  0  0  0  0  0  0  0  0  0
   17.9516  -24.0645  -13.8017 C   0  0  0  0  0  0  0  0  0  0  0  0
   17.4954  -22.7671  -13.7408 C   0  0  0  0  0  0  0  0  0  0  0  0
   16.2851  -22.7207  -14.3218 N   0  0  0  0  0  0  0  0  0  0  0  0
   15.9946  -23.9544  -14.7338 C   0  0  0  0  0  0  0  0  0  0  0  0
   17.0033  -24.7785  -14.4213 N   0  0  0  0  0  0  0  0  0  0  0  0
   21.6618  -24.8155  -13.7891 C   0  0  0  0  0  0  0  0  0  0  0  0
   22.0366  -25.8957  -13.2998 O   0  0  0  0  0  0  0  0  0  0  0  0
   24.6343  -22.3002  -15.3731 C   0  0  0  0  0  0  0  0  0  0  0  0
   24.8888  -23.4596  -14.4422 C   0  0  2  0  0  0  0  0  0  0  0  0
   24.7598  -24.7383  -15.2431 C   0  0  0  0  0  0  0  0  0  0  0  0
   23.8073  -23.4648  -13.3848 C   0  0  2  0  0  0  0  0  0  0  0  0
   22.4757  -23.6770  -13.8120 N   0  0  0  0  0  0  0  0  0  0  0  0
   23.9715  -22.3199  -12.4703 C   0  0  0  0  0  0  0  0  0  0  0  0
   23.2255  -21.3085  -12.4321 O   0  0  0  0  0  0  0  0  0  0  0  0
   25.0507  -22.2804  -11.5075 N   0  0  0  0  0  0  0  0  0  0  0  0
   25.3036  -21.0904  -10.6939 C   0  0  1  0  0  0  0  0  0  0  0  0
   26.5057  -21.2748   -9.8489 C   0  0  0  0  0  0  0  0  0  0  0  0
   26.7381  -20.1978   -8.8930 C   0  0  0  0  0  0  0  0  0  0  0  0
   26.9852  -18.8535   -9.1971 C   0  0  0  0  0  0  0  0  0  0  0  0
   27.1855  -18.1738   -8.0641 N   0  0  0  0  0  0  0  0  0  0  0  0
   27.0866  -18.9885   -7.0008 C   0  0  0  0  0  0  0  0  0  0  0  0
   27.1883  -18.7787   -5.6395 C   0  0  0  0  0  0  0  0  0  0  0  0
   27.0150  -19.8114   -4.7512 C   0  0  0  0  0  0  0  0  0  0  0  0
   26.7326  -21.0917   -5.2212 C   0  0  0  0  0  0  0  0  0  0  0  0
   26.6397  -21.2641   -6.5795 C   0  0  0  0  0  0  0  0  0  0  0  0
   26.8049  -20.2638   -7.5188 C   0  0  0  0  0  0  0  0  0  0  0  0
   25.3670  -19.9269  -11.5627 C   0  0  0  0  0  0  0  0  0  0  0  0
   24.6538  -18.7446  -11.4233 O   0  0  0  0  0  0  0  0  0  0  0  0
   26.1512  -19.9699  -12.5773 O   0  0  0  0  0  0  0  0  0  0  0  0
  2  1  1  1
  2  3  1  0
  3  4  1  0
  4  5  2  0
  6  5  1  0
  7  6  1  0
  8  7  2  0
  8  4  1  0
  9  2  1  0
 10  9  2  0
 12 14  1  0
 12 11  1  6
 13 12  1  0
 14 15  1  6
 15  9  1  0
 16 18  1  0
 16 14  1  0
 17 16  2  0
 19 30  1  0
 19 18  1  0
 19 20  1  6
 21 22  2  0
 21 20  1  0
 23 22  1  0
 24 29  2  0
 24 23  1  0
 25 24  1  0
 26 27  1  0
 26 25  2  0
 27 28  2  0
 28 29  1  0
 29 21  1  0
 30 31  1  0
 32 30  2  0
M  END
$$$$
