WRN.pdb
     RDKit          3D

 34 35  0  0  1  0  0  0  0  0999 V2000
   25.4504  -16.8902  -18.3721 N   0  0  0  0  0  0  0  0  0  0  0  0
   26.1138  -17.8711  -17.5589 C   0  0  1  0  0  0  0  0  0  0  0  0
   26.1403  -17.4216  -16.1202 C   0  0  0  0  0  0  0  0  0  0  0  0
   26.8116  -16.1127  -15.9630 C   0  0  0  0  0  0  0  0  0  0  0  0
   26.3452  -15.0036  -15.2944 C   0  0  0  0  0  0  0  0  0  0  0  0
   27.2729  -14.0406  -15.4023 N   0  0  0  0  0  0  0  0  0  0  0  0
   28.3225  -14.4935  -16.1192 C   0  0  0  0  0  0  0  0  0  0  0  0
   29.5253  -13.9510  -16.5312 C   0  0  0  0  0  0  0  0  0  0  0  0
   30.4069  -14.7116  -17.2798 C   0  0  0  0  0  0  0  0  0  0  0  0
   30.1346  -16.0123  -17.6407 C   0  0  0  0  0  0  0  0  0  0  0  0
   28.9444  -16.5473  -17.2323 C   0  0  0  0  0  0  0  0  0  0  0  0
   28.0414  -15.7950  -16.4757 C   0  0  0  0  0  0  0  0  0  0  0  0
   25.4214  -19.1802  -17.6501 C   0  0  0  0  0  0  0  0  0  0  0  0
   24.1700  -19.2110  -17.6370 O   0  0  0  0  0  0  0  0  0  0  0  0
   30.6733  -23.9830  -15.4931 N   0  0  0  0  0  0  0  0  0  0  0  0
   30.2720  -24.8881  -16.5020 C   0  0  0  0  0  0  0  0  0  0  0  0
   30.6587  -26.1214  -16.4228 N   0  0  0  0  0  0  0  0  0  0  0  0
   29.4648  -24.5000  -17.5948 N   0  0  0  0  0  0  0  0  0  0  0  0
   28.9516  -23.1255  -17.6616 C   0  0  0  0  0  0  0  0  0  0  0  0
   27.6324  -23.0165  -16.9086 C   0  0  0  0  0  0  0  0  0  0  0  0
   26.4731  -22.8573  -17.8407 C   0  0  0  0  0  0  0  0  0  0  0  0
   25.5946  -21.6887  -17.5862 C   0  0  2  0  0  0  0  0  0  0  0  0
   26.1580  -20.3966  -17.7521 N   0  0  0  0  0  0  0  0  0  0  0  0
   24.7322  -21.8480  -16.3701 C   0  0  0  0  0  0  0  0  0  0  0  0
   25.1647  -21.3125  -15.3228 O   0  0  0  0  0  0  0  0  0  0  0  0
   30.3842  -26.8442  -17.1253 N   0  0  0  0  0  0  0  0  0  0  0  0
   23.8883  -20.8903  -12.1587 C   0  0  0  0  0  0  0  0  0  0  0  0
   23.2859  -21.6633  -13.1645 O   0  0  0  0  0  0  0  0  0  0  0  0
   23.0845  -22.8936  -12.9003 C   0  0  0  0  0  0  0  0  0  0  0  0
   22.8756  -21.1766  -14.4711 C   0  0  2  0  0  0  0  0  0  0  0  0
   22.3938  -22.1794  -15.4520 N   0  0  0  0  0  0  0  0  0  0  0  0
   23.5095  -22.5420  -16.3345 C   0  0  0  0  0  0  0  0  0  0  0  0
   21.2749  -21.6914  -16.3120 O   0  0  0  0  0  0  0  0  0  0  0  0
   21.3330  -21.6260  -17.6847 O   0  0  0  0  0  0  0  0  0  0  0  0
  2  1  1  6
  2  3  1  0
  4  5  2  0
  4  3  1  0
  6  5  1  0
  7 12  2  0
  7  6  1  0
  8  7  1  0
  9 10  1  0
  9  8  2  0
 10 11  2  0
 11 12  1  0
 12  4  1  0
 13  2  1  0
 13 14  2  0
 16 15  1  0
 16 17  2  0
 18 16  1  0
 18 19  1  0
 19 20  1  0
 20 21  1  0
 22 21  1  1
 22 23  1  0
 22 24  1  0
 23 13  1  0
 24 25  2  0
 24 31  1  0
 27 26  1  0
 28 27  2  0
 29 27  1  0
 30 29  1  1
 31 30  1  0
 32 33  1  0
 32 30  1  0
 34 32  2  0
M  END
$$$$
