WRN.pdb
     RDKit          3D

 34 35  0  0  1  0  0  0  0  0999 V2000
   15.9136  -15.0460    7.4448 N   0  0  0  0  0  0  0  0  0  0  0  0
   16.9194  -15.8797    6.8474 C   0  0  1  0  0  0  0  0  0  0  0  0
   18.2848  -15.2741    7.0514 C   0  0  0  0  0  0  0  0  0  0  0  0
   18.4468  -14.0112    6.2981 C   0  0  0  0  0  0  0  0  0  0  0  0
   17.5083  -13.3682    5.5232 C   0  0  0  0  0  0  0  0  0  0  0  0
   18.0777  -12.2597    5.0265 N   0  0  0  0  0  0  0  0  0  0  0  0
   19.3535  -12.1677    5.4565 C   0  0  0  0  0  0  0  0  0  0  0  0
   20.3806  -11.2624    5.2665 C   0  0  0  0  0  0  0  0  0  0  0  0
   21.6077  -11.4715    5.8721 C   0  0  0  0  0  0  0  0  0  0  0  0
   21.8573  -12.5638    6.6726 C   0  0  0  0  0  0  0  0  0  0  0  0
   20.8401  -13.4582    6.8594 C   0  0  0  0  0  0  0  0  0  0  0  0
   19.5941  -13.2643    6.2563 C   0  0  0  0  0  0  0  0  0  0  0  0
   16.8926  -17.2386    7.4425 C   0  0  0  0  0  0  0  0  0  0  0  0
   16.5093  -17.3793    8.6258 O   0  0  0  0  0  0  0  0  0  0  0  0
   19.5924  -25.0970    5.0277 N   0  0  0  0  0  0  0  0  0  0  0  0
   19.0111  -25.2900    6.3017 C   0  0  0  0  0  0  0  0  0  0  0  0
   19.5514  -26.1449    7.1105 N   0  0  0  0  0  0  0  0  0  0  0  0
   17.8623  -24.5865    6.7281 N   0  0  0  0  0  0  0  0  0  0  0  0
   17.5133  -23.3144    6.0824 C   0  0  0  0  0  0  0  0  0  0  0  0
   17.7547  -22.1530    7.0374 C   0  0  0  0  0  0  0  0  0  0  0  0
   17.3084  -20.8508    6.4514 C   0  0  0  0  0  0  0  0  0  0  0  0
   17.6119  -19.6417    7.2564 C   0  0  2  0  0  0  0  0  0  0  0  0
   17.2954  -18.3799    6.6888 N   0  0  0  0  0  0  0  0  0  0  0  0
   18.9416  -19.7060    7.9461 C   0  0  0  0  0  0  0  0  0  0  0  0
   19.9069  -19.2184    7.3128 O   0  0  0  0  0  0  0  0  0  0  0  0
   19.2227  -26.2765    8.0932 N   0  0  0  0  0  0  0  0  0  0  0  0
   23.0427  -19.2825   11.0538 C   0  0  0  0  0  0  0  0  0  0  0  0
   22.6894  -19.0960    9.7076 O   0  0  0  0  0  0  0  0  0  0  0  0
   23.5535  -18.5322    8.9597 C   0  0  0  0  0  0  0  0  0  0  0  0
   21.4284  -19.4926    9.1033 C   0  0  1  0  0  0  0  0  0  0  0  0
   20.3842  -20.0418   10.0020 N   0  0  0  0  0  0  0  0  0  0  0  0
   19.1638  -20.2652    9.2172 C   0  0  0  0  0  0  0  0  0  0  0  0
   20.0337  -19.1403   11.1396 O   0  0  0  0  0  0  0  0  0  0  0  0
   18.7642  -18.6715   11.3855 O   0  0  0  0  0  0  0  0  0  0  0  0
  2  1  1  1
  2  3  1  0
  4  5  2  0
  4  3  1  0
  6  5  1  0
  7 12  2  0
  7  6  1  0
  8  7  1  0
  9 10  1  0
  9  8  2  0
 10 11  2  0
 11 12  1  0
 12  4  1  0
 13  2  1  0
 13 14  2  0
 16 15  1  0
 16 17  2  0
 18 16  1  0
 18 19  1  0
 19 20  1  0
 20 21  1  0
 22 21  1  6
 22 23  1  0
 22 24  1  0
 23 13  1  0
 24 25  2  0
 24 31  1  0
 27 26  1  0
 28 27  2  0
 29 27  1  0
 30 29  1  6
 31 30  1  0
 32 33  1  0
 32 30  1  0
 34 32  2  0
M  END
$$$$
