WRN.pdb
     RDKit          3D

 34 35  0  0  1  0  0  0  0  0999 V2000
   23.8402  -15.4721  -17.5749 N   0  0  0  0  0  0  0  0  0  0  0  0
   23.0578  -16.5974  -17.1446 C   0  0  1  0  0  0  0  0  0  0  0  0
   21.9596  -16.8773  -18.1386 C   0  0  0  0  0  0  0  0  0  0  0  0
   21.0943  -15.6965  -18.3526 C   0  0  0  0  0  0  0  0  0  0  0  0
   21.1125  -14.8227  -19.4159 C   0  0  0  0  0  0  0  0  0  0  0  0
   20.1609  -13.9010  -19.2045 N   0  0  0  0  0  0  0  0  0  0  0  0
   19.5299  -14.1529  -18.0386 C   0  0  0  0  0  0  0  0  0  0  0  0
   18.5001  -13.5506  -17.3405 C   0  0  0  0  0  0  0  0  0  0  0  0
   18.0799  -14.0812  -16.1330 C   0  0  0  0  0  0  0  0  0  0  0  0
   18.6533  -15.2061  -15.5835 C   0  0  0  0  0  0  0  0  0  0  0  0
   19.6719  -15.8006  -16.2755 C   0  0  0  0  0  0  0  0  0  0  0  0
   20.1100  -15.2796  -17.4963 C   0  0  0  0  0  0  0  0  0  0  0  0
   23.9103  -17.8036  -17.0044 C   0  0  0  0  0  0  0  0  0  0  0  0
   23.7784  -18.7426  -17.8215 O   0  0  0  0  0  0  0  0  0  0  0  0
   29.8158  -22.5302  -17.6482 N   0  0  0  0  0  0  0  0  0  0  0  0
   29.5751  -22.9666  -16.3254 C   0  0  0  0  0  0  0  0  0  0  0  0
   30.1136  -24.0748  -15.9267 N   0  0  0  0  0  0  0  0  0  0  0  0
   28.7692  -22.2407  -15.4197 N   0  0  0  0  0  0  0  0  0  0  0  0
   28.2945  -20.9009  -15.7891 C   0  0  0  0  0  0  0  0  0  0  0  0
   27.5675  -20.2558  -14.6167 C   0  0  0  0  0  0  0  0  0  0  0  0
   26.9047  -18.9741  -15.0123 C   0  0  0  0  0  0  0  0  0  0  0  0
   25.5539  -19.1033  -15.6128 C   0  0  2  0  0  0  0  0  0  0  0  0
   24.8726  -17.9068  -15.9573 N   0  0  0  0  0  0  0  0  0  0  0  0
   24.7038  -20.1417  -14.9442 C   0  0  0  0  0  0  0  0  0  0  0  0
   24.2950  -19.8525  -13.7953 O   0  0  0  0  0  0  0  0  0  0  0  0
   29.9024  -24.5013  -14.9969 N   0  0  0  0  0  0  0  0  0  0  0  0
   20.4025  -21.0536  -16.3368 C   0  0  0  0  0  0  0  0  0  0  0  0
   21.2783  -21.5162  -15.3414 O   0  0  0  0  0  0  0  0  0  0  0  0
   21.1884  -20.9653  -14.1958 C   0  0  0  0  0  0  0  0  0  0  0  0
   22.2699  -22.5653  -15.5108 C   0  0  2  0  0  0  0  0  0  0  0  0
   23.5643  -22.4007  -14.8057 N   0  0  0  0  0  0  0  0  0  0  0  0
   24.3521  -21.3808  -15.5088 C   0  0  0  0  0  0  0  0  0  0  0  0
   24.3829  -23.6483  -14.7505 O   0  0  0  0  0  0  0  0  0  0  0  0
   24.0430  -24.7584  -14.0129 O   0  0  0  0  0  0  0  0  0  0  0  0
  2  1  1  6
  2  3  1  0
  4  5  2  0
  4  3  1  0
  6  5  1  0
  7 12  2  0
  7  6  1  0
  8  7  1  0
  9 10  1  0
  9  8  2  0
 10 11  2  0
 11 12  1  0
 12  4  1  0
 13  2  1  0
 13 14  2  0
 16 15  1  0
 16 17  2  0
 18 16  1  0
 18 19  1  0
 19 20  1  0
 20 21  1  0
 22 21  1  1
 22 23  1  0
 22 24  1  0
 23 13  1  0
 24 25  2  0
 24 31  1  0
 27 26  1  0
 28 27  2  0
 29 27  1  0
 30 29  1  1
 31 30  1  0
 32 33  1  0
 32 30  1  0
 34 32  2  0
M  END
$$$$
