WRN.pdb
     RDKit          3D

 34 35  0  0  1  0  0  0  0  0999 V2000
   20.3489  -26.3493  -12.3240 N   0  0  0  0  0  0  0  0  0  0  0  0
   19.9416  -27.0818  -11.1574 C   0  0  1  0  0  0  0  0  0  0  0  0
   20.9631  -28.1394  -10.8249 C   0  0  0  0  0  0  0  0  0  0  0  0
   21.1547  -29.0920  -11.9404 C   0  0  0  0  0  0  0  0  0  0  0  0
   21.9259  -28.9221  -13.0679 C   0  0  0  0  0  0  0  0  0  0  0  0
   21.8126  -30.0324  -13.8123 N   0  0  0  0  0  0  0  0  0  0  0  0
   20.9929  -30.9126  -13.2006 C   0  0  0  0  0  0  0  0  0  0  0  0
   20.5295  -32.1800  -13.5004 C   0  0  0  0  0  0  0  0  0  0  0  0
   19.6707  -32.8266  -12.6283 C   0  0  0  0  0  0  0  0  0  0  0  0
   19.2476  -32.2526  -11.4503 C   0  0  0  0  0  0  0  0  0  0  0  0
   19.7069  -30.9989  -11.1555 C   0  0  0  0  0  0  0  0  0  0  0  0
   20.5747  -30.3300  -12.0234 C   0  0  0  0  0  0  0  0  0  0  0  0
   19.7847  -26.1707   -9.9968 C   0  0  0  0  0  0  0  0  0  0  0  0
   20.5633  -25.1982   -9.8746 O   0  0  0  0  0  0  0  0  0  0  0  0
   16.0459  -20.1526  -11.5344 N   0  0  0  0  0  0  0  0  0  0  0  0
   15.1587  -21.2338  -11.3293 C   0  0  0  0  0  0  0  0  0  0  0  0
   13.9218  -21.1023  -11.6893 N   0  0  0  0  0  0  0  0  0  0  0  0
   15.5684  -22.4538  -10.7460 N   0  0  0  0  0  0  0  0  0  0  0  0
   16.9695  -22.6261  -10.3406 C   0  0  0  0  0  0  0  0  0  0  0  0
   17.2079  -24.0492   -9.8538 C   0  0  0  0  0  0  0  0  0  0  0  0
   17.9805  -24.0753   -8.5728 C   0  0  0  0  0  0  0  0  0  0  0  0
   18.3527  -25.4208   -8.0696 C   0  0  2  0  0  0  0  0  0  0  0  0
   18.7646  -26.3868   -9.0244 N   0  0  0  0  0  0  0  0  0  0  0  0
   17.4237  -25.9371   -7.0122 C   0  0  0  0  0  0  0  0  0  0  0  0
   16.4362  -26.5882   -7.4265 O   0  0  0  0  0  0  0  0  0  0  0  0
   13.2272  -21.8787  -11.6133 N   0  0  0  0  0  0  0  0  0  0  0  0
   15.6273  -29.5255   -6.6469 C   0  0  0  0  0  0  0  0  0  0  0  0
   15.8548  -28.5955   -5.6197 O   0  0  0  0  0  0  0  0  0  0  0  0
   14.8334  -28.1928   -4.9727 C   0  0  0  0  0  0  0  0  0  0  0  0
   17.1511  -28.0610   -5.2371 C   0  0  2  0  0  0  0  0  0  0  0  0
   17.1770  -26.7156   -4.6134 N   0  0  0  0  0  0  0  0  0  0  0  0
   17.5866  -25.7383   -5.6295 C   0  0  0  0  0  0  0  0  0  0  0  0
   18.1256  -26.6019   -3.4659 O   0  0  0  0  0  0  0  0  0  0  0  0
   19.1578  -25.6945   -3.4092 O   0  0  0  0  0  0  0  0  0  0  0  0
  2  1  1  6
  2  3  1  0
  4  5  2  0
  4  3  1  0
  6  5  1  0
  7 12  2  0
  7  6  1  0
  8  7  1  0
  9 10  1  0
  9  8  2  0
 10 11  2  0
 11 12  1  0
 12  4  1  0
 13  2  1  0
 13 14  2  0
 16 15  1  0
 16 17  2  0
 18 16  1  0
 18 19  1  0
 19 20  1  0
 20 21  1  0
 22 21  1  6
 22 23  1  0
 22 24  1  0
 23 13  1  0
 24 25  2  0
 24 31  1  0
 27 26  1  0
 28 27  2  0
 29 27  1  0
 30 29  1  6
 31 30  1  0
 32 33  1  0
 32 30  1  0
 34 32  2  0
M  END
$$$$
