WRN.pdb
     RDKit          3D

 34 35  0  0  1  0  0  0  0  0999 V2000
   27.9484  -21.3928   -9.5389 N   0  0  0  0  0  0  0  0  0  0  0  0
   26.5611  -21.0205   -9.5188 C   0  0  1  0  0  0  0  0  0  0  0  0
   26.3372  -19.9028   -8.5322 C   0  0  0  0  0  0  0  0  0  0  0  0
   26.5891  -20.3363   -7.1403 C   0  0  0  0  0  0  0  0  0  0  0  0
   25.8445  -21.2140   -6.3854 C   0  0  0  0  0  0  0  0  0  0  0  0
   26.4312  -21.3198   -5.1836 N   0  0  0  0  0  0  0  0  0  0  0  0
   27.5304  -20.5383   -5.1398 C   0  0  0  0  0  0  0  0  0  0  0  0
   28.4902  -20.2630   -4.1839 C   0  0  0  0  0  0  0  0  0  0  0  0
   29.5206  -19.3845   -4.4714 C   0  0  0  0  0  0  0  0  0  0  0  0
   29.6357  -18.7586   -5.6925 C   0  0  0  0  0  0  0  0  0  0  0  0
   28.6853  -19.0320   -6.6368 C   0  0  0  0  0  0  0  0  0  0  0  0
   27.6374  -19.9163   -6.3652 C   0  0  0  0  0  0  0  0  0  0  0  0
   26.1185  -20.5810  -10.8651 C   0  0  0  0  0  0  0  0  0  0  0  0
   26.7527  -19.6742  -11.4503 O   0  0  0  0  0  0  0  0  0  0  0  0
   25.8138  -25.3275  -15.5466 N   0  0  0  0  0  0  0  0  0  0  0  0
   24.4845  -25.6966  -15.2384 C   0  0  0  0  0  0  0  0  0  0  0  0
   24.2138  -26.9481  -15.0452 N   0  0  0  0  0  0  0  0  0  0  0  0
   23.4380  -24.7530  -15.1328 N   0  0  0  0  0  0  0  0  0  0  0  0
   23.7457  -23.3199  -15.2243 C   0  0  0  0  0  0  0  0  0  0  0  0
   24.3960  -22.8353  -13.9353 C   0  0  0  0  0  0  0  0  0  0  0  0
   24.6107  -21.3548  -13.9446 C   0  0  0  0  0  0  0  0  0  0  0  0
   24.3578  -20.6567  -12.6598 C   0  0  2  0  0  0  0  0  0  0  0  0
   24.9869  -21.1745  -11.4976 N   0  0  0  0  0  0  0  0  0  0  0  0
   22.9253  -20.2551  -12.4743 C   0  0  0  0  0  0  0  0  0  0  0  0
   22.2972  -20.8758  -11.5849 O   0  0  0  0  0  0  0  0  0  0  0  0
   23.2744  -27.2795  -14.7309 N   0  0  0  0  0  0  0  0  0  0  0  0
   18.1591  -17.6908  -12.9765 C   0  0  0  0  0  0  0  0  0  0  0  0
   19.2187  -17.1315  -13.7089 O   0  0  0  0  0  0  0  0  0  0  0  0
   18.9637  -16.0728  -14.3707 C   0  0  0  0  0  0  0  0  0  0  0  0
   20.5722  -17.6577  -13.7708 C   0  0  1  0  0  0  0  0  0  0  0  0
   20.8484  -18.9173  -13.0382 N   0  0  0  0  0  0  0  0  0  0  0  0
   22.2650  -19.2593  -13.2160 C   0  0  0  0  0  0  0  0  0  0  0  0
   20.0383  -20.0791  -13.5110 O   0  0  0  0  0  0  0  0  0  0  0  0
   18.9121  -20.5419  -12.8710 O   0  0  0  0  0  0  0  0  0  0  0  0
  2  1  1  6
  2  3  1  0
  4  5  2  0
  4  3  1  0
  6  5  1  0
  7 12  2  0
  7  6  1  0
  8  7  1  0
  9 10  1  0
  9  8  2  0
 10 11  2  0
 11 12  1  0
 12  4  1  0
 13  2  1  0
 13 14  2  0
 16 15  1  0
 16 17  2  0
 18 16  1  0
 18 19  1  0
 19 20  1  0
 20 21  1  0
 22 21  1  6
 22 23  1  0
 22 24  1  0
 23 13  1  0
 24 25  2  0
 24 31  1  0
 27 26  1  0
 28 27  2  0
 29 27  1  0
 30 29  1  1
 31 30  1  0
 32 33  1  0
 32 30  1  0
 34 32  2  0
M  END
$$$$
