WRN.pdb
     RDKit          3D

 34 35  0  0  1  0  0  0  0  0999 V2000
   26.3408  -19.5511  -17.2492 N   0  0  0  0  0  0  0  0  0  0  0  0
   26.7013  -19.3170  -15.8785 C   0  0  1  0  0  0  0  0  0  0  0  0
   26.3970  -17.8905  -15.4974 C   0  0  0  0  0  0  0  0  0  0  0  0
   27.1218  -16.9242  -16.3515 C   0  0  0  0  0  0  0  0  0  0  0  0
   26.6320  -15.7676  -16.9145 C   0  0  0  0  0  0  0  0  0  0  0  0
   27.6277  -15.1975  -17.6098 N   0  0  0  0  0  0  0  0  0  0  0  0
   28.7437  -15.9499  -17.5129 C   0  0  0  0  0  0  0  0  0  0  0  0
   30.0297  -15.8503  -18.0100 C   0  0  0  0  0  0  0  0  0  0  0  0
   30.9644  -16.8266  -17.7108 C   0  0  0  0  0  0  0  0  0  0  0  0
   30.6652  -17.9161  -16.9237 C   0  0  0  0  0  0  0  0  0  0  0  0
   29.3926  -18.0129  -16.4329 C   0  0  0  0  0  0  0  0  0  0  0  0
   28.4350  -17.0372  -16.7239 C   0  0  0  0  0  0  0  0  0  0  0  0
   25.9579  -20.2333  -14.9789 C   0  0  0  0  0  0  0  0  0  0  0  0
   24.8175  -20.6257  -15.3143 O   0  0  0  0  0  0  0  0  0  0  0  0
   29.0282  -23.3770   -9.6977 N   0  0  0  0  0  0  0  0  0  0  0  0
   29.3931  -22.0186   -9.5571 C   0  0  0  0  0  0  0  0  0  0  0  0
   30.6480  -21.7023   -9.6017 N   0  0  0  0  0  0  0  0  0  0  0  0
   28.4416  -20.9909   -9.3694 N   0  0  0  0  0  0  0  0  0  0  0  0
   27.0481  -21.3431   -9.0677 C   0  0  0  0  0  0  0  0  0  0  0  0
   26.1443  -20.9725  -10.2360 C   0  0  0  0  0  0  0  0  0  0  0  0
   26.5267  -21.7002  -11.4860 C   0  0  0  0  0  0  0  0  0  0  0  0
   25.7877  -21.3110  -12.7125 C   0  0  2  0  0  0  0  0  0  0  0  0
   26.5220  -20.6705  -13.7446 N   0  0  0  0  0  0  0  0  0  0  0  0
   24.4434  -20.7101  -12.4302 C   0  0  0  0  0  0  0  0  0  0  0  0
   24.4471  -19.5025  -12.0950 O   0  0  0  0  0  0  0  0  0  0  0  0
   31.3923  -22.3855   -9.8671 N   0  0  0  0  0  0  0  0  0  0  0  0
   20.4311  -17.6276  -13.7260 C   0  0  0  0  0  0  0  0  0  0  0  0
   20.5797  -19.0239  -13.7111 O   0  0  0  0  0  0  0  0  0  0  0  0
   19.5199  -19.7159  -13.8592 C   0  0  0  0  0  0  0  0  0  0  0  0
   21.8348  -19.7373  -13.5434 C   0  0  1  0  0  0  0  0  0  0  0  0
   21.9098  -20.7383  -12.4516 N   0  0  0  0  0  0  0  0  0  0  0  0
   23.2197  -21.3982  -12.5129 C   0  0  0  0  0  0  0  0  0  0  0  0
   20.8627  -21.7996  -12.5346 O   0  0  0  0  0  0  0  0  0  0  0  0
   19.6001  -21.6767  -12.0027 O   0  0  0  0  0  0  0  0  0  0  0  0
  2  1  1  6
  2  3  1  0
  4  5  2  0
  4  3  1  0
  6  5  1  0
  7 12  2  0
  7  6  1  0
  8  7  1  0
  9 10  1  0
  9  8  2  0
 10 11  2  0
 11 12  1  0
 12  4  1  0
 13  2  1  0
 13 14  2  0
 16 15  1  0
 16 17  2  0
 18 16  1  0
 18 19  1  0
 19 20  1  0
 20 21  1  0
 22 21  1  1
 22 23  1  0
 22 24  1  0
 23 13  1  0
 24 25  2  0
 24 31  1  0
 27 26  1  0
 28 27  2  0
 29 27  1  0
 30 29  1  1
 31 30  1  0
 32 33  1  0
 32 30  1  0
 34 32  2  0
M  END
$$$$
