WRN.pdb
     RDKit          3D

 34 35  0  0  1  0  0  0  0  0999 V2000
   24.6720  -19.4925   -8.3081 N   0  0  0  0  0  0  0  0  0  0  0  0
   25.8047  -19.9758   -9.0475 C   0  0  1  0  0  0  0  0  0  0  0  0
   26.4479  -21.1281   -8.3187 C   0  0  0  0  0  0  0  0  0  0  0  0
   26.8314  -20.7627   -6.9374 C   0  0  0  0  0  0  0  0  0  0  0  0
   25.9995  -20.5606   -5.8596 C   0  0  0  0  0  0  0  0  0  0  0  0
   26.7660  -20.2473   -4.8041 N   0  0  0  0  0  0  0  0  0  0  0  0
   28.0656  -20.2408   -5.1673 C   0  0  0  0  0  0  0  0  0  0  0  0
   29.2572  -19.9938   -4.5116 C   0  0  0  0  0  0  0  0  0  0  0  0
   30.4552  -20.0742   -5.2005 C   0  0  0  0  0  0  0  0  0  0  0  0
   30.5156  -20.3959   -6.5380 C   0  0  0  0  0  0  0  0  0  0  0  0
   29.3359  -20.6398   -7.1849 C   0  0  0  0  0  0  0  0  0  0  0  0
   28.1162  -20.5636   -6.5064 C   0  0  0  0  0  0  0  0  0  0  0  0
   25.3932  -20.4215  -10.4016 C   0  0  0  0  0  0  0  0  0  0  0  0
   24.1751  -20.5599  -10.6546 O   0  0  0  0  0  0  0  0  0  0  0  0
   30.1928  -22.5591  -15.2350 N   0  0  0  0  0  0  0  0  0  0  0  0
   29.9036  -21.3584  -15.9227 C   0  0  0  0  0  0  0  0  0  0  0  0
   29.5858  -21.4191  -17.1766 N   0  0  0  0  0  0  0  0  0  0  0  0
   29.9478  -20.0930  -15.2955 N   0  0  0  0  0  0  0  0  0  0  0  0
   28.9557  -19.7630  -14.2641 C   0  0  0  0  0  0  0  0  0  0  0  0
   27.5980  -20.3474  -14.6303 C   0  0  0  0  0  0  0  0  0  0  0  0
   27.1633  -21.3948  -13.6545 C   0  0  0  0  0  0  0  0  0  0  0  0
   26.0431  -21.0176  -12.7573 C   0  0  2  0  0  0  0  0  0  0  0  0
   26.3611  -20.6926  -11.4128 N   0  0  0  0  0  0  0  0  0  0  0  0
   24.8303  -21.8827  -12.9258 C   0  0  0  0  0  0  0  0  0  0  0  0
   24.8657  -22.9893  -12.3385 O   0  0  0  0  0  0  0  0  0  0  0  0
   29.4966  -20.5691  -17.7771 N   0  0  0  0  0  0  0  0  0  0  0  0
   20.2892  -24.0089  -11.5381 C   0  0  0  0  0  0  0  0  0  0  0  0
   20.5864  -22.6971  -11.9415 O   0  0  0  0  0  0  0  0  0  0  0  0
   19.6004  -21.9024  -12.0836 C   0  0  0  0  0  0  0  0  0  0  0  0
   21.9174  -22.1767  -12.2063 C   0  0  1  0  0  0  0  0  0  0  0  0
   22.4169  -22.2585  -13.6005 N   0  0  0  0  0  0  0  0  0  0  0  0
   23.6946  -21.5400  -13.6811 C   0  0  0  0  0  0  0  0  0  0  0  0
   21.4932  -21.6563  -14.6074 O   0  0  0  0  0  0  0  0  0  0  0  0
   21.4400  -20.3121  -14.8942 O   0  0  0  0  0  0  0  0  0  0  0  0
  2  1  1  1
  2  3  1  0
  4  5  2  0
  4  3  1  0
  6  5  1  0
  7 12  2  0
  7  6  1  0
  8  7  1  0
  9 10  1  0
  9  8  2  0
 10 11  2  0
 11 12  1  0
 12  4  1  0
 13  2  1  0
 13 14  2  0
 16 15  1  0
 16 17  2  0
 18 16  1  0
 18 19  1  0
 19 20  1  0
 20 21  1  0
 22 21  1  1
 22 23  1  0
 22 24  1  0
 23 13  1  0
 24 25  2  0
 24 31  1  0
 27 26  1  0
 28 27  2  0
 29 27  1  0
 30 29  1  1
 31 30  1  0
 32 33  1  0
 32 30  1  0
 34 32  2  0
M  END
$$$$
