WRN.pdb
     RDKit          3D

 34 35  0  0  1  0  0  0  0  0999 V2000
   25.9941  -18.5595   -8.6189 N   0  0  0  0  0  0  0  0  0  0  0  0
   26.4877  -19.8672   -8.9502 C   0  0  1  0  0  0  0  0  0  0  0  0
   26.4038  -20.7741   -7.7489 C   0  0  0  0  0  0  0  0  0  0  0  0
   27.0123  -20.1588   -6.5490 C   0  0  0  0  0  0  0  0  0  0  0  0
   26.4440  -19.2409   -5.6950 C   0  0  0  0  0  0  0  0  0  0  0  0
   27.3453  -18.9544   -4.7435 N   0  0  0  0  0  0  0  0  0  0  0  0
   28.4766  -19.6583   -4.9570 C   0  0  0  0  0  0  0  0  0  0  0  0
   29.6961  -19.7574   -4.3138 C   0  0  0  0  0  0  0  0  0  0  0  0
   30.6737  -20.6020   -4.8110 C   0  0  0  0  0  0  0  0  0  0  0  0
   30.4828  -21.3645   -5.9416 C   0  0  0  0  0  0  0  0  0  0  0  0
   29.2759  -21.2652   -6.5765 C   0  0  0  0  0  0  0  0  0  0  0  0
   28.2764  -20.4180   -6.0897 C   0  0  0  0  0  0  0  0  0  0  0  0
   25.7026  -20.4555  -10.0634 C   0  0  0  0  0  0  0  0  0  0  0  0
   24.4815  -20.1953  -10.1532 O   0  0  0  0  0  0  0  0  0  0  0  0
   29.0421  -19.6489  -17.2658 N   0  0  0  0  0  0  0  0  0  0  0  0
   27.6617  -19.3630  -17.1613 C   0  0  0  0  0  0  0  0  0  0  0  0
   26.9570  -19.2872  -18.2450 N   0  0  0  0  0  0  0  0  0  0  0  0
   27.0195  -19.1561  -15.9197 N   0  0  0  0  0  0  0  0  0  0  0  0
   27.7901  -19.2906  -14.6767 C   0  0  0  0  0  0  0  0  0  0  0  0
   28.0606  -20.7593  -14.3786 C   0  0  0  0  0  0  0  0  0  0  0  0
   27.9003  -21.0688  -12.9237 C   0  0  0  0  0  0  0  0  0  0  0  0
   26.5208  -20.9603  -12.3877 C   0  0  2  0  0  0  0  0  0  0  0  0
   26.3171  -21.3081  -11.0268 N   0  0  0  0  0  0  0  0  0  0  0  0
   25.4751  -21.4731  -13.3319 C   0  0  0  0  0  0  0  0  0  0  0  0
   25.7809  -22.5051  -13.9738 O   0  0  0  0  0  0  0  0  0  0  0  0
   25.9311  -19.0904  -18.2375 N   0  0  0  0  0  0  0  0  0  0  0  0
   21.2271  -20.0825  -11.5471 C   0  0  0  0  0  0  0  0  0  0  0  0
   21.4073  -21.0991  -12.4989 O   0  0  0  0  0  0  0  0  0  0  0  0
   21.1648  -22.2912  -12.1192 C   0  0  0  0  0  0  0  0  0  0  0  0
   21.8430  -20.9025  -13.8715 C   0  0  2  0  0  0  0  0  0  0  0  0
   23.1246  -21.5296  -14.2767 N   0  0  0  0  0  0  0  0  0  0  0  0
   24.2149  -20.8832  -13.5361 C   0  0  0  0  0  0  0  0  0  0  0  0
   23.4251  -21.3983  -15.7334 O   0  0  0  0  0  0  0  0  0  0  0  0
   22.7493  -22.0756  -16.7216 O   0  0  0  0  0  0  0  0  0  0  0  0
  2  1  1  1
  2  3  1  0
  4  5  2  0
  4  3  1  0
  6  5  1  0
  7 12  2  0
  7  6  1  0
  8  7  1  0
  9 10  1  0
  9  8  2  0
 10 11  2  0
 11 12  1  0
 12  4  1  0
 13  2  1  0
 13 14  2  0
 16 15  1  0
 16 17  2  0
 18 16  1  0
 18 19  1  0
 19 20  1  0
 20 21  1  0
 22 21  1  6
 22 23  1  0
 22 24  1  0
 23 13  1  0
 24 25  2  0
 24 31  1  0
 27 26  1  0
 28 27  2  0
 29 27  1  0
 30 29  1  1
 31 30  1  0
 32 33  1  0
 32 30  1  0
 34 32  2  0
M  END
$$$$
