WRN.pdb
     RDKit          3D

 34 35  0  0  1  0  0  0  0  0999 V2000
   26.3343  -19.4982  -18.6003 N   0  0  0  0  0  0  0  0  0  0  0  0
   26.5146  -18.8334  -17.3397 C   0  0  1  0  0  0  0  0  0  0  0  0
   26.0811  -17.3933  -17.4449 C   0  0  0  0  0  0  0  0  0  0  0  0
   27.0257  -16.5899  -18.2517 C   0  0  0  0  0  0  0  0  0  0  0  0
   26.7359  -15.7814  -19.3273 C   0  0  0  0  0  0  0  0  0  0  0  0
   27.8874  -15.2431  -19.7566 N   0  0  0  0  0  0  0  0  0  0  0  0
   28.9102  -15.6791  -18.9920 C   0  0  0  0  0  0  0  0  0  0  0  0
   30.2749  -15.4595  -18.9763 C   0  0  0  0  0  0  0  0  0  0  0  0
   31.0649  -16.0832  -18.0260 C   0  0  0  0  0  0  0  0  0  0  0  0
   30.5423  -16.9307  -17.0749 C   0  0  0  0  0  0  0  0  0  0  0  0
   29.1922  -17.1468  -17.0919 C   0  0  0  0  0  0  0  0  0  0  0  0
   28.3780  -16.5261  -18.0436 C   0  0  0  0  0  0  0  0  0  0  0  0
   25.7266  -19.5054  -16.2772 C   0  0  0  0  0  0  0  0  0  0  0  0
   24.7139  -20.1689  -16.5956 O   0  0  0  0  0  0  0  0  0  0  0  0
   25.3217  -23.0107   -9.3533 N   0  0  0  0  0  0  0  0  0  0  0  0
   24.6074  -21.9823   -8.6971 C   0  0  0  0  0  0  0  0  0  0  0  0
   23.6766  -22.3075   -7.8576 N   0  0  0  0  0  0  0  0  0  0  0  0
   24.8691  -20.6120   -8.9211 N   0  0  0  0  0  0  0  0  0  0  0  0
   25.7801  -20.2182  -10.0037 C   0  0  0  0  0  0  0  0  0  0  0  0
   25.0956  -20.3767  -11.3547 C   0  0  0  0  0  0  0  0  0  0  0  0
   25.9537  -19.8768  -12.4736 C   0  0  0  0  0  0  0  0  0  0  0  0
   25.3502  -19.9370  -13.8279 C   0  0  2  0  0  0  0  0  0  0  0  0
   26.1053  -19.4064  -14.9062 N   0  0  0  0  0  0  0  0  0  0  0  0
   23.8935  -19.5827  -13.8450 C   0  0  0  0  0  0  0  0  0  0  0  0
   23.6275  -18.3677  -13.6912 O   0  0  0  0  0  0  0  0  0  0  0  0
   23.0675  -21.5997   -7.3895 N   0  0  0  0  0  0  0  0  0  0  0  0
   18.5725  -19.8485  -15.5780 C   0  0  0  0  0  0  0  0  0  0  0  0
   19.2392  -20.9171  -14.9572 O   0  0  0  0  0  0  0  0  0  0  0  0
   18.5108  -21.8187  -14.4276 C   0  0  0  0  0  0  0  0  0  0  0  0
   20.6813  -21.0772  -14.8724 C   0  0  1  0  0  0  0  0  0  0  0  0
   21.4238  -20.1246  -14.0116 N   0  0  0  0  0  0  0  0  0  0  0  0
   22.8425  -20.5018  -14.0143 C   0  0  0  0  0  0  0  0  0  0  0  0
   20.9610  -20.1090  -12.5920 O   0  0  0  0  0  0  0  0  0  0  0  0
   19.9426  -19.3113  -12.1244 O   0  0  0  0  0  0  0  0  0  0  0  0
  2  1  1  6
  2  3  1  0
  4  5  2  0
  4  3  1  0
  6  5  1  0
  7 12  2  0
  7  6  1  0
  8  7  1  0
  9 10  1  0
  9  8  2  0
 10 11  2  0
 11 12  1  0
 12  4  1  0
 13  2  1  0
 13 14  2  0
 16 15  1  0
 16 17  2  0
 18 16  1  0
 18 19  1  0
 19 20  1  0
 20 21  1  0
 22 21  1  1
 22 23  1  0
 22 24  1  0
 23 13  1  0
 24 25  2  0
 24 31  1  0
 27 26  1  0
 28 27  2  0
 29 27  1  0
 30 29  1  6
 31 30  1  0
 32 33  1  0
 32 30  1  0
 34 32  2  0
M  END
$$$$
