WRN.pdb
     RDKit          3D

 34 35  0  0  1  0  0  0  0  0999 V2000
   21.2881  -20.7028  -17.4541 N   0  0  0  0  0  0  0  0  0  0  0  0
   22.3272  -19.8625  -16.9273 C   0  0  1  0  0  0  0  0  0  0  0  0
   21.7261  -18.6865  -16.2003 C   0  0  0  0  0  0  0  0  0  0  0  0
   21.0783  -17.7352  -17.1298 C   0  0  0  0  0  0  0  0  0  0  0  0
   19.7347  -17.6067  -17.3998 C   0  0  0  0  0  0  0  0  0  0  0  0
   19.5905  -16.6226  -18.3001 N   0  0  0  0  0  0  0  0  0  0  0  0
   20.7985  -16.1126  -18.6190 C   0  0  0  0  0  0  0  0  0  0  0  0
   21.2390  -15.1129  -19.4659 C   0  0  0  0  0  0  0  0  0  0  0  0
   22.5914  -14.8334  -19.5613 C   0  0  0  0  0  0  0  0  0  0  0  0
   23.5385  -15.5205  -18.8354 C   0  0  0  0  0  0  0  0  0  0  0  0
   23.1009  -16.5091  -17.9982 C   0  0  0  0  0  0  0  0  0  0  0  0
   21.7394  -16.8059  -17.8882 C   0  0  0  0  0  0  0  0  0  0  0  0
   23.1926  -20.6247  -15.9937 C   0  0  0  0  0  0  0  0  0  0  0  0
   22.6893  -21.5408  -15.3050 O   0  0  0  0  0  0  0  0  0  0  0  0
   28.6853  -23.1321  -18.9720 N   0  0  0  0  0  0  0  0  0  0  0  0
   29.0008  -21.7851  -18.6818 C   0  0  0  0  0  0  0  0  0  0  0  0
   29.2280  -20.9725  -19.6642 N   0  0  0  0  0  0  0  0  0  0  0  0
   29.0785  -21.2895  -17.3609 N   0  0  0  0  0  0  0  0  0  0  0  0
   28.7819  -22.1847  -16.2350 C   0  0  0  0  0  0  0  0  0  0  0  0
   27.2880  -22.1851  -15.9392 C   0  0  0  0  0  0  0  0  0  0  0  0
   26.8747  -20.9713  -15.1684 C   0  0  0  0  0  0  0  0  0  0  0  0
   25.4268  -20.8616  -14.8626 C   0  0  2  0  0  0  0  0  0  0  0  0
   24.5822  -20.3295  -15.8715 N   0  0  0  0  0  0  0  0  0  0  0  0
   25.1489  -20.3570  -13.4783 C   0  0  0  0  0  0  0  0  0  0  0  0
   24.4914  -19.2923  -13.4094 O   0  0  0  0  0  0  0  0  0  0  0  0
   29.4850  -19.9705  -19.5187 N   0  0  0  0  0  0  0  0  0  0  0  0
   22.9027  -21.2702   -8.5486 C   0  0  0  0  0  0  0  0  0  0  0  0
   22.9831  -20.3971   -9.6454 O   0  0  0  0  0  0  0  0  0  0  0  0
   22.4361  -19.2540   -9.5110 C   0  0  0  0  0  0  0  0  0  0  0  0
   23.6361  -20.6892  -10.9106 C   0  0  2  0  0  0  0  0  0  0  0  0
   25.1149  -20.5853  -10.9549 N   0  0  0  0  0  0  0  0  0  0  0  0
   25.5707  -20.9841  -12.2923 C   0  0  0  0  0  0  0  0  0  0  0  0
   25.8099  -21.4557   -9.9604 O   0  0  0  0  0  0  0  0  0  0  0  0
   26.1981  -21.0348   -8.7097 O   0  0  0  0  0  0  0  0  0  0  0  0
  2  1  1  1
  2  3  1  0
  4  5  2  0
  4  3  1  0
  6  5  1  0
  7 12  2  0
  7  6  1  0
  8  7  1  0
  9 10  1  0
  9  8  2  0
 10 11  2  0
 11 12  1  0
 12  4  1  0
 13  2  1  0
 13 14  2  0
 16 15  1  0
 16 17  2  0
 18 16  1  0
 18 19  1  0
 19 20  1  0
 20 21  1  0
 22 21  1  6
 22 23  1  0
 22 24  1  0
 23 13  1  0
 24 25  2  0
 24 31  1  0
 27 26  1  0
 28 27  2  0
 29 27  1  0
 30 29  1  6
 31 30  1  0
 32 33  1  0
 32 30  1  0
 34 32  2  0
M  END
$$$$
