WRN.pdb
     RDKit          3D

 34 35  0  0  1  0  0  0  0  0999 V2000
   26.6693  -22.4686  -11.4969 N   0  0  0  0  0  0  0  0  0  0  0  0
   26.0422  -21.2337  -11.1159 C   0  0  1  0  0  0  0  0  0  0  0  0
   27.0765  -20.1452  -10.9817 C   0  0  0  0  0  0  0  0  0  0  0  0
   28.1021  -20.4800   -9.9693 C   0  0  0  0  0  0  0  0  0  0  0  0
   29.3708  -20.9673  -10.1872 C   0  0  0  0  0  0  0  0  0  0  0  0
   29.9584  -21.1278   -8.9919 N   0  0  0  0  0  0  0  0  0  0  0  0
   29.1088  -20.7595   -8.0104 C   0  0  0  0  0  0  0  0  0  0  0  0
   29.1776  -20.7159   -6.6305 C   0  0  0  0  0  0  0  0  0  0  0  0
   28.0908  -20.2710   -5.8976 C   0  0  0  0  0  0  0  0  0  0  0  0
   26.9189  -19.8610   -6.4931 C   0  0  0  0  0  0  0  0  0  0  0  0
   26.8527  -19.9048   -7.8582 C   0  0  0  0  0  0  0  0  0  0  0  0
   27.9396  -20.3509   -8.6154 C   0  0  0  0  0  0  0  0  0  0  0  0
   25.0324  -20.8277  -12.1244 C   0  0  0  0  0  0  0  0  0  0  0  0
   25.0736  -19.6695  -12.5974 O   0  0  0  0  0  0  0  0  0  0  0  0
   26.9534  -25.6879  -16.0287 N   0  0  0  0  0  0  0  0  0  0  0  0
   25.5587  -25.7635  -16.2460 C   0  0  0  0  0  0  0  0  0  0  0  0
   24.9794  -26.9198  -16.1813 N   0  0  0  0  0  0  0  0  0  0  0  0
   24.7706  -24.6260  -16.5316 N   0  0  0  0  0  0  0  0  0  0  0  0
   25.3464  -23.2862  -16.3577 C   0  0  0  0  0  0  0  0  0  0  0  0
   24.9862  -22.7297  -14.9867 C   0  0  0  0  0  0  0  0  0  0  0  0
   23.6340  -22.0895  -14.9855 C   0  0  0  0  0  0  0  0  0  0  0  0
   23.1890  -21.5209  -13.6891 C   0  0  2  0  0  0  0  0  0  0  0  0
   24.0215  -21.7341  -12.5595 N   0  0  0  0  0  0  0  0  0  0  0  0
   21.7227  -21.7015  -13.4336 C   0  0  0  0  0  0  0  0  0  0  0  0
   21.0532  -22.1430  -14.3967 O   0  0  0  0  0  0  0  0  0  0  0  0
   23.9469  -27.0395  -16.2854 N   0  0  0  0  0  0  0  0  0  0  0  0
   18.1225  -18.1447  -12.2221 C   0  0  0  0  0  0  0  0  0  0  0  0
   19.4094  -18.1025  -12.7824 O   0  0  0  0  0  0  0  0  0  0  0  0
   19.7320  -17.0361  -13.4010 C   0  0  0  0  0  0  0  0  0  0  0  0
   20.3956  -19.1679  -12.7127 C   0  0  1  0  0  0  0  0  0  0  0  0
   19.9735  -20.4487  -12.0951 N   0  0  0  0  0  0  0  0  0  0  0  0
   21.0745  -21.4117  -12.2197 C   0  0  0  0  0  0  0  0  0  0  0  0
   18.7662  -21.0549  -12.7311 O   0  0  0  0  0  0  0  0  0  0  0  0
   18.7664  -22.2680  -13.3794 O   0  0  0  0  0  0  0  0  0  0  0  0
  2  1  1  6
  2  3  1  0
  4  5  2  0
  4  3  1  0
  6  5  1  0
  7 12  2  0
  7  6  1  0
  8  7  1  0
  9 10  1  0
  9  8  2  0
 10 11  2  0
 11 12  1  0
 12  4  1  0
 13  2  1  0
 13 14  2  0
 16 15  1  0
 16 17  2  0
 18 16  1  0
 18 19  1  0
 19 20  1  0
 20 21  1  0
 22 21  1  6
 22 23  1  0
 22 24  1  0
 23 13  1  0
 24 25  2  0
 24 31  1  0
 27 26  1  0
 28 27  2  0
 29 27  1  0
 30 29  1  1
 31 30  1  0
 32 33  1  0
 32 30  1  0
 34 32  2  0
M  END
$$$$
