WRN.pdb
     RDKit          3D

 34 35  0  0  1  0  0  0  0  0999 V2000
   24.1514  -20.1111   -9.9104 N   0  0  0  0  0  0  0  0  0  0  0  0
   25.5478  -20.0718  -10.2450 C   0  0  1  0  0  0  0  0  0  0  0  0
   26.2967  -21.1297   -9.4752 C   0  0  0  0  0  0  0  0  0  0  0  0
   26.2505  -20.8877   -8.0164 C   0  0  0  0  0  0  0  0  0  0  0  0
   25.1905  -21.0946   -7.1632 C   0  0  0  0  0  0  0  0  0  0  0  0
   25.5840  -20.7446   -5.9293 N   0  0  0  0  0  0  0  0  0  0  0  0
   26.8640  -20.3185   -5.9601 C   0  0  0  0  0  0  0  0  0  0  0  0
   27.7561  -19.8510   -5.0134 C   0  0  0  0  0  0  0  0  0  0  0  0
   29.0369  -19.4857   -5.3909 C   0  0  0  0  0  0  0  0  0  0  0  0
   29.4723  -19.5686   -6.6946 C   0  0  0  0  0  0  0  0  0  0  0  0
   28.5884  -20.0313   -7.6297 C   0  0  0  0  0  0  0  0  0  0  0  0
   27.2910  -20.4050   -7.2679 C   0  0  0  0  0  0  0  0  0  0  0  0
   25.7431  -20.2940  -11.6990 C   0  0  0  0  0  0  0  0  0  0  0  0
   24.9548  -21.0485  -12.3125 O   0  0  0  0  0  0  0  0  0  0  0  0
   24.5882  -17.3947  -16.1135 N   0  0  0  0  0  0  0  0  0  0  0  0
   24.8185  -16.2419  -15.3286 C   0  0  0  0  0  0  0  0  0  0  0  0
   23.8083  -15.5051  -14.9915 N   0  0  0  0  0  0  0  0  0  0  0  0
   26.1089  -15.8609  -14.8969 N   0  0  0  0  0  0  0  0  0  0  0  0
   27.2742  -16.6470  -15.3223 C   0  0  0  0  0  0  0  0  0  0  0  0
   27.8747  -17.3874  -14.1347 C   0  0  0  0  0  0  0  0  0  0  0  0
   28.0235  -18.8503  -14.4103 C   0  0  0  0  0  0  0  0  0  0  0  0
   26.9905  -19.7298  -13.8091 C   0  0  2  0  0  0  0  0  0  0  0  0
   26.8106  -19.6631  -12.4028 N   0  0  0  0  0  0  0  0  0  0  0  0
   26.9865  -21.1165  -14.3792 C   0  0  0  0  0  0  0  0  0  0  0  0
   27.8591  -21.8934  -13.9258 O   0  0  0  0  0  0  0  0  0  0  0  0
   23.9093  -14.6405  -14.4141 N   0  0  0  0  0  0  0  0  0  0  0  0
   24.6903  -25.7492  -15.1811 C   0  0  0  0  0  0  0  0  0  0  0  0
   24.5995  -24.7985  -14.1517 O   0  0  0  0  0  0  0  0  0  0  0  0
   24.0683  -25.1837  -13.0592 C   0  0  0  0  0  0  0  0  0  0  0  0
   25.0603  -23.4223  -14.2307 C   0  0  2  0  0  0  0  0  0  0  0  0
   25.6951  -22.9873  -15.4986 N   0  0  0  0  0  0  0  0  0  0  0  0
   26.0943  -21.5812  -15.3619 C   0  0  0  0  0  0  0  0  0  0  0  0
   24.7980  -23.0909  -16.6878 O   0  0  0  0  0  0  0  0  0  0  0  0
   24.9604  -24.0136  -17.6948 O   0  0  0  0  0  0  0  0  0  0  0  0
  2  1  1  6
  2  3  1  0
  4  5  2  0
  4  3  1  0
  6  5  1  0
  7 12  2  0
  7  6  1  0
  8  7  1  0
  9 10  1  0
  9  8  2  0
 10 11  2  0
 11 12  1  0
 12  4  1  0
 13  2  1  0
 13 14  2  0
 16 15  1  0
 16 17  2  0
 18 16  1  0
 18 19  1  0
 19 20  1  0
 20 21  1  0
 22 21  1  1
 22 23  1  0
 22 24  1  0
 23 13  1  0
 24 25  2  0
 24 31  1  0
 27 26  1  0
 28 27  2  0
 29 27  1  0
 30 29  1  1
 31 30  1  0
 32 33  1  0
 32 30  1  0
 34 32  2  0
M  END
$$$$
