WRN.pdb
     RDKit          3D

 34 35  0  0  1  0  0  0  0  0999 V2000
   27.1075  -22.5431  -11.3811 N   0  0  0  0  0  0  0  0  0  0  0  0
   26.7857  -21.3103  -10.7175 C   0  0  1  0  0  0  0  0  0  0  0  0
   27.9976  -20.4149  -10.6683 C   0  0  0  0  0  0  0  0  0  0  0  0
   29.0992  -21.0193   -9.8874 C   0  0  0  0  0  0  0  0  0  0  0  0
   30.0930  -21.8552  -10.3438 C   0  0  0  0  0  0  0  0  0  0  0  0
   30.8789  -22.1639   -9.3013 N   0  0  0  0  0  0  0  0  0  0  0  0
   30.4233  -21.5536   -8.1874 C   0  0  0  0  0  0  0  0  0  0  0  0
   30.8267  -21.5147   -6.8658 C   0  0  0  0  0  0  0  0  0  0  0  0
   30.1126  -20.7657   -5.9465 C   0  0  0  0  0  0  0  0  0  0  0  0
   28.9945  -20.0418   -6.2957 C   0  0  0  0  0  0  0  0  0  0  0  0
   28.5969  -20.0815   -7.6034 C   0  0  0  0  0  0  0  0  0  0  0  0
   29.3050  -20.8320   -8.5463 C   0  0  0  0  0  0  0  0  0  0  0  0
   25.6864  -20.6079  -11.4244 C   0  0  0  0  0  0  0  0  0  0  0  0
   25.6352  -19.3578  -11.3837 O   0  0  0  0  0  0  0  0  0  0  0  0
   27.1665  -20.2699  -17.4819 N   0  0  0  0  0  0  0  0  0  0  0  0
   25.7654  -20.4540  -17.5195 C   0  0  0  0  0  0  0  0  0  0  0  0
   25.2760  -21.3547  -18.3108 N   0  0  0  0  0  0  0  0  0  0  0  0
   24.8767  -19.6932  -16.7270 N   0  0  0  0  0  0  0  0  0  0  0  0
   25.4083  -18.8707  -15.6326 C   0  0  0  0  0  0  0  0  0  0  0  0
   25.2505  -19.5949  -14.3022 C   0  0  0  0  0  0  0  0  0  0  0  0
   23.8333  -20.0087  -14.0604 C   0  0  0  0  0  0  0  0  0  0  0  0
   23.5798  -20.7373  -12.7927 C   0  0  2  0  0  0  0  0  0  0  0  0
   24.6934  -21.3336  -12.1455 N   0  0  0  0  0  0  0  0  0  0  0  0
   22.3456  -21.5876  -12.8332 C   0  0  0  0  0  0  0  0  0  0  0  0
   22.4744  -22.7074  -13.3810 O   0  0  0  0  0  0  0  0  0  0  0  0
   24.2487  -21.4935  -18.4395 N   0  0  0  0  0  0  0  0  0  0  0  0
   17.5174  -23.7277  -11.7865 C   0  0  0  0  0  0  0  0  0  0  0  0
   18.2172  -23.0579  -10.7698 O   0  0  0  0  0  0  0  0  0  0  0  0
   17.7808  -23.2018   -9.5812 C   0  0  0  0  0  0  0  0  0  0  0  0
   19.3905  -22.2220  -10.9625 C   0  0  2  0  0  0  0  0  0  0  0  0
   19.9088  -22.0822  -12.3451 N   0  0  0  0  0  0  0  0  0  0  0  0
   21.0930  -21.2150  -12.3138 C   0  0  0  0  0  0  0  0  0  0  0  0
   18.9295  -21.4790  -13.2973 O   0  0  0  0  0  0  0  0  0  0  0  0
   18.0388  -22.2095  -14.0489 O   0  0  0  0  0  0  0  0  0  0  0  0
  2  1  1  6
  2  3  1  0
  4  5  2  0
  4  3  1  0
  6  5  1  0
  7 12  2  0
  7  6  1  0
  8  7  1  0
  9 10  1  0
  9  8  2  0
 10 11  2  0
 11 12  1  0
 12  4  1  0
 13  2  1  0
 13 14  2  0
 16 15  1  0
 16 17  2  0
 18 16  1  0
 18 19  1  0
 19 20  1  0
 20 21  1  0
 22 21  1  6
 22 23  1  0
 22 24  1  0
 23 13  1  0
 24 25  2  0
 24 31  1  0
 27 26  1  0
 28 27  2  0
 29 27  1  0
 30 29  1  1
 31 30  1  0
 32 33  1  0
 32 30  1  0
 34 32  2  0
M  END
$$$$
