ACM.pdb
     RDKit          3D

 20 19  0  0  1  0  0  0  0  0999 V2000
    8.7014  -19.1544   19.0753 C   0  0  0  0  0  0  0  0  0  0  0  0
    8.6341  -18.6585   20.5016 C   0  0  2  0  0  0  0  0  0  0  0  0
    7.2905  -18.8539   21.0103 N   0  0  0  0  0  0  0  0  0  0  0  0
    8.9748  -17.2046   20.5032 C   0  0  0  0  0  0  0  0  0  0  0  0
   10.0819  -16.7895   20.0875 O   0  0  0  0  0  0  0  0  0  0  0  0
    8.0548  -16.2352   20.9773 N   0  0  0  0  0  0  0  0  0  0  0  0
    8.3882  -14.8265   21.0430 C   0  0  1  0  0  0  0  0  0  0  0  0
    7.3898  -14.0791   20.2090 C   0  0  0  0  0  0  0  0  0  0  0  0
    7.7613  -12.2883   20.2746 S   0  0  0  0  0  0  0  0  0  0  0  0
    8.3691  -14.3955   22.4666 C   0  0  0  0  0  0  0  0  0  0  0  0
    7.4284  -13.6865   22.8986 O   0  0  0  0  0  0  0  0  0  0  0  0
    6.7693  -11.5513   25.9322 C   0  0  0  0  0  0  0  0  0  0  0  0
    6.1609  -13.0208   26.8180 S   0  0  0  0  0  0  0  0  0  0  0  0
    7.3312  -14.4145   26.4843 C   0  0  0  0  0  0  0  0  0  0  0  0
    7.6741  -14.3754   25.0252 C   0  0  0  0  0  0  0  0  0  0  0  0
    9.1033  -14.7402   24.8007 C   0  0  2  0  0  0  0  0  0  0  0  0
    9.3988  -14.7700   23.3582 N   0  0  0  0  0  0  0  0  0  0  0  0
    9.4513  -16.0632   25.3317 C   0  0  0  0  0  0  0  0  0  0  0  0
    9.5909  -17.0412   24.5743 O   0  0  0  0  0  0  0  0  0  0  0  0
    9.6300  -16.2410   26.6934 O   0  0  0  0  0  0  0  0  0  0  0  0
  2  1  1  6
  2  3  1  0
  4  2  1  0
  4  5  2  0
  6  4  1  0
  7  6  1  0
  7 10  1  0
  7  8  1  6
  9  8  1  0
 10 17  1  0
 11 10  2  0
 13 12  1  0
 13 14  1  0
 14 15  1  0
 16 15  1  6
 16 18  1  0
 17 16  1  0
 18 19  2  0
 18 20  1  0
M  END
$$$$
