ACM.pdb
     RDKit          3D

 20 19  0  0  1  0  0  0  0  0999 V2000
   11.2568  -18.6604   19.7958 C   0  0  0  0  0  0  0  0  0  0  0  0
   10.0571  -17.7741   19.5515 C   0  0  2  0  0  0  0  0  0  0  0  0
   10.3325  -16.8996   18.4282 N   0  0  0  0  0  0  0  0  0  0  0  0
    9.8205  -16.9644   20.7836 C   0  0  0  0  0  0  0  0  0  0  0  0
   10.4902  -15.9341   21.0306 O   0  0  0  0  0  0  0  0  0  0  0  0
    8.8254  -17.3323   21.7245 N   0  0  0  0  0  0  0  0  0  0  0  0
    8.5345  -16.5239   22.8914 C   0  0  1  0  0  0  0  0  0  0  0  0
    7.1201  -16.8065   23.3046 C   0  0  0  0  0  0  0  0  0  0  0  0
    7.0120  -18.5022   23.9845 S   0  0  0  0  0  0  0  0  0  0  0  0
    9.5120  -16.8582   23.9617 C   0  0  0  0  0  0  0  0  0  0  0  0
   10.2269  -17.8847   23.8651 O   0  0  0  0  0  0  0  0  0  0  0  0
   10.7236  -13.5161   30.2242 C   0  0  0  0  0  0  0  0  0  0  0  0
   10.0259  -13.2560   28.5629 S   0  0  0  0  0  0  0  0  0  0  0  0
    9.6837  -14.9158   27.8204 C   0  0  0  0  0  0  0  0  0  0  0  0
   10.9090  -15.3320   27.0631 C   0  0  0  0  0  0  0  0  0  0  0  0
   10.6094  -16.4658   26.1407 C   0  0  2  0  0  0  0  0  0  0  0  0
    9.6581  -16.0366   25.1014 N   0  0  0  0  0  0  0  0  0  0  0  0
   10.0039  -17.6172   26.8195 C   0  0  0  0  0  0  0  0  0  0  0  0
    8.7820  -17.8403   26.7364 O   0  0  0  0  0  0  0  0  0  0  0  0
   10.7912  -18.4767   27.5673 O   0  0  0  0  0  0  0  0  0  0  0  0
  2  1  1  1
  2  3  1  0
  4  2  1  0
  4  5  2  0
  6  4  1  0
  7  6  1  0
  7 10  1  0
  7  8  1  1
  9  8  1  0
 10 17  1  0
 11 10  2  0
 13 12  1  0
 13 14  1  0
 14 15  1  0
 16 15  1  1
 16 18  1  0
 17 16  1  0
 18 19  2  0
 18 20  1  0
M  END
$$$$
