ACM.pdb
     RDKit          3D

 20 19  0  0  1  0  0  0  0  0999 V2000
    9.6577  -19.8828   20.4188 C   0  0  0  0  0  0  0  0  0  0  0  0
    9.4133  -18.7197   19.4850 C   0  0  2  0  0  0  0  0  0  0  0  0
   10.3449  -18.7955   18.3765 N   0  0  0  0  0  0  0  0  0  0  0  0
    9.6320  -17.4566   20.2509 C   0  0  0  0  0  0  0  0  0  0  0  0
   10.7613  -16.9172   20.3187 O   0  0  0  0  0  0  0  0  0  0  0  0
    8.5658  -16.8174   20.9334 N   0  0  0  0  0  0  0  0  0  0  0  0
    8.7478  -15.5685   21.6451 C   0  0  1  0  0  0  0  0  0  0  0  0
    7.6246  -14.6519   21.2587 C   0  0  0  0  0  0  0  0  0  0  0  0
    6.0248  -15.4680   21.6108 S   0  0  0  0  0  0  0  0  0  0  0  0
    8.7699  -15.8483   23.1060 C   0  0  0  0  0  0  0  0  0  0  0  0
    7.8232  -16.4719   23.6434 O   0  0  0  0  0  0  0  0  0  0  0  0
    9.5914  -12.9787   28.9734 C   0  0  0  0  0  0  0  0  0  0  0  0
    8.5410  -12.7643   27.5018 S   0  0  0  0  0  0  0  0  0  0  0  0
    7.9200  -14.4318   26.9950 C   0  0  0  0  0  0  0  0  0  0  0  0
    8.2322  -14.6056   25.5389 C   0  0  0  0  0  0  0  0  0  0  0  0
    9.5846  -15.2065   25.3489 C   0  0  2  0  0  0  0  0  0  0  0  0
    9.8465  -15.4235   23.9159 N   0  0  0  0  0  0  0  0  0  0  0  0
    9.7353  -16.5084   26.0088 C   0  0  0  0  0  0  0  0  0  0  0  0
   10.0239  -16.5847   27.2173 O   0  0  0  0  0  0  0  0  0  0  0  0
    9.5568  -17.6778   25.2888 O   0  0  0  0  0  0  0  0  0  0  0  0
  2  1  1  1
  2  3  1  0
  4  2  1  0
  4  5  2  0
  6  4  1  0
  7  6  1  0
  7 10  1  0
  7  8  1  1
  9  8  1  0
 10 17  1  0
 11 10  2  0
 13 12  1  0
 13 14  1  0
 14 15  1  0
 16 15  1  6
 16 18  1  0
 17 16  1  0
 18 19  2  0
 18 20  1  0
M  END
$$$$
