ACM.pdb
     RDKit          3D

 20 19  0  0  1  0  0  0  0  0999 V2000
    7.3149  -19.2718   18.0499 C   0  0  0  0  0  0  0  0  0  0  0  0
    8.1883  -18.3547   18.8750 C   0  0  2  0  0  0  0  0  0  0  0  0
    9.4293  -19.0354   19.1895 N   0  0  0  0  0  0  0  0  0  0  0  0
    7.4542  -18.0234   20.1325 C   0  0  0  0  0  0  0  0  0  0  0  0
    6.3611  -17.4105   20.1123 O   0  0  0  0  0  0  0  0  0  0  0  0
    7.9685  -18.3911   21.4019 N   0  0  0  0  0  0  0  0  0  0  0  0
    7.2256  -18.1688   22.6259 C   0  0  1  0  0  0  0  0  0  0  0  0
    7.2630  -19.4394   23.4229 C   0  0  0  0  0  0  0  0  0  0  0  0
    8.9555  -19.7042   24.0668 S   0  0  0  0  0  0  0  0  0  0  0  0
    7.8371  -17.0266   23.3569 C   0  0  0  0  0  0  0  0  0  0  0  0
    9.0136  -16.6723   23.1030 O   0  0  0  0  0  0  0  0  0  0  0  0
    6.6778  -10.4016   27.3926 C   0  0  0  0  0  0  0  0  0  0  0  0
    5.9436  -11.8330   26.5403 S   0  0  0  0  0  0  0  0  0  0  0  0
    7.3080  -13.0104   26.1217 C   0  0  0  0  0  0  0  0  0  0  0  0
    6.7020  -14.1489   25.3570 C   0  0  0  0  0  0  0  0  0  0  0  0
    7.7466  -15.1269   24.9346 C   0  0  2  0  0  0  0  0  0  0  0  0
    7.1158  -16.3199   24.3447 N   0  0  0  0  0  0  0  0  0  0  0  0
    8.5815  -15.5955   26.0467 C   0  0  0  0  0  0  0  0  0  0  0  0
    8.3536  -16.6849   26.6043 O   0  0  0  0  0  0  0  0  0  0  0  0
    9.6419  -14.8248   26.4930 O   0  0  0  0  0  0  0  0  0  0  0  0
  2  1  1  6
  2  3  1  0
  4  2  1  0
  4  5  2  0
  6  4  1  0
  7  6  1  0
  7 10  1  0
  7  8  1  1
  9  8  1  0
 10 17  1  0
 11 10  2  0
 13 12  1  0
 13 14  1  0
 14 15  1  0
 16 15  1  1
 16 18  1  0
 17 16  1  0
 18 19  2  0
 18 20  1  0
M  END
$$$$
