ACM.pdb
     RDKit          3D

 20 19  0  0  1  0  0  0  0  0999 V2000
    6.5225  -17.4807   20.3619 C   0  0  0  0  0  0  0  0  0  0  0  0
    7.1022  -17.6615   21.7461 C   0  0  2  0  0  0  0  0  0  0  0  0
    6.0505  -18.0823   22.6511 N   0  0  0  0  0  0  0  0  0  0  0  0
    7.6629  -16.3502   22.1885 C   0  0  0  0  0  0  0  0  0  0  0  0
    8.6395  -15.8237   21.6055 O   0  0  0  0  0  0  0  0  0  0  0  0
    7.1094  -15.6485   23.2895 N   0  0  0  0  0  0  0  0  0  0  0  0
    7.5541  -14.3189   23.6558 C   0  0  1  0  0  0  0  0  0  0  0  0
    6.4483  -13.6613   24.4276 C   0  0  0  0  0  0  0  0  0  0  0  0
    6.2738  -14.4776   26.0562 S   0  0  0  0  0  0  0  0  0  0  0  0
    8.8056  -14.4347   24.4517 C   0  0  0  0  0  0  0  0  0  0  0  0
    9.3290  -13.4125   24.9568 O   0  0  0  0  0  0  0  0  0  0  0  0
   10.9523  -13.0080   29.2574 C   0  0  0  0  0  0  0  0  0  0  0  0
   10.8571  -14.8109   29.4919 S   0  0  0  0  0  0  0  0  0  0  0  0
   11.3397  -15.6206   27.8998 C   0  0  0  0  0  0  0  0  0  0  0  0
   10.1755  -15.5015   26.9626 C   0  0  0  0  0  0  0  0  0  0  0  0
   10.5985  -15.7324   25.5506 C   0  0  2  0  0  0  0  0  0  0  0  0
    9.4290  -15.6856   24.6565 N   0  0  0  0  0  0  0  0  0  0  0  0
   11.2363  -17.0380   25.3456 C   0  0  0  0  0  0  0  0  0  0  0  0
   10.6560  -17.9432   24.7183 O   0  0  0  0  0  0  0  0  0  0  0  0
   12.5022  -17.2807   25.8520 O   0  0  0  0  0  0  0  0  0  0  0  0
  2  1  1  6
  2  3  1  0
  4  2  1  0
  4  5  2  0
  6  4  1  0
  7  6  1  0
  7 10  1  0
  7  8  1  1
  9  8  1  0
 10 17  1  0
 11 10  2  0
 13 12  1  0
 13 14  1  0
 14 15  1  0
 16 15  1  1
 16 18  1  0
 17 16  1  0
 18 19  2  0
 18 20  1  0
M  END
$$$$
