ACM.pdb
     RDKit          3D

 20 19  0  0  1  0  0  0  0  0999 V2000
    8.1087  -18.0343   17.0265 C   0  0  0  0  0  0  0  0  0  0  0  0
    8.6379  -16.9566   17.9447 C   0  0  2  0  0  0  0  0  0  0  0  0
   10.0855  -17.0301   17.9798 N   0  0  0  0  0  0  0  0  0  0  0  0
    8.0807  -17.1958   19.3093 C   0  0  0  0  0  0  0  0  0  0  0  0
    6.8464  -17.1808   19.5262 O   0  0  0  0  0  0  0  0  0  0  0  0
    8.9307  -17.4498   20.4156 N   0  0  0  0  0  0  0  0  0  0  0  0
    8.4083  -17.7410   21.7355 C   0  0  1  0  0  0  0  0  0  0  0  0
    8.9629  -19.0668   22.1665 C   0  0  0  0  0  0  0  0  0  0  0  0
    8.8058  -19.2306   23.9825 S   0  0  0  0  0  0  0  0  0  0  0  0
    8.7966  -16.6406   22.6580 C   0  0  0  0  0  0  0  0  0  0  0  0
    9.9734  -16.2058   22.6614 O   0  0  0  0  0  0  0  0  0  0  0  0
    6.5348  -10.9047   27.5623 C   0  0  0  0  0  0  0  0  0  0  0  0
    6.0280  -12.2471   26.4418 S   0  0  0  0  0  0  0  0  0  0  0  0
    7.5560  -13.1116   25.8578 C   0  0  0  0  0  0  0  0  0  0  0  0
    7.1295  -14.1823   24.8989 C   0  0  0  0  0  0  0  0  0  0  0  0
    8.3073  -14.9368   24.3796 C   0  0  2  0  0  0  0  0  0  0  0  0
    7.8595  -16.0638   23.5438 N   0  0  0  0  0  0  0  0  0  0  0  0
    9.1435  -15.5045   25.4434 C   0  0  0  0  0  0  0  0  0  0  0  0
    8.8887  -16.6208   25.9319 O   0  0  0  0  0  0  0  0  0  0  0  0
   10.2354  -14.7991   25.9208 O   0  0  0  0  0  0  0  0  0  0  0  0
  2  1  1  6
  2  3  1  0
  4  2  1  0
  4  5  2  0
  6  4  1  0
  7  6  1  0
  7 10  1  0
  7  8  1  1
  9  8  1  0
 10 17  1  0
 11 10  2  0
 13 12  1  0
 13 14  1  0
 14 15  1  0
 16 15  1  1
 16 18  1  0
 17 16  1  0
 18 19  2  0
 18 20  1  0
M  END
$$$$
