ACM.pdb
     RDKit          3D

 20 19  0  0  1  0  0  0  0  0999 V2000
    6.9082  -16.8473   22.0033 C   0  0  0  0  0  0  0  0  0  0  0  0
    7.4787  -15.4963   21.6371 C   0  0  2  0  0  0  0  0  0  0  0  0
    8.4800  -15.6673   20.6024 N   0  0  0  0  0  0  0  0  0  0  0  0
    8.1028  -14.9098   22.8603 C   0  0  0  0  0  0  0  0  0  0  0  0
    9.2941  -15.1484   23.1682 O   0  0  0  0  0  0  0  0  0  0  0  0
    7.3680  -14.0573   23.7231 N   0  0  0  0  0  0  0  0  0  0  0  0
    7.9651  -13.4509   24.8959 C   0  0  1  0  0  0  0  0  0  0  0  0
    7.0724  -12.3287   25.3374 C   0  0  0  0  0  0  0  0  0  0  0  0
    5.5775  -13.0188   26.1363 S   0  0  0  0  0  0  0  0  0  0  0  0
    8.1228  -14.4924   25.9462 C   0  0  0  0  0  0  0  0  0  0  0  0
    7.6206  -15.6309   25.7863 O   0  0  0  0  0  0  0  0  0  0  0  0
   12.0664  -17.2038   24.6576 C   0  0  0  0  0  0  0  0  0  0  0  0
   12.7025  -17.5042   26.3368 S   0  0  0  0  0  0  0  0  0  0  0  0
   11.4226  -16.9314   27.5438 C   0  0  0  0  0  0  0  0  0  0  0  0
   10.6182  -15.8588   26.8726 C   0  0  0  0  0  0  0  0  0  0  0  0
    9.5458  -15.3488   27.7760 C   0  0  2  0  0  0  0  0  0  0  0  0
    8.8349  -14.2281   27.1372 N   0  0  0  0  0  0  0  0  0  0  0  0
   10.0594  -14.8496   29.0567 C   0  0  0  0  0  0  0  0  0  0  0  0
   10.2197  -13.6306   29.2515 O   0  0  0  0  0  0  0  0  0  0  0  0
   10.3747  -15.7363   30.0727 O   0  0  0  0  0  0  0  0  0  0  0  0
  2  1  1  1
  2  3  1  0
  4  2  1  0
  4  5  2  0
  6  4  1  0
  7  6  1  0
  7 10  1  0
  7  8  1  1
  9  8  1  0
 10 17  1  0
 11 10  2  0
 13 12  1  0
 13 14  1  0
 14 15  1  0
 16 15  1  6
 16 18  1  0
 17 16  1  0
 18 19  2  0
 18 20  1  0
M  END
$$$$
