ACM.pdb
     RDKit          3D

 20 19  0  0  1  0  0  0  0  0999 V2000
    9.4544  -19.2483   20.6971 C   0  0  0  0  0  0  0  0  0  0  0  0
    9.2296  -17.9364   19.9807 C   0  0  2  0  0  0  0  0  0  0  0  0
   10.1276  -17.8544   18.8453 N   0  0  0  0  0  0  0  0  0  0  0  0
    9.5169  -16.8291   20.9405 C   0  0  0  0  0  0  0  0  0  0  0  0
   10.6905  -16.4771   21.2043 O   0  0  0  0  0  0  0  0  0  0  0  0
    8.4683  -16.1316   21.5923 N   0  0  0  0  0  0  0  0  0  0  0  0
    8.7268  -15.1031   22.5799 C   0  0  1  0  0  0  0  0  0  0  0  0
    7.4874  -14.2673   22.7075 C   0  0  0  0  0  0  0  0  0  0  0  0
    7.6408  -13.1699   24.1640 S   0  0  0  0  0  0  0  0  0  0  0  0
    9.1020  -15.7548   23.8634 C   0  0  0  0  0  0  0  0  0  0  0  0
    8.3275  -16.5827   24.4007 O   0  0  0  0  0  0  0  0  0  0  0  0
   10.9469  -13.4127   29.2616 C   0  0  0  0  0  0  0  0  0  0  0  0
    9.5398  -13.8644   28.1983 S   0  0  0  0  0  0  0  0  0  0  0  0
    9.4999  -15.7087   28.0560 C   0  0  0  0  0  0  0  0  0  0  0  0
    9.2714  -16.0445   26.6127 C   0  0  0  0  0  0  0  0  0  0  0  0
   10.5518  -16.0175   25.8471 C   0  0  2  0  0  0  0  0  0  0  0  0
   10.3271  -15.4607   24.5022 N   0  0  0  0  0  0  0  0  0  0  0  0
   11.1411  -17.3485   25.6614 C   0  0  0  0  0  0  0  0  0  0  0  0
   10.5378  -18.2336   25.0271 O   0  0  0  0  0  0  0  0  0  0  0  0
   12.3860  -17.6384   26.1943 O   0  0  0  0  0  0  0  0  0  0  0  0
  2  1  1  1
  2  3  1  0
  4  2  1  0
  4  5  2  0
  6  4  1  0
  7  6  1  0
  7 10  1  0
  7  8  1  1
  9  8  1  0
 10 17  1  0
 11 10  2  0
 13 12  1  0
 13 14  1  0
 14 15  1  0
 16 15  1  6
 16 18  1  0
 17 16  1  0
 18 19  2  0
 18 20  1  0
M  END
$$$$
