ACM.pdb
     RDKit          3D

 20 19  0  0  1  0  0  0  0  0999 V2000
   12.0025  -17.4261   19.3451 C   0  0  0  0  0  0  0  0  0  0  0  0
   10.9442  -18.4701   19.0720 C   0  0  2  0  0  0  0  0  0  0  0  0
   10.4393  -18.2947   17.7242 N   0  0  0  0  0  0  0  0  0  0  0  0
    9.8406  -18.2806   20.0599 C   0  0  0  0  0  0  0  0  0  0  0  0
    8.6364  -18.3197   19.7143 O   0  0  0  0  0  0  0  0  0  0  0  0
   10.1146  -18.0483   21.4317 N   0  0  0  0  0  0  0  0  0  0  0  0
    9.0644  -18.0086   22.4293 C   0  0  1  0  0  0  0  0  0  0  0  0
    8.3903  -19.3489   22.4398 C   0  0  0  0  0  0  0  0  0  0  0  0
    9.6274  -20.6494   22.7969 S   0  0  0  0  0  0  0  0  0  0  0  0
    9.6673  -17.6704   23.7465 C   0  0  0  0  0  0  0  0  0  0  0  0
   10.8655  -17.9565   23.9841 O   0  0  0  0  0  0  0  0  0  0  0  0
   10.7900  -13.1421   29.5708 C   0  0  0  0  0  0  0  0  0  0  0  0
   10.2623  -13.6638   27.9083 S   0  0  0  0  0  0  0  0  0  0  0  0
    9.4358  -15.3119   28.0620 C   0  0  0  0  0  0  0  0  0  0  0  0
    8.8079  -15.6265   26.7373 C   0  0  0  0  0  0  0  0  0  0  0  0
    9.6086  -16.6415   25.9924 C   0  0  2  0  0  0  0  0  0  0  0  0
    8.9135  -17.0253   24.7520 N   0  0  0  0  0  0  0  0  0  0  0  0
    9.8275  -17.8762   26.7546 C   0  0  0  0  0  0  0  0  0  0  0  0
    9.0407  -18.8362   26.6591 O   0  0  0  0  0  0  0  0  0  0  0  0
   10.9212  -17.9892   27.5964 O   0  0  0  0  0  0  0  0  0  0  0  0
  2  1  1  1
  2  3  1  0
  4  2  1  0
  4  5  2  0
  6  4  1  0
  7  6  1  0
  7 10  1  0
  7  8  1  1
  9  8  1  0
 10 17  1  0
 11 10  2  0
 13 12  1  0
 13 14  1  0
 14 15  1  0
 16 15  1  1
 16 18  1  0
 17 16  1  0
 18 19  2  0
 18 20  1  0
M  END
$$$$
