ACM.pdb
     RDKit          3D

 20 19  0  0  1  0  0  0  0  0999 V2000
    6.6564  -19.0989   18.1680 C   0  0  0  0  0  0  0  0  0  0  0  0
    7.6776  -18.3469   18.9905 C   0  0  2  0  0  0  0  0  0  0  0  0
    8.8880  -19.1394   19.0864 N   0  0  0  0  0  0  0  0  0  0  0  0
    7.1036  -18.1239   20.3508 C   0  0  0  0  0  0  0  0  0  0  0  0
    6.0740  -17.4303   20.5231 O   0  0  0  0  0  0  0  0  0  0  0  0
    7.7044  -18.6906   21.5036 N   0  0  0  0  0  0  0  0  0  0  0  0
    7.1446  -18.5130   22.8282 C   0  0  1  0  0  0  0  0  0  0  0  0
    7.4454  -19.7493   23.6233 C   0  0  0  0  0  0  0  0  0  0  0  0
    7.0366  -19.4556   25.3828 S   0  0  0  0  0  0  0  0  0  0  0  0
    7.7362  -17.2923   23.4387 C   0  0  0  0  0  0  0  0  0  0  0  0
    8.9174  -16.9631   23.1733 O   0  0  0  0  0  0  0  0  0  0  0  0
    6.5304  -10.3803   26.9882 C   0  0  0  0  0  0  0  0  0  0  0  0
    5.8071  -11.9567   26.4349 S   0  0  0  0  0  0  0  0  0  0  0  0
    7.1809  -13.0291   25.8137 C   0  0  0  0  0  0  0  0  0  0  0  0
    6.5710  -14.3152   25.3426 C   0  0  0  0  0  0  0  0  0  0  0  0
    7.6137  -15.2381   24.8067 C   0  0  2  0  0  0  0  0  0  0  0  0
    6.9903  -16.4817   24.3230 N   0  0  0  0  0  0  0  0  0  0  0  0
    8.6110  -15.6268   25.8105 C   0  0  0  0  0  0  0  0  0  0  0  0
    8.4691  -16.6619   26.4874 O   0  0  0  0  0  0  0  0  0  0  0  0
    9.7314  -14.8400   26.0186 O   0  0  0  0  0  0  0  0  0  0  0  0
  2  1  1  6
  2  3  1  0
  4  2  1  0
  4  5  2  0
  6  4  1  0
  7  6  1  0
  7 10  1  0
  7  8  1  1
  9  8  1  0
 10 17  1  0
 11 10  2  0
 13 12  1  0
 13 14  1  0
 14 15  1  0
 16 15  1  1
 16 18  1  0
 17 16  1  0
 18 19  2  0
 18 20  1  0
M  END
$$$$
