ACM.pdb
     RDKit          3D

 20 19  0  0  1  0  0  0  0  0999 V2000
    8.5044  -12.3263   19.0300 C   0  0  0  0  0  0  0  0  0  0  0  0
    8.6185  -13.7746   18.6127 C   0  0  2  0  0  0  0  0  0  0  0  0
    7.7484  -14.0126   17.4776 N   0  0  0  0  0  0  0  0  0  0  0  0
    8.1972  -14.6238   19.7665 C   0  0  0  0  0  0  0  0  0  0  0  0
    6.9989  -14.9475   19.9402 O   0  0  0  0  0  0  0  0  0  0  0  0
    9.1410  -15.0976   20.7130 N   0  0  0  0  0  0  0  0  0  0  0  0
    8.7704  -16.0061   21.7793 C   0  0  1  0  0  0  0  0  0  0  0  0
    9.5358  -17.2815   21.5826 C   0  0  0  0  0  0  0  0  0  0  0  0
   11.3155  -16.8999   21.3920 S   0  0  0  0  0  0  0  0  0  0  0  0
    9.0747  -15.3617   23.0851 C   0  0  0  0  0  0  0  0  0  0  0  0
   10.0685  -14.6044   23.1987 O   0  0  0  0  0  0  0  0  0  0  0  0
    5.9912  -11.3653   25.9939 C   0  0  0  0  0  0  0  0  0  0  0  0
    6.5588  -12.0867   27.5662 S   0  0  0  0  0  0  0  0  0  0  0  0
    7.9073  -13.2952   27.1867 C   0  0  0  0  0  0  0  0  0  0  0  0
    7.5705  -13.9510   25.8810 C   0  0  0  0  0  0  0  0  0  0  0  0
    8.6347  -14.9148   25.4753 C   0  0  2  0  0  0  0  0  0  0  0  0
    8.2605  -15.5841   24.2178 N   0  0  0  0  0  0  0  0  0  0  0  0
    8.8633  -15.9727   26.4663 C   0  0  0  0  0  0  0  0  0  0  0  0
    8.5005  -17.1435   26.2490 O   0  0  0  0  0  0  0  0  0  0  0  0
    9.4907  -15.6786   27.6653 O   0  0  0  0  0  0  0  0  0  0  0  0
  2  1  1  1
  2  3  1  0
  4  2  1  0
  4  5  2  0
  6  4  1  0
  7  6  1  0
  7 10  1  0
  7  8  1  6
  9  8  1  0
 10 17  1  0
 11 10  2  0
 13 12  1  0
 13 14  1  0
 14 15  1  0
 16 15  1  1
 16 18  1  0
 17 16  1  0
 18 19  2  0
 18 20  1  0
M  END
$$$$
