ACM.pdb
     RDKit          3D

 20 19  0  0  1  0  0  0  0  0999 V2000
    9.0157  -20.1892   19.4562 C   0  0  0  0  0  0  0  0  0  0  0  0
    9.1289  -19.6058   20.8460 C   0  0  2  0  0  0  0  0  0  0  0  0
    7.8792  -19.8118   21.5517 N   0  0  0  0  0  0  0  0  0  0  0  0
    9.4065  -18.1445   20.7139 C   0  0  0  0  0  0  0  0  0  0  0  0
   10.4573  -17.7219   20.1772 O   0  0  0  0  0  0  0  0  0  0  0  0
    8.4878  -17.1761   21.1928 N   0  0  0  0  0  0  0  0  0  0  0  0
    8.7081  -15.7547   21.0172 C   0  0  1  0  0  0  0  0  0  0  0  0
    7.4354  -15.1536   20.4977 C   0  0  0  0  0  0  0  0  0  0  0  0
    6.0377  -15.6799   21.5554 S   0  0  0  0  0  0  0  0  0  0  0  0
    9.1170  -15.1685   22.3218 C   0  0  0  0  0  0  0  0  0  0  0  0
    9.4074  -13.9507   22.4031 O   0  0  0  0  0  0  0  0  0  0  0  0
    6.5161  -11.7114   27.8838 C   0  0  0  0  0  0  0  0  0  0  0  0
    6.4508  -12.7004   26.3568 S   0  0  0  0  0  0  0  0  0  0  0  0
    7.9910  -13.7221   26.2712 C   0  0  0  0  0  0  0  0  0  0  0  0
    7.9968  -14.4183   24.9433 C   0  0  0  0  0  0  0  0  0  0  0  0
    9.2137  -15.2678   24.7890 C   0  0  2  0  0  0  0  0  0  0  0  0
    9.1874  -15.9604   23.4895 N   0  0  0  0  0  0  0  0  0  0  0  0
    9.3271  -16.3058   25.8200 C   0  0  0  0  0  0  0  0  0  0  0  0
   10.1116  -16.1749   26.7776 O   0  0  0  0  0  0  0  0  0  0  0  0
    8.5561  -17.4533   25.7392 O   0  0  0  0  0  0  0  0  0  0  0  0
  2  1  1  6
  2  3  1  0
  4  2  1  0
  4  5  2  0
  6  4  1  0
  7  6  1  0
  7 10  1  0
  7  8  1  1
  9  8  1  0
 10 17  1  0
 11 10  2  0
 13 12  1  0
 13 14  1  0
 14 15  1  0
 16 15  1  1
 16 18  1  0
 17 16  1  0
 18 19  2  0
 18 20  1  0
M  END
$$$$
