ACM.pdb
     RDKit          3D

 20 19  0  0  1  0  0  0  0  0999 V2000
    8.5597  -12.1569   19.5054 C   0  0  0  0  0  0  0  0  0  0  0  0
    8.3719  -13.5827   19.0402 C   0  0  2  0  0  0  0  0  0  0  0  0
    7.2861  -13.6309   18.0805 N   0  0  0  0  0  0  0  0  0  0  0  0
    8.0384  -14.4187   20.2317 C   0  0  0  0  0  0  0  0  0  0  0  0
    6.8684  -14.4927   20.6750 O   0  0  0  0  0  0  0  0  0  0  0  0
    9.0371  -15.1633   20.9094 N   0  0  0  0  0  0  0  0  0  0  0  0
    8.7124  -16.1047   21.9619 C   0  0  1  0  0  0  0  0  0  0  0  0
    9.3664  -17.4126   21.6259 C   0  0  0  0  0  0  0  0  0  0  0  0
    9.3131  -18.5128   23.0874 S   0  0  0  0  0  0  0  0  0  0  0  0
    9.1866  -15.5544   23.2600 C   0  0  0  0  0  0  0  0  0  0  0  0
   10.3458  -15.0851   23.3607 O   0  0  0  0  0  0  0  0  0  0  0  0
    6.7588  -11.1840   26.3694 C   0  0  0  0  0  0  0  0  0  0  0  0
    5.7991  -12.6653   26.8159 S   0  0  0  0  0  0  0  0  0  0  0  0
    6.6625  -14.1405   26.1078 C   0  0  0  0  0  0  0  0  0  0  0  0
    8.1345  -13.8566   26.1335 C   0  0  0  0  0  0  0  0  0  0  0  0
    8.9161  -15.0364   25.6610 C   0  0  2  0  0  0  0  0  0  0  0  0
    8.3521  -15.5466   24.3997 N   0  0  0  0  0  0  0  0  0  0  0  0
    8.9055  -16.1538   26.6122 C   0  0  0  0  0  0  0  0  0  0  0  0
    8.3073  -17.2134   26.3495 O   0  0  0  0  0  0  0  0  0  0  0  0
    9.5666  -16.0419   27.8239 O   0  0  0  0  0  0  0  0  0  0  0  0
  2  1  1  1
  2  3  1  0
  4  2  1  0
  4  5  2  0
  6  4  1  0
  7  6  1  0
  7 10  1  0
  7  8  1  6
  9  8  1  0
 10 17  1  0
 11 10  2  0
 13 12  1  0
 13 14  1  0
 14 15  1  0
 16 15  1  1
 16 18  1  0
 17 16  1  0
 18 19  2  0
 18 20  1  0
M  END
$$$$
