WNP.pdb
     RDKit          3D

 30 32  0  0  1  0  0  0  0  0999 V2000
    9.8670  -17.9121   25.5977 N   0  0  0  0  0  0  0  0  0  0  0  0
    9.2513  -16.7283   25.0686 C   0  0  1  0  0  0  0  0  0  0  0  0
    9.2991  -15.5812   26.0437 C   0  0  0  0  0  0  0  0  0  0  0  0
    7.9781  -14.9711   26.3045 C   0  0  0  0  0  0  0  0  0  0  0  0
    6.7419  -15.6267   26.3369 C   0  0  0  0  0  0  0  0  0  0  0  0
    5.7728  -14.7308   26.5784 N   0  0  0  0  0  0  0  0  0  0  0  0
    6.3076  -13.5021   26.7099 C   0  0  0  0  0  0  0  0  0  0  0  0
    5.6986  -12.2920   26.9672 C   0  0  0  0  0  0  0  0  0  0  0  0
    6.5005  -11.1763   27.0602 C   0  0  0  0  0  0  0  0  0  0  0  0
    7.8561  -11.2739   26.9013 C   0  0  0  0  0  0  0  0  0  0  0  0
    8.4375  -12.5047   26.6433 C   0  0  0  0  0  0  0  0  0  0  0  0
    7.6849  -13.6464   26.5401 C   0  0  0  0  0  0  0  0  0  0  0  0
    9.9981  -16.2909   23.8575 C   0  0  0  0  0  0  0  0  0  0  0  0
   10.8970  -15.4212   24.0104 O   0  0  0  0  0  0  0  0  0  0  0  0
   12.8358  -17.7990   21.9318 N   0  0  0  0  0  0  0  0  0  0  0  0
   12.3578  -16.5776   21.3807 C   0  0  0  0  0  0  0  0  0  0  0  0
   13.0381  -15.5550   21.5300 O   0  0  0  0  0  0  0  0  0  0  0  0
   11.0788  -16.6197   20.6671 C   0  0  0  0  0  0  0  0  0  0  0  0
    9.9419  -15.9439   21.4272 C   0  0  2  0  0  0  0  0  0  0  0  0
    9.7227  -16.8219   22.5729 N   0  0  0  0  0  0  0  0  0  0  0  0
    8.7422  -15.7889   20.6216 C   0  0  0  0  0  0  0  0  0  0  0  0
    7.8122  -16.6321   20.8083 O   0  0  0  0  0  0  0  0  0  0  0  0
    8.5720  -14.7796   19.6798 N   0  0  0  0  0  0  0  0  0  0  0  0
    9.4734  -13.6222   19.5799 C   0  0  0  0  0  0  0  0  0  0  0  0
    8.5845  -12.5237   19.0752 C   0  0  0  0  0  0  0  0  0  0  0  0
    7.4433  -13.1699   18.3698 C   0  0  0  0  0  0  0  0  0  0  0  0
    7.5832  -14.6645   18.6424 C   0  0  1  0  0  0  0  0  0  0  0  0
    8.1183  -15.2931   17.3777 C   0  0  0  0  0  0  0  0  0  0  0  0
    9.3455  -15.4965   17.3149 O   0  0  0  0  0  0  0  0  0  0  0  0
    7.2735  -15.6267   16.3353 O   0  0  0  0  0  0  0  0  0  0  0  0
  2  1  1  1
  2  3  1  0
  4  3  1  0
  4  5  2  0
  6  5  1  0
  7 12  2  0
  7  6  1  0
  8  7  1  0
  9 10  1  0
  9  8  2  0
 10 11  2  0
 11 12  1  0
 12  4  1  0
 13  2  1  0
 13 20  1  0
 14 13  2  0
 16 15  1  0
 17 16  2  0
 18 16  1  0
 19 20  1  0
 19 18  1  6
 21 19  1  0
 22 21  2  0
 23 21  1  0
 24 23  1  0
 25 26  1  0
 25 24  1  0
 26 27  1  0
 27 23  1  0
 27 28  1  6
 28 29  2  0
 28 30  1  0
M  END
$$$$
