WNP.pdb
     RDKit          3D

 30 32  0  0  1  0  0  0  0  0999 V2000
    7.7542  -16.7859   20.9889 N   0  0  0  0  0  0  0  0  0  0  0  0
    8.1896  -16.0318   22.1301 C   0  0  1  0  0  0  0  0  0  0  0  0
    7.0387  -15.6266   23.0134 C   0  0  0  0  0  0  0  0  0  0  0  0
    6.9972  -14.1777   23.3034 C   0  0  0  0  0  0  0  0  0  0  0  0
    6.9515  -13.1355   22.3704 C   0  0  0  0  0  0  0  0  0  0  0  0
    6.9503  -11.9611   23.0194 N   0  0  0  0  0  0  0  0  0  0  0  0
    6.9926  -12.1725   24.3485 C   0  0  0  0  0  0  0  0  0  0  0  0
    7.0014  -11.2698   25.3908 C   0  0  0  0  0  0  0  0  0  0  0  0
    7.0400  -11.7700   26.6734 C   0  0  0  0  0  0  0  0  0  0  0  0
    7.0683  -13.1196   26.8973 C   0  0  0  0  0  0  0  0  0  0  0  0
    7.0588  -14.0006   25.8281 C   0  0  0  0  0  0  0  0  0  0  0  0
    7.0217  -13.5554   24.5316 C   0  0  0  0  0  0  0  0  0  0  0  0
    9.0875  -16.8802   22.9605 C   0  0  0  0  0  0  0  0  0  0  0  0
    8.6808  -18.0331   23.2658 O   0  0  0  0  0  0  0  0  0  0  0  0
   13.5412  -16.1352   21.8599 N   0  0  0  0  0  0  0  0  0  0  0  0
   13.1014  -17.2116   22.6795 C   0  0  0  0  0  0  0  0  0  0  0  0
   13.1815  -18.3639   22.2358 O   0  0  0  0  0  0  0  0  0  0  0  0
   12.5791  -16.8738   24.0061 C   0  0  0  0  0  0  0  0  0  0  0  0
   11.1424  -17.3380   24.2245 C   0  0  2  0  0  0  0  0  0  0  0  0
   10.3556  -16.4256   23.3999 N   0  0  0  0  0  0  0  0  0  0  0  0
   10.7438  -17.2918   25.6213 C   0  0  0  0  0  0  0  0  0  0  0  0
   10.4057  -16.1597   26.0849 O   0  0  0  0  0  0  0  0  0  0  0  0
   10.7148  -18.4075   26.4513 N   0  0  0  0  0  0  0  0  0  0  0  0
   10.8929  -19.7786   25.9505 C   0  0  0  0  0  0  0  0  0  0  0  0
   10.0757  -20.6097   26.8954 C   0  0  0  0  0  0  0  0  0  0  0  0
    9.9613  -19.8450   28.1681 C   0  0  0  0  0  0  0  0  0  0  0  0
   10.5606  -18.4719   27.8793 C   0  0  1  0  0  0  0  0  0  0  0  0
   11.9253  -18.4440   28.5255 C   0  0  0  0  0  0  0  0  0  0  0  0
   11.9700  -18.3034   29.7623 O   0  0  0  0  0  0  0  0  0  0  0  0
   13.0750  -18.5700   27.7679 O   0  0  0  0  0  0  0  0  0  0  0  0
  2  1  1  6
  2  3  1  0
  4  3  1  0
  4  5  2  0
  6  5  1  0
  7 12  2  0
  7  6  1  0
  8  7  1  0
  9 10  1  0
  9  8  2  0
 10 11  2  0
 11 12  1  0
 12  4  1  0
 13  2  1  0
 13 20  1  0
 14 13  2  0
 16 15  1  0
 17 16  2  0
 18 16  1  0
 19 20  1  0
 19 18  1  1
 21 19  1  0
 22 21  2  0
 23 21  1  0
 24 23  1  0
 25 26  1  0
 25 24  1  0
 26 27  1  0
 27 23  1  0
 27 28  1  1
 28 29  2  0
 28 30  1  0
M  END
$$$$
