WNP.pdb
     RDKit          3D

 30 32  0  0  1  0  0  0  0  0999 V2000
    6.2101  -17.0442   24.6617 N   0  0  0  0  0  0  0  0  0  0  0  0
    6.8535  -15.8648   24.1561 C   0  0  1  0  0  0  0  0  0  0  0  0
    8.1931  -15.6292   24.8032 C   0  0  0  0  0  0  0  0  0  0  0  0
    8.1152  -14.8527   26.0586 C   0  0  0  0  0  0  0  0  0  0  0  0
    8.4823  -15.2855   27.3380 C   0  0  0  0  0  0  0  0  0  0  0  0
    8.2409  -14.3056   28.2222 N   0  0  0  0  0  0  0  0  0  0  0  0
    7.7278  -13.2337   27.5890 C   0  0  0  0  0  0  0  0  0  0  0  0
    7.3387  -12.0094   28.0898 C   0  0  0  0  0  0  0  0  0  0  0  0
    6.8483  -11.0784   27.2012 C   0  0  0  0  0  0  0  0  0  0  0  0
    6.7538  -11.3669   25.8670 C   0  0  0  0  0  0  0  0  0  0  0  0
    7.1530  -12.6068   25.3953 C   0  0  0  0  0  0  0  0  0  0  0  0
    7.6475  -13.5698   26.2372 C   0  0  0  0  0  0  0  0  0  0  0  0
    7.1068  -16.0351   22.6991 C   0  0  0  0  0  0  0  0  0  0  0  0
    7.1467  -17.2114   22.2489 O   0  0  0  0  0  0  0  0  0  0  0  0
    7.6133  -12.6903   17.6092 N   0  0  0  0  0  0  0  0  0  0  0  0
    7.6746  -13.9197   18.3223 C   0  0  0  0  0  0  0  0  0  0  0  0
    7.7268  -14.9751   17.6784 O   0  0  0  0  0  0  0  0  0  0  0  0
    7.6716  -13.8464   19.7857 C   0  0  0  0  0  0  0  0  0  0  0  0
    7.6859  -15.2157   20.4579 C   0  0  2  0  0  0  0  0  0  0  0  0
    7.2975  -14.9280   21.8356 N   0  0  0  0  0  0  0  0  0  0  0  0
    8.9838  -15.8651   20.3816 C   0  0  0  0  0  0  0  0  0  0  0  0
    9.8572  -15.5044   21.2290 O   0  0  0  0  0  0  0  0  0  0  0  0
    9.3020  -16.8427   19.4448 N   0  0  0  0  0  0  0  0  0  0  0  0
    8.3814  -17.2493   18.3727 C   0  0  0  0  0  0  0  0  0  0  0  0
    8.7219  -18.6923   18.1419 C   0  0  0  0  0  0  0  0  0  0  0  0
   10.1218  -18.8943   18.6079 C   0  0  0  0  0  0  0  0  0  0  0  0
   10.5206  -17.5903   19.2923 C   0  0  1  0  0  0  0  0  0  0  0  0
   11.4346  -16.8566   18.3400 C   0  0  0  0  0  0  0  0  0  0  0  0
   10.9281  -15.9641   17.6341 O   0  0  0  0  0  0  0  0  0  0  0  0
   12.7792  -17.1686   18.2603 O   0  0  0  0  0  0  0  0  0  0  0  0
  2  1  1  1
  2  3  1  0
  4  3  1  0
  4  5  2  0
  6  5  1  0
  7 12  2  0
  7  6  1  0
  8  7  1  0
  9 10  1  0
  9  8  2  0
 10 11  2  0
 11 12  1  0
 12  4  1  0
 13  2  1  0
 13 20  1  0
 14 13  2  0
 16 15  1  0
 17 16  2  0
 18 16  1  0
 19 20  1  0
 19 18  1  6
 21 19  1  0
 22 21  2  0
 23 21  1  0
 24 23  1  0
 25 26  1  0
 25 24  1  0
 26 27  1  0
 27 23  1  0
 27 28  1  6
 28 29  2  0
 28 30  1  0
M  END
$$$$
