WNP.pdb
     RDKit          3D

 30 32  0  0  1  0  0  0  0  0999 V2000
    9.3869  -16.6390   25.7726 N   0  0  0  0  0  0  0  0  0  0  0  0
    8.7843  -16.6405   24.4697 C   0  0  1  0  0  0  0  0  0  0  0  0
    7.3978  -16.0522   24.4867 C   0  0  0  0  0  0  0  0  0  0  0  0
    7.0964  -15.2832   25.7126 C   0  0  0  0  0  0  0  0  0  0  0  0
    6.5903  -15.7866   26.9165 C   0  0  0  0  0  0  0  0  0  0  0  0
    6.4265  -14.7761   27.7839 N   0  0  0  0  0  0  0  0  0  0  0  0
    6.8021  -13.6164   27.2120 C   0  0  0  0  0  0  0  0  0  0  0  0
    6.8119  -12.3364   27.7246 C   0  0  0  0  0  0  0  0  0  0  0  0
    7.2617  -11.3215   26.9095 C   0  0  0  0  0  0  0  0  0  0  0  0
    7.6834  -11.5833   25.6344 C   0  0  0  0  0  0  0  0  0  0  0  0
    7.6610  -12.8806   25.1488 C   0  0  0  0  0  0  0  0  0  0  0  0
    7.2219  -13.9274   25.9182 C   0  0  0  0  0  0  0  0  0  0  0  0
    9.5974  -15.7917   23.5564 C   0  0  0  0  0  0  0  0  0  0  0  0
    9.7173  -14.5717   23.8481 O   0  0  0  0  0  0  0  0  0  0  0  0
   12.4970  -15.6297   18.4440 N   0  0  0  0  0  0  0  0  0  0  0  0
   12.4353  -15.0348   19.7348 C   0  0  0  0  0  0  0  0  0  0  0  0
   12.8303  -13.8699   19.8687 O   0  0  0  0  0  0  0  0  0  0  0  0
   11.9016  -15.8547   20.8256 C   0  0  0  0  0  0  0  0  0  0  0  0
   10.5417  -15.3792   21.3275 C   0  0  2  0  0  0  0  0  0  0  0  0
   10.2212  -16.3185   22.3982 N   0  0  0  0  0  0  0  0  0  0  0  0
    9.5290  -15.3742   20.2852 C   0  0  0  0  0  0  0  0  0  0  0  0
    8.9588  -16.4797   20.0331 O   0  0  0  0  0  0  0  0  0  0  0  0
    9.1643  -14.2377   19.5710 N   0  0  0  0  0  0  0  0  0  0  0  0
    9.8201  -12.9348   19.7569 C   0  0  0  0  0  0  0  0  0  0  0  0
    8.7328  -11.9451   19.4572 C   0  0  0  0  0  0  0  0  0  0  0  0
    7.7420  -12.6311   18.5824 C   0  0  0  0  0  0  0  0  0  0  0  0
    8.1733  -14.0940   18.5393 C   0  0  1  0  0  0  0  0  0  0  0  0
    8.8231  -14.3205   17.1950 C   0  0  0  0  0  0  0  0  0  0  0  0
    8.0943  -14.2473   16.1876 O   0  0  0  0  0  0  0  0  0  0  0  0
   10.1739  -14.5977   17.0943 O   0  0  0  0  0  0  0  0  0  0  0  0
  2  1  1  1
  2  3  1  0
  4  3  1  0
  4  5  2  0
  6  5  1  0
  7 12  2  0
  7  6  1  0
  8  7  1  0
  9 10  1  0
  9  8  2  0
 10 11  2  0
 11 12  1  0
 12  4  1  0
 13  2  1  0
 13 20  1  0
 14 13  2  0
 16 15  1  0
 17 16  2  0
 18 16  1  0
 19 20  1  0
 19 18  1  6
 21 19  1  0
 22 21  2  0
 23 21  1  0
 24 23  1  0
 25 26  1  0
 25 24  1  0
 26 27  1  0
 27 23  1  0
 27 28  1  6
 28 29  2  0
 28 30  1  0
M  END
$$$$
