WNP.pdb
     RDKit          3D

 30 32  0  0  1  0  0  0  0  0999 V2000
    6.6507  -17.7698   24.3906 N   0  0  0  0  0  0  0  0  0  0  0  0
    7.4276  -16.6608   23.9140 C   0  0  1  0  0  0  0  0  0  0  0  0
    8.1299  -15.9388   25.0340 C   0  0  0  0  0  0  0  0  0  0  0  0
    7.2472  -15.0327   25.7989 C   0  0  0  0  0  0  0  0  0  0  0  0
    6.1318  -15.3944   26.5631 C   0  0  0  0  0  0  0  0  0  0  0  0
    5.5758  -14.2898   27.0836 N   0  0  0  0  0  0  0  0  0  0  0  0
    6.2721  -13.2028   26.7007 C   0  0  0  0  0  0  0  0  0  0  0  0
    6.0721  -11.8710   26.9971 C   0  0  0  0  0  0  0  0  0  0  0  0
    6.9559  -10.9559   26.4697 C   0  0  0  0  0  0  0  0  0  0  0  0
    7.9955  -11.3631   25.6788 C   0  0  0  0  0  0  0  0  0  0  0  0
    8.1690  -12.7089   25.3994 C   0  0  0  0  0  0  0  0  0  0  0  0
    7.3175  -13.6611   25.8984 C   0  0  0  0  0  0  0  0  0  0  0  0
    8.4883  -17.1666   23.0002 C   0  0  0  0  0  0  0  0  0  0  0  0
    8.9419  -18.3219   23.2179 O   0  0  0  0  0  0  0  0  0  0  0  0
    9.4129  -17.2234   17.9023 N   0  0  0  0  0  0  0  0  0  0  0  0
    9.1039  -16.3942   19.0163 C   0  0  0  0  0  0  0  0  0  0  0  0
    7.9419  -15.9901   19.1487 O   0  0  0  0  0  0  0  0  0  0  0  0
   10.1975  -16.0749   19.9377 C   0  0  0  0  0  0  0  0  0  0  0  0
   10.1614  -16.8951   21.2235 C   0  0  2  0  0  0  0  0  0  0  0  0
    8.9812  -16.3924   21.9206 N   0  0  0  0  0  0  0  0  0  0  0  0
   11.3689  -16.7463   22.0183 C   0  0  0  0  0  0  0  0  0  0  0  0
   11.4364  -15.7300   22.7756 O   0  0  0  0  0  0  0  0  0  0  0  0
   12.4270  -17.6486   21.9881 N   0  0  0  0  0  0  0  0  0  0  0  0
   12.4247  -18.8519   21.1430 C   0  0  0  0  0  0  0  0  0  0  0  0
   13.2500  -19.8334   21.9221 C   0  0  0  0  0  0  0  0  0  0  0  0
   14.1424  -19.0457   22.8170 C   0  0  0  0  0  0  0  0  0  0  0  0
   13.6835  -17.5966   22.6850 C   0  0  1  0  0  0  0  0  0  0  0  0
   14.7001  -16.8915   21.8189 C   0  0  0  0  0  0  0  0  0  0  0  0
   14.4553  -16.8099   20.6004 O   0  0  0  0  0  0  0  0  0  0  0  0
   15.8544  -16.3602   22.3640 O   0  0  0  0  0  0  0  0  0  0  0  0
  2  1  1  1
  2  3  1  0
  4  3  1  0
  4  5  2  0
  6  5  1  0
  7 12  2  0
  7  6  1  0
  8  7  1  0
  9 10  1  0
  9  8  2  0
 10 11  2  0
 11 12  1  0
 12  4  1  0
 13  2  1  0
 13 20  1  0
 14 13  2  0
 16 15  1  0
 17 16  2  0
 18 16  1  0
 19 20  1  0
 19 18  1  6
 21 19  1  0
 22 21  2  0
 23 21  1  0
 24 23  1  0
 25 26  1  0
 25 24  1  0
 26 27  1  0
 27 23  1  0
 27 28  1  6
 28 29  2  0
 28 30  1  0
M  END
$$$$
