WNP.pdb
     RDKit          3D

 30 32  0  0  1  0  0  0  0  0999 V2000
    7.6643  -16.7283   20.7519 N   0  0  0  0  0  0  0  0  0  0  0  0
    8.2089  -15.9497   21.8278 C   0  0  1  0  0  0  0  0  0  0  0  0
    7.1904  -15.6820   22.9048 C   0  0  0  0  0  0  0  0  0  0  0  0
    7.0458  -14.2494   23.2393 C   0  0  0  0  0  0  0  0  0  0  0  0
    6.9030  -13.1871   22.3393 C   0  0  0  0  0  0  0  0  0  0  0  0
    6.8265  -12.0355   23.0235 N   0  0  0  0  0  0  0  0  0  0  0  0
    6.9115  -12.2813   24.3446 C   0  0  0  0  0  0  0  0  0  0  0  0
    6.8734  -11.4111   25.4135 C   0  0  0  0  0  0  0  0  0  0  0  0
    6.9754  -11.9438   26.6794 C   0  0  0  0  0  0  0  0  0  0  0  0
    7.1097  -13.2932   26.8618 C   0  0  0  0  0  0  0  0  0  0  0  0
    7.1449  -14.1412   25.7667 C   0  0  0  0  0  0  0  0  0  0  0  0
    7.0482  -13.6628   24.4852 C   0  0  0  0  0  0  0  0  0  0  0  0
    9.3169  -16.7109   22.4672 C   0  0  0  0  0  0  0  0  0  0  0  0
    9.0729  -17.8886   22.8432 O   0  0  0  0  0  0  0  0  0  0  0  0
   14.6392  -17.9855   23.0760 N   0  0  0  0  0  0  0  0  0  0  0  0
   14.0491  -16.8882   23.7627 C   0  0  0  0  0  0  0  0  0  0  0  0
   14.5280  -16.5445   24.8506 O   0  0  0  0  0  0  0  0  0  0  0  0
   12.9027  -16.2364   23.1241 C   0  0  0  0  0  0  0  0  0  0  0  0
   11.5790  -16.9455   23.3931 C   0  0  2  0  0  0  0  0  0  0  0  0
   10.6041  -16.1488   22.6538 N   0  0  0  0  0  0  0  0  0  0  0  0
   11.2603  -17.0208   24.8091 C   0  0  0  0  0  0  0  0  0  0  0  0
   10.8907  -15.9454   25.3726 O   0  0  0  0  0  0  0  0  0  0  0  0
   11.3381  -18.1924   25.5548 N   0  0  0  0  0  0  0  0  0  0  0  0
   11.6997  -19.4901   24.9652 C   0  0  0  0  0  0  0  0  0  0  0  0
   10.9570  -20.4824   25.8109 C   0  0  0  0  0  0  0  0  0  0  0  0
   10.7052  -19.8364   27.1289 C   0  0  0  0  0  0  0  0  0  0  0  0
   11.1424  -18.3838   26.9662 C   0  0  1  0  0  0  0  0  0  0  0  0
   12.4699  -18.2433   27.6727 C   0  0  0  0  0  0  0  0  0  0  0  0
   13.4990  -18.3005   26.9734 O   0  0  0  0  0  0  0  0  0  0  0  0
   12.5324  -18.0589   29.0415 O   0  0  0  0  0  0  0  0  0  0  0  0
  2  1  1  6
  2  3  1  0
  4  3  1  0
  4  5  2  0
  6  5  1  0
  7 12  2  0
  7  6  1  0
  8  7  1  0
  9 10  1  0
  9  8  2  0
 10 11  2  0
 11 12  1  0
 12  4  1  0
 13  2  1  0
 13 20  1  0
 14 13  2  0
 16 15  1  0
 17 16  2  0
 18 16  1  0
 19 20  1  0
 19 18  1  1
 21 19  1  0
 22 21  2  0
 23 21  1  0
 24 23  1  0
 25 26  1  0
 25 24  1  0
 26 27  1  0
 27 23  1  0
 27 28  1  1
 28 29  2  0
 28 30  1  0
M  END
$$$$
