WNP.pdb
     RDKit          3D

 30 32  0  0  1  0  0  0  0  0999 V2000
    6.0887  -18.6007   24.8856 N   0  0  0  0  0  0  0  0  0  0  0  0
    6.6333  -17.3136   24.5584 C   0  0  1  0  0  0  0  0  0  0  0  0
    7.2941  -16.6605   25.7441 C   0  0  0  0  0  0  0  0  0  0  0  0
    6.7394  -15.3300   26.0718 C   0  0  0  0  0  0  0  0  0  0  0  0
    5.3956  -15.0140   26.3026 C   0  0  0  0  0  0  0  0  0  0  0  0
    5.2861  -13.6987   26.5439 N   0  0  0  0  0  0  0  0  0  0  0  0
    6.5004  -13.1198   26.4852 C   0  0  0  0  0  0  0  0  0  0  0  0
    6.8657  -11.8032   26.6709 C   0  0  0  0  0  0  0  0  0  0  0  0
    8.2011  -11.4853   26.5588 C   0  0  0  0  0  0  0  0  0  0  0  0
    9.1282  -12.4501   26.2726 C   0  0  0  0  0  0  0  0  0  0  0  0
    8.7287  -13.7642   26.0913 C   0  0  0  0  0  0  0  0  0  0  0  0
    7.4120  -14.1343   26.1910 C   0  0  0  0  0  0  0  0  0  0  0  0
    7.6870  -17.4804   23.5203 C   0  0  0  0  0  0  0  0  0  0  0  0
    8.3603  -18.5454   23.5401 O   0  0  0  0  0  0  0  0  0  0  0  0
    7.4732  -17.0879   19.0434 N   0  0  0  0  0  0  0  0  0  0  0  0
    8.5799  -16.2062   19.1913 C   0  0  0  0  0  0  0  0  0  0  0  0
    9.2637  -15.9428   18.1943 O   0  0  0  0  0  0  0  0  0  0  0  0
    8.8328  -15.6671   20.5301 C   0  0  0  0  0  0  0  0  0  0  0  0
    9.0172  -16.7483   21.5904 C   0  0  2  0  0  0  0  0  0  0  0  0
    7.9373  -16.4899   22.5383 N   0  0  0  0  0  0  0  0  0  0  0  0
   10.3238  -16.6954   22.2247 C   0  0  0  0  0  0  0  0  0  0  0  0
   10.4519  -15.9068   23.2109 O   0  0  0  0  0  0  0  0  0  0  0  0
   11.4126  -17.4549   21.8099 N   0  0  0  0  0  0  0  0  0  0  0  0
   11.3469  -18.3907   20.6775 C   0  0  0  0  0  0  0  0  0  0  0  0
   12.3345  -19.4594   21.0434 C   0  0  0  0  0  0  0  0  0  0  0  0
   13.3089  -18.8522   21.9919 C   0  0  0  0  0  0  0  0  0  0  0  0
   12.7563  -17.4687   22.3212 C   0  0  1  0  0  0  0  0  0  0  0  0
   13.5879  -16.4696   21.5522 C   0  0  0  0  0  0  0  0  0  0  0  0
   13.2184  -16.1863   20.3970 O   0  0  0  0  0  0  0  0  0  0  0  0
   14.7134  -15.8965   22.1148 O   0  0  0  0  0  0  0  0  0  0  0  0
  2  1  1  1
  2  3  1  0
  4  3  1  0
  4  5  2  0
  6  5  1  0
  7 12  2  0
  7  6  1  0
  8  7  1  0
  9 10  1  0
  9  8  2  0
 10 11  2  0
 11 12  1  0
 12  4  1  0
 13  2  1  0
 13 20  1  0
 14 13  2  0
 16 15  1  0
 17 16  2  0
 18 16  1  0
 19 20  1  0
 19 18  1  6
 21 19  1  0
 22 21  2  0
 23 21  1  0
 24 23  1  0
 25 26  1  0
 25 24  1  0
 26 27  1  0
 27 23  1  0
 27 28  1  6
 28 29  2  0
 28 30  1  0
M  END
$$$$
