WNP.pdb
     RDKit          3D

 30 32  0  0  1  0  0  0  0  0999 V2000
    5.8676  -18.4261   24.1366 N   0  0  0  0  0  0  0  0  0  0  0  0
    6.5841  -17.1880   24.0174 C   0  0  1  0  0  0  0  0  0  0  0  0
    7.2271  -16.7788   25.3166 C   0  0  0  0  0  0  0  0  0  0  0  0
    6.7133  -15.5012   25.8542 C   0  0  0  0  0  0  0  0  0  0  0  0
    5.4070  -15.2341   26.2800 C   0  0  0  0  0  0  0  0  0  0  0  0
    5.3245  -13.9550   26.6766 N   0  0  0  0  0  0  0  0  0  0  0  0
    6.5208  -13.3536   26.5351 C   0  0  0  0  0  0  0  0  0  0  0  0
    6.9028  -12.0595   26.8193 C   0  0  0  0  0  0  0  0  0  0  0  0
    8.2135  -11.7098   26.5817 C   0  0  0  0  0  0  0  0  0  0  0  0
    9.1010  -12.6223   26.0802 C   0  0  0  0  0  0  0  0  0  0  0  0
    8.6858  -13.9151   25.8048 C   0  0  0  0  0  0  0  0  0  0  0  0
    7.3922  -14.3150   26.0222 C   0  0  0  0  0  0  0  0  0  0  0  0
    7.6853  -17.3560   23.0299 C   0  0  0  0  0  0  0  0  0  0  0  0
    8.3794  -18.4050   23.1050 O   0  0  0  0  0  0  0  0  0  0  0  0
    7.7847  -17.2163   18.8130 N   0  0  0  0  0  0  0  0  0  0  0  0
    8.3047  -15.8941   18.8844 C   0  0  0  0  0  0  0  0  0  0  0  0
    8.1494  -15.1440   17.9127 O   0  0  0  0  0  0  0  0  0  0  0  0
    8.9950  -15.5113   20.1189 C   0  0  0  0  0  0  0  0  0  0  0  0
    9.0793  -16.6431   21.1383 C   0  0  2  0  0  0  0  0  0  0  0  0
    7.9572  -16.3838   22.0356 N   0  0  0  0  0  0  0  0  0  0  0  0
   10.3486  -16.6681   21.8456 C   0  0  0  0  0  0  0  0  0  0  0  0
   10.5044  -15.8192   22.7761 O   0  0  0  0  0  0  0  0  0  0  0  0
   11.3741  -17.5621   21.5561 N   0  0  0  0  0  0  0  0  0  0  0  0
   11.2773  -18.5674   20.4873 C   0  0  0  0  0  0  0  0  0  0  0  0
   12.1237  -19.7002   20.9892 C   0  0  0  0  0  0  0  0  0  0  0  0
   13.0987  -19.1260   21.9573 C   0  0  0  0  0  0  0  0  0  0  0  0
   12.6763  -17.6734   22.1553 C   0  0  1  0  0  0  0  0  0  0  0  0
   13.6524  -16.8227   21.3778 C   0  0  0  0  0  0  0  0  0  0  0  0
   14.7793  -16.6436   21.8771 O   0  0  0  0  0  0  0  0  0  0  0  0
   13.3018  -16.2680   20.1607 O   0  0  0  0  0  0  0  0  0  0  0  0
  2  1  1  1
  2  3  1  0
  4  3  1  0
  4  5  2  0
  6  5  1  0
  7 12  2  0
  7  6  1  0
  8  7  1  0
  9 10  1  0
  9  8  2  0
 10 11  2  0
 11 12  1  0
 12  4  1  0
 13  2  1  0
 13 20  1  0
 14 13  2  0
 16 15  1  0
 17 16  2  0
 18 16  1  0
 19 20  1  0
 19 18  1  6
 21 19  1  0
 22 21  2  0
 23 21  1  0
 24 23  1  0
 25 26  1  0
 25 24  1  0
 26 27  1  0
 27 23  1  0
 27 28  1  6
 28 29  2  0
 28 30  1  0
M  END
$$$$
