WNP.pdb
     RDKit          3D

 30 32  0  0  1  0  0  0  0  0999 V2000
    5.3086  -17.4123   21.1578 N   0  0  0  0  0  0  0  0  0  0  0  0
    6.5995  -17.7319   21.6980 C   0  0  1  0  0  0  0  0  0  0  0  0
    7.7057  -16.9831   21.0019 C   0  0  0  0  0  0  0  0  0  0  0  0
    7.4208  -15.5444   20.8170 C   0  0  0  0  0  0  0  0  0  0  0  0
    6.3336  -14.8304   21.3337 C   0  0  0  0  0  0  0  0  0  0  0  0
    6.4091  -13.5542   20.9261 N   0  0  0  0  0  0  0  0  0  0  0  0
    7.5019  -13.3827   20.1584 C   0  0  0  0  0  0  0  0  0  0  0  0
    7.9788  -12.2496   19.5340 C   0  0  0  0  0  0  0  0  0  0  0  0
    9.1433  -12.3589   18.8068 C   0  0  0  0  0  0  0  0  0  0  0  0
    9.7992  -13.5560   18.7122 C   0  0  0  0  0  0  0  0  0  0  0  0
    9.2937  -14.6764   19.3512 C   0  0  0  0  0  0  0  0  0  0  0  0
    8.1378  -14.6226   20.0872 C   0  0  0  0  0  0  0  0  0  0  0  0
    6.6427  -17.3249   23.1292 C   0  0  0  0  0  0  0  0  0  0  0  0
    5.7884  -16.4859   23.5217 O   0  0  0  0  0  0  0  0  0  0  0  0
    6.8963  -18.7573   28.4595 N   0  0  0  0  0  0  0  0  0  0  0  0
    8.0260  -18.4793   27.6407 C   0  0  0  0  0  0  0  0  0  0  0  0
    9.0604  -18.0670   28.1801 O   0  0  0  0  0  0  0  0  0  0  0  0
    7.8811  -18.7042   26.2002 C   0  0  0  0  0  0  0  0  0  0  0  0
    7.4932  -17.4461   25.4296 C   0  0  2  0  0  0  0  0  0  0  0  0
    7.6008  -17.8510   24.0310 N   0  0  0  0  0  0  0  0  0  0  0  0
    8.3501  -16.3131   25.7367 C   0  0  0  0  0  0  0  0  0  0  0  0
    9.4845  -16.2804   25.1685 O   0  0  0  0  0  0  0  0  0  0  0  0
    7.9888  -15.2867   26.6030 N   0  0  0  0  0  0  0  0  0  0  0  0
    6.7257  -15.2865   27.3559 C   0  0  0  0  0  0  0  0  0  0  0  0
    6.3967  -13.8292   27.4952 C   0  0  0  0  0  0  0  0  0  0  0  0
    7.6755  -13.0757   27.3740 C   0  0  0  0  0  0  0  0  0  0  0  0
    8.7244  -14.1064   26.9675 C   0  0  1  0  0  0  0  0  0  0  0  0
    9.5512  -14.3994   28.1969 C   0  0  0  0  0  0  0  0  0  0  0  0
   10.2476  -13.4726   28.6523 O   0  0  0  0  0  0  0  0  0  0  0  0
    9.5308  -15.6492   28.7880 O   0  0  0  0  0  0  0  0  0  0  0  0
  2  1  1  6
  2  3  1  0
  4  3  1  0
  4  5  2  0
  6  5  1  0
  7 12  2  0
  7  6  1  0
  8  7  1  0
  9 10  1  0
  9  8  2  0
 10 11  2  0
 11 12  1  0
 12  4  1  0
 13  2  1  0
 13 20  1  0
 14 13  2  0
 16 15  1  0
 17 16  2  0
 18 16  1  0
 19 20  1  0
 19 18  1  1
 21 19  1  0
 22 21  2  0
 23 21  1  0
 24 23  1  0
 25 26  1  0
 25 24  1  0
 26 27  1  0
 27 23  1  0
 27 28  1  1
 28 29  2  0
 28 30  1  0
M  END
$$$$
