WNP.pdb
     RDKit          3D

 30 32  0  0  1  0  0  0  0  0999 V2000
    7.0573  -16.7666   22.8364 N   0  0  0  0  0  0  0  0  0  0  0  0
    8.1601  -15.8851   23.0955 C   0  0  1  0  0  0  0  0  0  0  0  0
    8.4240  -15.7268   24.5700 C   0  0  0  0  0  0  0  0  0  0  0  0
    7.3841  -14.9498   25.2770 C   0  0  0  0  0  0  0  0  0  0  0  0
    6.1775  -15.4364   25.7930 C   0  0  0  0  0  0  0  0  0  0  0  0
    5.4897  -14.4224   26.3397 N   0  0  0  0  0  0  0  0  0  0  0  0
    6.1849  -13.2763   26.2123 C   0  0  0  0  0  0  0  0  0  0  0  0
    5.8735  -11.9987   26.6271 C   0  0  0  0  0  0  0  0  0  0  0  0
    6.7858  -10.9996   26.3694 C   0  0  0  0  0  0  0  0  0  0  0  0
    7.9600  -11.2742   25.7229 C   0  0  0  0  0  0  0  0  0  0  0  0
    8.2432  -12.5687   25.3187 C   0  0  0  0  0  0  0  0  0  0  0  0
    7.3693  -13.6000   25.5496 C   0  0  0  0  0  0  0  0  0  0  0  0
    9.3958  -16.4631   22.4998 C   0  0  0  0  0  0  0  0  0  0  0  0
    9.5143  -17.7176   22.5085 O   0  0  0  0  0  0  0  0  0  0  0  0
   14.9647  -15.0872   21.3175 N   0  0  0  0  0  0  0  0  0  0  0  0
   13.8539  -15.6222   20.6078 C   0  0  0  0  0  0  0  0  0  0  0  0
   14.0686  -16.4246   19.6907 O   0  0  0  0  0  0  0  0  0  0  0  0
   12.5193  -15.1789   21.0194 C   0  0  0  0  0  0  0  0  0  0  0  0
   11.7254  -16.2563   21.7515 C   0  0  2  0  0  0  0  0  0  0  0  0
   10.4110  -15.6490   21.9391 N   0  0  0  0  0  0  0  0  0  0  0  0
   12.3334  -16.6412   23.0142 C   0  0  0  0  0  0  0  0  0  0  0  0
   12.1968  -15.8367   23.9862 O   0  0  0  0  0  0  0  0  0  0  0  0
   13.0390  -17.8253   23.1999 N   0  0  0  0  0  0  0  0  0  0  0  0
   13.2836  -18.7863   22.1141 C   0  0  0  0  0  0  0  0  0  0  0  0
   13.3356  -20.1104   22.8182 C   0  0  0  0  0  0  0  0  0  0  0  0
   13.7067  -19.8413   24.2351 C   0  0  0  0  0  0  0  0  0  0  0  0
   13.6782  -18.3235   24.3875 C   0  0  1  0  0  0  0  0  0  0  0  0
   15.1147  -17.8575   24.4081 C   0  0  0  0  0  0  0  0  0  0  0  0
   15.6094  -17.4807   23.3289 O   0  0  0  0  0  0  0  0  0  0  0  0
   15.8453  -17.8524   25.5819 O   0  0  0  0  0  0  0  0  0  0  0  0
  2  1  1  1
  2  3  1  0
  4  3  1  0
  4  5  2  0
  6  5  1  0
  7 12  2  0
  7  6  1  0
  8  7  1  0
  9 10  1  0
  9  8  2  0
 10 11  2  0
 11 12  1  0
 12  4  1  0
 13  2  1  0
 13 20  1  0
 14 13  2  0
 16 15  1  0
 17 16  2  0
 18 16  1  0
 19 20  1  0
 19 18  1  1
 21 19  1  0
 22 21  2  0
 23 21  1  0
 24 23  1  0
 25 26  1  0
 25 24  1  0
 26 27  1  0
 27 23  1  0
 27 28  1  6
 28 29  2  0
 28 30  1  0
M  END
$$$$
