ECF.pdb
     RDKit          3D

 27 27  0  0  1  0  0  0  0  0999 V2000
    7.9080  -18.6719   17.9602 N   0  0  0  0  0  0  0  0  0  0  0  0
    8.1854  -19.2513   19.2753 C   0  0  1  0  0  0  0  0  0  0  0  0
    9.6227  -19.6649   19.2651 C   0  0  0  0  0  0  0  0  0  0  0  0
   10.5916  -18.5691   19.6268 C   0  0  0  0  0  0  0  0  0  0  0  0
   11.9807  -19.0717   19.6524 C   0  0  0  0  0  0  0  0  0  0  0  0
   12.5936  -19.3912   18.6058 O   0  0  0  0  0  0  0  0  0  0  0  0
    7.9909  -18.1519   20.2695 C   0  0  0  0  0  0  0  0  0  0  0  0
    8.1917  -16.9630   19.9408 O   0  0  0  0  0  0  0  0  0  0  0  0
   12.6351  -19.1977   20.8633 O   0  0  0  0  0  0  0  0  0  0  0  0
    7.5800  -18.3912   21.5978 N   0  0  0  0  0  0  0  0  0  0  0  0
    7.2572  -17.3163   22.4632 C   0  0  1  0  0  0  0  0  0  0  0  0
    5.9431  -17.4692   23.1851 C   0  0  0  0  0  0  0  0  0  0  0  0
    5.8520  -18.9719   24.1699 S   0  0  0  0  0  0  0  0  0  0  0  0
    8.2773  -17.0444   23.5065 C   0  0  0  0  0  0  0  0  0  0  0  0
    9.0385  -18.0029   23.8091 O   0  0  0  0  0  0  0  0  0  0  0  0
    8.4145  -15.7895   24.1444 N   0  0  0  0  0  0  0  0  0  0  0  0
    9.5213  -15.6233   25.0804 C   0  0  1  0  0  0  0  0  0  0  0  0
    9.7139  -14.1377   25.2720 C   0  0  0  0  0  0  0  0  0  0  0  0
    8.4703  -13.4883   25.7646 C   0  0  0  0  0  0  0  0  0  0  0  0
    7.3663  -13.3048   24.9619 C   0  0  0  0  0  0  0  0  0  0  0  0
    6.2297  -12.7085   25.4295 C   0  0  0  0  0  0  0  0  0  0  0  0
    6.1828  -12.2747   26.7482 C   0  0  0  0  0  0  0  0  0  0  0  0
    7.2713  -12.4495   27.5589 C   0  0  0  0  0  0  0  0  0  0  0  0
    8.4052  -13.0507   27.0721 C   0  0  0  0  0  0  0  0  0  0  0  0
    9.2822  -16.3594   26.3320 C   0  0  0  0  0  0  0  0  0  0  0  0
   10.1609  -16.4399   27.2235 O   0  0  0  0  0  0  0  0  0  0  0  0
    8.0502  -16.9979   26.5642 O   0  0  0  0  0  0  0  0  0  0  0  0
  2  1  1  6
  3  2  1  0
  4  3  1  0
  5  4  1  0
  5  6  2  0
  7  2  1  0
  7  8  2  0
  9  5  1  0
 10  7  1  0
 11 10  1  0
 11 12  1  1
 12 13  1  0
 14 11  1  0
 15 14  2  0
 16 14  1  0
 17 16  1  0
 17 18  1  1
 18 19  1  0
 19 20  2  0
 20 21  1  0
 22 21  2  0
 23 22  1  0
 24 19  1  0
 24 23  2  0
 25 27  1  0
 25 17  1  0
 26 25  2  0
M  END
$$$$
