ECF.pdb
     RDKit          3D

 27 27  0  0  1  0  0  0  0  0999 V2000
    9.0775  -15.6320   18.9623 N   0  0  0  0  0  0  0  0  0  0  0  0
    8.6703  -14.3942   19.6288 C   0  0  1  0  0  0  0  0  0  0  0  0
    7.5493  -13.8228   18.8202 C   0  0  0  0  0  0  0  0  0  0  0  0
    7.9874  -13.0298   17.6160 C   0  0  0  0  0  0  0  0  0  0  0  0
    8.3520  -13.9198   16.4946 C   0  0  0  0  0  0  0  0  0  0  0  0
    7.5813  -14.8173   16.0778 O   0  0  0  0  0  0  0  0  0  0  0  0
    8.1600  -14.7901   20.9771 C   0  0  0  0  0  0  0  0  0  0  0  0
    7.6842  -13.9292   21.7479 O   0  0  0  0  0  0  0  0  0  0  0  0
    9.5794  -13.7671   15.8778 O   0  0  0  0  0  0  0  0  0  0  0  0
    8.1868  -16.1228   21.4395 N   0  0  0  0  0  0  0  0  0  0  0  0
    7.5319  -16.4876   22.6421 C   0  0  1  0  0  0  0  0  0  0  0  0
    7.0888  -17.9269   22.6998 C   0  0  0  0  0  0  0  0  0  0  0  0
    6.1188  -18.4224   21.2681 S   0  0  0  0  0  0  0  0  0  0  0  0
    8.3306  -16.2474   23.8699 C   0  0  0  0  0  0  0  0  0  0  0  0
    9.5822  -16.2019   23.7241 O   0  0  0  0  0  0  0  0  0  0  0  0
    7.7497  -16.0739   25.1479 N   0  0  0  0  0  0  0  0  0  0  0  0
    8.6426  -15.7746   26.2623 C   0  0  1  0  0  0  0  0  0  0  0  0
    7.8179  -15.0560   27.3037 C   0  0  0  0  0  0  0  0  0  0  0  0
    7.3769  -13.7209   26.8202 C   0  0  0  0  0  0  0  0  0  0  0  0
    6.0484  -13.3648   26.7473 C   0  0  0  0  0  0  0  0  0  0  0  0
    5.6585  -12.1332   26.3031 C   0  0  0  0  0  0  0  0  0  0  0  0
    6.6243  -11.2138   25.9139 C   0  0  0  0  0  0  0  0  0  0  0  0
    7.9486  -11.5520   25.9802 C   0  0  0  0  0  0  0  0  0  0  0  0
    8.3222  -12.7943   26.4291 C   0  0  0  0  0  0  0  0  0  0  0  0
    9.3056  -16.9897   26.7616 C   0  0  0  0  0  0  0  0  0  0  0  0
    8.8550  -18.1330   26.5101 O   0  0  0  0  0  0  0  0  0  0  0  0
   10.4734  -16.9005   27.5411 O   0  0  0  0  0  0  0  0  0  0  0  0
  2  1  1  6
  3  2  1  0
  4  3  1  0
  5  4  1  0
  5  6  2  0
  7  2  1  0
  7  8  2  0
  9  5  1  0
 10  7  1  0
 11 10  1  0
 11 12  1  6
 12 13  1  0
 14 11  1  0
 15 14  2  0
 16 14  1  0
 17 16  1  0
 17 18  1  1
 18 19  1  0
 19 20  2  0
 20 21  1  0
 22 21  2  0
 23 22  1  0
 24 19  1  0
 24 23  2  0
 25 27  1  0
 25 17  1  0
 26 25  2  0
M  END
$$$$
