ECF.pdb
     RDKit          3D

 27 27  0  0  1  0  0  0  0  0999 V2000
    9.5767  -14.7916   19.1939 N   0  0  0  0  0  0  0  0  0  0  0  0
    8.5539  -13.9899   19.8672 C   0  0  1  0  0  0  0  0  0  0  0  0
    7.3902  -13.9092   18.9313 C   0  0  0  0  0  0  0  0  0  0  0  0
    7.6500  -13.1156   17.6769 C   0  0  0  0  0  0  0  0  0  0  0  0
    8.2378  -13.9645   16.6203 C   0  0  0  0  0  0  0  0  0  0  0  0
    8.7757  -13.4786   15.5967 O   0  0  0  0  0  0  0  0  0  0  0  0
    8.1574  -14.7536   21.0897 C   0  0  0  0  0  0  0  0  0  0  0  0
    7.0450  -14.5544   21.6234 O   0  0  0  0  0  0  0  0  0  0  0  0
    8.1991  -15.3397   16.7541 O   0  0  0  0  0  0  0  0  0  0  0  0
    8.9957  -15.7162   21.6908 N   0  0  0  0  0  0  0  0  0  0  0  0
    8.5193  -16.5403   22.7406 C   0  0  1  0  0  0  0  0  0  0  0  0
    8.8286  -18.0057   22.5733 C   0  0  0  0  0  0  0  0  0  0  0  0
   10.4292  -18.3041   21.8082 S   0  0  0  0  0  0  0  0  0  0  0  0
    9.0136  -16.1606   24.0877 C   0  0  0  0  0  0  0  0  0  0  0  0
   10.1451  -15.6064   24.1336 O   0  0  0  0  0  0  0  0  0  0  0  0
    8.2792  -16.3930   25.2740 N   0  0  0  0  0  0  0  0  0  0  0  0
    8.9030  -16.0225   26.5399 C   0  0  1  0  0  0  0  0  0  0  0  0
    7.8195  -15.4200   27.4025 C   0  0  0  0  0  0  0  0  0  0  0  0
    7.4289  -14.0694   26.9187 C   0  0  0  0  0  0  0  0  0  0  0  0
    6.3181  -13.8606   26.1316 C   0  0  0  0  0  0  0  0  0  0  0  0
    5.9705  -12.6132   25.6965 C   0  0  0  0  0  0  0  0  0  0  0  0
    6.7555  -11.5249   26.0554 C   0  0  0  0  0  0  0  0  0  0  0  0
    7.8626  -11.7153   26.8369 C   0  0  0  0  0  0  0  0  0  0  0  0
    8.1969  -12.9760   27.2650 C   0  0  0  0  0  0  0  0  0  0  0  0
    9.5880  -17.1690   27.1578 C   0  0  0  0  0  0  0  0  0  0  0  0
    9.4416  -18.3348   26.7187 O   0  0  0  0  0  0  0  0  0  0  0  0
   10.4334  -16.9860   28.2674 O   0  0  0  0  0  0  0  0  0  0  0  0
  2  1  1  6
  3  2  1  0
  4  3  1  0
  5  4  1  0
  5  6  2  0
  7  2  1  0
  7  8  2  0
  9  5  1  0
 10  7  1  0
 11 10  1  0
 11 12  1  6
 12 13  1  0
 14 11  1  0
 15 14  2  0
 16 14  1  0
 17 16  1  0
 17 18  1  1
 18 19  1  0
 19 20  2  0
 20 21  1  0
 22 21  2  0
 23 22  1  0
 24 19  1  0
 24 23  2  0
 25 27  1  0
 25 17  1  0
 26 25  2  0
M  END
$$$$
