ECF.pdb
     RDKit          3D

 27 27  0  0  1  0  0  0  0  0999 V2000
    7.1110  -16.4268   19.2831 N   0  0  0  0  0  0  0  0  0  0  0  0
    7.6331  -15.4139   20.2016 C   0  0  1  0  0  0  0  0  0  0  0  0
    6.9047  -14.1440   19.8954 C   0  0  0  0  0  0  0  0  0  0  0  0
    7.7844  -13.0180   19.4168 C   0  0  0  0  0  0  0  0  0  0  0  0
    8.5120  -13.3946   18.1873 C   0  0  0  0  0  0  0  0  0  0  0  0
    7.9161  -13.7432   17.1402 O   0  0  0  0  0  0  0  0  0  0  0  0
    7.2775  -15.8717   21.5796 C   0  0  0  0  0  0  0  0  0  0  0  0
    6.1191  -15.7070   22.0186 O   0  0  0  0  0  0  0  0  0  0  0  0
    9.8938  -13.3652   18.1800 O   0  0  0  0  0  0  0  0  0  0  0  0
    8.2066  -16.4991   22.4363 N   0  0  0  0  0  0  0  0  0  0  0  0
    7.8243  -16.9313   23.7307 C   0  0  1  0  0  0  0  0  0  0  0  0
    7.8412  -18.4263   23.9199 C   0  0  0  0  0  0  0  0  0  0  0  0
    7.3324  -18.9326   25.5694 S   0  0  0  0  0  0  0  0  0  0  0  0
    8.6418  -16.3622   24.8311 C   0  0  0  0  0  0  0  0  0  0  0  0
    9.8835  -16.2868   24.6254 O   0  0  0  0  0  0  0  0  0  0  0  0
    8.0885  -15.9187   26.0550 N   0  0  0  0  0  0  0  0  0  0  0  0
    9.0106  -15.4553   27.0863 C   0  0  1  0  0  0  0  0  0  0  0  0
    8.2102  -14.5956   28.0356 C   0  0  0  0  0  0  0  0  0  0  0  0
    7.6900  -13.3785   27.3581 C   0  0  0  0  0  0  0  0  0  0  0  0
    6.3424  -13.1252   27.2292 C   0  0  0  0  0  0  0  0  0  0  0  0
    5.8793  -12.0012   26.6060 C   0  0  0  0  0  0  0  0  0  0  0  0
    6.7886  -11.0880   26.0877 C   0  0  0  0  0  0  0  0  0  0  0  0
    8.1310  -11.3248   26.2074 C   0  0  0  0  0  0  0  0  0  0  0  0
    8.5784  -12.4597   26.8368 C   0  0  0  0  0  0  0  0  0  0  0  0
    9.6985  -16.5812   27.7380 C   0  0  0  0  0  0  0  0  0  0  0  0
   10.5552  -16.3956   28.6351 O   0  0  0  0  0  0  0  0  0  0  0  0
    9.4104  -17.9079   27.3688 O   0  0  0  0  0  0  0  0  0  0  0  0
  2  1  1  6
  3  2  1  0
  4  3  1  0
  5  4  1  0
  5  6  2  0
  7  2  1  0
  7  8  2  0
  9  5  1  0
 10  7  1  0
 11 10  1  0
 11 12  1  6
 12 13  1  0
 14 11  1  0
 15 14  2  0
 16 14  1  0
 17 16  1  0
 17 18  1  1
 18 19  1  0
 19 20  2  0
 20 21  1  0
 22 21  2  0
 23 22  1  0
 24 19  1  0
 24 23  2  0
 25 27  1  0
 25 17  1  0
 26 25  2  0
M  END
$$$$
