ECF.pdb
     RDKit          3D

 27 27  0  0  1  0  0  0  0  0999 V2000
   10.0407  -18.7011   19.1242 N   0  0  0  0  0  0  0  0  0  0  0  0
   10.5580  -18.5527   20.4852 C   0  0  1  0  0  0  0  0  0  0  0  0
   12.0497  -18.5751   20.3797 C   0  0  0  0  0  0  0  0  0  0  0  0
   12.5956  -19.6301   19.4525 C   0  0  0  0  0  0  0  0  0  0  0  0
   14.0727  -19.6475   19.4742 C   0  0  0  0  0  0  0  0  0  0  0  0
   14.7595  -18.9756   18.6680 O   0  0  0  0  0  0  0  0  0  0  0  0
   10.1129  -17.2071   20.9606 C   0  0  0  0  0  0  0  0  0  0  0  0
   10.9251  -16.2591   21.0181 O   0  0  0  0  0  0  0  0  0  0  0  0
   14.7290  -20.4258   20.4091 O   0  0  0  0  0  0  0  0  0  0  0  0
    8.7856  -16.9416   21.3590 N   0  0  0  0  0  0  0  0  0  0  0  0
    8.4311  -15.6871   21.9148 C   0  0  1  0  0  0  0  0  0  0  0  0
    7.1364  -15.1174   21.3949 C   0  0  0  0  0  0  0  0  0  0  0  0
    6.6760  -13.5731   22.1943 S   0  0  0  0  0  0  0  0  0  0  0  0
    8.3241  -15.6832   23.3953 C   0  0  0  0  0  0  0  0  0  0  0  0
    7.1610  -15.7750   23.8732 O   0  0  0  0  0  0  0  0  0  0  0  0
    9.4463  -15.5844   24.2507 N   0  0  0  0  0  0  0  0  0  0  0  0
    9.2083  -15.6434   25.6890 C   0  0  1  0  0  0  0  0  0  0  0  0
    7.7222  -15.4689   25.8947 C   0  0  0  0  0  0  0  0  0  0  0  0
    7.3690  -14.0418   26.1169 C   0  0  0  0  0  0  0  0  0  0  0  0
    8.3178  -13.0804   26.3858 C   0  0  0  0  0  0  0  0  0  0  0  0
    7.9782  -11.7723   26.5854 C   0  0  0  0  0  0  0  0  0  0  0  0
    6.6421  -11.3988   26.5160 C   0  0  0  0  0  0  0  0  0  0  0  0
    5.6870  -12.3419   26.2498 C   0  0  0  0  0  0  0  0  0  0  0  0
    6.0465  -13.6518   26.0519 C   0  0  0  0  0  0  0  0  0  0  0  0
    9.7495  -16.8807   26.2733 C   0  0  0  0  0  0  0  0  0  0  0  0
    9.6907  -17.1041   27.5062 O   0  0  0  0  0  0  0  0  0  0  0  0
   10.3525  -17.8551   25.4570 O   0  0  0  0  0  0  0  0  0  0  0  0
  2  1  1  6
  3  2  1  0
  4  3  1  0
  5  4  1  0
  5  6  2  0
  7  2  1  0
  7  8  2  0
  9  5  1  0
 10  7  1  0
 11 10  1  0
 11 12  1  6
 12 13  1  0
 14 11  1  0
 15 14  2  0
 16 14  1  0
 17 16  1  0
 17 18  1  6
 18 19  1  0
 19 20  2  0
 20 21  1  0
 22 21  2  0
 23 22  1  0
 24 19  1  0
 24 23  2  0
 25 27  1  0
 25 17  1  0
 26 25  2  0
M  END
$$$$
