ECF.pdb
     RDKit          3D

 27 27  0  0  1  0  0  0  0  0999 V2000
    9.8748  -19.8285   19.7377 N   0  0  0  0  0  0  0  0  0  0  0  0
   10.8551  -19.2786   20.6751 C   0  0  1  0  0  0  0  0  0  0  0  0
   12.1848  -19.3527   19.9945 C   0  0  0  0  0  0  0  0  0  0  0  0
   12.1439  -19.0902   18.5112 C   0  0  0  0  0  0  0  0  0  0  0  0
   13.4488  -18.6024   18.0192 C   0  0  0  0  0  0  0  0  0  0  0  0
   14.5218  -19.2025   18.2675 O   0  0  0  0  0  0  0  0  0  0  0  0
   10.4815  -17.8461   20.8832 C   0  0  0  0  0  0  0  0  0  0  0  0
   11.3214  -16.9416   20.6878 O   0  0  0  0  0  0  0  0  0  0  0  0
   13.5001  -17.4485   17.2601 O   0  0  0  0  0  0  0  0  0  0  0  0
    9.1934  -17.4485   21.2997 N   0  0  0  0  0  0  0  0  0  0  0  0
    8.9887  -16.1973   21.9328 C   0  0  1  0  0  0  0  0  0  0  0  0
    7.8437  -15.3938   21.3718 C   0  0  0  0  0  0  0  0  0  0  0  0
    6.3406  -16.3603   21.1652 S   0  0  0  0  0  0  0  0  0  0  0  0
    8.7603  -16.2834   23.3968 C   0  0  0  0  0  0  0  0  0  0  0  0
    8.0769  -17.2631   23.8006 O   0  0  0  0  0  0  0  0  0  0  0  0
    9.2685  -15.3353   24.3152 N   0  0  0  0  0  0  0  0  0  0  0  0
    8.9501  -15.5220   25.7267 C   0  0  1  0  0  0  0  0  0  0  0  0
    7.4545  -15.3617   25.8635 C   0  0  0  0  0  0  0  0  0  0  0  0
    7.0807  -13.9432   26.1064 C   0  0  0  0  0  0  0  0  0  0  0  0
    5.9983  -13.5879   26.8802 C   0  0  0  0  0  0  0  0  0  0  0  0
    5.6685  -12.2799   27.0964 C   0  0  0  0  0  0  0  0  0  0  0  0
    6.4429  -11.2799   26.5223 C   0  0  0  0  0  0  0  0  0  0  0  0
    7.5219  -11.6162   25.7507 C   0  0  0  0  0  0  0  0  0  0  0  0
    7.8384  -12.9358   25.5441 C   0  0  0  0  0  0  0  0  0  0  0  0
    9.4597  -16.8085   26.2274 C   0  0  0  0  0  0  0  0  0  0  0  0
    9.9870  -16.9086   27.3611 O   0  0  0  0  0  0  0  0  0  0  0  0
    9.3676  -17.9712   25.4406 O   0  0  0  0  0  0  0  0  0  0  0  0
  2  1  1  6
  3  2  1  0
  4  3  1  0
  5  4  1  0
  5  6  2  0
  7  2  1  0
  7  8  2  0
  9  5  1  0
 10  7  1  0
 11 10  1  0
 11 12  1  6
 12 13  1  0
 14 11  1  0
 15 14  2  0
 16 14  1  0
 17 16  1  0
 17 18  1  6
 18 19  1  0
 19 20  2  0
 20 21  1  0
 22 21  2  0
 23 22  1  0
 24 19  1  0
 24 23  2  0
 25 27  1  0
 25 17  1  0
 26 25  2  0
M  END
$$$$
