ECF.pdb
     RDKit          3D

 27 27  0  0  1  0  0  0  0  0999 V2000
    8.6168  -17.0973   19.0434 N   0  0  0  0  0  0  0  0  0  0  0  0
    9.4791  -17.4761   20.1637 C   0  0  1  0  0  0  0  0  0  0  0  0
   10.7019  -16.6201   20.0697 C   0  0  0  0  0  0  0  0  0  0  0  0
   11.8942  -17.2986   19.4462 C   0  0  0  0  0  0  0  0  0  0  0  0
   13.0829  -17.1960   20.3175 C   0  0  0  0  0  0  0  0  0  0  0  0
   13.4942  -18.1637   21.0011 O   0  0  0  0  0  0  0  0  0  0  0  0
    8.7264  -17.1337   21.4092 C   0  0  0  0  0  0  0  0  0  0  0  0
    7.8771  -16.2171   21.3996 O   0  0  0  0  0  0  0  0  0  0  0  0
   13.7713  -15.9995   20.3890 O   0  0  0  0  0  0  0  0  0  0  0  0
    8.9286  -17.8103   22.6307 N   0  0  0  0  0  0  0  0  0  0  0  0
    8.1058  -17.5440   23.7534 C   0  0  1  0  0  0  0  0  0  0  0  0
    7.2779  -18.7165   24.2127 C   0  0  0  0  0  0  0  0  0  0  0  0
    6.2931  -18.3532   25.6737 S   0  0  0  0  0  0  0  0  0  0  0  0
    8.8409  -17.0587   24.9481 C   0  0  0  0  0  0  0  0  0  0  0  0
   10.0501  -17.4037   25.0404 O   0  0  0  0  0  0  0  0  0  0  0  0
    8.2465  -16.2512   25.9457 N   0  0  0  0  0  0  0  0  0  0  0  0
    9.0823  -15.8353   27.0669 C   0  0  1  0  0  0  0  0  0  0  0  0
    8.2458  -14.9090   27.9172 C   0  0  0  0  0  0  0  0  0  0  0  0
    7.5601  -13.8826   27.0882 C   0  0  0  0  0  0  0  0  0  0  0  0
    6.2136  -13.9423   26.8051 C   0  0  0  0  0  0  0  0  0  0  0  0
    5.5970  -12.9903   26.0437 C   0  0  0  0  0  0  0  0  0  0  0  0
    6.3445  -11.9333   25.5404 C   0  0  0  0  0  0  0  0  0  0  0  0
    7.6836  -11.8593   25.8125 C   0  0  0  0  0  0  0  0  0  0  0  0
    8.2866  -12.8249   26.5794 C   0  0  0  0  0  0  0  0  0  0  0  0
    9.6172  -16.9949   27.7982 C   0  0  0  0  0  0  0  0  0  0  0  0
    9.2700  -18.1663   27.5142 O   0  0  0  0  0  0  0  0  0  0  0  0
   10.5411  -16.8188   28.8445 O   0  0  0  0  0  0  0  0  0  0  0  0
  2  1  1  6
  3  2  1  0
  4  3  1  0
  5  4  1  0
  5  6  2  0
  7  2  1  0
  7  8  2  0
  9  5  1  0
 10  7  1  0
 11 10  1  0
 11 12  1  1
 12 13  1  0
 14 11  1  0
 15 14  2  0
 16 14  1  0
 17 16  1  0
 17 18  1  1
 18 19  1  0
 19 20  2  0
 20 21  1  0
 22 21  2  0
 23 22  1  0
 24 19  1  0
 24 23  2  0
 25 27  1  0
 25 17  1  0
 26 25  2  0
M  END
$$$$
