ECF.pdb
     RDKit          3D

 27 27  0  0  1  0  0  0  0  0999 V2000
    7.5351  -18.2563   18.6967 N   0  0  0  0  0  0  0  0  0  0  0  0
    8.6379  -18.4802   19.6328 C   0  0  1  0  0  0  0  0  0  0  0  0
    9.8471  -17.8399   19.0289 C   0  0  0  0  0  0  0  0  0  0  0  0
   10.8975  -18.8103   18.5539 C   0  0  0  0  0  0  0  0  0  0  0  0
   11.9970  -18.1092   17.8593 C   0  0  0  0  0  0  0  0  0  0  0  0
   13.1228  -17.9463   18.3873 O   0  0  0  0  0  0  0  0  0  0  0  0
    8.2725  -17.7639   20.8931 C   0  0  0  0  0  0  0  0  0  0  0  0
    8.2191  -16.5156   20.9151 O   0  0  0  0  0  0  0  0  0  0  0  0
   11.7886  -17.6131   16.5861 O   0  0  0  0  0  0  0  0  0  0  0  0
    7.9751  -18.4415   22.0944 N   0  0  0  0  0  0  0  0  0  0  0  0
    7.5077  -17.7348   23.2304 C   0  0  1  0  0  0  0  0  0  0  0  0
    6.4967  -18.4843   24.0594 C   0  0  0  0  0  0  0  0  0  0  0  0
    6.1048  -17.6574   25.6083 S   0  0  0  0  0  0  0  0  0  0  0  0
    8.5775  -17.3048   24.1652 C   0  0  0  0  0  0  0  0  0  0  0  0
    9.5062  -18.1320   24.3725 O   0  0  0  0  0  0  0  0  0  0  0  0
    8.5843  -16.0427   24.8036 N   0  0  0  0  0  0  0  0  0  0  0  0
    9.6294  -15.7883   25.7894 C   0  0  1  0  0  0  0  0  0  0  0  0
    9.8104  -14.2906   25.8596 C   0  0  0  0  0  0  0  0  0  0  0  0
    8.5088  -13.5808   25.7459 C   0  0  0  0  0  0  0  0  0  0  0  0
    8.4230  -12.2452   25.4207 C   0  0  0  0  0  0  0  0  0  0  0  0
    7.2195  -11.6071   25.3176 C   0  0  0  0  0  0  0  0  0  0  0  0
    6.0500  -12.3209   25.5460 C   0  0  0  0  0  0  0  0  0  0  0  0
    6.1180  -13.6486   25.8701 C   0  0  0  0  0  0  0  0  0  0  0  0
    7.3361  -14.2736   25.9694 C   0  0  0  0  0  0  0  0  0  0  0  0
    9.3108  -16.4113   27.0839 C   0  0  0  0  0  0  0  0  0  0  0  0
   10.1010  -16.3449   28.0558 O   0  0  0  0  0  0  0  0  0  0  0  0
    8.1001  -17.1040   27.2676 O   0  0  0  0  0  0  0  0  0  0  0  0
  2  1  1  6
  3  2  1  0
  4  3  1  0
  5  4  1  0
  5  6  2  0
  7  2  1  0
  7  8  2  0
  9  5  1  0
 10  7  1  0
 11 10  1  0
 11 12  1  1
 12 13  1  0
 14 11  1  0
 15 14  2  0
 16 14  1  0
 17 16  1  0
 17 18  1  1
 18 19  1  0
 19 20  2  0
 20 21  1  0
 22 21  2  0
 23 22  1  0
 24 19  1  0
 24 23  2  0
 25 27  1  0
 25 17  1  0
 26 25  2  0
M  END
$$$$
