ECF.pdb
     RDKit          3D

 27 27  0  0  1  0  0  0  0  0999 V2000
    9.6984  -19.1890   14.8920 N   0  0  0  0  0  0  0  0  0  0  0  0
    9.6695  -17.8211   15.4116 C   0  0  1  0  0  0  0  0  0  0  0  0
    8.6865  -17.0668   14.5739 C   0  0  0  0  0  0  0  0  0  0  0  0
    9.2549  -15.8558   13.8803 C   0  0  0  0  0  0  0  0  0  0  0  0
    8.8640  -15.8240   12.4559 C   0  0  0  0  0  0  0  0  0  0  0  0
    9.6735  -16.0920   11.5361 O   0  0  0  0  0  0  0  0  0  0  0  0
    9.1603  -17.9139   16.8142 C   0  0  0  0  0  0  0  0  0  0  0  0
    7.9310  -17.9208   17.0386 O   0  0  0  0  0  0  0  0  0  0  0  0
    7.5670  -15.4894   12.1149 O   0  0  0  0  0  0  0  0  0  0  0  0
   10.0183  -17.9975   17.9311 N   0  0  0  0  0  0  0  0  0  0  0  0
    9.4944  -18.1296   19.2412 C   0  0  1  0  0  0  0  0  0  0  0  0
    9.7043  -19.4859   19.8637 C   0  0  0  0  0  0  0  0  0  0  0  0
   10.2706  -20.7211   18.6848 S   0  0  0  0  0  0  0  0  0  0  0  0
   10.0213  -17.1386   20.2126 C   0  0  0  0  0  0  0  0  0  0  0  0
   11.1716  -16.6796   19.9765 O   0  0  0  0  0  0  0  0  0  0  0  0
    9.2971  -16.7112   21.3499 N   0  0  0  0  0  0  0  0  0  0  0  0
    9.9380  -15.7465   22.2373 C   0  0  1  0  0  0  0  0  0  0  0  0
    8.8763  -14.7521   22.6435 C   0  0  0  0  0  0  0  0  0  0  0  0
    8.2895  -14.0708   21.4593 C   0  0  0  0  0  0  0  0  0  0  0  0
    8.9539  -13.0764   20.7761 C   0  0  0  0  0  0  0  0  0  0  0  0
    8.4028  -12.4610   19.6881 C   0  0  0  0  0  0  0  0  0  0  0  0
    7.1397  -12.8457   19.2570 C   0  0  0  0  0  0  0  0  0  0  0  0
    6.4661  -13.8321   19.9248 C   0  0  0  0  0  0  0  0  0  0  0  0
    7.0353  -14.4395   21.0163 C   0  0  0  0  0  0  0  0  0  0  0  0
   10.5949  -16.4138   23.3725 C   0  0  0  0  0  0  0  0  0  0  0  0
   10.3513  -17.6100   23.6605 O   0  0  0  0  0  0  0  0  0  0  0  0
   11.5227  -15.7213   24.1720 O   0  0  0  0  0  0  0  0  0  0  0  0
  2  1  1  6
  3  2  1  0
  4  3  1  0
  5  4  1  0
  5  6  2  0
  7  2  1  0
  7  8  2  0
  9  5  1  0
 10  7  1  0
 11 10  1  0
 11 12  1  1
 12 13  1  0
 14 11  1  0
 15 14  2  0
 16 14  1  0
 17 16  1  0
 17 18  1  1
 18 19  1  0
 19 20  2  0
 20 21  1  0
 22 21  2  0
 23 22  1  0
 24 19  1  0
 24 23  2  0
 25 27  1  0
 25 17  1  0
 26 25  2  0
M  END
$$$$
