ECF.pdb
     RDKit          3D

 27 27  0  0  1  0  0  0  0  0999 V2000
   11.0528  -18.0447   18.9416 N   0  0  0  0  0  0  0  0  0  0  0  0
    9.8328  -18.2473   19.7243 C   0  0  1  0  0  0  0  0  0  0  0  0
   10.0462  -19.4861   20.5346 C   0  0  0  0  0  0  0  0  0  0  0  0
   11.4115  -19.5952   21.1630 C   0  0  0  0  0  0  0  0  0  0  0  0
   11.5209  -20.8116   21.9944 C   0  0  0  0  0  0  0  0  0  0  0  0
   10.5596  -21.6020   22.1495 O   0  0  0  0  0  0  0  0  0  0  0  0
    9.7176  -17.0691   20.6373 C   0  0  0  0  0  0  0  0  0  0  0  0
   10.7250  -16.3805   20.9068 O   0  0  0  0  0  0  0  0  0  0  0  0
   12.7167  -21.0971   22.6261 O   0  0  0  0  0  0  0  0  0  0  0  0
    8.4965  -16.6808   21.2279 N   0  0  0  0  0  0  0  0  0  0  0  0
    8.4113  -15.5043   22.0135 C   0  0  1  0  0  0  0  0  0  0  0  0
    7.1911  -14.6615   21.7451 C   0  0  0  0  0  0  0  0  0  0  0  0
    7.2268  -13.0793   22.6003 S   0  0  0  0  0  0  0  0  0  0  0  0
    8.4388  -15.7443   23.4780 C   0  0  0  0  0  0  0  0  0  0  0  0
    7.5680  -16.5348   23.9327 O   0  0  0  0  0  0  0  0  0  0  0  0
    9.3779  -15.1359   24.3431 N   0  0  0  0  0  0  0  0  0  0  0  0
    9.3296  -15.4966   25.7560 C   0  0  1  0  0  0  0  0  0  0  0  0
    7.8767  -15.4641   26.1671 C   0  0  0  0  0  0  0  0  0  0  0  0
    7.4287  -14.0785   26.4677 C   0  0  0  0  0  0  0  0  0  0  0  0
    8.3095  -13.0763   26.8092 C   0  0  0  0  0  0  0  0  0  0  0  0
    7.8831  -11.8071   27.0804 C   0  0  0  0  0  0  0  0  0  0  0  0
    6.5267  -11.5164   27.0108 C   0  0  0  0  0  0  0  0  0  0  0  0
    5.6383  -12.5009   26.6729 C   0  0  0  0  0  0  0  0  0  0  0  0
    6.0847  -13.7708   26.4037 C   0  0  0  0  0  0  0  0  0  0  0  0
    9.9903  -16.7879   26.0042 C   0  0  0  0  0  0  0  0  0  0  0  0
   10.1070  -17.2527   27.1634 O   0  0  0  0  0  0  0  0  0  0  0  0
   10.5131  -17.5424   24.9380 O   0  0  0  0  0  0  0  0  0  0  0  0
  2  1  1  6
  3  2  1  0
  4  3  1  0
  5  4  1  0
  5  6  2  0
  7  2  1  0
  7  8  2  0
  9  5  1  0
 10  7  1  0
 11 10  1  0
 11 12  1  1
 12 13  1  0
 14 11  1  0
 15 14  2  0
 16 14  1  0
 17 16  1  0
 17 18  1  6
 18 19  1  0
 19 20  2  0
 20 21  1  0
 22 21  2  0
 23 22  1  0
 24 19  1  0
 24 23  2  0
 25 27  1  0
 25 17  1  0
 26 25  2  0
M  END
$$$$
