ECF.pdb
     RDKit          3D

 27 27  0  0  1  0  0  0  0  0999 V2000
    8.7960  -20.1924   18.6787 N   0  0  0  0  0  0  0  0  0  0  0  0
    8.4369  -18.8302   19.0758 C   0  0  1  0  0  0  0  0  0  0  0  0
    6.9616  -18.8320   19.3212 C   0  0  0  0  0  0  0  0  0  0  0  0
    6.4597  -20.0147   20.1086 C   0  0  0  0  0  0  0  0  0  0  0  0
    5.0120  -19.8997   20.3803 C   0  0  0  0  0  0  0  0  0  0  0  0
    4.3265  -18.9422   19.9487 O   0  0  0  0  0  0  0  0  0  0  0  0
    9.1547  -18.5627   20.3596 C   0  0  0  0  0  0  0  0  0  0  0  0
    9.3119  -19.4782   21.1957 O   0  0  0  0  0  0  0  0  0  0  0  0
    4.3830  -20.8733   21.1333 O   0  0  0  0  0  0  0  0  0  0  0  0
    9.6806  -17.2952   20.6875 N   0  0  0  0  0  0  0  0  0  0  0  0
   10.4067  -17.0986   21.8885 C   0  0  1  0  0  0  0  0  0  0  0  0
   11.8680  -16.7878   21.6907 C   0  0  0  0  0  0  0  0  0  0  0  0
   12.7202  -18.0183   20.6928 S   0  0  0  0  0  0  0  0  0  0  0  0
    9.8663  -16.0258   22.7605 C   0  0  0  0  0  0  0  0  0  0  0  0
    9.7910  -14.8747   22.2515 O   0  0  0  0  0  0  0  0  0  0  0  0
    9.4490  -16.2503   24.0932 N   0  0  0  0  0  0  0  0  0  0  0  0
    9.1443  -15.0825   24.9129 C   0  0  1  0  0  0  0  0  0  0  0  0
    7.8624  -14.4920   24.3752 C   0  0  0  0  0  0  0  0  0  0  0  0
    7.3267  -13.4418   25.2812 C   0  0  0  0  0  0  0  0  0  0  0  0
    6.2078  -13.6398   26.0595 C   0  0  0  0  0  0  0  0  0  0  0  0
    5.7287  -12.6659   26.8891 C   0  0  0  0  0  0  0  0  0  0  0  0
    6.3846  -11.4432   26.9518 C   0  0  0  0  0  0  0  0  0  0  0  0
    7.4978  -11.2304   26.1849 C   0  0  0  0  0  0  0  0  0  0  0  0
    7.9652  -12.2204   25.3568 C   0  0  0  0  0  0  0  0  0  0  0  0
    9.0874  -15.4286   26.3421 C   0  0  0  0  0  0  0  0  0  0  0  0
    8.6756  -16.5482   26.7298 O   0  0  0  0  0  0  0  0  0  0  0  0
    9.4975  -14.5045   27.3205 O   0  0  0  0  0  0  0  0  0  0  0  0
  2  1  1  1
  3  2  1  0
  4  3  1  0
  5  4  1  0
  5  6  2  0
  7  2  1  0
  7  8  2  0
  9  5  1  0
 10  7  1  0
 11 10  1  0
 11 12  1  6
 12 13  1  0
 14 11  1  0
 15 14  2  0
 16 14  1  0
 17 16  1  0
 17 18  1  6
 18 19  1  0
 19 20  2  0
 20 21  1  0
 22 21  2  0
 23 22  1  0
 24 19  1  0
 24 23  2  0
 25 27  1  0
 25 17  1  0
 26 25  2  0
M  END
$$$$
