ECF.pdb
     RDKit          3D

 27 27  0  0  1  0  0  0  0  0999 V2000
    7.2492  -13.6193   19.3034 N   0  0  0  0  0  0  0  0  0  0  0  0
    7.8133  -14.9334   19.6153 C   0  0  1  0  0  0  0  0  0  0  0  0
    9.2825  -14.8408   19.3515 C   0  0  0  0  0  0  0  0  0  0  0  0
    9.9786  -13.7173   20.0754 C   0  0  0  0  0  0  0  0  0  0  0  0
   11.4370  -13.7545   19.8420 C   0  0  0  0  0  0  0  0  0  0  0  0
   12.2620  -13.8118   20.7849 O   0  0  0  0  0  0  0  0  0  0  0  0
    7.5828  -15.1548   21.0757 C   0  0  0  0  0  0  0  0  0  0  0  0
    7.3804  -14.1836   21.8356 O   0  0  0  0  0  0  0  0  0  0  0  0
   11.9183  -13.7256   18.5466 O   0  0  0  0  0  0  0  0  0  0  0  0
    7.5807  -16.4393   21.6594 N   0  0  0  0  0  0  0  0  0  0  0  0
    7.2118  -16.6202   23.0157 C   0  0  1  0  0  0  0  0  0  0  0  0
    6.6687  -17.9887   23.3377 C   0  0  0  0  0  0  0  0  0  0  0  0
    6.0684  -18.1277   25.0278 S   0  0  0  0  0  0  0  0  0  0  0  0
    8.3065  -16.3669   23.9856 C   0  0  0  0  0  0  0  0  0  0  0  0
    9.4759  -16.6231   23.5901 O   0  0  0  0  0  0  0  0  0  0  0  0
    8.0830  -15.8650   25.2890 N   0  0  0  0  0  0  0  0  0  0  0  0
    9.2507  -15.6139   26.1271 C   0  0  1  0  0  0  0  0  0  0  0  0
    8.8076  -14.6785   27.2270 C   0  0  0  0  0  0  0  0  0  0  0  0
    7.9283  -13.6009   26.7014 C   0  0  0  0  0  0  0  0  0  0  0  0
    8.3852  -12.6332   25.8344 C   0  0  0  0  0  0  0  0  0  0  0  0
    7.5646  -11.6505   25.3580 C   0  0  0  0  0  0  0  0  0  0  0  0
    6.2342  -11.6234   25.7564 C   0  0  0  0  0  0  0  0  0  0  0  0
    5.7644  -12.5775   26.6175 C   0  0  0  0  0  0  0  0  0  0  0  0
    6.6034  -13.5577   27.0862 C   0  0  0  0  0  0  0  0  0  0  0  0
    9.8424  -16.8697   26.6152 C   0  0  0  0  0  0  0  0  0  0  0  0
    9.2755  -17.9744   26.4373 O   0  0  0  0  0  0  0  0  0  0  0  0
   11.0712  -16.8645   27.3003 O   0  0  0  0  0  0  0  0  0  0  0  0
  2  1  1  1
  3  2  1  0
  4  3  1  0
  5  4  1  0
  5  6  2  0
  7  2  1  0
  7  8  2  0
  9  5  1  0
 10  7  1  0
 11 10  1  0
 11 12  1  6
 12 13  1  0
 14 11  1  0
 15 14  2  0
 16 14  1  0
 17 16  1  0
 17 18  1  1
 18 19  1  0
 19 20  2  0
 20 21  1  0
 22 21  2  0
 23 22  1  0
 24 19  1  0
 24 23  2  0
 25 27  1  0
 25 17  1  0
 26 25  2  0
M  END
$$$$
