ECF.pdb
     RDKit          3D

 27 27  0  0  1  0  0  0  0  0999 V2000
   10.8779  -20.0397   20.6270 N   0  0  0  0  0  0  0  0  0  0  0  0
   11.6682  -19.0964   21.4194 C   0  0  1  0  0  0  0  0  0  0  0  0
   12.5189  -18.3352   20.4531 C   0  0  0  0  0  0  0  0  0  0  0  0
   12.6254  -18.9601   19.0861 C   0  0  0  0  0  0  0  0  0  0  0  0
   13.5211  -18.1776   18.2096 C   0  0  0  0  0  0  0  0  0  0  0  0
   14.7684  -18.3024   18.2490 O   0  0  0  0  0  0  0  0  0  0  0  0
   10.6915  -18.1655   22.0633 C   0  0  0  0  0  0  0  0  0  0  0  0
   11.0191  -16.9867   22.3177 O   0  0  0  0  0  0  0  0  0  0  0  0
   12.9773  -17.2763   17.3139 O   0  0  0  0  0  0  0  0  0  0  0  0
    9.3809  -18.5575   22.4086 N   0  0  0  0  0  0  0  0  0  0  0  0
    8.5685  -17.7344   23.2277 C   0  0  1  0  0  0  0  0  0  0  0  0
    7.2054  -18.3031   23.5273 C   0  0  0  0  0  0  0  0  0  0  0  0
    6.2197  -17.2425   24.5948 S   0  0  0  0  0  0  0  0  0  0  0  0
    9.1740  -17.3892   24.5382 C   0  0  0  0  0  0  0  0  0  0  0  0
    9.7925  -18.3145   25.1308 O   0  0  0  0  0  0  0  0  0  0  0  0
    9.0809  -16.1021   25.1172 N   0  0  0  0  0  0  0  0  0  0  0  0
    9.6987  -15.9012   26.4236 C   0  0  1  0  0  0  0  0  0  0  0  0
    9.8362  -14.4099   26.6187 C   0  0  0  0  0  0  0  0  0  0  0  0
    8.5262  -13.7210   26.4768 C   0  0  0  0  0  0  0  0  0  0  0  0
    7.8271  -13.7029   25.2903 C   0  0  0  0  0  0  0  0  0  0  0  0
    6.6231  -13.0675   25.1759 C   0  0  0  0  0  0  0  0  0  0  0  0
    6.0873  -12.4221   26.2830 C   0  0  0  0  0  0  0  0  0  0  0  0
    6.7693  -12.4307   27.4693 C   0  0  0  0  0  0  0  0  0  0  0  0
    7.9780  -13.0741   27.5660 C   0  0  0  0  0  0  0  0  0  0  0  0
    8.9367  -16.5736   27.4880 C   0  0  0  0  0  0  0  0  0  0  0  0
    7.7844  -17.0253   27.2844 O   0  0  0  0  0  0  0  0  0  0  0  0
    9.4858  -16.7293   28.7739 O   0  0  0  0  0  0  0  0  0  0  0  0
  2  1  1  6
  3  2  1  0
  4  3  1  0
  5  4  1  0
  5  6  2  0
  7  2  1  0
  7  8  2  0
  9  5  1  0
 10  7  1  0
 11 10  1  0
 11 12  1  1
 12 13  1  0
 14 11  1  0
 15 14  2  0
 16 14  1  0
 17 16  1  0
 17 18  1  1
 18 19  1  0
 19 20  2  0
 20 21  1  0
 22 21  2  0
 23 22  1  0
 24 19  1  0
 24 23  2  0
 25 27  1  0
 25 17  1  0
 26 25  2  0
M  END
$$$$
