ECF.pdb
     RDKit          3D

 27 27  0  0  1  0  0  0  0  0999 V2000
    9.8524  -19.2168   17.8661 N   0  0  0  0  0  0  0  0  0  0  0  0
   10.4268  -19.2868   19.2105 C   0  0  1  0  0  0  0  0  0  0  0  0
   11.7361  -18.5662   19.1534 C   0  0  0  0  0  0  0  0  0  0  0  0
   12.4491  -18.4582   20.4766 C   0  0  0  0  0  0  0  0  0  0  0  0
   13.7459  -17.7658   20.3293 C   0  0  0  0  0  0  0  0  0  0  0  0
   13.9152  -16.5806   20.7028 O   0  0  0  0  0  0  0  0  0  0  0  0
    9.4892  -18.5451   20.1082 C   0  0  0  0  0  0  0  0  0  0  0  0
    9.0380  -17.4313   19.7652 O   0  0  0  0  0  0  0  0  0  0  0  0
   14.8134  -18.4367   19.7629 O   0  0  0  0  0  0  0  0  0  0  0  0
    9.0734  -19.0501   21.3583 N   0  0  0  0  0  0  0  0  0  0  0  0
    8.1561  -18.3303   22.1638 C   0  0  1  0  0  0  0  0  0  0  0  0
    7.1107  -19.1839   22.8343 C   0  0  0  0  0  0  0  0  0  0  0  0
    7.8112  -20.4009   23.9588 S   0  0  0  0  0  0  0  0  0  0  0  0
    8.7882  -17.5240   23.2379 C   0  0  0  0  0  0  0  0  0  0  0  0
    9.7502  -16.7861   22.8921 O   0  0  0  0  0  0  0  0  0  0  0  0
    8.3576  -17.5585   24.5848 N   0  0  0  0  0  0  0  0  0  0  0  0
    8.3584  -16.3029   25.3280 C   0  0  1  0  0  0  0  0  0  0  0  0
    7.3516  -15.3973   24.6593 C   0  0  0  0  0  0  0  0  0  0  0  0
    7.1593  -14.1389   25.4275 C   0  0  0  0  0  0  0  0  0  0  0  0
    8.0940  -13.1273   25.4319 C   0  0  0  0  0  0  0  0  0  0  0  0
    7.9022  -11.9755   26.1410 C   0  0  0  0  0  0  0  0  0  0  0  0
    6.7354  -11.8172   26.8778 C   0  0  0  0  0  0  0  0  0  0  0  0
    5.7967  -12.8129   26.8840 C   0  0  0  0  0  0  0  0  0  0  0  0
    6.0061  -13.9637   26.1656 C   0  0  0  0  0  0  0  0  0  0  0  0
    8.1012  -16.5253   26.7597 C   0  0  0  0  0  0  0  0  0  0  0  0
    8.8385  -16.0269   27.6436 O   0  0  0  0  0  0  0  0  0  0  0  0
    7.0112  -17.3099   27.1789 O   0  0  0  0  0  0  0  0  0  0  0  0
  2  1  1  6
  3  2  1  0
  4  3  1  0
  5  4  1  0
  5  6  2  0
  7  2  1  0
  7  8  2  0
  9  5  1  0
 10  7  1  0
 11 10  1  0
 11 12  1  1
 12 13  1  0
 14 11  1  0
 15 14  2  0
 16 14  1  0
 17 16  1  0
 17 18  1  6
 18 19  1  0
 19 20  2  0
 20 21  1  0
 22 21  2  0
 23 22  1  0
 24 19  1  0
 24 23  2  0
 25 27  1  0
 25 17  1  0
 26 25  2  0
M  END
$$$$
