PKC.pdb
     RDKit          3D

 23 23  0  0  1  0  0  0  0  0999 V2000
   27.4421  -20.3743  -17.9105 N   0  0  0  0  0  0  0  0  0  0  0  0
   28.6321  -20.3041  -18.7418 C   0  0  0  0  0  0  0  0  0  0  0  0
   29.0602  -18.8516  -18.7021 C   0  0  0  0  0  0  0  0  0  0  0  0
   28.2263  -18.2482  -17.5865 C   0  0  0  0  0  0  0  0  0  0  0  0
   27.8133  -19.4908  -16.8227 C   0  0  1  0  0  0  0  0  0  0  0  0
   26.6992  -19.2345  -15.8923 C   0  0  0  0  0  0  0  0  0  0  0  0
   26.9155  -18.4409  -14.9400 O   0  0  0  0  0  0  0  0  0  0  0  0
   25.4142  -19.8123  -15.9925 N   0  0  0  0  0  0  0  0  0  0  0  0
   24.3357  -19.4022  -15.1172 C   0  0  1  0  0  0  0  0  0  0  0  0
   23.0442  -19.2011  -15.8867 C   0  0  0  0  0  0  0  0  0  0  0  0
   22.0107  -18.7260  -14.8873 C   0  0  0  0  0  0  0  0  0  0  0  0
   20.6656  -18.4949  -15.5088 C   0  0  0  0  0  0  0  0  0  0  0  0
   19.6935  -18.0217  -14.4736 C   0  0  0  0  0  0  0  0  0  0  0  0
   18.4261  -17.7594  -15.1695 N   0  0  0  0  0  0  0  0  0  0  0  0
   24.1679  -20.3520  -13.9905 C   0  0  0  0  0  0  0  0  0  0  0  0
   23.9505  -21.5815  -14.1353 O   0  0  0  0  0  0  0  0  0  0  0  0
   24.2494  -19.8921  -12.6480 N   0  0  0  0  0  0  0  0  0  0  0  0
   24.0600  -20.7088  -11.5004 C   0  0  1  0  0  0  0  0  0  0  0  0
   24.9908  -20.1844  -10.4001 C   0  0  0  0  0  0  0  0  0  0  0  0
   25.0010  -21.2907   -8.9810 S   0  0  0  0  0  0  0  0  0  0  0  0
   22.7065  -20.7826  -10.9893 C   0  0  0  0  0  0  0  0  0  0  0  0
   22.2805  -21.8942  -10.2907 O   0  0  0  0  0  0  0  0  0  0  0  0
   21.8943  -19.8499  -11.1652 O   0  0  0  0  0  0  0  0  0  0  0  0
  1  5  1  0
  1  2  1  0
  2  3  1  0
  4  3  1  0
  5  4  1  0
  6  8  1  0
  5  6  1  1
  7  6  2  0
  9  8  1  0
  9 10  1  6
 10 11  1  0
 11 12  1  0
 13 12  1  0
 14 13  1  0
 15  9  1  0
 16 15  2  0
 17 15  1  0
 18 17  1  0
 18 21  1  0
 18 19  1  1
 20 19  1  0
 21 22  1  0
 23 21  2  0
M  END
$$$$
