PKC.pdb
     RDKit          3D

 23 23  0  0  1  0  0  0  0  0999 V2000
   32.4894  -26.0579  -20.1338 N   0  0  0  0  0  0  0  0  0  0  0  0
   33.2827  -25.8473  -21.3332 C   0  0  0  0  0  0  0  0  0  0  0  0
   32.9514  -27.0149  -22.2396 C   0  0  0  0  0  0  0  0  0  0  0  0
   31.7430  -27.6614  -21.5870 C   0  0  0  0  0  0  0  0  0  0  0  0
   31.2450  -26.5325  -20.7063 C   0  0  1  0  0  0  0  0  0  0  0  0
   30.2890  -26.9963  -19.6848 C   0  0  0  0  0  0  0  0  0  0  0  0
   30.6551  -26.9327  -18.4827 O   0  0  0  0  0  0  0  0  0  0  0  0
   28.9993  -27.5039  -19.9572 N   0  0  0  0  0  0  0  0  0  0  0  0
   28.1368  -27.9744  -18.8931 C   0  0  1  0  0  0  0  0  0  0  0  0
   26.6794  -27.6766  -19.1892 C   0  0  0  0  0  0  0  0  0  0  0  0
   26.4930  -26.1852  -19.0058 C   0  0  0  0  0  0  0  0  0  0  0  0
   25.0628  -25.7572  -19.1475 C   0  0  0  0  0  0  0  0  0  0  0  0
   24.9511  -24.2725  -18.9942 C   0  0  0  0  0  0  0  0  0  0  0  0
   23.5198  -23.9456  -19.0565 N   0  0  0  0  0  0  0  0  0  0  0  0
   28.3636  -29.4134  -18.6148 C   0  0  0  0  0  0  0  0  0  0  0  0
   28.4492  -30.2958  -19.5059 O   0  0  0  0  0  0  0  0  0  0  0  0
   28.4985  -29.8713  -17.2759 N   0  0  0  0  0  0  0  0  0  0  0  0
   28.6744  -31.2305  -16.8997 C   0  0  1  0  0  0  0  0  0  0  0  0
   29.7102  -31.2679  -15.7694 C   0  0  0  0  0  0  0  0  0  0  0  0
   29.9878  -32.9530  -15.2029 S   0  0  0  0  0  0  0  0  0  0  0  0
   27.4794  -31.9331  -16.4792 C   0  0  0  0  0  0  0  0  0  0  0  0
   27.4423  -33.3129  -16.4749 O   0  0  0  0  0  0  0  0  0  0  0  0
   26.4580  -31.3148  -16.1118 O   0  0  0  0  0  0  0  0  0  0  0  0
  1  5  1  0
  1  2  1  0
  2  3  1  0
  4  3  1  0
  5  4  1  0
  6  8  1  0
  5  6  1  1
  7  6  2  0
  9  8  1  0
  9 10  1  6
 10 11  1  0
 11 12  1  0
 13 12  1  0
 14 13  1  0
 15  9  1  0
 16 15  2  0
 17 15  1  0
 18 17  1  0
 18 21  1  0
 18 19  1  1
 20 19  1  0
 21 22  1  0
 23 21  2  0
M  END
$$$$
