PKC.pdb
     RDKit          3D

 23 23  0  0  1  0  0  0  0  0999 V2000
   27.5840  -20.1063  -16.7334 N   0  0  0  0  0  0  0  0  0  0  0  0
   28.3494  -19.7891  -17.9273 C   0  0  0  0  0  0  0  0  0  0  0  0
   28.3255  -18.2776  -18.0256 C   0  0  0  0  0  0  0  0  0  0  0  0
   27.7796  -17.8261  -16.6831 C   0  0  0  0  0  0  0  0  0  0  0  0
   28.0272  -19.0581  -15.8353 C   0  0  1  0  0  0  0  0  0  0  0  0
   27.2687  -19.0327  -14.5718 C   0  0  0  0  0  0  0  0  0  0  0  0
   27.5199  -18.0976  -13.7682 O   0  0  0  0  0  0  0  0  0  0  0  0
   26.2860  -19.9771  -14.2009 N   0  0  0  0  0  0  0  0  0  0  0  0
   25.5243  -19.8280  -12.9781 C   0  0  1  0  0  0  0  0  0  0  0  0
   24.0530  -20.1200  -13.2032 C   0  0  0  0  0  0  0  0  0  0  0  0
   23.6979  -19.5496  -14.5601 C   0  0  0  0  0  0  0  0  0  0  0  0
   22.2428  -19.6998  -14.8901 C   0  0  0  0  0  0  0  0  0  0  0  0
   21.9511  -19.0901  -16.2256 C   0  0  0  0  0  0  0  0  0  0  0  0
   20.5376  -19.3650  -16.5185 N   0  0  0  0  0  0  0  0  0  0  0  0
   26.0933  -20.6555  -11.8867 C   0  0  0  0  0  0  0  0  0  0  0  0
   26.4699  -21.8459  -12.0316 O   0  0  0  0  0  0  0  0  0  0  0  0
   26.2419  -20.1143  -10.5807 N   0  0  0  0  0  0  0  0  0  0  0  0
   26.3590  -20.8868   -9.3936 C   0  0  1  0  0  0  0  0  0  0  0  0
   27.3609  -20.1761   -8.4755 C   0  0  0  0  0  0  0  0  0  0  0  0
   26.7090  -18.5988   -7.9058 S   0  0  0  0  0  0  0  0  0  0  0  0
   25.1286  -21.1262   -8.6673 C   0  0  0  0  0  0  0  0  0  0  0  0
   25.1102  -21.9771   -7.5807 O   0  0  0  0  0  0  0  0  0  0  0  0
   24.0592  -20.5739   -9.0017 O   0  0  0  0  0  0  0  0  0  0  0  0
  1  5  1  0
  1  2  1  0
  2  3  1  0
  4  3  1  0
  5  4  1  0
  6  8  1  0
  5  6  1  1
  7  6  2  0
  9  8  1  0
  9 10  1  6
 10 11  1  0
 11 12  1  0
 13 12  1  0
 14 13  1  0
 15  9  1  0
 16 15  2  0
 17 15  1  0
 18 17  1  0
 18 21  1  0
 18 19  1  1
 20 19  1  0
 21 22  1  0
 23 21  2  0
M  END
$$$$
