PKC.pdb
     RDKit          3D

 23 23  0  0  1  0  0  0  0  0999 V2000
   21.8820  -12.8107  -17.2391 N   0  0  0  0  0  0  0  0  0  0  0  0
   22.2898  -13.8319  -18.1894 C   0  0  0  0  0  0  0  0  0  0  0  0
   21.6059  -13.4619  -19.4893 C   0  0  0  0  0  0  0  0  0  0  0  0
   21.0810  -12.0584  -19.2473 C   0  0  0  0  0  0  0  0  0  0  0  0
   21.9328  -11.6244  -18.0708 C   0  0  1  0  0  0  0  0  0  0  0  0
   21.3918  -10.4317  -17.3946 C   0  0  0  0  0  0  0  0  0  0  0  0
   21.5729   -9.3201  -17.9557 O   0  0  0  0  0  0  0  0  0  0  0  0
   20.6889  -10.4472  -16.1695 N   0  0  0  0  0  0  0  0  0  0  0  0
   20.1034   -9.2402  -15.6239 C   0  0  1  0  0  0  0  0  0  0  0  0
   18.8902   -9.5511  -14.7683 C   0  0  0  0  0  0  0  0  0  0  0  0
   17.7350   -9.7853  -15.7187 C   0  0  0  0  0  0  0  0  0  0  0  0
   16.4980  -10.2672  -15.0211 C   0  0  0  0  0  0  0  0  0  0  0  0
   15.4345  -10.5927  -16.0228 C   0  0  0  0  0  0  0  0  0  0  0  0
   14.2950  -11.1364  -15.2709 N   0  0  0  0  0  0  0  0  0  0  0  0
   21.1116   -8.4401  -14.8868 C   0  0  0  0  0  0  0  0  0  0  0  0
   21.7893   -8.8798  -13.9239 O   0  0  0  0  0  0  0  0  0  0  0  0
   21.3622   -7.0900  -15.2542 N   0  0  0  0  0  0  0  0  0  0  0  0
   22.2892   -6.2329  -14.6015 C   0  0  1  0  0  0  0  0  0  0  0  0
   23.0303   -5.4409  -15.6857 C   0  0  0  0  0  0  0  0  0  0  0  0
   23.8674   -6.5447  -16.8338 S   0  0  0  0  0  0  0  0  0  0  0  0
   21.7302   -5.3127  -13.6323 C   0  0  0  0  0  0  0  0  0  0  0  0
   22.5106   -4.8117  -12.6100 O   0  0  0  0  0  0  0  0  0  0  0  0
   20.5363   -4.9502  -13.6945 O   0  0  0  0  0  0  0  0  0  0  0  0
  1  5  1  0
  1  2  1  0
  2  3  1  0
  4  3  1  0
  5  4  1  0
  6  8  1  0
  5  6  1  1
  7  6  2  0
  9  8  1  0
  9 10  1  1
 10 11  1  0
 11 12  1  0
 13 12  1  0
 14 13  1  0
 15  9  1  0
 16 15  2  0
 17 15  1  0
 18 17  1  0
 18 21  1  0
 18 19  1  6
 20 19  1  0
 21 22  1  0
 23 21  2  0
M  END
$$$$
