PKC.pdb
     RDKit          3D

 23 23  0  0  1  0  0  0  0  0999 V2000
   28.5475  -19.0081  -17.3750 N   0  0  0  0  0  0  0  0  0  0  0  0
   29.3759  -18.0132  -18.0353 C   0  0  0  0  0  0  0  0  0  0  0  0
   28.4214  -16.9130  -18.4514 C   0  0  0  0  0  0  0  0  0  0  0  0
   27.1334  -17.2409  -17.7183 C   0  0  0  0  0  0  0  0  0  0  0  0
   27.6426  -18.1593  -16.6250 C   0  0  1  0  0  0  0  0  0  0  0  0
   26.5573  -18.9172  -15.9767 C   0  0  0  0  0  0  0  0  0  0  0  0
   25.7187  -18.2617  -15.3056 O   0  0  0  0  0  0  0  0  0  0  0  0
   26.3924  -20.3178  -16.0543 N   0  0  0  0  0  0  0  0  0  0  0  0
   25.2551  -20.9754  -15.4446 C   0  0  1  0  0  0  0  0  0  0  0  0
   24.7441  -22.1124  -16.3087 C   0  0  0  0  0  0  0  0  0  0  0  0
   25.4238  -23.3730  -15.8172 C   0  0  0  0  0  0  0  0  0  0  0  0
   24.9874  -24.5971  -16.5655 C   0  0  0  0  0  0  0  0  0  0  0  0
   25.6693  -25.8097  -16.0132 C   0  0  0  0  0  0  0  0  0  0  0  0
   25.1658  -26.9628  -16.7722 N   0  0  0  0  0  0  0  0  0  0  0  0
   25.5697  -21.4242  -14.0665 C   0  0  0  0  0  0  0  0  0  0  0  0
   26.6544  -21.9658  -13.7349 O   0  0  0  0  0  0  0  0  0  0  0  0
   24.6194  -21.2532  -13.0232 N   0  0  0  0  0  0  0  0  0  0  0  0
   24.9325  -21.2475  -11.6369 C   0  0  1  0  0  0  0  0  0  0  0  0
   25.9786  -20.1507  -11.4030 C   0  0  0  0  0  0  0  0  0  0  0  0
   26.4097  -20.0303   -9.6602 S   0  0  0  0  0  0  0  0  0  0  0  0
   23.8171  -21.0473  -10.7344 C   0  0  0  0  0  0  0  0  0  0  0  0
   23.8355  -21.5910   -9.4659 O   0  0  0  0  0  0  0  0  0  0  0  0
   22.8162  -20.3827  -11.0765 O   0  0  0  0  0  0  0  0  0  0  0  0
  1  5  1  0
  1  2  1  0
  2  3  1  0
  4  3  1  0
  5  4  1  0
  6  8  1  0
  5  6  1  6
  7  6  2  0
  9  8  1  0
  9 10  1  6
 10 11  1  0
 11 12  1  0
 13 12  1  0
 14 13  1  0
 15  9  1  0
 16 15  2  0
 17 15  1  0
 18 17  1  0
 18 21  1  0
 18 19  1  6
 20 19  1  0
 21 22  1  0
 23 21  2  0
M  END
$$$$
