PKC.pdb
     RDKit          3D

 23 23  0  0  1  0  0  0  0  0999 V2000
   20.2354  -20.8790  -12.3594 N   0  0  0  0  0  0  0  0  0  0  0  0
   19.4375  -21.0639  -11.1589 C   0  0  0  0  0  0  0  0  0  0  0  0
   19.9923  -20.0739  -10.1557 C   0  0  0  0  0  0  0  0  0  0  0  0
   20.8962  -19.1755  -10.9803 C   0  0  0  0  0  0  0  0  0  0  0  0
   20.3731  -19.4359  -12.3791 C   0  0  1  0  0  0  0  0  0  0  0  0
   21.3020  -18.9671  -13.4230 C   0  0  0  0  0  0  0  0  0  0  0  0
   21.6221  -17.7503  -13.4045 O   0  0  0  0  0  0  0  0  0  0  0  0
   21.8552  -19.7809  -14.4364 N   0  0  0  0  0  0  0  0  0  0  0  0
   22.6589  -19.2145  -15.4998 C   0  0  1  0  0  0  0  0  0  0  0  0
   23.4892  -20.2779  -16.1927 C   0  0  0  0  0  0  0  0  0  0  0  0
   23.8541  -21.3018  -15.1386 C   0  0  0  0  0  0  0  0  0  0  0  0
   24.6144  -22.4664  -15.6993 C   0  0  0  0  0  0  0  0  0  0  0  0
   24.9100  -23.4582  -14.6179 C   0  0  0  0  0  0  0  0  0  0  0  0
   24.2415  -24.7109  -14.9962 N   0  0  0  0  0  0  0  0  0  0  0  0
   21.8216  -18.4527  -16.4581 C   0  0  0  0  0  0  0  0  0  0  0  0
   20.6549  -18.7837  -16.7884 O   0  0  0  0  0  0  0  0  0  0  0  0
   22.3247  -17.2703  -17.0660 N   0  0  0  0  0  0  0  0  0  0  0  0
   21.6386  -16.5144  -18.0548 C   0  0  1  0  0  0  0  0  0  0  0  0
   21.4106  -15.1081  -17.4871 C   0  0  0  0  0  0  0  0  0  0  0  0
   20.4520  -14.0987  -18.6272 S   0  0  0  0  0  0  0  0  0  0  0  0
   22.2926  -16.4116  -19.3433 C   0  0  0  0  0  0  0  0  0  0  0  0
   21.6060  -15.9356  -20.4420 O   0  0  0  0  0  0  0  0  0  0  0  0
   23.4861  -16.7482  -19.4945 O   0  0  0  0  0  0  0  0  0  0  0  0
  1  5  1  0
  1  2  1  0
  2  3  1  0
  4  3  1  0
  5  4  1  0
  6  8  1  0
  5  6  1  6
  7  6  2  0
  9  8  1  0
  9 10  1  6
 10 11  1  0
 11 12  1  0
 13 12  1  0
 14 13  1  0
 15  9  1  0
 16 15  2  0
 17 15  1  0
 18 17  1  0
 18 21  1  0
 18 19  1  1
 20 19  1  0
 21 22  1  0
 23 21  2  0
M  END
$$$$
