PKC.pdb
     RDKit          3D

 23 23  0  0  1  0  0  0  0  0999 V2000
   21.6276  -12.2239  -17.8000 N   0  0  0  0  0  0  0  0  0  0  0  0
   22.0176  -13.1834  -18.8194 C   0  0  0  0  0  0  0  0  0  0  0  0
   21.4288  -12.6537  -20.1107 C   0  0  0  0  0  0  0  0  0  0  0  0
   20.9843  -11.2438  -19.7662 C   0  0  0  0  0  0  0  0  0  0  0  0
   21.7993  -10.9754  -18.5166 C   0  0  1  0  0  0  0  0  0  0  0  0
   21.3021   -9.8121  -17.7602 C   0  0  0  0  0  0  0  0  0  0  0  0
   21.6574   -8.6723  -18.1579 O   0  0  0  0  0  0  0  0  0  0  0  0
   20.4606   -9.8847  -16.6281 N   0  0  0  0  0  0  0  0  0  0  0  0
   19.9501   -8.6872  -15.9933 C   0  0  1  0  0  0  0  0  0  0  0  0
   18.7455   -8.9921  -15.1237 C   0  0  0  0  0  0  0  0  0  0  0  0
   17.6528   -9.4841  -16.0492 C   0  0  0  0  0  0  0  0  0  0  0  0
   16.3781   -9.8005  -15.3256 C   0  0  0  0  0  0  0  0  0  0  0  0
   15.3222  -10.2199  -16.3001 C   0  0  0  0  0  0  0  0  0  0  0  0
   14.1679  -10.6681  -15.5089 N   0  0  0  0  0  0  0  0  0  0  0  0
   21.0155   -7.9837  -15.2384 C   0  0  0  0  0  0  0  0  0  0  0  0
   21.8113   -8.5545  -14.4505 O   0  0  0  0  0  0  0  0  0  0  0  0
   21.1865   -6.5798  -15.3810 N   0  0  0  0  0  0  0  0  0  0  0  0
   22.1682   -5.8112  -14.6989 C   0  0  1  0  0  0  0  0  0  0  0  0
   22.9139   -4.9767  -15.7474 C   0  0  0  0  0  0  0  0  0  0  0  0
   23.6998   -6.0329  -16.9740 S   0  0  0  0  0  0  0  0  0  0  0  0
   21.6775   -4.9389  -13.6516 C   0  0  0  0  0  0  0  0  0  0  0  0
   22.4990   -4.5670  -12.6067 O   0  0  0  0  0  0  0  0  0  0  0  0
   20.5069   -4.5028  -13.6651 O   0  0  0  0  0  0  0  0  0  0  0  0
  1  5  1  0
  1  2  1  0
  2  3  1  0
  4  3  1  0
  5  4  1  0
  6  8  1  0
  5  6  1  1
  7  6  2  0
  9  8  1  0
  9 10  1  1
 10 11  1  0
 11 12  1  0
 13 12  1  0
 14 13  1  0
 15  9  1  0
 16 15  2  0
 17 15  1  0
 18 17  1  0
 18 21  1  0
 18 19  1  6
 20 19  1  0
 21 22  1  0
 23 21  2  0
M  END
$$$$
