PKC.pdb
     RDKit          3D

 23 23  0  0  1  0  0  0  0  0999 V2000
   44.0472  -14.6602   -9.4514 N   0  0  0  0  0  0  0  0  0  0  0  0
   44.4524  -16.0262   -9.7382 C   0  0  0  0  0  0  0  0  0  0  0  0
   44.3685  -16.7530   -8.4118 C   0  0  0  0  0  0  0  0  0  0  0  0
   43.6225  -15.7899   -7.5062 C   0  0  0  0  0  0  0  0  0  0  0  0
   42.9560  -14.8854   -8.5239 C   0  0  1  0  0  0  0  0  0  0  0  0
   42.4534  -13.6371   -7.9226 C   0  0  0  0  0  0  0  0  0  0  0  0
   41.5006  -13.7342   -7.1064 O   0  0  0  0  0  0  0  0  0  0  0  0
   42.9615  -12.3477   -8.1954 N   0  0  0  0  0  0  0  0  0  0  0  0
   42.4051  -11.1711   -7.5603 C   0  0  1  0  0  0  0  0  0  0  0  0
   43.3804  -10.0100   -7.5945 C   0  0  0  0  0  0  0  0  0  0  0  0
   44.3679  -10.2367   -6.4692 C   0  0  0  0  0  0  0  0  0  0  0  0
   45.4294   -9.1793   -6.4067 C   0  0  0  0  0  0  0  0  0  0  0  0
   46.4143   -9.5004   -5.3262 C   0  0  0  0  0  0  0  0  0  0  0  0
   47.4771   -8.4888   -5.4059 N   0  0  0  0  0  0  0  0  0  0  0  0
   41.0934  -10.8112   -8.1516 C   0  0  0  0  0  0  0  0  0  0  0  0
   40.8604  -10.7966   -9.3866 O   0  0  0  0  0  0  0  0  0  0  0  0
   40.0033  -10.4540   -7.3122 N   0  0  0  0  0  0  0  0  0  0  0  0
   38.7815   -9.8900   -7.7692 C   0  0  1  0  0  0  0  0  0  0  0  0
   37.7460  -10.0598   -6.6508 C   0  0  0  0  0  0  0  0  0  0  0  0
   37.6129  -11.7828   -6.1496 S   0  0  0  0  0  0  0  0  0  0  0  0
   38.8338   -8.4982   -8.1677 C   0  0  0  0  0  0  0  0  0  0  0  0
   37.7584   -7.9096   -8.8018 O   0  0  0  0  0  0  0  0  0  0  0  0
   39.8453   -7.7981   -7.9501 O   0  0  0  0  0  0  0  0  0  0  0  0
  1  5  1  0
  1  2  1  0
  2  3  1  0
  4  3  1  0
  5  4  1  0
  6  8  1  0
  5  6  1  1
  7  6  2  0
  9  8  1  0
  9 10  1  6
 10 11  1  0
 11 12  1  0
 13 12  1  0
 14 13  1  0
 15  9  1  0
 16 15  2  0
 17 15  1  0
 18 17  1  0
 18 21  1  0
 18 19  1  1
 20 19  1  0
 21 22  1  0
 23 21  2  0
M  END
$$$$
