HHC.pdb
     RDKit          3D

 27 28  0  0  1  0  0  0  0  0999 V2000
   16.6664  -17.1016    2.8668 N   0  0  0  0  0  0  0  0  0  0  0  0
   16.7269  -17.5599    4.2321 C   0  0  1  0  0  0  0  0  0  0  0  0
   17.0300  -19.0627    4.1683 C   0  0  0  0  0  0  0  0  0  0  0  0
   15.9325  -19.7826    3.4940 C   0  0  0  0  0  0  0  0  0  0  0  0
   14.7016  -20.1651    4.0118 C   0  0  0  0  0  0  0  0  0  0  0  0
   13.9883  -20.8029    3.0640 N   0  0  0  0  0  0  0  0  0  0  0  0
   14.7634  -20.8198    1.9655 C   0  0  0  0  0  0  0  0  0  0  0  0
   15.9311  -20.2083    2.2196 N   0  0  0  0  0  0  0  0  0  0  0  0
   17.8773  -16.9153    4.9587 C   0  0  0  0  0  0  0  0  0  0  0  0
   18.9768  -16.7859    4.3613 O   0  0  0  0  0  0  0  0  0  0  0  0
   17.6840  -16.4750    6.2929 N   0  0  0  0  0  0  0  0  0  0  0  0
   18.7929  -15.8928    6.9958 C   0  0  1  0  0  0  0  0  0  0  0  0
   18.3602  -14.5361    7.4781 C   0  0  0  0  0  0  0  0  0  0  0  0
   18.9005  -13.4945    6.6063 C   0  0  0  0  0  0  0  0  0  0  0  0
   18.1933  -12.8120    5.6410 C   0  0  0  0  0  0  0  0  0  0  0  0
   19.0239  -11.9373    5.0484 N   0  0  0  0  0  0  0  0  0  0  0  0
   20.2157  -12.0641    5.6211 C   0  0  0  0  0  0  0  0  0  0  0  0
   20.1500  -13.0084    6.5693 N   0  0  0  0  0  0  0  0  0  0  0  0
   19.3355  -16.7763    8.0466 C   0  0  0  0  0  0  0  0  0  0  0  0
   18.5680  -17.5636    8.6510 O   0  0  0  0  0  0  0  0  0  0  0  0
   20.7056  -16.7913    8.4256 N   0  0  0  0  0  0  0  0  0  0  0  0
   21.2553  -17.6703    9.4252 C   0  0  1  0  0  0  0  0  0  0  0  0
   22.2669  -18.6516    8.8246 C   0  0  0  0  0  0  0  0  0  0  0  0
   21.6231  -19.3095    7.2858 S   0  0  0  0  0  0  0  0  0  0  0  0
   21.8115  -16.9685   10.5798 C   0  0  0  0  0  0  0  0  0  0  0  0
   21.8986  -15.7227   10.5901 O   0  0  0  0  0  0  0  0  0  0  0  0
   22.2507  -17.6746   11.6807 O   0  0  0  0  0  0  0  0  0  0  0  0
  2  1  1  6
  2  3  1  0
  2  9  1  0
  4  5  2  0
  4  3  1  0
  6  5  1  0
  7  8  2  0
  7  6  1  0
  8  4  1  0
  9 11  1  0
 10  9  2  0
 11 12  1  0
 12 13  1  1
 13 14  1  0
 14 15  2  0
 15 16  1  0
 17 16  1  0
 18 14  1  0
 18 17  2  0
 19 12  1  0
 19 20  2  0
 21 19  1  0
 22 25  1  0
 22 21  1  0
 22 23  1  6
 24 23  1  0
 25 27  1  0
 26 25  2  0
M  END
$$$$
