HHC.pdb
     RDKit          3D

 27 28  0  0  1  0  0  0  0  0999 V2000
   23.6647  -12.3641  -16.7523 N   0  0  0  0  0  0  0  0  0  0  0  0
   23.9698  -11.1812  -15.9872 C   0  0  1  0  0  0  0  0  0  0  0  0
   25.3360  -10.6889  -16.4828 C   0  0  0  0  0  0  0  0  0  0  0  0
   26.3948  -11.6492  -16.1165 C   0  0  0  0  0  0  0  0  0  0  0  0
   27.0915  -11.7542  -14.9194 C   0  0  0  0  0  0  0  0  0  0  0  0
   27.9759  -12.7671  -14.9958 N   0  0  0  0  0  0  0  0  0  0  0  0
   27.8349  -13.2902  -16.2263 C   0  0  0  0  0  0  0  0  0  0  0  0
   26.8868  -12.6219  -16.9020 N   0  0  0  0  0  0  0  0  0  0  0  0
   22.9798  -10.0862  -16.2837 C   0  0  0  0  0  0  0  0  0  0  0  0
   22.6926   -9.8356  -17.4826 O   0  0  0  0  0  0  0  0  0  0  0  0
   22.4033   -9.3730  -15.2019 N   0  0  0  0  0  0  0  0  0  0  0  0
   21.4324   -8.3535  -15.4858 C   0  0  1  0  0  0  0  0  0  0  0  0
   20.1610   -8.7304  -14.7771 C   0  0  0  0  0  0  0  0  0  0  0  0
   19.5249   -9.8620  -15.4493 C   0  0  0  0  0  0  0  0  0  0  0  0
   19.3696  -11.1239  -14.9190 C   0  0  0  0  0  0  0  0  0  0  0  0
   18.7427  -11.8896  -15.8283 N   0  0  0  0  0  0  0  0  0  0  0  0
   18.5103  -11.1355  -16.8968 C   0  0  0  0  0  0  0  0  0  0  0  0
   18.9824   -9.9013  -16.6753 N   0  0  0  0  0  0  0  0  0  0  0  0
   21.9232   -6.9932  -15.1894 C   0  0  0  0  0  0  0  0  0  0  0  0
   22.5575   -6.7814  -14.1277 O   0  0  0  0  0  0  0  0  0  0  0  0
   21.7173   -5.8820  -16.0518 N   0  0  0  0  0  0  0  0  0  0  0  0
   22.1921   -4.5504  -15.7770 C   0  0  1  0  0  0  0  0  0  0  0  0
   22.4541   -3.7635  -17.0652 C   0  0  0  0  0  0  0  0  0  0  0  0
   23.1028   -2.1427  -16.6563 S   0  0  0  0  0  0  0  0  0  0  0  0
   21.3375   -3.8023  -14.8577 C   0  0  0  0  0  0  0  0  0  0  0  0
   21.8334   -3.0925  -13.9577 O   0  0  0  0  0  0  0  0  0  0  0  0
   19.9642   -3.8691  -14.9706 O   0  0  0  0  0  0  0  0  0  0  0  0
  2  1  1  6
  2  3  1  0
  2  9  1  0
  4  5  2  0
  4  3  1  0
  6  5  1  0
  7  8  2  0
  7  6  1  0
  8  4  1  0
  9 11  1  0
 10  9  2  0
 11 12  1  0
 12 13  1  1
 13 14  1  0
 14 15  2  0
 15 16  1  0
 17 16  1  0
 18 14  1  0
 18 17  2  0
 19 12  1  0
 19 20  2  0
 21 19  1  0
 22 25  1  0
 22 21  1  0
 22 23  1  6
 24 23  1  0
 25 27  1  0
 26 25  2  0
M  END
$$$$
