HHC.pdb
     RDKit          3D

 27 28  0  0  1  0  0  0  0  0999 V2000
   23.6149  -11.8766  -17.6317 N   0  0  0  0  0  0  0  0  0  0  0  0
   23.5315  -11.3015  -16.3126 C   0  0  1  0  0  0  0  0  0  0  0  0
   24.9147  -10.7084  -16.0137 C   0  0  0  0  0  0  0  0  0  0  0  0
   25.9462  -11.7631  -16.0439 C   0  0  0  0  0  0  0  0  0  0  0  0
   26.1060  -12.8423  -15.1841 C   0  0  0  0  0  0  0  0  0  0  0  0
   27.1752  -13.5693  -15.5612 N   0  0  0  0  0  0  0  0  0  0  0  0
   27.6792  -12.9526  -16.6445 C   0  0  0  0  0  0  0  0  0  0  0  0
   26.9443  -11.8681  -16.9373 N   0  0  0  0  0  0  0  0  0  0  0  0
   22.5543  -10.1561  -16.2928 C   0  0  0  0  0  0  0  0  0  0  0  0
   22.4485   -9.4306  -17.3151 O   0  0  0  0  0  0  0  0  0  0  0  0
   21.7850   -9.9325  -15.1226 N   0  0  0  0  0  0  0  0  0  0  0  0
   20.7474   -8.9401  -15.1571 C   0  0  1  0  0  0  0  0  0  0  0  0
   19.5275   -9.5393  -14.5141 C   0  0  0  0  0  0  0  0  0  0  0  0
   18.9334  -10.5425  -15.3957 C   0  0  0  0  0  0  0  0  0  0  0  0
   18.1209  -10.2783  -16.4764 C   0  0  0  0  0  0  0  0  0  0  0  0
   17.7718  -11.4482  -17.0382 N   0  0  0  0  0  0  0  0  0  0  0  0
   18.3452  -12.4182  -16.3350 C   0  0  0  0  0  0  0  0  0  0  0  0
   19.0533  -11.8770  -15.3346 N   0  0  0  0  0  0  0  0  0  0  0  0
   21.1708   -7.6453  -14.5885 C   0  0  0  0  0  0  0  0  0  0  0  0
   21.9907   -7.6244  -13.6390 O   0  0  0  0  0  0  0  0  0  0  0  0
   20.6966   -6.3910  -15.0605 N   0  0  0  0  0  0  0  0  0  0  0  0
   21.1900   -5.1185  -14.6007 C   0  0  1  0  0  0  0  0  0  0  0  0
   22.5889   -4.8198  -15.1491 C   0  0  0  0  0  0  0  0  0  0  0  0
   23.0988   -3.1808  -14.6305 S   0  0  0  0  0  0  0  0  0  0  0  0
   20.2705   -4.0101  -14.8482 C   0  0  0  0  0  0  0  0  0  0  0  0
   19.6592   -3.9163  -15.9331 O   0  0  0  0  0  0  0  0  0  0  0  0
   20.0631   -3.0465  -13.8830 O   0  0  0  0  0  0  0  0  0  0  0  0
  2  1  1  6
  2  3  1  0
  2  9  1  0
  4  5  2  0
  4  3  1  0
  6  5  1  0
  7  8  2  0
  7  6  1  0
  8  4  1  0
  9 11  1  0
 10  9  2  0
 11 12  1  0
 12 13  1  1
 13 14  1  0
 14 15  2  0
 15 16  1  0
 17 16  1  0
 18 14  1  0
 18 17  2  0
 19 12  1  0
 19 20  2  0
 21 19  1  0
 22 25  1  0
 22 21  1  0
 22 23  1  6
 24 23  1  0
 25 27  1  0
 26 25  2  0
M  END
$$$$
