HHC.pdb
     RDKit          3D

 27 28  0  0  1  0  0  0  0  0999 V2000
   24.6364  -34.5294  -13.4457 N   0  0  0  0  0  0  0  0  0  0  0  0
   24.4237  -35.2122  -12.1942 C   0  0  1  0  0  0  0  0  0  0  0  0
   25.2199  -36.5211  -12.2775 C   0  0  0  0  0  0  0  0  0  0  0  0
   24.4017  -37.5850  -12.8910 C   0  0  0  0  0  0  0  0  0  0  0  0
   23.3231  -38.2700  -12.3463 C   0  0  0  0  0  0  0  0  0  0  0  0
   22.8558  -39.1646  -13.2382 N   0  0  0  0  0  0  0  0  0  0  0  0
   23.6327  -39.0413  -14.3286 C   0  0  0  0  0  0  0  0  0  0  0  0
   24.5617  -38.0941  -14.1241 N   0  0  0  0  0  0  0  0  0  0  0  0
   25.0053  -34.4220  -11.0520 C   0  0  0  0  0  0  0  0  0  0  0  0
   26.1128  -33.8476  -11.2130 O   0  0  0  0  0  0  0  0  0  0  0  0
   24.2856  -34.3511   -9.8320 N   0  0  0  0  0  0  0  0  0  0  0  0
   24.7946  -33.5199   -8.7771 C   0  0  1  0  0  0  0  0  0  0  0  0
   23.6224  -32.8178   -8.1496 C   0  0  0  0  0  0  0  0  0  0  0  0
   23.2896  -31.6139   -8.9089 C   0  0  0  0  0  0  0  0  0  0  0  0
   23.9493  -31.1685  -10.0333 C   0  0  0  0  0  0  0  0  0  0  0  0
   23.3583  -30.0351  -10.4483 N   0  0  0  0  0  0  0  0  0  0  0  0
   22.3588  -29.7743   -9.6132 C   0  0  0  0  0  0  0  0  0  0  0  0
   22.3096  -30.7288   -8.6742 N   0  0  0  0  0  0  0  0  0  0  0  0
   25.6523  -34.2562   -7.8278 C   0  0  0  0  0  0  0  0  0  0  0  0
   25.2893  -35.3825   -7.4104 O   0  0  0  0  0  0  0  0  0  0  0  0
   26.8930  -33.7574   -7.3453 N   0  0  0  0  0  0  0  0  0  0  0  0
   27.6836  -34.4078   -6.3324 C   0  0  1  0  0  0  0  0  0  0  0  0
   29.0463  -33.7310   -6.1536 C   0  0  0  0  0  0  0  0  0  0  0  0
   30.0572  -34.7042   -5.0373 S   0  0  0  0  0  0  0  0  0  0  0  0
   26.9896  -34.5585   -5.0554 C   0  0  0  0  0  0  0  0  0  0  0  0
   26.4469  -33.5788   -4.5028 O   0  0  0  0  0  0  0  0  0  0  0  0
   26.9232  -35.7906   -4.4382 O   0  0  0  0  0  0  0  0  0  0  0  0
  2  1  1  6
  2  3  1  0
  2  9  1  0
  4  5  2  0
  4  3  1  0
  6  5  1  0
  7  8  2  0
  7  6  1  0
  8  4  1  0
  9 11  1  0
 10  9  2  0
 11 12  1  0
 12 13  1  1
 13 14  1  0
 14 15  2  0
 15 16  1  0
 17 16  1  0
 18 14  1  0
 18 17  2  0
 19 12  1  0
 19 20  2  0
 21 19  1  0
 22 25  1  0
 22 21  1  0
 22 23  1  1
 24 23  1  0
 25 27  1  0
 26 25  2  0
M  END
$$$$
