HHC.pdb
     RDKit          3D

 27 28  0  0  1  0  0  0  0  0999 V2000
   20.2823  -13.0855  -19.1046 N   0  0  0  0  0  0  0  0  0  0  0  0
   21.4258  -12.2274  -18.9207 C   0  0  1  0  0  0  0  0  0  0  0  0
   22.3475  -12.4756  -20.1221 C   0  0  0  0  0  0  0  0  0  0  0  0
   22.8886  -13.8479  -20.0829 C   0  0  0  0  0  0  0  0  0  0  0  0
   22.6911  -14.8823  -20.9886 C   0  0  0  0  0  0  0  0  0  0  0  0
   23.3646  -15.9760  -20.5833 N   0  0  0  0  0  0  0  0  0  0  0  0
   23.9766  -15.6306  -19.4371 C   0  0  0  0  0  0  0  0  0  0  0  0
   23.6934  -14.3540  -19.1334 N   0  0  0  0  0  0  0  0  0  0  0  0
   21.0184  -10.7791  -18.9778 C   0  0  0  0  0  0  0  0  0  0  0  0
   20.6208  -10.3029  -20.0722 O   0  0  0  0  0  0  0  0  0  0  0  0
   21.0959   -9.9989  -17.7960 N   0  0  0  0  0  0  0  0  0  0  0  0
   20.5809   -8.6584  -17.8182 C   0  0  1  0  0  0  0  0  0  0  0  0
   19.1264   -8.7393  -18.1906 C   0  0  0  0  0  0  0  0  0  0  0  0
   18.5253   -7.4070  -18.1702 C   0  0  0  0  0  0  0  0  0  0  0  0
   19.0579   -6.2793  -18.7552 C   0  0  0  0  0  0  0  0  0  0  0  0
   18.2242   -5.2506  -18.5254 N   0  0  0  0  0  0  0  0  0  0  0  0
   17.1996   -5.7142  -17.8188 C   0  0  0  0  0  0  0  0  0  0  0  0
   17.3741   -7.0242  -17.5982 N   0  0  0  0  0  0  0  0  0  0  0  0
   20.8578   -7.9151  -16.5732 C   0  0  0  0  0  0  0  0  0  0  0  0
   20.5255   -8.4104  -15.4694 O   0  0  0  0  0  0  0  0  0  0  0  0
   21.4926   -6.6434  -16.5460 N   0  0  0  0  0  0  0  0  0  0  0  0
   21.7600   -5.9022  -15.3406 C   0  0  1  0  0  0  0  0  0  0  0  0
   22.8461   -4.8431  -15.5540 C   0  0  0  0  0  0  0  0  0  0  0  0
   23.1951   -4.0205  -13.9993 S   0  0  0  0  0  0  0  0  0  0  0  0
   20.5639   -5.3263  -14.7301 C   0  0  0  0  0  0  0  0  0  0  0  0
   19.7715   -4.6349  -15.4038 O   0  0  0  0  0  0  0  0  0  0  0  0
   20.2907   -5.5384  -13.3945 O   0  0  0  0  0  0  0  0  0  0  0  0
  2  1  1  6
  2  3  1  0
  2  9  1  0
  4  5  2  0
  4  3  1  0
  6  5  1  0
  7  8  2  0
  7  6  1  0
  8  4  1  0
  9 11  1  0
 10  9  2  0
 11 12  1  0
 12 13  1  1
 13 14  1  0
 14 15  2  0
 15 16  1  0
 17 16  1  0
 18 14  1  0
 18 17  2  0
 19 12  1  0
 19 20  2  0
 21 19  1  0
 22 25  1  0
 22 21  1  0
 22 23  1  6
 24 23  1  0
 25 27  1  0
 26 25  2  0
M  END
$$$$
