HHC.pdb
     RDKit          3D

 27 28  0  0  1  0  0  0  0  0999 V2000
   21.3933  -14.7971  -16.5179 N   0  0  0  0  0  0  0  0  0  0  0  0
   21.1295  -13.5690  -17.2249 C   0  0  1  0  0  0  0  0  0  0  0  0
   19.6055  -13.3910  -17.2241 C   0  0  0  0  0  0  0  0  0  0  0  0
   18.9613  -14.4521  -18.0220 C   0  0  0  0  0  0  0  0  0  0  0  0
   19.2294  -14.8348  -19.3301 C   0  0  0  0  0  0  0  0  0  0  0  0
   18.4145  -15.8473  -19.6834 N   0  0  0  0  0  0  0  0  0  0  0  0
   17.6451  -16.0958  -18.6091 C   0  0  0  0  0  0  0  0  0  0  0  0
   17.9703  -15.2604  -17.6099 N   0  0  0  0  0  0  0  0  0  0  0  0
   21.7045  -12.3932  -16.4808 C   0  0  0  0  0  0  0  0  0  0  0  0
   21.2950  -12.1526  -15.3159 O   0  0  0  0  0  0  0  0  0  0  0  0
   22.6891  -11.5951  -17.1173 N   0  0  0  0  0  0  0  0  0  0  0  0
   23.1741  -10.4254  -16.4396 C   0  0  1  0  0  0  0  0  0  0  0  0
   24.5693  -10.1623  -16.9345 C   0  0  0  0  0  0  0  0  0  0  0  0
   25.4945  -11.1520  -16.3856 C   0  0  0  0  0  0  0  0  0  0  0  0
   25.1790  -12.1082  -15.4455 C   0  0  0  0  0  0  0  0  0  0  0  0
   26.2836  -12.8299  -15.1903 N   0  0  0  0  0  0  0  0  0  0  0  0
   27.2634  -12.3449  -15.9446 C   0  0  0  0  0  0  0  0  0  0  0  0
   26.7929  -11.3246  -16.6745 N   0  0  0  0  0  0  0  0  0  0  0  0
   22.2548   -9.2755  -16.5476 C   0  0  0  0  0  0  0  0  0  0  0  0
   22.0033   -8.7876  -17.6759 O   0  0  0  0  0  0  0  0  0  0  0  0
   21.6217   -8.6720  -15.4269 N   0  0  0  0  0  0  0  0  0  0  0  0
   20.6905   -7.5774  -15.5206 C   0  0  1  0  0  0  0  0  0  0  0  0
   19.3995   -7.8618  -14.7464 C   0  0  0  0  0  0  0  0  0  0  0  0
   18.7309   -9.4454  -15.2567 S   0  0  0  0  0  0  0  0  0  0  0  0
   21.2648   -6.2867  -15.1471 C   0  0  0  0  0  0  0  0  0  0  0  0
   20.6107   -5.2317  -15.2846 O   0  0  0  0  0  0  0  0  0  0  0  0
   22.5437   -6.2138  -14.6349 O   0  0  0  0  0  0  0  0  0  0  0  0
  2  1  1  1
  2  3  1  0
  2  9  1  0
  4  5  2  0
  4  3  1  0
  6  5  1  0
  7  8  2  0
  7  6  1  0
  8  4  1  0
  9 11  1  0
 10  9  2  0
 11 12  1  0
 12 13  1  6
 13 14  1  0
 14 15  2  0
 15 16  1  0
 17 16  1  0
 18 14  1  0
 18 17  2  0
 19 12  1  0
 19 20  2  0
 21 19  1  0
 22 25  1  0
 22 21  1  0
 22 23  1  1
 24 23  1  0
 25 27  1  0
 26 25  2  0
M  END
$$$$
