HHC.pdb
     RDKit          3D

 27 28  0  0  1  0  0  0  0  0999 V2000
   22.2430  -14.3933  -18.2352 N   0  0  0  0  0  0  0  0  0  0  0  0
   21.2675  -13.3675  -17.9634 C   0  0  1  0  0  0  0  0  0  0  0  0
   20.3879  -13.9011  -16.8250 C   0  0  0  0  0  0  0  0  0  0  0  0
   19.5878  -15.0518  -17.2868 C   0  0  0  0  0  0  0  0  0  0  0  0
   19.7954  -16.4036  -17.0439 C   0  0  0  0  0  0  0  0  0  0  0  0
   18.8333  -17.1268  -17.6482 N   0  0  0  0  0  0  0  0  0  0  0  0
   18.0325  -16.2385  -18.2624 C   0  0  0  0  0  0  0  0  0  0  0  0
   18.4821  -14.9919  -18.0478 N   0  0  0  0  0  0  0  0  0  0  0  0
   21.9363  -12.1210  -17.4478 C   0  0  0  0  0  0  0  0  0  0  0  0
   23.0041  -12.2318  -16.7919 O   0  0  0  0  0  0  0  0  0  0  0  0
   21.3409  -10.8625  -17.7183 N   0  0  0  0  0  0  0  0  0  0  0  0
   21.9607   -9.6780  -17.1933 C   0  0  1  0  0  0  0  0  0  0  0  0
   22.8491   -9.1181  -18.2694 C   0  0  0  0  0  0  0  0  0  0  0  0
   23.5107   -7.9034  -17.7964 C   0  0  0  0  0  0  0  0  0  0  0  0
   24.6729   -7.8604  -17.0582 C   0  0  0  0  0  0  0  0  0  0  0  0
   24.9697   -6.5728  -16.8127 N   0  0  0  0  0  0  0  0  0  0  0  0
   24.0258   -5.8284  -17.3776 C   0  0  0  0  0  0  0  0  0  0  0  0
   23.1346   -6.6288  -17.9779 N   0  0  0  0  0  0  0  0  0  0  0  0
   20.9873   -8.7181  -16.6365 C   0  0  0  0  0  0  0  0  0  0  0  0
   19.9757   -8.4019  -17.3081 O   0  0  0  0  0  0  0  0  0  0  0  0
   21.1274   -8.1153  -15.3566 N   0  0  0  0  0  0  0  0  0  0  0  0
   20.2140   -7.1387  -14.8219 C   0  0  1  0  0  0  0  0  0  0  0  0
   19.9861   -7.3364  -13.3199 C   0  0  0  0  0  0  0  0  0  0  0  0
   19.2568   -8.9488  -13.0313 S   0  0  0  0  0  0  0  0  0  0  0  0
   20.5857   -5.7594  -15.1295 C   0  0  0  0  0  0  0  0  0  0  0  0
   21.6804   -5.4975  -15.6704 O   0  0  0  0  0  0  0  0  0  0  0  0
   19.7292   -4.7214  -14.8256 O   0  0  0  0  0  0  0  0  0  0  0  0
  2  1  1  1
  2  3  1  0
  2  9  1  0
  4  5  2  0
  4  3  1  0
  6  5  1  0
  7  8  2  0
  7  6  1  0
  8  4  1  0
  9 11  1  0
 10  9  2  0
 11 12  1  0
 12 13  1  6
 13 14  1  0
 14 15  2  0
 15 16  1  0
 17 16  1  0
 18 14  1  0
 18 17  2  0
 19 12  1  0
 19 20  2  0
 21 19  1  0
 22 25  1  0
 22 21  1  0
 22 23  1  1
 24 23  1  0
 25 27  1  0
 26 25  2  0
M  END
$$$$
