HHC.pdb
     RDKit          3D

 27 28  0  0  1  0  0  0  0  0999 V2000
   24.2444  -17.0971  -19.2658 N   0  0  0  0  0  0  0  0  0  0  0  0
   23.5576  -16.9018  -18.0137 C   0  0  1  0  0  0  0  0  0  0  0  0
   22.1713  -16.3462  -18.3656 C   0  0  0  0  0  0  0  0  0  0  0  0
   22.2404  -14.8891  -18.5886 C   0  0  0  0  0  0  0  0  0  0  0  0
   23.3475  -14.0536  -18.5134 C   0  0  0  0  0  0  0  0  0  0  0  0
   22.9805  -12.7872  -18.7884 N   0  0  0  0  0  0  0  0  0  0  0  0
   21.6590  -12.8292  -19.0330 C   0  0  0  0  0  0  0  0  0  0  0  0
   21.2112  -14.0891  -18.9140 N   0  0  0  0  0  0  0  0  0  0  0  0
   23.3341  -18.2187  -17.3188 C   0  0  0  0  0  0  0  0  0  0  0  0
   22.9918  -19.2164  -18.0043 O   0  0  0  0  0  0  0  0  0  0  0  0
   23.5168  -18.2914  -15.9143 N   0  0  0  0  0  0  0  0  0  0  0  0
   23.2168  -19.5244  -15.2416 C   0  0  1  0  0  0  0  0  0  0  0  0
   24.3250  -19.7847  -14.2595 C   0  0  0  0  0  0  0  0  0  0  0  0
   25.5290  -20.2249  -14.9620 C   0  0  0  0  0  0  0  0  0  0  0  0
   25.6366  -20.4199  -16.3215 C   0  0  0  0  0  0  0  0  0  0  0  0
   26.8896  -20.8232  -16.5923 N   0  0  0  0  0  0  0  0  0  0  0  0
   27.5505  -20.8806  -15.4416 C   0  0  0  0  0  0  0  0  0  0  0  0
   26.7313  -20.5186  -14.4451 N   0  0  0  0  0  0  0  0  0  0  0  0
   21.8601  -19.5469  -14.6601 C   0  0  0  0  0  0  0  0  0  0  0  0
   21.5019  -18.6250  -13.8881 O   0  0  0  0  0  0  0  0  0  0  0  0
   20.9117  -20.5720  -14.9263 N   0  0  0  0  0  0  0  0  0  0  0  0
   19.5653  -20.5761  -14.4153 C   0  0  1  0  0  0  0  0  0  0  0  0
   18.5778  -21.1769  -15.4208 C   0  0  0  0  0  0  0  0  0  0  0  0
   19.2671  -22.6806  -16.1127 S   0  0  0  0  0  0  0  0  0  0  0  0
   19.4396  -21.2038  -13.1018 C   0  0  0  0  0  0  0  0  0  0  0  0
   20.2819  -22.0376  -12.7082 O   0  0  0  0  0  0  0  0  0  0  0  0
   18.3842  -20.8834  -12.2732 O   0  0  0  0  0  0  0  0  0  0  0  0
  2  1  1  6
  2  3  1  0
  2  9  1  0
  4  5  2  0
  4  3  1  0
  6  5  1  0
  7  8  2  0
  7  6  1  0
  8  4  1  0
  9 11  1  0
 10  9  2  0
 11 12  1  0
 12 13  1  1
 13 14  1  0
 14 15  2  0
 15 16  1  0
 17 16  1  0
 18 14  1  0
 18 17  2  0
 19 12  1  0
 19 20  2  0
 21 19  1  0
 22 25  1  0
 22 21  1  0
 22 23  1  6
 24 23  1  0
 25 27  1  0
 26 25  2  0
M  END
$$$$
