MSG.pdb
     RDKit          3D

 19 18  0  0  1  0  0  0  0  0999 V2000
    7.0713  -11.4240   26.6188 C   0  0  0  0  0  0  0  0  0  0  0  0
    5.7306  -12.6540   26.4236 S   0  0  0  0  0  0  0  0  0  0  0  0
    6.3540  -14.1975   27.1940 C   0  0  0  0  0  0  0  0  0  0  0  0
    7.4813  -14.7776   26.4112 C   0  0  0  0  0  0  0  0  0  0  0  0
    6.9886  -15.8383   25.4928 C   0  0  2  0  0  0  0  0  0  0  0  0
    6.4927  -16.9576   26.2907 N   0  0  0  0  0  0  0  0  0  0  0  0
    7.9479  -16.3302   24.5036 C   0  0  0  0  0  0  0  0  0  0  0  0
    8.7690  -17.2667   24.6561 O   0  0  0  0  0  0  0  0  0  0  0  0
    8.2647  -14.0808   21.0678 O   0  0  0  0  0  0  0  0  0  0  0  0
    8.5455  -15.4307   20.9148 C   0  0  0  0  0  0  0  0  0  0  0  0
    8.9735  -16.0390   22.2464 C   0  0  2  0  0  0  0  0  0  0  0  0
    7.9808  -15.6996   23.2145 N   0  0  0  0  0  0  0  0  0  0  0  0
   10.2605  -15.3515   22.6172 C   0  0  0  0  0  0  0  0  0  0  0  0
   10.2527  -14.2922   23.2706 O   0  0  0  0  0  0  0  0  0  0  0  0
   11.5263  -15.8838   22.2367 N   0  0  0  0  0  0  0  0  0  0  0  0
   12.7817  -15.3551   22.6944 C   0  0  0  0  0  0  0  0  0  0  0  0
   13.9419  -16.0276   22.0857 C   0  0  0  0  0  0  0  0  0  0  0  0
   14.9479  -15.3233   21.4435 O   0  0  0  0  0  0  0  0  0  0  0  0
   14.0133  -17.2806   22.1557 O   0  0  0  0  0  0  0  0  0  0  0  0
  2  1  1  0
  3  2  1  0
  4  5  1  0
  4  3  1  0
  5  6  1  1
  7  8  2  0
  7  5  1  0
 10  9  1  0
 11 10  1  6
 11 12  1  0
 12  7  1  0
 13 14  2  0
 13 11  1  0
 15 13  1  0
 16 17  1  0
 16 15  1  0
 17 18  1  0
 19 17  2  0
M  END
$$$$
