MSG.pdb
     RDKit          3D

 19 18  0  0  1  0  0  0  0  0999 V2000
    8.5509  -12.2313   20.6999 C   0  0  0  0  0  0  0  0  0  0  0  0
    7.4948  -12.7064   19.2831 S   0  0  0  0  0  0  0  0  0  0  0  0
    7.1748  -14.5018   19.4797 C   0  0  0  0  0  0  0  0  0  0  0  0
    8.4224  -15.2976   19.3052 C   0  0  0  0  0  0  0  0  0  0  0  0
    8.5906  -16.2586   20.4275 C   0  0  2  0  0  0  0  0  0  0  0  0
    7.2951  -16.8660   20.7242 N   0  0  0  0  0  0  0  0  0  0  0  0
    9.1701  -15.7175   21.6571 C   0  0  0  0  0  0  0  0  0  0  0  0
   10.2587  -15.1034   21.7664 O   0  0  0  0  0  0  0  0  0  0  0  0
    6.7464  -15.4545   24.9583 O   0  0  0  0  0  0  0  0  0  0  0  0
    7.9084  -14.7009   24.8795 C   0  0  0  0  0  0  0  0  0  0  0  0
    8.9932  -15.4726   24.1351 C   0  0  2  0  0  0  0  0  0  0  0  0
    8.4453  -15.8887   22.8843 N   0  0  0  0  0  0  0  0  0  0  0  0
    9.2721  -16.6955   24.9678 C   0  0  0  0  0  0  0  0  0  0  0  0
    8.6529  -17.7569   24.7697 O   0  0  0  0  0  0  0  0  0  0  0  0
   10.2479  -16.6836   26.0061 N   0  0  0  0  0  0  0  0  0  0  0  0
   10.5011  -17.8017   26.8727 C   0  0  0  0  0  0  0  0  0  0  0  0
   11.7149  -18.5489   26.5027 C   0  0  0  0  0  0  0  0  0  0  0  0
   12.4525  -19.2630   27.4336 O   0  0  0  0  0  0  0  0  0  0  0  0
   12.0862  -18.5328   25.3019 O   0  0  0  0  0  0  0  0  0  0  0  0
  2  1  1  0
  3  2  1  0
  4  5  1  0
  4  3  1  0
  5  6  1  1
  7  8  2  0
  7  5  1  0
 10  9  1  0
 11 10  1  1
 11 12  1  0
 12  7  1  0
 13 14  2  0
 13 11  1  0
 15 13  1  0
 16 17  1  0
 16 15  1  0
 17 18  1  0
 19 17  2  0
M  END
$$$$
