MSG.pdb
     RDKit          3D

 19 18  0  0  1  0  0  0  0  0999 V2000
    7.3364  -11.8289   27.3444 C   0  0  0  0  0  0  0  0  0  0  0  0
    6.2176  -12.1676   25.9365 S   0  0  0  0  0  0  0  0  0  0  0  0
    6.7085  -13.8142   25.2943 C   0  0  0  0  0  0  0  0  0  0  0  0
    7.8311  -13.7042   24.3208 C   0  0  0  0  0  0  0  0  0  0  0  0
    8.4231  -15.0416   24.0522 C   0  0  2  0  0  0  0  0  0  0  0  0
    7.4911  -15.8118   23.2315 N   0  0  0  0  0  0  0  0  0  0  0  0
    8.8025  -15.8257   25.2278 C   0  0  0  0  0  0  0  0  0  0  0  0
    9.5960  -15.4799   26.1360 O   0  0  0  0  0  0  0  0  0  0  0  0
    6.9734  -19.5084   25.6125 O   0  0  0  0  0  0  0  0  0  0  0  0
    7.3537  -18.8605   26.7786 C   0  0  0  0  0  0  0  0  0  0  0  0
    8.5482  -17.9493   26.5153 C   0  0  2  0  0  0  0  0  0  0  0  0
    8.2264  -17.1303   25.3912 N   0  0  0  0  0  0  0  0  0  0  0  0
    9.6844  -18.8610   26.1356 C   0  0  0  0  0  0  0  0  0  0  0  0
    9.9730  -19.0572   24.9408 O   0  0  0  0  0  0  0  0  0  0  0  0
   10.4662  -19.5286   27.1223 N   0  0  0  0  0  0  0  0  0  0  0  0
   11.5051  -20.4711   26.8103 C   0  0  0  0  0  0  0  0  0  0  0  0
   12.8352  -19.8461   26.7159 C   0  0  0  0  0  0  0  0  0  0  0  0
   13.1387  -18.9036   25.7463 O   0  0  0  0  0  0  0  0  0  0  0  0
   13.7169  -20.1845   27.5454 O   0  0  0  0  0  0  0  0  0  0  0  0
  2  1  1  0
  3  2  1  0
  4  5  1  0
  4  3  1  0
  5  6  1  1
  7  8  2  0
  7  5  1  0
 10  9  1  0
 11 10  1  6
 11 12  1  0
 12  7  1  0
 13 14  2  0
 13 11  1  0
 15 13  1  0
 16 17  1  0
 16 15  1  0
 17 18  1  0
 19 17  2  0
M  END
$$$$
