MSG.pdb
     RDKit          3D

 19 18  0  0  1  0  0  0  0  0999 V2000
    6.4660  -11.3281   26.0305 C   0  0  0  0  0  0  0  0  0  0  0  0
    6.4350  -12.2766   27.5951 S   0  0  0  0  0  0  0  0  0  0  0  0
    6.2183  -14.0321   27.1099 C   0  0  0  0  0  0  0  0  0  0  0  0
    7.1292  -14.4019   25.9903 C   0  0  0  0  0  0  0  0  0  0  0  0
    6.7820  -15.7456   25.4561 C   0  0  2  0  0  0  0  0  0  0  0  0
    7.0414  -16.7441   26.4910 N   0  0  0  0  0  0  0  0  0  0  0  0
    7.4538  -16.1394   24.2174 C   0  0  0  0  0  0  0  0  0  0  0  0
    8.2017  -17.1333   24.0529 O   0  0  0  0  0  0  0  0  0  0  0  0
    8.2227  -14.7189   19.6240 O   0  0  0  0  0  0  0  0  0  0  0  0
    7.5357  -14.5430   20.8162 C   0  0  0  0  0  0  0  0  0  0  0  0
    8.0374  -15.5258   21.8691 C   0  0  2  0  0  0  0  0  0  0  0  0
    7.2596  -15.3276   23.0495 N   0  0  0  0  0  0  0  0  0  0  0  0
    9.4599  -15.1268   22.1586 C   0  0  0  0  0  0  0  0  0  0  0  0
    9.7126  -14.1352   22.8673 O   0  0  0  0  0  0  0  0  0  0  0  0
   10.5619  -15.8637   21.6362 N   0  0  0  0  0  0  0  0  0  0  0  0
   11.9351  -15.5504   21.9211 C   0  0  0  0  0  0  0  0  0  0  0  0
   12.8793  -16.4803   21.2788 C   0  0  0  0  0  0  0  0  0  0  0  0
   14.2085  -16.1504   21.0670 O   0  0  0  0  0  0  0  0  0  0  0  0
   12.4570  -17.6068   20.9144 O   0  0  0  0  0  0  0  0  0  0  0  0
  2  1  1  0
  3  2  1  0
  4  5  1  0
  4  3  1  0
  5  6  1  1
  7  8  2  0
  7  5  1  0
 10  9  1  0
 11 10  1  6
 11 12  1  0
 12  7  1  0
 13 14  2  0
 13 11  1  0
 15 13  1  0
 16 17  1  0
 16 15  1  0
 17 18  1  0
 19 17  2  0
M  END
$$$$
