MSG.pdb
     RDKit          3D

 19 18  0  0  1  0  0  0  0  0999 V2000
    7.3479  -11.5799   26.6310 C   0  0  0  0  0  0  0  0  0  0  0  0
    6.9938  -13.3501   26.9306 S   0  0  0  0  0  0  0  0  0  0  0  0
    6.5258  -14.0479   25.3001 C   0  0  0  0  0  0  0  0  0  0  0  0
    6.1305  -15.4798   25.4160 C   0  0  0  0  0  0  0  0  0  0  0  0
    7.3249  -16.3609   25.3250 C   0  0  2  0  0  0  0  0  0  0  0  0
    8.4136  -15.7571   26.0903 N   0  0  0  0  0  0  0  0  0  0  0  0
    7.7921  -16.6749   23.9746 C   0  0  0  0  0  0  0  0  0  0  0  0
    7.1792  -17.3391   23.1043 O   0  0  0  0  0  0  0  0  0  0  0  0
   10.2406  -14.3450   22.0461 O   0  0  0  0  0  0  0  0  0  0  0  0
    9.7755  -15.4821   21.4019 C   0  0  0  0  0  0  0  0  0  0  0  0
    9.7086  -16.6546   22.3751 C   0  0  2  0  0  0  0  0  0  0  0  0
    9.0805  -16.1887   23.5693 N   0  0  0  0  0  0  0  0  0  0  0  0
   11.1375  -17.0084   22.6907 C   0  0  0  0  0  0  0  0  0  0  0  0
   11.6866  -16.5837   23.7239 O   0  0  0  0  0  0  0  0  0  0  0  0
   11.9091  -17.8365   21.8251 N   0  0  0  0  0  0  0  0  0  0  0  0
   13.2583  -18.2430   22.1070 C   0  0  0  0  0  0  0  0  0  0  0  0
   13.8671  -19.0086   21.0061 C   0  0  0  0  0  0  0  0  0  0  0  0
   15.2403  -19.0985   20.8430 O   0  0  0  0  0  0  0  0  0  0  0  0
   13.1091  -19.5959   20.1934 O   0  0  0  0  0  0  0  0  0  0  0  0
  2  1  1  0
  3  2  1  0
  4  5  1  0
  4  3  1  0
  5  6  1  1
  7  8  2  0
  7  5  1  0
 10  9  1  0
 11 10  1  6
 11 12  1  0
 12  7  1  0
 13 14  2  0
 13 11  1  0
 15 13  1  0
 16 17  1  0
 16 15  1  0
 17 18  1  0
 19 17  2  0
M  END
$$$$
