MSG.pdb
     RDKit          3D

 19 18  0  0  1  0  0  0  0  0999 V2000
    6.6806  -12.3527   19.9756 C   0  0  0  0  0  0  0  0  0  0  0  0
    7.0606  -13.6567   18.7492 S   0  0  0  0  0  0  0  0  0  0  0  0
    8.6774  -14.3604   19.2543 C   0  0  0  0  0  0  0  0  0  0  0  0
    8.6729  -14.7533   20.6915 C   0  0  0  0  0  0  0  0  0  0  0  0
    9.9619  -15.3955   21.0619 C   0  0  2  0  0  0  0  0  0  0  0  0
   10.1480  -16.5866   20.2360 N   0  0  0  0  0  0  0  0  0  0  0  0
   10.1236  -15.7486   22.4725 C   0  0  0  0  0  0  0  0  0  0  0  0
   10.8870  -16.6259   22.9435 O   0  0  0  0  0  0  0  0  0  0  0  0
    7.3888  -14.2596   25.1122 O   0  0  0  0  0  0  0  0  0  0  0  0
    8.6937  -14.1956   25.5786 C   0  0  0  0  0  0  0  0  0  0  0  0
    9.5705  -15.2057   24.8455 C   0  0  2  0  0  0  0  0  0  0  0  0
    9.3439  -15.0381   23.4461 N   0  0  0  0  0  0  0  0  0  0  0  0
    9.0636  -16.5629   25.2549 C   0  0  0  0  0  0  0  0  0  0  0  0
    8.0913  -17.0818   24.6765 O   0  0  0  0  0  0  0  0  0  0  0  0
    9.6734  -17.2987   26.3118 N   0  0  0  0  0  0  0  0  0  0  0  0
    9.2139  -18.5870   26.7525 C   0  0  0  0  0  0  0  0  0  0  0  0
   10.0560  -19.1622   27.8149 C   0  0  0  0  0  0  0  0  0  0  0  0
    9.7533  -20.3711   28.4211 O   0  0  0  0  0  0  0  0  0  0  0  0
   11.0800  -18.5293   28.1769 O   0  0  0  0  0  0  0  0  0  0  0  0
  2  1  1  0
  3  2  1  0
  4  5  1  0
  4  3  1  0
  5  6  1  6
  7  8  2  0
  7  5  1  0
 10  9  1  0
 11 10  1  1
 11 12  1  0
 12  7  1  0
 13 14  2  0
 13 11  1  0
 15 13  1  0
 16 17  1  0
 16 15  1  0
 17 18  1  0
 19 17  2  0
M  END
$$$$
