MSG.pdb
     RDKit          3D

 19 18  0  0  1  0  0  0  0  0999 V2000
    7.0537  -11.9119   28.0492 C   0  0  0  0  0  0  0  0  0  0  0  0
    6.1264  -11.9161   26.4716 S   0  0  0  0  0  0  0  0  0  0  0  0
    5.9374  -13.6809   26.0090 C   0  0  0  0  0  0  0  0  0  0  0  0
    7.1869  -14.2193   25.4014 C   0  0  0  0  0  0  0  0  0  0  0  0
    7.0185  -15.6526   25.0431 C   0  0  2  0  0  0  0  0  0  0  0  0
    6.7055  -16.4064   26.2552 N   0  0  0  0  0  0  0  0  0  0  0  0
    8.1460  -16.2809   24.3541 C   0  0  0  0  0  0  0  0  0  0  0  0
    8.9794  -17.0766   24.8506 O   0  0  0  0  0  0  0  0  0  0  0  0
    9.1481  -14.8662   20.5199 O   0  0  0  0  0  0  0  0  0  0  0  0
    9.2405  -16.2277   20.7692 C   0  0  0  0  0  0  0  0  0  0  0  0
    9.4806  -16.4813   22.2540 C   0  0  2  0  0  0  0  0  0  0  0  0
    8.3498  -15.9785   22.9657 N   0  0  0  0  0  0  0  0  0  0  0  0
   10.6851  -15.6566   22.6219 C   0  0  0  0  0  0  0  0  0  0  0  0
   10.5733  -14.4443   22.8808 O   0  0  0  0  0  0  0  0  0  0  0  0
   11.9885  -16.2287   22.6872 N   0  0  0  0  0  0  0  0  0  0  0  0
   13.1571  -15.5008   23.0989 C   0  0  0  0  0  0  0  0  0  0  0  0
   14.3922  -16.2962   22.9967 C   0  0  0  0  0  0  0  0  0  0  0  0
   14.4058  -17.5675   22.4453 O   0  0  0  0  0  0  0  0  0  0  0  0
   15.4634  -15.7979   23.4261 O   0  0  0  0  0  0  0  0  0  0  0  0
  2  1  1  0
  3  2  1  0
  4  5  1  0
  4  3  1  0
  5  6  1  1
  7  8  2  0
  7  5  1  0
 10  9  1  0
 11 10  1  6
 11 12  1  0
 12  7  1  0
 13 14  2  0
 13 11  1  0
 15 13  1  0
 16 17  1  0
 16 15  1  0
 17 18  1  0
 19 17  2  0
M  END
$$$$
