MSG.pdb
     RDKit          3D

 19 18  0  0  1  0  0  0  0  0999 V2000
    6.0731  -11.6040   26.0168 C   0  0  0  0  0  0  0  0  0  0  0  0
    6.9349  -12.2138   27.5115 S   0  0  0  0  0  0  0  0  0  0  0  0
    7.3700  -13.9604   27.1585 C   0  0  0  0  0  0  0  0  0  0  0  0
    6.4614  -14.5496   26.1350 C   0  0  0  0  0  0  0  0  0  0  0  0
    6.8642  -15.9461   25.8205 C   0  0  2  0  0  0  0  0  0  0  0  0
    8.0593  -16.2760   26.5941 N   0  0  0  0  0  0  0  0  0  0  0  0
    7.0981  -16.2461   24.4077 C   0  0  0  0  0  0  0  0  0  0  0  0
    6.2660  -16.7110   23.5919 O   0  0  0  0  0  0  0  0  0  0  0  0
    9.3317  -14.1095   22.1952 O   0  0  0  0  0  0  0  0  0  0  0  0
    8.6462  -15.1795   21.6388 C   0  0  0  0  0  0  0  0  0  0  0  0
    8.7491  -16.4043   22.5420 C   0  0  2  0  0  0  0  0  0  0  0  0
    8.4031  -15.9948   23.8650 N   0  0  0  0  0  0  0  0  0  0  0  0
   10.2003  -16.8046   22.5273 C   0  0  0  0  0  0  0  0  0  0  0  0
   10.9209  -16.6282   23.5268 O   0  0  0  0  0  0  0  0  0  0  0  0
   10.7988  -17.3961   21.3774 N   0  0  0  0  0  0  0  0  0  0  0  0
   12.1233  -17.9535   21.3677 C   0  0  0  0  0  0  0  0  0  0  0  0
   13.1768  -16.9265   21.4326 C   0  0  0  0  0  0  0  0  0  0  0  0
   14.3730  -17.1399   22.0989 O   0  0  0  0  0  0  0  0  0  0  0  0
   12.9756  -15.8244   20.8626 O   0  0  0  0  0  0  0  0  0  0  0  0
  2  1  1  0
  3  2  1  0
  4  5  1  0
  4  3  1  0
  5  6  1  1
  7  8  2  0
  7  5  1  0
 10  9  1  0
 11 10  1  6
 11 12  1  0
 12  7  1  0
 13 14  2  0
 13 11  1  0
 15 13  1  0
 16 17  1  0
 16 15  1  0
 17 18  1  0
 19 17  2  0
M  END
$$$$
