MSG.pdb
     RDKit          3D

 19 18  0  0  1  0  0  0  0  0999 V2000
    7.0188  -11.1870   27.4128 C   0  0  0  0  0  0  0  0  0  0  0  0
    6.8267  -12.2251   25.9181 S   0  0  0  0  0  0  0  0  0  0  0  0
    6.6689  -13.9488   26.5251 C   0  0  0  0  0  0  0  0  0  0  0  0
    6.4887  -14.9065   25.3979 C   0  0  0  0  0  0  0  0  0  0  0  0
    7.4467  -14.6082   24.3003 C   0  0  2  0  0  0  0  0  0  0  0  0
    6.7705  -14.8053   23.0199 N   0  0  0  0  0  0  0  0  0  0  0  0
    8.6980  -15.3662   24.3142 C   0  0  0  0  0  0  0  0  0  0  0  0
    9.5502  -15.3904   25.2348 O   0  0  0  0  0  0  0  0  0  0  0  0
    9.9745  -17.0108   20.7598 O   0  0  0  0  0  0  0  0  0  0  0  0
   10.1357  -17.8279   21.8691 C   0  0  0  0  0  0  0  0  0  0  0  0
   10.1883  -16.9907   23.1430 C   0  0  2  0  0  0  0  0  0  0  0  0
    9.0159  -16.1768   23.1730 N   0  0  0  0  0  0  0  0  0  0  0  0
   11.3904  -16.0961   22.9971 C   0  0  0  0  0  0  0  0  0  0  0  0
   11.2819  -14.9567   22.5080 O   0  0  0  0  0  0  0  0  0  0  0  0
   12.6874  -16.5171   23.4104 N   0  0  0  0  0  0  0  0  0  0  0  0
   13.8557  -15.6836   23.3357 C   0  0  0  0  0  0  0  0  0  0  0  0
   15.0912  -16.3959   23.7027 C   0  0  0  0  0  0  0  0  0  0  0  0
   15.0795  -17.7064   24.1533 O   0  0  0  0  0  0  0  0  0  0  0  0
   16.1866  -15.7878   23.6009 O   0  0  0  0  0  0  0  0  0  0  0  0
  2  1  1  0
  3  2  1  0
  4  5  1  0
  4  3  1  0
  5  6  1  6
  7  8  2  0
  7  5  1  0
 10  9  1  0
 11 10  1  6
 11 12  1  0
 12  7  1  0
 13 14  2  0
 13 11  1  0
 15 13  1  0
 16 17  1  0
 16 15  1  0
 17 18  1  0
 19 17  2  0
M  END
$$$$
