MSG.pdb
     RDKit          3D

 19 18  0  0  1  0  0  0  0  0999 V2000
    5.7877  -11.1620   27.5783 C   0  0  0  0  0  0  0  0  0  0  0  0
    7.2146  -12.0192   26.8180 S   0  0  0  0  0  0  0  0  0  0  0  0
    6.5620  -13.6151   26.1922 C   0  0  0  0  0  0  0  0  0  0  0  0
    7.6131  -14.3850   25.4694 C   0  0  0  0  0  0  0  0  0  0  0  0
    7.0392  -15.6205   24.8734 C   0  0  2  0  0  0  0  0  0  0  0  0
    6.6263  -16.5150   25.9527 N   0  0  0  0  0  0  0  0  0  0  0  0
    7.9015  -16.3459   23.9402 C   0  0  0  0  0  0  0  0  0  0  0  0
    8.5953  -17.3602   24.1936 O   0  0  0  0  0  0  0  0  0  0  0  0
    7.4020  -16.7375   19.8282 O   0  0  0  0  0  0  0  0  0  0  0  0
    8.4954  -16.0019   20.2613 C   0  0  0  0  0  0  0  0  0  0  0  0
    8.9132  -16.4437   21.6601 C   0  0  2  0  0  0  0  0  0  0  0  0
    7.9866  -15.8766   22.5863 N   0  0  0  0  0  0  0  0  0  0  0  0
   10.2668  -15.8292   21.8978 C   0  0  0  0  0  0  0  0  0  0  0  0
   10.3829  -14.6118   22.1295 O   0  0  0  0  0  0  0  0  0  0  0  0
   11.4568  -16.6123   21.8667 N   0  0  0  0  0  0  0  0  0  0  0  0
   12.7648  -16.0831   22.1394 C   0  0  0  0  0  0  0  0  0  0  0  0
   13.8324  -17.0843   21.9771 C   0  0  0  0  0  0  0  0  0  0  0  0
   15.1747  -16.7479   22.0503 O   0  0  0  0  0  0  0  0  0  0  0  0
   13.5061  -18.2797   21.7658 O   0  0  0  0  0  0  0  0  0  0  0  0
  2  1  1  0
  3  2  1  0
  4  5  1  0
  4  3  1  0
  5  6  1  1
  7  8  2  0
  7  5  1  0
 10  9  1  0
 11 10  1  6
 11 12  1  0
 12  7  1  0
 13 14  2  0
 13 11  1  0
 15 13  1  0
 16 17  1  0
 16 15  1  0
 17 18  1  0
 19 17  2  0
M  END
$$$$
