MSG.pdb
     RDKit          3D

 19 18  0  0  1  0  0  0  0  0999 V2000
    6.7289  -11.1850   26.0721 C   0  0  0  0  0  0  0  0  0  0  0  0
    6.1228  -12.3647   27.3329 S   0  0  0  0  0  0  0  0  0  0  0  0
    5.8422  -13.9443   26.4438 C   0  0  0  0  0  0  0  0  0  0  0  0
    7.1131  -14.4854   25.8849 C   0  0  0  0  0  0  0  0  0  0  0  0
    6.8617  -15.7500   25.1442 C   0  0  2  0  0  0  0  0  0  0  0  0
    6.4094  -16.7672   26.0909 N   0  0  0  0  0  0  0  0  0  0  0  0
    7.9833  -16.2729   24.3636 C   0  0  0  0  0  0  0  0  0  0  0  0
    8.8367  -17.1100   24.7445 O   0  0  0  0  0  0  0  0  0  0  0  0
    8.7322  -14.3861   20.7905 O   0  0  0  0  0  0  0  0  0  0  0  0
    8.9976  -15.7477   20.7898 C   0  0  0  0  0  0  0  0  0  0  0  0
    9.2474  -16.2414   22.2112 C   0  0  2  0  0  0  0  0  0  0  0  0
    8.1555  -15.8014   23.0187 N   0  0  0  0  0  0  0  0  0  0  0  0
   10.4987  -15.5438   22.6742 C   0  0  0  0  0  0  0  0  0  0  0  0
   10.4377  -14.4506   23.2661 O   0  0  0  0  0  0  0  0  0  0  0  0
   11.7898  -16.1049   22.4539 N   0  0  0  0  0  0  0  0  0  0  0  0
   13.0030  -15.5384   22.9759 C   0  0  0  0  0  0  0  0  0  0  0  0
   14.1957  -16.3364   22.6451 C   0  0  0  0  0  0  0  0  0  0  0  0
   15.4693  -15.9529   23.0341 O   0  0  0  0  0  0  0  0  0  0  0  0
   14.0439  -17.3975   21.9887 O   0  0  0  0  0  0  0  0  0  0  0  0
  2  1  1  0
  3  2  1  0
  4  5  1  0
  4  3  1  0
  5  6  1  1
  7  8  2  0
  7  5  1  0
 10  9  1  0
 11 10  1  6
 11 12  1  0
 12  7  1  0
 13 14  2  0
 13 11  1  0
 15 13  1  0
 16 17  1  0
 16 15  1  0
 17 18  1  0
 19 17  2  0
M  END
$$$$
