MSG.pdb
     RDKit          3D

 19 18  0  0  1  0  0  0  0  0999 V2000
98269.953161242.593810432.0332 C   0  0  0  0  0  0  0  0  0  0  0  0
98269.781261244.367210432.5879 S   0  0  0  0  0  0  0  0  0  0  0  0
98271.179761245.214810431.7705 C   0  0  0  0  0  0  0  0  0  0  0  0
98271.992261244.273410430.9326 C   0  0  0  0  0  0  0  0  0  0  0  0
98272.859461245.023410430.0195 C   0  0  2  0  0  0  0  0  0  0  0  0
98274.226661245.183610430.6562 N   0  0  0  0  0  0  0  0  0  0  0  0
98272.406261246.351610429.5732 C   0  0  0  0  0  0  0  0  0  0  0  0
98272.296961247.394510430.2852 O   0  0  0  0  0  0  0  0  0  0  0  0
98269.046961246.128910426.1914 O   0  0  0  0  0  0  0  0  0  0  0  0
98270.289161245.808610426.7109 C   0  0  0  0  0  0  0  0  0  0  0  0
98270.648461246.710910427.8799 C   0  0  2  0  0  0  0  0  0  0  0  0
98272.007861246.496110428.2061 N   0  0  0  0  0  0  0  0  0  0  0  0
98269.757861246.242210429.0254 C   0  0  0  0  0  0  0  0  0  0  0  0
98269.898461246.746110430.1553 O   0  0  0  0  0  0  0  0  0  0  0  0
98268.773461245.242210428.8613 N   0  0  0  0  0  0  0  0  0  0  0  0
98267.445361245.476610428.4277 C   0  0  0  0  0  0  0  0  0  0  0  0
98266.492261245.714810429.5273 C   0  0  0  0  0  0  0  0  0  0  0  0
98265.281261245.093810429.5996 O   0  0  0  0  0  0  0  0  0  0  0  0
98266.820361246.519510430.4404 O   0  0  0  0  0  0  0  0  0  0  0  0
  2  1  1  0
  3  2  1  0
  4  5  1  0
  4  3  1  0
  5  6  1  1
  7  8  2  0
  7  5  1  0
 10  9  1  0
 11 10  1  6
 11 12  1  0
 12  7  1  0
 13 14  2  0
 13 11  1  0
 15 13  1  0
 16 17  1  0
 16 15  1  0
 17 18  1  0
 19 17  2  0
M  END
$$$$
