MSG.pdb
     RDKit          3D

 19 18  0  0  1  0  0  0  0  0999 V2000
    7.2175  -11.7315   26.0051 C   0  0  0  0  0  0  0  0  0  0  0  0
    7.3857  -12.8185   27.4675 S   0  0  0  0  0  0  0  0  0  0  0  0
    7.6555  -14.5075   26.8050 C   0  0  0  0  0  0  0  0  0  0  0  0
    6.4684  -14.9874   26.0429 C   0  0  0  0  0  0  0  0  0  0  0  0
    6.6622  -16.3954   25.6055 C   0  0  2  0  0  0  0  0  0  0  0  0
    7.0606  -17.1959   26.7614 N   0  0  0  0  0  0  0  0  0  0  0  0
    7.6136  -16.6055   24.5140 C   0  0  0  0  0  0  0  0  0  0  0  0
    8.6982  -17.2333   24.5747 O   0  0  0  0  0  0  0  0  0  0  0  0
    7.2676  -14.1837   21.2301 O   0  0  0  0  0  0  0  0  0  0  0  0
    7.5633  -15.5033   20.9210 C   0  0  0  0  0  0  0  0  0  0  0  0
    8.1962  -16.2013   22.1205 C   0  0  2  0  0  0  0  0  0  0  0  0
    7.3065  -16.0499   23.2265 N   0  0  0  0  0  0  0  0  0  0  0  0
    9.4628  -15.4429   22.4158 C   0  0  0  0  0  0  0  0  0  0  0  0
    9.5138  -14.6274   23.3547 O   0  0  0  0  0  0  0  0  0  0  0  0
   10.6416  -15.6288   21.6372 N   0  0  0  0  0  0  0  0  0  0  0  0
   11.8629  -14.9041   21.8575 C   0  0  0  0  0  0  0  0  0  0  0  0
   12.9346  -15.7455   22.4162 C   0  0  0  0  0  0  0  0  0  0  0  0
   14.2501  -15.6396   21.9933 O   0  0  0  0  0  0  0  0  0  0  0  0
   12.6373  -16.5836   23.3046 O   0  0  0  0  0  0  0  0  0  0  0  0
  2  1  1  0
  3  2  1  0
  4  5  1  0
  4  3  1  0
  5  6  1  1
  7  8  2  0
  7  5  1  0
 10  9  1  0
 11 10  1  6
 11 12  1  0
 12  7  1  0
 13 14  2  0
 13 11  1  0
 15 13  1  0
 16 17  1  0
 16 15  1  0
 17 18  1  0
 19 17  2  0
M  END
$$$$
