MSG.pdb
     RDKit          3D

 19 18  0  0  1  0  0  0  0  0999 V2000
    7.9262  -11.8115   27.1334 C   0  0  0  0  0  0  0  0  0  0  0  0
    6.1125  -12.0548   27.1275 S   0  0  0  0  0  0  0  0  0  0  0  0
    5.8388  -13.7494   26.4809 C   0  0  0  0  0  0  0  0  0  0  0  0
    7.0548  -14.2718   25.7963 C   0  0  0  0  0  0  0  0  0  0  0  0
    6.7826  -15.6023   25.1905 C   0  0  2  0  0  0  0  0  0  0  0  0
    6.4171  -16.5365   26.2531 N   0  0  0  0  0  0  0  0  0  0  0  0
    7.8610  -16.1757   24.3849 C   0  0  0  0  0  0  0  0  0  0  0  0
    8.7361  -16.9874   24.7717 O   0  0  0  0  0  0  0  0  0  0  0  0
    8.4236  -14.5001   20.6668 O   0  0  0  0  0  0  0  0  0  0  0  0
    8.7037  -15.8566   20.7423 C   0  0  0  0  0  0  0  0  0  0  0  0
    9.0271  -16.2535   22.1791 C   0  0  2  0  0  0  0  0  0  0  0  0
    7.9580  -15.7924   23.0050 N   0  0  0  0  0  0  0  0  0  0  0  0
   10.2763  -15.4961   22.5431 C   0  0  0  0  0  0  0  0  0  0  0  0
   10.2101  -14.3486   23.0207 O   0  0  0  0  0  0  0  0  0  0  0  0
   11.5713  -16.0603   22.3560 N   0  0  0  0  0  0  0  0  0  0  0  0
   12.7838  -15.4370   22.8102 C   0  0  0  0  0  0  0  0  0  0  0  0
   13.9924  -16.1764   22.4088 C   0  0  0  0  0  0  0  0  0  0  0  0
   15.2606  -15.6280   22.5159 O   0  0  0  0  0  0  0  0  0  0  0  0
   13.8597  -17.3413   21.9557 O   0  0  0  0  0  0  0  0  0  0  0  0
  2  1  1  0
  3  2  1  0
  4  5  1  0
  4  3  1  0
  5  6  1  1
  7  8  2  0
  7  5  1  0
 10  9  1  0
 11 10  1  6
 11 12  1  0
 12  7  1  0
 13 14  2  0
 13 11  1  0
 15 13  1  0
 16 17  1  0
 16 15  1  0
 17 18  1  0
 19 17  2  0
M  END
$$$$
