MSG.pdb
     RDKit          3D

 19 18  0  0  1  0  0  0  0  0999 V2000
    7.8385  -11.9001   27.9377 C   0  0  0  0  0  0  0  0  0  0  0  0
    6.2080  -11.7854   27.1150 S   0  0  0  0  0  0  0  0  0  0  0  0
    5.8466  -13.4705   26.4871 C   0  0  0  0  0  0  0  0  0  0  0  0
    7.0058  -14.0298   25.7364 C   0  0  0  0  0  0  0  0  0  0  0  0
    6.6562  -15.3464   25.1400 C   0  0  2  0  0  0  0  0  0  0  0  0
    6.3486  -16.2838   26.2181 N   0  0  0  0  0  0  0  0  0  0  0  0
    7.6565  -15.9362   24.2499 C   0  0  0  0  0  0  0  0  0  0  0  0
    8.4797  -16.8377   24.5393 O   0  0  0  0  0  0  0  0  0  0  0  0
    7.3964  -15.8431   20.0423 O   0  0  0  0  0  0  0  0  0  0  0  0
    8.4981  -15.2596   20.6505 C   0  0  0  0  0  0  0  0  0  0  0  0
    8.7572  -15.9015   22.0096 C   0  0  2  0  0  0  0  0  0  0  0  0
    7.7321  -15.4580   22.8986 N   0  0  0  0  0  0  0  0  0  0  0  0
   10.0749  -15.3469   22.4813 C   0  0  0  0  0  0  0  0  0  0  0  0
   10.1339  -14.2449   23.0569 O   0  0  0  0  0  0  0  0  0  0  0  0
   11.2948  -16.0574   22.2879 N   0  0  0  0  0  0  0  0  0  0  0  0
   12.5742  -15.5772   22.7326 C   0  0  0  0  0  0  0  0  0  0  0  0
   13.6976  -16.3706   22.2062 C   0  0  0  0  0  0  0  0  0  0  0  0
   13.8919  -16.5606   20.8473 O   0  0  0  0  0  0  0  0  0  0  0  0
   14.5009  -16.8880   23.0230 O   0  0  0  0  0  0  0  0  0  0  0  0
  2  1  1  0
  3  2  1  0
  4  5  1  0
  4  3  1  0
  5  6  1  1
  7  8  2  0
  7  5  1  0
 10  9  1  0
 11 10  1  6
 11 12  1  0
 12  7  1  0
 13 14  2  0
 13 11  1  0
 15 13  1  0
 16 17  1  0
 16 15  1  0
 17 18  1  0
 19 17  2  0
M  END
$$$$
