PHF.pdb
     RDKit          3D

 29 31  0  0  1  0  0  0  0  0999 V2000
   29.3714  -21.6685  -14.3134 N   0  0  0  0  0  0  0  0  0  0  0  0
   29.8252  -20.4795  -15.0096 C   0  0  0  0  0  0  0  0  0  0  0  0
   30.7606  -19.7568  -14.0953 C   0  0  0  0  0  0  0  0  0  0  0  0
   30.7762  -20.6028  -12.8418 C   0  0  0  0  0  0  0  0  0  0  0  0
   29.4729  -21.3694  -12.8985 C   0  0  1  0  0  0  0  0  0  0  0  0
   28.3168  -20.5519  -12.5022 C   0  0  0  0  0  0  0  0  0  0  0  0
   28.3727  -19.8351  -11.4561 O   0  0  0  0  0  0  0  0  0  0  0  0
   27.0983  -20.4913  -13.2130 N   0  0  0  0  0  0  0  0  0  0  0  0
   25.9056  -19.7854  -12.7337 C   0  0  1  0  0  0  0  0  0  0  0  0
   25.0336  -19.6381  -13.9480 C   0  0  0  0  0  0  0  0  0  0  0  0
   25.4862  -18.6474  -14.9150 C   0  0  0  0  0  0  0  0  0  0  0  0
   26.5320  -17.7615  -14.6834 C   0  0  0  0  0  0  0  0  0  0  0  0
   26.6408  -17.0246  -15.7924 N   0  0  0  0  0  0  0  0  0  0  0  0
   25.7044  -17.4279  -16.6853 C   0  0  0  0  0  0  0  0  0  0  0  0
   24.9892  -18.4346  -16.1393 N   0  0  0  0  0  0  0  0  0  0  0  0
   25.1849  -20.6751  -11.7583 C   0  0  0  0  0  0  0  0  0  0  0  0
   24.7371  -21.8092  -12.0336 O   0  0  0  0  0  0  0  0  0  0  0  0
   24.9548  -20.2646  -10.3960 N   0  0  0  0  0  0  0  0  0  0  0  0
   24.3389  -21.1380   -9.4139 C   0  0  1  0  0  0  0  0  0  0  0  0
   25.3567  -21.6792   -8.4332 C   0  0  0  0  0  0  0  0  0  0  0  0
   25.9682  -20.6193   -7.5972 C   0  0  0  0  0  0  0  0  0  0  0  0
   26.8090  -19.6557   -8.1038 C   0  0  0  0  0  0  0  0  0  0  0  0
   27.3828  -18.6659   -7.3131 C   0  0  0  0  0  0  0  0  0  0  0  0
   27.1083  -18.6355   -5.9692 C   0  0  0  0  0  0  0  0  0  0  0  0
   26.2742  -19.5772   -5.4189 C   0  0  0  0  0  0  0  0  0  0  0  0
   25.7177  -20.5478   -6.2215 C   0  0  0  0  0  0  0  0  0  0  0  0
   23.3208  -20.3915   -8.6382 C   0  0  0  0  0  0  0  0  0  0  0  0
   23.1861  -19.1575   -8.7694 O   0  0  0  0  0  0  0  0  0  0  0  0
   22.4814  -21.0373   -7.7389 O   0  0  0  0  0  0  0  0  0  0  0  0
  1  5  1  0
  2  1  1  0
  2  3  1  0
  3  4  1  0
  5  6  1  6
  5  4  1  0
  6  7  2  0
  8  9  1  0
  8  6  1  0
 10 11  1  0
  9 10  1  6
 11 12  2  0
 13 12  1  0
 14 13  1  0
 15 14  2  0
 15 11  1  0
 16  9  1  0
 17 16  2  0
 18 16  1  0
 19 18  1  0
 19 27  1  0
 19 20  1  1
 21 22  2  0
 21 20  1  0
 23 22  1  0
 24 23  2  0
 25 24  1  0
 25 26  2  0
 26 21  1  0
 27 29  1  0
 28 27  2  0
M  END
$$$$
