PHF.pdb
     RDKit          3D

 29 31  0  0  1  0  0  0  0  0999 V2000
   28.2029  -19.5104  -15.1833 N   0  0  0  0  0  0  0  0  0  0  0  0
   27.1076  -19.3099  -16.1130 C   0  0  0  0  0  0  0  0  0  0  0  0
   26.7504  -17.8593  -16.0756 C   0  0  0  0  0  0  0  0  0  0  0  0
   27.6955  -17.2744  -15.0500 C   0  0  0  0  0  0  0  0  0  0  0  0
   28.0873  -18.4581  -14.1928 C   0  0  1  0  0  0  0  0  0  0  0  0
   27.0427  -18.8286  -13.2266 C   0  0  0  0  0  0  0  0  0  0  0  0
   26.4429  -17.9292  -12.5613 O   0  0  0  0  0  0  0  0  0  0  0  0
   26.6305  -20.1530  -12.9624 N   0  0  0  0  0  0  0  0  0  0  0  0
   25.6617  -20.5165  -11.9232 C   0  0  1  0  0  0  0  0  0  0  0  0
   25.0254  -21.7838  -12.4190 C   0  0  0  0  0  0  0  0  0  0  0  0
   23.9670  -21.5981  -13.4024 C   0  0  0  0  0  0  0  0  0  0  0  0
   22.6114  -21.6639  -13.1019 C   0  0  0  0  0  0  0  0  0  0  0  0
   21.9697  -21.4433  -14.2526 N   0  0  0  0  0  0  0  0  0  0  0  0
   22.8806  -21.2467  -15.2366 C   0  0  0  0  0  0  0  0  0  0  0  0
   24.1189  -21.3431  -14.7073 N   0  0  0  0  0  0  0  0  0  0  0  0
   26.4146  -20.8453  -10.6634 C   0  0  0  0  0  0  0  0  0  0  0  0
   27.4236  -21.5816  -10.6147 O   0  0  0  0  0  0  0  0  0  0  0  0
   26.0086  -20.3157   -9.3860 N   0  0  0  0  0  0  0  0  0  0  0  0
   26.7545  -20.5679   -8.1667 C   0  0  1  0  0  0  0  0  0  0  0  0
   27.4789  -19.3276   -7.6899 C   0  0  0  0  0  0  0  0  0  0  0  0
   28.1393  -19.5176   -6.3770 C   0  0  0  0  0  0  0  0  0  0  0  0
   27.5850  -19.0972   -5.1904 C   0  0  0  0  0  0  0  0  0  0  0  0
   28.2116  -19.2751   -3.9617 C   0  0  0  0  0  0  0  0  0  0  0  0
   29.4349  -19.8946   -3.9142 C   0  0  0  0  0  0  0  0  0  0  0  0
   30.0270  -20.3313   -5.0734 C   0  0  0  0  0  0  0  0  0  0  0  0
   29.3877  -20.1441   -6.2785 C   0  0  0  0  0  0  0  0  0  0  0  0
   25.8332  -20.9928   -7.0867 C   0  0  0  0  0  0  0  0  0  0  0  0
   26.2657  -21.3365   -5.9673 O   0  0  0  0  0  0  0  0  0  0  0  0
   24.4578  -21.0237   -7.2812 O   0  0  0  0  0  0  0  0  0  0  0  0
  1  5  1  0
  2  1  1  0
  2  3  1  0
  3  4  1  0
  5  6  1  1
  5  4  1  0
  6  7  2  0
  8  9  1  0
  8  6  1  0
 10 11  1  0
  9 10  1  6
 11 12  2  0
 13 12  1  0
 14 13  1  0
 15 14  2  0
 15 11  1  0
 16  9  1  0
 17 16  2  0
 18 16  1  0
 19 18  1  0
 19 27  1  0
 19 20  1  1
 21 22  2  0
 21 20  1  0
 23 22  1  0
 24 23  2  0
 25 24  1  0
 25 26  2  0
 26 21  1  0
 27 29  1  0
 28 27  2  0
M  END
$$$$
