PHF.pdb
     RDKit          3D

 29 31  0  0  1  0  0  0  0  0999 V2000
   27.8791  -20.2360  -15.4755 N   0  0  0  0  0  0  0  0  0  0  0  0
   26.8636  -19.5773  -16.2750 C   0  0  0  0  0  0  0  0  0  0  0  0
   27.1051  -18.1057  -16.1792 C   0  0  0  0  0  0  0  0  0  0  0  0
   28.2983  -17.9884  -15.2574 C   0  0  0  0  0  0  0  0  0  0  0  0
   28.2795  -19.2770  -14.4645 C   0  0  1  0  0  0  0  0  0  0  0  0
   27.2725  -19.2686  -13.3932 C   0  0  0  0  0  0  0  0  0  0  0  0
   26.9582  -18.1788  -12.8234 O   0  0  0  0  0  0  0  0  0  0  0  0
   26.5956  -20.4149  -12.9224 N   0  0  0  0  0  0  0  0  0  0  0  0
   25.6322  -20.3997  -11.8168 C   0  0  1  0  0  0  0  0  0  0  0  0
   24.6487  -21.4851  -12.1506 C   0  0  0  0  0  0  0  0  0  0  0  0
   23.5503  -21.0765  -13.0156 C   0  0  0  0  0  0  0  0  0  0  0  0
   23.3663  -19.7760  -13.4706 C   0  0  0  0  0  0  0  0  0  0  0  0
   22.2657  -19.8045  -14.2272 N   0  0  0  0  0  0  0  0  0  0  0  0
   21.7763  -21.0681  -14.2489 C   0  0  0  0  0  0  0  0  0  0  0  0
   22.5744  -21.8557  -13.4968 N   0  0  0  0  0  0  0  0  0  0  0  0
   26.3470  -20.8022  -10.5561 C   0  0  0  0  0  0  0  0  0  0  0  0
   27.1544  -21.7529  -10.4741 O   0  0  0  0  0  0  0  0  0  0  0  0
   26.1408  -20.0947   -9.3174 N   0  0  0  0  0  0  0  0  0  0  0  0
   26.8289  -20.4559   -8.0916 C   0  0  1  0  0  0  0  0  0  0  0  0
   27.5645  -19.2745   -7.4967 C   0  0  0  0  0  0  0  0  0  0  0  0
   28.1496  -19.5725   -6.1681 C   0  0  0  0  0  0  0  0  0  0  0  0
   27.7756  -18.9153   -5.0191 C   0  0  0  0  0  0  0  0  0  0  0  0
   28.3312  -19.1970   -3.7757 C   0  0  0  0  0  0  0  0  0  0  0  0
   29.2943  -20.1690   -3.6742 C   0  0  0  0  0  0  0  0  0  0  0  0
   29.6993  -20.8516   -4.7945 C   0  0  0  0  0  0  0  0  0  0  0  0
   29.1349  -20.5554   -6.0150 C   0  0  0  0  0  0  0  0  0  0  0  0
   25.8532  -20.9315   -7.0830 C   0  0  0  0  0  0  0  0  0  0  0  0
   26.2318  -21.4683   -6.0214 O   0  0  0  0  0  0  0  0  0  0  0  0
   24.4847  -20.7971   -7.2824 O   0  0  0  0  0  0  0  0  0  0  0  0
  1  5  1  0
  2  1  1  0
  2  3  1  0
  3  4  1  0
  5  6  1  1
  5  4  1  0
  6  7  2  0
  8  9  1  0
  8  6  1  0
 10 11  1  0
  9 10  1  6
 11 12  2  0
 13 12  1  0
 14 13  1  0
 15 14  2  0
 15 11  1  0
 16  9  1  0
 17 16  2  0
 18 16  1  0
 19 18  1  0
 19 27  1  0
 19 20  1  1
 21 22  2  0
 21 20  1  0
 23 22  1  0
 24 23  2  0
 25 24  1  0
 25 26  2  0
 26 21  1  0
 27 29  1  0
 28 27  2  0
M  END
$$$$
