PHF.pdb
     RDKit          3D

 29 31  0  0  1  0  0  0  0  0999 V2000
   28.9348  -22.6335  -16.4551 N   0  0  0  0  0  0  0  0  0  0  0  0
   28.8065  -23.4765  -17.6287 C   0  0  0  0  0  0  0  0  0  0  0  0
   29.1190  -22.6318  -18.8212 C   0  0  0  0  0  0  0  0  0  0  0  0
   29.4014  -21.2647  -18.2394 C   0  0  0  0  0  0  0  0  0  0  0  0
   28.6880  -21.2776  -16.9052 C   0  0  1  0  0  0  0  0  0  0  0  0
   27.2372  -21.0778  -17.0363 C   0  0  0  0  0  0  0  0  0  0  0  0
   26.7867  -20.0340  -17.6010 O   0  0  0  0  0  0  0  0  0  0  0  0
   26.2594  -21.9833  -16.5696 N   0  0  0  0  0  0  0  0  0  0  0  0
   24.8153  -21.7395  -16.6465 C   0  0  1  0  0  0  0  0  0  0  0  0
   24.2726  -22.8979  -17.4342 C   0  0  0  0  0  0  0  0  0  0  0  0
   24.6558  -22.9210  -18.8392 C   0  0  0  0  0  0  0  0  0  0  0  0
   25.4011  -23.9399  -19.4213 C   0  0  0  0  0  0  0  0  0  0  0  0
   25.5429  -23.6024  -20.7060 N   0  0  0  0  0  0  0  0  0  0  0  0
   24.9146  -22.4218  -20.9254 C   0  0  0  0  0  0  0  0  0  0  0  0
   24.3649  -22.0007  -19.7663 N   0  0  0  0  0  0  0  0  0  0  0  0
   24.2432  -21.8225  -15.2580 C   0  0  0  0  0  0  0  0  0  0  0  0
   24.5202  -22.7187  -14.4317 O   0  0  0  0  0  0  0  0  0  0  0  0
   23.3058  -20.8415  -14.7721 N   0  0  0  0  0  0  0  0  0  0  0  0
   22.8657  -20.8039  -13.3896 C   0  0  1  0  0  0  0  0  0  0  0  0
   23.4872  -19.6463  -12.6382 C   0  0  0  0  0  0  0  0  0  0  0  0
   24.3338  -20.0863  -11.5043 C   0  0  0  0  0  0  0  0  0  0  0  0
   25.6621  -20.4155  -11.6432 C   0  0  0  0  0  0  0  0  0  0  0  0
   26.4504  -20.8313  -10.5756 C   0  0  0  0  0  0  0  0  0  0  0  0
   25.8944  -20.9222   -9.3245 C   0  0  0  0  0  0  0  0  0  0  0  0
   24.5720  -20.6036   -9.1378 C   0  0  0  0  0  0  0  0  0  0  0  0
   23.8110  -20.1943  -10.2099 C   0  0  0  0  0  0  0  0  0  0  0  0
   21.3943  -20.6400  -13.3294 C   0  0  0  0  0  0  0  0  0  0  0  0
   20.7573  -20.1684  -14.2938 O   0  0  0  0  0  0  0  0  0  0  0  0
   20.6726  -21.0046  -12.1995 O   0  0  0  0  0  0  0  0  0  0  0  0
  1  5  1  0
  2  1  1  0
  2  3  1  0
  3  4  1  0
  5  6  1  6
  5  4  1  0
  6  7  2  0
  8  9  1  0
  8  6  1  0
 10 11  1  0
  9 10  1  6
 11 12  2  0
 13 12  1  0
 14 13  1  0
 15 14  2  0
 15 11  1  0
 16  9  1  0
 17 16  2  0
 18 16  1  0
 19 18  1  0
 19 27  1  0
 19 20  1  1
 21 22  2  0
 21 20  1  0
 23 22  1  0
 24 23  2  0
 25 24  1  0
 25 26  2  0
 26 21  1  0
 27 29  1  0
 28 27  2  0
M  END
$$$$
