PHF.pdb
     RDKit          3D

 29 31  0  0  1  0  0  0  0  0999 V2000
   23.8784  -18.0268  -14.4713 N   0  0  0  0  0  0  0  0  0  0  0  0
   24.8216  -17.2425  -15.2456 C   0  0  0  0  0  0  0  0  0  0  0  0
   24.8329  -17.7997  -16.6322 C   0  0  0  0  0  0  0  0  0  0  0  0
   23.8598  -18.9558  -16.5717 C   0  0  0  0  0  0  0  0  0  0  0  0
   23.8220  -19.3292  -15.1059 C   0  0  1  0  0  0  0  0  0  0  0  0
   24.9956  -20.1110  -14.6897 C   0  0  0  0  0  0  0  0  0  0  0  0
   25.2581  -21.2160  -15.2566 O   0  0  0  0  0  0  0  0  0  0  0  0
   25.8945  -19.7245  -13.6717 N   0  0  0  0  0  0  0  0  0  0  0  0
   27.0008  -20.5613  -13.1959 C   0  0  1  0  0  0  0  0  0  0  0  0
   28.2079  -19.6688  -13.2517 C   0  0  0  0  0  0  0  0  0  0  0  0
   28.4405  -19.0268  -14.5383 C   0  0  0  0  0  0  0  0  0  0  0  0
   29.0243  -19.6644  -15.6269 C   0  0  0  0  0  0  0  0  0  0  0  0
   29.0636  -18.7563  -16.6059 N   0  0  0  0  0  0  0  0  0  0  0  0
   28.5279  -17.5959  -16.1549 C   0  0  0  0  0  0  0  0  0  0  0  0
   28.1420  -17.7657  -14.8722 N   0  0  0  0  0  0  0  0  0  0  0  0
   26.7524  -20.9048  -11.7528 C   0  0  0  0  0  0  0  0  0  0  0  0
   27.4678  -21.6748  -11.0762 O   0  0  0  0  0  0  0  0  0  0  0  0
   25.6350  -20.3507  -11.0306 N   0  0  0  0  0  0  0  0  0  0  0  0
   25.0974  -20.9714   -9.8338 C   0  0  1  0  0  0  0  0  0  0  0  0
   25.1520  -20.0336   -8.6471 C   0  0  0  0  0  0  0  0  0  0  0  0
   26.5132  -19.9113   -8.0743 C   0  0  0  0  0  0  0  0  0  0  0  0
   27.3323  -20.9931   -7.8486 C   0  0  0  0  0  0  0  0  0  0  0  0
   28.6076  -20.8720   -7.3072 C   0  0  0  0  0  0  0  0  0  0  0  0
   29.0833  -19.6276   -6.9790 C   0  0  0  0  0  0  0  0  0  0  0  0
   28.3011  -18.5185   -7.1865 C   0  0  0  0  0  0  0  0  0  0  0  0
   27.0416  -18.6629   -7.7238 C   0  0  0  0  0  0  0  0  0  0  0  0
   23.6790  -21.3427  -10.0478 C   0  0  0  0  0  0  0  0  0  0  0  0
   23.0050  -21.8686   -9.1381 O   0  0  0  0  0  0  0  0  0  0  0  0
   23.0498  -21.1191  -11.2663 O   0  0  0  0  0  0  0  0  0  0  0  0
  1  5  1  0
  2  1  1  0
  2  3  1  0
  3  4  1  0
  5  6  1  1
  5  4  1  0
  6  7  2  0
  8  9  1  0
  8  6  1  0
 10 11  1  0
  9 10  1  1
 11 12  2  0
 13 12  1  0
 14 13  1  0
 15 14  2  0
 15 11  1  0
 16  9  1  0
 17 16  2  0
 18 16  1  0
 19 18  1  0
 19 27  1  0
 19 20  1  1
 21 22  2  0
 21 20  1  0
 23 22  1  0
 24 23  2  0
 25 24  1  0
 25 26  2  0
 26 21  1  0
 27 29  1  0
 28 27  2  0
M  END
$$$$
