PHF.pdb
     RDKit          3D

 29 31  0  0  1  0  0  0  0  0999 V2000
   24.9217  -36.6269  -11.9957 N   0  0  0  0  0  0  0  0  0  0  0  0
   25.1554  -35.1970  -12.0666 C   0  0  0  0  0  0  0  0  0  0  0  0
   26.4795  -34.9290  -11.4278 C   0  0  0  0  0  0  0  0  0  0  0  0
   26.9520  -36.2926  -10.9753 C   0  0  0  0  0  0  0  0  0  0  0  0
   25.6794  -37.1021  -10.8546 C   0  0  1  0  0  0  0  0  0  0  0  0
   24.9289  -36.7986   -9.6271 C   0  0  0  0  0  0  0  0  0  0  0  0
   24.0272  -35.9053   -9.6368 O   0  0  0  0  0  0  0  0  0  0  0  0
   25.1316  -37.4406   -8.3860 N   0  0  0  0  0  0  0  0  0  0  0  0
   24.2929  -37.2191   -7.2036 C   0  0  1  0  0  0  0  0  0  0  0  0
   24.3238  -38.5250   -6.4617 C   0  0  0  0  0  0  0  0  0  0  0  0
   23.4433  -39.5565   -6.9932 C   0  0  0  0  0  0  0  0  0  0  0  0
   22.1435  -39.3176   -7.4241 C   0  0  0  0  0  0  0  0  0  0  0  0
   21.6708  -40.4976   -7.8352 N   0  0  0  0  0  0  0  0  0  0  0  0
   22.6306  -41.4403   -7.6709 C   0  0  0  0  0  0  0  0  0  0  0  0
   23.7293  -40.8547   -7.1484 N   0  0  0  0  0  0  0  0  0  0  0  0
   24.9555  -36.1845   -6.3360 C   0  0  0  0  0  0  0  0  0  0  0  0
   26.1728  -36.1745   -6.0523 O   0  0  0  0  0  0  0  0  0  0  0  0
   24.2052  -35.1000   -5.7544 N   0  0  0  0  0  0  0  0  0  0  0  0
   24.8309  -34.0609   -4.9573 C   0  0  1  0  0  0  0  0  0  0  0  0
   24.6170  -32.6900   -5.5619 C   0  0  0  0  0  0  0  0  0  0  0  0
   25.1083  -32.5947   -6.9567 C   0  0  0  0  0  0  0  0  0  0  0  0
   24.2789  -32.3689   -8.0306 C   0  0  0  0  0  0  0  0  0  0  0  0
   24.7458  -32.2843   -9.3379 C   0  0  0  0  0  0  0  0  0  0  0  0
   26.0879  -32.4297   -9.5833 C   0  0  0  0  0  0  0  0  0  0  0  0
   26.9540  -32.6564   -8.5424 C   0  0  0  0  0  0  0  0  0  0  0  0
   26.4687  -32.7364   -7.2563 C   0  0  0  0  0  0  0  0  0  0  0  0
   24.2489  -34.0465   -3.5948 C   0  0  0  0  0  0  0  0  0  0  0  0
   23.2914  -34.7888   -3.2939 O   0  0  0  0  0  0  0  0  0  0  0  0
   24.7472  -33.2078   -2.6054 O   0  0  0  0  0  0  0  0  0  0  0  0
  1  5  1  0
  2  1  1  0
  2  3  1  0
  3  4  1  0
  5  6  1  1
  5  4  1  0
  6  7  2  0
  8  9  1  0
  8  6  1  0
 10 11  1  0
  9 10  1  1
 11 12  2  0
 13 12  1  0
 14 13  1  0
 15 14  2  0
 15 11  1  0
 16  9  1  0
 17 16  2  0
 18 16  1  0
 19 18  1  0
 19 27  1  0
 19 20  1  6
 21 22  2  0
 21 20  1  0
 23 22  1  0
 24 23  2  0
 25 24  1  0
 25 26  2  0
 26 21  1  0
 27 29  1  0
 28 27  2  0
M  END
$$$$
