PHF.pdb
     RDKit          3D

 29 31  0  0  1  0  0  0  0  0999 V2000
   23.3510  -21.0667  -15.0418 N   0  0  0  0  0  0  0  0  0  0  0  0
   23.8721  -20.0698  -15.9578 C   0  0  0  0  0  0  0  0  0  0  0  0
   24.7189  -20.7844  -16.9605 C   0  0  0  0  0  0  0  0  0  0  0  0
   24.6568  -22.2325  -16.5287 C   0  0  0  0  0  0  0  0  0  0  0  0
   24.2984  -22.1640  -15.0603 C   0  0  1  0  0  0  0  0  0  0  0  0
   25.4472  -21.8133  -14.2122 C   0  0  0  0  0  0  0  0  0  0  0  0
   26.5124  -22.5015  -14.2668 O   0  0  0  0  0  0  0  0  0  0  0  0
   25.4709  -20.7324  -13.3040 N   0  0  0  0  0  0  0  0  0  0  0  0
   26.6041  -20.4273  -12.4246 C   0  0  1  0  0  0  0  0  0  0  0  0
   26.8697  -18.9638  -12.6355 C   0  0  0  0  0  0  0  0  0  0  0  0
   27.3913  -18.6155  -13.9502 C   0  0  0  0  0  0  0  0  0  0  0  0
   28.6113  -19.0644  -14.4424 C   0  0  0  0  0  0  0  0  0  0  0  0
   28.7313  -18.5352  -15.6631 N   0  0  0  0  0  0  0  0  0  0  0  0
   27.6346  -17.7848  -15.9299 C   0  0  0  0  0  0  0  0  0  0  0  0
   26.8046  -17.8359  -14.8662 N   0  0  0  0  0  0  0  0  0  0  0  0
   26.1638  -20.6113  -10.9982 C   0  0  0  0  0  0  0  0  0  0  0  0
   25.0118  -20.3699  -10.5774 O   0  0  0  0  0  0  0  0  0  0  0  0
   27.0718  -21.0937   -9.9883 N   0  0  0  0  0  0  0  0  0  0  0  0
   26.6570  -21.3281   -8.6173 C   0  0  1  0  0  0  0  0  0  0  0  0
   27.8200  -21.7566   -7.7487 C   0  0  0  0  0  0  0  0  0  0  0  0
   28.0963  -20.8034   -6.6482 C   0  0  0  0  0  0  0  0  0  0  0  0
   27.4262  -20.8291   -5.4472 C   0  0  0  0  0  0  0  0  0  0  0  0
   27.6877  -19.9292   -4.4197 C   0  0  0  0  0  0  0  0  0  0  0  0
   28.6520  -18.9692   -4.5957 C   0  0  0  0  0  0  0  0  0  0  0  0
   29.3469  -18.9051   -5.7781 C   0  0  0  0  0  0  0  0  0  0  0  0
   29.0708  -19.8067   -6.7814 C   0  0  0  0  0  0  0  0  0  0  0  0
   26.0971  -20.0851   -8.0367 C   0  0  0  0  0  0  0  0  0  0  0  0
   26.5083  -18.9625   -8.3960 O   0  0  0  0  0  0  0  0  0  0  0  0
   25.0965  -20.1247   -7.0736 O   0  0  0  0  0  0  0  0  0  0  0  0
  1  5  1  0
  2  1  1  0
  2  3  1  0
  3  4  1  0
  5  6  1  1
  5  4  1  0
  6  7  2  0
  8  9  1  0
  8  6  1  0
 10 11  1  0
  9 10  1  1
 11 12  2  0
 13 12  1  0
 14 13  1  0
 15 14  2  0
 15 11  1  0
 16  9  1  0
 17 16  2  0
 18 16  1  0
 19 18  1  0
 19 27  1  0
 19 20  1  1
 21 22  2  0
 21 20  1  0
 23 22  1  0
 24 23  2  0
 25 24  1  0
 25 26  2  0
 26 21  1  0
 27 29  1  0
 28 27  2  0
M  END
$$$$
