PHF.pdb
     RDKit          3D

 29 31  0  0  1  0  0  0  0  0999 V2000
   18.9718  -11.6777  -16.3270 N   0  0  0  0  0  0  0  0  0  0  0  0
   17.5682  -11.9934  -16.1413 C   0  0  0  0  0  0  0  0  0  0  0  0
   16.8152  -11.3557  -17.2636 C   0  0  0  0  0  0  0  0  0  0  0  0
   17.8828  -10.6461  -18.0661 C   0  0  0  0  0  0  0  0  0  0  0  0
   19.0093  -10.4380  -17.0777 C   0  0  1  0  0  0  0  0  0  0  0  0
   18.7570   -9.3187  -16.1581 C   0  0  0  0  0  0  0  0  0  0  0  0
   18.6717   -8.1339  -16.6057 O   0  0  0  0  0  0  0  0  0  0  0  0
   18.5944   -9.4513  -14.7618 N   0  0  0  0  0  0  0  0  0  0  0  0
   18.3580   -8.3235  -13.8548 C   0  0  1  0  0  0  0  0  0  0  0  0
   17.8018   -8.9461  -12.6059 C   0  0  0  0  0  0  0  0  0  0  0  0
   17.4110   -8.0018  -11.5681 C   0  0  0  0  0  0  0  0  0  0  0  0
   17.4721   -6.6209  -11.7156 C   0  0  0  0  0  0  0  0  0  0  0  0
   17.0354   -6.1092  -10.5614 N   0  0  0  0  0  0  0  0  0  0  0  0
   16.7126   -7.1230   -9.7219 C   0  0  0  0  0  0  0  0  0  0  0  0
   16.9463   -8.2962  -10.3481 N   0  0  0  0  0  0  0  0  0  0  0  0
   19.6844   -7.7058  -13.5063 C   0  0  0  0  0  0  0  0  0  0  0  0
   20.6719   -8.3444  -13.0827 O   0  0  0  0  0  0  0  0  0  0  0  0
   19.9118   -6.2891  -13.6418 N   0  0  0  0  0  0  0  0  0  0  0  0
   21.2187   -5.6889  -13.4461 C   0  0  1  0  0  0  0  0  0  0  0  0
   22.0966   -5.8546  -14.6678 C   0  0  0  0  0  0  0  0  0  0  0  0
   21.5283   -5.2094  -15.8748 C   0  0  0  0  0  0  0  0  0  0  0  0
   20.7982   -5.8941  -16.8183 C   0  0  0  0  0  0  0  0  0  0  0  0
   20.2706   -5.2835  -17.9510 C   0  0  0  0  0  0  0  0  0  0  0  0
   20.4783   -3.9420  -18.1501 C   0  0  0  0  0  0  0  0  0  0  0  0
   21.2010   -3.2174  -17.2348 C   0  0  0  0  0  0  0  0  0  0  0  0
   21.7138   -3.8435  -16.1208 C   0  0  0  0  0  0  0  0  0  0  0  0
   21.0770   -4.2365  -13.1887 C   0  0  0  0  0  0  0  0  0  0  0  0
   19.9658   -3.6729  -13.2646 O   0  0  0  0  0  0  0  0  0  0  0  0
   22.1739   -3.4519  -12.8545 O   0  0  0  0  0  0  0  0  0  0  0  0
  1  5  1  0
  2  1  1  0
  2  3  1  0
  3  4  1  0
  5  6  1  1
  5  4  1  0
  6  7  2  0
  8  9  1  0
  8  6  1  0
 10 11  1  0
  9 10  1  1
 11 12  2  0
 13 12  1  0
 14 13  1  0
 15 14  2  0
 15 11  1  0
 16  9  1  0
 17 16  2  0
 18 16  1  0
 19 18  1  0
 19 27  1  0
 19 20  1  6
 21 22  2  0
 21 20  1  0
 23 22  1  0
 24 23  2  0
 25 24  1  0
 25 26  2  0
 26 21  1  0
 27 29  1  0
 28 27  2  0
M  END
$$$$
