PHF.pdb
     RDKit          3D

 29 31  0  0  1  0  0  0  0  0999 V2000
   29.8169  -22.0544  -12.5197 N   0  0  0  0  0  0  0  0  0  0  0  0
   30.8205  -21.2518  -13.1927 C   0  0  0  0  0  0  0  0  0  0  0  0
   31.0023  -20.0023  -12.3934 C   0  0  0  0  0  0  0  0  0  0  0  0
   30.0201  -20.1494  -11.2529 C   0  0  0  0  0  0  0  0  0  0  0  0
   28.9885  -21.1237  -11.7784 C   0  0  1  0  0  0  0  0  0  0  0  0
   28.0354  -20.4950  -12.7049 C   0  0  0  0  0  0  0  0  0  0  0  0
   27.9789  -19.2304  -12.7989 O   0  0  0  0  0  0  0  0  0  0  0  0
   27.1396  -21.2043  -13.5344 N   0  0  0  0  0  0  0  0  0  0  0  0
   26.0541  -20.5746  -14.2933 C   0  0  1  0  0  0  0  0  0  0  0  0
   26.1566  -21.1654  -15.6707 C   0  0  0  0  0  0  0  0  0  0  0  0
   27.2888  -20.6980  -16.4588 C   0  0  0  0  0  0  0  0  0  0  0  0
   28.4067  -21.4738  -16.7429 C   0  0  0  0  0  0  0  0  0  0  0  0
   29.2113  -20.7019  -17.4787 N   0  0  0  0  0  0  0  0  0  0  0  0
   28.6267  -19.4915  -17.6516 C   0  0  0  0  0  0  0  0  0  0  0  0
   27.4343  -19.4910  -17.0183 N   0  0  0  0  0  0  0  0  0  0  0  0
   24.7423  -21.0146  -13.7033 C   0  0  0  0  0  0  0  0  0  0  0  0
   24.4736  -22.1907  -13.3760 O   0  0  0  0  0  0  0  0  0  0  0  0
   23.6723  -20.0778  -13.4692 N   0  0  0  0  0  0  0  0  0  0  0  0
   22.4712  -20.4360  -12.7374 C   0  0  1  0  0  0  0  0  0  0  0  0
   22.3520  -19.6557  -11.4460 C   0  0  0  0  0  0  0  0  0  0  0  0
   23.2718  -20.1456  -10.3924 C   0  0  0  0  0  0  0  0  0  0  0  0
   22.8402  -20.8201   -9.2739 C   0  0  0  0  0  0  0  0  0  0  0  0
   23.7082  -21.2741   -8.2867 C   0  0  0  0  0  0  0  0  0  0  0  0
   25.0549  -21.0476   -8.4194 C   0  0  0  0  0  0  0  0  0  0  0  0
   25.5319  -20.3785   -9.5193 C   0  0  0  0  0  0  0  0  0  0  0  0
   24.6535  -19.9382  -10.4839 C   0  0  0  0  0  0  0  0  0  0  0  0
   21.2713  -20.1382  -13.5542 C   0  0  0  0  0  0  0  0  0  0  0  0
   21.3522  -19.4527  -14.5943 O   0  0  0  0  0  0  0  0  0  0  0  0
   20.0158  -20.6106  -13.1921 O   0  0  0  0  0  0  0  0  0  0  0  0
  1  5  1  0
  2  1  1  0
  2  3  1  0
  3  4  1  0
  5  6  1  6
  5  4  1  0
  6  7  2  0
  8  9  1  0
  8  6  1  0
 10 11  1  0
  9 10  1  6
 11 12  2  0
 13 12  1  0
 14 13  1  0
 15 14  2  0
 15 11  1  0
 16  9  1  0
 17 16  2  0
 18 16  1  0
 19 18  1  0
 19 27  1  0
 19 20  1  1
 21 22  2  0
 21 20  1  0
 23 22  1  0
 24 23  2  0
 25 24  1  0
 25 26  2  0
 26 21  1  0
 27 29  1  0
 28 27  2  0
M  END
$$$$
