PHF.pdb
     RDKit          3D

 29 31  0  0  1  0  0  0  0  0999 V2000
   26.9949  -20.4530  -15.9786 N   0  0  0  0  0  0  0  0  0  0  0  0
   26.9105  -19.0771  -16.4306 C   0  0  0  0  0  0  0  0  0  0  0  0
   28.1169  -18.3627  -15.9136 C   0  0  0  0  0  0  0  0  0  0  0  0
   28.8600  -19.4187  -15.1262 C   0  0  0  0  0  0  0  0  0  0  0  0
   27.7932  -20.4304  -14.7686 C   0  0  1  0  0  0  0  0  0  0  0  0
   26.9467  -19.9901  -13.6499 C   0  0  0  0  0  0  0  0  0  0  0  0
   26.8424  -18.7545  -13.3785 O   0  0  0  0  0  0  0  0  0  0  0  0
   26.2084  -20.8575  -12.8154 N   0  0  0  0  0  0  0  0  0  0  0  0
   25.3419  -20.4016  -11.7237 C   0  0  1  0  0  0  0  0  0  0  0  0
   24.0547  -21.1516  -11.9173 C   0  0  0  0  0  0  0  0  0  0  0  0
   23.1716  -20.6062  -12.9391 C   0  0  0  0  0  0  0  0  0  0  0  0
   22.3727  -19.4840  -12.7526 C   0  0  0  0  0  0  0  0  0  0  0  0
   21.7191  -19.3038  -13.9036 N   0  0  0  0  0  0  0  0  0  0  0  0
   22.0893  -20.2702  -14.7787 C   0  0  0  0  0  0  0  0  0  0  0  0
   22.9903  -21.0771  -14.1786 N   0  0  0  0  0  0  0  0  0  0  0  0
   25.9415  -20.8512  -10.4196 C   0  0  0  0  0  0  0  0  0  0  0  0
   26.1659  -22.0435  -10.1187 O   0  0  0  0  0  0  0  0  0  0  0  0
   26.3088  -19.9052   -9.3962 N   0  0  0  0  0  0  0  0  0  0  0  0
   26.8557  -20.3171   -8.1164 C   0  0  1  0  0  0  0  0  0  0  0  0
   27.4701  -19.1514   -7.3718 C   0  0  0  0  0  0  0  0  0  0  0  0
   27.9715  -19.5280   -6.0291 C   0  0  0  0  0  0  0  0  0  0  0  0
   28.9806  -20.4423   -5.8343 C   0  0  0  0  0  0  0  0  0  0  0  0
   29.4443  -20.7943   -4.5713 C   0  0  0  0  0  0  0  0  0  0  0  0
   28.8817  -20.2139   -3.4626 C   0  0  0  0  0  0  0  0  0  0  0  0
   27.8715  -19.2956   -3.6083 C   0  0  0  0  0  0  0  0  0  0  0  0
   27.4287  -18.9627   -4.8688 C   0  0  0  0  0  0  0  0  0  0  0  0
   25.7828  -20.8795   -7.2631 C   0  0  0  0  0  0  0  0  0  0  0  0
   26.0234  -21.7804   -6.4332 O   0  0  0  0  0  0  0  0  0  0  0  0
   24.4731  -20.4251   -7.3563 O   0  0  0  0  0  0  0  0  0  0  0  0
  1  5  1  0
  2  1  1  0
  2  3  1  0
  3  4  1  0
  5  6  1  1
  5  4  1  0
  6  7  2  0
  8  9  1  0
  8  6  1  0
 10 11  1  0
  9 10  1  6
 11 12  2  0
 13 12  1  0
 14 13  1  0
 15 14  2  0
 15 11  1  0
 16  9  1  0
 17 16  2  0
 18 16  1  0
 19 18  1  0
 19 27  1  0
 19 20  1  1
 21 22  2  0
 21 20  1  0
 23 22  1  0
 24 23  2  0
 25 24  1  0
 25 26  2  0
 26 21  1  0
 27 29  1  0
 28 27  2  0
M  END
$$$$
