PHF.pdb
     RDKit          3D

 29 31  0  0  1  0  0  0  0  0999 V2000
   19.9589  -33.6953   -8.3640 N   0  0  0  0  0  0  0  0  0  0  0  0
   20.0705  -33.3334   -9.7643 C   0  0  0  0  0  0  0  0  0  0  0  0
   20.2034  -34.6015  -10.5437 C   0  0  0  0  0  0  0  0  0  0  0  0
   20.1856  -35.6849   -9.4886 C   0  0  0  0  0  0  0  0  0  0  0  0
   20.6235  -34.9763   -8.2255 C   0  0  1  0  0  0  0  0  0  0  0  0
   22.0761  -34.7542   -8.1748 C   0  0  0  0  0  0  0  0  0  0  0  0
   22.8711  -35.7435   -8.1560 O   0  0  0  0  0  0  0  0  0  0  0  0
   22.6906  -33.4833   -8.1438 N   0  0  0  0  0  0  0  0  0  0  0  0
   24.1424  -33.2766   -8.1270 C   0  0  1  0  0  0  0  0  0  0  0  0
   24.3708  -32.0891   -9.0184 C   0  0  0  0  0  0  0  0  0  0  0  0
   24.3367  -32.3750  -10.4462 C   0  0  0  0  0  0  0  0  0  0  0  0
   24.2687  -33.6579  -10.9771 C   0  0  0  0  0  0  0  0  0  0  0  0
   24.2566  -33.5053  -12.3042 N   0  0  0  0  0  0  0  0  0  0  0  0
   24.3145  -32.1836  -12.5983 C   0  0  0  0  0  0  0  0  0  0  0  0
   24.3641  -31.4840  -11.4445 N   0  0  0  0  0  0  0  0  0  0  0  0
   24.5525  -32.8877   -6.7331 C   0  0  0  0  0  0  0  0  0  0  0  0
   24.2990  -31.7841   -6.2037 O   0  0  0  0  0  0  0  0  0  0  0  0
   25.2901  -33.7922   -5.8874 N   0  0  0  0  0  0  0  0  0  0  0  0
   25.6078  -33.4809   -4.5059 C   0  0  1  0  0  0  0  0  0  0  0  0
   24.3571  -33.2609   -3.6824 C   0  0  0  0  0  0  0  0  0  0  0  0
   23.5658  -34.5002   -3.4983 C   0  0  0  0  0  0  0  0  0  0  0  0
   23.9053  -35.4801   -2.5946 C   0  0  0  0  0  0  0  0  0  0  0  0
   23.1604  -36.6427   -2.4292 C   0  0  0  0  0  0  0  0  0  0  0  0
   22.0364  -36.8354   -3.1921 C   0  0  0  0  0  0  0  0  0  0  0  0
   21.6584  -35.8843   -4.1073 C   0  0  0  0  0  0  0  0  0  0  0  0
   22.4116  -34.7410   -4.2536 C   0  0  0  0  0  0  0  0  0  0  0  0
   26.3579  -34.6018   -3.8924 C   0  0  0  0  0  0  0  0  0  0  0  0
   26.7842  -34.5291   -2.7214 O   0  0  0  0  0  0  0  0  0  0  0  0
   26.6130  -35.7716   -4.5974 O   0  0  0  0  0  0  0  0  0  0  0  0
  1  5  1  0
  2  1  1  0
  2  3  1  0
  3  4  1  0
  5  6  1  6
  5  4  1  0
  6  7  2  0
  8  9  1  0
  8  6  1  0
 10 11  1  0
  9 10  1  6
 11 12  2  0
 13 12  1  0
 14 13  1  0
 15 14  2  0
 15 11  1  0
 16  9  1  0
 17 16  2  0
 18 16  1  0
 19 18  1  0
 19 27  1  0
 19 20  1  1
 21 22  2  0
 21 20  1  0
 23 22  1  0
 24 23  2  0
 25 24  1  0
 25 26  2  0
 26 21  1  0
 27 29  1  0
 28 27  2  0
M  END
$$$$
