PHF.pdb
     RDKit          3D

 29 31  0  0  1  0  0  0  0  0999 V2000
   28.3349  -19.7137  -17.9257 N   0  0  0  0  0  0  0  0  0  0  0  0
   27.3953  -20.2677  -18.8821 C   0  0  0  0  0  0  0  0  0  0  0  0
   26.9001  -19.1386  -19.7264 C   0  0  0  0  0  0  0  0  0  0  0  0
   27.6014  -17.9230  -19.1627 C   0  0  0  0  0  0  0  0  0  0  0  0
   27.9564  -18.3255  -17.7480 C   0  0  1  0  0  0  0  0  0  0  0  0
   26.8060  -18.2606  -16.8347 C   0  0  0  0  0  0  0  0  0  0  0  0
   26.1695  -17.1721  -16.6889 O   0  0  0  0  0  0  0  0  0  0  0  0
   26.3265  -19.3487  -16.0731 N   0  0  0  0  0  0  0  0  0  0  0  0
   25.0843  -19.3179  -15.2942 C   0  0  1  0  0  0  0  0  0  0  0  0
   23.9883  -19.4183  -16.3167 C   0  0  0  0  0  0  0  0  0  0  0  0
   23.3687  -18.1518  -16.6821 C   0  0  0  0  0  0  0  0  0  0  0  0
   23.6831  -16.9361  -16.0859 C   0  0  0  0  0  0  0  0  0  0  0  0
   22.9137  -16.0236  -16.6857 N   0  0  0  0  0  0  0  0  0  0  0  0
   22.1468  -16.6366  -17.6200 C   0  0  0  0  0  0  0  0  0  0  0  0
   22.4304  -17.9567  -17.6163 N   0  0  0  0  0  0  0  0  0  0  0  0
   25.0269  -20.5541  -14.4393 C   0  0  0  0  0  0  0  0  0  0  0  0
   25.0942  -21.7219  -14.8800 O   0  0  0  0  0  0  0  0  0  0  0  0
   24.8852  -20.4710  -13.0075 N   0  0  0  0  0  0  0  0  0  0  0  0
   24.8414  -21.6489  -12.1605 C   0  0  1  0  0  0  0  0  0  0  0  0
   26.1211  -21.8144  -11.3696 C   0  0  0  0  0  0  0  0  0  0  0  0
   26.2189  -20.8701  -10.2318 C   0  0  0  0  0  0  0  0  0  0  0  0
   25.9566  -21.2327   -8.9311 C   0  0  0  0  0  0  0  0  0  0  0  0
   26.0465  -20.3406   -7.8679 C   0  0  0  0  0  0  0  0  0  0  0  0
   26.4112  -19.0404   -8.1102 C   0  0  0  0  0  0  0  0  0  0  0  0
   26.6829  -18.6327   -9.3929 C   0  0  0  0  0  0  0  0  0  0  0  0
   26.5871  -19.5338  -10.4297 C   0  0  0  0  0  0  0  0  0  0  0  0
   23.7261  -21.5363  -11.1915 C   0  0  0  0  0  0  0  0  0  0  0  0
   23.4169  -22.4911  -10.4492 O   0  0  0  0  0  0  0  0  0  0  0  0
   22.9862  -20.3660  -11.0748 O   0  0  0  0  0  0  0  0  0  0  0  0
  1  5  1  0
  2  1  1  0
  2  3  1  0
  3  4  1  0
  5  6  1  1
  5  4  1  0
  6  7  2  0
  8  9  1  0
  8  6  1  0
 10 11  1  0
  9 10  1  6
 11 12  2  0
 13 12  1  0
 14 13  1  0
 15 14  2  0
 15 11  1  0
 16  9  1  0
 17 16  2  0
 18 16  1  0
 19 18  1  0
 19 27  1  0
 19 20  1  1
 21 22  2  0
 21 20  1  0
 23 22  1  0
 24 23  2  0
 25 24  1  0
 25 26  2  0
 26 21  1  0
 27 29  1  0
 28 27  2  0
M  END
$$$$
