PHF.pdb
     RDKit          3D

 29 31  0  0  1  0  0  0  0  0999 V2000
   28.5730  -21.2949  -15.2640 N   0  0  0  0  0  0  0  0  0  0  0  0
   27.5138  -21.2177  -16.2521 C   0  0  0  0  0  0  0  0  0  0  0  0
   27.5120  -19.8261  -16.7967 C   0  0  0  0  0  0  0  0  0  0  0  0
   28.6158  -19.1307  -16.0315 C   0  0  0  0  0  0  0  0  0  0  0  0
   28.7563  -19.9461  -14.7648 C   0  0  1  0  0  0  0  0  0  0  0  0
   27.7003  -19.6557  -13.7837 C   0  0  0  0  0  0  0  0  0  0  0  0
   27.4220  -18.4539  -13.4849 O   0  0  0  0  0  0  0  0  0  0  0  0
   26.9361  -20.6378  -13.1164 N   0  0  0  0  0  0  0  0  0  0  0  0
   25.8415  -20.3325  -12.1894 C   0  0  1  0  0  0  0  0  0  0  0  0
   24.6753  -21.1322  -12.6967 C   0  0  0  0  0  0  0  0  0  0  0  0
   23.9418  -20.5216  -13.7971 C   0  0  0  0  0  0  0  0  0  0  0  0
   23.5082  -19.2009  -13.7996 C   0  0  0  0  0  0  0  0  0  0  0  0
   22.8837  -19.0222  -14.9669 N   0  0  0  0  0  0  0  0  0  0  0  0
   22.9214  -20.1798  -15.6707 C   0  0  0  0  0  0  0  0  0  0  0  0
   23.5781  -21.1087  -14.9435 N   0  0  0  0  0  0  0  0  0  0  0  0
   26.2049  -20.8655  -10.8306 C   0  0  0  0  0  0  0  0  0  0  0  0
   26.6550  -22.0122  -10.6184 O   0  0  0  0  0  0  0  0  0  0  0  0
   26.0526  -20.0624   -9.6436 N   0  0  0  0  0  0  0  0  0  0  0  0
   26.2652  -20.5962   -8.3108 C   0  0  1  0  0  0  0  0  0  0  0  0
   26.5090  -19.4948   -7.3017 C   0  0  0  0  0  0  0  0  0  0  0  0
   27.7200  -19.7271   -6.4797 C   0  0  0  0  0  0  0  0  0  0  0  0
   28.1946  -20.9832   -6.1812 C   0  0  0  0  0  0  0  0  0  0  0  0
   29.3297  -21.1946   -5.4060 C   0  0  0  0  0  0  0  0  0  0  0  0
   30.0164  -20.1150   -4.9107 C   0  0  0  0  0  0  0  0  0  0  0  0
   29.5799  -18.8420   -5.1828 C   0  0  0  0  0  0  0  0  0  0  0  0
   28.4534  -18.6571   -5.9526 C   0  0  0  0  0  0  0  0  0  0  0  0
   25.0696  -21.3523   -7.8699 C   0  0  0  0  0  0  0  0  0  0  0  0
   23.9610  -21.1843   -8.4185 O   0  0  0  0  0  0  0  0  0  0  0  0
   25.1398  -22.2736   -6.8322 O   0  0  0  0  0  0  0  0  0  0  0  0
  1  5  1  0
  2  1  1  0
  2  3  1  0
  3  4  1  0
  5  6  1  1
  5  4  1  0
  6  7  2  0
  8  9  1  0
  8  6  1  0
 10 11  1  0
  9 10  1  6
 11 12  2  0
 13 12  1  0
 14 13  1  0
 15 14  2  0
 15 11  1  0
 16  9  1  0
 17 16  2  0
 18 16  1  0
 19 18  1  0
 19 27  1  0
 19 20  1  1
 21 22  2  0
 21 20  1  0
 23 22  1  0
 24 23  2  0
 25 24  1  0
 25 26  2  0
 26 21  1  0
 27 29  1  0
 28 27  2  0
M  END
$$$$
