PHF.pdb
     RDKit          3D

 29 31  0  0  1  0  0  0  0  0999 V2000
   28.3227  -18.4658  -17.9214 N   0  0  0  0  0  0  0  0  0  0  0  0
   27.8138  -17.4072  -18.7727 C   0  0  0  0  0  0  0  0  0  0  0  0
   28.3854  -16.1197  -18.2739 C   0  0  0  0  0  0  0  0  0  0  0  0
   29.2194  -16.5262  -17.0796 C   0  0  0  0  0  0  0  0  0  0  0  0
   28.6218  -17.8466  -16.6451 C   0  0  1  0  0  0  0  0  0  0  0  0
   27.3693  -17.6816  -15.8927 C   0  0  0  0  0  0  0  0  0  0  0  0
   27.3428  -16.9550  -14.8521 O   0  0  0  0  0  0  0  0  0  0  0  0
   26.1414  -18.2858  -16.2405 N   0  0  0  0  0  0  0  0  0  0  0  0
   24.9154  -18.1643  -15.4450 C   0  0  1  0  0  0  0  0  0  0  0  0
   23.8921  -17.6172  -16.3991 C   0  0  0  0  0  0  0  0  0  0  0  0
   24.0874  -16.2250  -16.7802 C   0  0  0  0  0  0  0  0  0  0  0  0
   24.3354  -15.8067  -18.0824 C   0  0  0  0  0  0  0  0  0  0  0  0
   24.4544  -14.4774  -18.0242 N   0  0  0  0  0  0  0  0  0  0  0  0
   24.2888  -14.0741  -16.7410 C   0  0  0  0  0  0  0  0  0  0  0  0
   24.0613  -15.1595  -15.9708 N   0  0  0  0  0  0  0  0  0  0  0  0
   24.4717  -19.5431  -15.0396 C   0  0  0  0  0  0  0  0  0  0  0  0
   24.5364  -20.5514  -15.7755 O   0  0  0  0  0  0  0  0  0  0  0  0
   23.9235  -19.8013  -13.7319 N   0  0  0  0  0  0  0  0  0  0  0  0
   23.6263  -21.1428  -13.2641 C   0  0  1  0  0  0  0  0  0  0  0  0
   24.8191  -21.7696  -12.5749 C   0  0  0  0  0  0  0  0  0  0  0  0
   25.3117  -20.9633  -11.4334 C   0  0  0  0  0  0  0  0  0  0  0  0
   26.1521  -19.8848  -11.5837 C   0  0  0  0  0  0  0  0  0  0  0  0
   26.6140  -19.1343  -10.5078 C   0  0  0  0  0  0  0  0  0  0  0  0
   26.2238  -19.4711   -9.2363 C   0  0  0  0  0  0  0  0  0  0  0  0
   25.3854  -20.5400   -9.0375 C   0  0  0  0  0  0  0  0  0  0  0  0
   24.9410  -21.2685  -10.1181 C   0  0  0  0  0  0  0  0  0  0  0  0
   22.5125  -21.1048  -12.2876 C   0  0  0  0  0  0  0  0  0  0  0  0
   22.0668  -20.0205  -11.8586 O   0  0  0  0  0  0  0  0  0  0  0  0
   21.9256  -22.2724  -11.8157 O   0  0  0  0  0  0  0  0  0  0  0  0
  1  5  1  0
  2  1  1  0
  2  3  1  0
  3  4  1  0
  5  6  1  1
  5  4  1  0
  6  7  2  0
  8  9  1  0
  8  6  1  0
 10 11  1  0
  9 10  1  6
 11 12  2  0
 13 12  1  0
 14 13  1  0
 15 14  2  0
 15 11  1  0
 16  9  1  0
 17 16  2  0
 18 16  1  0
 19 18  1  0
 19 27  1  0
 19 20  1  1
 21 22  2  0
 21 20  1  0
 23 22  1  0
 24 23  2  0
 25 24  1  0
 25 26  2  0
 26 21  1  0
 27 29  1  0
 28 27  2  0
M  END
$$$$
