PPE.pdb
     RDKit          3D

 24 25  0  0  1  0  0  0  0  0999 V2000
   28.2417  -20.4761  -15.2431 N   0  0  0  0  0  0  0  0  0  0  0  0
   28.3611  -19.3528  -16.1158 C   0  0  0  0  0  0  0  0  0  0  0  0
   27.8064  -18.1512  -15.4295 C   0  0  0  0  0  0  0  0  0  0  0  0
   27.3188  -18.6129  -14.0991 C   0  0  0  0  0  0  0  0  0  0  0  0
   27.7303  -20.0510  -13.9946 C   0  0  1  0  0  0  0  0  0  0  0  0
   26.6128  -20.8369  -13.4429 C   0  0  0  0  0  0  0  0  0  0  0  0
   26.2624  -21.8598  -14.1325 O   0  0  0  0  0  0  0  0  0  0  0  0
   25.9028  -20.5843  -12.2580 N   0  0  0  0  0  0  0  0  0  0  0  0
   26.2057  -19.5696  -11.2977 C   0  0  0  0  0  0  0  0  0  0  0  0
   25.4955  -19.9928  -10.0564 C   0  0  0  0  0  0  0  0  0  0  0  0
   24.9338  -21.3679  -10.3208 C   0  0  0  0  0  0  0  0  0  0  0  0
   24.7488  -21.3133  -11.8234 C   0  0  1  0  0  0  0  0  0  0  0  0
   23.4693  -20.6405  -12.1543 C   0  0  0  0  0  0  0  0  0  0  0  0
   23.4363  -19.3886  -12.0616 O   0  0  0  0  0  0  0  0  0  0  0  0
   22.2843  -21.2967  -12.5652 N   0  0  0  0  0  0  0  0  0  0  0  0
   21.3618  -20.7285  -13.5502 C   0  0  1  0  0  0  0  0  0  0  0  0
   21.4809  -21.4084  -14.8702 C   0  0  0  0  0  0  0  0  0  0  0  0
   20.5239  -20.8506  -15.8804 C   0  0  0  0  0  0  0  0  0  0  0  0
   21.2052  -20.3086  -17.0544 C   0  0  0  0  0  0  0  0  0  0  0  0
   22.3010  -20.8662  -17.4021 O   0  0  0  0  0  0  0  0  0  0  0  0
   20.0041  -20.8786  -12.9912 C   0  0  0  0  0  0  0  0  0  0  0  0
   18.9048  -20.1983  -13.5532 O   0  0  0  0  0  0  0  0  0  0  0  0
   20.8037  -19.2509  -17.8440 O   0  0  0  0  0  0  0  0  0  0  0  0
   19.7073  -21.5985  -11.9997 O   0  0  0  0  0  0  0  0  0  0  0  0
  1  2  1  0
  3  2  1  0
  4  5  1  0
  4  3  1  0
  5  6  1  6
  5  1  1  0
  6  7  2  0
  8 12  1  0
  8  6  1  0
  9  8  1  0
 10  9  1  0
 10 11  1  0
 11 12  1  0
 12 13  1  1
 13 15  1  0
 13 14  2  0
 15 16  1  0
 16 21  1  0
 16 17  1  6
 18 17  1  0
 19 20  2  0
 19 18  1  0
 21 24  2  0
 21 22  1  0
 23 19  1  0
M  END
$$$$
