PPE.pdb
     RDKit          3D

 24 25  0  0  1  0  0  0  0  0999 V2000
   22.7509  -20.7703  -14.0918 N   0  0  0  0  0  0  0  0  0  0  0  0
   21.8446  -20.1857  -15.0270 C   0  0  0  0  0  0  0  0  0  0  0  0
   20.8658  -19.3422  -14.2833 C   0  0  0  0  0  0  0  0  0  0  0  0
   21.2123  -19.4679  -12.8393 C   0  0  0  0  0  0  0  0  0  0  0  0
   22.4743  -20.2765  -12.7954 C   0  0  1  0  0  0  0  0  0  0  0  0
   22.3712  -21.2794  -11.7210 C   0  0  0  0  0  0  0  0  0  0  0  0
   22.3486  -22.5025  -12.1062 O   0  0  0  0  0  0  0  0  0  0  0  0
   22.2956  -21.0371  -10.3398 N   0  0  0  0  0  0  0  0  0  0  0  0
   22.2762  -19.7527   -9.7125 C   0  0  0  0  0  0  0  0  0  0  0  0
   22.6534  -20.0138   -8.2935 C   0  0  0  0  0  0  0  0  0  0  0  0
   23.0501  -21.4669   -8.2064 C   0  0  0  0  0  0  0  0  0  0  0  0
   22.2239  -22.0532   -9.3327 C   0  0  1  0  0  0  0  0  0  0  0  0
   20.8424  -22.3204   -8.8644 C   0  0  0  0  0  0  0  0  0  0  0  0
   20.0118  -21.3832   -8.9566 O   0  0  0  0  0  0  0  0  0  0  0  0
   20.3869  -23.5461   -8.3222 N   0  0  0  0  0  0  0  0  0  0  0  0
   18.9678  -23.8937   -8.2252 C   0  0  1  0  0  0  0  0  0  0  0  0
   18.7323  -25.3316   -8.5344 C   0  0  0  0  0  0  0  0  0  0  0  0
   17.2874  -25.7080   -8.4011 C   0  0  0  0  0  0  0  0  0  0  0  0
   17.0436  -27.1108   -8.7310 C   0  0  0  0  0  0  0  0  0  0  0  0
   15.8391  -27.5289   -8.6471 O   0  0  0  0  0  0  0  0  0  0  0  0
   18.5473  -23.5662   -6.8489 C   0  0  0  0  0  0  0  0  0  0  0  0
   17.1991  -23.2881   -6.5451 O   0  0  0  0  0  0  0  0  0  0  0  0
   17.9702  -28.0533   -9.1267 O   0  0  0  0  0  0  0  0  0  0  0  0
   19.3186  -23.5057   -5.8535 O   0  0  0  0  0  0  0  0  0  0  0  0
  1  2  1  0
  3  2  1  0
  4  5  1  0
  4  3  1  0
  5  6  1  1
  5  1  1  0
  6  7  2  0
  8 12  1  0
  8  6  1  0
  9  8  1  0
 10  9  1  0
 10 11  1  0
 11 12  1  0
 12 13  1  1
 13 15  1  0
 13 14  2  0
 15 16  1  0
 16 21  1  0
 16 17  1  1
 18 17  1  0
 19 20  2  0
 19 18  1  0
 21 24  2  0
 21 22  1  0
 23 19  1  0
M  END
$$$$
