PPE.pdb
     RDKit          3D

 24 25  0  0  1  0  0  0  0  0999 V2000
   18.6536  -11.7792  -15.6171 N   0  0  0  0  0  0  0  0  0  0  0  0
   17.6067  -12.1329  -16.5208 C   0  0  0  0  0  0  0  0  0  0  0  0
   17.8825  -11.5038  -17.8441 C   0  0  0  0  0  0  0  0  0  0  0  0
   19.1436  -10.7256  -17.6865 C   0  0  0  0  0  0  0  0  0  0  0  0
   19.6409  -11.0370  -16.3066 C   0  0  1  0  0  0  0  0  0  0  0  0
   20.0940   -9.7924  -15.6614 C   0  0  0  0  0  0  0  0  0  0  0  0
   19.3633   -9.3727  -14.6947 O   0  0  0  0  0  0  0  0  0  0  0  0
   21.2261   -9.0300  -15.9918 N   0  0  0  0  0  0  0  0  0  0  0  0
   22.1703   -9.3318  -17.0218 C   0  0  0  0  0  0  0  0  0  0  0  0
   23.3799   -8.5294  -16.6797 C   0  0  0  0  0  0  0  0  0  0  0  0
   23.1261   -7.9098  -15.3276 C   0  0  0  0  0  0  0  0  0  0  0  0
   21.6142   -7.8150  -15.3398 C   0  0  1  0  0  0  0  0  0  0  0  0
   21.1868   -6.5951  -16.0669 C   0  0  0  0  0  0  0  0  0  0  0  0
   20.9522   -6.7095  -17.2952 O   0  0  0  0  0  0  0  0  0  0  0  0
   21.0233   -5.3143  -15.4870 N   0  0  0  0  0  0  0  0  0  0  0  0
   20.3561   -4.2086  -16.1773 C   0  0  1  0  0  0  0  0  0  0  0  0
   19.3425   -3.5498  -15.3071 C   0  0  0  0  0  0  0  0  0  0  0  0
   18.6734   -2.3972  -15.9935 C   0  0  0  0  0  0  0  0  0  0  0  0
   17.9132   -1.5610  -15.0667 C   0  0  0  0  0  0  0  0  0  0  0  0
   17.8746   -1.9312  -13.8444 O   0  0  0  0  0  0  0  0  0  0  0  0
   21.4151   -3.2616  -16.5772 C   0  0  0  0  0  0  0  0  0  0  0  0
   21.2124   -2.3412  -17.6255 O   0  0  0  0  0  0  0  0  0  0  0  0
   17.2203   -0.4035  -15.3558 O   0  0  0  0  0  0  0  0  0  0  0  0
   22.5550   -3.1862  -16.0439 O   0  0  0  0  0  0  0  0  0  0  0  0
  1  2  1  0
  3  2  1  0
  4  5  1  0
  4  3  1  0
  5  6  1  1
  5  1  1  0
  6  7  2  0
  8 12  1  0
  8  6  1  0
  9  8  1  0
 10  9  1  0
 10 11  1  0
 11 12  1  0
 12 13  1  6
 13 15  1  0
 13 14  2  0
 15 16  1  0
 16 21  1  0
 16 17  1  1
 18 17  1  0
 19 20  2  0
 19 18  1  0
 21 24  2  0
 21 22  1  0
 23 19  1  0
M  END
$$$$
