PPE.pdb
     RDKit          3D

 24 25  0  0  1  0  0  0  0  0999 V2000
   26.0778  -10.0234  -21.0921 N   0  0  0  0  0  0  0  0  0  0  0  0
   25.7109   -8.9459  -21.9535 C   0  0  0  0  0  0  0  0  0  0  0  0
   25.4128   -7.7460  -21.1204 C   0  0  0  0  0  0  0  0  0  0  0  0
   25.5940   -8.1625  -19.7011 C   0  0  0  0  0  0  0  0  0  0  0  0
   26.1281   -9.5626  -19.7557 C   0  0  1  0  0  0  0  0  0  0  0  0
   25.4324  -10.3871  -18.7522 C   0  0  0  0  0  0  0  0  0  0  0  0
   24.6809  -11.3138  -19.2223 O   0  0  0  0  0  0  0  0  0  0  0  0
   25.5064  -10.2637  -17.3553 N   0  0  0  0  0  0  0  0  0  0  0  0
   26.2310   -9.2617  -16.6380 C   0  0  0  0  0  0  0  0  0  0  0  0
   26.3833   -9.8117  -15.2602 C   0  0  0  0  0  0  0  0  0  0  0  0
   25.8667  -11.2288  -15.2951 C   0  0  0  0  0  0  0  0  0  0  0  0
   24.8573  -11.1339  -16.4206 C   0  0  1  0  0  0  0  0  0  0  0  0
   23.5740  -10.5948  -15.9089 C   0  0  0  0  0  0  0  0  0  0  0  0
   23.1665  -11.0301  -14.8038 O   0  0  0  0  0  0  0  0  0  0  0  0
   22.7733   -9.6305  -16.5667 N   0  0  0  0  0  0  0  0  0  0  0  0
   21.6334   -8.9725  -15.9249 C   0  0  1  0  0  0  0  0  0  0  0  0
   22.0692   -8.0723  -14.8211 C   0  0  0  0  0  0  0  0  0  0  0  0
   22.8252   -6.8817  -15.3294 C   0  0  0  0  0  0  0  0  0  0  0  0
   22.9987   -5.8526  -14.3062 C   0  0  0  0  0  0  0  0  0  0  0  0
   22.3536   -6.0019  -13.2135 O   0  0  0  0  0  0  0  0  0  0  0  0
   20.9307   -8.2209  -16.9830 C   0  0  0  0  0  0  0  0  0  0  0  0
   21.4662   -8.1186  -18.2831 O   0  0  0  0  0  0  0  0  0  0  0  0
   23.7854   -4.7215  -14.3783 O   0  0  0  0  0  0  0  0  0  0  0  0
   19.8309   -7.6228  -16.8346 O   0  0  0  0  0  0  0  0  0  0  0  0
  1  2  1  0
  3  2  1  0
  4  5  1  0
  4  3  1  0
  5  6  1  1
  5  1  1  0
  6  7  2  0
  8 12  1  0
  8  6  1  0
  9  8  1  0
 10  9  1  0
 10 11  1  0
 11 12  1  0
 12 13  1  1
 13 15  1  0
 13 14  2  0
 15 16  1  0
 16 21  1  0
 16 17  1  1
 18 17  1  0
 19 20  2  0
 19 18  1  0
 21 24  2  0
 21 22  1  0
 23 19  1  0
M  END
$$$$
