PPE.pdb
     RDKit          3D

 24 25  0  0  1  0  0  0  0  0999 V2000
   28.7189  -18.6065   -5.5323 N   0  0  0  0  0  0  0  0  0  0  0  0
   28.2247  -18.7938   -4.2063 C   0  0  0  0  0  0  0  0  0  0  0  0
   27.7365  -20.1959   -4.0700 C   0  0  0  0  0  0  0  0  0  0  0  0
   27.9377  -20.8434   -5.3970 C   0  0  0  0  0  0  0  0  0  0  0  0
   28.6675  -19.8346   -6.2325 C   0  0  1  0  0  0  0  0  0  0  0  0
   28.0705  -19.7961   -7.5789 C   0  0  0  0  0  0  0  0  0  0  0  0
   27.2039  -18.8710   -7.7736 O   0  0  0  0  0  0  0  0  0  0  0  0
   28.3484  -20.6556   -8.6541 N   0  0  0  0  0  0  0  0  0  0  0  0
   29.0240  -21.9127   -8.5712 C   0  0  0  0  0  0  0  0  0  0  0  0
   29.4739  -22.1985   -9.9640 C   0  0  0  0  0  0  0  0  0  0  0  0
   29.1715  -20.9677  -10.7827 C   0  0  0  0  0  0  0  0  0  0  0  0
   27.9920  -20.4027  -10.0182 C   0  0  1  0  0  0  0  0  0  0  0  0
   26.7423  -21.0837  -10.4353 C   0  0  0  0  0  0  0  0  0  0  0  0
   26.4602  -22.1677   -9.8676 O   0  0  0  0  0  0  0  0  0  0  0  0
   25.8441  -20.6095  -11.4212 N   0  0  0  0  0  0  0  0  0  0  0  0
   24.5432  -21.2313  -11.6763 C   0  0  1  0  0  0  0  0  0  0  0  0
   23.4697  -20.2115  -11.8391 C   0  0  0  0  0  0  0  0  0  0  0  0
   22.1467  -20.8333  -12.1710 C   0  0  0  0  0  0  0  0  0  0  0  0
   21.1042  -19.8358  -12.4039 C   0  0  0  0  0  0  0  0  0  0  0  0
   20.7781  -19.6052  -13.6176 O   0  0  0  0  0  0  0  0  0  0  0  0
   24.6978  -22.0455  -12.8974 C   0  0  0  0  0  0  0  0  0  0  0  0
   23.7943  -23.0843  -13.2005 O   0  0  0  0  0  0  0  0  0  0  0  0
   20.4199  -19.1004  -11.4582 O   0  0  0  0  0  0  0  0  0  0  0  0
   25.6130  -21.8985  -13.7520 O   0  0  0  0  0  0  0  0  0  0  0  0
  1  2  1  0
  3  2  1  0
  4  5  1  0
  4  3  1  0
  5  6  1  6
  5  1  1  0
  6  7  2  0
  8 12  1  0
  8  6  1  0
  9  8  1  0
 10  9  1  0
 10 11  1  0
 11 12  1  0
 12 13  1  6
 13 15  1  0
 13 14  2  0
 15 16  1  0
 16 21  1  0
 16 17  1  6
 18 17  1  0
 19 20  2  0
 19 18  1  0
 21 24  2  0
 21 22  1  0
 23 19  1  0
M  END
$$$$
