PPE.pdb
     RDKit          3D

 24 25  0  0  1  0  0  0  0  0999 V2000
   19.0592  -12.9051  -17.3324 N   0  0  0  0  0  0  0  0  0  0  0  0
   18.4144  -12.7009  -18.5894 C   0  0  0  0  0  0  0  0  0  0  0  0
   19.3259  -11.9216  -19.4751 C   0  0  0  0  0  0  0  0  0  0  0  0
   20.5520  -11.6407  -18.6760 C   0  0  0  0  0  0  0  0  0  0  0  0
   20.3741  -12.3862  -17.3872 C   0  0  1  0  0  0  0  0  0  0  0  0
   20.7844  -11.5228  -16.2661 C   0  0  0  0  0  0  0  0  0  0  0  0
   19.8415  -11.1500  -15.4810 O   0  0  0  0  0  0  0  0  0  0  0  0
   22.0822  -11.0726  -15.9742 N   0  0  0  0  0  0  0  0  0  0  0  0
   23.2646  -11.3806  -16.7162 C   0  0  0  0  0  0  0  0  0  0  0  0
   24.3902  -11.0794  -15.7854 C   0  0  0  0  0  0  0  0  0  0  0  0
   23.7760  -10.7599  -14.4449 C   0  0  0  0  0  0  0  0  0  0  0  0
   22.4261  -10.2227  -14.8735 C   0  0  1  0  0  0  0  0  0  0  0  0
   22.5435   -8.7928  -15.2492 C   0  0  0  0  0  0  0  0  0  0  0  0
   22.9355   -8.5338  -16.4137 O   0  0  0  0  0  0  0  0  0  0  0  0
   22.2497   -7.6990  -14.4003 N   0  0  0  0  0  0  0  0  0  0  0  0
   22.1221   -6.3248  -14.8898 C   0  0  1  0  0  0  0  0  0  0  0  0
   20.8575   -6.1286  -15.6519 C   0  0  0  0  0  0  0  0  0  0  0  0
   19.6456   -6.4113  -14.8161 C   0  0  0  0  0  0  0  0  0  0  0  0
   18.4023   -6.2764  -15.5726 C   0  0  0  0  0  0  0  0  0  0  0  0
   17.5362   -7.2067  -15.4422 O   0  0  0  0  0  0  0  0  0  0  0  0
   22.1736   -5.4487  -13.7032 C   0  0  0  0  0  0  0  0  0  0  0  0
   22.3464   -4.0556  -13.8324 O   0  0  0  0  0  0  0  0  0  0  0  0
   18.0452   -5.2516  -16.4246 O   0  0  0  0  0  0  0  0  0  0  0  0
   22.0724   -5.8428  -12.5100 O   0  0  0  0  0  0  0  0  0  0  0  0
  1  2  1  0
  3  2  1  0
  4  5  1  0
  4  3  1  0
  5  6  1  1
  5  1  1  0
  6  7  2  0
  8 12  1  0
  8  6  1  0
  9  8  1  0
 10  9  1  0
 10 11  1  0
 11 12  1  0
 12 13  1  6
 13 15  1  0
 13 14  2  0
 15 16  1  0
 16 21  1  0
 16 17  1  1
 18 17  1  0
 19 20  2  0
 19 18  1  0
 21 24  2  0
 21 22  1  0
 23 19  1  0
M  END
$$$$
