PPE.pdb
     RDKit          3D

 24 25  0  0  1  0  0  0  0  0999 V2000
   18.0514  -14.8020  -15.8603 N   0  0  0  0  0  0  0  0  0  0  0  0
   16.7656  -15.1963  -15.3819 C   0  0  0  0  0  0  0  0  0  0  0  0
   15.7465  -14.2406  -15.9024 C   0  0  0  0  0  0  0  0  0  0  0  0
   16.4892  -13.2270  -16.7035 C   0  0  0  0  0  0  0  0  0  0  0  0
   17.9107  -13.7027  -16.7393 C   0  0  1  0  0  0  0  0  0  0  0  0
   18.8112  -12.5597  -16.5077 C   0  0  0  0  0  0  0  0  0  0  0  0
   19.5103  -12.6150  -15.4340 O   0  0  0  0  0  0  0  0  0  0  0  0
   18.9792  -11.4332  -17.3291 N   0  0  0  0  0  0  0  0  0  0  0  0
   18.2642  -11.1601  -18.5364 C   0  0  0  0  0  0  0  0  0  0  0  0
   19.0923  -10.1466  -19.2512 C   0  0  0  0  0  0  0  0  0  0  0  0
   20.3764  -10.0026  -18.4723 C   0  0  0  0  0  0  0  0  0  0  0  0
   19.9048  -10.3686  -17.0800 C   0  0  1  0  0  0  0  0  0  0  0  0
   19.2840   -9.1906  -16.4271 C   0  0  0  0  0  0  0  0  0  0  0  0
   18.0327   -9.0975  -16.4770 O   0  0  0  0  0  0  0  0  0  0  0  0
   19.9892   -8.1645  -15.7537 N   0  0  0  0  0  0  0  0  0  0  0  0
   19.3355   -7.2030  -14.8636 C   0  0  1  0  0  0  0  0  0  0  0  0
   20.3067   -6.5761  -13.9242 C   0  0  0  0  0  0  0  0  0  0  0  0
   21.2580   -5.6556  -14.6277 C   0  0  0  0  0  0  0  0  0  0  0  0
   22.1780   -4.9929  -13.7053 C   0  0  0  0  0  0  0  0  0  0  0  0
   22.0167   -5.2186  -12.4581 O   0  0  0  0  0  0  0  0  0  0  0  0
   18.6999   -6.1916  -15.7303 C   0  0  0  0  0  0  0  0  0  0  0  0
   17.7227   -5.3094  -15.2260 O   0  0  0  0  0  0  0  0  0  0  0  0
   23.2142   -4.1390  -14.0223 O   0  0  0  0  0  0  0  0  0  0  0  0
   18.9571   -6.0245  -16.9532 O   0  0  0  0  0  0  0  0  0  0  0  0
  1  2  1  0
  3  2  1  0
  4  5  1  0
  4  3  1  0
  5  6  1  1
  5  1  1  0
  6  7  2  0
  8 12  1  0
  8  6  1  0
  9  8  1  0
 10  9  1  0
 10 11  1  0
 11 12  1  0
 12 13  1  6
 13 15  1  0
 13 14  2  0
 15 16  1  0
 16 21  1  0
 16 17  1  1
 18 17  1  0
 19 20  2  0
 19 18  1  0
 21 24  2  0
 21 22  1  0
 23 19  1  0
M  END
$$$$
