PPE.pdb
     RDKit          3D

 24 25  0  0  1  0  0  0  0  0999 V2000
   18.9860  -12.3047  -17.7436 N   0  0  0  0  0  0  0  0  0  0  0  0
   18.4385  -12.0902  -19.0443 C   0  0  0  0  0  0  0  0  0  0  0  0
   19.4109  -11.2971  -19.8493 C   0  0  0  0  0  0  0  0  0  0  0  0
   20.5704  -11.0187  -18.9554 C   0  0  0  0  0  0  0  0  0  0  0  0
   20.2983  -11.7789  -17.6918 C   0  0  1  0  0  0  0  0  0  0  0  0
   20.6165  -10.9255  -16.5337 C   0  0  0  0  0  0  0  0  0  0  0  0
   19.6146  -10.5707  -15.8161 O   0  0  0  0  0  0  0  0  0  0  0  0
   21.8847  -10.4674  -16.1416 N   0  0  0  0  0  0  0  0  0  0  0  0
   23.1258  -10.7877  -16.7744 C   0  0  0  0  0  0  0  0  0  0  0  0
   24.1684  -10.4664  -15.7577 C   0  0  0  0  0  0  0  0  0  0  0  0
   23.4427  -10.1218  -14.4806 C   0  0  0  0  0  0  0  0  0  0  0  0
   22.1339   -9.5955  -15.0327 C   0  0  1  0  0  0  0  0  0  0  0  0
   22.2826   -8.1731  -15.4250 C   0  0  0  0  0  0  0  0  0  0  0  0
   22.1755   -7.8983  -16.6456 O   0  0  0  0  0  0  0  0  0  0  0  0
   22.5358   -7.1027  -14.5341 N   0  0  0  0  0  0  0  0  0  0  0  0
   21.8890   -5.7949  -14.6588 C   0  0  1  0  0  0  0  0  0  0  0  0
   20.4109   -5.8965  -14.5050 C   0  0  0  0  0  0  0  0  0  0  0  0
   19.6904   -5.6337  -15.7931 C   0  0  0  0  0  0  0  0  0  0  0  0
   18.4957   -6.4621  -15.9431 C   0  0  0  0  0  0  0  0  0  0  0  0
   17.4186   -6.0355  -15.4043 O   0  0  0  0  0  0  0  0  0  0  0  0
   22.4778   -4.9328  -13.6155 C   0  0  0  0  0  0  0  0  0  0  0  0
   22.9274   -5.4713  -12.3927 O   0  0  0  0  0  0  0  0  0  0  0  0
   18.3882   -7.6681  -16.6047 O   0  0  0  0  0  0  0  0  0  0  0  0
   22.6298   -3.6849  -13.7112 O   0  0  0  0  0  0  0  0  0  0  0  0
  1  2  1  0
  3  2  1  0
  4  5  1  0
  4  3  1  0
  5  6  1  1
  5  1  1  0
  6  7  2  0
  8 12  1  0
  8  6  1  0
  9  8  1  0
 10  9  1  0
 10 11  1  0
 11 12  1  0
 12 13  1  6
 13 15  1  0
 13 14  2  0
 15 16  1  0
 16 21  1  0
 16 17  1  1
 18 17  1  0
 19 20  2  0
 19 18  1  0
 21 24  2  0
 21 22  1  0
 23 19  1  0
M  END
$$$$
