PPE.pdb
     RDKit          3D

 24 25  0  0  1  0  0  0  0  0999 V2000
   21.4124  -21.4372  -14.1676 N   0  0  0  0  0  0  0  0  0  0  0  0
   20.5618  -20.6662  -15.0160 C   0  0  0  0  0  0  0  0  0  0  0  0
   20.0789  -19.4768  -14.2580 C   0  0  0  0  0  0  0  0  0  0  0  0
   20.6635  -19.5819  -12.8912 C   0  0  0  0  0  0  0  0  0  0  0  0
   21.5850  -20.7639  -12.9356 C   0  0  1  0  0  0  0  0  0  0  0  0
   21.3989  -21.5707  -11.7169 C   0  0  0  0  0  0  0  0  0  0  0  0
   20.9937  -22.7727  -11.9057 O   0  0  0  0  0  0  0  0  0  0  0  0
   21.6157  -21.1644  -10.3903 N   0  0  0  0  0  0  0  0  0  0  0  0
   21.9884  -19.8517   -9.9643 C   0  0  0  0  0  0  0  0  0  0  0  0
   22.5350  -20.0359   -8.5891 C   0  0  0  0  0  0  0  0  0  0  0  0
   22.6093  -21.5227   -8.3433 C   0  0  0  0  0  0  0  0  0  0  0  0
   21.4941  -22.0138   -9.2432 C   0  0  1  0  0  0  0  0  0  0  0  0
   20.1884  -21.8848   -8.5519 C   0  0  0  0  0  0  0  0  0  0  0  0
   19.4184  -20.9725   -8.9413 O   0  0  0  0  0  0  0  0  0  0  0  0
   19.7424  -22.7070   -7.4895 N   0  0  0  0  0  0  0  0  0  0  0  0
   18.4988  -23.4778   -7.5490 C   0  0  1  0  0  0  0  0  0  0  0  0
   18.4471  -24.3439   -8.7597 C   0  0  0  0  0  0  0  0  0  0  0  0
   17.4483  -23.8515   -9.7633 C   0  0  0  0  0  0  0  0  0  0  0  0
   17.3548  -24.7245  -10.9318 C   0  0  0  0  0  0  0  0  0  0  0  0
   16.5303  -24.3869  -11.8476 O   0  0  0  0  0  0  0  0  0  0  0  0
   18.4422  -24.2817   -6.3126 C   0  0  0  0  0  0  0  0  0  0  0  0
   17.2242  -24.4919   -5.6346 O   0  0  0  0  0  0  0  0  0  0  0  0
   18.0583  -25.8873  -11.1692 O   0  0  0  0  0  0  0  0  0  0  0  0
   19.4340  -24.8352   -5.7654 O   0  0  0  0  0  0  0  0  0  0  0  0
  1  2  1  0
  3  2  1  0
  4  5  1  0
  4  3  1  0
  5  6  1  1
  5  1  1  0
  6  7  2  0
  8 12  1  0
  8  6  1  0
  9  8  1  0
 10  9  1  0
 10 11  1  0
 11 12  1  0
 12 13  1  1
 13 15  1  0
 13 14  2  0
 15 16  1  0
 16 21  1  0
 16 17  1  6
 18 17  1  0
 19 20  2  0
 19 18  1  0
 21 24  2  0
 21 22  1  0
 23 19  1  0
M  END
$$$$
