PPE.pdb
     RDKit          3D

 24 25  0  0  1  0  0  0  0  0999 V2000
   19.7939  -12.0847  -16.4712 N   0  0  0  0  0  0  0  0  0  0  0  0
   18.8143  -12.3350  -17.4790 C   0  0  0  0  0  0  0  0  0  0  0  0
   19.1361  -11.5075  -18.6766 C   0  0  0  0  0  0  0  0  0  0  0  0
   20.3527  -10.7197  -18.3304 C   0  0  0  0  0  0  0  0  0  0  0  0
   20.7858  -11.2158  -16.9833 C   0  0  1  0  0  0  0  0  0  0  0  0
   21.1498  -10.0664  -16.1365 C   0  0  0  0  0  0  0  0  0  0  0  0
   20.3612   -9.8324  -15.1527 O   0  0  0  0  0  0  0  0  0  0  0  0
   22.2543   -9.2137  -16.2943 N   0  0  0  0  0  0  0  0  0  0  0  0
   23.2208   -9.2773  -17.3457 C   0  0  0  0  0  0  0  0  0  0  0  0
   24.3939   -8.5115  -16.8344 C   0  0  0  0  0  0  0  0  0  0  0  0
   24.1012   -8.1728  -15.3936 C   0  0  0  0  0  0  0  0  0  0  0  0
   22.5870   -8.1330  -15.4149 C   0  0  1  0  0  0  0  0  0  0  0  0
   22.1196   -6.8128  -15.9028 C   0  0  0  0  0  0  0  0  0  0  0  0
   21.6506   -6.7622  -17.0665 O   0  0  0  0  0  0  0  0  0  0  0  0
   22.1607   -5.6074  -15.1619 N   0  0  0  0  0  0  0  0  0  0  0  0
   21.2259   -4.5032  -15.3880 C   0  0  1  0  0  0  0  0  0  0  0  0
   19.8123   -4.9333  -15.1999 C   0  0  0  0  0  0  0  0  0  0  0  0
   18.8580   -3.7791  -15.2665 C   0  0  0  0  0  0  0  0  0  0  0  0
   17.5029   -4.1955  -15.6222 C   0  0  0  0  0  0  0  0  0  0  0  0
   17.0783   -5.2907  -15.1192 O   0  0  0  0  0  0  0  0  0  0  0  0
   21.5932   -3.4386  -14.4341 C   0  0  0  0  0  0  0  0  0  0  0  0
   21.3546   -2.0810  -14.7292 O   0  0  0  0  0  0  0  0  0  0  0  0
   16.6133   -3.5407  -16.4488 O   0  0  0  0  0  0  0  0  0  0  0  0
   22.1327   -3.6305  -13.3109 O   0  0  0  0  0  0  0  0  0  0  0  0
  1  2  1  0
  3  2  1  0
  4  5  1  0
  4  3  1  0
  5  6  1  1
  5  1  1  0
  6  7  2  0
  8 12  1  0
  8  6  1  0
  9  8  1  0
 10  9  1  0
 10 11  1  0
 11 12  1  0
 12 13  1  6
 13 15  1  0
 13 14  2  0
 15 16  1  0
 16 21  1  0
 16 17  1  1
 18 17  1  0
 19 20  2  0
 19 18  1  0
 21 24  2  0
 21 22  1  0
 23 19  1  0
M  END
$$$$
