PPE.pdb
     RDKit          3D

 24 25  0  0  1  0  0  0  0  0999 V2000
   27.6995  -19.7698  -16.4272 N   0  0  0  0  0  0  0  0  0  0  0  0
   27.8752  -18.4698  -16.9901 C   0  0  0  0  0  0  0  0  0  0  0  0
   27.6963  -17.4532  -15.9144 C   0  0  0  0  0  0  0  0  0  0  0  0
   27.3759  -18.2079  -14.6699 C   0  0  0  0  0  0  0  0  0  0  0  0
   27.5131  -19.6571  -15.0295 C   0  0  1  0  0  0  0  0  0  0  0  0
   26.3823  -20.4085  -14.4571 C   0  0  0  0  0  0  0  0  0  0  0  0
   25.6299  -21.0073  -15.3056 O   0  0  0  0  0  0  0  0  0  0  0  0
   26.0489  -20.5338  -13.0988 N   0  0  0  0  0  0  0  0  0  0  0  0
   26.7734  -19.9736  -12.0012 C   0  0  0  0  0  0  0  0  0  0  0  0
   26.3192  -20.7452  -10.8086 C   0  0  0  0  0  0  0  0  0  0  0  0
   25.4477  -21.8662  -11.3186 C   0  0  0  0  0  0  0  0  0  0  0  0
   24.9152  -21.2510  -12.5964 C   0  0  1  0  0  0  0  0  0  0  0  0
   23.7539  -20.3790  -12.2957 C   0  0  0  0  0  0  0  0  0  0  0  0
   23.9971  -19.2080  -11.9129 O   0  0  0  0  0  0  0  0  0  0  0  0
   22.3956  -20.7617  -12.4055 N   0  0  0  0  0  0  0  0  0  0  0  0
   21.4396  -20.0615  -13.2657 C   0  0  1  0  0  0  0  0  0  0  0  0
   21.9134  -19.9996  -14.6765 C   0  0  0  0  0  0  0  0  0  0  0  0
   20.8821  -19.4127  -15.5927 C   0  0  0  0  0  0  0  0  0  0  0  0
   21.0931  -19.7945  -16.9876 C   0  0  0  0  0  0  0  0  0  0  0  0
   21.7514  -18.9818  -17.7216 O   0  0  0  0  0  0  0  0  0  0  0  0
   20.1633  -20.7952  -13.1613 C   0  0  0  0  0  0  0  0  0  0  0  0
   18.9622  -20.1278  -12.8463 O   0  0  0  0  0  0  0  0  0  0  0  0
   20.6600  -20.9426  -17.6184 O   0  0  0  0  0  0  0  0  0  0  0  0
   20.0279  -22.0365  -13.3358 O   0  0  0  0  0  0  0  0  0  0  0  0
  1  2  1  0
  3  2  1  0
  4  5  1  0
  4  3  1  0
  5  6  1  6
  5  1  1  0
  6  7  2  0
  8 12  1  0
  8  6  1  0
  9  8  1  0
 10  9  1  0
 10 11  1  0
 11 12  1  0
 12 13  1  1
 13 15  1  0
 13 14  2  0
 15 16  1  0
 16 21  1  0
 16 17  1  6
 18 17  1  0
 19 20  2  0
 19 18  1  0
 21 24  2  0
 21 22  1  0
 23 19  1  0
M  END
$$$$
