PPE.pdb
     RDKit          3D

 24 25  0  0  1  0  0  0  0  0999 V2000
   19.6159  -12.6511  -18.0013 N   0  0  0  0  0  0  0  0  0  0  0  0
   19.1090  -12.4164  -19.3149 C   0  0  0  0  0  0  0  0  0  0  0  0
   20.0114  -11.4567  -20.0130 C   0  0  0  0  0  0  0  0  0  0  0  0
   21.0822  -11.1006  -19.0396 C   0  0  0  0  0  0  0  0  0  0  0  0
   20.8475  -11.9734  -17.8432 C   0  0  1  0  0  0  0  0  0  0  0  0
   20.9996  -11.1692  -16.6181 C   0  0  0  0  0  0  0  0  0  0  0  0
   19.9157  -10.9280  -15.9765 O   0  0  0  0  0  0  0  0  0  0  0  0
   22.1913  -10.6471  -16.0896 N   0  0  0  0  0  0  0  0  0  0  0  0
   23.4990  -10.8136  -16.6426 C   0  0  0  0  0  0  0  0  0  0  0  0
   24.4316  -10.4982  -15.5225 C   0  0  0  0  0  0  0  0  0  0  0  0
   23.5859  -10.3215  -14.2855 C   0  0  0  0  0  0  0  0  0  0  0  0
   22.2817   -9.8554  -14.8993 C   0  0  1  0  0  0  0  0  0  0  0  0
   22.3373   -8.3975  -15.1657 C   0  0  0  0  0  0  0  0  0  0  0  0
   22.8478   -8.0299  -16.2524 O   0  0  0  0  0  0  0  0  0  0  0  0
   21.8616   -7.3895  -14.2932 N   0  0  0  0  0  0  0  0  0  0  0  0
   21.5982   -6.0176  -14.7323 C   0  0  1  0  0  0  0  0  0  0  0  0
   20.1398   -5.7649  -14.8987 C   0  0  0  0  0  0  0  0  0  0  0  0
   19.8570   -4.3581  -15.3326 C   0  0  0  0  0  0  0  0  0  0  0  0
   18.4333   -4.1206  -15.5624 C   0  0  0  0  0  0  0  0  0  0  0  0
   18.0738   -2.9182  -15.8023 O   0  0  0  0  0  0  0  0  0  0  0  0
   22.1824   -5.1286  -13.7092 C   0  0  0  0  0  0  0  0  0  0  0  0
   22.4618   -5.5975  -12.4094 O   0  0  0  0  0  0  0  0  0  0  0  0
   17.4145   -5.0509  -15.5501 O   0  0  0  0  0  0  0  0  0  0  0  0
   22.4759   -3.9158  -13.8893 O   0  0  0  0  0  0  0  0  0  0  0  0
  1  2  1  0
  3  2  1  0
  4  5  1  0
  4  3  1  0
  5  6  1  1
  5  1  1  0
  6  7  2  0
  8 12  1  0
  8  6  1  0
  9  8  1  0
 10  9  1  0
 10 11  1  0
 11 12  1  0
 12 13  1  6
 13 15  1  0
 13 14  2  0
 15 16  1  0
 16 21  1  0
 16 17  1  1
 18 17  1  0
 19 20  2  0
 19 18  1  0
 21 24  2  0
 21 22  1  0
 23 19  1  0
M  END
$$$$
