PPE.pdb
     RDKit          3D

 24 25  0  0  1  0  0  0  0  0999 V2000
   19.3689  -14.1330  -17.5584 N   0  0  0  0  0  0  0  0  0  0  0  0
   19.6070  -15.0897  -16.5260 C   0  0  0  0  0  0  0  0  0  0  0  0
   18.7161  -14.7810  -15.3712 C   0  0  0  0  0  0  0  0  0  0  0  0
   17.9407  -13.5659  -15.7498 C   0  0  0  0  0  0  0  0  0  0  0  0
   18.3062  -13.2813  -17.1759 C   0  0  1  0  0  0  0  0  0  0  0  0
   18.5350  -11.8351  -17.3392 C   0  0  0  0  0  0  0  0  0  0  0  0
   19.7612  -11.4791  -17.4595 O   0  0  0  0  0  0  0  0  0  0  0  0
   17.5632  -10.8221  -17.3754 N   0  0  0  0  0  0  0  0  0  0  0  0
   16.1642  -10.9916  -17.1356 C   0  0  0  0  0  0  0  0  0  0  0  0
   15.5244   -9.7826  -17.7296 C   0  0  0  0  0  0  0  0  0  0  0  0
   16.6083   -9.0272  -18.4582 C   0  0  0  0  0  0  0  0  0  0  0  0
   17.8273   -9.4434  -17.6609 C   0  0  1  0  0  0  0  0  0  0  0  0
   17.9504   -8.6042  -16.4444 C   0  0  0  0  0  0  0  0  0  0  0  0
   17.3452   -8.9910  -15.4144 O   0  0  0  0  0  0  0  0  0  0  0  0
   18.6945   -7.4035  -16.3527 N   0  0  0  0  0  0  0  0  0  0  0  0
   19.0207   -6.7661  -15.0754 C   0  0  1  0  0  0  0  0  0  0  0  0
   20.4461   -6.3370  -15.0241 C   0  0  0  0  0  0  0  0  0  0  0  0
   20.7682   -5.6003  -13.7589 C   0  0  0  0  0  0  0  0  0  0  0  0
   22.1597   -5.1559  -13.7110 C   0  0  0  0  0  0  0  0  0  0  0  0
   23.0042   -5.8057  -14.4160 O   0  0  0  0  0  0  0  0  0  0  0  0
   18.1092   -5.6139  -14.9350 C   0  0  0  0  0  0  0  0  0  0  0  0
   17.3832   -5.1198  -16.0377 O   0  0  0  0  0  0  0  0  0  0  0  0
   22.6806   -4.1049  -12.9847 O   0  0  0  0  0  0  0  0  0  0  0  0
   17.8996   -4.9858  -13.8620 O   0  0  0  0  0  0  0  0  0  0  0  0
  1  2  1  0
  3  2  1  0
  4  5  1  0
  4  3  1  0
  5  6  1  1
  5  1  1  0
  6  7  2  0
  8 12  1  0
  8  6  1  0
  9  8  1  0
 10  9  1  0
 10 11  1  0
 11 12  1  0
 12 13  1  1
 13 15  1  0
 13 14  2  0
 15 16  1  0
 16 21  1  0
 16 17  1  6
 18 17  1  0
 19 20  2  0
 19 18  1  0
 21 24  2  0
 21 22  1  0
 23 19  1  0
M  END
$$$$
