HLF.pdb
     RDKit          3D

 30 31  0  0  1  0  0  0  0  0999 V2000
   13.1873  -14.4559   18.0089 N   0  0  0  0  0  0  0  0  0  0  0  0
   13.1864  -15.1328   19.2715 C   0  0  1  0  0  0  0  0  0  0  0  0
   14.5115  -14.9631   20.0047 C   0  0  0  0  0  0  0  0  0  0  0  0
   15.5570  -15.6222   19.1949 C   0  0  0  0  0  0  0  0  0  0  0  0
   16.5722  -15.0015   18.5221 C   0  0  0  0  0  0  0  0  0  0  0  0
   17.3001  -15.9676   17.9124 N   0  0  0  0  0  0  0  0  0  0  0  0
   16.7527  -17.1579   18.1981 C   0  0  0  0  0  0  0  0  0  0  0  0
   15.6743  -16.9357   18.9924 N   0  0  0  0  0  0  0  0  0  0  0  0
   12.0834  -14.6091   20.0986 C   0  0  0  0  0  0  0  0  0  0  0  0
   11.9781  -13.3812   20.2809 O   0  0  0  0  0  0  0  0  0  0  0  0
    6.2717  -14.8365   20.4247 C   0  0  0  0  0  0  0  0  0  0  0  0
    7.5286  -14.6018   21.2837 C   0  0  2  0  0  0  0  0  0  0  0  0
    7.5307  -13.1095   21.5576 C   0  0  0  0  0  0  0  0  0  0  0  0
    8.7300  -15.0893   20.5310 C   0  0  0  0  0  0  0  0  0  0  0  0
    9.9771  -14.9962   21.3105 C   0  0  2  0  0  0  0  0  0  0  0  0
   11.1556  -15.4905   20.6789 N   0  0  0  0  0  0  0  0  0  0  0  0
    9.8619  -15.7109   22.6428 C   0  0  0  0  0  0  0  0  0  0  0  0
   10.1164  -16.9312   22.7555 O   0  0  0  0  0  0  0  0  0  0  0  0
    9.4604  -15.0094   23.8063 N   0  0  0  0  0  0  0  0  0  0  0  0
    9.7175  -15.4667   25.1709 C   0  0  1  0  0  0  0  0  0  0  0  0
    9.6919  -14.3051   26.1001 C   0  0  0  0  0  0  0  0  0  0  0  0
    8.4379  -13.5791   26.2181 C   0  0  0  0  0  0  0  0  0  0  0  0
    8.0296  -13.0632   27.4392 C   0  0  0  0  0  0  0  0  0  0  0  0
    6.8159  -12.3698   27.5170 C   0  0  0  0  0  0  0  0  0  0  0  0
    6.0076  -12.1817   26.4151 C   0  0  0  0  0  0  0  0  0  0  0  0
    6.4127  -12.6971   25.1895 C   0  0  0  0  0  0  0  0  0  0  0  0
    7.6168  -13.3778   25.1408 C   0  0  0  0  0  0  0  0  0  0  0  0
    8.7354  -16.4973   25.5786 C   0  0  0  0  0  0  0  0  0  0  0  0
    7.6980  -16.7262   24.9222 O   0  0  0  0  0  0  0  0  0  0  0  0
    9.0053  -17.2159   26.7346 O   0  0  0  0  0  0  0  0  0  0  0  0
  2  1  1  6
  2  9  1  0
  2  3  1  0
  3  4  1  0
  4  8  1  0
  4  5  2  0
  5  6  1  0
  7  6  1  0
  8  7  2  0
  9 10  2  0
 12 11  1  6
 12 13  1  0
 12 14  1  0
 15 14  1  6
 16 15  1  0
 16  9  1  0
 17 15  1  0
 17 18  2  0
 19 17  1  0
 20 19  1  0
 20 28  1  0
 20 21  1  1
 22 21  1  0
 23 22  2  0
 24 23  1  0
 25 24  2  0
 25 26  1  0
 26 27  2  0
 27 22  1  0
 28 30  1  0
 29 28  2  0
M  END
$$$$
