HLF.pdb
     RDKit          3D

 30 31  0  0  1  0  0  0  0  0999 V2000
    9.8570  -17.0258   19.6874 N   0  0  0  0  0  0  0  0  0  0  0  0
    9.0628  -17.3524   20.8341 C   0  0  1  0  0  0  0  0  0  0  0  0
    9.4426  -18.7080   21.4173 C   0  0  0  0  0  0  0  0  0  0  0  0
    8.8556  -19.7482   20.5474 C   0  0  0  0  0  0  0  0  0  0  0  0
    7.7941  -19.5916   19.7004 C   0  0  0  0  0  0  0  0  0  0  0  0
    7.5830  -20.7853   19.0957 N   0  0  0  0  0  0  0  0  0  0  0  0
    8.4888  -21.6614   19.5540 C   0  0  0  0  0  0  0  0  0  0  0  0
    9.2730  -21.0118   20.4521 N   0  0  0  0  0  0  0  0  0  0  0  0
    9.2330  -16.3007   21.8538 C   0  0  0  0  0  0  0  0  0  0  0  0
   10.3149  -15.6880   21.9338 O   0  0  0  0  0  0  0  0  0  0  0  0
    6.1072  -13.3504   26.3509 C   0  0  0  0  0  0  0  0  0  0  0  0
    7.3848  -13.5608   25.5166 C   0  0  2  0  0  0  0  0  0  0  0  0
    7.6402  -12.2153   24.8636 C   0  0  0  0  0  0  0  0  0  0  0  0
    7.1532  -14.6798   24.5462 C   0  0  0  0  0  0  0  0  0  0  0  0
    8.3555  -15.0284   23.7686 C   0  0  2  0  0  0  0  0  0  0  0  0
    8.1805  -15.9909   22.7317 N   0  0  0  0  0  0  0  0  0  0  0  0
    9.4711  -15.5413   24.6581 C   0  0  0  0  0  0  0  0  0  0  0  0
   10.5079  -14.8701   24.8612 O   0  0  0  0  0  0  0  0  0  0  0  0
    9.3680  -16.8052   25.2897 N   0  0  0  0  0  0  0  0  0  0  0  0
   10.3380  -17.3239   26.2527 C   0  0  1  0  0  0  0  0  0  0  0  0
    9.7734  -17.2371   27.6265 C   0  0  0  0  0  0  0  0  0  0  0  0
    9.6057  -15.9078   28.1906 C   0  0  0  0  0  0  0  0  0  0  0  0
    8.4451  -15.1827   27.9642 C   0  0  0  0  0  0  0  0  0  0  0  0
    8.3172  -13.9052   28.5224 C   0  0  0  0  0  0  0  0  0  0  0  0
    9.3115  -13.3396   29.2932 C   0  0  0  0  0  0  0  0  0  0  0  0
   10.4763  -14.0624   29.5226 C   0  0  0  0  0  0  0  0  0  0  0  0
   10.5763  -15.3227   28.9594 C   0  0  0  0  0  0  0  0  0  0  0  0
   10.7225  -18.7149   25.9212 C   0  0  0  0  0  0  0  0  0  0  0  0
   10.2275  -19.3309   24.9542 O   0  0  0  0  0  0  0  0  0  0  0  0
   11.6670  -19.3278   26.7322 O   0  0  0  0  0  0  0  0  0  0  0  0
  2  1  1  6
  2  9  1  0
  2  3  1  0
  3  4  1  0
  4  8  1  0
  4  5  2  0
  5  6  1  0
  7  6  1  0
  8  7  2  0
  9 10  2  0
 12 11  1  1
 12 13  1  0
 12 14  1  0
 15 14  1  1
 16 15  1  0
 16  9  1  0
 17 15  1  0
 17 18  2  0
 19 17  1  0
 20 19  1  0
 20 28  1  0
 20 21  1  1
 22 21  1  0
 23 22  2  0
 24 23  1  0
 25 24  2  0
 25 26  1  0
 26 27  2  0
 27 22  1  0
 28 30  1  0
 29 28  2  0
M  END
$$$$
