HLF.pdb
     RDKit          3D

 30 31  0  0  1  0  0  0  0  0999 V2000
    7.2544  -20.8171   21.7100 N   0  0  0  0  0  0  0  0  0  0  0  0
    6.7333  -19.6707   22.3929 C   0  0  1  0  0  0  0  0  0  0  0  0
    6.8199  -19.8264   23.9063 C   0  0  0  0  0  0  0  0  0  0  0  0
    5.8682  -20.8856   24.3009 C   0  0  0  0  0  0  0  0  0  0  0  0
    5.0512  -21.5934   23.4642 C   0  0  0  0  0  0  0  0  0  0  0  0
    4.3454  -22.4599   24.2297 N   0  0  0  0  0  0  0  0  0  0  0  0
    4.7133  -22.2958   25.5087 C   0  0  0  0  0  0  0  0  0  0  0  0
    5.6563  -21.3198   25.5446 N   0  0  0  0  0  0  0  0  0  0  0  0
    7.4825  -18.4739   21.9669 C   0  0  0  0  0  0  0  0  0  0  0  0
    8.6449  -18.5950   21.5350 O   0  0  0  0  0  0  0  0  0  0  0  0
    8.9436  -14.0722   20.5567 C   0  0  0  0  0  0  0  0  0  0  0  0
    7.4300  -13.7874   20.5332 C   0  0  2  0  0  0  0  0  0  0  0  0
    7.2932  -12.4005   21.1330 C   0  0  0  0  0  0  0  0  0  0  0  0
    6.7211  -14.8614   21.3023 C   0  0  0  0  0  0  0  0  0  0  0  0
    7.5569  -16.0525   21.5355 C   0  0  2  0  0  0  0  0  0  0  0  0
    6.8890  -17.2029   22.0478 N   0  0  0  0  0  0  0  0  0  0  0  0
    8.7059  -15.7568   22.4797 C   0  0  0  0  0  0  0  0  0  0  0  0
    9.7262  -15.1412   22.0970 O   0  0  0  0  0  0  0  0  0  0  0  0
    8.6538  -16.1726   23.8330 N   0  0  0  0  0  0  0  0  0  0  0  0
    9.6223  -15.7734   24.8529 C   0  0  1  0  0  0  0  0  0  0  0  0
    9.6615  -14.2894   24.9507 C   0  0  0  0  0  0  0  0  0  0  0  0
    8.5358  -13.6387   25.6009 C   0  0  0  0  0  0  0  0  0  0  0  0
    8.6423  -13.1708   26.9023 C   0  0  0  0  0  0  0  0  0  0  0  0
    7.5382  -12.5496   27.4980 C   0  0  0  0  0  0  0  0  0  0  0  0
    6.3414  -12.3867   26.8317 C   0  0  0  0  0  0  0  0  0  0  0  0
    6.2301  -12.8541   25.5276 C   0  0  0  0  0  0  0  0  0  0  0  0
    7.3368  -13.4638   24.9628 C   0  0  0  0  0  0  0  0  0  0  0  0
    9.2972  -16.3856   26.1614 C   0  0  0  0  0  0  0  0  0  0  0  0
    9.9835  -16.1775   27.1836 O   0  0  0  0  0  0  0  0  0  0  0  0
    8.1860  -17.2146   26.2210 O   0  0  0  0  0  0  0  0  0  0  0  0
  2  1  1  6
  2  9  1  0
  2  3  1  0
  3  4  1  0
  4  8  1  0
  4  5  2  0
  5  6  1  0
  7  6  1  0
  8  7  2  0
  9 10  2  0
 12 11  1  1
 12 13  1  0
 12 14  1  0
 15 14  1  1
 16 15  1  0
 16  9  1  0
 17 15  1  0
 17 18  2  0
 19 17  1  0
 20 19  1  0
 20 28  1  0
 20 21  1  1
 22 21  1  0
 23 22  2  0
 24 23  1  0
 25 24  2  0
 25 26  1  0
 26 27  2  0
 27 22  1  0
 28 30  1  0
 29 28  2  0
M  END
$$$$
