HLF.pdb
     RDKit          3D

 30 31  0  0  1  0  0  0  0  0999 V2000
   13.3863  -16.6750   20.3349 N   0  0  0  0  0  0  0  0  0  0  0  0
   12.3447  -17.4905   20.8848 C   0  0  1  0  0  0  0  0  0  0  0  0
   12.8978  -18.5618   21.8166 C   0  0  0  0  0  0  0  0  0  0  0  0
   13.3791  -19.6782   20.9768 C   0  0  0  0  0  0  0  0  0  0  0  0
   12.6511  -20.7642   20.5779 C   0  0  0  0  0  0  0  0  0  0  0  0
   13.4672  -21.5409   19.8257 N   0  0  0  0  0  0  0  0  0  0  0  0
   14.6710  -20.9541   19.7582 C   0  0  0  0  0  0  0  0  0  0  0  0
   14.6084  -19.8015   20.4731 N   0  0  0  0  0  0  0  0  0  0  0  0
   11.3942  -16.6310   21.6148 C   0  0  0  0  0  0  0  0  0  0  0  0
   11.8215  -15.7956   22.4343 O   0  0  0  0  0  0  0  0  0  0  0  0
    5.7984  -14.3079   21.0819 C   0  0  0  0  0  0  0  0  0  0  0  0
    7.1529  -14.4248   21.8062 C   0  0  2  0  0  0  0  0  0  0  0  0
    7.9555  -13.2371   21.3090 C   0  0  0  0  0  0  0  0  0  0  0  0
    7.7631  -15.7558   21.4844 C   0  0  0  0  0  0  0  0  0  0  0  0
    9.0813  -15.9541   22.1125 C   0  0  2  0  0  0  0  0  0  0  0  0
   10.0129  -16.7537   21.3879 N   0  0  0  0  0  0  0  0  0  0  0  0
    8.9593  -16.5677   23.4937 C   0  0  0  0  0  0  0  0  0  0  0  0
    9.4385  -17.6942   23.7546 O   0  0  0  0  0  0  0  0  0  0  0  0
    8.2942  -15.8752   24.5354 N   0  0  0  0  0  0  0  0  0  0  0  0
    8.0701  -16.4216   25.8728 C   0  0  1  0  0  0  0  0  0  0  0  0
    7.1917  -15.5035   26.6467 C   0  0  0  0  0  0  0  0  0  0  0  0
    7.5264  -14.0890   26.6214 C   0  0  0  0  0  0  0  0  0  0  0  0
    8.7313  -13.6362   27.1384 C   0  0  0  0  0  0  0  0  0  0  0  0
    9.0211  -12.2672   27.0982 C   0  0  0  0  0  0  0  0  0  0  0  0
    8.1445  -11.3482   26.5598 C   0  0  0  0  0  0  0  0  0  0  0  0
    6.9360  -11.7974   26.0407 C   0  0  0  0  0  0  0  0  0  0  0  0
    6.6751  -13.1556   26.0929 C   0  0  0  0  0  0  0  0  0  0  0  0
    7.4876  -17.7810   25.7993 C   0  0  0  0  0  0  0  0  0  0  0  0
    7.4406  -18.5405   26.7895 O   0  0  0  0  0  0  0  0  0  0  0  0
    6.9859  -18.1963   24.5741 O   0  0  0  0  0  0  0  0  0  0  0  0
  2  1  1  1
  2  9  1  0
  2  3  1  0
  3  4  1  0
  4  8  1  0
  4  5  2  0
  5  6  1  0
  7  6  1  0
  8  7  2  0
  9 10  2  0
 12 11  1  6
 12 13  1  0
 12 14  1  0
 15 14  1  6
 16 15  1  0
 16  9  1  0
 17 15  1  0
 17 18  2  0
 19 17  1  0
 20 19  1  0
 20 28  1  0
 20 21  1  1
 22 21  1  0
 23 22  2  0
 24 23  1  0
 25 24  2  0
 25 26  1  0
 26 27  2  0
 27 22  1  0
 28 30  1  0
 29 28  2  0
M  END
$$$$
