HLF.pdb
     RDKit          3D

 30 31  0  0  1  0  0  0  0  0999 V2000
    8.9605  -18.7580   20.5113 N   0  0  0  0  0  0  0  0  0  0  0  0
   10.2800  -18.2188   20.3684 C   0  0  1  0  0  0  0  0  0  0  0  0
   10.7487  -18.2480   18.9188 C   0  0  0  0  0  0  0  0  0  0  0  0
   10.9219  -19.6642   18.5344 C   0  0  0  0  0  0  0  0  0  0  0  0
   11.5336  -20.6360   19.2762 C   0  0  0  0  0  0  0  0  0  0  0  0
   11.4760  -21.7843   18.5600 N   0  0  0  0  0  0  0  0  0  0  0  0
   10.8453  -21.5341   17.4033 C   0  0  0  0  0  0  0  0  0  0  0  0
   10.5054  -20.2196   17.3951 N   0  0  0  0  0  0  0  0  0  0  0  0
   10.2918  -16.8330   20.8729 C   0  0  0  0  0  0  0  0  0  0  0  0
   11.3482  -16.1734   20.8403 O   0  0  0  0  0  0  0  0  0  0  0  0
    8.6602  -13.0773   19.6152 C   0  0  0  0  0  0  0  0  0  0  0  0
    7.5781  -13.9535   20.2741 C   0  0  2  0  0  0  0  0  0  0  0  0
    6.2803  -13.2074   20.0274 C   0  0  0  0  0  0  0  0  0  0  0  0
    7.9156  -14.1352   21.7235 C   0  0  0  0  0  0  0  0  0  0  0  0
    9.1293  -14.9433   21.9372 C   0  0  2  0  0  0  0  0  0  0  0  0
    9.1174  -16.2589   21.3884 N   0  0  0  0  0  0  0  0  0  0  0  0
    9.4569  -15.0867   23.4106 C   0  0  0  0  0  0  0  0  0  0  0  0
   10.2103  -14.2765   23.9959 O   0  0  0  0  0  0  0  0  0  0  0  0
    8.9129  -16.1510   24.1712 N   0  0  0  0  0  0  0  0  0  0  0  0
    9.1692  -16.3576   25.5956 C   0  0  1  0  0  0  0  0  0  0  0  0
    7.9361  -16.0604   26.3732 C   0  0  0  0  0  0  0  0  0  0  0  0
    7.4853  -14.6785   26.3969 C   0  0  0  0  0  0  0  0  0  0  0  0
    8.2191  -13.7046   27.0582 C   0  0  0  0  0  0  0  0  0  0  0  0
    7.7554  -12.3837   27.0614 C   0  0  0  0  0  0  0  0  0  0  0  0
    6.5873  -12.0156   26.4266 C   0  0  0  0  0  0  0  0  0  0  0  0
    5.8488  -12.9881   25.7629 C   0  0  0  0  0  0  0  0  0  0  0  0
    6.3301  -14.2857   25.7752 C   0  0  0  0  0  0  0  0  0  0  0  0
    9.6435  -17.7362   25.8546 C   0  0  0  0  0  0  0  0  0  0  0  0
    9.7921  -18.5730   24.9395 O   0  0  0  0  0  0  0  0  0  0  0  0
    9.9232  -18.0798   27.1696 O   0  0  0  0  0  0  0  0  0  0  0  0
  2  1  1  6
  2  9  1  0
  2  3  1  0
  3  4  1  0
  4  8  1  0
  4  5  2  0
  5  6  1  0
  7  6  1  0
  8  7  2  0
  9 10  2  0
 12 11  1  6
 12 13  1  0
 12 14  1  0
 15 14  1  1
 16 15  1  0
 16  9  1  0
 17 15  1  0
 17 18  2  0
 19 17  1  0
 20 19  1  0
 20 28  1  0
 20 21  1  1
 22 21  1  0
 23 22  2  0
 24 23  1  0
 25 24  2  0
 25 26  1  0
 26 27  2  0
 27 22  1  0
 28 30  1  0
 29 28  2  0
M  END
$$$$
