HLF.pdb
     RDKit          3D

 30 31  0  0  1  0  0  0  0  0999 V2000
   12.5989  -16.7702   19.7116 N   0  0  0  0  0  0  0  0  0  0  0  0
   11.4018  -17.3567   20.2362 C   0  0  1  0  0  0  0  0  0  0  0  0
   11.6884  -18.6521   20.9858 C   0  0  0  0  0  0  0  0  0  0  0  0
   11.7032  -19.7474   19.9941 C   0  0  0  0  0  0  0  0  0  0  0  0
   11.4926  -19.6253   18.6490 C   0  0  0  0  0  0  0  0  0  0  0  0
   11.5932  -20.8649   18.1122 N   0  0  0  0  0  0  0  0  0  0  0  0
   11.8593  -21.7354   19.0969 C   0  0  0  0  0  0  0  0  0  0  0  0
   11.9260  -21.0360   20.2587 N   0  0  0  0  0  0  0  0  0  0  0  0
   10.7455  -16.3898   21.1358 C   0  0  0  0  0  0  0  0  0  0  0  0
   11.4399  -15.6455   21.8542 O   0  0  0  0  0  0  0  0  0  0  0  0
    8.0343  -12.7459   21.1066 C   0  0  0  0  0  0  0  0  0  0  0  0
    7.3595  -14.0596   20.6688 C   0  0  2  0  0  0  0  0  0  0  0  0
    5.9790  -13.6413   20.1984 C   0  0  0  0  0  0  0  0  0  0  0  0
    7.3509  -15.0113   21.8271 C   0  0  0  0  0  0  0  0  0  0  0  0
    8.6927  -15.5137   22.1720 C   0  0  2  0  0  0  0  0  0  0  0  0
    9.3435  -16.3082   21.1834 N   0  0  0  0  0  0  0  0  0  0  0  0
    8.6757  -16.3311   23.4489 C   0  0  0  0  0  0  0  0  0  0  0  0
    9.2006  -17.4660   23.5071 O   0  0  0  0  0  0  0  0  0  0  0  0
    8.0604  -15.8269   24.6211 N   0  0  0  0  0  0  0  0  0  0  0  0
    7.9432  -16.5726   25.8732 C   0  0  1  0  0  0  0  0  0  0  0  0
    7.2706  -15.7277   26.8966 C   0  0  0  0  0  0  0  0  0  0  0  0
    7.5656  -14.3043   26.8779 C   0  0  0  0  0  0  0  0  0  0  0  0
    6.6246  -13.3911   26.4258 C   0  0  0  0  0  0  0  0  0  0  0  0
    6.9423  -12.0277   26.4209 C   0  0  0  0  0  0  0  0  0  0  0  0
    8.1659  -11.5590   26.8521 C   0  0  0  0  0  0  0  0  0  0  0  0
    9.1120  -12.4705   27.3059 C   0  0  0  0  0  0  0  0  0  0  0  0
    8.7717  -13.8120   27.3003 C   0  0  0  0  0  0  0  0  0  0  0  0
    7.2119  -17.8436   25.6668 C   0  0  0  0  0  0  0  0  0  0  0  0
    7.1632  -18.7341   26.5409 O   0  0  0  0  0  0  0  0  0  0  0  0
    6.5698  -18.0214   24.4497 O   0  0  0  0  0  0  0  0  0  0  0  0
  2  1  1  1
  2  9  1  0
  2  3  1  0
  3  4  1  0
  4  8  1  0
  4  5  2  0
  5  6  1  0
  7  6  1  0
  8  7  2  0
  9 10  2  0
 12 11  1  1
 12 13  1  0
 12 14  1  0
 15 14  1  6
 16 15  1  0
 16  9  1  0
 17 15  1  0
 17 18  2  0
 19 17  1  0
 20 19  1  0
 20 28  1  0
 20 21  1  1
 22 21  1  0
 23 22  2  0
 24 23  1  0
 25 24  2  0
 25 26  1  0
 26 27  2  0
 27 22  1  0
 28 30  1  0
 29 28  2  0
M  END
$$$$
