HLF.pdb
     RDKit          3D

 30 31  0  0  1  0  0  0  0  0999 V2000
   12.3160  -17.6160   18.4740 N   0  0  0  0  0  0  0  0  0  0  0  0
   11.0159  -17.8614   19.0231 C   0  0  1  0  0  0  0  0  0  0  0  0
   10.8218  -19.3297   19.3819 C   0  0  0  0  0  0  0  0  0  0  0  0
   10.1088  -19.9728   18.2588 C   0  0  0  0  0  0  0  0  0  0  0  0
    9.7682  -19.3851   17.0726 C   0  0  0  0  0  0  0  0  0  0  0  0
    9.1301  -20.3206   16.3291 N   0  0  0  0  0  0  0  0  0  0  0  0
    9.0749  -21.4601   17.0337 C   0  0  0  0  0  0  0  0  0  0  0  0
    9.6829  -21.2368   18.2270 N   0  0  0  0  0  0  0  0  0  0  0  0
   10.8326  -17.0224   20.2220 C   0  0  0  0  0  0  0  0  0  0  0  0
   11.8226  -16.6981   20.9054 O   0  0  0  0  0  0  0  0  0  0  0  0
    8.7490  -12.9992   20.6934 C   0  0  0  0  0  0  0  0  0  0  0  0
    7.7815  -14.1975   20.6673 C   0  0  2  0  0  0  0  0  0  0  0  0
    6.3991  -13.5724   20.6760 C   0  0  0  0  0  0  0  0  0  0  0  0
    8.0648  -15.0770   21.8479 C   0  0  0  0  0  0  0  0  0  0  0  0
    9.3567  -15.7790   21.7487 C   0  0  2  0  0  0  0  0  0  0  0  0
    9.5478  -16.5907   20.5926 N   0  0  0  0  0  0  0  0  0  0  0  0
    9.6085  -16.6657   22.9525 C   0  0  0  0  0  0  0  0  0  0  0  0
    9.3614  -17.8925   22.9255 O   0  0  0  0  0  0  0  0  0  0  0  0
   10.1360  -16.1242   24.1507 N   0  0  0  0  0  0  0  0  0  0  0  0
   10.4062  -16.9059   25.3563 C   0  0  1  0  0  0  0  0  0  0  0  0
   11.2819  -16.1255   26.2716 C   0  0  0  0  0  0  0  0  0  0  0  0
   10.6614  -15.0445   27.0198 C   0  0  0  0  0  0  0  0  0  0  0  0
    9.9833  -14.0270   26.3649 C   0  0  0  0  0  0  0  0  0  0  0  0
    9.3981  -13.0012   27.1166 C   0  0  0  0  0  0  0  0  0  0  0  0
    9.4736  -12.9672   28.4935 C   0  0  0  0  0  0  0  0  0  0  0  0
   10.1522  -13.9845   29.1540 C   0  0  0  0  0  0  0  0  0  0  0  0
   10.7210  -14.9863   28.3867 C   0  0  0  0  0  0  0  0  0  0  0  0
    9.1459  -17.2965   26.0285 C   0  0  0  0  0  0  0  0  0  0  0  0
    8.0385  -16.8264   25.6938 O   0  0  0  0  0  0  0  0  0  0  0  0
    9.2317  -18.2180   27.0623 O   0  0  0  0  0  0  0  0  0  0  0  0
  2  1  1  1
  2  9  1  0
  2  3  1  0
  3  4  1  0
  4  8  1  0
  4  5  2  0
  5  6  1  0
  7  6  1  0
  8  7  2  0
  9 10  2  0
 12 11  1  1
 12 13  1  0
 12 14  1  0
 15 14  1  1
 16 15  1  0
 16  9  1  0
 17 15  1  0
 17 18  2  0
 19 17  1  0
 20 19  1  0
 20 28  1  0
 20 21  1  1
 22 21  1  0
 23 22  2  0
 24 23  1  0
 25 24  2  0
 25 26  1  0
 26 27  2  0
 27 22  1  0
 28 30  1  0
 29 28  2  0
M  END
$$$$
