HLF.pdb
     RDKit          3D

 30 31  0  0  1  0  0  0  0  0999 V2000
    8.8600  -18.5929   20.4283 N   0  0  0  0  0  0  0  0  0  0  0  0
   10.2258  -18.1606   20.4217 C   0  0  1  0  0  0  0  0  0  0  0  0
   10.8266  -18.2069   19.0221 C   0  0  0  0  0  0  0  0  0  0  0  0
   10.7487  -19.6047   18.5492 C   0  0  0  0  0  0  0  0  0  0  0  0
   10.9907  -20.7260   19.2926 C   0  0  0  0  0  0  0  0  0  0  0  0
   10.8089  -21.7942   18.4796 N   0  0  0  0  0  0  0  0  0  0  0  0
   10.4629  -21.3496   17.2627 C   0  0  0  0  0  0  0  0  0  0  0  0
   10.4276  -19.9933   17.3140 N   0  0  0  0  0  0  0  0  0  0  0  0
   10.2994  -16.7877   20.9553 C   0  0  0  0  0  0  0  0  0  0  0  0
   11.3962  -16.1977   20.9915 O   0  0  0  0  0  0  0  0  0  0  0  0
    8.9299  -12.7877   19.8393 C   0  0  0  0  0  0  0  0  0  0  0  0
    7.7761  -13.6591   20.3704 C   0  0  2  0  0  0  0  0  0  0  0  0
    6.5293  -12.8278   20.1329 C   0  0  0  0  0  0  0  0  0  0  0  0
    8.0336  -13.9813   21.8117 C   0  0  0  0  0  0  0  0  0  0  0  0
    9.2071  -14.8506   22.0086 C   0  0  2  0  0  0  0  0  0  0  0  0
    9.1386  -16.1477   21.4215 N   0  0  0  0  0  0  0  0  0  0  0  0
    9.5172  -15.0517   23.4792 C   0  0  0  0  0  0  0  0  0  0  0  0
   10.3270  -14.3139   24.0846 O   0  0  0  0  0  0  0  0  0  0  0  0
    8.8918  -16.0891   24.2138 N   0  0  0  0  0  0  0  0  0  0  0  0
    9.0696  -16.3015   25.6494 C   0  0  1  0  0  0  0  0  0  0  0  0
    7.8247  -15.9190   26.3687 C   0  0  0  0  0  0  0  0  0  0  0  0
    7.4927  -14.5043   26.4113 C   0  0  0  0  0  0  0  0  0  0  0  0
    6.2697  -14.0486   25.9418 C   0  0  0  0  0  0  0  0  0  0  0  0
    5.9831  -12.6794   25.9974 C   0  0  0  0  0  0  0  0  0  0  0  0
    6.8804  -11.7631   26.5054 C   0  0  0  0  0  0  0  0  0  0  0  0
    8.1072  -12.2151   26.9768 C   0  0  0  0  0  0  0  0  0  0  0  0
    8.3645  -13.5735   26.9103 C   0  0  0  0  0  0  0  0  0  0  0  0
    9.4406  -17.7061   25.9356 C   0  0  0  0  0  0  0  0  0  0  0  0
    9.5935  -18.5529   25.0306 O   0  0  0  0  0  0  0  0  0  0  0  0
    9.6165  -18.0628   27.2650 O   0  0  0  0  0  0  0  0  0  0  0  0
  2  1  1  6
  2  9  1  0
  2  3  1  0
  3  4  1  0
  4  8  1  0
  4  5  2  0
  5  6  1  0
  7  6  1  0
  8  7  2  0
  9 10  2  0
 12 11  1  1
 12 13  1  0
 12 14  1  0
 15 14  1  1
 16 15  1  0
 16  9  1  0
 17 15  1  0
 17 18  2  0
 19 17  1  0
 20 19  1  0
 20 28  1  0
 20 21  1  1
 22 21  1  0
 23 22  2  0
 24 23  1  0
 25 24  2  0
 25 26  1  0
 26 27  2  0
 27 22  1  0
 28 30  1  0
 29 28  2  0
M  END
$$$$
