HLF.pdb
     RDKit          3D

 30 31  0  0  1  0  0  0  0  0999 V2000
    8.7894  -19.4980   19.7938 N   0  0  0  0  0  0  0  0  0  0  0  0
    8.1539  -18.7887   20.8640 C   0  0  1  0  0  0  0  0  0  0  0  0
    8.0164  -19.6527   22.1116 C   0  0  0  0  0  0  0  0  0  0  0  0
    7.0284  -20.7106   21.8150 C   0  0  0  0  0  0  0  0  0  0  0  0
    6.3511  -20.8801   20.6398 C   0  0  0  0  0  0  0  0  0  0  0  0
    5.5495  -21.9617   20.7902 N   0  0  0  0  0  0  0  0  0  0  0  0
    5.7232  -22.4523   22.0260 C   0  0  0  0  0  0  0  0  0  0  0  0
    6.6402  -21.6726   22.6540 N   0  0  0  0  0  0  0  0  0  0  0  0
    8.9388  -17.5792   21.1738 C   0  0  0  0  0  0  0  0  0  0  0  0
   10.1718  -17.5812   20.9950 O   0  0  0  0  0  0  0  0  0  0  0  0
    8.9840  -13.3757   19.4554 C   0  0  0  0  0  0  0  0  0  0  0  0
    7.7796  -13.7195   20.3521 C   0  0  2  0  0  0  0  0  0  0  0  0
    6.8533  -12.5250   20.2219 C   0  0  0  0  0  0  0  0  0  0  0  0
    8.2678  -13.9684   21.7476 C   0  0  0  0  0  0  0  0  0  0  0  0
    9.0293  -15.2232   21.8781 C   0  0  2  0  0  0  0  0  0  0  0  0
    8.2998  -16.4299   21.6690 N   0  0  0  0  0  0  0  0  0  0  0  0
    9.6896  -15.3411   23.2380 C   0  0  0  0  0  0  0  0  0  0  0  0
   10.7366  -14.7133   23.5142 O   0  0  0  0  0  0  0  0  0  0  0  0
    9.1331  -16.1720   24.2414 N   0  0  0  0  0  0  0  0  0  0  0  0
    9.6993  -16.3360   25.5794 C   0  0  1  0  0  0  0  0  0  0  0  0
    9.6797  -15.0309   26.2934 C   0  0  0  0  0  0  0  0  0  0  0  0
    8.4288  -14.2901   26.2845 C   0  0  0  0  0  0  0  0  0  0  0  0
    7.2364  -14.9161   25.9524 C   0  0  0  0  0  0  0  0  0  0  0  0
    6.0504  -14.1724   25.9536 C   0  0  0  0  0  0  0  0  0  0  0  0
    6.0270  -12.8311   26.2747 C   0  0  0  0  0  0  0  0  0  0  0  0
    7.2194  -12.1996   26.6079 C   0  0  0  0  0  0  0  0  0  0  0  0
    8.3769  -12.9583   26.5993 C   0  0  0  0  0  0  0  0  0  0  0  0
    8.9661  -17.3720   26.3420 C   0  0  0  0  0  0  0  0  0  0  0  0
    7.9493  -17.9384   25.8894 O   0  0  0  0  0  0  0  0  0  0  0  0
    9.4500  -17.7023   27.5999 O   0  0  0  0  0  0  0  0  0  0  0  0
  2  1  1  6
  2  9  1  0
  2  3  1  0
  3  4  1  0
  4  8  1  0
  4  5  2  0
  5  6  1  0
  7  6  1  0
  8  7  2  0
  9 10  2  0
 12 11  1  6
 12 13  1  0
 12 14  1  0
 15 14  1  1
 16 15  1  0
 16  9  1  0
 17 15  1  0
 17 18  2  0
 19 17  1  0
 20 19  1  0
 20 28  1  0
 20 21  1  1
 22 21  1  0
 23 22  2  0
 24 23  1  0
 25 24  2  0
 25 26  1  0
 26 27  2  0
 27 22  1  0
 28 30  1  0
 29 28  2  0
M  END
$$$$
