HLF.pdb
     RDKit          3D

 30 31  0  0  1  0  0  0  0  0999 V2000
   10.1955  -19.1406   19.5570 N   0  0  0  0  0  0  0  0  0  0  0  0
    9.2584  -18.6898   20.5423 C   0  0  1  0  0  0  0  0  0  0  0  0
    9.1561  -19.6616   21.7116 C   0  0  0  0  0  0  0  0  0  0  0  0
    8.4692  -20.8755   21.2239 C   0  0  0  0  0  0  0  0  0  0  0  0
    8.0147  -21.0940   19.9534 C   0  0  0  0  0  0  0  0  0  0  0  0
    7.4507  -22.3255   19.9344 N   0  0  0  0  0  0  0  0  0  0  0  0
    7.5515  -22.8593   21.1604 C   0  0  0  0  0  0  0  0  0  0  0  0
    8.1832  -21.9557   21.9528 N   0  0  0  0  0  0  0  0  0  0  0  0
    9.6720  -17.3602   21.0283 C   0  0  0  0  0  0  0  0  0  0  0  0
   10.8733  -17.0328   20.9828 O   0  0  0  0  0  0  0  0  0  0  0  0
    8.6763  -13.3187   19.4319 C   0  0  0  0  0  0  0  0  0  0  0  0
    7.5693  -13.9919   20.2651 C   0  0  2  0  0  0  0  0  0  0  0  0
    6.3548  -13.1025   20.0758 C   0  0  0  0  0  0  0  0  0  0  0  0
    8.0315  -14.1052   21.6867 C   0  0  0  0  0  0  0  0  0  0  0  0
    9.0754  -15.1281   21.8751 C   0  0  2  0  0  0  0  0  0  0  0  0
    8.7164  -16.4666   21.5408 N   0  0  0  0  0  0  0  0  0  0  0  0
    9.5845  -15.1553   23.3031 C   0  0  0  0  0  0  0  0  0  0  0  0
   10.3936  -14.2991   23.7263 O   0  0  0  0  0  0  0  0  0  0  0  0
    9.1532  -16.1593   24.2046 N   0  0  0  0  0  0  0  0  0  0  0  0
    9.4286  -16.1475   25.6404 C   0  0  1  0  0  0  0  0  0  0  0  0
    8.1580  -15.9595   26.3912 C   0  0  0  0  0  0  0  0  0  0  0  0
    7.4692  -14.6908   26.2198 C   0  0  0  0  0  0  0  0  0  0  0  0
    7.9533  -13.5351   26.8148 C   0  0  0  0  0  0  0  0  0  0  0  0
    7.2646  -12.3305   26.6292 C   0  0  0  0  0  0  0  0  0  0  0  0
    6.1146  -12.2532   25.8714 C   0  0  0  0  0  0  0  0  0  0  0  0
    5.6258  -13.4087   25.2734 C   0  0  0  0  0  0  0  0  0  0  0  0
    6.3262  -14.5856   25.4728 C   0  0  0  0  0  0  0  0  0  0  0  0
   10.1161  -17.3905   26.0587 C   0  0  0  0  0  0  0  0  0  0  0  0
   10.3552  -18.3208   25.2608 O   0  0  0  0  0  0  0  0  0  0  0  0
   10.4944  -17.4951   27.3896 O   0  0  0  0  0  0  0  0  0  0  0  0
  2  1  1  6
  2  9  1  0
  2  3  1  0
  3  4  1  0
  4  8  1  0
  4  5  2  0
  5  6  1  0
  7  6  1  0
  8  7  2  0
  9 10  2  0
 12 11  1  6
 12 13  1  0
 12 14  1  0
 15 14  1  1
 16 15  1  0
 16  9  1  0
 17 15  1  0
 17 18  2  0
 19 17  1  0
 20 19  1  0
 20 28  1  0
 20 21  1  1
 22 21  1  0
 23 22  2  0
 24 23  1  0
 25 24  2  0
 25 26  1  0
 26 27  2  0
 27 22  1  0
 28 30  1  0
 29 28  2  0
M  END
$$$$
