HLF.pdb
     RDKit          3D

 30 31  0  0  1  0  0  0  0  0999 V2000
    8.4854  -17.5988   20.1067 N   0  0  0  0  0  0  0  0  0  0  0  0
    9.8380  -17.2043   20.3656 C   0  0  1  0  0  0  0  0  0  0  0  0
   10.4379  -16.4387   19.1926 C   0  0  0  0  0  0  0  0  0  0  0  0
   10.1243  -17.1922   17.9609 C   0  0  0  0  0  0  0  0  0  0  0  0
   10.8504  -18.2245   17.4357 C   0  0  0  0  0  0  0  0  0  0  0  0
   10.2175  -18.6282   16.3081 N   0  0  0  0  0  0  0  0  0  0  0  0
    9.1266  -17.8676   16.1360 C   0  0  0  0  0  0  0  0  0  0  0  0
    9.0758  -16.9812   17.1632 N   0  0  0  0  0  0  0  0  0  0  0  0
    9.8725  -16.3698   21.5811 C   0  0  0  0  0  0  0  0  0  0  0  0
   10.9437  -15.8430   21.9378 O   0  0  0  0  0  0  0  0  0  0  0  0
    6.2727  -13.8290   25.9215 C   0  0  0  0  0  0  0  0  0  0  0  0
    7.6580  -14.0496   25.2852 C   0  0  2  0  0  0  0  0  0  0  0  0
    8.1992  -12.6512   25.0544 C   0  0  0  0  0  0  0  0  0  0  0  0
    7.4950  -14.8590   24.0338 C   0  0  0  0  0  0  0  0  0  0  0  0
    8.7496  -15.4890   23.5857 C   0  0  2  0  0  0  0  0  0  0  0  0
    8.7031  -16.1698   22.3342 N   0  0  0  0  0  0  0  0  0  0  0  0
    9.2754  -16.4813   24.6045 C   0  0  0  0  0  0  0  0  0  0  0  0
    8.7678  -17.6181   24.7338 O   0  0  0  0  0  0  0  0  0  0  0  0
   10.3659  -16.1451   25.4440 N   0  0  0  0  0  0  0  0  0  0  0  0
   11.0990  -17.1085   26.2637 C   0  0  1  0  0  0  0  0  0  0  0  0
   12.0942  -16.3922   27.1063 C   0  0  0  0  0  0  0  0  0  0  0  0
   11.5758  -15.4722   28.1055 C   0  0  0  0  0  0  0  0  0  0  0  0
   11.4444  -15.8639   29.4296 C   0  0  0  0  0  0  0  0  0  0  0  0
   10.9412  -14.9524   30.3654 C   0  0  0  0  0  0  0  0  0  0  0  0
   10.5690  -13.6715   30.0138 C   0  0  0  0  0  0  0  0  0  0  0  0
   10.6988  -13.2747   28.6881 C   0  0  0  0  0  0  0  0  0  0  0  0
   11.1992  -14.1954   27.7839 C   0  0  0  0  0  0  0  0  0  0  0  0
   10.1728  -17.9091   27.0968 C   0  0  0  0  0  0  0  0  0  0  0  0
   10.5624  -18.8729   27.7887 O   0  0  0  0  0  0  0  0  0  0  0  0
    8.8321  -17.5515   27.0864 O   0  0  0  0  0  0  0  0  0  0  0  0
  2  1  1  6
  2  9  1  0
  2  3  1  0
  3  4  1  0
  4  8  1  0
  4  5  2  0
  5  6  1  0
  7  6  1  0
  8  7  2  0
  9 10  2  0
 12 11  1  6
 12 13  1  0
 12 14  1  0
 15 14  1  1
 16 15  1  0
 16  9  1  0
 17 15  1  0
 17 18  2  0
 19 17  1  0
 20 19  1  0
 20 28  1  0
 20 21  1  1
 22 21  1  0
 23 22  2  0
 24 23  1  0
 25 24  2  0
 25 26  1  0
 26 27  2  0
 27 22  1  0
 28 30  1  0
 29 28  2  0
M  END
$$$$
