HLF.pdb
     RDKit          3D

 30 31  0  0  1  0  0  0  0  0999 V2000
   10.3669  -18.1231   19.2489 N   0  0  0  0  0  0  0  0  0  0  0  0
   11.4863  -17.6555   20.0109 C   0  0  1  0  0  0  0  0  0  0  0  0
   12.6195  -17.1736   19.1133 C   0  0  0  0  0  0  0  0  0  0  0  0
   13.0141  -18.3039   18.2474 C   0  0  0  0  0  0  0  0  0  0  0  0
   12.7256  -19.6237   18.4562 C   0  0  0  0  0  0  0  0  0  0  0  0
   13.2708  -20.3214   17.4311 N   0  0  0  0  0  0  0  0  0  0  0  0
   13.8823  -19.4590   16.6062 C   0  0  0  0  0  0  0  0  0  0  0  0
   13.7188  -18.2122   17.1182 N   0  0  0  0  0  0  0  0  0  0  0  0
   11.0443  -16.5606   20.8945 C   0  0  0  0  0  0  0  0  0  0  0  0
   11.8797  -15.9573   21.5948 O   0  0  0  0  0  0  0  0  0  0  0  0
    8.5018  -12.9442   20.0653 C   0  0  0  0  0  0  0  0  0  0  0  0
    7.6430  -14.2045   20.2821 C   0  0  2  0  0  0  0  0  0  0  0  0
    6.2220  -13.7504   20.0056 C   0  0  0  0  0  0  0  0  0  0  0  0
    7.8654  -14.7106   21.6757 C   0  0  0  0  0  0  0  0  0  0  0  0
    9.2260  -15.2345   21.8898 C   0  0  2  0  0  0  0  0  0  0  0  0
    9.6874  -16.1993   20.9473 N   0  0  0  0  0  0  0  0  0  0  0  0
    9.3788  -15.8572   23.2638 C   0  0  0  0  0  0  0  0  0  0  0  0
   10.5060  -16.0907   23.7554 O   0  0  0  0  0  0  0  0  0  0  0  0
    8.2390  -16.1933   24.0352 N   0  0  0  0  0  0  0  0  0  0  0  0
    8.2898  -16.6227   25.4318 C   0  0  1  0  0  0  0  0  0  0  0  0
    8.8416  -15.5257   26.2718 C   0  0  0  0  0  0  0  0  0  0  0  0
    8.0276  -14.3300   26.4178 C   0  0  0  0  0  0  0  0  0  0  0  0
    8.4736  -13.2568   27.1749 C   0  0  0  0  0  0  0  0  0  0  0  0
    7.6637  -12.1212   27.2946 C   0  0  0  0  0  0  0  0  0  0  0  0
    6.4306  -12.0328   26.6827 C   0  0  0  0  0  0  0  0  0  0  0  0
    5.9796  -13.1059   25.9232 C   0  0  0  0  0  0  0  0  0  0  0  0
    6.8002  -14.2157   25.8212 C   0  0  0  0  0  0  0  0  0  0  0  0
    6.9503  -17.0368   25.9082 C   0  0  0  0  0  0  0  0  0  0  0  0
    5.9228  -16.8977   25.2122 O   0  0  0  0  0  0  0  0  0  0  0  0
    6.8668  -17.5944   27.1761 O   0  0  0  0  0  0  0  0  0  0  0  0
  2  1  1  6
  2  9  1  0
  2  3  1  0
  3  4  1  0
  4  8  1  0
  4  5  2  0
  5  6  1  0
  7  6  1  0
  8  7  2  0
  9 10  2  0
 12 11  1  1
 12 13  1  0
 12 14  1  0
 15 14  1  6
 16 15  1  0
 16  9  1  0
 17 15  1  0
 17 18  2  0
 19 17  1  0
 20 19  1  0
 20 28  1  0
 20 21  1  1
 22 21  1  0
 23 22  2  0
 24 23  1  0
 25 24  2  0
 25 26  1  0
 26 27  2  0
 27 22  1  0
 28 30  1  0
 29 28  2  0
M  END
$$$$
