IMY.pdb
     RDKit          3D

 29 29  0  0  1  0  0  0  0  0999 V2000
   10.4189  -11.7646   -8.9575 C   0  0  0  0  0  0  0  0  0  0  0  0
   10.8515  -11.7442  -10.3818 C   0  0  0  0  0  0  0  0  0  0  0  0
   12.2818  -11.4200  -10.6304 C   0  0  2  0  0  0  0  0  0  0  0  0
   12.7005  -10.1456   -9.9138 C   0  0  0  0  0  0  0  0  0  0  0  0
   12.7185  -11.4212  -12.0537 C   0  0  2  0  0  0  0  0  0  0  0  0
   12.3841  -12.6630  -12.6803 N   0  0  0  0  0  0  0  0  0  0  0  0
   14.1531  -11.0607  -12.2339 C   0  0  0  0  0  0  0  0  0  0  0  0
   14.9799  -11.9939  -12.4503 O   0  0  0  0  0  0  0  0  0  0  0  0
   18.3532  -12.4952  -16.2587 C   0  0  0  0  0  0  0  0  0  0  0  0
   17.2680  -11.0532  -16.1086 S   0  0  0  0  0  0  0  0  0  0  0  0
   17.0641  -10.6498  -14.3709 C   0  0  0  0  0  0  0  0  0  0  0  0
   16.0218   -9.6135  -14.1026 C   0  0  0  0  0  0  0  0  0  0  0  0
   15.8837   -9.2776  -12.6339 C   0  0  2  0  0  0  0  0  0  0  0  0
   14.5853   -9.7235  -12.1663 N   0  0  0  0  0  0  0  0  0  0  0  0
   15.9256   -7.7926  -12.5164 C   0  0  0  0  0  0  0  0  0  0  0  0
   14.9536   -7.1084  -12.8758 O   0  0  0  0  0  0  0  0  0  0  0  0
   12.8562   -6.3438   -7.1941 O   0  0  0  0  0  0  0  0  0  0  0  0
   13.9577   -6.0640   -7.9904 C   0  0  0  0  0  0  0  0  0  0  0  0
   14.0049   -5.0206   -8.8897 C   0  0  0  0  0  0  0  0  0  0  0  0
   15.0951   -4.7408   -9.6802 C   0  0  0  0  0  0  0  0  0  0  0  0
   16.2473   -5.5402   -9.5972 C   0  0  0  0  0  0  0  0  0  0  0  0
   17.4196   -5.2745  -10.4498 C   0  0  0  0  0  0  0  0  0  0  0  0
   17.1748   -5.6960  -11.8578 C   0  0  2  0  0  0  0  0  0  0  0  0
   17.0802   -7.1419  -11.9911 N   0  0  0  0  0  0  0  0  0  0  0  0
   18.1489   -5.1425  -12.8429 C   0  0  0  0  0  0  0  0  0  0  0  0
   18.3186   -3.7985  -13.1027 O   0  0  0  0  0  0  0  0  0  0  0  0
   16.1892   -6.5799   -8.6955 C   0  0  0  0  0  0  0  0  0  0  0  0
   15.0971   -6.8584   -7.9048 C   0  0  0  0  0  0  0  0  0  0  0  0
   18.8773   -5.9526  -13.4949 O   0  0  0  0  0  0  0  0  0  0  0  0
  2  1  1  0
  3  2  1  0
  3  4  1  6
  5  3  1  0
  5  6  1  1
  7  5  1  0
  7  8  2  0
  9 10  1  0
 10 11  1  0
 11 12  1  0
 13 12  1  6
 13 14  1  0
 14  7  1  0
 15 13  1  0
 16 15  2  0
 18 28  2  0
 18 17  1  0
 19 18  1  0
 20 21  1  0
 20 19  2  0
 21 27  2  0
 22 21  1  0
 23 22  1  1
 23 24  1  0
 24 15  1  0
 25 26  1  0
 25 23  1  0
 27 28  1  0
 29 25  2  0
M  END
$$$$
