IMY.pdb
     RDKit          3D

 29 29  0  0  1  0  0  0  0  0999 V2000
   13.2230  -11.3827  -16.0915 C   0  0  0  0  0  0  0  0  0  0  0  0
   14.7015  -11.2326  -16.1789 C   0  0  0  0  0  0  0  0  0  0  0  0
   15.3888  -10.7605  -14.9471 C   0  0  2  0  0  0  0  0  0  0  0  0
   14.7837   -9.4650  -14.4291 C   0  0  0  0  0  0  0  0  0  0  0  0
   16.8746  -10.6888  -15.0096 C   0  0  2  0  0  0  0  0  0  0  0  0
   17.4215  -11.9489  -15.4092 N   0  0  0  0  0  0  0  0  0  0  0  0
   17.4961  -10.1693  -13.7588 C   0  0  0  0  0  0  0  0  0  0  0  0
   17.6533  -10.9719  -12.7930 O   0  0  0  0  0  0  0  0  0  0  0  0
   23.5701   -9.9207  -13.8092 C   0  0  0  0  0  0  0  0  0  0  0  0
   22.5506   -8.4487  -13.5385 S   0  0  0  0  0  0  0  0  0  0  0  0
   20.8888   -8.9596  -13.0898 C   0  0  0  0  0  0  0  0  0  0  0  0
   19.9457   -7.8264  -12.8475 C   0  0  0  0  0  0  0  0  0  0  0  0
   18.5536   -8.2835  -12.4706 C   0  0  2  0  0  0  0  0  0  0  0  0
   17.8991   -8.8261  -13.6455 N   0  0  0  0  0  0  0  0  0  0  0  0
   17.7944   -7.0745  -12.0429 C   0  0  0  0  0  0  0  0  0  0  0  0
   17.2606   -6.3386  -12.8889 O   0  0  0  0  0  0  0  0  0  0  0  0
   11.9295   -8.9242   -7.9339 O   0  0  0  0  0  0  0  0  0  0  0  0
   12.8122   -8.0877   -8.6022 C   0  0  0  0  0  0  0  0  0  0  0  0
   13.1581   -6.8299   -8.1571 C   0  0  0  0  0  0  0  0  0  0  0  0
   14.0327   -5.9986   -8.8173 C   0  0  0  0  0  0  0  0  0  0  0  0
   14.6297   -6.4171  -10.0180 C   0  0  0  0  0  0  0  0  0  0  0  0
   15.5524   -5.5359  -10.7556 C   0  0  0  0  0  0  0  0  0  0  0  0
   16.9287   -5.5920  -10.1875 C   0  0  2  0  0  0  0  0  0  0  0  0
   17.6726   -6.7499  -10.6601 N   0  0  0  0  0  0  0  0  0  0  0  0
   16.9827   -5.5074   -8.6990 C   0  0  0  0  0  0  0  0  0  0  0  0
   16.4670   -4.4655   -7.9567 O   0  0  0  0  0  0  0  0  0  0  0  0
   14.2770   -7.6755  -10.4535 C   0  0  0  0  0  0  0  0  0  0  0  0
   13.4016   -8.5064   -9.7913 C   0  0  0  0  0  0  0  0  0  0  0  0
   17.5399   -6.4516   -8.0586 O   0  0  0  0  0  0  0  0  0  0  0  0
  2  1  1  0
  3  2  1  0
  3  4  1  6
  5  3  1  0
  5  6  1  1
  7  5  1  0
  7  8  2  0
  9 10  1  0
 10 11  1  0
 11 12  1  0
 13 12  1  6
 13 14  1  0
 14  7  1  0
 15 13  1  0
 16 15  2  0
 18 28  2  0
 18 17  1  0
 19 18  1  0
 20 21  1  0
 20 19  2  0
 21 27  2  0
 22 21  1  0
 23 22  1  1
 23 24  1  0
 24 15  1  0
 25 26  1  0
 25 23  1  0
 27 28  1  0
 29 25  2  0
M  END
$$$$
