IMY.pdb
     RDKit          3D

 29 29  0  0  1  0  0  0  0  0999 V2000
   21.1022  -15.7719  -21.5089 C   0  0  0  0  0  0  0  0  0  0  0  0
   21.6480  -14.3998  -21.3204 C   0  0  0  0  0  0  0  0  0  0  0  0
   21.6435  -13.8755  -19.9284 C   0  0  2  0  0  0  0  0  0  0  0  0
   20.2774  -14.0259  -19.2772 C   0  0  0  0  0  0  0  0  0  0  0  0
   22.1965  -12.5061  -19.7399 C   0  0  2  0  0  0  0  0  0  0  0  0
   23.4342  -12.3634  -20.4429 N   0  0  0  0  0  0  0  0  0  0  0  0
   22.3043  -12.1021  -18.3096 C   0  0  0  0  0  0  0  0  0  0  0  0
   21.2901  -12.2554  -17.5685 O   0  0  0  0  0  0  0  0  0  0  0  0
   28.1223  -11.8593  -16.0637 C   0  0  0  0  0  0  0  0  0  0  0  0
   27.0479  -12.9457  -15.0917 S   0  0  0  0  0  0  0  0  0  0  0  0
   25.3399  -12.6602  -15.5661 C   0  0  0  0  0  0  0  0  0  0  0  0
   25.0439  -11.2510  -15.9646 C   0  0  0  0  0  0  0  0  0  0  0  0
   23.6201  -11.0548  -16.4372 C   0  0  2  0  0  0  0  0  0  0  0  0
   23.4956  -11.5640  -17.7894 N   0  0  0  0  0  0  0  0  0  0  0  0
   23.3684   -9.5865  -16.4775 C   0  0  0  0  0  0  0  0  0  0  0  0
   23.8856   -8.8867  -17.3635 O   0  0  0  0  0  0  0  0  0  0  0  0
   16.5498   -9.3809  -18.0789 O   0  0  0  0  0  0  0  0  0  0  0  0
   17.7881   -8.8329  -17.7759 C   0  0  0  0  0  0  0  0  0  0  0  0
   17.9774   -7.8508  -16.8276 C   0  0  0  0  0  0  0  0  0  0  0  0
   19.2035   -7.3058  -16.5251 C   0  0  0  0  0  0  0  0  0  0  0  0
   20.3546   -7.7474  -17.1985 C   0  0  0  0  0  0  0  0  0  0  0  0
   21.6760   -7.1631  -16.9084 C   0  0  0  0  0  0  0  0  0  0  0  0
   22.1631   -7.5636  -15.5583 C   0  0  2  0  0  0  0  0  0  0  0  0
   22.5324   -8.9699  -15.5011 N   0  0  0  0  0  0  0  0  0  0  0  0
   21.2330   -7.2212  -14.4433 C   0  0  0  0  0  0  0  0  0  0  0  0
   20.8030   -5.9441  -14.1491 O   0  0  0  0  0  0  0  0  0  0  0  0
   20.1538   -8.7289  -18.1439 C   0  0  0  0  0  0  0  0  0  0  0  0
   18.9259   -9.2735  -18.4453 C   0  0  0  0  0  0  0  0  0  0  0  0
   20.8006   -8.1597  -13.7056 O   0  0  0  0  0  0  0  0  0  0  0  0
  2  1  1  0
  3  2  1  0
  3  4  1  6
  5  3  1  0
  5  6  1  1
  7  5  1  0
  7  8  2  0
  9 10  1  0
 10 11  1  0
 11 12  1  0
 13 12  1  6
 13 14  1  0
 14  7  1  0
 15 13  1  0
 16 15  2  0
 18 28  2  0
 18 17  1  0
 19 18  1  0
 20 21  1  0
 20 19  2  0
 21 27  2  0
 22 21  1  0
 23 22  1  6
 23 24  1  0
 24 15  1  0
 25 26  1  0
 25 23  1  0
 27 28  1  0
 29 25  2  0
M  END
$$$$
