IMY.pdb
     RDKit          3D

 29 29  0  0  1  0  0  0  0  0999 V2000
   29.8879  -18.7487  -18.1066 C   0  0  0  0  0  0  0  0  0  0  0  0
   28.5219  -18.4054  -17.6244 C   0  0  0  0  0  0  0  0  0  0  0  0
   27.8697  -19.4009  -16.7321 C   0  0  2  0  0  0  0  0  0  0  0  0
   27.8986  -20.7971  -17.3341 C   0  0  0  0  0  0  0  0  0  0  0  0
   26.5142  -19.0449  -16.2297 C   0  0  2  0  0  0  0  0  0  0  0  0
   26.5153  -17.7270  -15.6731 N   0  0  0  0  0  0  0  0  0  0  0  0
   25.9433  -20.0567  -15.2963 C   0  0  0  0  0  0  0  0  0  0  0  0
   25.5573  -21.1615  -15.7778 O   0  0  0  0  0  0  0  0  0  0  0  0
   27.1363  -20.5616   -8.8791 C   0  0  0  0  0  0  0  0  0  0  0  0
   25.3496  -20.8566   -8.8758 S   0  0  0  0  0  0  0  0  0  0  0  0
   24.7987  -21.1451  -10.5602 C   0  0  0  0  0  0  0  0  0  0  0  0
   25.4933  -20.3054  -11.5823 C   0  0  0  0  0  0  0  0  0  0  0  0
   25.0983  -20.6508  -13.0014 C   0  0  2  0  0  0  0  0  0  0  0  0
   25.8321  -19.7993  -13.9177 N   0  0  0  0  0  0  0  0  0  0  0  0
   23.6493  -20.3330  -13.1444 C   0  0  0  0  0  0  0  0  0  0  0  0
   23.2416  -19.1742  -12.9632 O   0  0  0  0  0  0  0  0  0  0  0  0
   15.5640  -19.8526  -16.2735 O   0  0  0  0  0  0  0  0  0  0  0  0
   16.9100  -20.0826  -16.0265 C   0  0  0  0  0  0  0  0  0  0  0  0
   17.5118  -21.3150  -16.1626 C   0  0  0  0  0  0  0  0  0  0  0  0
   18.8456  -21.5460  -15.9186 C   0  0  0  0  0  0  0  0  0  0  0  0
   19.6774  -20.4923  -15.5048 C   0  0  0  0  0  0  0  0  0  0  0  0
   21.1045  -20.7192  -15.2154 C   0  0  0  0  0  0  0  0  0  0  0  0
   21.3192  -21.0751  -13.7845 C   0  0  2  0  0  0  0  0  0  0  0  0
   22.7167  -21.3543  -13.4904 N   0  0  0  0  0  0  0  0  0  0  0  0
   20.4493  -22.1814  -13.2896 C   0  0  0  0  0  0  0  0  0  0  0  0
   19.2414  -21.9985  -12.6492 O   0  0  0  0  0  0  0  0  0  0  0  0
   19.0655  -19.2653  -15.3721 C   0  0  0  0  0  0  0  0  0  0  0  0
   17.7304  -19.0358  -15.6170 C   0  0  0  0  0  0  0  0  0  0  0  0
   20.8354  -23.3787  -13.4616 O   0  0  0  0  0  0  0  0  0  0  0  0
  2  1  1  0
  3  2  1  0
  3  4  1  6
  5  3  1  0
  5  6  1  1
  7  5  1  0
  7  8  2  0
  9 10  1  0
 10 11  1  0
 11 12  1  0
 13 12  1  1
 13 14  1  0
 14  7  1  0
 15 13  1  0
 16 15  2  0
 18 28  2  0
 18 17  1  0
 19 18  1  0
 20 21  1  0
 20 19  2  0
 21 27  2  0
 22 21  1  0
 23 22  1  6
 23 24  1  0
 24 15  1  0
 25 26  1  0
 25 23  1  0
 27 28  1  0
 29 25  2  0
M  END
$$$$
