IMY.pdb
     RDKit          3D

 29 29  0  0  1  0  0  0  0  0999 V2000
   25.4989  -17.3610  -20.4053 C   0  0  0  0  0  0  0  0  0  0  0  0
   26.2932  -18.2903  -19.5558 C   0  0  0  0  0  0  0  0  0  0  0  0
   25.5532  -18.9797  -18.4650 C   0  0  2  0  0  0  0  0  0  0  0  0
   24.8085  -17.9912  -17.5812 C   0  0  0  0  0  0  0  0  0  0  0  0
   26.3317  -19.9610  -17.6604 C   0  0  2  0  0  0  0  0  0  0  0  0
   26.9690  -20.9164  -18.5134 N   0  0  0  0  0  0  0  0  0  0  0  0
   25.5348  -20.6057  -16.5788 C   0  0  0  0  0  0  0  0  0  0  0  0
   24.7288  -21.5269  -16.9002 O   0  0  0  0  0  0  0  0  0  0  0  0
   24.5791  -21.4717   -8.7783 C   0  0  0  0  0  0  0  0  0  0  0  0
   25.5630  -20.6920  -10.0836 S   0  0  0  0  0  0  0  0  0  0  0  0
   24.7478  -20.9438  -11.6634 C   0  0  0  0  0  0  0  0  0  0  0  0
   25.5374  -20.4711  -12.8404 C   0  0  0  0  0  0  0  0  0  0  0  0
   24.8469  -20.7317  -14.1612 C   0  0  2  0  0  0  0  0  0  0  0  0
   25.6675  -20.2076  -15.2360 N   0  0  0  0  0  0  0  0  0  0  0  0
   23.5686  -19.9658  -14.1480 C   0  0  0  0  0  0  0  0  0  0  0  0
   23.5827  -18.7241  -14.1518 O   0  0  0  0  0  0  0  0  0  0  0  0
   19.9768  -21.2435   -8.0511 O   0  0  0  0  0  0  0  0  0  0  0  0
   20.1855  -20.6898   -9.3063 C   0  0  0  0  0  0  0  0  0  0  0  0
   19.8199  -21.3065  -10.4835 C   0  0  0  0  0  0  0  0  0  0  0  0
   20.0254  -20.7602  -11.7290 C   0  0  0  0  0  0  0  0  0  0  0  0
   20.6402  -19.5031  -11.8526 C   0  0  0  0  0  0  0  0  0  0  0  0
   20.8917  -18.9070  -13.1766 C   0  0  0  0  0  0  0  0  0  0  0  0
   21.0420  -19.9549  -14.2252 C   0  0  2  0  0  0  0  0  0  0  0  0
   22.3175  -20.6490  -14.1310 N   0  0  0  0  0  0  0  0  0  0  0  0
   20.8124  -19.4688  -15.6168 C   0  0  0  0  0  0  0  0  0  0  0  0
   21.6754  -19.6828  -16.6713 O   0  0  0  0  0  0  0  0  0  0  0  0
   21.0013  -18.8960  -10.6699 C   0  0  0  0  0  0  0  0  0  0  0  0
   20.7947  -19.4442   -9.4241 C   0  0  0  0  0  0  0  0  0  0  0  0
   19.7548  -18.8103  -15.8614 O   0  0  0  0  0  0  0  0  0  0  0  0
  2  1  1  0
  3  2  1  0
  3  4  1  1
  5  3  1  0
  5  6  1  6
  7  5  1  0
  7  8  2  0
  9 10  1  0
 10 11  1  0
 11 12  1  0
 13 12  1  1
 13 14  1  0
 14  7  1  0
 15 13  1  0
 16 15  2  0
 18 28  2  0
 18 17  1  0
 19 18  1  0
 20 21  1  0
 20 19  2  0
 21 27  2  0
 22 21  1  0
 23 22  1  1
 23 24  1  0
 24 15  1  0
 25 26  1  0
 25 23  1  0
 27 28  1  0
 29 25  2  0
M  END
$$$$
