IMY.pdb
     RDKit          3D

 29 29  0  0  1  0  0  0  0  0999 V2000
   19.2533  -14.1506  -20.7165 C   0  0  0  0  0  0  0  0  0  0  0  0
   20.3103  -13.1505  -20.4024 C   0  0  0  0  0  0  0  0  0  0  0  0
   20.0747  -12.2977  -19.2066 C   0  0  2  0  0  0  0  0  0  0  0  0
   18.7062  -11.6359  -19.2509 C   0  0  0  0  0  0  0  0  0  0  0  0
   21.1486  -11.3220  -18.8729 C   0  0  2  0  0  0  0  0  0  0  0  0
   22.4256  -11.9667  -18.8578 N   0  0  0  0  0  0  0  0  0  0  0  0
   20.8840  -10.5534  -17.6239 C   0  0  0  0  0  0  0  0  0  0  0  0
   19.7922   -9.9201  -17.5334 O   0  0  0  0  0  0  0  0  0  0  0  0
   22.5443   -9.9544   -9.9709 C   0  0  0  0  0  0  0  0  0  0  0  0
   22.9389  -10.7967  -11.5247 S   0  0  0  0  0  0  0  0  0  0  0  0
   22.2215   -9.8773  -12.8899 C   0  0  0  0  0  0  0  0  0  0  0  0
   22.2814  -10.5874  -14.2031 C   0  0  0  0  0  0  0  0  0  0  0  0
   21.5868   -9.8347  -15.3167 C   0  0  2  0  0  0  0  0  0  0  0  0
   21.8162  -10.5263  -16.5706 N   0  0  0  0  0  0  0  0  0  0  0  0
   22.2314   -8.4943  -15.4104 C   0  0  0  0  0  0  0  0  0  0  0  0
   23.3047   -8.3569  -16.0197 O   0  0  0  0  0  0  0  0  0  0  0  0
   16.3765   -4.3443  -17.0822 O   0  0  0  0  0  0  0  0  0  0  0  0
   17.7239   -4.5917  -16.8612 C   0  0  0  0  0  0  0  0  0  0  0  0
   18.4861   -3.9039  -15.9416 C   0  0  0  0  0  0  0  0  0  0  0  0
   19.8217   -4.1469  -15.7204 C   0  0  0  0  0  0  0  0  0  0  0  0
   20.4853   -5.1451  -16.4529 C   0  0  0  0  0  0  0  0  0  0  0  0
   21.9210   -5.4089  -16.2502 C   0  0  0  0  0  0  0  0  0  0  0  0
   22.1790   -6.0162  -14.9142 C   0  0  2  0  0  0  0  0  0  0  0  0
   21.6241   -7.3567  -14.8024 N   0  0  0  0  0  0  0  0  0  0  0  0
   21.7459   -5.1730  -13.7623 C   0  0  0  0  0  0  0  0  0  0  0  0
   22.2361   -3.9131  -13.4887 O   0  0  0  0  0  0  0  0  0  0  0  0
   19.7142   -5.8261  -17.3689 C   0  0  0  0  0  0  0  0  0  0  0  0
   18.3774   -5.5817  -17.5889 C   0  0  0  0  0  0  0  0  0  0  0  0
   20.8673   -5.6347  -12.9704 O   0  0  0  0  0  0  0  0  0  0  0  0
  2  1  1  0
  3  2  1  0
  3  4  1  6
  5  3  1  0
  5  6  1  1
  7  5  1  0
  7  8  2  0
  9 10  1  0
 10 11  1  0
 11 12  1  0
 13 12  1  1
 13 14  1  0
 14  7  1  0
 15 13  1  0
 16 15  2  0
 18 28  2  0
 18 17  1  0
 19 18  1  0
 20 21  1  0
 20 19  2  0
 21 27  2  0
 22 21  1  0
 23 22  1  6
 23 24  1  0
 24 15  1  0
 25 26  1  0
 25 23  1  0
 27 28  1  0
 29 25  2  0
M  END
$$$$
