IMY.pdb
     RDKit          3D

 29 29  0  0  1  0  0  0  0  0999 V2000
   17.5754  -18.5258  -17.7707 C   0  0  0  0  0  0  0  0  0  0  0  0
   18.5214  -19.0028  -16.7248 C   0  0  0  0  0  0  0  0  0  0  0  0
   19.9679  -18.7941  -17.0015 C   0  0  2  0  0  0  0  0  0  0  0  0
   20.3641  -19.3479  -18.3613 C   0  0  0  0  0  0  0  0  0  0  0  0
   20.9107  -19.2273  -15.9337 C   0  0  2  0  0  0  0  0  0  0  0  0
   20.5388  -18.6588  -14.6748 N   0  0  0  0  0  0  0  0  0  0  0  0
   22.3412  -18.9796  -16.2698 C   0  0  0  0  0  0  0  0  0  0  0  0
   22.8535  -19.6399  -17.2201 O   0  0  0  0  0  0  0  0  0  0  0  0
   25.7111  -13.3263  -16.1249 C   0  0  0  0  0  0  0  0  0  0  0  0
   26.7955  -14.4308  -15.1849 S   0  0  0  0  0  0  0  0  0  0  0  0
   26.3508  -16.1336  -15.5409 C   0  0  0  0  0  0  0  0  0  0  0  0
   24.9031  -16.4421  -15.3378 C   0  0  0  0  0  0  0  0  0  0  0  0
   24.5300  -17.8449  -15.7645 C   0  0  2  0  0  0  0  0  0  0  0  0
   23.1083  -18.0409  -15.5559 N   0  0  0  0  0  0  0  0  0  0  0  0
   25.2570  -18.7859  -14.8662 C   0  0  0  0  0  0  0  0  0  0  0  0
   24.9304  -18.8905  -13.6727 O   0  0  0  0  0  0  0  0  0  0  0  0
   24.4369  -20.4955   -8.7106 O   0  0  0  0  0  0  0  0  0  0  0  0
   24.7536  -20.7625  -10.0349 C   0  0  0  0  0  0  0  0  0  0  0  0
   23.8191  -20.8252  -11.0461 C   0  0  0  0  0  0  0  0  0  0  0  0
   24.1299  -21.0896  -12.3596 C   0  0  0  0  0  0  0  0  0  0  0  0
   25.4649  -21.3147  -12.7345 C   0  0  0  0  0  0  0  0  0  0  0  0
   25.8205  -21.6222  -14.1312 C   0  0  0  0  0  0  0  0  0  0  0  0
   26.8831  -20.7075  -14.6358 C   0  0  2  0  0  0  0  0  0  0  0  0
   26.3337  -19.5753  -15.3663 N   0  0  0  0  0  0  0  0  0  0  0  0
   27.9445  -21.3824  -15.4380 C   0  0  0  0  0  0  0  0  0  0  0  0
   29.0988  -21.9216  -14.9097 O   0  0  0  0  0  0  0  0  0  0  0  0
   26.3903  -21.2496  -11.7162 C   0  0  0  0  0  0  0  0  0  0  0  0
   26.0774  -20.9846  -10.4020 C   0  0  0  0  0  0  0  0  0  0  0  0
   27.7883  -21.4728  -16.6948 O   0  0  0  0  0  0  0  0  0  0  0  0
  2  1  1  0
  3  2  1  0
  3  4  1  6
  5  3  1  0
  5  6  1  1
  7  5  1  0
  7  8  2  0
  9 10  1  0
 10 11  1  0
 11 12  1  0
 13 12  1  1
 13 14  1  0
 14  7  1  0
 15 13  1  0
 16 15  2  0
 18 28  2  0
 18 17  1  0
 19 18  1  0
 20 21  1  0
 20 19  2  0
 21 27  2  0
 22 21  1  0
 23 22  1  6
 23 24  1  0
 24 15  1  0
 25 26  1  0
 25 23  1  0
 27 28  1  0
 29 25  2  0
M  END
$$$$
