IMY.pdb
     RDKit          3D

 29 29  0  0  1  0  0  0  0  0999 V2000
   29.5211  -22.6563  -17.7542 C   0  0  0  0  0  0  0  0  0  0  0  0
   28.5335  -21.6504  -17.2756 C   0  0  0  0  0  0  0  0  0  0  0  0
   27.6860  -22.0573  -16.1229 C   0  0  2  0  0  0  0  0  0  0  0  0
   27.0347  -23.4116  -16.3565 C   0  0  0  0  0  0  0  0  0  0  0  0
   26.7028  -21.0484  -15.6412 C   0  0  2  0  0  0  0  0  0  0  0  0
   27.3387  -19.7820  -15.4446 N   0  0  0  0  0  0  0  0  0  0  0  0
   25.9363  -21.4927  -14.4429 C   0  0  0  0  0  0  0  0  0  0  0  0
   25.1921  -22.5101  -14.5546 O   0  0  0  0  0  0  0  0  0  0  0  0
   27.3906  -21.2765   -7.8332 C   0  0  0  0  0  0  0  0  0  0  0  0
   25.8924  -20.2873   -8.0706 S   0  0  0  0  0  0  0  0  0  0  0  0
   25.0753  -20.8120   -9.5809 C   0  0  0  0  0  0  0  0  0  0  0  0
   25.8970  -20.6294  -10.8152 C   0  0  0  0  0  0  0  0  0  0  0  0
   25.1950  -21.0998  -12.0702 C   0  0  2  0  0  0  0  0  0  0  0  0
   26.0306  -20.8062  -13.2185 N   0  0  0  0  0  0  0  0  0  0  0  0
   23.9438  -20.3008  -12.2001 C   0  0  0  0  0  0  0  0  0  0  0  0
   23.9997  -19.0681  -12.3393 O   0  0  0  0  0  0  0  0  0  0  0  0
   21.0435  -22.8038  -18.1953 O   0  0  0  0  0  0  0  0  0  0  0  0
   21.1585  -21.9765  -17.0872 C   0  0  0  0  0  0  0  0  0  0  0  0
   22.3652  -21.5753  -16.5554 C   0  0  0  0  0  0  0  0  0  0  0  0
   22.4823  -20.7555  -15.4573 C   0  0  0  0  0  0  0  0  0  0  0  0
   21.3304  -20.2774  -14.8108 C   0  0  0  0  0  0  0  0  0  0  0  0
   21.4298  -19.4162  -13.6191 C   0  0  0  0  0  0  0  0  0  0  0  0
   21.4226  -20.2206  -12.3648 C   0  0  2  0  0  0  0  0  0  0  0  0
   22.6707  -20.9417  -12.1660 N   0  0  0  0  0  0  0  0  0  0  0  0
   20.2583  -21.1441  -12.2341 C   0  0  0  0  0  0  0  0  0  0  0  0
   20.3588  -22.5121  -12.0898 O   0  0  0  0  0  0  0  0  0  0  0  0
   20.1302  -20.6845  -15.3506 C   0  0  0  0  0  0  0  0  0  0  0  0
   20.0148  -21.5049  -16.4499 C   0  0  0  0  0  0  0  0  0  0  0  0
   19.0886  -20.6508  -12.2569 O   0  0  0  0  0  0  0  0  0  0  0  0
  2  1  1  0
  3  2  1  0
  3  4  1  6
  5  3  1  0
  5  6  1  1
  7  5  1  0
  7  8  2  0
  9 10  1  0
 10 11  1  0
 11 12  1  0
 13 12  1  1
 13 14  1  0
 14  7  1  0
 15 13  1  0
 16 15  2  0
 18 28  2  0
 18 17  1  0
 19 18  1  0
 20 21  1  0
 20 19  2  0
 21 27  2  0
 22 21  1  0
 23 22  1  6
 23 24  1  0
 24 15  1  0
 25 26  1  0
 25 23  1  0
 27 28  1  0
 29 25  2  0
M  END
$$$$
