IMY.pdb
     RDKit          3D

 29 29  0  0  1  0  0  0  0  0999 V2000
   25.4809  -16.4212  -21.0467 C   0  0  0  0  0  0  0  0  0  0  0  0
   24.8487  -16.9262  -19.7971 C   0  0  0  0  0  0  0  0  0  0  0  0
   25.4340  -18.1650  -19.2178 C   0  0  2  0  0  0  0  0  0  0  0  0
   25.5191  -19.2799  -20.2486 C   0  0  0  0  0  0  0  0  0  0  0  0
   24.8355  -18.6398  -17.9400 C   0  0  2  0  0  0  0  0  0  0  0  0
   24.7248  -17.5615  -17.0064 N   0  0  0  0  0  0  0  0  0  0  0  0
   25.5327  -19.8235  -17.3626 C   0  0  0  0  0  0  0  0  0  0  0  0
   25.5980  -20.8766  -18.0612 O   0  0  0  0  0  0  0  0  0  0  0  0
   29.9670  -20.1622  -12.1683 C   0  0  0  0  0  0  0  0  0  0  0  0
   29.1834  -18.7349  -12.9610 S   0  0  0  0  0  0  0  0  0  0  0  0
   27.7186  -19.2834  -13.8426 C   0  0  0  0  0  0  0  0  0  0  0  0
   27.9282  -20.5071  -14.6738 C   0  0  0  0  0  0  0  0  0  0  0  0
   26.6850  -20.9363  -15.4216 C   0  0  2  0  0  0  0  0  0  0  0  0
   26.1045  -19.7807  -16.0779 N   0  0  0  0  0  0  0  0  0  0  0  0
   25.7079  -21.4237  -14.4073 C   0  0  0  0  0  0  0  0  0  0  0  0
   25.8801  -22.5188  -13.8477 O   0  0  0  0  0  0  0  0  0  0  0  0
   26.9340  -22.3776   -7.9712 O   0  0  0  0  0  0  0  0  0  0  0  0
   26.0603  -21.8745   -8.9246 C   0  0  0  0  0  0  0  0  0  0  0  0
   24.9812  -21.0715   -8.6237 C   0  0  0  0  0  0  0  0  0  0  0  0
   24.1136  -20.5713   -9.5665 C   0  0  0  0  0  0  0  0  0  0  0  0
   24.3023  -20.8724  -10.9256 C   0  0  0  0  0  0  0  0  0  0  0  0
   23.3734  -20.3671  -11.9521 C   0  0  0  0  0  0  0  0  0  0  0  0
   23.4939  -21.1382  -13.2214 C   0  0  2  0  0  0  0  0  0  0  0  0
   24.5665  -20.6395  -14.0688 N   0  0  0  0  0  0  0  0  0  0  0  0
   22.2237  -21.2488  -13.9959 C   0  0  0  0  0  0  0  0  0  0  0  0
   21.1222  -21.9733  -13.5905 O   0  0  0  0  0  0  0  0  0  0  0  0
   25.3834  -21.6755  -11.2148 C   0  0  0  0  0  0  0  0  0  0  0  0
   26.2511  -22.1751  -10.2699 C   0  0  0  0  0  0  0  0  0  0  0  0
   22.1369  -20.6404  -15.1069 O   0  0  0  0  0  0  0  0  0  0  0  0
  2  1  1  0
  3  2  1  0
  3  4  1  6
  5  3  1  0
  5  6  1  1
  7  5  1  0
  7  8  2  0
  9 10  1  0
 10 11  1  0
 11 12  1  0
 13 12  1  1
 13 14  1  0
 14  7  1  0
 15 13  1  0
 16 15  2  0
 18 28  2  0
 18 17  1  0
 19 18  1  0
 20 21  1  0
 20 19  2  0
 21 27  2  0
 22 21  1  0
 23 22  1  1
 23 24  1  0
 24 15  1  0
 25 26  1  0
 25 23  1  0
 27 28  1  0
 29 25  2  0
M  END
$$$$
