IMY.pdb
     RDKit          3D

 29 29  0  0  1  0  0  0  0  0999 V2000
   23.6899  -17.5896  -20.9291 C   0  0  0  0  0  0  0  0  0  0  0  0
   22.8686  -16.6707  -20.0941 C   0  0  0  0  0  0  0  0  0  0  0  0
   23.1188  -15.2157  -20.2760 C   0  0  2  0  0  0  0  0  0  0  0  0
   24.5782  -14.8633  -20.0332 C   0  0  0  0  0  0  0  0  0  0  0  0
   22.2012  -14.2949  -19.5504 C   0  0  2  0  0  0  0  0  0  0  0  0
   20.8395  -14.5734  -19.8893 N   0  0  0  0  0  0  0  0  0  0  0  0
   22.5477  -12.8558  -19.7220 C   0  0  0  0  0  0  0  0  0  0  0  0
   23.7206  -12.4853  -19.4246 O   0  0  0  0  0  0  0  0  0  0  0  0
   20.5103  -10.2154  -25.5770 C   0  0  0  0  0  0  0  0  0  0  0  0
   20.0479   -9.6279  -23.9276 S   0  0  0  0  0  0  0  0  0  0  0  0
   21.2029  -10.2902  -22.7230 C   0  0  0  0  0  0  0  0  0  0  0  0
   20.9017   -9.9044  -21.3114 C   0  0  0  0  0  0  0  0  0  0  0  0
   21.8661  -10.5064  -20.3132 C   0  0  2  0  0  0  0  0  0  0  0  0
   21.6040  -11.9282  -20.1998 N   0  0  0  0  0  0  0  0  0  0  0  0
   21.5774   -9.8823  -18.9911 C   0  0  0  0  0  0  0  0  0  0  0  0
   20.6750  -10.3356  -18.2684 O   0  0  0  0  0  0  0  0  0  0  0  0
   21.3147   -6.3882  -11.1686 O   0  0  0  0  0  0  0  0  0  0  0  0
   21.7301   -6.8880  -12.3947 C   0  0  0  0  0  0  0  0  0  0  0  0
   22.3041   -6.1141  -13.3803 C   0  0  0  0  0  0  0  0  0  0  0  0
   22.7168   -6.6066  -14.5963 C   0  0  0  0  0  0  0  0  0  0  0  0
   22.5624   -7.9715  -14.8911 C   0  0  0  0  0  0  0  0  0  0  0  0
   22.9759   -8.5188  -16.1954 C   0  0  0  0  0  0  0  0  0  0  0  0
   22.0585   -8.0805  -17.2846 C   0  0  2  0  0  0  0  0  0  0  0  0
   22.3327   -8.7596  -18.5420 N   0  0  0  0  0  0  0  0  0  0  0  0
   22.0080   -6.6035  -17.4879 C   0  0  0  0  0  0  0  0  0  0  0  0
   21.2265   -5.7396  -16.7495 O   0  0  0  0  0  0  0  0  0  0  0  0
   21.9878   -8.7354  -13.8992 C   0  0  0  0  0  0  0  0  0  0  0  0
   21.5755   -8.2407  -12.6824 C   0  0  0  0  0  0  0  0  0  0  0  0
   22.7278   -6.0929  -18.4008 O   0  0  0  0  0  0  0  0  0  0  0  0
  2  1  1  0
  3  2  1  0
  3  4  1  1
  5  3  1  0
  5  6  1  6
  7  5  1  0
  7  8  2  0
  9 10  1  0
 10 11  1  0
 11 12  1  0
 13 12  1  6
 13 14  1  0
 14  7  1  0
 15 13  1  0
 16 15  2  0
 18 28  2  0
 18 17  1  0
 19 18  1  0
 20 21  1  0
 20 19  2  0
 21 27  2  0
 22 21  1  0
 23 22  1  1
 23 24  1  0
 24 15  1  0
 25 26  1  0
 25 23  1  0
 27 28  1  0
 29 25  2  0
M  END
$$$$
