IMY.pdb
     RDKit          3D

 29 29  0  0  1  0  0  0  0  0999 V2000
   29.8863  -18.3411  -15.7796 C   0  0  0  0  0  0  0  0  0  0  0  0
   28.4099  -18.4315  -15.6121 C   0  0  0  0  0  0  0  0  0  0  0  0
   27.8903  -19.6969  -15.0277 C   0  0  2  0  0  0  0  0  0  0  0  0
   28.4196  -20.9152  -15.7682 C   0  0  0  0  0  0  0  0  0  0  0  0
   26.4171  -19.7715  -14.8255 C   0  0  2  0  0  0  0  0  0  0  0  0
   25.8373  -18.4645  -14.8718 N   0  0  0  0  0  0  0  0  0  0  0  0
   26.0242  -20.5256  -13.6018 C   0  0  0  0  0  0  0  0  0  0  0  0
   26.0974  -21.7887  -13.6304 O   0  0  0  0  0  0  0  0  0  0  0  0
   28.8807  -20.5190   -7.7647 C   0  0  0  0  0  0  0  0  0  0  0  0
   27.2082  -19.8903   -8.0599 S   0  0  0  0  0  0  0  0  0  0  0  0
   26.5978  -20.5515   -9.6136 C   0  0  0  0  0  0  0  0  0  0  0  0
   25.2898  -19.9766  -10.0504 C   0  0  0  0  0  0  0  0  0  0  0  0
   24.8257  -20.5079  -11.3888 C   0  0  2  0  0  0  0  0  0  0  0  0
   25.5824  -19.8608  -12.4433 N   0  0  0  0  0  0  0  0  0  0  0  0
   23.3966  -20.1157  -11.5462 C   0  0  0  0  0  0  0  0  0  0  0  0
   23.0963  -18.9443  -11.8285 O   0  0  0  0  0  0  0  0  0  0  0  0
   17.0826  -21.4566  -17.1432 O   0  0  0  0  0  0  0  0  0  0  0  0
   18.2014  -21.4073  -16.3238 C   0  0  0  0  0  0  0  0  0  0  0  0
   19.4348  -21.9056  -16.6843 C   0  0  0  0  0  0  0  0  0  0  0  0
   20.5454  -21.8582  -15.8744 C   0  0  0  0  0  0  0  0  0  0  0  0
   20.4607  -21.2768  -14.5984 C   0  0  0  0  0  0  0  0  0  0  0  0
   21.6307  -21.2343  -13.7033 C   0  0  0  0  0  0  0  0  0  0  0  0
   21.2189  -21.1738  -12.2726 C   0  0  2  0  0  0  0  0  0  0  0  0
   22.3601  -21.0794  -11.3748 N   0  0  0  0  0  0  0  0  0  0  0  0
   20.3093  -22.2774  -11.8481 C   0  0  0  0  0  0  0  0  0  0  0  0
   20.7295  -23.5397  -11.4840 O   0  0  0  0  0  0  0  0  0  0  0  0
   19.2236  -20.7821  -14.2485 C   0  0  0  0  0  0  0  0  0  0  0  0
   18.1130  -20.8302  -15.0605 C   0  0  0  0  0  0  0  0  0  0  0  0
   19.0598  -22.0539  -11.8164 O   0  0  0  0  0  0  0  0  0  0  0  0
  2  1  1  0
  3  2  1  0
  3  4  1  6
  5  3  1  0
  5  6  1  1
  7  5  1  0
  7  8  2  0
  9 10  1  0
 10 11  1  0
 11 12  1  0
 13 12  1  1
 13 14  1  0
 14  7  1  0
 15 13  1  0
 16 15  2  0
 18 28  2  0
 18 17  1  0
 19 18  1  0
 20 21  1  0
 20 19  2  0
 21 27  2  0
 22 21  1  0
 23 22  1  6
 23 24  1  0
 24 15  1  0
 25 26  1  0
 25 23  1  0
 27 28  1  0
 29 25  2  0
M  END
$$$$
