IMY.pdb
     RDKit          3D

 29 29  0  0  1  0  0  0  0  0999 V2000
   29.3705  -16.4277  -17.8340 C   0  0  0  0  0  0  0  0  0  0  0  0
   28.1828  -16.8703  -17.0531 C   0  0  0  0  0  0  0  0  0  0  0  0
   28.3489  -18.1108  -16.2493 C   0  0  2  0  0  0  0  0  0  0  0  0
   28.9163  -19.2481  -17.0844 C   0  0  0  0  0  0  0  0  0  0  0  0
   27.1648  -18.5452  -15.4582 C   0  0  2  0  0  0  0  0  0  0  0  0
   26.7326  -17.4974  -14.5852 N   0  0  0  0  0  0  0  0  0  0  0  0
   27.3718  -19.8348  -14.7408 C   0  0  0  0  0  0  0  0  0  0  0  0
   27.5917  -20.8725  -15.4309 O   0  0  0  0  0  0  0  0  0  0  0  0
   32.5961  -21.5650  -10.9468 C   0  0  0  0  0  0  0  0  0  0  0  0
   30.9067  -21.2752  -10.3625 S   0  0  0  0  0  0  0  0  0  0  0  0
   29.7802  -21.3576  -11.7582 C   0  0  0  0  0  0  0  0  0  0  0  0
   28.3775  -20.9569  -11.4356 C   0  0  0  0  0  0  0  0  0  0  0  0
   27.4243  -21.1486  -12.5948 C   0  0  2  0  0  0  0  0  0  0  0  0
   27.3250  -19.9063  -13.3365 N   0  0  0  0  0  0  0  0  0  0  0  0
   26.0827  -21.4435  -12.0170 C   0  0  0  0  0  0  0  0  0  0  0  0
   25.8959  -22.4856  -11.3679 O   0  0  0  0  0  0  0  0  0  0  0  0
   26.7309  -20.4959   -5.9651 O   0  0  0  0  0  0  0  0  0  0  0  0
   25.9360  -20.3065   -7.0866 C   0  0  0  0  0  0  0  0  0  0  0  0
   26.2765  -19.4766   -8.1330 C   0  0  0  0  0  0  0  0  0  0  0  0
   25.4908  -19.2870   -9.2458 C   0  0  0  0  0  0  0  0  0  0  0  0
   24.2625  -19.9589   -9.3620 C   0  0  0  0  0  0  0  0  0  0  0  0
   23.3925  -19.7549  -10.5339 C   0  0  0  0  0  0  0  0  0  0  0  0
   23.6884  -20.7429  -11.6093 C   0  0  2  0  0  0  0  0  0  0  0  0
   25.0005  -20.5342  -12.2028 N   0  0  0  0  0  0  0  0  0  0  0  0
   22.6423  -20.8284  -12.6695 C   0  0  0  0  0  0  0  0  0  0  0  0
   21.3342  -21.2054  -12.4476 O   0  0  0  0  0  0  0  0  0  0  0  0
   23.9323  -20.7855   -8.3107 C   0  0  0  0  0  0  0  0  0  0  0  0
   24.7201  -20.9743   -7.1977 C   0  0  0  0  0  0  0  0  0  0  0  0
   22.9644  -20.5382  -13.8629 O   0  0  0  0  0  0  0  0  0  0  0  0
  2  1  1  0
  3  2  1  0
  3  4  1  6
  5  3  1  0
  5  6  1  1
  7  5  1  0
  7  8  2  0
  9 10  1  0
 10 11  1  0
 11 12  1  0
 13 12  1  1
 13 14  1  0
 14  7  1  0
 15 13  1  0
 16 15  2  0
 18 28  2  0
 18 17  1  0
 19 18  1  0
 20 21  1  0
 20 19  2  0
 21 27  2  0
 22 21  1  0
 23 22  1  1
 23 24  1  0
 24 15  1  0
 25 26  1  0
 25 23  1  0
 27 28  1  0
 29 25  2  0
M  END
$$$$
