IMY.pdb
     RDKit          3D

 29 29  0  0  1  0  0  0  0  0999 V2000
   28.3511  -20.9238  -24.4650 C   0  0  0  0  0  0  0  0  0  0  0  0
   27.1171  -20.1880  -24.0750 C   0  0  0  0  0  0  0  0  0  0  0  0
   26.7987  -20.1610  -22.6222 C   0  0  2  0  0  0  0  0  0  0  0  0
   26.8407  -21.5539  -22.0132 C   0  0  0  0  0  0  0  0  0  0  0  0
   25.5636  -19.4262  -22.2334 C   0  0  2  0  0  0  0  0  0  0  0  0
   25.6029  -18.0832  -22.7248 N   0  0  0  0  0  0  0  0  0  0  0  0
   25.2706  -19.4900  -20.7737 C   0  0  0  0  0  0  0  0  0  0  0  0
   25.1959  -20.6302  -20.2297 O   0  0  0  0  0  0  0  0  0  0  0  0
   27.3502  -15.8633  -15.5190 C   0  0  0  0  0  0  0  0  0  0  0  0
   25.5645  -15.5895  -15.6441 S   0  0  0  0  0  0  0  0  0  0  0  0
   24.8179  -16.9713  -16.5143 C   0  0  0  0  0  0  0  0  0  0  0  0
   25.2614  -17.1105  -17.9341 C   0  0  0  0  0  0  0  0  0  0  0  0
   24.6830  -18.3291  -18.6194 C   0  0  2  0  0  0  0  0  0  0  0  0
   25.0802  -18.3212  -20.0142 N   0  0  0  0  0  0  0  0  0  0  0  0
   23.1992  -18.2006  -18.5668 C   0  0  0  0  0  0  0  0  0  0  0  0
   22.6264  -17.2959  -19.1957 O   0  0  0  0  0  0  0  0  0  0  0  0
   14.6536  -19.7217  -17.1501 O   0  0  0  0  0  0  0  0  0  0  0  0
   16.0336  -19.8650  -17.1707 C   0  0  0  0  0  0  0  0  0  0  0  0
   16.8080  -19.9671  -16.0351 C   0  0  0  0  0  0  0  0  0  0  0  0
   18.1760  -20.1092  -16.0524 C   0  0  0  0  0  0  0  0  0  0  0  0
   18.8624  -20.1574  -17.2771 C   0  0  0  0  0  0  0  0  0  0  0  0
   20.3298  -20.2864  -17.3214 C   0  0  0  0  0  0  0  0  0  0  0  0
   20.9805  -18.9854  -17.6441 C   0  0  2  0  0  0  0  0  0  0  0  0
   22.4221  -19.1134  -17.7951 N   0  0  0  0  0  0  0  0  0  0  0  0
   20.6497  -17.8815  -16.6968 C   0  0  0  0  0  0  0  0  0  0  0  0
   21.0999  -17.8080  -15.3951 O   0  0  0  0  0  0  0  0  0  0  0  0
   18.0787  -20.0545  -18.4053 C   0  0  0  0  0  0  0  0  0  0  0  0
   16.7096  -19.9125  -18.3862 C   0  0  0  0  0  0  0  0  0  0  0  0
   19.9023  -16.9388  -17.1027 O   0  0  0  0  0  0  0  0  0  0  0  0
  2  1  1  0
  3  2  1  0
  3  4  1  6
  5  3  1  0
  5  6  1  1
  7  5  1  0
  7  8  2  0
  9 10  1  0
 10 11  1  0
 11 12  1  0
 13 12  1  1
 13 14  1  0
 14  7  1  0
 15 13  1  0
 16 15  2  0
 18 28  2  0
 18 17  1  0
 19 18  1  0
 20 21  1  0
 20 19  2  0
 21 27  2  0
 22 21  1  0
 23 22  1  1
 23 24  1  0
 24 15  1  0
 25 26  1  0
 25 23  1  0
 27 28  1  0
 29 25  2  0
M  END
$$$$
