RQE.pdb
     RDKit          3D

 30 29  0  0  1  0  0  0  0  0999 V2000
    7.2919  -13.1672   15.3423 N   0  0  0  0  0  0  0  0  0  0  0  0
    8.6114  -13.6943   15.2572 C   0  0  0  0  0  0  0  0  0  0  0  0
    9.3228  -13.4321   14.2196 N   0  0  0  0  0  0  0  0  0  0  0  0
    9.1357  -14.4975   16.3064 N   0  0  0  0  0  0  0  0  0  0  0  0
    8.1860  -15.2147   17.1507 C   0  0  0  0  0  0  0  0  0  0  0  0
    7.3975  -14.2661   17.9899 C   0  0  0  0  0  0  0  0  0  0  0  0
    8.0872  -13.9851   19.2804 C   0  0  0  0  0  0  0  0  0  0  0  0
    7.9934  -15.1653   20.2101 C   0  0  2  0  0  0  0  0  0  0  0  0
    6.5853  -15.4146   20.4286 N   0  0  0  0  0  0  0  0  0  0  0  0
    8.5866  -14.8149   21.5535 C   0  0  0  0  0  0  0  0  0  0  0  0
    9.7844  -14.4720   21.6145 O   0  0  0  0  0  0  0  0  0  0  0  0
   10.2651  -13.7957   14.0488 N   0  0  0  0  0  0  0  0  0  0  0  0
    5.3982  -13.2332   26.4364 C   0  0  0  0  0  0  0  0  0  0  0  0
    6.3341  -12.2076   26.0881 O   0  0  0  0  0  0  0  0  0  0  0  0
    6.2360  -11.1035   26.6314 C   0  0  0  0  0  0  0  0  0  0  0  0
    7.3972  -12.5439   25.0644 C   0  0  0  0  0  0  0  0  0  0  0  0
    7.4436  -14.0170   24.9909 C   0  0  2  0  0  0  0  0  0  0  0  0
    8.4825  -14.6087   24.0589 N   0  0  0  0  0  0  0  0  0  0  0  0
    7.8443  -14.8583   22.7473 C   0  0  0  0  0  0  0  0  0  0  0  0
    8.9361  -15.8883   24.6504 O   0  0  0  0  0  0  0  0  0  0  0  0
    8.1943  -16.8835   24.5879 N   0  0  0  0  0  0  0  0  0  0  0  0
   10.2021  -16.0459   25.2991 C   0  0  1  0  0  0  0  0  0  0  0  0
   10.6700  -17.3470   25.7704 C   0  0  0  0  0  0  0  0  0  0  0  0
   12.0089  -17.5774   25.1747 C   0  0  0  0  0  0  0  0  0  0  0  0
   12.7527  -18.7949   25.5366 C   0  0  0  0  0  0  0  0  0  0  0  0
   14.0755  -18.9988   24.9644 O   0  0  0  0  0  0  0  0  0  0  0  0
   14.3774  -19.4557   23.8430 C   0  0  0  0  0  0  0  0  0  0  0  0
   10.4826  -17.5956   27.1868 O   0  0  0  0  0  0  0  0  0  0  0  0
   10.2193  -16.6194   27.9517 O   0  0  0  0  0  0  0  0  0  0  0  0
   15.1635  -18.6267   25.7974 O   0  0  0  0  0  0  0  0  0  0  0  0
  1  2  1  0
  2  3  2  0
  4  5  1  0
  4  2  1  0
  6  5  1  0
  7  6  1  0
  8 10  1  0
  8  7  1  0
  8  9  1  1
 10 11  2  0
 13 15  1  0
 13 12  1  0
 14 13  2  0
 17 16  1  6
 16 15  1  0
 18 17  1  0
 18 10  1  0
 19 20  2  0
 19 17  1  0
 21 19  1  0
 22 27  1  0
 22 21  1  0
 22 23  1  1
 24 25  1  0
 24 23  1  0
 25 26  2  0
 27 30  1  0
 28 27  2  0
 29 25  1  0
M  END
$$$$
