RQE.pdb
     RDKit          3D

 30 29  0  0  1  0  0  0  0  0999 V2000
    7.6332  -12.2614   20.1295 N   0  0  0  0  0  0  0  0  0  0  0  0
    7.6067  -12.6027   18.7478 C   0  0  0  0  0  0  0  0  0  0  0  0
    6.4744  -12.6768   18.1446 N   0  0  0  0  0  0  0  0  0  0  0  0
    8.8159  -12.8558   18.0446 N   0  0  0  0  0  0  0  0  0  0  0  0
   10.0432  -12.9704   18.8254 C   0  0  0  0  0  0  0  0  0  0  0  0
   10.4440  -14.3990   18.9810 C   0  0  0  0  0  0  0  0  0  0  0  0
   10.6824  -14.7403   20.4115 C   0  0  0  0  0  0  0  0  0  0  0  0
   11.2169  -16.1407   20.5501 C   0  0  2  0  0  0  0  0  0  0  0  0
   10.0853  -17.0339   20.4310 N   0  0  0  0  0  0  0  0  0  0  0  0
   11.7871  -16.3431   21.9333 C   0  0  0  0  0  0  0  0  0  0  0  0
   11.1805  -15.8653   22.9130 O   0  0  0  0  0  0  0  0  0  0  0  0
    6.3557  -12.8423   17.1407 N   0  0  0  0  0  0  0  0  0  0  0  0
   10.9202  -20.2360   25.5600 C   0  0  0  0  0  0  0  0  0  0  0  0
   12.1661  -20.4413   24.8858 O   0  0  0  0  0  0  0  0  0  0  0  0
   12.9114  -21.3450   25.2754 C   0  0  0  0  0  0  0  0  0  0  0  0
   12.4962  -19.5281   23.7246 C   0  0  0  0  0  0  0  0  0  0  0  0
   12.6270  -18.1729   24.2938 C   0  0  1  0  0  0  0  0  0  0  0  0
   13.5213  -17.2116   23.5359 N   0  0  0  0  0  0  0  0  0  0  0  0
   12.9796  -17.0505   22.1682 C   0  0  0  0  0  0  0  0  0  0  0  0
   14.8732  -17.8130   23.4751 O   0  0  0  0  0  0  0  0  0  0  0  0
   15.0604  -18.8174   22.7675 N   0  0  0  0  0  0  0  0  0  0  0  0
   15.9949  -17.2927   24.1960 C   0  0  1  0  0  0  0  0  0  0  0  0
   17.3561  -17.7595   23.9452 C   0  0  0  0  0  0  0  0  0  0  0  0
   18.2330  -16.5636   23.9050 C   0  0  0  0  0  0  0  0  0  0  0  0
   18.5763  -15.9724   22.6015 C   0  0  0  0  0  0  0  0  0  0  0  0
   19.5552  -14.8958   22.5615 O   0  0  0  0  0  0  0  0  0  0  0  0
   20.2145  -14.4068   23.5015 C   0  0  0  0  0  0  0  0  0  0  0  0
   17.7716  -18.9052   24.7313 O   0  0  0  0  0  0  0  0  0  0  0  0
   17.0171  -19.3159   25.6638 O   0  0  0  0  0  0  0  0  0  0  0  0
   19.7866  -14.3301   21.2799 O   0  0  0  0  0  0  0  0  0  0  0  0
  1  2  1  0
  2  3  2  0
  4  5  1  0
  4  2  1  0
  6  5  1  0
  7  6  1  0
  8 10  1  0
  8  7  1  0
  8  9  1  1
 10 11  2  0
 13 15  1  0
 13 12  1  0
 14 13  2  0
 17 16  1  1
 16 15  1  0
 18 17  1  0
 18 10  1  0
 19 20  2  0
 19 17  1  0
 21 19  1  0
 22 27  1  0
 22 21  1  0
 22 23  1  1
 24 25  1  0
 24 23  1  0
 25 26  2  0
 27 30  1  0
 28 27  2  0
 29 25  1  0
M  END
$$$$
