RQE.pdb
     RDKit          3D

 30 29  0  0  1  0  0  0  0  0999 V2000
   14.5037  -21.4584   17.0620 N   0  0  0  0  0  0  0  0  0  0  0  0
   13.6519  -21.5877   18.1951 C   0  0  0  0  0  0  0  0  0  0  0  0
   13.0569  -22.7073   18.4045 N   0  0  0  0  0  0  0  0  0  0  0  0
   13.4639  -20.4942   19.0838 N   0  0  0  0  0  0  0  0  0  0  0  0
   12.8289  -19.2918   18.5547 C   0  0  0  0  0  0  0  0  0  0  0  0
   12.3402  -19.5160   17.1630 C   0  0  0  0  0  0  0  0  0  0  0  0
   11.7286  -18.2797   16.5997 C   0  0  0  0  0  0  0  0  0  0  0  0
   10.4462  -17.9400   17.3112 C   0  0  2  0  0  0  0  0  0  0  0  0
    9.6416  -17.1777   16.3817 N   0  0  0  0  0  0  0  0  0  0  0  0
   10.7296  -17.0344   18.4855 C   0  0  0  0  0  0  0  0  0  0  0  0
   11.7686  -16.3443   18.4798 O   0  0  0  0  0  0  0  0  0  0  0  0
   12.3961  -22.8855   19.1667 N   0  0  0  0  0  0  0  0  0  0  0  0
    6.7068  -14.5929   22.3787 C   0  0  0  0  0  0  0  0  0  0  0  0
    6.8583  -14.1836   21.0155 O   0  0  0  0  0  0  0  0  0  0  0  0
    5.9656  -13.5088   20.4943 C   0  0  0  0  0  0  0  0  0  0  0  0
    8.1170  -14.6080   20.2895 C   0  0  0  0  0  0  0  0  0  0  0  0
    8.8731  -15.4485   21.2379 C   0  0  2  0  0  0  0  0  0  0  0  0
   10.1753  -16.0313   20.7254 N   0  0  0  0  0  0  0  0  0  0  0  0
    9.8688  -16.9336   19.5931 C   0  0  0  0  0  0  0  0  0  0  0  0
   10.7863  -16.8017   21.8327 O   0  0  0  0  0  0  0  0  0  0  0  0
   10.3944  -17.9597   22.0561 N   0  0  0  0  0  0  0  0  0  0  0  0
   11.8209  -16.2792   22.6725 C   0  0  1  0  0  0  0  0  0  0  0  0
   12.3449  -17.0324   23.8092 C   0  0  0  0  0  0  0  0  0  0  0  0
   13.7860  -16.7024   23.9313 C   0  0  0  0  0  0  0  0  0  0  0  0
   14.5964  -16.5751   22.7092 C   0  0  0  0  0  0  0  0  0  0  0  0
   15.9902  -16.1753   22.8365 O   0  0  0  0  0  0  0  0  0  0  0  0
   17.0027  -16.7103   22.3406 C   0  0  0  0  0  0  0  0  0  0  0  0
   11.5185  -17.0084   25.0006 O   0  0  0  0  0  0  0  0  0  0  0  0
   11.8659  -17.7030   26.0027 O   0  0  0  0  0  0  0  0  0  0  0  0
   16.2231  -15.0226   23.6323 O   0  0  0  0  0  0  0  0  0  0  0  0
  1  2  1  0
  2  3  2  0
  4  5  1  0
  4  2  1  0
  6  5  1  0
  7  6  1  0
  8 10  1  0
  8  7  1  0
  8  9  1  6
 10 11  2  0
 13 15  1  0
 13 12  1  0
 14 13  2  0
 17 16  1  6
 16 15  1  0
 18 17  1  0
 18 10  1  0
 19 20  2  0
 19 17  1  0
 21 19  1  0
 22 27  1  0
 22 21  1  0
 22 23  1  1
 24 25  1  0
 24 23  1  0
 25 26  2  0
 27 30  1  0
 28 27  2  0
 29 25  1  0
M  END
$$$$
