RQE.pdb
     RDKit          3D

 30 29  0  0  1  0  0  0  0  0999 V2000
    8.8545  -12.3155   19.9893 N   0  0  0  0  0  0  0  0  0  0  0  0
    8.1320  -12.6973   18.8237 C   0  0  0  0  0  0  0  0  0  0  0  0
    7.1720  -11.9492   18.4112 N   0  0  0  0  0  0  0  0  0  0  0  0
    8.4694  -13.8882   18.1245 N   0  0  0  0  0  0  0  0  0  0  0  0
    9.3935  -14.8147   18.7698 C   0  0  0  0  0  0  0  0  0  0  0  0
    8.7425  -15.4980   19.9253 C   0  0  0  0  0  0  0  0  0  0  0  0
    9.2570  -16.8864   20.0914 C   0  0  0  0  0  0  0  0  0  0  0  0
    8.6464  -17.5470   21.2983 C   0  0  2  0  0  0  0  0  0  0  0  0
    7.2274  -17.2699   21.2537 N   0  0  0  0  0  0  0  0  0  0  0  0
    9.1746  -16.9092   22.5607 C   0  0  0  0  0  0  0  0  0  0  0  0
   10.3998  -16.9491   22.7911 O   0  0  0  0  0  0  0  0  0  0  0  0
    6.5861  -12.1461   17.5944 N   0  0  0  0  0  0  0  0  0  0  0  0
    5.8993  -13.5553   26.5541 C   0  0  0  0  0  0  0  0  0  0  0  0
    6.6643  -12.7608   25.6417 O   0  0  0  0  0  0  0  0  0  0  0  0
    6.3645  -11.5727   25.4918 C   0  0  0  0  0  0  0  0  0  0  0  0
    7.8054  -13.4336   24.9093 C   0  0  0  0  0  0  0  0  0  0  0  0
    7.8308  -14.8302   25.3853 C   0  0  2  0  0  0  0  0  0  0  0  0
    8.8802  -15.7305   24.7640 N   0  0  0  0  0  0  0  0  0  0  0  0
    8.3414  -16.2681   23.4949 C   0  0  0  0  0  0  0  0  0  0  0  0
    9.1362  -16.8387   25.7124 O   0  0  0  0  0  0  0  0  0  0  0  0
    8.2900  -17.7404   25.8362 N   0  0  0  0  0  0  0  0  0  0  0  0
   10.3236  -16.9316   26.5061 C   0  0  1  0  0  0  0  0  0  0  0  0
   10.5589  -18.0524   27.4128 C   0  0  0  0  0  0  0  0  0  0  0  0
   11.6183  -18.8959   26.8071 C   0  0  0  0  0  0  0  0  0  0  0  0
   12.0563  -20.1106   27.5136 C   0  0  0  0  0  0  0  0  0  0  0  0
   13.3630  -20.6678   27.1961 O   0  0  0  0  0  0  0  0  0  0  0  0
   13.8106  -21.0212   26.0860 C   0  0  0  0  0  0  0  0  0  0  0  0
   10.6614  -17.7015   28.8162 O   0  0  0  0  0  0  0  0  0  0  0  0
   10.4726  -18.6012   29.6893 O   0  0  0  0  0  0  0  0  0  0  0  0
   14.2413  -20.8287   28.3001 O   0  0  0  0  0  0  0  0  0  0  0  0
  1  2  1  0
  2  3  2  0
  4  5  1  0
  4  2  1  0
  6  5  1  0
  7  6  1  0
  8 10  1  0
  8  7  1  0
  8  9  1  6
 10 11  2  0
 13 15  1  0
 13 12  1  0
 14 13  2  0
 17 16  1  6
 16 15  1  0
 18 17  1  0
 18 10  1  0
 19 20  2  0
 19 17  1  0
 21 19  1  0
 22 27  1  0
 22 21  1  0
 22 23  1  1
 24 25  1  0
 24 23  1  0
 25 26  2  0
 27 30  1  0
 28 27  2  0
 29 25  1  0
M  END
$$$$
