RQE.pdb
     RDKit          3D

 30 29  0  0  1  0  0  0  0  0999 V2000
    6.0968  -13.4799   20.0629 N   0  0  0  0  0  0  0  0  0  0  0  0
    7.2123  -13.8128   20.8822 C   0  0  0  0  0  0  0  0  0  0  0  0
    7.0271  -14.5459   21.9212 N   0  0  0  0  0  0  0  0  0  0  0  0
    8.5131  -13.3427   20.5542 N   0  0  0  0  0  0  0  0  0  0  0  0
    8.6455  -12.4679   19.3940 C   0  0  0  0  0  0  0  0  0  0  0  0
    9.5116  -13.0926   18.3521 C   0  0  0  0  0  0  0  0  0  0  0  0
   10.6031  -13.8976   18.9688 C   0  0  0  0  0  0  0  0  0  0  0  0
   11.4748  -14.5229   17.9126 C   0  0  2  0  0  0  0  0  0  0  0  0
   10.6727  -15.5273   17.2492 N   0  0  0  0  0  0  0  0  0  0  0  0
   12.6319  -15.2468   18.5579 C   0  0  0  0  0  0  0  0  0  0  0  0
   12.4477  -16.3913   19.0185 O   0  0  0  0  0  0  0  0  0  0  0  0
    7.7508  -14.7844   22.6059 N   0  0  0  0  0  0  0  0  0  0  0  0
   15.8357  -12.7677   16.7873 C   0  0  0  0  0  0  0  0  0  0  0  0
   16.9546  -13.6441   16.9572 O   0  0  0  0  0  0  0  0  0  0  0  0
   18.0754  -13.2495   16.6225 C   0  0  0  0  0  0  0  0  0  0  0  0
   16.6917  -15.0150   17.5429 C   0  0  0  0  0  0  0  0  0  0  0  0
   16.3261  -14.7935   18.9554 C   0  0  2  0  0  0  0  0  0  0  0  0
   14.9986  -15.3732   19.4023 N   0  0  0  0  0  0  0  0  0  0  0  0
   13.9167  -14.6846   18.6639 C   0  0  0  0  0  0  0  0  0  0  0  0
   14.8634  -15.1123   20.8538 O   0  0  0  0  0  0  0  0  0  0  0  0
   15.1636  -13.9921   21.3005 N   0  0  0  0  0  0  0  0  0  0  0  0
   14.3972  -16.0935   21.7857 C   0  0  1  0  0  0  0  0  0  0  0  0
   14.3470  -15.8302   23.2216 C   0  0  0  0  0  0  0  0  0  0  0  0
   13.0240  -16.2910   23.7094 C   0  0  0  0  0  0  0  0  0  0  0  0
   12.6978  -17.7249   23.6442 C   0  0  0  0  0  0  0  0  0  0  0  0
   11.4451  -18.1811   24.2286 O   0  0  0  0  0  0  0  0  0  0  0  0
   10.7709  -19.1899   23.9367 C   0  0  0  0  0  0  0  0  0  0  0  0
   15.5356  -16.2083   23.9615 O   0  0  0  0  0  0  0  0  0  0  0  0
   15.6726  -15.7993   25.1537 O   0  0  0  0  0  0  0  0  0  0  0  0
   10.9254  -17.3660   25.2686 O   0  0  0  0  0  0  0  0  0  0  0  0
  1  2  1  0
  2  3  2  0
  4  5  1  0
  4  2  1  0
  6  5  1  0
  7  6  1  0
  8 10  1  0
  8  7  1  0
  8  9  1  1
 10 11  2  0
 13 15  1  0
 13 12  1  0
 14 13  2  0
 17 16  1  6
 16 15  1  0
 18 17  1  0
 18 10  1  0
 19 20  2  0
 19 17  1  0
 21 19  1  0
 22 27  1  0
 22 21  1  0
 22 23  1  1
 24 25  1  0
 24 23  1  0
 25 26  2  0
 27 30  1  0
 28 27  2  0
 29 25  1  0
M  END
$$$$
