RQE.pdb
     RDKit          3D

 30 29  0  0  1  0  0  0  0  0999 V2000
    9.4512  -13.3559   15.7187 N   0  0  0  0  0  0  0  0  0  0  0  0
    8.1342  -13.1612   15.2148 C   0  0  0  0  0  0  0  0  0  0  0  0
    7.9454  -12.3049   14.2754 N   0  0  0  0  0  0  0  0  0  0  0  0
    7.0436  -13.9052   15.7420 N   0  0  0  0  0  0  0  0  0  0  0  0
    6.7667  -13.7836   17.1693 C   0  0  0  0  0  0  0  0  0  0  0  0
    8.0215  -13.5302   17.9356 C   0  0  0  0  0  0  0  0  0  0  0  0
    7.7467  -13.4001   19.3941 C   0  0  0  0  0  0  0  0  0  0  0  0
    7.9194  -14.7209   20.0953 C   0  0  2  0  0  0  0  0  0  0  0  0
    6.5934  -15.2595   20.3051 N   0  0  0  0  0  0  0  0  0  0  0  0
    8.5230  -14.5066   21.4625 C   0  0  0  0  0  0  0  0  0  0  0  0
    9.3914  -13.6231   21.6080 O   0  0  0  0  0  0  0  0  0  0  0  0
    7.0385  -12.0964   13.8470 N   0  0  0  0  0  0  0  0  0  0  0  0
    6.2644  -13.4167   26.5889 C   0  0  0  0  0  0  0  0  0  0  0  0
    6.6658  -12.4855   25.5787 O   0  0  0  0  0  0  0  0  0  0  0  0
    6.1905  -11.3463   25.5972 C   0  0  0  0  0  0  0  0  0  0  0  0
    7.6587  -12.9600   24.5393 C   0  0  0  0  0  0  0  0  0  0  0  0
    7.9168  -14.3818   24.8385 C   0  0  2  0  0  0  0  0  0  0  0  0
    8.8427  -15.1097   23.8841 N   0  0  0  0  0  0  0  0  0  0  0  0
    8.1478  -15.2638   22.5867 C   0  0  0  0  0  0  0  0  0  0  0  0
    9.1259  -16.4419   24.4655 O   0  0  0  0  0  0  0  0  0  0  0  0
    8.3136  -16.9428   25.2617 N   0  0  0  0  0  0  0  0  0  0  0  0
   10.3010  -17.1979   24.1554 C   0  0  2  0  0  0  0  0  0  0  0  0
   11.3456  -17.4403   25.1474 C   0  0  0  0  0  0  0  0  0  0  0  0
   12.5804  -16.7787   24.6593 C   0  0  0  0  0  0  0  0  0  0  0  0
   13.6131  -17.5919   23.9968 C   0  0  0  0  0  0  0  0  0  0  0  0
   14.8130  -16.9293   23.5070 O   0  0  0  0  0  0  0  0  0  0  0  0
   14.9078  -15.8614   22.8681 C   0  0  0  0  0  0  0  0  0  0  0  0
   10.9455  -17.2435   26.5274 O   0  0  0  0  0  0  0  0  0  0  0  0
   10.2959  -16.1991   26.8351 O   0  0  0  0  0  0  0  0  0  0  0  0
   16.0356  -17.5905   23.7973 O   0  0  0  0  0  0  0  0  0  0  0  0
  1  2  1  0
  2  3  2  0
  4  5  1  0
  4  2  1  0
  6  5  1  0
  7  6  1  0
  8 10  1  0
  8  7  1  0
  8  9  1  1
 10 11  2  0
 13 15  1  0
 13 12  1  0
 14 13  2  0
 17 16  1  6
 16 15  1  0
 18 17  1  0
 18 10  1  0
 19 20  2  0
 19 17  1  0
 21 19  1  0
 22 27  1  0
 22 21  1  0
 22 23  1  6
 24 25  1  0
 24 23  1  0
 25 26  2  0
 27 30  1  0
 28 27  2  0
 29 25  1  0
M  END
$$$$
