RQE.pdb
     RDKit          3D

 30 29  0  0  1  0  0  0  0  0999 V2000
   15.5102  -17.3996   13.9408 N   0  0  0  0  0  0  0  0  0  0  0  0
   14.3454  -17.6485   13.1611 C   0  0  0  0  0  0  0  0  0  0  0  0
   14.3768  -18.5733   12.2695 N   0  0  0  0  0  0  0  0  0  0  0  0
   13.1636  -16.8860   13.3677 N   0  0  0  0  0  0  0  0  0  0  0  0
   13.1459  -15.9528   14.4891 C   0  0  0  0  0  0  0  0  0  0  0  0
   12.7025  -16.6327   15.7409 C   0  0  0  0  0  0  0  0  0  0  0  0
   12.6986  -15.6904   16.8950 C   0  0  0  0  0  0  0  0  0  0  0  0
   12.3684  -16.4083   18.1763 C   0  0  2  0  0  0  0  0  0  0  0  0
   11.1766  -17.1880   17.9236 N   0  0  0  0  0  0  0  0  0  0  0  0
   12.0154  -15.4105   19.2529 C   0  0  0  0  0  0  0  0  0  0  0  0
   12.9182  -14.6989   19.7371 O   0  0  0  0  0  0  0  0  0  0  0  0
   13.5690  -18.8878   11.7237 N   0  0  0  0  0  0  0  0  0  0  0  0
    6.9074  -12.2370   19.9503 C   0  0  0  0  0  0  0  0  0  0  0  0
    6.8856  -13.5757   19.4440 O   0  0  0  0  0  0  0  0  0  0  0  0
    5.8719  -13.9759   18.8641 C   0  0  0  0  0  0  0  0  0  0  0  0
    8.1198  -14.4269   19.6532 C   0  0  0  0  0  0  0  0  0  0  0  0
    9.0605  -13.5994   20.4330 C   0  0  1  0  0  0  0  0  0  0  0  0
   10.3904  -14.2408   20.7766 N   0  0  0  0  0  0  0  0  0  0  0  0
   10.7054  -15.2466   19.7377 C   0  0  0  0  0  0  0  0  0  0  0  0
   10.2394  -14.9048   22.0917 O   0  0  0  0  0  0  0  0  0  0  0  0
    9.9181  -14.2261   23.0819 N   0  0  0  0  0  0  0  0  0  0  0  0
   10.4446  -16.3075   22.2888 C   0  0  1  0  0  0  0  0  0  0  0  0
   10.4071  -16.9127   23.6178 C   0  0  0  0  0  0  0  0  0  0  0  0
    9.1614  -17.7136   23.7035 C   0  0  0  0  0  0  0  0  0  0  0  0
    8.8741  -18.4587   24.9400 C   0  0  0  0  0  0  0  0  0  0  0  0
    7.6906  -19.3050   24.9839 O   0  0  0  0  0  0  0  0  0  0  0  0
    7.6200  -20.5366   25.1729 C   0  0  0  0  0  0  0  0  0  0  0  0
   11.6529  -17.5076   24.0617 O   0  0  0  0  0  0  0  0  0  0  0  0
   12.4708  -17.9386   23.1941 O   0  0  0  0  0  0  0  0  0  0  0  0
    6.4548  -18.6350   24.7842 O   0  0  0  0  0  0  0  0  0  0  0  0
  1  2  1  0
  2  3  2  0
  4  5  1  0
  4  2  1  0
  6  5  1  0
  7  6  1  0
  8 10  1  0
  8  7  1  0
  8  9  1  6
 10 11  2  0
 13 15  1  0
 13 12  1  0
 14 13  2  0
 17 16  1  6
 16 15  1  0
 18 17  1  0
 18 10  1  0
 19 20  2  0
 19 17  1  0
 21 19  1  0
 22 27  1  0
 22 21  1  0
 22 23  1  1
 24 25  1  0
 24 23  1  0
 25 26  2  0
 27 30  1  0
 28 27  2  0
 29 25  1  0
M  END
$$$$
