RQE.pdb
     RDKit          3D

 30 29  0  0  1  0  0  0  0  0999 V2000
    9.0728  -14.3412   15.8454 N   0  0  0  0  0  0  0  0  0  0  0  0
    7.7584  -13.8716   15.5660 C   0  0  0  0  0  0  0  0  0  0  0  0
    7.2186  -14.1620   14.4365 N   0  0  0  0  0  0  0  0  0  0  0  0
    7.0521  -13.0942   16.5239 N   0  0  0  0  0  0  0  0  0  0  0  0
    7.6493  -12.9409   17.8463 C   0  0  0  0  0  0  0  0  0  0  0  0
    7.7770  -14.2612   18.5292 C   0  0  0  0  0  0  0  0  0  0  0  0
    8.5564  -14.1421   19.7934 C   0  0  0  0  0  0  0  0  0  0  0  0
    9.0382  -15.4902   20.2590 C   0  0  2  0  0  0  0  0  0  0  0  0
    8.0174  -16.4479   19.8944 N   0  0  0  0  0  0  0  0  0  0  0  0
    9.1378  -15.5128   21.7653 C   0  0  0  0  0  0  0  0  0  0  0  0
    9.9224  -14.7253   22.3311 O   0  0  0  0  0  0  0  0  0  0  0  0
    6.2458  -13.9630   14.1843 N   0  0  0  0  0  0  0  0  0  0  0  0
    6.8364  -19.7612   25.0055 C   0  0  0  0  0  0  0  0  0  0  0  0
    6.0532  -19.0922   24.0115 O   0  0  0  0  0  0  0  0  0  0  0  0
    5.1606  -19.7208   23.4351 C   0  0  0  0  0  0  0  0  0  0  0  0
    6.3711  -17.6401   23.7255 C   0  0  0  0  0  0  0  0  0  0  0  0
    7.4735  -17.2753   24.6361 C   0  0  2  0  0  0  0  0  0  0  0  0
    8.6258  -16.5076   24.0189 N   0  0  0  0  0  0  0  0  0  0  0  0
    8.3806  -16.3881   22.5643 C   0  0  0  0  0  0  0  0  0  0  0  0
    9.8617  -17.2872   24.2594 O   0  0  0  0  0  0  0  0  0  0  0  0
    9.9945  -18.3980   23.7182 N   0  0  0  0  0  0  0  0  0  0  0  0
   10.9296  -16.8246   25.0925 C   0  0  1  0  0  0  0  0  0  0  0  0
   12.1397  -17.6150   25.3042 C   0  0  0  0  0  0  0  0  0  0  0  0
   13.2762  -16.8408   24.7476 C   0  0  0  0  0  0  0  0  0  0  0  0
   14.6311  -17.4121   24.8139 C   0  0  0  0  0  0  0  0  0  0  0  0
   15.7484  -16.6118   24.3343 O   0  0  0  0  0  0  0  0  0  0  0  0
   16.7003  -16.1340   24.9845 C   0  0  0  0  0  0  0  0  0  0  0  0
   12.2725  -18.2009   26.6242 O   0  0  0  0  0  0  0  0  0  0  0  0
   11.5101  -17.7984   27.5538 O   0  0  0  0  0  0  0  0  0  0  0  0
   15.7502  -16.3417   22.9403 O   0  0  0  0  0  0  0  0  0  0  0  0
  1  2  1  0
  2  3  2  0
  4  5  1  0
  4  2  1  0
  6  5  1  0
  7  6  1  0
  8 10  1  0
  8  7  1  0
  8  9  1  1
 10 11  2  0
 13 15  1  0
 13 12  1  0
 14 13  2  0
 17 16  1  1
 16 15  1  0
 18 17  1  0
 18 10  1  0
 19 20  2  0
 19 17  1  0
 21 19  1  0
 22 27  1  0
 22 21  1  0
 22 23  1  1
 24 25  1  0
 24 23  1  0
 25 26  2  0
 27 30  1  0
 28 27  2  0
 29 25  1  0
M  END
$$$$
