RQE.pdb
     RDKit          3D

 30 29  0  0  1  0  0  0  0  0999 V2000
    7.4593  -15.4309   16.0874 N   0  0  0  0  0  0  0  0  0  0  0  0
    7.7411  -14.0681   15.7878 C   0  0  0  0  0  0  0  0  0  0  0  0
    8.1077  -13.7536   14.5970 N   0  0  0  0  0  0  0  0  0  0  0  0
    7.6166  -13.0690   16.7913 N   0  0  0  0  0  0  0  0  0  0  0  0
    7.1235  -13.4812   18.1012 C   0  0  0  0  0  0  0  0  0  0  0  0
    8.1279  -14.3306   18.8052 C   0  0  0  0  0  0  0  0  0  0  0  0
    7.6451  -14.7296   20.1570 C   0  0  0  0  0  0  0  0  0  0  0  0
    8.6564  -15.5982   20.8562 C   0  0  2  0  0  0  0  0  0  0  0  0
    7.9523  -16.7774   21.3101 N   0  0  0  0  0  0  0  0  0  0  0  0
    9.1747  -14.8993   22.0900 C   0  0  0  0  0  0  0  0  0  0  0  0
   10.1680  -14.1516   21.9889 O   0  0  0  0  0  0  0  0  0  0  0  0
    8.4843  -12.8414   14.3222 N   0  0  0  0  0  0  0  0  0  0  0  0
    5.6584  -13.1161   26.4615 C   0  0  0  0  0  0  0  0  0  0  0  0
    6.8354  -12.7730   27.2003 O   0  0  0  0  0  0  0  0  0  0  0  0
    6.7090  -12.2369   28.3051 C   0  0  0  0  0  0  0  0  0  0  0  0
    8.1764  -13.0919   26.5746 C   0  0  0  0  0  0  0  0  0  0  0  0
    7.8889  -13.9325   25.3963 C   0  0  2  0  0  0  0  0  0  0  0  0
    9.0780  -14.3046   24.5328 N   0  0  0  0  0  0  0  0  0  0  0  0
    8.5840  -15.0549   23.3568 C   0  0  0  0  0  0  0  0  0  0  0  0
    9.9667  -15.1675   25.3444 O   0  0  0  0  0  0  0  0  0  0  0  0
   10.4672  -14.7140   26.3876 N   0  0  0  0  0  0  0  0  0  0  0  0
   10.2851  -16.5171   24.9896 C   0  0  1  0  0  0  0  0  0  0  0  0
   11.3369  -17.2659   25.6729 C   0  0  0  0  0  0  0  0  0  0  0  0
   10.6949  -18.4321   26.3275 C   0  0  0  0  0  0  0  0  0  0  0  0
    9.7438  -18.2009   27.4268 C   0  0  0  0  0  0  0  0  0  0  0  0
    9.1903  -19.3535   28.1226 O   0  0  0  0  0  0  0  0  0  0  0  0
    8.3134  -20.1515   27.7332 C   0  0  0  0  0  0  0  0  0  0  0  0
   12.5473  -17.4754   24.9021 O   0  0  0  0  0  0  0  0  0  0  0  0
   13.5156  -18.0952   25.4363 O   0  0  0  0  0  0  0  0  0  0  0  0
    9.7224  -19.5975   29.4162 O   0  0  0  0  0  0  0  0  0  0  0  0
  1  2  1  0
  2  3  2  0
  4  5  1  0
  4  2  1  0
  6  5  1  0
  7  6  1  0
  8 10  1  0
  8  7  1  0
  8  9  1  1
 10 11  2  0
 13 15  1  0
 13 12  1  0
 14 13  2  0
 17 16  1  6
 16 15  1  0
 18 17  1  0
 18 10  1  0
 19 20  2  0
 19 17  1  0
 21 19  1  0
 22 27  1  0
 22 21  1  0
 22 23  1  1
 24 25  1  0
 24 23  1  0
 25 26  2  0
 27 30  1  0
 28 27  2  0
 29 25  1  0
M  END
$$$$
