RQE.pdb
     RDKit          3D

 30 29  0  0  1  0  0  0  0  0999 V2000
    6.0529  -13.2897   16.9613 N   0  0  0  0  0  0  0  0  0  0  0  0
    7.4760  -13.3152   16.9374 C   0  0  0  0  0  0  0  0  0  0  0  0
    8.0754  -13.7243   15.8770 N   0  0  0  0  0  0  0  0  0  0  0  0
    8.2234  -12.8919   18.0701 N   0  0  0  0  0  0  0  0  0  0  0  0
    9.3102  -13.7522   18.5256 C   0  0  0  0  0  0  0  0  0  0  0  0
    8.7772  -14.9722   19.1989 C   0  0  0  0  0  0  0  0  0  0  0  0
    9.4431  -15.1986   20.5124 C   0  0  0  0  0  0  0  0  0  0  0  0
    8.4400  -15.1863   21.6348 C   0  0  2  0  0  0  0  0  0  0  0  0
    7.7762  -13.9019   21.5883 N   0  0  0  0  0  0  0  0  0  0  0  0
    9.1502  -15.2610   22.9650 C   0  0  0  0  0  0  0  0  0  0  0  0
    9.7533  -14.2533   23.3856 O   0  0  0  0  0  0  0  0  0  0  0  0
    9.0820  -13.9004   15.8046 N   0  0  0  0  0  0  0  0  0  0  0  0
    7.7828  -18.9225   27.6386 C   0  0  0  0  0  0  0  0  0  0  0  0
    9.1927  -18.8830   27.8824 O   0  0  0  0  0  0  0  0  0  0  0  0
    9.6888  -19.7211   28.6410 C   0  0  0  0  0  0  0  0  0  0  0  0
    9.9967  -17.8049   27.1878 C   0  0  0  0  0  0  0  0  0  0  0  0
    9.3199  -17.5546   25.9005 C   0  0  1  0  0  0  0  0  0  0  0  0
    9.9349  -16.4874   25.0169 N   0  0  0  0  0  0  0  0  0  0  0  0
    9.1626  -16.4236   23.7562 C   0  0  0  0  0  0  0  0  0  0  0  0
   11.3308  -16.8924   24.7330 O   0  0  0  0  0  0  0  0  0  0  0  0
   11.9601  -17.5429   25.5847 N   0  0  0  0  0  0  0  0  0  0  0  0
   12.0060  -16.5728   23.5121 C   0  0  2  0  0  0  0  0  0  0  0  0
   13.4102  -16.9125   23.2962 C   0  0  0  0  0  0  0  0  0  0  0  0
   13.8328  -16.2618   22.0318 C   0  0  0  0  0  0  0  0  0  0  0  0
   15.2522  -16.3059   21.6447 C   0  0  0  0  0  0  0  0  0  0  0  0
   15.6636  -15.6214   20.4277 O   0  0  0  0  0  0  0  0  0  0  0  0
   16.5542  -15.9442   19.6153 C   0  0  0  0  0  0  0  0  0  0  0  0
   14.2621  -16.7918   24.4635 O   0  0  0  0  0  0  0  0  0  0  0  0
   14.0486  -15.8495   25.2845 O   0  0  0  0  0  0  0  0  0  0  0  0
   14.9538  -14.4282   20.1302 O   0  0  0  0  0  0  0  0  0  0  0  0
  1  2  1  0
  2  3  2  0
  4  5  1  0
  4  2  1  0
  6  5  1  0
  7  6  1  0
  8 10  1  0
  8  7  1  0
  8  9  1  1
 10 11  2  0
 13 15  1  0
 13 12  1  0
 14 13  2  0
 17 16  1  1
 16 15  1  0
 18 17  1  0
 18 10  1  0
 19 20  2  0
 19 17  1  0
 21 19  1  0
 22 27  1  0
 22 21  1  0
 22 23  1  1
 24 25  1  0
 24 23  1  0
 25 26  2  0
 27 30  1  0
 28 27  2  0
 29 25  1  0
M  END
$$$$
