RQE.pdb
     RDKit          3D

 30 29  0  0  1  0  0  0  0  0999 V2000
    8.8525  -11.9972   19.0357 N   0  0  0  0  0  0  0  0  0  0  0  0
    8.6372  -13.0888   18.1478 C   0  0  0  0  0  0  0  0  0  0  0  0
    9.4914  -13.3119   17.2141 N   0  0  0  0  0  0  0  0  0  0  0  0
    7.4945  -13.9217   18.2936 N   0  0  0  0  0  0  0  0  0  0  0  0
    7.5135  -14.9188   19.3585 C   0  0  0  0  0  0  0  0  0  0  0  0
    8.6894  -15.8262   19.2177 C   0  0  0  0  0  0  0  0  0  0  0  0
    9.5308  -15.8145   20.4472 C   0  0  0  0  0  0  0  0  0  0  0  0
    8.9994  -16.7790   21.4735 C   0  0  2  0  0  0  0  0  0  0  0  0
    7.5865  -16.9372   21.2066 N   0  0  0  0  0  0  0  0  0  0  0  0
    9.1168  -16.1819   22.8552 C   0  0  0  0  0  0  0  0  0  0  0  0
   10.2516  -15.9721   23.3286 O   0  0  0  0  0  0  0  0  0  0  0  0
    9.3458  -13.9530   16.4285 N   0  0  0  0  0  0  0  0  0  0  0  0
    7.3326  -11.9850   27.3812 C   0  0  0  0  0  0  0  0  0  0  0  0
    6.3859  -12.3751   26.3809 O   0  0  0  0  0  0  0  0  0  0  0  0
    5.1823  -12.2231   26.6095 C   0  0  0  0  0  0  0  0  0  0  0  0
    6.9247  -12.9559   25.0910 C   0  0  0  0  0  0  0  0  0  0  0  0
    6.8663  -14.4222   25.2463 C   0  0  2  0  0  0  0  0  0  0  0  0
    8.1457  -15.1787   24.9483 N   0  0  0  0  0  0  0  0  0  0  0  0
    7.9964  -15.8496   23.6377 C   0  0  0  0  0  0  0  0  0  0  0  0
    8.3251  -16.1903   26.0149 O   0  0  0  0  0  0  0  0  0  0  0  0
    7.7549  -17.2898   25.9119 N   0  0  0  0  0  0  0  0  0  0  0  0
    9.1330  -15.9696   27.1756 C   0  0  1  0  0  0  0  0  0  0  0  0
   10.1118  -16.9533   27.6318 C   0  0  0  0  0  0  0  0  0  0  0  0
   10.8248  -17.4563   26.4321 C   0  0  0  0  0  0  0  0  0  0  0  0
   11.9111  -18.4347   26.6038 C   0  0  0  0  0  0  0  0  0  0  0  0
   12.6511  -18.8670   25.4272 O   0  0  0  0  0  0  0  0  0  0  0  0
   13.4917  -18.2318   24.7585 C   0  0  0  0  0  0  0  0  0  0  0  0
   10.8871  -16.5615   28.7930 O   0  0  0  0  0  0  0  0  0  0  0  0
   11.1813  -15.3384   28.9505 O   0  0  0  0  0  0  0  0  0  0  0  0
   12.3758  -20.1883   24.9859 O   0  0  0  0  0  0  0  0  0  0  0  0
  1  2  1  0
  2  3  2  0
  4  5  1  0
  4  2  1  0
  6  5  1  0
  7  6  1  0
  8 10  1  0
  8  7  1  0
  8  9  1  6
 10 11  2  0
 13 15  1  0
 13 12  1  0
 14 13  2  0
 17 16  1  6
 16 15  1  0
 18 17  1  0
 18 10  1  0
 19 20  2  0
 19 17  1  0
 21 19  1  0
 22 27  1  0
 22 21  1  0
 22 23  1  1
 24 25  1  0
 24 23  1  0
 25 26  2  0
 27 30  1  0
 28 27  2  0
 29 25  1  0
M  END
$$$$
