RQE.pdb
     RDKit          3D

 30 29  0  0  1  0  0  0  0  0999 V2000
   13.5174  -16.8726   10.9666 N   0  0  0  0  0  0  0  0  0  0  0  0
   12.7129  -16.0856   11.8382 C   0  0  0  0  0  0  0  0  0  0  0  0
   11.6958  -15.4641   11.3580 N   0  0  0  0  0  0  0  0  0  0  0  0
   13.0291  -15.9902   13.2209 N   0  0  0  0  0  0  0  0  0  0  0  0
   12.6614  -17.1111   14.0795 C   0  0  0  0  0  0  0  0  0  0  0  0
   11.4544  -16.7848   14.8936 C   0  0  0  0  0  0  0  0  0  0  0  0
   11.7457  -15.7114   15.8849 C   0  0  0  0  0  0  0  0  0  0  0  0
   12.0338  -16.2947   17.2424 C   0  0  2  0  0  0  0  0  0  0  0  0
   11.1336  -17.4135   17.4164 N   0  0  0  0  0  0  0  0  0  0  0  0
   11.6949  -15.2923   18.3194 C   0  0  0  0  0  0  0  0  0  0  0  0
   11.8335  -14.0763   18.0786 O   0  0  0  0  0  0  0  0  0  0  0  0
   11.0231  -14.9262   11.9125 N   0  0  0  0  0  0  0  0  0  0  0  0
    7.3838  -13.2844   18.3205 C   0  0  0  0  0  0  0  0  0  0  0  0
    7.2926  -12.9147   19.7003 O   0  0  0  0  0  0  0  0  0  0  0  0
    6.3406  -12.2204   20.0684 C   0  0  0  0  0  0  0  0  0  0  0  0
    8.3806  -13.4031   20.6327 C   0  0  0  0  0  0  0  0  0  0  0  0
    9.2953  -14.2136   19.8055 C   0  0  1  0  0  0  0  0  0  0  0  0
   10.5605  -14.6988   20.4853 N   0  0  0  0  0  0  0  0  0  0  0  0
   11.2272  -15.6709   19.5906 C   0  0  0  0  0  0  0  0  0  0  0  0
   10.1625  -15.3652   21.7464 O   0  0  0  0  0  0  0  0  0  0  0  0
    9.5267  -14.7224   22.5991 N   0  0  0  0  0  0  0  0  0  0  0  0
   10.4728  -16.7307   22.0423 C   0  0  2  0  0  0  0  0  0  0  0  0
   11.0662  -17.1276   23.3168 C   0  0  0  0  0  0  0  0  0  0  0  0
   12.5277  -17.2614   23.1010 C   0  0  0  0  0  0  0  0  0  0  0  0
   13.0215  -18.2838   22.1643 C   0  0  0  0  0  0  0  0  0  0  0  0
   14.4593  -18.4479   22.0072 O   0  0  0  0  0  0  0  0  0  0  0  0
   15.2985  -18.8172   22.8538 C   0  0  0  0  0  0  0  0  0  0  0  0
   10.5946  -16.3920   24.4741 O   0  0  0  0  0  0  0  0  0  0  0  0
   10.0958  -15.2384   24.3068 O   0  0  0  0  0  0  0  0  0  0  0  0
   14.9695  -18.1459   20.7170 O   0  0  0  0  0  0  0  0  0  0  0  0
  1  2  1  0
  2  3  2  0
  4  5  1  0
  4  2  1  0
  6  5  1  0
  7  6  1  0
  8 10  1  0
  8  7  1  0
  8  9  1  1
 10 11  2  0
 13 15  1  0
 13 12  1  0
 14 13  2  0
 17 16  1  6
 16 15  1  0
 18 17  1  0
 18 10  1  0
 19 20  2  0
 19 17  1  0
 21 19  1  0
 22 27  1  0
 22 21  1  0
 22 23  1  6
 24 25  1  0
 24 23  1  0
 25 26  2  0
 27 30  1  0
 28 27  2  0
 29 25  1  0
M  END
$$$$
