RQE.pdb
     RDKit          3D

 30 29  0  0  1  0  0  0  0  0999 V2000
    6.1521  -22.4799   17.6515 N   0  0  0  0  0  0  0  0  0  0  0  0
    5.8281  -22.2407   16.2862 C   0  0  0  0  0  0  0  0  0  0  0  0
    4.7325  -22.7162   15.8119 N   0  0  0  0  0  0  0  0  0  0  0  0
    6.7031  -21.4845   15.4596 N   0  0  0  0  0  0  0  0  0  0  0  0
    7.8230  -20.8041   16.1014 C   0  0  0  0  0  0  0  0  0  0  0  0
    7.3422  -19.8686   17.1594 C   0  0  0  0  0  0  0  0  0  0  0  0
    8.4818  -19.2692   17.9089 C   0  0  0  0  0  0  0  0  0  0  0  0
    8.7542  -17.8639   17.4431 C   0  0  2  0  0  0  0  0  0  0  0  0
    9.8010  -17.9485   16.4485 N   0  0  0  0  0  0  0  0  0  0  0  0
    9.3018  -17.0377   18.5819 C   0  0  0  0  0  0  0  0  0  0  0  0
   10.5226  -17.0888   18.8332 O   0  0  0  0  0  0  0  0  0  0  0  0
    4.3958  -22.5687   14.8557 N   0  0  0  0  0  0  0  0  0  0  0  0
    9.5708  -12.4077   19.7076 C   0  0  0  0  0  0  0  0  0  0  0  0
    8.4685  -13.0154   19.0259 O   0  0  0  0  0  0  0  0  0  0  0  0
    8.4728  -13.0397   17.7916 C   0  0  0  0  0  0  0  0  0  0  0  0
    7.3540  -13.5966   19.8693 C   0  0  0  0  0  0  0  0  0  0  0  0
    8.0111  -14.3952   20.9221 C   0  0  2  0  0  0  0  0  0  0  0  0
    9.0693  -15.3758   20.4565 N   0  0  0  0  0  0  0  0  0  0  0  0
    8.4918  -16.2079   19.3775 C   0  0  0  0  0  0  0  0  0  0  0  0
    9.4282  -16.2281   21.6131 O   0  0  0  0  0  0  0  0  0  0  0  0
    8.6103  -17.0678   22.0263 N   0  0  0  0  0  0  0  0  0  0  0  0
   10.6852  -16.1387   22.2916 C   0  0  1  0  0  0  0  0  0  0  0  0
   11.0203  -17.0140   23.4121 C   0  0  0  0  0  0  0  0  0  0  0  0
   12.4021  -17.5060   23.1904 C   0  0  0  0  0  0  0  0  0  0  0  0
   12.8282  -17.8495   21.8240 C   0  0  0  0  0  0  0  0  0  0  0  0
   14.2132  -18.2397   21.6040 O   0  0  0  0  0  0  0  0  0  0  0  0
   14.6961  -19.3877   21.5249 C   0  0  0  0  0  0  0  0  0  0  0  0
   10.6602  -16.5069   24.7221 O   0  0  0  0  0  0  0  0  0  0  0  0
   10.1913  -15.3329   24.8182 O   0  0  0  0  0  0  0  0  0  0  0  0
   15.1329  -17.1673   21.4612 O   0  0  0  0  0  0  0  0  0  0  0  0
  1  2  1  0
  2  3  2  0
  4  5  1  0
  4  2  1  0
  6  5  1  0
  7  6  1  0
  8 10  1  0
  8  7  1  0
  8  9  1  6
 10 11  2  0
 13 15  1  0
 13 12  1  0
 14 13  2  0
 17 16  1  6
 16 15  1  0
 18 17  1  0
 18 10  1  0
 19 20  2  0
 19 17  1  0
 21 19  1  0
 22 27  1  0
 22 21  1  0
 22 23  1  1
 24 25  1  0
 24 23  1  0
 25 26  2  0
 27 30  1  0
 28 27  2  0
 29 25  1  0
M  END
$$$$
