KKH.pdb
     RDKit          3D

 29 29  0  0  1  0  0  0  0  0999 V2000
   10.0175  -21.0614   14.0881 N   0  0  0  0  0  0  0  0  0  0  0  0
   10.6959  -22.2844   14.4634 C   0  0  1  0  0  0  0  0  0  0  0  0
   11.6252  -22.7897   13.4160 C   0  0  0  0  0  0  0  0  0  0  0  0
   11.1123  -22.7863   12.0281 C   0  0  0  0  0  0  0  0  0  0  0  0
   11.6264  -23.8353   11.1128 C   0  0  0  0  0  0  0  0  0  0  0  0
   11.2016  -23.6781    9.6856 C   0  0  0  0  0  0  0  0  0  0  0  0
   11.7869  -24.7438    8.8815 N   0  0  0  0  0  0  0  0  0  0  0  0
   11.3992  -22.0985   15.7698 C   0  0  0  0  0  0  0  0  0  0  0  0
   12.1196  -21.0836   15.9643 O   0  0  0  0  0  0  0  0  0  0  0  0
   11.3253  -22.9994   16.8566 N   0  0  0  0  0  0  0  0  0  0  0  0
   11.9941  -22.8459   18.0915 C   0  0  1  0  0  0  0  0  0  0  0  0
   11.2907  -23.3767   19.2994 C   0  0  0  0  0  0  0  0  0  0  0  0
   12.0516  -23.0818   20.5748 C   0  0  0  0  0  0  0  0  0  0  0  0
   11.2919  -23.6156   21.7843 C   0  0  0  0  0  0  0  0  0  0  0  0
   12.0732  -23.3197   23.0628 C   0  0  0  0  0  0  0  0  0  0  0  0
   11.3214  -23.7999   24.2097 N   0  0  0  0  0  0  0  0  0  0  0  0
   13.3461  -23.5146   17.9874 C   0  0  0  0  0  0  0  0  0  0  0  0
   13.4193  -24.6503   17.4573 O   0  0  0  0  0  0  0  0  0  0  0  0
   14.5102  -22.9025   18.4642 N   0  0  0  0  0  0  0  0  0  0  0  0
   15.8248  -23.5692   18.2815 C   0  0  1  0  0  0  0  0  0  0  0  0
   16.1161  -23.7070   16.8429 C   0  0  0  0  0  0  0  0  0  0  0  0
   16.2044  -22.5154   16.0259 C   0  0  0  0  0  0  0  0  0  0  0  0
   16.5367  -21.2281   16.3209 C   0  0  0  0  0  0  0  0  0  0  0  0
   16.5333  -20.4948   15.1650 N   0  0  0  0  0  0  0  0  0  0  0  0
   16.2018  -21.3376   14.1795 C   0  0  0  0  0  0  0  0  0  0  0  0
   16.0031  -22.5440   14.6751 N   0  0  0  0  0  0  0  0  0  0  0  0
   16.8272  -22.7555   19.0466 C   0  0  0  0  0  0  0  0  0  0  0  0
   18.0610  -23.1025   19.0482 O   0  0  0  0  0  0  0  0  0  0  0  0
   16.5340  -21.6380   19.7706 O   0  0  0  0  0  0  0  0  0  0  0  0
  2  3  1  0
  2  1  1  6
  3  4  1  0
  4  5  1  0
  5  6  1  0
  6  7  1  0
  8  9  2  0
  8  2  1  0
 10  8  1  0
 11 10  1  0
 11 12  1  1
 13 14  1  0
 13 12  1  0
 15 16  1  0
 15 14  1  0
 17 11  1  0
 17 19  1  0
 18 17  2  0
 20 19  1  0
 20 27  1  0
 20 21  1  6
 22 26  1  0
 22 21  1  0
 23 22  2  0
 24 23  1  0
 24 25  1  0
 25 26  2  0
 27 28  2  0
 27 29  1  0
M  END
$$$$
