KKH.pdb
     RDKit          3D

 29 29  0  0  1  0  0  0  0  0999 V2000
    9.2159  -15.3130   19.4371 N   0  0  0  0  0  0  0  0  0  0  0  0
    8.5104  -14.4500   20.3614 C   0  0  1  0  0  0  0  0  0  0  0  0
    7.4072  -13.6793   19.7250 C   0  0  0  0  0  0  0  0  0  0  0  0
    7.1220  -13.9926   18.3073 C   0  0  0  0  0  0  0  0  0  0  0  0
    8.1199  -13.5512   17.3014 C   0  0  0  0  0  0  0  0  0  0  0  0
    7.7279  -13.8125   15.8801 C   0  0  0  0  0  0  0  0  0  0  0  0
    8.8206  -13.4310   14.9940 N   0  0  0  0  0  0  0  0  0  0  0  0
    8.0156  -15.2452   21.5269 C   0  0  0  0  0  0  0  0  0  0  0  0
    7.2637  -14.7125   22.3858 O   0  0  0  0  0  0  0  0  0  0  0  0
    8.3292  -16.6032   21.7633 N   0  0  0  0  0  0  0  0  0  0  0  0
    7.9433  -17.3441   22.9026 C   0  0  1  0  0  0  0  0  0  0  0  0
    8.1983  -18.8165   22.8564 C   0  0  0  0  0  0  0  0  0  0  0  0
    7.7489  -19.5106   24.1248 C   0  0  0  0  0  0  0  0  0  0  0  0
    8.0995  -20.9937   24.0738 C   0  0  0  0  0  0  0  0  0  0  0  0
    7.6336  -21.6838   25.3541 C   0  0  0  0  0  0  0  0  0  0  0  0
    8.0970  -23.0610   25.3560 N   0  0  0  0  0  0  0  0  0  0  0  0
    8.6526  -16.7688   24.1076 C   0  0  0  0  0  0  0  0  0  0  0  0
    9.8135  -16.3126   23.9646 O   0  0  0  0  0  0  0  0  0  0  0  0
    8.0507  -16.7326   25.3699 N   0  0  0  0  0  0  0  0  0  0  0  0
    8.7421  -16.0615   26.5004 C   0  0  1  0  0  0  0  0  0  0  0  0
    7.7648  -15.2984   27.2977 C   0  0  0  0  0  0  0  0  0  0  0  0
    7.4099  -13.9585   26.8807 C   0  0  0  0  0  0  0  0  0  0  0  0
    7.9540  -13.1135   25.9616 C   0  0  0  0  0  0  0  0  0  0  0  0
    7.1930  -11.9773   25.9009 N   0  0  0  0  0  0  0  0  0  0  0  0
    6.1955  -12.1389   26.7784 C   0  0  0  0  0  0  0  0  0  0  0  0
    6.3099  -13.3128   27.3696 N   0  0  0  0  0  0  0  0  0  0  0  0
    9.4639  -17.1366   27.2591 C   0  0  0  0  0  0  0  0  0  0  0  0
    9.1882  -18.3682   27.0358 O   0  0  0  0  0  0  0  0  0  0  0  0
   10.4223  -16.9146   28.2032 O   0  0  0  0  0  0  0  0  0  0  0  0
  2  3  1  0
  2  1  1  6
  3  4  1  0
  4  5  1  0
  5  6  1  0
  6  7  1  0
  8  9  2  0
  8  2  1  0
 10  8  1  0
 11 10  1  0
 11 12  1  6
 13 14  1  0
 13 12  1  0
 15 16  1  0
 15 14  1  0
 17 11  1  0
 17 19  1  0
 18 17  2  0
 20 19  1  0
 20 27  1  0
 20 21  1  1
 22 26  1  0
 22 21  1  0
 23 22  2  0
 24 23  1  0
 24 25  1  0
 25 26  2  0
 27 28  2  0
 27 29  1  0
M  END
$$$$
