KKH.pdb
     RDKit          3D

 29 29  0  0  1  0  0  0  0  0999 V2000
    9.8561  -18.0269   14.3977 N   0  0  0  0  0  0  0  0  0  0  0  0
   10.8588  -18.2852   15.4101 C   0  0  1  0  0  0  0  0  0  0  0  0
   12.2328  -17.8905   14.9947 C   0  0  0  0  0  0  0  0  0  0  0  0
   12.8819  -18.7482   13.9787 C   0  0  0  0  0  0  0  0  0  0  0  0
   14.1940  -18.2990   13.4506 C   0  0  0  0  0  0  0  0  0  0  0  0
   14.7930  -19.2053   12.4201 C   0  0  0  0  0  0  0  0  0  0  0  0
   16.0147  -18.6081   11.8951 N   0  0  0  0  0  0  0  0  0  0  0  0
   10.4694  -17.6268   16.6948 C   0  0  0  0  0  0  0  0  0  0  0  0
    9.3846  -16.9921   16.7798 O   0  0  0  0  0  0  0  0  0  0  0  0
   11.2436  -17.6533   17.8773 N   0  0  0  0  0  0  0  0  0  0  0  0
   10.8002  -18.1244   19.1333 C   0  0  1  0  0  0  0  0  0  0  0  0
   10.0677  -19.4278   19.1341 C   0  0  0  0  0  0  0  0  0  0  0  0
    9.6825  -19.8615   20.5327 C   0  0  0  0  0  0  0  0  0  0  0  0
    9.0480  -21.2478   20.5051 C   0  0  0  0  0  0  0  0  0  0  0  0
    7.8443  -21.2889   21.4442 C   0  0  0  0  0  0  0  0  0  0  0  0
    7.3190  -22.6427   21.4963 N   0  0  0  0  0  0  0  0  0  0  0  0
   11.9986  -18.2433   20.0474 C   0  0  0  0  0  0  0  0  0  0  0  0
   12.5440  -19.3656   20.1858 O   0  0  0  0  0  0  0  0  0  0  0  0
   12.5111  -17.1403   20.7386 N   0  0  0  0  0  0  0  0  0  0  0  0
   13.3127  -17.3472   21.9719 C   0  0  1  0  0  0  0  0  0  0  0  0
   12.9973  -18.6642   22.5541 C   0  0  0  0  0  0  0  0  0  0  0  0
   11.7466  -18.8393   23.2615 C   0  0  0  0  0  0  0  0  0  0  0  0
   10.7806  -17.9575   23.6411 C   0  0  0  0  0  0  0  0  0  0  0  0
    9.7566  -18.6500   24.2292 N   0  0  0  0  0  0  0  0  0  0  0  0
   10.1048  -19.9420   24.2022 C   0  0  0  0  0  0  0  0  0  0  0  0
   11.2862  -20.0716   23.6293 N   0  0  0  0  0  0  0  0  0  0  0  0
   14.7507  -17.1643   21.5831 C   0  0  0  0  0  0  0  0  0  0  0  0
   15.6741  -17.3522   22.4519 O   0  0  0  0  0  0  0  0  0  0  0  0
   15.1821  -16.8000   20.3421 O   0  0  0  0  0  0  0  0  0  0  0  0
  2  3  1  0
  2  1  1  6
  3  4  1  0
  4  5  1  0
  5  6  1  0
  6  7  1  0
  8  9  2  0
  8  2  1  0
 10  8  1  0
 11 10  1  0
 11 12  1  6
 13 14  1  0
 13 12  1  0
 15 16  1  0
 15 14  1  0
 17 11  1  0
 17 19  1  0
 18 17  2  0
 20 19  1  0
 20 27  1  0
 20 21  1  6
 22 26  1  0
 22 21  1  0
 23 22  2  0
 24 23  1  0
 24 25  1  0
 25 26  2  0
 27 28  2  0
 27 29  1  0
M  END
$$$$
