KKH.pdb
     RDKit          3D

 29 29  0  0  1  0  0  0  0  0999 V2000
    7.4215  -16.4945   18.1555 N   0  0  0  0  0  0  0  0  0  0  0  0
    8.3890  -15.7422   18.9269 C   0  0  1  0  0  0  0  0  0  0  0  0
    8.0548  -14.2964   19.0448 C   0  0  0  0  0  0  0  0  0  0  0  0
    8.1242  -13.5039   17.7972 C   0  0  0  0  0  0  0  0  0  0  0  0
    8.3614  -14.2468   16.5346 C   0  0  0  0  0  0  0  0  0  0  0  0
    8.4439  -13.3858   15.3123 C   0  0  0  0  0  0  0  0  0  0  0  0
    8.6938  -14.2197   14.1432 N   0  0  0  0  0  0  0  0  0  0  0  0
    8.5692  -16.3697   20.2721 C   0  0  0  0  0  0  0  0  0  0  0  0
    7.5659  -16.7077   20.9547 O   0  0  0  0  0  0  0  0  0  0  0  0
    9.8209  -16.6303   20.8751 N   0  0  0  0  0  0  0  0  0  0  0  0
   10.0088  -17.2300   22.1404 C   0  0  1  0  0  0  0  0  0  0  0  0
   11.2896  -17.9752   22.3398 C   0  0  0  0  0  0  0  0  0  0  0  0
   11.3428  -18.6617   23.6883 C   0  0  0  0  0  0  0  0  0  0  0  0
   12.6784  -19.3744   23.8712 C   0  0  0  0  0  0  0  0  0  0  0  0
   12.7081  -20.0874   25.2214 C   0  0  0  0  0  0  0  0  0  0  0  0
   13.9634  -20.8059   25.3602 N   0  0  0  0  0  0  0  0  0  0  0  0
    9.9068  -16.1537   23.1973 C   0  0  0  0  0  0  0  0  0  0  0  0
   10.6787  -15.1659   23.1304 O   0  0  0  0  0  0  0  0  0  0  0  0
    8.9791  -16.2314   24.2416 N   0  0  0  0  0  0  0  0  0  0  0  0
    8.8721  -15.1193   25.2205 C   0  0  1  0  0  0  0  0  0  0  0  0
    7.5071  -14.5632   25.1930 C   0  0  0  0  0  0  0  0  0  0  0  0
    7.1540  -13.5191   26.1312 C   0  0  0  0  0  0  0  0  0  0  0  0
    7.8728  -12.8695   27.0883 C   0  0  0  0  0  0  0  0  0  0  0  0
    7.0817  -11.9097   27.6600 N   0  0  0  0  0  0  0  0  0  0  0  0
    5.8933  -11.9810   27.0485 C   0  0  0  0  0  0  0  0  0  0  0  0
    5.9199  -12.9334   26.1360 N   0  0  0  0  0  0  0  0  0  0  0  0
    9.2928  -15.6767   26.5488 C   0  0  0  0  0  0  0  0  0  0  0  0
    9.2946  -14.9216   27.5845 O   0  0  0  0  0  0  0  0  0  0  0  0
    9.6914  -16.9628   26.7633 O   0  0  0  0  0  0  0  0  0  0  0  0
  2  3  1  0
  2  1  1  1
  3  4  1  0
  4  5  1  0
  5  6  1  0
  6  7  1  0
  8  9  2  0
  8  2  1  0
 10  8  1  0
 11 10  1  0
 11 12  1  6
 13 14  1  0
 13 12  1  0
 15 16  1  0
 15 14  1  0
 17 11  1  0
 17 19  1  0
 18 17  2  0
 20 19  1  0
 20 27  1  0
 20 21  1  1
 22 26  1  0
 22 21  1  0
 23 22  2  0
 24 23  1  0
 24 25  1  0
 25 26  2  0
 27 28  2  0
 27 29  1  0
M  END
$$$$
