KKH.pdb
     RDKit          3D

 29 29  0  0  1  0  0  0  0  0999 V2000
    7.6713  -16.1846   19.9154 N   0  0  0  0  0  0  0  0  0  0  0  0
    8.8540  -15.3495   19.9463 C   0  0  1  0  0  0  0  0  0  0  0  0
    8.8386  -14.2659   18.9257 C   0  0  0  0  0  0  0  0  0  0  0  0
    8.0938  -14.5504   17.6791 C   0  0  0  0  0  0  0  0  0  0  0  0
    8.7038  -14.0934   16.4057 C   0  0  0  0  0  0  0  0  0  0  0  0
    7.9404  -14.4794   15.1767 C   0  0  0  0  0  0  0  0  0  0  0  0
    8.6030  -13.9336   13.9987 N   0  0  0  0  0  0  0  0  0  0  0  0
    9.0543  -14.7977   21.3214 C   0  0  0  0  0  0  0  0  0  0  0  0
   10.1366  -14.2299   21.6264 O   0  0  0  0  0  0  0  0  0  0  0  0
    8.0952  -14.8579   22.3581 N   0  0  0  0  0  0  0  0  0  0  0  0
    8.2893  -14.3936   23.6782 C   0  0  1  0  0  0  0  0  0  0  0  0
    7.1290  -13.6999   24.3168 C   0  0  0  0  0  0  0  0  0  0  0  0
    7.4906  -13.1121   25.6645 C   0  0  0  0  0  0  0  0  0  0  0  0
    6.3067  -12.3488   26.2482 C   0  0  0  0  0  0  0  0  0  0  0  0
    6.7101  -11.6888   27.5650 C   0  0  0  0  0  0  0  0  0  0  0  0
    5.5529  -11.0336   28.1507 N   0  0  0  0  0  0  0  0  0  0  0  0
    8.6847  -15.5690   24.5432 C   0  0  0  0  0  0  0  0  0  0  0  0
    7.8930  -16.5382   24.6444 O   0  0  0  0  0  0  0  0  0  0  0  0
    9.9035  -15.6028   25.2291 N   0  0  0  0  0  0  0  0  0  0  0  0
   10.2874  -16.8154   25.9963 C   0  0  1  0  0  0  0  0  0  0  0  0
   11.6649  -17.2080   25.6478 C   0  0  0  0  0  0  0  0  0  0  0  0
   11.9401  -17.7010   24.3150 C   0  0  0  0  0  0  0  0  0  0  0  0
   11.1373  -17.9125   23.2354 C   0  0  0  0  0  0  0  0  0  0  0  0
   11.9101  -18.3275   22.1845 N   0  0  0  0  0  0  0  0  0  0  0  0
   13.1718  -18.3641   22.6299 C   0  0  0  0  0  0  0  0  0  0  0  0
   13.2067  -17.9938   23.8957 N   0  0  0  0  0  0  0  0  0  0  0  0
   10.0789  -16.4883   27.4460 C   0  0  0  0  0  0  0  0  0  0  0  0
    9.7490  -15.2982   27.7892 O   0  0  0  0  0  0  0  0  0  0  0  0
   10.2157  -17.3753   28.4725 O   0  0  0  0  0  0  0  0  0  0  0  0
  2  3  1  0
  2  1  1  1
  3  4  1  0
  4  5  1  0
  5  6  1  0
  6  7  1  0
  8  9  2  0
  8  2  1  0
 10  8  1  0
 11 10  1  0
 11 12  1  1
 13 14  1  0
 13 12  1  0
 15 16  1  0
 15 14  1  0
 17 11  1  0
 17 19  1  0
 18 17  2  0
 20 19  1  0
 20 27  1  0
 20 21  1  1
 22 26  1  0
 22 21  1  0
 23 22  2  0
 24 23  1  0
 24 25  1  0
 25 26  2  0
 27 28  2  0
 27 29  1  0
M  END
$$$$
