KKH.pdb
     RDKit          3D

 29 29  0  0  1  0  0  0  0  0999 V2000
    5.2955  -20.2016   21.5634 N   0  0  0  0  0  0  0  0  0  0  0  0
    5.5509  -19.2296   22.6060 C   0  0  1  0  0  0  0  0  0  0  0  0
    5.9326  -19.8450   23.9066 C   0  0  0  0  0  0  0  0  0  0  0  0
    6.8796  -20.9801   23.8415 C   0  0  0  0  0  0  0  0  0  0  0  0
    7.2327  -21.6426   25.1216 C   0  0  0  0  0  0  0  0  0  0  0  0
    8.2194  -22.7614   24.9915 C   0  0  0  0  0  0  0  0  0  0  0  0
    8.5695  -23.2604   26.3155 N   0  0  0  0  0  0  0  0  0  0  0  0
    6.5799  -18.2465   22.1472 C   0  0  0  0  0  0  0  0  0  0  0  0
    7.6123  -18.6428   21.5441 O   0  0  0  0  0  0  0  0  0  0  0  0
    6.4952  -16.8483   22.3373 N   0  0  0  0  0  0  0  0  0  0  0  0
    7.4324  -15.9019   21.8662 C   0  0  1  0  0  0  0  0  0  0  0  0
    7.0130  -14.4678   21.9179 C   0  0  0  0  0  0  0  0  0  0  0  0
    8.0396  -13.5529   21.2841 C   0  0  0  0  0  0  0  0  0  0  0  0
    7.8148  -13.4614   19.7787 C   0  0  0  0  0  0  0  0  0  0  0  0
    8.8207  -12.4934   19.1594 C   0  0  0  0  0  0  0  0  0  0  0  0
    8.6919  -12.5242   17.7124 N   0  0  0  0  0  0  0  0  0  0  0  0
    8.7095  -16.0605   22.6600 C   0  0  0  0  0  0  0  0  0  0  0  0
    8.6363  -16.4521   23.8505 O   0  0  0  0  0  0  0  0  0  0  0  0
    9.9627  -15.7831   22.1036 N   0  0  0  0  0  0  0  0  0  0  0  0
   11.1972  -16.0923   22.8697 C   0  0  1  0  0  0  0  0  0  0  0  0
   11.2532  -17.5366   23.1594 C   0  0  0  0  0  0  0  0  0  0  0  0
   10.7917  -18.0145   24.4454 C   0  0  0  0  0  0  0  0  0  0  0  0
   10.2834  -17.3686   25.5312 C   0  0  0  0  0  0  0  0  0  0  0  0
    9.9340  -18.2972   26.4744 N   0  0  0  0  0  0  0  0  0  0  0  0
   10.2297  -19.4959   25.9574 C   0  0  0  0  0  0  0  0  0  0  0  0
   10.7406  -19.3451   24.7504 N   0  0  0  0  0  0  0  0  0  0  0  0
   12.3467  -15.5733   22.0563 C   0  0  0  0  0  0  0  0  0  0  0  0
   12.1827  -15.3215   20.8103 O   0  0  0  0  0  0  0  0  0  0  0  0
   13.5997  -15.3380   22.5395 O   0  0  0  0  0  0  0  0  0  0  0  0
  2  3  1  0
  2  1  1  6
  3  4  1  0
  4  5  1  0
  5  6  1  0
  6  7  1  0
  8  9  2  0
  8  2  1  0
 10  8  1  0
 11 10  1  0
 11 12  1  1
 13 14  1  0
 13 12  1  0
 15 16  1  0
 15 14  1  0
 17 11  1  0
 17 19  1  0
 18 17  2  0
 20 19  1  0
 20 27  1  0
 20 21  1  6
 22 26  1  0
 22 21  1  0
 23 22  2  0
 24 23  1  0
 24 25  1  0
 25 26  2  0
 27 28  2  0
 27 29  1  0
M  END
$$$$
