KKH.pdb
     RDKit          3D

 29 29  0  0  1  0  0  0  0  0999 V2000
    8.3159  -17.0111   19.7800 N   0  0  0  0  0  0  0  0  0  0  0  0
    9.6378  -16.4550   19.9802 C   0  0  1  0  0  0  0  0  0  0  0  0
   10.0555  -15.5208   18.8990 C   0  0  0  0  0  0  0  0  0  0  0  0
    9.0438  -14.5354   18.4575 C   0  0  0  0  0  0  0  0  0  0  0  0
    8.7094  -14.5085   17.0119 C   0  0  0  0  0  0  0  0  0  0  0  0
    7.7538  -13.4264   16.6145 C   0  0  0  0  0  0  0  0  0  0  0  0
    7.5214  -13.4837   15.1767 N   0  0  0  0  0  0  0  0  0  0  0  0
    9.7201  -15.8032   21.3233 C   0  0  0  0  0  0  0  0  0  0  0  0
   10.8085  -15.3132   21.7258 O   0  0  0  0  0  0  0  0  0  0  0  0
    8.6373  -15.6808   22.2238 N   0  0  0  0  0  0  0  0  0  0  0  0
    8.7213  -15.1657   23.5367 C   0  0  1  0  0  0  0  0  0  0  0  0
    7.4945  -14.4968   24.0685 C   0  0  0  0  0  0  0  0  0  0  0  0
    7.7387  -13.8516   25.4164 C   0  0  0  0  0  0  0  0  0  0  0  0
    6.4581  -13.2113   25.9407 C   0  0  0  0  0  0  0  0  0  0  0  0
    6.7231  -12.5442   27.2888 C   0  0  0  0  0  0  0  0  0  0  0  0
    5.4913  -11.9551   27.7860 N   0  0  0  0  0  0  0  0  0  0  0  0
    9.0976  -16.2955   24.4683 C   0  0  0  0  0  0  0  0  0  0  0  0
    8.5221  -17.4036   24.3377 O   0  0  0  0  0  0  0  0  0  0  0  0
   10.0654  -16.1371   25.4661 N   0  0  0  0  0  0  0  0  0  0  0  0
   10.5080  -17.3115   26.2606 C   0  0  1  0  0  0  0  0  0  0  0  0
   11.8208  -17.7735   25.7746 C   0  0  0  0  0  0  0  0  0  0  0  0
   12.5147  -18.8135   26.5042 C   0  0  0  0  0  0  0  0  0  0  0  0
   12.1848  -19.5233   27.6187 C   0  0  0  0  0  0  0  0  0  0  0  0
   13.1664  -20.4459   27.8618 N   0  0  0  0  0  0  0  0  0  0  0  0
   14.0815  -20.2923   26.8973 C   0  0  0  0  0  0  0  0  0  0  0  0
   13.7085  -19.3251   26.0812 N   0  0  0  0  0  0  0  0  0  0  0  0
   10.4890  -16.8861   27.6997 C   0  0  0  0  0  0  0  0  0  0  0  0
   10.1842  -15.6786   28.0028 O   0  0  0  0  0  0  0  0  0  0  0  0
   10.7800  -17.6976   28.7560 O   0  0  0  0  0  0  0  0  0  0  0  0
  2  3  1  0
  2  1  1  6
  3  4  1  0
  4  5  1  0
  5  6  1  0
  6  7  1  0
  8  9  2  0
  8  2  1  0
 10  8  1  0
 11 10  1  0
 11 12  1  1
 13 14  1  0
 13 12  1  0
 15 16  1  0
 15 14  1  0
 17 11  1  0
 17 19  1  0
 18 17  2  0
 20 19  1  0
 20 27  1  0
 20 21  1  6
 22 26  1  0
 22 21  1  0
 23 22  2  0
 24 23  1  0
 24 25  1  0
 25 26  2  0
 27 28  2  0
 27 29  1  0
M  END
$$$$
