KKH.pdb
     RDKit          3D

 29 29  0  0  1  0  0  0  0  0999 V2000
    7.2444  -15.4513   19.3311 N   0  0  0  0  0  0  0  0  0  0  0  0
    8.6331  -15.0755   19.4960 C   0  0  1  0  0  0  0  0  0  0  0  0
    9.0640  -13.9880   18.5753 C   0  0  0  0  0  0  0  0  0  0  0  0
    8.1802  -13.7196   17.4193 C   0  0  0  0  0  0  0  0  0  0  0  0
    8.5630  -14.3233   16.1187 C   0  0  0  0  0  0  0  0  0  0  0  0
    7.6536  -13.9770   14.9806 C   0  0  0  0  0  0  0  0  0  0  0  0
    8.1856  -14.5345   13.7433 N   0  0  0  0  0  0  0  0  0  0  0  0
    8.8996  -14.7167   20.9229 C   0  0  0  0  0  0  0  0  0  0  0  0
   10.0825  -14.5733   21.3313 O   0  0  0  0  0  0  0  0  0  0  0  0
    7.8984  -14.5140   21.9000 N   0  0  0  0  0  0  0  0  0  0  0  0
    8.1337  -14.2548   23.2687 C   0  0  1  0  0  0  0  0  0  0  0  0
    7.0389  -13.5585   24.0117 C   0  0  0  0  0  0  0  0  0  0  0  0
    7.4522  -13.1947   25.4222 C   0  0  0  0  0  0  0  0  0  0  0  0
    6.3386  -12.4230   26.1217 C   0  0  0  0  0  0  0  0  0  0  0  0
    6.8086  -11.9648   27.5007 C   0  0  0  0  0  0  0  0  0  0  0  0
    5.7270  -11.2626   28.1704 N   0  0  0  0  0  0  0  0  0  0  0  0
    8.4262  -15.5679   23.9587 C   0  0  0  0  0  0  0  0  0  0  0  0
    7.6863  -16.5538   23.7204 O   0  0  0  0  0  0  0  0  0  0  0  0
    9.4944  -15.7102   24.8508 N   0  0  0  0  0  0  0  0  0  0  0  0
   10.0210  -17.0632   25.1647 C   0  0  1  0  0  0  0  0  0  0  0  0
   10.6297  -17.6516   23.9579 C   0  0  0  0  0  0  0  0  0  0  0  0
   10.4660  -19.0676   23.7066 C   0  0  0  0  0  0  0  0  0  0  0  0
    9.7610  -20.0352   24.3558 C   0  0  0  0  0  0  0  0  0  0  0  0
    9.8846  -21.2107   23.6652 N   0  0  0  0  0  0  0  0  0  0  0  0
   10.6592  -20.9507   22.6051 C   0  0  0  0  0  0  0  0  0  0  0  0
   11.0133  -19.6798   22.6149 N   0  0  0  0  0  0  0  0  0  0  0  0
   10.9623  -16.8979   26.3219 C   0  0  0  0  0  0  0  0  0  0  0  0
   11.3980  -15.7317   26.6268 O   0  0  0  0  0  0  0  0  0  0  0  0
   11.4163  -17.9149   27.1084 O   0  0  0  0  0  0  0  0  0  0  0  0
  2  3  1  0
  2  1  1  1
  3  4  1  0
  4  5  1  0
  5  6  1  0
  6  7  1  0
  8  9  2  0
  8  2  1  0
 10  8  1  0
 11 10  1  0
 11 12  1  1
 13 14  1  0
 13 12  1  0
 15 16  1  0
 15 14  1  0
 17 11  1  0
 17 19  1  0
 18 17  2  0
 20 19  1  0
 20 27  1  0
 20 21  1  6
 22 26  1  0
 22 21  1  0
 23 22  2  0
 24 23  1  0
 24 25  1  0
 25 26  2  0
 27 28  2  0
 27 29  1  0
M  END
$$$$
