KKH.pdb
     RDKit          3D

 29 29  0  0  1  0  0  0  0  0999 V2000
    8.6259  -16.2702   19.0478 N   0  0  0  0  0  0  0  0  0  0  0  0
    8.3775  -15.1534   19.9355 C   0  0  1  0  0  0  0  0  0  0  0  0
    7.4607  -14.1326   19.3580 C   0  0  0  0  0  0  0  0  0  0  0  0
    7.0928  -14.3119   17.9360 C   0  0  0  0  0  0  0  0  0  0  0  0
    7.8810  -13.5558   16.9313 C   0  0  0  0  0  0  0  0  0  0  0  0
    7.4408  -13.7588   15.5146 C   0  0  0  0  0  0  0  0  0  0  0  0
    8.2516  -12.9332   14.6281 N   0  0  0  0  0  0  0  0  0  0  0  0
    7.8763  -15.6499   21.2538 C   0  0  0  0  0  0  0  0  0  0  0  0
    7.5058  -14.8350   22.1401 O   0  0  0  0  0  0  0  0  0  0  0  0
    7.7756  -17.0136   21.6123 N   0  0  0  0  0  0  0  0  0  0  0  0
    7.4400  -17.4978   22.8964 C   0  0  1  0  0  0  0  0  0  0  0  0
    7.1105  -18.9529   22.9935 C   0  0  0  0  0  0  0  0  0  0  0  0
    5.7978  -19.2841   22.3156 C   0  0  0  0  0  0  0  0  0  0  0  0
    5.6384  -20.7937   22.1713 C   0  0  0  0  0  0  0  0  0  0  0  0
    4.3691  -21.1108   21.3834 C   0  0  0  0  0  0  0  0  0  0  0  0
    4.2425  -22.5504   21.2316 N   0  0  0  0  0  0  0  0  0  0  0  0
    8.5886  -17.1992   23.8331 C   0  0  0  0  0  0  0  0  0  0  0  0
    9.6676  -16.7758   23.3506 O   0  0  0  0  0  0  0  0  0  0  0  0
    8.4792  -17.3822   25.2158 N   0  0  0  0  0  0  0  0  0  0  0  0
    8.7441  -16.2465   26.1357 C   0  0  1  0  0  0  0  0  0  0  0  0
    7.9659  -15.0695   25.7086 C   0  0  0  0  0  0  0  0  0  0  0  0
    8.0564  -13.8485   26.4807 C   0  0  0  0  0  0  0  0  0  0  0  0
    7.1468  -12.8738   26.7585 C   0  0  0  0  0  0  0  0  0  0  0  0
    7.7223  -11.9586   27.5982 N   0  0  0  0  0  0  0  0  0  0  0  0
    8.9716  -12.3818   27.8252 C   0  0  0  0  0  0  0  0  0  0  0  0
    9.1861  -13.5053   27.1677 N   0  0  0  0  0  0  0  0  0  0  0  0
    8.4297  -16.7346   27.5196 C   0  0  0  0  0  0  0  0  0  0  0  0
    8.7502  -16.0208   28.5347 O   0  0  0  0  0  0  0  0  0  0  0  0
    7.8119  -17.9155   27.8078 O   0  0  0  0  0  0  0  0  0  0  0  0
  2  3  1  0
  2  1  1  6
  3  4  1  0
  4  5  1  0
  5  6  1  0
  6  7  1  0
  8  9  2  0
  8  2  1  0
 10  8  1  0
 11 10  1  0
 11 12  1  6
 13 14  1  0
 13 12  1  0
 15 16  1  0
 15 14  1  0
 17 11  1  0
 17 19  1  0
 18 17  2  0
 20 19  1  0
 20 27  1  0
 20 21  1  6
 22 26  1  0
 22 21  1  0
 23 22  2  0
 24 23  1  0
 24 25  1  0
 25 26  2  0
 27 28  2  0
 27 29  1  0
M  END
$$$$
