MMD.pdb
     RDKit          3D

 25 24  0  0  1  0  0  0  0  0999 V2000
    9.8813  -14.0105   29.5659 C   0  0  0  0  0  0  0  0  0  0  0  0
    9.7792  -13.8171   27.7887 S   0  0  0  0  0  0  0  0  0  0  0  0
    8.0968  -13.4829   27.2198 C   0  0  0  0  0  0  0  0  0  0  0  0
    7.4936  -14.7599   26.7137 C   0  0  0  0  0  0  0  0  0  0  0  0
    8.4599  -15.6001   25.9241 C   0  0  2  0  0  0  0  0  0  0  0  0
    9.7736  -15.0246   26.0017 N   0  0  0  0  0  0  0  0  0  0  0  0
    7.9530  -15.6138   24.5071 C   0  0  0  0  0  0  0  0  0  0  0  0
    6.8502  -16.1572   24.2456 O   0  0  0  0  0  0  0  0  0  0  0  0
    7.9044  -11.1450   20.5170 C   0  0  0  0  0  0  0  0  0  0  0  0
    6.9811  -12.3548   19.5631 S   0  0  0  0  0  0  0  0  0  0  0  0
    7.4791  -14.0812   19.9914 C   0  0  0  0  0  0  0  0  0  0  0  0
    7.9337  -14.0373   21.3968 C   0  0  0  0  0  0  0  0  0  0  0  0
    8.3734  -15.3033   22.0349 C   0  0  2  0  0  0  0  0  0  0  0  0
    8.7019  -15.0213   23.4556 N   0  0  0  0  0  0  0  0  0  0  0  0
    9.5469  -15.9679   21.4505 C   0  0  0  0  0  0  0  0  0  0  0  0
    9.3598  -16.6121   20.3524 O   0  0  0  0  0  0  0  0  0  0  0  0
   10.8593  -15.9580   21.9837 N   0  0  0  0  0  0  0  0  0  0  0  0
   12.0064  -16.5240   21.3000 C   0  0  1  0  0  0  0  0  0  0  0  0
   13.1306  -15.5427   21.1714 C   0  0  0  0  0  0  0  0  0  0  0  0
   13.5465  -15.4403   19.7605 C   0  0  0  0  0  0  0  0  0  0  0  0
   12.9482  -16.1308   18.8961 O   0  0  0  0  0  0  0  0  0  0  0  0
   12.4864  -17.6864   22.0641 C   0  0  0  0  0  0  0  0  0  0  0  0
   12.0313  -18.0296   23.1897 O   0  0  0  0  0  0  0  0  0  0  0  0
   14.5684  -14.6259   19.2979 O   0  0  0  0  0  0  0  0  0  0  0  0
   13.5016  -18.4669   21.5319 O   0  0  0  0  0  0  0  0  0  0  0  0
  1  2  1  0
  3  2  1  0
  4  3  1  0
  5  6  1  6
  5  4  1  0
  7  5  1  0
  8  7  2  0
 10  9  1  0
 10 11  1  0
 13 12  1  6
 12 11  1  0
 13 14  1  0
 14  7  1  0
 15 17  1  0
 15 13  1  0
 16 15  2  0
 18 19  1  1
 18 22  1  0
 18 17  1  0
 20 24  1  0
 20 19  1  0
 21 20  2  0
 22 25  1  0
 23 22  2  0
M  END
$$$$
