MMD.pdb
     RDKit          3D

 25 24  0  0  1  0  0  0  0  0999 V2000
    8.9452  -11.6782   19.9467 C   0  0  0  0  0  0  0  0  0  0  0  0
    7.4352  -12.6339   20.0592 S   0  0  0  0  0  0  0  0  0  0  0  0
    7.6693  -14.3639   19.5922 C   0  0  0  0  0  0  0  0  0  0  0  0
    8.9703  -14.8479   20.1614 C   0  0  0  0  0  0  0  0  0  0  0  0
    8.8350  -16.1209   20.9514 C   0  0  2  0  0  0  0  0  0  0  0  0
    7.4752  -16.5802   20.8957 N   0  0  0  0  0  0  0  0  0  0  0  0
    9.2423  -15.7918   22.3624 C   0  0  0  0  0  0  0  0  0  0  0  0
   10.4229  -15.4329   22.6020 O   0  0  0  0  0  0  0  0  0  0  0  0
    5.7708  -11.8766   26.2408 C   0  0  0  0  0  0  0  0  0  0  0  0
    7.5561  -12.0120   26.3840 S   0  0  0  0  0  0  0  0  0  0  0  0
    8.2709  -13.0372   25.0239 C   0  0  0  0  0  0  0  0  0  0  0  0
    7.8466  -14.4266   25.2946 C   0  0  0  0  0  0  0  0  0  0  0  0
    8.7141  -15.5335   24.8199 C   0  0  2  0  0  0  0  0  0  0  0  0
    8.3126  -15.8800   23.4327 N   0  0  0  0  0  0  0  0  0  0  0  0
    8.6821  -16.7809   25.5965 C   0  0  0  0  0  0  0  0  0  0  0  0
    7.8088  -17.6584   25.2459 O   0  0  0  0  0  0  0  0  0  0  0  0
    9.5263  -17.1026   26.6878 N   0  0  0  0  0  0  0  0  0  0  0  0
   10.3556  -18.2916   26.7361 C   0  0  1  0  0  0  0  0  0  0  0  0
   11.3382  -18.3434   25.6070 C   0  0  0  0  0  0  0  0  0  0  0  0
   11.2061  -19.6234   24.8871 C   0  0  0  0  0  0  0  0  0  0  0  0
   10.0562  -20.0581   24.6208 O   0  0  0  0  0  0  0  0  0  0  0  0
   11.1013  -18.2968   28.0047 C   0  0  0  0  0  0  0  0  0  0  0  0
   11.1326  -19.2736   28.8026 O   0  0  0  0  0  0  0  0  0  0  0  0
   12.2715  -20.4062   24.4702 O   0  0  0  0  0  0  0  0  0  0  0  0
   11.8216  -17.1677   28.3645 O   0  0  0  0  0  0  0  0  0  0  0  0
  1  2  1  0
  3  2  1  0
  4  3  1  0
  5  6  1  1
  5  4  1  0
  7  5  1  0
  8  7  2  0
 10  9  1  0
 10 11  1  0
 13 12  1  1
 12 11  1  0
 13 14  1  0
 14  7  1  0
 15 17  1  0
 15 13  1  0
 16 15  2  0
 18 19  1  6
 18 22  1  0
 18 17  1  0
 20 24  1  0
 20 19  1  0
 21 20  2  0
 22 25  1  0
 23 22  2  0
M  END
$$$$
