MMD.pdb
     RDKit          3D

 25 24  0  0  1  0  0  0  0  0999 V2000
    6.8652  -11.5709   19.9591 C   0  0  0  0  0  0  0  0  0  0  0  0
    8.0294  -12.9310   19.9887 S   0  0  0  0  0  0  0  0  0  0  0  0
    7.3588  -14.4382   19.2508 C   0  0  0  0  0  0  0  0  0  0  0  0
    8.4222  -15.4964   19.2586 C   0  0  0  0  0  0  0  0  0  0  0  0
    8.2528  -16.4993   20.3669 C   0  0  2  0  0  0  0  0  0  0  0  0
    6.8544  -16.7438   20.5856 N   0  0  0  0  0  0  0  0  0  0  0  0
    8.8990  -15.8994   21.5866 C   0  0  0  0  0  0  0  0  0  0  0  0
   10.0723  -15.4545   21.5143 O   0  0  0  0  0  0  0  0  0  0  0  0
    6.3582  -11.0901   26.4000 C   0  0  0  0  0  0  0  0  0  0  0  0
    6.6830  -12.8560   26.3525 S   0  0  0  0  0  0  0  0  0  0  0  0
    7.6605  -13.3270   24.8578 C   0  0  0  0  0  0  0  0  0  0  0  0
    7.9022  -14.7805   24.9704 C   0  0  0  0  0  0  0  0  0  0  0  0
    8.9003  -15.4011   24.0638 C   0  0  2  0  0  0  0  0  0  0  0  0
    8.2039  -15.8270   22.8231 N   0  0  0  0  0  0  0  0  0  0  0  0
    9.6186  -16.5775   24.5741 C   0  0  0  0  0  0  0  0  0  0  0  0
    8.9818  -17.6955   24.5592 O   0  0  0  0  0  0  0  0  0  0  0  0
   10.9441  -16.5901   25.0736 N   0  0  0  0  0  0  0  0  0  0  0  0
   11.6415  -17.8001   25.4652 C   0  0  1  0  0  0  0  0  0  0  0  0
   13.1187  -17.5873   25.5912 C   0  0  0  0  0  0  0  0  0  0  0  0
   13.5958  -16.7274   24.4925 C   0  0  0  0  0  0  0  0  0  0  0  0
   13.3401  -17.0555   23.3055 O   0  0  0  0  0  0  0  0  0  0  0  0
   11.1212  -18.2455   26.7676 C   0  0  0  0  0  0  0  0  0  0  0  0
   10.2872  -17.5953   27.4557 O   0  0  0  0  0  0  0  0  0  0  0  0
   14.3213  -15.5589   24.6652 O   0  0  0  0  0  0  0  0  0  0  0  0
   11.5619  -19.4524   27.2894 O   0  0  0  0  0  0  0  0  0  0  0  0
  1  2  1  0
  3  2  1  0
  4  3  1  0
  5  6  1  1
  5  4  1  0
  7  5  1  0
  8  7  2  0
 10  9  1  0
 10 11  1  0
 13 12  1  1
 12 11  1  0
 13 14  1  0
 14  7  1  0
 15 17  1  0
 15 13  1  0
 16 15  2  0
 18 19  1  1
 18 22  1  0
 18 17  1  0
 20 24  1  0
 20 19  1  0
 21 20  2  0
 22 25  1  0
 23 22  2  0
M  END
$$$$
