MMD.pdb
     RDKit          3D

 25 24  0  0  1  0  0  0  0  0999 V2000
    7.7896  -11.6260   19.1396 C   0  0  0  0  0  0  0  0  0  0  0  0
    6.8657  -12.9473   18.3606 S   0  0  0  0  0  0  0  0  0  0  0  0
    7.1786  -14.5573   19.1193 C   0  0  0  0  0  0  0  0  0  0  0  0
    8.5709  -14.5676   19.6780 C   0  0  0  0  0  0  0  0  0  0  0  0
    8.8831  -15.8080   20.4699 C   0  0  2  0  0  0  0  0  0  0  0  0
    7.7495  -16.6899   20.4502 N   0  0  0  0  0  0  0  0  0  0  0  0
    9.1954  -15.3521   21.8698 C   0  0  0  0  0  0  0  0  0  0  0  0
   10.2447  -14.6966   22.0915 O   0  0  0  0  0  0  0  0  0  0  0  0
    6.6959  -12.0663   28.2254 C   0  0  0  0  0  0  0  0  0  0  0  0
    6.6066  -12.7016   26.5477 S   0  0  0  0  0  0  0  0  0  0  0  0
    7.4501  -14.3377   26.3950 C   0  0  0  0  0  0  0  0  0  0  0  0
    7.4156  -14.6813   24.9582 C   0  0  0  0  0  0  0  0  0  0  0  0
    8.6487  -15.2221   24.3333 C   0  0  2  0  0  0  0  0  0  0  0  0
    8.3221  -15.6509   22.9494 N   0  0  0  0  0  0  0  0  0  0  0  0
    9.2794  -16.3716   24.9975 C   0  0  0  0  0  0  0  0  0  0  0  0
    8.5695  -17.4396   25.1035 O   0  0  0  0  0  0  0  0  0  0  0  0
   10.5940  -16.4091   25.5240 N   0  0  0  0  0  0  0  0  0  0  0  0
   11.1624  -17.5721   26.1783 C   0  0  1  0  0  0  0  0  0  0  0  0
   12.6570  -17.6005   26.0856 C   0  0  0  0  0  0  0  0  0  0  0  0
   13.0831  -17.1725   24.7405 C   0  0  0  0  0  0  0  0  0  0  0  0
   12.7103  -17.8391   23.7412 O   0  0  0  0  0  0  0  0  0  0  0  0
   10.7832  -17.5475   27.5999 C   0  0  0  0  0  0  0  0  0  0  0  0
   10.1268  -16.6155   28.1407 O   0  0  0  0  0  0  0  0  0  0  0  0
   13.8809  -16.0689   24.4810 O   0  0  0  0  0  0  0  0  0  0  0  0
   11.1607  -18.6049   28.4138 O   0  0  0  0  0  0  0  0  0  0  0  0
  1  2  1  0
  3  2  1  0
  4  3  1  0
  5  6  1  1
  5  4  1  0
  7  5  1  0
  8  7  2  0
 10  9  1  0
 10 11  1  0
 13 12  1  1
 12 11  1  0
 13 14  1  0
 14  7  1  0
 15 17  1  0
 15 13  1  0
 16 15  2  0
 18 19  1  1
 18 22  1  0
 18 17  1  0
 20 24  1  0
 20 19  1  0
 21 20  2  0
 22 25  1  0
 23 22  2  0
M  END
$$$$
