MMD.pdb
     RDKit          3D

 25 24  0  0  1  0  0  0  0  0999 V2000
    7.9207  -11.5038   19.6195 C   0  0  0  0  0  0  0  0  0  0  0  0
    6.9599  -12.7543   18.7716 S   0  0  0  0  0  0  0  0  0  0  0  0
    7.1999  -14.4060   19.4645 C   0  0  0  0  0  0  0  0  0  0  0  0
    8.4558  -14.4096   20.2851 C   0  0  0  0  0  0  0  0  0  0  0  0
    8.7057  -15.7196   20.9812 C   0  0  2  0  0  0  0  0  0  0  0  0
    7.4785  -16.4609   21.0676 N   0  0  0  0  0  0  0  0  0  0  0  0
    9.2359  -15.3810   22.3485 C   0  0  0  0  0  0  0  0  0  0  0  0
   10.3608  -14.8317   22.4615 O   0  0  0  0  0  0  0  0  0  0  0  0
    6.3457  -11.0506   26.8004 C   0  0  0  0  0  0  0  0  0  0  0  0
    6.7132  -12.8060   26.8966 S   0  0  0  0  0  0  0  0  0  0  0  0
    7.7547  -13.3609   25.4756 C   0  0  0  0  0  0  0  0  0  0  0  0
    8.0413  -14.7908   25.7144 C   0  0  0  0  0  0  0  0  0  0  0  0
    9.0641  -15.4552   24.8683 C   0  0  2  0  0  0  0  0  0  0  0  0
    8.4847  -15.6724   23.5182 N   0  0  0  0  0  0  0  0  0  0  0  0
    9.5637  -16.7575   25.3316 C   0  0  0  0  0  0  0  0  0  0  0  0
    8.7194  -17.7283   25.3488 O   0  0  0  0  0  0  0  0  0  0  0  0
   10.8865  -17.0379   25.7541 N   0  0  0  0  0  0  0  0  0  0  0  0
   11.3326  -18.3535   26.1714 C   0  0  1  0  0  0  0  0  0  0  0  0
   12.8194  -18.5055   26.0724 C   0  0  0  0  0  0  0  0  0  0  0  0
   13.3029  -17.8917   24.8220 C   0  0  0  0  0  0  0  0  0  0  0  0
   12.7628  -18.2169   23.7337 O   0  0  0  0  0  0  0  0  0  0  0  0
   10.9338  -18.5660   27.5718 C   0  0  0  0  0  0  0  0  0  0  0  0
   10.3865  -17.6869   28.2924 O   0  0  0  0  0  0  0  0  0  0  0  0
   14.3296  -16.9633   24.7462 O   0  0  0  0  0  0  0  0  0  0  0  0
   11.1646  -19.8027   28.1552 O   0  0  0  0  0  0  0  0  0  0  0  0
  1  2  1  0
  3  2  1  0
  4  3  1  0
  5  6  1  1
  5  4  1  0
  7  5  1  0
  8  7  2  0
 10  9  1  0
 10 11  1  0
 13 12  1  1
 12 11  1  0
 13 14  1  0
 14  7  1  0
 15 17  1  0
 15 13  1  0
 16 15  2  0
 18 19  1  1
 18 22  1  0
 18 17  1  0
 20 24  1  0
 20 19  1  0
 21 20  2  0
 22 25  1  0
 23 22  2  0
M  END
$$$$
