MMD.pdb
     RDKit          3D

 25 24  0  0  1  0  0  0  0  0999 V2000
    8.9289  -11.6459   19.2804 C   0  0  0  0  0  0  0  0  0  0  0  0
    7.5575  -12.7076   18.8353 S   0  0  0  0  0  0  0  0  0  0  0  0
    7.6693  -14.3444   19.5930 C   0  0  0  0  0  0  0  0  0  0  0  0
    8.3484  -14.2168   20.9247 C   0  0  0  0  0  0  0  0  0  0  0  0
    8.6329  -15.5431   21.5749 C   0  0  2  0  0  0  0  0  0  0  0  0
    7.4190  -16.3057   21.6649 N   0  0  0  0  0  0  0  0  0  0  0  0
    9.1878  -15.2378   22.9402 C   0  0  0  0  0  0  0  0  0  0  0  0
   10.3482  -14.7673   23.0496 O   0  0  0  0  0  0  0  0  0  0  0  0
    6.9411  -11.4558   27.0676 C   0  0  0  0  0  0  0  0  0  0  0  0
    5.8308  -12.7937   26.6167 S   0  0  0  0  0  0  0  0  0  0  0  0
    6.6758  -14.0507   25.5595 C   0  0  0  0  0  0  0  0  0  0  0  0
    8.0281  -14.2208   26.1307 C   0  0  0  0  0  0  0  0  0  0  0  0
    8.9660  -15.1525   25.4558 C   0  0  2  0  0  0  0  0  0  0  0  0
    8.4205  -15.4731   24.1121 N   0  0  0  0  0  0  0  0  0  0  0  0
    9.2251  -16.4342   26.1269 C   0  0  0  0  0  0  0  0  0  0  0  0
    9.4398  -16.3903   27.3948 O   0  0  0  0  0  0  0  0  0  0  0  0
    9.2545  -17.7070   25.5055 N   0  0  0  0  0  0  0  0  0  0  0  0
    9.5761  -18.9346   26.2080 C   0  0  1  0  0  0  0  0  0  0  0  0
    8.9238  -20.1308   25.5862 C   0  0  0  0  0  0  0  0  0  0  0  0
    7.4661  -20.0739   25.8010 C   0  0  0  0  0  0  0  0  0  0  0  0
    7.0039  -19.2568   26.6380 O   0  0  0  0  0  0  0  0  0  0  0  0
   11.0344  -19.1291   26.1769 C   0  0  0  0  0  0  0  0  0  0  0  0
   11.7046  -19.6073   27.1329 O   0  0  0  0  0  0  0  0  0  0  0  0
    6.5412  -20.8673   25.1401 O   0  0  0  0  0  0  0  0  0  0  0  0
   11.7352  -18.7711   25.0351 O   0  0  0  0  0  0  0  0  0  0  0  0
  1  2  1  0
  3  2  1  0
  4  3  1  0
  5  6  1  1
  5  4  1  0
  7  5  1  0
  8  7  2  0
 10  9  1  0
 10 11  1  0
 13 12  1  1
 12 11  1  0
 13 14  1  0
 14  7  1  0
 15 17  1  0
 15 13  1  0
 16 15  2  0
 18 19  1  6
 18 22  1  0
 18 17  1  0
 20 24  1  0
 20 19  1  0
 21 20  2  0
 22 25  1  0
 23 22  2  0
M  END
$$$$
