MMD.pdb
     RDKit          3D

 25 24  0  0  1  0  0  0  0  0999 V2000
    8.0972  -11.6518   18.6714 C   0  0  0  0  0  0  0  0  0  0  0  0
    6.8254  -12.8404   18.2519 S   0  0  0  0  0  0  0  0  0  0  0  0
    7.0464  -14.4238   19.0944 C   0  0  0  0  0  0  0  0  0  0  0  0
    8.3592  -14.4073   19.8206 C   0  0  0  0  0  0  0  0  0  0  0  0
    8.6422  -15.6846   20.5632 C   0  0  2  0  0  0  0  0  0  0  0  0
    7.4514  -16.4862   20.6140 N   0  0  0  0  0  0  0  0  0  0  0  0
    9.0898  -15.2846   21.9434 C   0  0  0  0  0  0  0  0  0  0  0  0
   10.2564  -14.8505   22.1181 O   0  0  0  0  0  0  0  0  0  0  0  0
    6.4863  -11.3522   26.6950 C   0  0  0  0  0  0  0  0  0  0  0  0
    6.1863  -13.0891   27.0401 S   0  0  0  0  0  0  0  0  0  0  0  0
    7.6399  -14.1334   26.5837 C   0  0  0  0  0  0  0  0  0  0  0  0
    7.4909  -14.4323   25.1442 C   0  0  0  0  0  0  0  0  0  0  0  0
    8.6587  -14.9875   24.4153 C   0  0  2  0  0  0  0  0  0  0  0  0
    8.2139  -15.3894   23.0566 N   0  0  0  0  0  0  0  0  0  0  0  0
    9.3170  -16.1587   25.0116 C   0  0  0  0  0  0  0  0  0  0  0  0
    8.6069  -17.2256   25.1258 O   0  0  0  0  0  0  0  0  0  0  0  0
   10.6579  -16.2177   25.4646 N   0  0  0  0  0  0  0  0  0  0  0  0
   11.2530  -17.4013   26.0552 C   0  0  1  0  0  0  0  0  0  0  0  0
   12.7495  -17.3681   26.0055 C   0  0  0  0  0  0  0  0  0  0  0  0
   13.1978  -17.0483   24.6377 C   0  0  0  0  0  0  0  0  0  0  0  0
   12.7552  -17.7274   23.6759 O   0  0  0  0  0  0  0  0  0  0  0  0
   10.8343  -17.4888   27.4631 C   0  0  0  0  0  0  0  0  0  0  0  0
   10.6791  -16.4900   28.2182 O   0  0  0  0  0  0  0  0  0  0  0  0
   14.0893  -16.0362   24.3176 O   0  0  0  0  0  0  0  0  0  0  0  0
   10.5898  -18.7376   28.0144 O   0  0  0  0  0  0  0  0  0  0  0  0
  1  2  1  0
  3  2  1  0
  4  3  1  0
  5  6  1  1
  5  4  1  0
  7  5  1  0
  8  7  2  0
 10  9  1  0
 10 11  1  0
 13 12  1  1
 12 11  1  0
 13 14  1  0
 14  7  1  0
 15 17  1  0
 15 13  1  0
 16 15  2  0
 18 19  1  1
 18 22  1  0
 18 17  1  0
 20 24  1  0
 20 19  1  0
 21 20  2  0
 22 25  1  0
 23 22  2  0
M  END
$$$$
