MMD.pdb
     RDKit          3D

 25 24  0  0  1  0  0  0  0  0999 V2000
   11.3709  -14.4820   28.2371 C   0  0  0  0  0  0  0  0  0  0  0  0
   10.3426  -14.9133   29.6380 S   0  0  0  0  0  0  0  0  0  0  0  0
    9.0500  -16.1027   29.2134 C   0  0  0  0  0  0  0  0  0  0  0  0
    9.6906  -17.3261   28.6271 C   0  0  0  0  0  0  0  0  0  0  0  0
    9.8092  -17.2732   27.1284 C   0  0  2  0  0  0  0  0  0  0  0  0
   10.8621  -16.3682   26.7603 N   0  0  0  0  0  0  0  0  0  0  0  0
    8.4772  -16.7993   26.6123 C   0  0  0  0  0  0  0  0  0  0  0  0
    7.4311  -17.4222   26.9248 O   0  0  0  0  0  0  0  0  0  0  0  0
    7.8433  -11.3673   26.5415 C   0  0  0  0  0  0  0  0  0  0  0  0
    6.3569  -11.9115   25.6927 S   0  0  0  0  0  0  0  0  0  0  0  0
    6.1623  -13.7466   25.7724 C   0  0  0  0  0  0  0  0  0  0  0  0
    6.8219  -14.2792   24.5620 C   0  0  0  0  0  0  0  0  0  0  0  0
    7.4349  -15.6294   24.6300 C   0  0  2  0  0  0  0  0  0  0  0  0
    8.3807  -15.6562   25.7748 N   0  0  0  0  0  0  0  0  0  0  0  0
    8.1845  -16.0776   23.4479 C   0  0  0  0  0  0  0  0  0  0  0  0
    7.5090  -16.2533   22.3669 O   0  0  0  0  0  0  0  0  0  0  0  0
    9.5779  -16.3273   23.3925 N   0  0  0  0  0  0  0  0  0  0  0  0
   10.2612  -16.7972   22.2024 C   0  0  1  0  0  0  0  0  0  0  0  0
   11.0030  -15.6993   21.5042 C   0  0  0  0  0  0  0  0  0  0  0  0
   11.6923  -16.2375   20.3170 C   0  0  0  0  0  0  0  0  0  0  0  0
   11.0617  -16.9961   19.5368 O   0  0  0  0  0  0  0  0  0  0  0  0
   11.2254  -17.8387   22.5909 C   0  0  0  0  0  0  0  0  0  0  0  0
   11.9694  -17.7699   23.6075 O   0  0  0  0  0  0  0  0  0  0  0  0
   13.0107  -15.9696   19.9829 O   0  0  0  0  0  0  0  0  0  0  0  0
   11.3392  -18.9751   21.8042 O   0  0  0  0  0  0  0  0  0  0  0  0
  1  2  1  0
  3  2  1  0
  4  3  1  0
  5  6  1  1
  5  4  1  0
  7  5  1  0
  8  7  2  0
 10  9  1  0
 10 11  1  0
 13 12  1  6
 12 11  1  0
 13 14  1  0
 14  7  1  0
 15 17  1  0
 15 13  1  0
 16 15  2  0
 18 19  1  1
 18 22  1  0
 18 17  1  0
 20 24  1  0
 20 19  1  0
 21 20  2  0
 22 25  1  0
 23 22  2  0
M  END
$$$$
