MMD.pdb
     RDKit          3D

 25 24  0  0  1  0  0  0  0  0999 V2000
    8.2202  -11.8344   20.0596 C   0  0  0  0  0  0  0  0  0  0  0  0
    6.8327  -12.9659   20.0820 S   0  0  0  0  0  0  0  0  0  0  0  0
    7.3169  -14.6691   19.7210 C   0  0  0  0  0  0  0  0  0  0  0  0
    8.6506  -14.9382   20.3531 C   0  0  0  0  0  0  0  0  0  0  0  0
    8.6459  -16.1386   21.2598 C   0  0  2  0  0  0  0  0  0  0  0  0
    7.3011  -16.6184   21.4167 N   0  0  0  0  0  0  0  0  0  0  0  0
    9.2190  -15.6817   22.5743 C   0  0  0  0  0  0  0  0  0  0  0  0
   10.3996  -15.2533   22.6234 O   0  0  0  0  0  0  0  0  0  0  0  0
    5.9353  -10.9061   26.3975 C   0  0  0  0  0  0  0  0  0  0  0  0
    6.3586  -12.6328   26.6533 S   0  0  0  0  0  0  0  0  0  0  0  0
    7.6144  -13.2130   25.4293 C   0  0  0  0  0  0  0  0  0  0  0  0
    7.9721  -14.5887   25.8334 C   0  0  0  0  0  0  0  0  0  0  0  0
    9.0250  -15.2977   25.0642 C   0  0  2  0  0  0  0  0  0  0  0  0
    8.4464  -15.7265   23.7653 N   0  0  0  0  0  0  0  0  0  0  0  0
    9.6083  -16.4948   25.6863 C   0  0  0  0  0  0  0  0  0  0  0  0
   10.6096  -16.3086   26.4727 O   0  0  0  0  0  0  0  0  0  0  0  0
    9.1649  -17.8276   25.5016 N   0  0  0  0  0  0  0  0  0  0  0  0
    9.5969  -18.9379   26.3289 C   0  0  1  0  0  0  0  0  0  0  0  0
    9.5421  -18.6111   27.7895 C   0  0  0  0  0  0  0  0  0  0  0  0
   10.8853  -18.7445   28.3829 C   0  0  0  0  0  0  0  0  0  0  0  0
   11.8582  -18.1747   27.8254 O   0  0  0  0  0  0  0  0  0  0  0  0
    8.7155  -20.0883   26.0744 C   0  0  0  0  0  0  0  0  0  0  0  0
    7.6698  -20.0360   25.3704 O   0  0  0  0  0  0  0  0  0  0  0  0
   11.1704  -19.4648   29.5325 O   0  0  0  0  0  0  0  0  0  0  0  0
    9.0360  -21.3162   26.6337 O   0  0  0  0  0  0  0  0  0  0  0  0
  1  2  1  0
  3  2  1  0
  4  3  1  0
  5  6  1  1
  5  4  1  0
  7  5  1  0
  8  7  2  0
 10  9  1  0
 10 11  1  0
 13 12  1  1
 12 11  1  0
 13 14  1  0
 14  7  1  0
 15 17  1  0
 15 13  1  0
 16 15  2  0
 18 19  1  1
 18 22  1  0
 18 17  1  0
 20 24  1  0
 20 19  1  0
 21 20  2  0
 22 25  1  0
 23 22  2  0
M  END
$$$$
