MMD.pdb
     RDKit          3D

 25 24  0  0  1  0  0  0  0  0999 V2000
    8.1137  -11.6446   19.8256 C   0  0  0  0  0  0  0  0  0  0  0  0
    8.7987  -13.2517   20.2180 S   0  0  0  0  0  0  0  0  0  0  0  0
    8.2565  -14.5390   19.0714 C   0  0  0  0  0  0  0  0  0  0  0  0
    8.9420  -15.8252   19.4273 C   0  0  0  0  0  0  0  0  0  0  0  0
    8.2668  -16.5665   20.5487 C   0  0  2  0  0  0  0  0  0  0  0  0
    6.8416  -16.4862   20.3898 N   0  0  0  0  0  0  0  0  0  0  0  0
    8.7117  -15.9048   21.8252 C   0  0  0  0  0  0  0  0  0  0  0  0
    9.9330  -15.6771   22.0156 O   0  0  0  0  0  0  0  0  0  0  0  0
    7.3770  -10.9677   26.4563 C   0  0  0  0  0  0  0  0  0  0  0  0
    6.3141  -12.4156   26.4599 S   0  0  0  0  0  0  0  0  0  0  0  0
    7.2851  -13.9716   26.2416 C   0  0  0  0  0  0  0  0  0  0  0  0
    7.1332  -14.3509   24.8214 C   0  0  0  0  0  0  0  0  0  0  0  0
    8.2221  -15.1291   24.1796 C   0  0  2  0  0  0  0  0  0  0  0  0
    7.7720  -15.5317   22.8228 N   0  0  0  0  0  0  0  0  0  0  0  0
    8.6545  -16.3548   24.8658 C   0  0  0  0  0  0  0  0  0  0  0  0
    7.7724  -17.2809   25.0066 O   0  0  0  0  0  0  0  0  0  0  0  0
    9.9507  -16.6071   25.3789 N   0  0  0  0  0  0  0  0  0  0  0  0
   10.3713  -17.8956   25.8953 C   0  0  1  0  0  0  0  0  0  0  0  0
   11.6468  -18.3684   25.2685 C   0  0  0  0  0  0  0  0  0  0  0  0
   12.0882  -19.6184   25.9141 C   0  0  0  0  0  0  0  0  0  0  0  0
   11.2236  -20.4580   26.2737 O   0  0  0  0  0  0  0  0  0  0  0  0
   10.5801  -17.7779   27.3472 C   0  0  0  0  0  0  0  0  0  0  0  0
   10.7471  -18.7613   28.1197 O   0  0  0  0  0  0  0  0  0  0  0  0
   13.4105  -19.9515   26.1636 O   0  0  0  0  0  0  0  0  0  0  0  0
   10.5983  -16.5163   27.9226 O   0  0  0  0  0  0  0  0  0  0  0  0
  1  2  1  0
  3  2  1  0
  4  3  1  0
  5  6  1  6
  5  4  1  0
  7  5  1  0
  8  7  2  0
 10  9  1  0
 10 11  1  0
 13 12  1  1
 12 11  1  0
 13 14  1  0
 14  7  1  0
 15 17  1  0
 15 13  1  0
 16 15  2  0
 18 19  1  6
 18 22  1  0
 18 17  1  0
 20 24  1  0
 20 19  1  0
 21 20  2  0
 22 25  1  0
 23 22  2  0
M  END
$$$$
