MMD.pdb
     RDKit          3D

 25 24  0  0  1  0  0  0  0  0999 V2000
    8.7420  -11.6315   19.1969 C   0  0  0  0  0  0  0  0  0  0  0  0
    7.2496  -12.6186   19.2645 S   0  0  0  0  0  0  0  0  0  0  0  0
    7.4211  -14.0687   20.3292 C   0  0  0  0  0  0  0  0  0  0  0  0
    8.8071  -14.6220   20.1751 C   0  0  0  0  0  0  0  0  0  0  0  0
    9.0291  -15.8906   20.9525 C   0  0  2  0  0  0  0  0  0  0  0  0
    7.8593  -16.7195   20.8659 N   0  0  0  0  0  0  0  0  0  0  0  0
    9.3007  -15.4770   22.3739 C   0  0  0  0  0  0  0  0  0  0  0  0
   10.3818  -14.9030   22.6595 O   0  0  0  0  0  0  0  0  0  0  0  0
    6.7882  -11.1714   26.3861 C   0  0  0  0  0  0  0  0  0  0  0  0
    6.0327  -12.7752   26.6743 S   0  0  0  0  0  0  0  0  0  0  0  0
    7.2900  -14.1283   26.6745 C   0  0  0  0  0  0  0  0  0  0  0  0
    7.3143  -14.6621   25.2968 C   0  0  0  0  0  0  0  0  0  0  0  0
    8.5849  -15.2338   24.7849 C   0  0  2  0  0  0  0  0  0  0  0  0
    8.3533  -15.7250   23.4026 N   0  0  0  0  0  0  0  0  0  0  0  0
    9.1615  -16.3530   25.5434 C   0  0  0  0  0  0  0  0  0  0  0  0
    9.3677  -16.1562   26.7981 O   0  0  0  0  0  0  0  0  0  0  0  0
    9.5041  -17.6236   25.0189 N   0  0  0  0  0  0  0  0  0  0  0  0
   10.2224  -18.6342   25.7717 C   0  0  1  0  0  0  0  0  0  0  0  0
   11.3956  -19.1770   25.0154 C   0  0  0  0  0  0  0  0  0  0  0  0
   10.9303  -19.8676   23.7985 C   0  0  0  0  0  0  0  0  0  0  0  0
   10.8016  -21.1186   23.8180 O   0  0  0  0  0  0  0  0  0  0  0  0
   10.7109  -18.0336   27.0231 C   0  0  0  0  0  0  0  0  0  0  0  0
   10.3281  -18.3849   28.1728 O   0  0  0  0  0  0  0  0  0  0  0  0
   10.6161  -19.2353   22.6055 O   0  0  0  0  0  0  0  0  0  0  0  0
   11.6513  -17.0165   26.9571 O   0  0  0  0  0  0  0  0  0  0  0  0
  1  2  1  0
  3  2  1  0
  4  3  1  0
  5  6  1  1
  5  4  1  0
  7  5  1  0
  8  7  2  0
 10  9  1  0
 10 11  1  0
 13 12  1  1
 12 11  1  0
 13 14  1  0
 14  7  1  0
 15 17  1  0
 15 13  1  0
 16 15  2  0
 18 19  1  6
 18 22  1  0
 18 17  1  0
 20 24  1  0
 20 19  1  0
 21 20  2  0
 22 25  1  0
 23 22  2  0
M  END
$$$$
