ILV.pdb
     RDKit          3D

 24 23  0  0  1  0  0  0  0  0999 V2000
    9.3635  -16.8203   17.3287 C   0  0  0  0  0  0  0  0  0  0  0  0
    9.1721  -17.3357   18.7228 C   0  0  0  0  0  0  0  0  0  0  0  0
    9.2819  -16.2338   19.7554 C   0  0  2  0  0  0  0  0  0  0  0  0
   10.6654  -15.6361   19.5863 C   0  0  0  0  0  0  0  0  0  0  0  0
    9.1369  -16.8191   21.1366 C   0  0  2  0  0  0  0  0  0  0  0  0
    7.9657  -17.5844   21.3309 N   0  0  0  0  0  0  0  0  0  0  0  0
    9.2489  -15.8071   22.1990 C   0  0  0  0  0  0  0  0  0  0  0  0
   10.2316  -15.0531   22.2386 O   0  0  0  0  0  0  0  0  0  0  0  0
    5.6407  -13.2036   26.5266 C   0  0  0  0  0  0  0  0  0  0  0  0
    7.0495  -13.3327   25.9378 C   0  0  2  0  0  0  0  0  0  0  0  0
    7.5033  -11.9960   25.4142 C   0  0  0  0  0  0  0  0  0  0  0  0
    6.9647  -14.3611   24.8475 C   0  0  0  0  0  0  0  0  0  0  0  0
    8.2570  -14.8622   24.3338 C   0  0  2  0  0  0  0  0  0  0  0  0
    8.2315  -15.6952   23.1776 N   0  0  0  0  0  0  0  0  0  0  0  0
    9.0362  -15.5428   25.4473 C   0  0  0  0  0  0  0  0  0  0  0  0
    9.3320  -16.7483   25.4106 O   0  0  0  0  0  0  0  0  0  0  0  0
   10.7576  -13.1927   28.4790 C   0  0  0  0  0  0  0  0  0  0  0  0
   10.3630  -14.6241   28.8359 C   0  0  2  0  0  0  0  0  0  0  0  0
   11.4068  -15.2387   29.7420 C   0  0  0  0  0  0  0  0  0  0  0  0
   10.3189  -15.4179   27.5644 C   0  0  2  0  0  0  0  0  0  0  0  0
    9.4481  -14.7855   26.5768 N   0  0  0  0  0  0  0  0  0  0  0  0
    9.8168  -16.7880   27.8910 C   0  0  0  0  0  0  0  0  0  0  0  0
   10.7096  -17.8176   28.0630 O   0  0  0  0  0  0  0  0  0  0  0  0
    8.5992  -17.0335   28.0143 O   0  0  0  0  0  0  0  0  0  0  0  0
  1  2  1  0
  3  5  1  0
  3  2  1  0
  3  4  1  1
  5  6  1  6
  7  5  1  0
  7  8  2  0
 10  9  1  6
 11 10  1  0
 13 12  1  1
 12 10  1  0
 13 14  1  0
 14  7  1  0
 15 13  1  0
 16 15  2  0
 18 17  1  6
 18 20  1  0
 19 18  1  0
 20 22  1  0
 20 21  1  6
 21 15  1  0
 22 23  1  0
 24 22  2  0
M  END
$$$$
