ILV.pdb
     RDKit          3D

 24 23  0  0  1  0  0  0  0  0999 V2000
    6.6700  -19.2074   19.4598 C   0  0  0  0  0  0  0  0  0  0  0  0
    6.8318  -17.7176   19.4569 C   0  0  0  0  0  0  0  0  0  0  0  0
    7.5422  -17.2213   20.6985 C   0  0  2  0  0  0  0  0  0  0  0  0
    6.7380  -17.7365   21.8766 C   0  0  0  0  0  0  0  0  0  0  0  0
    7.5585  -15.7144   20.7033 C   0  0  2  0  0  0  0  0  0  0  0  0
    8.1581  -15.1293   19.5660 N   0  0  0  0  0  0  0  0  0  0  0  0
    8.1611  -15.1549   21.9236 C   0  0  0  0  0  0  0  0  0  0  0  0
    9.3913  -15.0320   22.0098 O   0  0  0  0  0  0  0  0  0  0  0  0
    6.1205  -12.3901   27.1240 C   0  0  0  0  0  0  0  0  0  0  0  0
    7.2871  -13.1301   26.4612 C   0  0  2  0  0  0  0  0  0  0  0  0
    8.5107  -12.2530   26.4660 C   0  0  0  0  0  0  0  0  0  0  0  0
    6.8440  -13.4646   25.0664 C   0  0  0  0  0  0  0  0  0  0  0  0
    7.7682  -14.3120   24.2836 C   0  0  2  0  0  0  0  0  0  0  0  0
    7.3332  -14.7562   23.0011 N   0  0  0  0  0  0  0  0  0  0  0  0
    8.2257  -15.4982   25.1165 C   0  0  0  0  0  0  0  0  0  0  0  0
    7.4254  -16.2843   25.6494 O   0  0  0  0  0  0  0  0  0  0  0  0
   11.3773  -17.5237   23.9116 C   0  0  0  0  0  0  0  0  0  0  0  0
   11.4195  -17.3708   25.4304 C   0  0  2  0  0  0  0  0  0  0  0  0
   11.7909  -18.6886   26.0736 C   0  0  0  0  0  0  0  0  0  0  0  0
   10.0431  -16.9946   25.8916 C   0  0  2  0  0  0  0  0  0  0  0  0
    9.6156  -15.7291   25.3008 N   0  0  0  0  0  0  0  0  0  0  0  0
   10.0683  -16.8842   27.3826 C   0  0  0  0  0  0  0  0  0  0  0  0
    9.8147  -17.9933   28.1522 O   0  0  0  0  0  0  0  0  0  0  0  0
   10.3143  -15.8059   27.9612 O   0  0  0  0  0  0  0  0  0  0  0  0
  1  2  1  0
  3  5  1  0
  3  2  1  0
  3  4  1  1
  5  6  1  6
  7  5  1  0
  7  8  2  0
 10  9  1  6
 11 10  1  0
 13 12  1  1
 12 10  1  0
 13 14  1  0
 14  7  1  0
 15 13  1  0
 16 15  2  0
 18 17  1  6
 18 20  1  0
 19 18  1  0
 20 22  1  0
 20 21  1  6
 21 15  1  0
 22 23  1  0
 24 22  2  0
M  END
$$$$
