ILV.pdb
     RDKit          3D

 24 23  0  0  1  0  0  0  0  0999 V2000
    6.7010  -18.2555   19.1227 C   0  0  0  0  0  0  0  0  0  0  0  0
    6.7572  -16.8101   19.5146 C   0  0  0  0  0  0  0  0  0  0  0  0
    7.5134  -16.6021   20.8098 C   0  0  2  0  0  0  0  0  0  0  0  0
    6.8041  -17.4470   21.8505 C   0  0  0  0  0  0  0  0  0  0  0  0
    7.4577  -15.1474   21.1996 C   0  0  2  0  0  0  0  0  0  0  0  0
    7.8692  -14.2515   20.1880 N   0  0  0  0  0  0  0  0  0  0  0  0
    8.1922  -14.8619   22.4423 C   0  0  0  0  0  0  0  0  0  0  0  0
    9.4214  -14.7067   22.4166 O   0  0  0  0  0  0  0  0  0  0  0  0
    8.1941  -11.7446   25.8667 C   0  0  0  0  0  0  0  0  0  0  0  0
    6.8987  -12.5559   25.7587 C   0  0  2  0  0  0  0  0  0  0  0  0
    5.8965  -12.0442   26.7590 C   0  0  0  0  0  0  0  0  0  0  0  0
    7.2679  -13.9875   26.0189 C   0  0  0  0  0  0  0  0  0  0  0  0
    8.0708  -14.6462   24.9669 C   0  0  2  0  0  0  0  0  0  0  0  0
    7.4923  -14.7645   23.6696 N   0  0  0  0  0  0  0  0  0  0  0  0
    8.5515  -16.0057   25.4472 C   0  0  0  0  0  0  0  0  0  0  0  0
    7.7742  -16.9538   25.6446 O   0  0  0  0  0  0  0  0  0  0  0  0
   11.5714  -17.8168   23.9408 C   0  0  0  0  0  0  0  0  0  0  0  0
   11.7246  -17.8641   25.4594 C   0  0  2  0  0  0  0  0  0  0  0  0
   12.1272  -19.2552   25.8964 C   0  0  0  0  0  0  0  0  0  0  0  0
   10.3892  -17.5498   26.0649 C   0  0  2  0  0  0  0  0  0  0  0  0
    9.9371  -16.2145   25.6829 N   0  0  0  0  0  0  0  0  0  0  0  0
   10.5213  -17.6429   27.5515 C   0  0  0  0  0  0  0  0  0  0  0  0
   10.5153  -18.8742   28.1601 O   0  0  0  0  0  0  0  0  0  0  0  0
   10.6378  -16.6283   28.2692 O   0  0  0  0  0  0  0  0  0  0  0  0
  1  2  1  0
  3  5  1  0
  3  2  1  0
  3  4  1  1
  5  6  1  6
  7  5  1  0
  7  8  2  0
 10  9  1  1
 11 10  1  0
 13 12  1  1
 12 10  1  0
 13 14  1  0
 14  7  1  0
 15 13  1  0
 16 15  2  0
 18 17  1  6
 18 20  1  0
 19 18  1  0
 20 22  1  0
 20 21  1  1
 21 15  1  0
 22 23  1  0
 24 22  2  0
M  END
$$$$
