ILV.pdb
     RDKit          3D

 24 23  0  0  1  0  0  0  0  0999 V2000
    4.9777  -11.3196   27.1101 C   0  0  0  0  0  0  0  0  0  0  0  0
    4.7529  -12.6802   26.5236 C   0  0  0  0  0  0  0  0  0  0  0  0
    6.0457  -13.3214   26.0652 C   0  0  2  0  0  0  0  0  0  0  0  0
    6.6711  -12.3498   25.0829 C   0  0  0  0  0  0  0  0  0  0  0  0
    5.7457  -14.6290   25.3787 C   0  0  2  0  0  0  0  0  0  0  0  0
    5.0647  -15.5715   26.1808 N   0  0  0  0  0  0  0  0  0  0  0  0
    6.9424  -15.2519   24.7912 C   0  0  0  0  0  0  0  0  0  0  0  0
    7.2757  -16.3974   25.1266 O   0  0  0  0  0  0  0  0  0  0  0  0
    7.9944  -14.9248   20.2375 C   0  0  0  0  0  0  0  0  0  0  0  0
    8.4235  -13.6998   21.0519 C   0  0  2  0  0  0  0  0  0  0  0  0
    9.0198  -12.6659   20.1342 C   0  0  0  0  0  0  0  0  0  0  0  0
    9.4171  -14.1874   22.0661 C   0  0  0  0  0  0  0  0  0  0  0  0
    8.8675  -15.0219   23.1554 C   0  0  2  0  0  0  0  0  0  0  0  0
    7.7142  -14.5404   23.8406 N   0  0  0  0  0  0  0  0  0  0  0  0
    9.9595  -15.3662   24.1550 C   0  0  0  0  0  0  0  0  0  0  0  0
   11.1190  -15.6400   23.8046 O   0  0  0  0  0  0  0  0  0  0  0  0
   10.0012  -13.5922   27.7451 C   0  0  0  0  0  0  0  0  0  0  0  0
   10.3650  -15.0708   27.8612 C   0  0  2  0  0  0  0  0  0  0  0  0
   11.5555  -15.2409   28.7787 C   0  0  0  0  0  0  0  0  0  0  0  0
   10.7512  -15.5564   26.4960 C   0  0  2  0  0  0  0  0  0  0  0  0
    9.6580  -15.3792   25.5435 N   0  0  0  0  0  0  0  0  0  0  0  0
   11.1104  -17.0039   26.6037 C   0  0  0  0  0  0  0  0  0  0  0  0
   12.2902  -17.3700   27.2043 O   0  0  0  0  0  0  0  0  0  0  0  0
   10.3672  -17.9038   26.1612 O   0  0  0  0  0  0  0  0  0  0  0  0
  1  2  1  0
  3  5  1  0
  3  2  1  0
  3  4  1  6
  5  6  1  1
  7  5  1  0
  7  8  2  0
 10  9  1  6
 11 10  1  0
 13 12  1  6
 12 10  1  0
 13 14  1  0
 14  7  1  0
 15 13  1  0
 16 15  2  0
 18 17  1  6
 18 20  1  0
 19 18  1  0
 20 22  1  0
 20 21  1  6
 21 15  1  0
 22 23  1  0
 24 22  2  0
M  END
$$$$
