ILV.pdb
     RDKit          3D

 24 23  0  0  1  0  0  0  0  0999 V2000
   10.6669  -20.0780   22.8980 C   0  0  0  0  0  0  0  0  0  0  0  0
   10.6196  -18.6682   22.3919 C   0  0  0  0  0  0  0  0  0  0  0  0
    9.2325  -18.2785   21.9263 C   0  0  2  0  0  0  0  0  0  0  0  0
    8.9147  -19.1825   20.7509 C   0  0  0  0  0  0  0  0  0  0  0  0
    9.2338  -16.8376   21.4848 C   0  0  2  0  0  0  0  0  0  0  0  0
   10.1442  -16.5418   20.4461 N   0  0  0  0  0  0  0  0  0  0  0  0
    9.4344  -15.8998   22.6008 C   0  0  0  0  0  0  0  0  0  0  0  0
   10.5387  -15.3641   22.7722 O   0  0  0  0  0  0  0  0  0  0  0  0
    5.8392  -12.8176   26.6390 C   0  0  0  0  0  0  0  0  0  0  0  0
    7.2690  -13.1936   26.2359 C   0  0  2  0  0  0  0  0  0  0  0  0
    8.0315  -11.9513   25.8591 C   0  0  0  0  0  0  0  0  0  0  0  0
    7.1512  -14.1488   25.0838 C   0  0  0  0  0  0  0  0  0  0  0  0
    8.4148  -14.7654   24.6277 C   0  0  2  0  0  0  0  0  0  0  0  0
    8.3631  -15.6092   23.4801 N   0  0  0  0  0  0  0  0  0  0  0  0
    9.0887  -15.4944   25.7786 C   0  0  0  0  0  0  0  0  0  0  0  0
    8.6166  -16.5293   26.2771 O   0  0  0  0  0  0  0  0  0  0  0  0
    9.4420  -14.6610   29.2079 C   0  0  0  0  0  0  0  0  0  0  0  0
   10.8715  -14.7225   28.6744 C   0  0  2  0  0  0  0  0  0  0  0  0
   11.3132  -13.3500   28.2168 C   0  0  0  0  0  0  0  0  0  0  0  0
   10.8787  -15.6382   27.4869 C   0  0  2  0  0  0  0  0  0  0  0  0
   10.3029  -14.9860   26.3136 N   0  0  0  0  0  0  0  0  0  0  0  0
   10.0880  -16.8579   27.8377 C   0  0  0  0  0  0  0  0  0  0  0  0
   10.6309  -17.8051   28.6712 O   0  0  0  0  0  0  0  0  0  0  0  0
    8.9370  -17.0493   27.3943 O   0  0  0  0  0  0  0  0  0  0  0  0
  1  2  1  0
  3  5  1  0
  3  2  1  0
  3  4  1  6
  5  6  1  6
  7  5  1  0
  7  8  2  0
 10  9  1  6
 11 10  1  0
 13 12  1  1
 12 10  1  0
 13 14  1  0
 14  7  1  0
 15 13  1  0
 16 15  2  0
 18 17  1  6
 18 20  1  0
 19 18  1  0
 20 22  1  0
 20 21  1  6
 21 15  1  0
 22 23  1  0
 24 22  2  0
M  END
$$$$
