ILV.pdb
     RDKit          3D

 24 23  0  0  1  0  0  0  0  0999 V2000
    8.8386  -20.0637   20.3678 C   0  0  0  0  0  0  0  0  0  0  0  0
    8.6660  -18.5800   20.2465 C   0  0  0  0  0  0  0  0  0  0  0  0
    9.0743  -17.8558   21.5120 C   0  0  2  0  0  0  0  0  0  0  0  0
    8.1983  -18.4143   22.6168 C   0  0  0  0  0  0  0  0  0  0  0  0
    8.8249  -16.3782   21.3516 C   0  0  2  0  0  0  0  0  0  0  0  0
    9.4636  -15.7917   20.2366 N   0  0  0  0  0  0  0  0  0  0  0  0
    9.1454  -15.6111   22.5658 C   0  0  0  0  0  0  0  0  0  0  0  0
   10.3159  -15.2786   22.8005 O   0  0  0  0  0  0  0  0  0  0  0  0
    7.7186  -13.5500   27.4506 C   0  0  0  0  0  0  0  0  0  0  0  0
    7.4038  -12.6991   26.2158 C   0  0  2  0  0  0  0  0  0  0  0  0
    6.2230  -11.8100   26.5018 C   0  0  0  0  0  0  0  0  0  0  0  0
    7.1234  -13.6585   25.0957 C   0  0  0  0  0  0  0  0  0  0  0  0
    8.2626  -14.4973   24.6669 C   0  0  2  0  0  0  0  0  0  0  0  0
    8.1138  -15.2524   23.4672 N   0  0  0  0  0  0  0  0  0  0  0  0
    8.7012  -15.4074   25.8025 C   0  0  0  0  0  0  0  0  0  0  0  0
    7.9126  -16.1681   26.3869 O   0  0  0  0  0  0  0  0  0  0  0  0
   11.8791  -17.3931   25.2388 C   0  0  0  0  0  0  0  0  0  0  0  0
   11.9237  -16.9066   26.6856 C   0  0  2  0  0  0  0  0  0  0  0  0
   12.3477  -18.0354   27.5990 C   0  0  0  0  0  0  0  0  0  0  0  0
   10.5367  -16.4865   27.0711 C   0  0  2  0  0  0  0  0  0  0  0  0
   10.0590  -15.3988   26.2212 N   0  0  0  0  0  0  0  0  0  0  0  0
   10.5659  -16.0481   28.5004 C   0  0  0  0  0  0  0  0  0  0  0  0
   10.5195  -16.9870   29.5019 O   0  0  0  0  0  0  0  0  0  0  0  0
   10.6314  -14.8435   28.8208 O   0  0  0  0  0  0  0  0  0  0  0  0
  1  2  1  0
  3  5  1  0
  3  2  1  0
  3  4  1  1
  5  6  1  6
  7  5  1  0
  7  8  2  0
 10  9  1  1
 11 10  1  0
 13 12  1  1
 12 10  1  0
 13 14  1  0
 14  7  1  0
 15 13  1  0
 16 15  2  0
 18 17  1  6
 18 20  1  0
 19 18  1  0
 20 22  1  0
 20 21  1  6
 21 15  1  0
 22 23  1  0
 24 22  2  0
M  END
$$$$
