ILV.pdb
     RDKit          3D

 24 23  0  0  1  0  0  0  0  0999 V2000
    6.7434  -20.0986   28.1378 C   0  0  0  0  0  0  0  0  0  0  0  0
    6.5352  -20.1231   26.6540 C   0  0  0  0  0  0  0  0  0  0  0  0
    7.3030  -19.0211   25.9548 C   0  0  2  0  0  0  0  0  0  0  0  0
    6.8156  -17.7195   26.5616 C   0  0  0  0  0  0  0  0  0  0  0  0
    6.9974  -19.0498   24.4793 C   0  0  2  0  0  0  0  0  0  0  0  0
    7.1878  -20.3069   23.8638 N   0  0  0  0  0  0  0  0  0  0  0  0
    7.7240  -18.0150   23.7267 C   0  0  0  0  0  0  0  0  0  0  0  0
    8.9203  -18.1749   23.4457 O   0  0  0  0  0  0  0  0  0  0  0  0
    8.2342  -12.9338   21.8754 C   0  0  0  0  0  0  0  0  0  0  0  0
    7.4329  -13.8633   20.9579 C   0  0  2  0  0  0  0  0  0  0  0  0
    6.4474  -13.0559   20.1557 C   0  0  0  0  0  0  0  0  0  0  0  0
    6.7472  -14.8573   21.8499 C   0  0  0  0  0  0  0  0  0  0  0  0
    7.6370  -15.7146   22.6611 C   0  0  2  0  0  0  0  0  0  0  0  0
    7.0542  -16.8344   23.3229 N   0  0  0  0  0  0  0  0  0  0  0  0
    8.4151  -14.8701   23.6568 C   0  0  0  0  0  0  0  0  0  0  0  0
    9.5607  -14.4523   23.4217 O   0  0  0  0  0  0  0  0  0  0  0  0
    6.5171  -13.3339   27.1230 C   0  0  0  0  0  0  0  0  0  0  0  0
    7.6640  -12.6208   26.4102 C   0  0  2  0  0  0  0  0  0  0  0  0
    7.1238  -11.7698   25.2823 C   0  0  0  0  0  0  0  0  0  0  0  0
    8.5594  -13.6691   25.8201 C   0  0  2  0  0  0  0  0  0  0  0  0
    7.8236  -14.5383   24.9055 N   0  0  0  0  0  0  0  0  0  0  0  0
    9.1346  -14.4722   26.9427 C   0  0  0  0  0  0  0  0  0  0  0  0
   10.0216  -13.8879   27.8135 O   0  0  0  0  0  0  0  0  0  0  0  0
    8.8342  -15.6708   27.1192 O   0  0  0  0  0  0  0  0  0  0  0  0
  1  2  1  0
  3  5  1  0
  3  2  1  0
  3  4  1  1
  5  6  1  6
  7  5  1  0
  7  8  2  0
 10  9  1  1
 11 10  1  0
 13 12  1  1
 12 10  1  0
 13 14  1  0
 14  7  1  0
 15 13  1  0
 16 15  2  0
 18 17  1  6
 18 20  1  0
 19 18  1  0
 20 22  1  0
 20 21  1  6
 21 15  1  0
 22 23  1  0
 24 22  2  0
M  END
$$$$
