ILV.pdb
     RDKit          3D

 24 23  0  0  1  0  0  0  0  0999 V2000
    7.2881  -12.6552   17.6429 C   0  0  0  0  0  0  0  0  0  0  0  0
    7.5087  -13.8701   18.4921 C   0  0  0  0  0  0  0  0  0  0  0  0
    7.7663  -13.5112   19.9404 C   0  0  2  0  0  0  0  0  0  0  0  0
    9.0585  -12.7174   19.9529 C   0  0  0  0  0  0  0  0  0  0  0  0
    7.9255  -14.7706   20.7526 C   0  0  2  0  0  0  0  0  0  0  0  0
    6.7721  -15.5840   20.8083 N   0  0  0  0  0  0  0  0  0  0  0  0
    8.4148  -14.5114   22.1160 C   0  0  0  0  0  0  0  0  0  0  0  0
    9.6098  -14.2447   22.3077 O   0  0  0  0  0  0  0  0  0  0  0  0
    5.9859  -12.8404   27.5441 C   0  0  0  0  0  0  0  0  0  0  0  0
    7.2307  -13.3889   26.8388 C   0  0  2  0  0  0  0  0  0  0  0  0
    8.3576  -12.3977   26.9581 C   0  0  0  0  0  0  0  0  0  0  0  0
    6.8423  -13.6249   25.4081 C   0  0  0  0  0  0  0  0  0  0  0  0
    7.8385  -14.3370   24.5801 C   0  0  2  0  0  0  0  0  0  0  0  0
    7.5179  -14.5669   23.2105 N   0  0  0  0  0  0  0  0  0  0  0  0
    8.2376  -15.6434   25.2466 C   0  0  0  0  0  0  0  0  0  0  0  0
    7.4087  -16.5210   25.5383 O   0  0  0  0  0  0  0  0  0  0  0  0
   10.9219  -17.6040   23.6484 C   0  0  0  0  0  0  0  0  0  0  0  0
   11.2528  -17.6378   25.1388 C   0  0  2  0  0  0  0  0  0  0  0  0
   11.6316  -19.0423   25.5536 C   0  0  0  0  0  0  0  0  0  0  0  0
   10.0175  -17.2429   25.8917 C   0  0  2  0  0  0  0  0  0  0  0  0
    9.6042  -15.8836   25.5526 N   0  0  0  0  0  0  0  0  0  0  0  0
   10.3151  -17.3409   27.3538 C   0  0  0  0  0  0  0  0  0  0  0  0
   10.3548  -18.5729   27.9598 O   0  0  0  0  0  0  0  0  0  0  0  0
   10.5313  -16.3299   28.0532 O   0  0  0  0  0  0  0  0  0  0  0  0
  1  2  1  0
  3  5  1  0
  3  2  1  0
  3  4  1  6
  5  6  1  1
  7  5  1  0
  7  8  2  0
 10  9  1  1
 11 10  1  0
 13 12  1  1
 12 10  1  0
 13 14  1  0
 14  7  1  0
 15 13  1  0
 16 15  2  0
 18 17  1  6
 18 20  1  0
 19 18  1  0
 20 22  1  0
 20 21  1  1
 21 15  1  0
 22 23  1  0
 24 22  2  0
M  END
$$$$
