ILV.pdb
     RDKit          3D

 24 23  0  0  1  0  0  0  0  0999 V2000
   10.7462  -20.5352   20.7274 C   0  0  0  0  0  0  0  0  0  0  0  0
   10.2074  -19.1707   20.4216 C   0  0  0  0  0  0  0  0  0  0  0  0
   10.3793  -18.2184   21.5861 C   0  0  2  0  0  0  0  0  0  0  0  0
    9.6615  -18.8564   22.7598 C   0  0  0  0  0  0  0  0  0  0  0  0
    9.7465  -16.8921   21.2522 C   0  0  2  0  0  0  0  0  0  0  0  0
   10.2429  -16.2827   20.0786 N   0  0  0  0  0  0  0  0  0  0  0  0
    9.8044  -15.9358   22.3691 C   0  0  0  0  0  0  0  0  0  0  0  0
   10.8452  -15.3006   22.5906 O   0  0  0  0  0  0  0  0  0  0  0  0
    5.7488  -13.1204   26.1384 C   0  0  0  0  0  0  0  0  0  0  0  0
    7.2201  -13.2909   25.7456 C   0  0  2  0  0  0  0  0  0  0  0  0
    7.7898  -11.9610   25.3291 C   0  0  0  0  0  0  0  0  0  0  0  0
    7.2504  -14.2885   24.6242 C   0  0  0  0  0  0  0  0  0  0  0  0
    8.5748  -14.8665   24.3132 C   0  0  2  0  0  0  0  0  0  0  0  0
    8.6683  -15.7414   23.1918 N   0  0  0  0  0  0  0  0  0  0  0  0
    9.1572  -15.5383   25.5460 C   0  0  0  0  0  0  0  0  0  0  0  0
    9.1127  -16.7676   25.7165 O   0  0  0  0  0  0  0  0  0  0  0  0
   11.0473  -13.1915   28.4817 C   0  0  0  0  0  0  0  0  0  0  0  0
   10.5148  -14.5690   28.8699 C   0  0  2  0  0  0  0  0  0  0  0  0
   11.4437  -15.2204   29.8705 C   0  0  0  0  0  0  0  0  0  0  0  0
   10.4891  -15.4159   27.6326 C   0  0  2  0  0  0  0  0  0  0  0  0
    9.7781  -14.7445   26.5476 N   0  0  0  0  0  0  0  0  0  0  0  0
    9.8140  -16.7070   27.9690 C   0  0  0  0  0  0  0  0  0  0  0  0
   10.5706  -17.8182   28.2507 O   0  0  0  0  0  0  0  0  0  0  0  0
    8.5707  -16.8132   28.0032 O   0  0  0  0  0  0  0  0  0  0  0  0
  1  2  1  0
  3  5  1  0
  3  2  1  0
  3  4  1  1
  5  6  1  6
  7  5  1  0
  7  8  2  0
 10  9  1  6
 11 10  1  0
 13 12  1  1
 12 10  1  0
 13 14  1  0
 14  7  1  0
 15 13  1  0
 16 15  2  0
 18 17  1  6
 18 20  1  0
 19 18  1  0
 20 22  1  0
 20 21  1  6
 21 15  1  0
 22 23  1  0
 24 22  2  0
M  END
$$$$
