ILV.pdb
     RDKit          3D

 24 23  0  0  1  0  0  0  0  0999 V2000
    7.3762  -12.3170   18.4307 C   0  0  0  0  0  0  0  0  0  0  0  0
    7.3255  -13.6242   19.1617 C   0  0  0  0  0  0  0  0  0  0  0  0
    7.9331  -13.5250   20.5450 C   0  0  2  0  0  0  0  0  0  0  0  0
    9.3939  -13.1741   20.3379 C   0  0  0  0  0  0  0  0  0  0  0  0
    7.8151  -14.8541   21.2455 C   0  0  2  0  0  0  0  0  0  0  0  0
    6.4989  -15.3600   21.3287 N   0  0  0  0  0  0  0  0  0  0  0  0
    8.4293  -14.8501   22.5826 C   0  0  0  0  0  0  0  0  0  0  0  0
    9.6629  -14.8354   22.7003 O   0  0  0  0  0  0  0  0  0  0  0  0
    8.1607  -12.0257   26.2367 C   0  0  0  0  0  0  0  0  0  0  0  0
    6.8723  -12.7849   25.9026 C   0  0  2  0  0  0  0  0  0  0  0  0
    5.7595  -12.3120   26.7997 C   0  0  0  0  0  0  0  0  0  0  0  0
    7.1709  -14.2425   26.1024 C   0  0  0  0  0  0  0  0  0  0  0  0
    8.0526  -14.8630   25.0911 C   0  0  2  0  0  0  0  0  0  0  0  0
    7.6087  -14.8629   23.7367 N   0  0  0  0  0  0  0  0  0  0  0  0
    8.4263  -16.2739   25.5152 C   0  0  0  0  0  0  0  0  0  0  0  0
    7.5829  -17.1778   25.6328 O   0  0  0  0  0  0  0  0  0  0  0  0
   11.6477  -19.8453   25.5655 C   0  0  0  0  0  0  0  0  0  0  0  0
   11.3104  -18.4005   25.2039 C   0  0  2  0  0  0  0  0  0  0  0  0
   12.4822  -17.4992   25.5243 C   0  0  0  0  0  0  0  0  0  0  0  0
   10.1468  -17.9761   26.0493 C   0  0  2  0  0  0  0  0  0  0  0  0
    9.7852  -16.5849   25.7901 N   0  0  0  0  0  0  0  0  0  0  0  0
   10.5291  -18.1498   27.4844 C   0  0  0  0  0  0  0  0  0  0  0  0
   10.6251  -19.4128   28.0157 O   0  0  0  0  0  0  0  0  0  0  0  0
   10.7670  -17.1754   28.2273 O   0  0  0  0  0  0  0  0  0  0  0  0
  1  2  1  0
  3  5  1  0
  3  2  1  0
  3  4  1  6
  5  6  1  1
  7  5  1  0
  7  8  2  0
 10  9  1  1
 11 10  1  0
 13 12  1  1
 12 10  1  0
 13 14  1  0
 14  7  1  0
 15 13  1  0
 16 15  2  0
 18 17  1  1
 18 20  1  0
 19 18  1  0
 20 22  1  0
 20 21  1  1
 21 15  1  0
 22 23  1  0
 24 22  2  0
M  END
$$$$
