ILV.pdb
     RDKit          3D

 24 23  0  0  1  0  0  0  0  0999 V2000
    5.2412  -20.2760   21.7645 C   0  0  0  0  0  0  0  0  0  0  0  0
    5.4798  -18.8145   21.5345 C   0  0  0  0  0  0  0  0  0  0  0  0
    6.4592  -18.2352   22.5335 C   0  0  2  0  0  0  0  0  0  0  0  0
    5.8760  -18.5165   23.9049 C   0  0  0  0  0  0  0  0  0  0  0  0
    6.5807  -16.7486   22.3184 C   0  0  2  0  0  0  0  0  0  0  0  0
    6.8600  -16.3680   20.9872 N   0  0  0  0  0  0  0  0  0  0  0  0
    7.5515  -16.1187   23.2274 C   0  0  0  0  0  0  0  0  0  0  0  0
    8.7527  -16.0808   22.9250 O   0  0  0  0  0  0  0  0  0  0  0  0
    7.6587  -11.9937   25.1198 C   0  0  0  0  0  0  0  0  0  0  0  0
    6.5843  -12.8670   25.7762 C   0  0  2  0  0  0  0  0  0  0  0  0
    5.8293  -12.0583   26.7973 C   0  0  0  0  0  0  0  0  0  0  0  0
    7.3007  -14.0288   26.4012 C   0  0  0  0  0  0  0  0  0  0  0  0
    7.9341  -14.9760   25.4595 C   0  0  2  0  0  0  0  0  0  0  0  0
    7.1115  -15.5551   24.4498 N   0  0  0  0  0  0  0  0  0  0  0  0
    8.6638  -16.0680   26.2246 C   0  0  0  0  0  0  0  0  0  0  0  0
    8.0630  -16.9766   26.8211 O   0  0  0  0  0  0  0  0  0  0  0  0
   11.9508  -17.6087   24.7494 C   0  0  0  0  0  0  0  0  0  0  0  0
   12.1317  -17.3940   26.2504 C   0  0  2  0  0  0  0  0  0  0  0  0
   12.7660  -18.6166   26.8759 C   0  0  0  0  0  0  0  0  0  0  0  0
   10.7715  -17.2099   26.8543 C   0  0  2  0  0  0  0  0  0  0  0  0
   10.0840  -16.0624   26.2675 N   0  0  0  0  0  0  0  0  0  0  0  0
   10.9415  -17.0105   28.3265 C   0  0  0  0  0  0  0  0  0  0  0  0
   11.1855  -18.0924   29.1367 O   0  0  0  0  0  0  0  0  0  0  0  0
   10.8683  -15.8811   28.8530 O   0  0  0  0  0  0  0  0  0  0  0  0
  1  2  1  0
  3  5  1  0
  3  2  1  0
  3  4  1  1
  5  6  1  6
  7  5  1  0
  7  8  2  0
 10  9  1  1
 11 10  1  0
 13 12  1  1
 12 10  1  0
 13 14  1  0
 14  7  1  0
 15 13  1  0
 16 15  2  0
 18 17  1  6
 18 20  1  0
 19 18  1  0
 20 22  1  0
 20 21  1  6
 21 15  1  0
 22 23  1  0
 24 22  2  0
M  END
$$$$
