TAN.pdb
     RDKit          3D

 21 20  0  0  1  0  0  0  0  0999 V2000
    7.3609  -17.3377   16.5444 C   0  0  0  0  0  0  0  0  0  0  0  0
    8.0704  -16.6746   15.4108 C   0  0  1  0  0  0  0  0  0  0  0  0
    7.6853  -17.1747   14.1862 O   0  0  0  0  0  0  0  0  0  0  0  0
    7.9767  -15.1607   15.4756 C   0  0  2  0  0  0  0  0  0  0  0  0
    8.4718  -14.5354   14.2885 N   0  0  0  0  0  0  0  0  0  0  0  0
    8.6414  -14.6386   16.7096 C   0  0  0  0  0  0  0  0  0  0  0  0
    9.9005  -14.6035   16.7928 O   0  0  0  0  0  0  0  0  0  0  0  0
    7.5092  -13.1198   19.9295 C   0  0  0  0  0  0  0  0  0  0  0  0
    8.6037  -13.6278   19.0180 C   0  0  2  0  0  0  0  0  0  0  0  0
    7.9262  -14.1627   17.8332 N   0  0  0  0  0  0  0  0  0  0  0  0
    9.4361  -14.6630   19.6579 C   0  0  0  0  0  0  0  0  0  0  0  0
    9.0496  -15.8578   19.6007 O   0  0  0  0  0  0  0  0  0  0  0  0
   13.9262  -13.6389   19.0216 N   0  0  0  0  0  0  0  0  0  0  0  0
   13.4053  -14.8873   19.5099 C   0  0  0  0  0  0  0  0  0  0  0  0
   13.4006  -15.8269   18.6691 O   0  0  0  0  0  0  0  0  0  0  0  0
   12.9248  -15.0042   20.9055 C   0  0  0  0  0  0  0  0  0  0  0  0
   11.4663  -15.3658   21.0044 C   0  0  2  0  0  0  0  0  0  0  0  0
   10.6315  -14.3781   20.3237 N   0  0  0  0  0  0  0  0  0  0  0  0
   11.0047  -15.5891   22.3939 C   0  0  0  0  0  0  0  0  0  0  0  0
   10.1222  -14.7815   22.8391 O   0  0  0  0  0  0  0  0  0  0  0  0
   11.4401  -16.5769   23.2284 O   0  0  0  0  0  0  0  0  0  0  0  0
  2  1  1  1
  2  3  1  0
  4  2  1  0
  4  5  1  6
  6  4  1  0
  6 10  1  0
  7  6  2  0
  9  8  1  1
  9 10  1  0
  9 11  1  0
 11 12  2  0
 11 18  1  0
 13 14  1  0
 14 15  2  0
 16 14  1  0
 17 16  1  1
 17 19  1  0
 18 17  1  0
 19 21  1  0
 20 19  2  0
M  END
$$$$
