TAN.pdb
     RDKit          3D

 21 20  0  0  1  0  0  0  0  0999 V2000
    7.1100  -18.8124   16.8724 C   0  0  0  0  0  0  0  0  0  0  0  0
    7.6177  -17.7781   17.8213 C   0  0  1  0  0  0  0  0  0  0  0  0
    8.5289  -18.2910   18.7184 O   0  0  0  0  0  0  0  0  0  0  0  0
    8.1372  -16.5430   17.1076 C   0  0  2  0  0  0  0  0  0  0  0  0
    9.1410  -16.8583   16.1389 N   0  0  0  0  0  0  0  0  0  0  0  0
    8.6025  -15.5162   18.0908 C   0  0  0  0  0  0  0  0  0  0  0  0
    9.8349  -15.3467   18.3050 O   0  0  0  0  0  0  0  0  0  0  0  0
    7.0233  -12.8244   20.1251 C   0  0  0  0  0  0  0  0  0  0  0  0
    8.2022  -13.7179   19.8106 C   0  0  2  0  0  0  0  0  0  0  0  0
    7.7200  -14.6901   18.8250 N   0  0  0  0  0  0  0  0  0  0  0  0
    8.7278  -14.4010   21.0069 C   0  0  0  0  0  0  0  0  0  0  0  0
    9.1941  -13.6972   21.9383 O   0  0  0  0  0  0  0  0  0  0  0  0
    6.2406  -18.3430   21.7372 N   0  0  0  0  0  0  0  0  0  0  0  0
    7.1388  -17.7109   22.6654 C   0  0  0  0  0  0  0  0  0  0  0  0
    6.5783  -17.0718   23.5967 O   0  0  0  0  0  0  0  0  0  0  0  0
    8.6041  -17.8348   22.4928 C   0  0  0  0  0  0  0  0  0  0  0  0
    9.2940  -16.5111   22.2934 C   0  0  2  0  0  0  0  0  0  0  0  0
    8.7320  -15.7910   21.1527 N   0  0  0  0  0  0  0  0  0  0  0  0
   10.7667  -16.6219   22.1826 C   0  0  0  0  0  0  0  0  0  0  0  0
   11.3756  -17.1516   23.1715 O   0  0  0  0  0  0  0  0  0  0  0  0
   11.5185  -16.2093   21.1212 O   0  0  0  0  0  0  0  0  0  0  0  0
  2  1  1  6
  2  3  1  0
  4  2  1  0
  4  5  1  6
  6  4  1  0
  6 10  1  0
  7  6  2  0
  9  8  1  1
  9 10  1  0
  9 11  1  0
 11 12  2  0
 11 18  1  0
 13 14  1  0
 14 15  2  0
 16 14  1  0
 17 16  1  6
 17 19  1  0
 18 17  1  0
 19 21  1  0
 20 19  2  0
M  END
$$$$
