TAN.pdb
     RDKit          3D

 21 20  0  0  1  0  0  0  0  0999 V2000
    9.0637  -16.9486   17.8703 C   0  0  0  0  0  0  0  0  0  0  0  0
    9.2174  -15.7443   17.0019 C   0  0  1  0  0  0  0  0  0  0  0  0
    9.1882  -16.0573   15.6605 O   0  0  0  0  0  0  0  0  0  0  0  0
    8.2381  -14.6418   17.3626 C   0  0  2  0  0  0  0  0  0  0  0  0
    8.1995  -13.6066   16.3765 N   0  0  0  0  0  0  0  0  0  0  0  0
    8.5173  -14.1087   18.7320 C   0  0  0  0  0  0  0  0  0  0  0  0
    9.4643  -13.2959   18.9221 O   0  0  0  0  0  0  0  0  0  0  0  0
    6.7544  -14.0079   21.9771 C   0  0  0  0  0  0  0  0  0  0  0  0
    8.0493  -13.9190   21.2012 C   0  0  2  0  0  0  0  0  0  0  0  0
    7.7621  -14.4680   19.8726 N   0  0  0  0  0  0  0  0  0  0  0  0
    9.1473  -14.6604   21.8484 C   0  0  0  0  0  0  0  0  0  0  0  0
    9.4944  -14.3195   23.0076 O   0  0  0  0  0  0  0  0  0  0  0  0
    8.2959  -19.1178   22.2139 N   0  0  0  0  0  0  0  0  0  0  0  0
    9.4269  -18.3822   22.7116 C   0  0  0  0  0  0  0  0  0  0  0  0
    9.3876  -18.1151   23.9433 O   0  0  0  0  0  0  0  0  0  0  0  0
   10.5280  -17.9941   21.8009 C   0  0  0  0  0  0  0  0  0  0  0  0
   10.8629  -16.5272   21.8635 C   0  0  2  0  0  0  0  0  0  0  0  0
    9.8186  -15.7214   21.2343 N   0  0  0  0  0  0  0  0  0  0  0  0
   12.1969  -16.2005   21.3091 C   0  0  0  0  0  0  0  0  0  0  0  0
   13.0765  -15.7935   22.1398 O   0  0  0  0  0  0  0  0  0  0  0  0
   12.5595  -16.2982   19.9973 O   0  0  0  0  0  0  0  0  0  0  0  0
  2  1  1  1
  2  3  1  0
  4  2  1  0
  4  5  1  6
  6  4  1  0
  6 10  1  0
  7  6  2  0
  9  8  1  1
  9 10  1  0
  9 11  1  0
 11 12  2  0
 11 18  1  0
 13 14  1  0
 14 15  2  0
 16 14  1  0
 17 16  1  6
 17 19  1  0
 18 17  1  0
 19 21  1  0
 20 19  2  0
M  END
$$$$
