TAN.pdb
     RDKit          3D

 21 20  0  0  1  0  0  0  0  0999 V2000
    6.4728  -15.9927   20.1585 C   0  0  0  0  0  0  0  0  0  0  0  0
    7.3891  -15.0853   19.4066 C   0  0  1  0  0  0  0  0  0  0  0  0
    7.1117  -15.0599   18.0573 O   0  0  0  0  0  0  0  0  0  0  0  0
    7.4527  -13.6949   20.0129 C   0  0  2  0  0  0  0  0  0  0  0  0
    8.0903  -12.7536   19.1452 N   0  0  0  0  0  0  0  0  0  0  0  0
    8.0846  -13.7335   21.3681 C   0  0  0  0  0  0  0  0  0  0  0  0
    9.3380  -13.8234   21.4880 O   0  0  0  0  0  0  0  0  0  0  0  0
    6.9748  -13.2399   24.8803 C   0  0  0  0  0  0  0  0  0  0  0  0
    7.9840  -13.7689   23.8861 C   0  0  2  0  0  0  0  0  0  0  0  0
    7.3433  -13.6734   22.5711 N   0  0  0  0  0  0  0  0  0  0  0  0
    8.3851  -15.1583   24.1740 C   0  0  0  0  0  0  0  0  0  0  0  0
    7.5477  -16.0741   23.9732 O   0  0  0  0  0  0  0  0  0  0  0  0
   10.7771  -16.9691   22.2811 N   0  0  0  0  0  0  0  0  0  0  0  0
   11.8371  -17.0838   23.2461 C   0  0  0  0  0  0  0  0  0  0  0  0
   12.9930  -17.1988   22.7556 O   0  0  0  0  0  0  0  0  0  0  0  0
   11.5364  -17.0618   24.6957 C   0  0  0  0  0  0  0  0  0  0  0  0
   10.0748  -16.8599   24.9973 C   0  0  2  0  0  0  0  0  0  0  0  0
    9.6498  -15.5033   24.6589 N   0  0  0  0  0  0  0  0  0  0  0  0
    9.7046  -17.2043   26.3894 C   0  0  0  0  0  0  0  0  0  0  0  0
    9.6684  -16.2406   27.2257 O   0  0  0  0  0  0  0  0  0  0  0  0
    9.4017  -18.4537   26.8468 O   0  0  0  0  0  0  0  0  0  0  0  0
  2  1  1  1
  2  3  1  0
  4  2  1  0
  4  5  1  6
  6  4  1  0
  6 10  1  0
  7  6  2  0
  9  8  1  1
  9 10  1  0
  9 11  1  0
 11 12  2  0
 11 18  1  0
 13 14  1  0
 14 15  2  0
 16 14  1  0
 17 16  1  1
 17 19  1  0
 18 17  1  0
 19 21  1  0
 20 19  2  0
M  END
$$$$
