TAN.pdb
     RDKit          3D

 21 20  0  0  1  0  0  0  0  0999 V2000
   10.1068  -16.4540   15.7948 C   0  0  0  0  0  0  0  0  0  0  0  0
    8.7298  -15.8792   15.8331 C   0  0  1  0  0  0  0  0  0  0  0  0
    7.8778  -16.6107   16.6314 O   0  0  0  0  0  0  0  0  0  0  0  0
    8.7286  -14.4019   16.1829 C   0  0  2  0  0  0  0  0  0  0  0  0
    9.5557  -13.6356   15.3031 N   0  0  0  0  0  0  0  0  0  0  0  0
    9.0873  -14.1949   17.6202 C   0  0  0  0  0  0  0  0  0  0  0  0
   10.2968  -14.1578   17.9796 O   0  0  0  0  0  0  0  0  0  0  0  0
    7.2153  -13.6777   20.8124 C   0  0  0  0  0  0  0  0  0  0  0  0
    8.5004  -13.9325   20.0571 C   0  0  2  0  0  0  0  0  0  0  0  0
    8.1248  -14.0313   18.6436 N   0  0  0  0  0  0  0  0  0  0  0  0
    9.1844  -15.1596   20.5047 C   0  0  0  0  0  0  0  0  0  0  0  0
    9.3687  -16.0785   19.6668 O   0  0  0  0  0  0  0  0  0  0  0  0
   14.0258  -15.2994   19.9616 N   0  0  0  0  0  0  0  0  0  0  0  0
   12.7781  -15.7970   20.4749 C   0  0  0  0  0  0  0  0  0  0  0  0
   12.3892  -16.8834   19.9667 O   0  0  0  0  0  0  0  0  0  0  0  0
   12.0471  -15.0487   21.5229 C   0  0  0  0  0  0  0  0  0  0  0  0
   10.9571  -15.8546   22.1789 C   0  0  2  0  0  0  0  0  0  0  0  0
    9.6357  -15.3483   21.8140 N   0  0  0  0  0  0  0  0  0  0  0  0
   11.1019  -15.9595   23.6491 C   0  0  0  0  0  0  0  0  0  0  0  0
   10.4158  -15.1427   24.3502 O   0  0  0  0  0  0  0  0  0  0  0  0
   11.8994  -16.8485   24.3091 O   0  0  0  0  0  0  0  0  0  0  0  0
  2  1  1  1
  2  3  1  0
  4  2  1  0
  4  5  1  6
  6  4  1  0
  6 10  1  0
  7  6  2  0
  9  8  1  1
  9 10  1  0
  9 11  1  0
 11 12  2  0
 11 18  1  0
 13 14  1  0
 14 15  2  0
 16 14  1  0
 17 16  1  1
 17 19  1  0
 18 17  1  0
 19 21  1  0
 20 19  2  0
M  END
$$$$
