TAN.pdb
     RDKit          3D

 21 20  0  0  1  0  0  0  0  0999 V2000
    6.2793  -15.5159   20.5277 C   0  0  0  0  0  0  0  0  0  0  0  0
    7.5497  -14.8985   20.0449 C   0  0  1  0  0  0  0  0  0  0  0  0
    7.7052  -15.0162   18.6810 O   0  0  0  0  0  0  0  0  0  0  0  0
    7.7187  -13.4692   20.5276 C   0  0  2  0  0  0  0  0  0  0  0  0
    8.6154  -12.7205   19.7025 N   0  0  0  0  0  0  0  0  0  0  0  0
    8.1164  -13.4377   21.9692 C   0  0  0  0  0  0  0  0  0  0  0  0
    9.3246  -13.2750   22.2969 O   0  0  0  0  0  0  0  0  0  0  0  0
    6.3606  -12.9775   25.1749 C   0  0  0  0  0  0  0  0  0  0  0  0
    7.5939  -13.4445   24.4347 C   0  0  2  0  0  0  0  0  0  0  0  0
    7.1939  -13.5834   23.0313 N   0  0  0  0  0  0  0  0  0  0  0  0
    8.1181  -14.7191   24.9590 C   0  0  0  0  0  0  0  0  0  0  0  0
    8.5709  -14.7400   26.1315 O   0  0  0  0  0  0  0  0  0  0  0  0
    5.6761  -18.3521   23.0748 N   0  0  0  0  0  0  0  0  0  0  0  0
    6.5308  -18.2451   24.2264 C   0  0  0  0  0  0  0  0  0  0  0  0
    5.9294  -18.0698   25.3207 O   0  0  0  0  0  0  0  0  0  0  0  0
    8.0010  -18.3418   24.0801 C   0  0  0  0  0  0  0  0  0  0  0  0
    8.7353  -17.1593   24.6550 C   0  0  2  0  0  0  0  0  0  0  0  0
    8.1352  -15.9018   24.2145 N   0  0  0  0  0  0  0  0  0  0  0  0
   10.1917  -17.1794   24.3864 C   0  0  0  0  0  0  0  0  0  0  0  0
   10.8314  -18.2102   24.7834 O   0  0  0  0  0  0  0  0  0  0  0  0
   10.8986  -16.1973   23.7558 O   0  0  0  0  0  0  0  0  0  0  0  0
  2  1  1  6
  2  3  1  0
  4  2  1  0
  4  5  1  6
  6  4  1  0
  6 10  1  0
  7  6  2  0
  9  8  1  1
  9 10  1  0
  9 11  1  0
 11 12  2  0
 11 18  1  0
 13 14  1  0
 14 15  2  0
 16 14  1  0
 17 16  1  6
 17 19  1  0
 18 17  1  0
 19 21  1  0
 20 19  2  0
M  END
$$$$
