TAN.pdb
     RDKit          3D

 21 20  0  0  1  0  0  0  0  0999 V2000
   11.2725  -14.2532   19.2807 C   0  0  0  0  0  0  0  0  0  0  0  0
   10.1942  -13.2735   18.9557 C   0  0  1  0  0  0  0  0  0  0  0  0
   10.5337  -12.4484   17.9059 O   0  0  0  0  0  0  0  0  0  0  0  0
    8.8457  -13.9419   18.7566 C   0  0  2  0  0  0  0  0  0  0  0  0
    7.8492  -13.0258   18.2947 N   0  0  0  0  0  0  0  0  0  0  0  0
    8.4206  -14.6626   19.9965 C   0  0  0  0  0  0  0  0  0  0  0  0
    7.8595  -14.0386   20.9395 O   0  0  0  0  0  0  0  0  0  0  0  0
    8.2304  -18.2377   21.0427 C   0  0  0  0  0  0  0  0  0  0  0  0
    8.0209  -16.7668   21.3247 C   0  0  2  0  0  0  0  0  0  0  0  0
    8.6123  -16.0504   20.1908 N   0  0  0  0  0  0  0  0  0  0  0  0
    8.6397  -16.3416   22.5937 C   0  0  0  0  0  0  0  0  0  0  0  0
    9.8505  -16.0037   22.5824 O   0  0  0  0  0  0  0  0  0  0  0  0
    7.4190  -13.3169   24.2411 N   0  0  0  0  0  0  0  0  0  0  0  0
    6.8069  -13.9728   25.3650 C   0  0  0  0  0  0  0  0  0  0  0  0
    5.7621  -13.4175   25.8008 O   0  0  0  0  0  0  0  0  0  0  0  0
    7.4016  -15.2065   25.9278 C   0  0  0  0  0  0  0  0  0  0  0  0
    8.4879  -15.7911   25.0640 C   0  0  2  0  0  0  0  0  0  0  0  0
    7.9445  -16.2974   23.8054 N   0  0  0  0  0  0  0  0  0  0  0  0
    9.2983  -16.8237   25.7500 C   0  0  0  0  0  0  0  0  0  0  0  0
    9.9873  -16.4361   26.7522 O   0  0  0  0  0  0  0  0  0  0  0  0
    9.3679  -18.1415   25.4030 O   0  0  0  0  0  0  0  0  0  0  0  0
  2  1  1  6
  2  3  1  0
  4  2  1  0
  4  5  1  1
  6  4  1  0
  6 10  1  0
  7  6  2  0
  9  8  1  6
  9 10  1  0
  9 11  1  0
 11 12  2  0
 11 18  1  0
 13 14  1  0
 14 15  2  0
 16 14  1  0
 17 16  1  1
 17 19  1  0
 18 17  1  0
 19 21  1  0
 20 19  2  0
M  END
$$$$
