TAN.pdb
     RDKit          3D

 21 20  0  0  1  0  0  0  0  0999 V2000
    8.4894  -15.6415   20.9683 C   0  0  0  0  0  0  0  0  0  0  0  0
    7.1707  -14.9422   20.9723 C   0  0  1  0  0  0  0  0  0  0  0  0
    6.2747  -15.5164   21.8473 O   0  0  0  0  0  0  0  0  0  0  0  0
    7.3100  -13.4452   21.1828 C   0  0  2  0  0  0  0  0  0  0  0  0
    8.2247  -12.8503   20.2583 N   0  0  0  0  0  0  0  0  0  0  0  0
    7.6617  -13.1378   22.6038 C   0  0  0  0  0  0  0  0  0  0  0  0
    8.8696  -13.0610   22.9624 O   0  0  0  0  0  0  0  0  0  0  0  0
    5.8651  -12.1454   25.7025 C   0  0  0  0  0  0  0  0  0  0  0  0
    7.0599  -12.7776   25.0245 C   0  0  2  0  0  0  0  0  0  0  0  0
    6.6942  -12.9189   23.6120 N   0  0  0  0  0  0  0  0  0  0  0  0
    7.4135  -14.0849   25.6076 C   0  0  0  0  0  0  0  0  0  0  0  0
    7.6284  -14.1471   26.8447 O   0  0  0  0  0  0  0  0  0  0  0  0
    8.3007  -19.2273   26.1893 N   0  0  0  0  0  0  0  0  0  0  0  0
    7.1665  -18.9832   25.3396 C   0  0  0  0  0  0  0  0  0  0  0  0
    6.4864  -20.0056   25.0535 O   0  0  0  0  0  0  0  0  0  0  0  0
    6.8661  -17.6129   24.8660 C   0  0  0  0  0  0  0  0  0  0  0  0
    7.8244  -16.5776   25.3931 C   0  0  2  0  0  0  0  0  0  0  0  0
    7.5212  -15.2549   24.8507 N   0  0  0  0  0  0  0  0  0  0  0  0
    9.2481  -16.9277   25.1833 C   0  0  0  0  0  0  0  0  0  0  0  0
    9.7247  -16.7082   24.0197 O   0  0  0  0  0  0  0  0  0  0  0  0
   10.0837  -17.4594   26.1219 O   0  0  0  0  0  0  0  0  0  0  0  0
  2  1  1  1
  2  3  1  0
  4  2  1  0
  4  5  1  6
  6  4  1  0
  6 10  1  0
  7  6  2  0
  9  8  1  1
  9 10  1  0
  9 11  1  0
 11 12  2  0
 11 18  1  0
 13 14  1  0
 14 15  2  0
 16 14  1  0
 17 16  1  6
 17 19  1  0
 18 17  1  0
 19 21  1  0
 20 19  2  0
M  END
$$$$
