TAN.pdb
     RDKit          3D

 21 20  0  0  1  0  0  0  0  0999 V2000
    9.4098  -18.2223   16.9869 C   0  0  0  0  0  0  0  0  0  0  0  0
    8.0279  -17.7600   17.3106 C   0  0  1  0  0  0  0  0  0  0  0  0
    7.8191  -17.6392   18.6670 O   0  0  0  0  0  0  0  0  0  0  0  0
    7.6447  -16.5035   16.5496 C   0  0  2  0  0  0  0  0  0  0  0  0
    7.8445  -16.6408   15.1401 N   0  0  0  0  0  0  0  0  0  0  0  0
    8.3496  -15.3077   17.1071 C   0  0  0  0  0  0  0  0  0  0  0  0
    9.5420  -15.0561   16.7781 O   0  0  0  0  0  0  0  0  0  0  0  0
    7.4730  -12.4805   19.3839 C   0  0  0  0  0  0  0  0  0  0  0  0
    8.4919  -13.3008   18.6249 C   0  0  2  0  0  0  0  0  0  0  0  0
    7.7463  -14.4049   18.0134 N   0  0  0  0  0  0  0  0  0  0  0  0
    9.5662  -13.8127   19.4955 C   0  0  0  0  0  0  0  0  0  0  0  0
   10.3354  -12.9829   20.0434 O   0  0  0  0  0  0  0  0  0  0  0  0
   11.0180  -16.5094   24.1353 N   0  0  0  0  0  0  0  0  0  0  0  0
   11.4839  -15.6655   23.0682 C   0  0  0  0  0  0  0  0  0  0  0  0
   12.7234  -15.4345   23.0752 O   0  0  0  0  0  0  0  0  0  0  0  0
   10.5347  -15.1358   22.0628 C   0  0  0  0  0  0  0  0  0  0  0  0
   10.7356  -15.7195   20.6892 C   0  0  2  0  0  0  0  0  0  0  0  0
    9.7688  -15.1740   19.7387 N   0  0  0  0  0  0  0  0  0  0  0  0
   10.7281  -17.2004   20.6685 C   0  0  0  0  0  0  0  0  0  0  0  0
    9.6602  -17.7603   20.2496 O   0  0  0  0  0  0  0  0  0  0  0  0
   11.7581  -18.0072   21.0558 O   0  0  0  0  0  0  0  0  0  0  0  0
  2  1  1  1
  2  3  1  0
  4  2  1  0
  4  5  1  6
  6  4  1  0
  6 10  1  0
  7  6  2  0
  9  8  1  1
  9 10  1  0
  9 11  1  0
 11 12  2  0
 11 18  1  0
 13 14  1  0
 14 15  2  0
 16 14  1  0
 17 16  1  1
 17 19  1  0
 18 17  1  0
 19 21  1  0
 20 19  2  0
M  END
$$$$
