TAN.pdb
     RDKit          3D

 21 20  0  0  1  0  0  0  0  0999 V2000
    7.2090  -12.3926   18.9097 C   0  0  0  0  0  0  0  0  0  0  0  0
    8.0066  -13.6312   18.6696 C   0  0  1  0  0  0  0  0  0  0  0  0
    8.2225  -13.8649   17.3291 O   0  0  0  0  0  0  0  0  0  0  0  0
    9.2911  -13.6584   19.4783 C   0  0  2  0  0  0  0  0  0  0  0  0
   10.2552  -12.7183   18.9967 N   0  0  0  0  0  0  0  0  0  0  0  0
    9.8433  -15.0465   19.5540 C   0  0  0  0  0  0  0  0  0  0  0  0
    9.1598  -15.9811   20.0571 O   0  0  0  0  0  0  0  0  0  0  0  0
   12.3175  -16.9997   17.7877 C   0  0  0  0  0  0  0  0  0  0  0  0
   11.6218  -16.7765   19.1118 C   0  0  2  0  0  0  0  0  0  0  0  0
   11.1296  -15.3960   19.0813 N   0  0  0  0  0  0  0  0  0  0  0  0
   12.5183  -16.9880   20.2632 C   0  0  0  0  0  0  0  0  0  0  0  0
   13.0655  -18.1122   20.3938 O   0  0  0  0  0  0  0  0  0  0  0  0
   15.5829  -15.7412   20.3183 N   0  0  0  0  0  0  0  0  0  0  0  0
   15.5082  -14.7616   21.3685 C   0  0  0  0  0  0  0  0  0  0  0  0
   16.2747  -13.7705   21.2269 O   0  0  0  0  0  0  0  0  0  0  0  0
   14.5817  -14.9532   22.5074 C   0  0  0  0  0  0  0  0  0  0  0  0
   13.6891  -16.1562   22.3526 C   0  0  2  0  0  0  0  0  0  0  0  0
   12.7867  -15.9993   21.2139 N   0  0  0  0  0  0  0  0  0  0  0  0
   12.9412  -16.5006   23.5837 C   0  0  0  0  0  0  0  0  0  0  0  0
   11.6779  -16.3205   23.5536 O   0  0  0  0  0  0  0  0  0  0  0  0
   13.4855  -16.9901   24.7352 O   0  0  0  0  0  0  0  0  0  0  0  0
  2  1  1  6
  2  3  1  0
  4  2  1  0
  4  5  1  6
  6  4  1  0
  6 10  1  0
  7  6  2  0
  9  8  1  6
  9 10  1  0
  9 11  1  0
 11 12  2  0
 11 18  1  0
 13 14  1  0
 14 15  2  0
 16 14  1  0
 17 16  1  1
 17 19  1  0
 18 17  1  0
 19 21  1  0
 20 19  2  0
M  END
$$$$
