TAN.pdb
     RDKit          3D

 21 20  0  0  1  0  0  0  0  0999 V2000
    6.5264  -18.0512   20.2481 C   0  0  0  0  0  0  0  0  0  0  0  0
    7.8002  -18.2679   19.5005 C   0  0  1  0  0  0  0  0  0  0  0  0
    7.7660  -19.4054   18.7240 O   0  0  0  0  0  0  0  0  0  0  0  0
    8.2263  -17.0407   18.7149 C   0  0  2  0  0  0  0  0  0  0  0  0
    9.1953  -17.3498   17.7095 N   0  0  0  0  0  0  0  0  0  0  0  0
    8.6904  -15.9553   19.6335 C   0  0  0  0  0  0  0  0  0  0  0  0
    9.8998  -15.8910   19.9893 O   0  0  0  0  0  0  0  0  0  0  0  0
    7.1985  -12.8735   21.1060 C   0  0  0  0  0  0  0  0  0  0  0  0
    8.3212  -13.8830   21.0194 C   0  0  2  0  0  0  0  0  0  0  0  0
    7.8319  -14.9571   20.1500 N   0  0  0  0  0  0  0  0  0  0  0  0
    8.7072  -14.4126   22.3403 C   0  0  0  0  0  0  0  0  0  0  0  0
    9.3454  -13.6612   23.1202 O   0  0  0  0  0  0  0  0  0  0  0  0
    5.5632  -17.8676   23.4856 N   0  0  0  0  0  0  0  0  0  0  0  0
    6.4378  -17.1225   24.3504 C   0  0  0  0  0  0  0  0  0  0  0  0
    5.8762  -16.2132   25.0194 O   0  0  0  0  0  0  0  0  0  0  0  0
    7.8821  -17.4427   24.4116 C   0  0  0  0  0  0  0  0  0  0  0  0
    8.7659  -16.2753   24.0594 C   0  0  2  0  0  0  0  0  0  0  0  0
    8.3976  -15.7080   22.7639 N   0  0  0  0  0  0  0  0  0  0  0  0
   10.2121  -16.5904   24.1131 C   0  0  0  0  0  0  0  0  0  0  0  0
   10.6747  -16.9584   25.2444 O   0  0  0  0  0  0  0  0  0  0  0  0
   11.0815  -16.5210   23.0637 O   0  0  0  0  0  0  0  0  0  0  0  0
  2  1  1  6
  2  3  1  0
  4  2  1  0
  4  5  1  6
  6  4  1  0
  6 10  1  0
  7  6  2  0
  9  8  1  1
  9 10  1  0
  9 11  1  0
 11 12  2  0
 11 18  1  0
 13 14  1  0
 14 15  2  0
 16 14  1  0
 17 16  1  6
 17 19  1  0
 18 17  1  0
 19 21  1  0
 20 19  2  0
M  END
$$$$
