TAN.pdb
     RDKit          3D

 21 20  0  0  1  0  0  0  0  0999 V2000
    6.4834  -17.0397   21.3275 C   0  0  0  0  0  0  0  0  0  0  0  0
    7.0993  -16.2125   22.4067 C   0  0  1  0  0  0  0  0  0  0  0  0
    8.2273  -16.7986   22.9381 O   0  0  0  0  0  0  0  0  0  0  0  0
    7.3403  -14.7785   21.9707 C   0  0  2  0  0  0  0  0  0  0  0  0
    8.1399  -14.6983   20.7876 N   0  0  0  0  0  0  0  0  0  0  0  0
    7.9078  -13.9690   23.0932 C   0  0  0  0  0  0  0  0  0  0  0  0
    9.1091  -13.5825   23.0605 O   0  0  0  0  0  0  0  0  0  0  0  0
    6.6449  -12.1213   26.0292 C   0  0  0  0  0  0  0  0  0  0  0  0
    7.7675  -12.8862   25.3647 C   0  0  2  0  0  0  0  0  0  0  0  0
    7.1598  -13.5926   24.2330 N   0  0  0  0  0  0  0  0  0  0  0  0
    8.4250  -13.8346   26.2825 C   0  0  0  0  0  0  0  0  0  0  0  0
    7.9330  -13.9932   27.4284 O   0  0  0  0  0  0  0  0  0  0  0  0
   10.2368  -13.5495   29.3407 N   0  0  0  0  0  0  0  0  0  0  0  0
   10.3609  -14.9693   29.1493 C   0  0  0  0  0  0  0  0  0  0  0  0
   11.1942  -15.5373   29.9061 O   0  0  0  0  0  0  0  0  0  0  0  0
    9.5453  -15.6615   28.1255 C   0  0  0  0  0  0  0  0  0  0  0  0
   10.1589  -15.6242   26.7508 C   0  0  2  0  0  0  0  0  0  0  0  0
    9.5671  -14.5631   25.9386 N   0  0  0  0  0  0  0  0  0  0  0  0
   10.1117  -16.9260   26.0460 C   0  0  0  0  0  0  0  0  0  0  0  0
   10.7694  -17.8848   26.5728 O   0  0  0  0  0  0  0  0  0  0  0  0
    9.4297  -17.1823   24.8922 O   0  0  0  0  0  0  0  0  0  0  0  0
  2  1  1  6
  2  3  1  0
  4  2  1  0
  4  5  1  6
  6  4  1  0
  6 10  1  0
  7  6  2  0
  9  8  1  1
  9 10  1  0
  9 11  1  0
 11 12  2  0
 11 18  1  0
 13 14  1  0
 14 15  2  0
 16 14  1  0
 17 16  1  1
 17 19  1  0
 18 17  1  0
 19 21  1  0
 20 19  2  0
M  END
$$$$
