TAN.pdb
     RDKit          3D

 21 20  0  0  1  0  0  0  0  0999 V2000
    6.9763  -18.3852   19.6757 C   0  0  0  0  0  0  0  0  0  0  0  0
    7.4512  -17.4501   20.7378 C   0  0  1  0  0  0  0  0  0  0  0  0
    8.6658  -17.8293   21.2662 O   0  0  0  0  0  0  0  0  0  0  0  0
    7.4432  -16.0025   20.2804 C   0  0  2  0  0  0  0  0  0  0  0  0
    8.0751  -15.8320   19.0088 N   0  0  0  0  0  0  0  0  0  0  0  0
    8.0294  -15.1100   21.3278 C   0  0  0  0  0  0  0  0  0  0  0  0
    9.2135  -14.6865   21.2188 O   0  0  0  0  0  0  0  0  0  0  0  0
    6.8073  -13.4199   24.4201 C   0  0  0  0  0  0  0  0  0  0  0  0
    7.9356  -13.8619   23.5153 C   0  0  2  0  0  0  0  0  0  0  0  0
    7.3183  -14.6922   22.4768 N   0  0  0  0  0  0  0  0  0  0  0  0
    8.9769  -14.6149   24.2383 C   0  0  0  0  0  0  0  0  0  0  0  0
    9.5569  -14.0541   25.2023 O   0  0  0  0  0  0  0  0  0  0  0  0
   11.2091  -20.1167   25.3944 N   0  0  0  0  0  0  0  0  0  0  0  0
   10.9164  -18.7734   25.8163 C   0  0  0  0  0  0  0  0  0  0  0  0
   11.5964  -18.3635   26.7958 O   0  0  0  0  0  0  0  0  0  0  0  0
    9.8840  -17.9761   25.1158 C   0  0  0  0  0  0  0  0  0  0  0  0
   10.4109  -16.6818   24.5545 C   0  0  2  0  0  0  0  0  0  0  0  0
    9.3485  -15.9196   23.9019 N   0  0  0  0  0  0  0  0  0  0  0  0
   11.5735  -16.8571   23.6538 C   0  0  0  0  0  0  0  0  0  0  0  0
   12.6820  -17.1668   24.2058 O   0  0  0  0  0  0  0  0  0  0  0  0
   11.5573  -16.7168   22.2966 O   0  0  0  0  0  0  0  0  0  0  0  0
  2  1  1  6
  2  3  1  0
  4  2  1  0
  4  5  1  6
  6  4  1  0
  6 10  1  0
  7  6  2  0
  9  8  1  1
  9 10  1  0
  9 11  1  0
 11 12  2  0
 11 18  1  0
 13 14  1  0
 14 15  2  0
 16 14  1  0
 17 16  1  6
 17 19  1  0
 18 17  1  0
 19 21  1  0
 20 19  2  0
M  END
$$$$
