TAN.pdb
     RDKit          3D

 21 20  0  0  1  0  0  0  0  0999 V2000
    7.6520  -18.2851   15.7761 C   0  0  0  0  0  0  0  0  0  0  0  0
    8.2766  -17.2517   16.6537 C   0  0  1  0  0  0  0  0  0  0  0  0
    9.5043  -17.6469   17.1380 O   0  0  0  0  0  0  0  0  0  0  0  0
    8.3246  -15.8849   15.9946 C   0  0  2  0  0  0  0  0  0  0  0  0
    9.0021  -15.9135   14.7354 N   0  0  0  0  0  0  0  0  0  0  0  0
    8.9018  -14.8654   16.9247 C   0  0  0  0  0  0  0  0  0  0  0  0
   10.0744  -14.4314   16.7513 O   0  0  0  0  0  0  0  0  0  0  0  0
    7.5931  -12.7195   19.6676 C   0  0  0  0  0  0  0  0  0  0  0  0
    8.7549  -13.2791   18.8775 C   0  0  2  0  0  0  0  0  0  0  0  0
    8.1943  -14.3342   18.0282 N   0  0  0  0  0  0  0  0  0  0  0  0
    9.8209  -13.8148   19.7440 C   0  0  0  0  0  0  0  0  0  0  0  0
   10.4414  -13.0148   20.4892 O   0  0  0  0  0  0  0  0  0  0  0  0
   13.4686  -13.5307   19.0430 N   0  0  0  0  0  0  0  0  0  0  0  0
   13.2492  -14.7678   19.7427 C   0  0  0  0  0  0  0  0  0  0  0  0
   13.8969  -15.7533   19.2967 O   0  0  0  0  0  0  0  0  0  0  0  0
   12.3212  -14.8224   20.8952 C   0  0  0  0  0  0  0  0  0  0  0  0
   11.1585  -15.7549   20.6794 C   0  0  2  0  0  0  0  0  0  0  0  0
   10.1729  -15.1670   19.7746 N   0  0  0  0  0  0  0  0  0  0  0  0
   10.5240  -16.2107   21.9376 C   0  0  0  0  0  0  0  0  0  0  0  0
    9.2750  -15.9795   22.0637 O   0  0  0  0  0  0  0  0  0  0  0  0
   11.1577  -16.8514   22.9622 O   0  0  0  0  0  0  0  0  0  0  0  0
  2  1  1  6
  2  3  1  0
  4  2  1  0
  4  5  1  6
  6  4  1  0
  6 10  1  0
  7  6  2  0
  9  8  1  1
  9 10  1  0
  9 11  1  0
 11 12  2  0
 11 18  1  0
 13 14  1  0
 14 15  2  0
 16 14  1  0
 17 16  1  1
 17 19  1  0
 18 17  1  0
 19 21  1  0
 20 19  2  0
M  END
$$$$
