TAN.pdb
     RDKit          3D

 21 20  0  0  1  0  0  0  0  0999 V2000
    8.6044  -13.4781   15.7102 C   0  0  0  0  0  0  0  0  0  0  0  0
    8.6247  -14.1847   17.0249 C   0  0  1  0  0  0  0  0  0  0  0  0
    9.7514  -13.8907   17.7613 O   0  0  0  0  0  0  0  0  0  0  0  0
    7.3445  -13.9766   17.8137 C   0  0  2  0  0  0  0  0  0  0  0  0
    7.0661  -12.5922   18.0405 N   0  0  0  0  0  0  0  0  0  0  0  0
    7.3684  -14.7646   19.0849 C   0  0  0  0  0  0  0  0  0  0  0  0
    7.4103  -14.1775   20.2017 O   0  0  0  0  0  0  0  0  0  0  0  0
    7.1754  -18.3687   20.0318 C   0  0  0  0  0  0  0  0  0  0  0  0
    7.4775  -16.9271   20.3746 C   0  0  2  0  0  0  0  0  0  0  0  0
    7.3462  -16.1783   19.1212 N   0  0  0  0  0  0  0  0  0  0  0  0
    8.8239  -16.7539   20.9501 C   0  0  0  0  0  0  0  0  0  0  0  0
    9.7998  -16.6553   20.1638 O   0  0  0  0  0  0  0  0  0  0  0  0
   12.8186  -16.6354   24.3495 N   0  0  0  0  0  0  0  0  0  0  0  0
   11.6063  -16.7045   25.1201 C   0  0  0  0  0  0  0  0  0  0  0  0
   11.7721  -16.7551   26.3690 O   0  0  0  0  0  0  0  0  0  0  0  0
   10.2886  -16.7116   24.4449 C   0  0  0  0  0  0  0  0  0  0  0  0
   10.3893  -16.6714   22.9429 C   0  0  2  0  0  0  0  0  0  0  0  0
    9.0649  -16.6950   22.3255 N   0  0  0  0  0  0  0  0  0  0  0  0
   11.2604  -17.7284   22.3795 C   0  0  0  0  0  0  0  0  0  0  0  0
   12.4519  -17.3851   22.0764 O   0  0  0  0  0  0  0  0  0  0  0  0
   10.8983  -19.0257   22.1606 O   0  0  0  0  0  0  0  0  0  0  0  0
  2  1  1  6
  2  3  1  0
  4  2  1  0
  4  5  1  1
  6  4  1  0
  6 10  1  0
  7  6  2  0
  9  8  1  6
  9 10  1  0
  9 11  1  0
 11 12  2  0
 11 18  1  0
 13 14  1  0
 14 15  2  0
 16 14  1  0
 17 16  1  1
 17 19  1  0
 18 17  1  0
 19 21  1  0
 20 19  2  0
M  END
$$$$
