EGI.pdb
     RDKit          3D

 22 21  0  0  1  0  0  0  0  0999 V2000
   26.5863  -19.7640  -18.2788 N   0  0  0  0  0  0  0  0  0  0  0  0
   27.2948  -20.6875  -17.3658 C   0  0  1  0  0  0  0  0  0  0  0  0
   28.7081  -20.7946  -17.8723 C   0  0  0  0  0  0  0  0  0  0  0  0
   29.1933  -22.1860  -17.9982 C   0  0  0  0  0  0  0  0  0  0  0  0
   28.6671  -22.8536  -19.1916 C   0  0  0  0  0  0  0  0  0  0  0  0
   27.7936  -23.7358  -19.0933 O   0  0  0  0  0  0  0  0  0  0  0  0
   27.2717  -20.0720  -16.0099 C   0  0  0  0  0  0  0  0  0  0  0  0
   27.6072  -18.8443  -15.8764 O   0  0  0  0  0  0  0  0  0  0  0  0
   29.1066  -22.5446  -20.4833 O   0  0  0  0  0  0  0  0  0  0  0  0
   26.8885  -20.8065  -14.8815 N   0  0  0  0  0  0  0  0  0  0  0  0
   26.9466  -20.1347  -13.5914 C   0  0  0  0  0  0  0  0  0  0  0  0
   26.2306  -20.9517  -12.5827 C   0  0  0  0  0  0  0  0  0  0  0  0
   25.7538  -22.0951  -12.8075 O   0  0  0  0  0  0  0  0  0  0  0  0
   27.3028  -19.6844   -7.4103 C   0  0  0  0  0  0  0  0  0  0  0  0
   26.9450  -20.5123   -8.5884 C   0  0  0  0  0  0  0  0  0  0  0  0
   25.5173  -20.5686   -8.9811 C   0  0  2  0  0  0  0  0  0  0  0  0
   24.5709  -21.0141   -7.9068 C   0  0  0  0  0  0  0  0  0  0  0  0
   25.1630  -21.1553  -10.3085 C   0  0  2  0  0  0  0  0  0  0  0  0
   26.0516  -20.4451  -11.2674 N   0  0  0  0  0  0  0  0  0  0  0  0
   23.7666  -20.9195  -10.6969 C   0  0  0  0  0  0  0  0  0  0  0  0
   22.7390  -21.8255  -10.6682 O   0  0  0  0  0  0  0  0  0  0  0  0
   23.4402  -19.7475  -11.1189 O   0  0  0  0  0  0  0  0  0  0  0  0
  2  1  1  6
  2  3  1  0
  3  4  1  0
  4  5  1  0
  5  9  1  0
  6  5  2  0
  7  2  1  0
  7  8  2  0
 10  7  1  0
 11 10  1  0
 11 12  1  0
 12 13  2  0
 12 19  1  0
 15 14  1  0
 16 15  1  0
 16 17  1  1
 18 16  1  0
 18 20  1  0
 18 19  1  6
 20 21  1  0
 22 20  2  0
M  END
$$$$
