EGI.pdb
     RDKit          3D

 22 21  0  0  1  0  0  0  0  0999 V2000
   25.6044  -21.7496  -15.7003 N   0  0  0  0  0  0  0  0  0  0  0  0
   25.1103  -20.3783  -15.4477 C   0  0  1  0  0  0  0  0  0  0  0  0
   23.6174  -20.4810  -15.2863 C   0  0  0  0  0  0  0  0  0  0  0  0
   23.1963  -21.3619  -14.1754 C   0  0  0  0  0  0  0  0  0  0  0  0
   21.7389  -21.4328  -14.0424 C   0  0  0  0  0  0  0  0  0  0  0  0
   21.1542  -20.8276  -13.1245 O   0  0  0  0  0  0  0  0  0  0  0  0
   25.7407  -19.9078  -14.1832 C   0  0  0  0  0  0  0  0  0  0  0  0
   25.4101  -18.7663  -13.7085 O   0  0  0  0  0  0  0  0  0  0  0  0
   20.9372  -22.1694  -14.9209 O   0  0  0  0  0  0  0  0  0  0  0  0
   26.6833  -20.6881  -13.5033 N   0  0  0  0  0  0  0  0  0  0  0  0
   27.3239  -20.1013  -12.3353 C   0  0  0  0  0  0  0  0  0  0  0  0
   26.8903  -20.8331  -11.1212 C   0  0  0  0  0  0  0  0  0  0  0  0
   26.5417  -22.0430  -11.1110 O   0  0  0  0  0  0  0  0  0  0  0  0
   28.3123  -20.0733   -5.2227 C   0  0  0  0  0  0  0  0  0  0  0  0
   27.5480  -20.8250   -6.2484 C   0  0  0  0  0  0  0  0  0  0  0  0
   27.3859  -20.1984   -7.5814 C   0  0  2  0  0  0  0  0  0  0  0  0
   27.0797  -18.7306   -7.5700 C   0  0  0  0  0  0  0  0  0  0  0  0
   26.5917  -20.9211   -8.6199 C   0  0  2  0  0  0  0  0  0  0  0  0
   26.8527  -20.1593   -9.8709 N   0  0  0  0  0  0  0  0  0  0  0  0
   25.1467  -20.9159   -8.3580 C   0  0  0  0  0  0  0  0  0  0  0  0
   24.4471  -21.8004   -7.5796 O   0  0  0  0  0  0  0  0  0  0  0  0
   24.4302  -19.9980   -8.9077 O   0  0  0  0  0  0  0  0  0  0  0  0
  2  1  1  1
  2  3  1  0
  3  4  1  0
  4  5  1  0
  5  9  1  0
  6  5  2  0
  7  2  1  0
  7  8  2  0
 10  7  1  0
 11 10  1  0
 11 12  1  0
 12 13  2  0
 12 19  1  0
 15 14  1  0
 16 15  1  0
 16 17  1  1
 18 16  1  0
 18 20  1  0
 18 19  1  6
 20 21  1  0
 22 20  2  0
M  END
$$$$
