EGI.pdb
     RDKit          3D

 22 21  0  0  1  0  0  0  0  0999 V2000
   18.5882  -14.6542  -20.5791 N   0  0  0  0  0  0  0  0  0  0  0  0
   19.9136  -14.4103  -19.9691 C   0  0  1  0  0  0  0  0  0  0  0  0
   20.9394  -14.7502  -21.0167 C   0  0  0  0  0  0  0  0  0  0  0  0
   21.1062  -16.2028  -21.2395 C   0  0  0  0  0  0  0  0  0  0  0  0
   21.7439  -16.8712  -20.1023 C   0  0  0  0  0  0  0  0  0  0  0  0
   21.2527  -17.9077  -19.6172 O   0  0  0  0  0  0  0  0  0  0  0  0
   19.9808  -12.9634  -19.6231 C   0  0  0  0  0  0  0  0  0  0  0  0
   19.6838  -12.0944  -20.5143 O   0  0  0  0  0  0  0  0  0  0  0  0
   22.9168  -16.3932  -19.5084 O   0  0  0  0  0  0  0  0  0  0  0  0
   20.3587  -12.5354  -18.3449 N   0  0  0  0  0  0  0  0  0  0  0  0
   20.3935  -11.1010  -18.0999 C   0  0  0  0  0  0  0  0  0  0  0  0
   20.9230  -10.8508  -16.7381 C   0  0  0  0  0  0  0  0  0  0  0  0
   20.8931  -11.6921  -15.8018 O   0  0  0  0  0  0  0  0  0  0  0  0
   25.8755  -10.7815  -14.6830 C   0  0  0  0  0  0  0  0  0  0  0  0
   24.5469  -10.2113  -14.3498 C   0  0  0  0  0  0  0  0  0  0  0  0
   23.6344   -9.8924  -15.4729 C   0  0  2  0  0  0  0  0  0  0  0  0
   24.2494   -9.1244  -16.6043 C   0  0  0  0  0  0  0  0  0  0  0  0
   22.2566   -9.4074  -15.1597 C   0  0  2  0  0  0  0  0  0  0  0  0
   21.5089   -9.5931  -16.4325 N   0  0  0  0  0  0  0  0  0  0  0  0
   22.2081   -7.9876  -14.7877 C   0  0  0  0  0  0  0  0  0  0  0  0
   21.9663   -6.9256  -15.6192 O   0  0  0  0  0  0  0  0  0  0  0  0
   22.4154   -7.6718  -13.5567 O   0  0  0  0  0  0  0  0  0  0  0  0
  2  1  1  6
  2  3  1  0
  3  4  1  0
  4  5  1  0
  5  9  1  0
  6  5  2  0
  7  2  1  0
  7  8  2  0
 10  7  1  0
 11 10  1  0
 11 12  1  0
 12 13  2  0
 12 19  1  0
 15 14  1  0
 16 15  1  0
 16 17  1  6
 18 16  1  0
 18 20  1  0
 18 19  1  6
 20 21  1  0
 22 20  2  0
M  END
$$$$
