EGI.pdb
     RDKit          3D

 22 21  0  0  1  0  0  0  0  0999 V2000
   24.3696  -19.5661  -18.6065 N   0  0  0  0  0  0  0  0  0  0  0  0
   24.1208  -18.1689  -18.1891 C   0  0  1  0  0  0  0  0  0  0  0  0
   22.6495  -18.0639  -17.8898 C   0  0  0  0  0  0  0  0  0  0  0  0
   22.0349  -19.3394  -17.4624 C   0  0  0  0  0  0  0  0  0  0  0  0
   21.2246  -19.9492  -18.5198 C   0  0  0  0  0  0  0  0  0  0  0  0
   21.7620  -20.4289  -19.5357 O   0  0  0  0  0  0  0  0  0  0  0  0
   24.9224  -17.9266  -16.9576 C   0  0  0  0  0  0  0  0  0  0  0  0
   24.8430  -16.7899  -16.3751 O   0  0  0  0  0  0  0  0  0  0  0  0
   19.8295  -20.0260  -18.4503 O   0  0  0  0  0  0  0  0  0  0  0  0
   25.7569  -18.9157  -16.4237 N   0  0  0  0  0  0  0  0  0  0  0  0
   26.3310  -18.6718  -15.1085 C   0  0  0  0  0  0  0  0  0  0  0  0
   25.8475  -19.7079  -14.1649 C   0  0  0  0  0  0  0  0  0  0  0  0
   24.9909  -20.5841  -14.4542 O   0  0  0  0  0  0  0  0  0  0  0  0
   29.4978  -20.3807  -10.8013 C   0  0  0  0  0  0  0  0  0  0  0  0
   28.3791  -21.2201  -11.2963 C   0  0  0  0  0  0  0  0  0  0  0  0
   27.0067  -20.8568  -10.8715 C   0  0  2  0  0  0  0  0  0  0  0  0
   26.5363  -21.4951   -9.5989 C   0  0  0  0  0  0  0  0  0  0  0  0
   25.9261  -20.8156  -11.9020 C   0  0  2  0  0  0  0  0  0  0  0  0
   26.3608  -19.7461  -12.8405 N   0  0  0  0  0  0  0  0  0  0  0  0
   24.6113  -20.4566  -11.3552 C   0  0  0  0  0  0  0  0  0  0  0  0
   24.1589  -19.1983  -11.0558 O   0  0  0  0  0  0  0  0  0  0  0  0
   23.7712  -21.4025  -11.1151 O   0  0  0  0  0  0  0  0  0  0  0  0
  2  1  1  1
  2  3  1  0
  3  4  1  0
  4  5  1  0
  5  9  1  0
  6  5  2  0
  7  2  1  0
  7  8  2  0
 10  7  1  0
 11 10  1  0
 11 12  1  0
 12 13  2  0
 12 19  1  0
 15 14  1  0
 16 15  1  0
 16 17  1  1
 18 16  1  0
 18 20  1  0
 18 19  1  6
 20 21  1  0
 22 20  2  0
M  END
$$$$
