EGI.pdb
     RDKit          3D

 22 21  0  0  1  0  0  0  0  0999 V2000
   17.3082  -13.8938  -18.2297 N   0  0  0  0  0  0  0  0  0  0  0  0
   17.4111  -13.2932  -19.5777 C   0  0  1  0  0  0  0  0  0  0  0  0
   16.0109  -12.9361  -19.9985 C   0  0  0  0  0  0  0  0  0  0  0  0
   15.2755  -12.1287  -19.0012 C   0  0  0  0  0  0  0  0  0  0  0  0
   13.9150  -11.8064  -19.4392 C   0  0  0  0  0  0  0  0  0  0  0  0
   12.9312  -12.3701  -18.9242 O   0  0  0  0  0  0  0  0  0  0  0  0
   18.2469  -12.0671  -19.4521 C   0  0  0  0  0  0  0  0  0  0  0  0
   18.6000  -11.4416  -20.5112 O   0  0  0  0  0  0  0  0  0  0  0  0
   13.6487  -10.8664  -20.4404 O   0  0  0  0  0  0  0  0  0  0  0  0
   18.6509  -11.5841  -18.2018 N   0  0  0  0  0  0  0  0  0  0  0  0
   19.4986  -10.4010  -18.1808 C   0  0  0  0  0  0  0  0  0  0  0  0
   19.7408   -9.9987  -16.7748 C   0  0  0  0  0  0  0  0  0  0  0  0
   18.9359  -10.2096  -15.8298 O   0  0  0  0  0  0  0  0  0  0  0  0
   23.8218  -11.9984  -14.8668 C   0  0  0  0  0  0  0  0  0  0  0  0
   22.5773  -11.2457  -15.1598 C   0  0  0  0  0  0  0  0  0  0  0  0
   22.5268   -9.8191  -14.7620 C   0  0  2  0  0  0  0  0  0  0  0  0
   23.1165   -9.5035  -13.4201 C   0  0  0  0  0  0  0  0  0  0  0  0
   21.2687   -9.0520  -15.0076 C   0  0  2  0  0  0  0  0  0  0  0  0
   20.9471   -9.3301  -16.4334 N   0  0  0  0  0  0  0  0  0  0  0  0
   21.4258   -7.6022  -14.8344 C   0  0  0  0  0  0  0  0  0  0  0  0
   21.0609   -6.8583  -13.7429 O   0  0  0  0  0  0  0  0  0  0  0  0
   21.9554   -6.9267  -15.7942 O   0  0  0  0  0  0  0  0  0  0  0  0
  2  1  1  1
  2  3  1  0
  3  4  1  0
  4  5  1  0
  5  9  1  0
  6  5  2  0
  7  2  1  0
  7  8  2  0
 10  7  1  0
 11 10  1  0
 11 12  1  0
 12 13  2  0
 12 19  1  0
 15 14  1  0
 16 15  1  0
 16 17  1  1
 18 16  1  0
 18 20  1  0
 18 19  1  6
 20 21  1  0
 22 20  2  0
M  END
$$$$
