EGI.pdb
     RDKit          3D

 22 21  0  0  1  0  0  0  0  0999 V2000
   24.2432  -20.7279  -16.3357 N   0  0  0  0  0  0  0  0  0  0  0  0
   24.0476  -19.3642  -15.7964 C   0  0  1  0  0  0  0  0  0  0  0  0
   22.6688  -19.3326  -15.1939 C   0  0  0  0  0  0  0  0  0  0  0  0
   21.5828  -19.2349  -16.1932 C   0  0  0  0  0  0  0  0  0  0  0  0
   20.5458  -20.2497  -15.9899 C   0  0  0  0  0  0  0  0  0  0  0  0
   20.8520  -21.4264  -15.7209 O   0  0  0  0  0  0  0  0  0  0  0  0
   25.0813  -19.1527  -14.7455 C   0  0  0  0  0  0  0  0  0  0  0  0
   25.0876  -18.0543  -14.0888 O   0  0  0  0  0  0  0  0  0  0  0  0
   19.1802  -19.9609  -16.0844 O   0  0  0  0  0  0  0  0  0  0  0  0
   26.0423  -20.1297  -14.4598 N   0  0  0  0  0  0  0  0  0  0  0  0
   26.9462  -19.8775  -13.3471 C   0  0  0  0  0  0  0  0  0  0  0  0
   26.5535  -20.7261  -12.1969 C   0  0  0  0  0  0  0  0  0  0  0  0
   26.1967  -21.9296  -12.2947 O   0  0  0  0  0  0  0  0  0  0  0  0
   27.6770  -18.8446   -6.8476 C   0  0  0  0  0  0  0  0  0  0  0  0
   26.8213  -19.2506   -7.9896 C   0  0  0  0  0  0  0  0  0  0  0  0
   27.0995  -20.5597   -8.6259 C   0  0  2  0  0  0  0  0  0  0  0  0
   28.5405  -20.8297   -8.9400 C   0  0  0  0  0  0  0  0  0  0  0  0
   26.1974  -21.0295   -9.7200 C   0  0  2  0  0  0  0  0  0  0  0  0
   26.5683  -20.1812  -10.8847 N   0  0  0  0  0  0  0  0  0  0  0  0
   24.7722  -20.8306   -9.4273 C   0  0  0  0  0  0  0  0  0  0  0  0
   23.9711  -21.6274   -8.6520 O   0  0  0  0  0  0  0  0  0  0  0  0
   24.1799  -19.8101   -9.9429 O   0  0  0  0  0  0  0  0  0  0  0  0
  2  1  1  1
  2  3  1  0
  3  4  1  0
  4  5  1  0
  5  9  1  0
  6  5  2  0
  7  2  1  0
  7  8  2  0
 10  7  1  0
 11 10  1  0
 11 12  1  0
 12 13  2  0
 12 19  1  0
 15 14  1  0
 16 15  1  0
 16 17  1  6
 18 16  1  0
 18 20  1  0
 18 19  1  6
 20 21  1  0
 22 20  2  0
M  END
$$$$
