EGI.pdb
     RDKit          3D

 22 21  0  0  1  0  0  0  0  0999 V2000
   26.3062  -19.6891  -17.2417 N   0  0  0  0  0  0  0  0  0  0  0  0
   26.8004  -18.3086  -17.0461 C   0  0  1  0  0  0  0  0  0  0  0  0
   25.7766  -17.3930  -17.6618 C   0  0  0  0  0  0  0  0  0  0  0  0
   24.4351  -17.4993  -17.0484 C   0  0  0  0  0  0  0  0  0  0  0  0
   23.3650  -17.5188  -18.0490 C   0  0  0  0  0  0  0  0  0  0  0  0
   22.1857  -17.2868  -17.7231 O   0  0  0  0  0  0  0  0  0  0  0  0
   26.8922  -18.0764  -15.5779 C   0  0  0  0  0  0  0  0  0  0  0  0
   27.3825  -16.9745  -15.1501 O   0  0  0  0  0  0  0  0  0  0  0  0
   23.6019  -17.7937  -19.4001 O   0  0  0  0  0  0  0  0  0  0  0  0
   26.4514  -19.0354  -14.6584 N   0  0  0  0  0  0  0  0  0  0  0  0
   26.4982  -18.6837  -13.2467 C   0  0  0  0  0  0  0  0  0  0  0  0
   25.8923  -19.7775  -12.4505 C   0  0  0  0  0  0  0  0  0  0  0  0
   25.4661  -20.8565  -12.9399 O   0  0  0  0  0  0  0  0  0  0  0  0
   27.2266  -19.3904   -7.1949 C   0  0  0  0  0  0  0  0  0  0  0  0
   26.9549  -20.0598   -8.4908 C   0  0  0  0  0  0  0  0  0  0  0  0
   25.5445  -20.3722   -8.8209 C   0  0  2  0  0  0  0  0  0  0  0  0
   24.8272  -21.2374   -7.8283 C   0  0  0  0  0  0  0  0  0  0  0  0
   25.2044  -20.7450  -10.2269 C   0  0  2  0  0  0  0  0  0  0  0  0
   25.7677  -19.6353  -11.0423 N   0  0  0  0  0  0  0  0  0  0  0  0
   23.7594  -20.8260  -10.4761 C   0  0  0  0  0  0  0  0  0  0  0  0
   22.9379  -19.8140  -10.8986 O   0  0  0  0  0  0  0  0  0  0  0  0
   23.1690  -21.9537  -10.2817 O   0  0  0  0  0  0  0  0  0  0  0  0
  2  1  1  1
  2  3  1  0
  3  4  1  0
  4  5  1  0
  5  9  1  0
  6  5  2  0
  7  2  1  0
  7  8  2  0
 10  7  1  0
 11 10  1  0
 11 12  1  0
 12 13  2  0
 12 19  1  0
 15 14  1  0
 16 15  1  0
 16 17  1  1
 18 16  1  0
 18 20  1  0
 18 19  1  6
 20 21  1  0
 22 20  2  0
M  END
$$$$
