EGI.pdb
     RDKit          3D

 22 21  0  0  1  0  0  0  0  0999 V2000
   24.4471  -22.2243  -13.8490 N   0  0  0  0  0  0  0  0  0  0  0  0
   24.6179  -20.8405  -14.3435 C   0  0  1  0  0  0  0  0  0  0  0  0
   23.2383  -20.3123  -14.6313 C   0  0  0  0  0  0  0  0  0  0  0  0
   22.3140  -21.3263  -15.1833 C   0  0  0  0  0  0  0  0  0  0  0  0
   21.1493  -21.5461  -14.3219 C   0  0  0  0  0  0  0  0  0  0  0  0
   20.4520  -20.5879  -13.9390 O   0  0  0  0  0  0  0  0  0  0  0  0
   25.2592  -20.0573  -13.2512 C   0  0  0  0  0  0  0  0  0  0  0  0
   25.5056  -18.8153  -13.4360 O   0  0  0  0  0  0  0  0  0  0  0  0
   20.7619  -22.8187  -13.8891 O   0  0  0  0  0  0  0  0  0  0  0  0
   25.5946  -20.6501  -12.0282 N   0  0  0  0  0  0  0  0  0  0  0  0
   26.1972  -19.7992  -11.0124 C   0  0  0  0  0  0  0  0  0  0  0  0
   26.4394  -20.5979   -9.7873 C   0  0  0  0  0  0  0  0  0  0  0  0
   26.3743  -21.8543   -9.7373 O   0  0  0  0  0  0  0  0  0  0  0  0
   29.4211  -19.6411   -4.4910 C   0  0  0  0  0  0  0  0  0  0  0  0
   28.4607  -20.4683   -5.2621 C   0  0  0  0  0  0  0  0  0  0  0  0
   27.9596  -19.9231   -6.5456 C   0  0  2  0  0  0  0  0  0  0  0  0
   27.6046  -18.4664   -6.5318 C   0  0  0  0  0  0  0  0  0  0  0  0
   26.9711  -20.7258   -7.3267 C   0  0  2  0  0  0  0  0  0  0  0  0
   26.7683  -19.9383   -8.5725 N   0  0  0  0  0  0  0  0  0  0  0  0
   25.6769  -20.8775   -6.6493 C   0  0  0  0  0  0  0  0  0  0  0  0
   24.5033  -20.2434   -6.9630 O   0  0  0  0  0  0  0  0  0  0  0  0
   25.6037  -21.6813   -5.6460 O   0  0  0  0  0  0  0  0  0  0  0  0
  2  1  1  1
  2  3  1  0
  3  4  1  0
  4  5  1  0
  5  9  1  0
  6  5  2  0
  7  2  1  0
  7  8  2  0
 10  7  1  0
 11 10  1  0
 11 12  1  0
 12 13  2  0
 12 19  1  0
 15 14  1  0
 16 15  1  0
 16 17  1  1
 18 16  1  0
 18 20  1  0
 18 19  1  6
 20 21  1  0
 22 20  2  0
M  END
$$$$
