EGI.pdb
     RDKit          3D

 22 21  0  0  1  0  0  0  0  0999 V2000
   25.8457  -19.9278  -17.7636 N   0  0  0  0  0  0  0  0  0  0  0  0
   27.3186  -19.9108  -17.6264 C   0  0  1  0  0  0  0  0  0  0  0  0
   27.8107  -18.7236  -18.4097 C   0  0  0  0  0  0  0  0  0  0  0  0
   27.0347  -17.4875  -18.1706 C   0  0  0  0  0  0  0  0  0  0  0  0
   27.5305  -16.3570  -18.9599 C   0  0  0  0  0  0  0  0  0  0  0  0
   26.9150  -15.2746  -18.9762 O   0  0  0  0  0  0  0  0  0  0  0  0
   27.6252  -19.7443  -16.1786 C   0  0  0  0  0  0  0  0  0  0  0  0
   28.8011  -20.0185  -15.7545 O   0  0  0  0  0  0  0  0  0  0  0  0
   28.6998  -16.4275  -19.7247 O   0  0  0  0  0  0  0  0  0  0  0  0
   26.6566  -19.2923  -15.2747 N   0  0  0  0  0  0  0  0  0  0  0  0
   27.0711  -19.0829  -13.8952 C   0  0  0  0  0  0  0  0  0  0  0  0
   26.5172  -20.1667  -13.0490 C   0  0  0  0  0  0  0  0  0  0  0  0
   26.4157  -21.3675  -13.4139 O   0  0  0  0  0  0  0  0  0  0  0  0
   27.1915  -19.2790   -7.8152 C   0  0  0  0  0  0  0  0  0  0  0  0
   27.0394  -20.1880   -8.9779 C   0  0  0  0  0  0  0  0  0  0  0  0
   25.6689  -20.4297   -9.4869 C   0  0  2  0  0  0  0  0  0  0  0  0
   24.7353  -21.1050   -8.5275 C   0  0  0  0  0  0  0  0  0  0  0  0
   25.5035  -20.9490  -10.8778 C   0  0  2  0  0  0  0  0  0  0  0  0
   26.0615  -19.8697  -11.7364 N   0  0  0  0  0  0  0  0  0  0  0  0
   24.1019  -21.1732  -11.2544 C   0  0  0  0  0  0  0  0  0  0  0  0
   23.4245  -22.3643  -11.2380 O   0  0  0  0  0  0  0  0  0  0  0  0
   23.4078  -20.1640  -11.6518 O   0  0  0  0  0  0  0  0  0  0  0  0
  2  1  1  1
  2  3  1  0
  3  4  1  0
  4  5  1  0
  5  9  1  0
  6  5  2  0
  7  2  1  0
  7  8  2  0
 10  7  1  0
 11 10  1  0
 11 12  1  0
 12 13  2  0
 12 19  1  0
 15 14  1  0
 16 15  1  0
 16 17  1  1
 18 16  1  0
 18 20  1  0
 18 19  1  6
 20 21  1  0
 22 20  2  0
M  END
$$$$
