EGI.pdb
     RDKit          3D

 22 21  0  0  1  0  0  0  0  0999 V2000
   22.2547  -12.5337  -17.7732 N   0  0  0  0  0  0  0  0  0  0  0  0
   22.1176  -11.0898  -18.0644 C   0  0  1  0  0  0  0  0  0  0  0  0
   20.7794  -10.9093  -18.7292 C   0  0  0  0  0  0  0  0  0  0  0  0
   19.9587  -12.1392  -18.7624 C   0  0  0  0  0  0  0  0  0  0  0  0
   18.6150  -11.8980  -19.2943 C   0  0  0  0  0  0  0  0  0  0  0  0
   17.7931  -11.2123  -18.6578 O   0  0  0  0  0  0  0  0  0  0  0  0
   22.1537  -10.3711  -16.7606 C   0  0  0  0  0  0  0  0  0  0  0  0
   22.0860  -11.0450  -15.6748 O   0  0  0  0  0  0  0  0  0  0  0  0
   18.1871  -12.4136  -20.5224 O   0  0  0  0  0  0  0  0  0  0  0  0
   22.2628   -8.9769  -16.6985 N   0  0  0  0  0  0  0  0  0  0  0  0
   22.1700   -8.3537  -15.3863 C   0  0  0  0  0  0  0  0  0  0  0  0
   22.2920   -6.8837  -15.5341 C   0  0  0  0  0  0  0  0  0  0  0  0
   22.7309   -6.3103  -16.5655 O   0  0  0  0  0  0  0  0  0  0  0  0
   18.8452   -2.5645  -16.0177 C   0  0  0  0  0  0  0  0  0  0  0  0
   20.2169   -2.8512  -15.5302 C   0  0  0  0  0  0  0  0  0  0  0  0
   20.5331   -4.2477  -15.1488 C   0  0  2  0  0  0  0  0  0  0  0  0
   19.4750   -4.9539  -14.3550 C   0  0  0  0  0  0  0  0  0  0  0  0
   21.9039   -4.5582  -14.6425 C   0  0  2  0  0  0  0  0  0  0  0  0
   21.8984   -6.0353  -14.4645 N   0  0  0  0  0  0  0  0  0  0  0  0
   22.2053   -3.9291  -13.3503 C   0  0  0  0  0  0  0  0  0  0  0  0
   22.7086   -2.6715  -13.1434 O   0  0  0  0  0  0  0  0  0  0  0  0
   21.9894   -4.6065  -12.2767 O   0  0  0  0  0  0  0  0  0  0  0  0
  2  1  1  1
  2  3  1  0
  3  4  1  0
  4  5  1  0
  5  9  1  0
  6  5  2  0
  7  2  1  0
  7  8  2  0
 10  7  1  0
 11 10  1  0
 11 12  1  0
 12 13  2  0
 12 19  1  0
 15 14  1  0
 16 15  1  0
 16 17  1  1
 18 16  1  0
 18 20  1  0
 18 19  1  1
 20 21  1  0
 22 20  2  0
M  END
$$$$
