EGI.pdb
     RDKit          3D

 22 21  0  0  1  0  0  0  0  0999 V2000
   22.8893  -19.7643  -14.7111 N   0  0  0  0  0  0  0  0  0  0  0  0
   21.7975  -20.3120  -13.8766 C   0  0  1  0  0  0  0  0  0  0  0  0
   21.1859  -21.4448  -14.6564 C   0  0  0  0  0  0  0  0  0  0  0  0
   20.4142  -21.0068  -15.8396 C   0  0  0  0  0  0  0  0  0  0  0  0
   19.0600  -20.5696  -15.4908 C   0  0  0  0  0  0  0  0  0  0  0  0
   18.0966  -21.3540  -15.5776 O   0  0  0  0  0  0  0  0  0  0  0  0
   22.4141  -20.8174  -12.6188 C   0  0  0  0  0  0  0  0  0  0  0  0
   21.6962  -21.4855  -11.7967 O   0  0  0  0  0  0  0  0  0  0  0  0
   18.7773  -19.2726  -15.0493 O   0  0  0  0  0  0  0  0  0  0  0  0
   23.7608  -20.5797  -12.3195 N   0  0  0  0  0  0  0  0  0  0  0  0
   24.2731  -21.1085  -11.0638 C   0  0  0  0  0  0  0  0  0  0  0  0
   25.6981  -20.7269  -10.9183 C   0  0  0  0  0  0  0  0  0  0  0  0
   26.3425  -20.0599  -11.7700 O   0  0  0  0  0  0  0  0  0  0  0  0
   27.5101  -19.0599   -6.5931 C   0  0  0  0  0  0  0  0  0  0  0  0
   27.2150  -20.4275   -7.0869 C   0  0  0  0  0  0  0  0  0  0  0  0
   28.1065  -20.9896   -8.1286 C   0  0  2  0  0  0  0  0  0  0  0  0
   29.5735  -20.9206   -7.8266 C   0  0  0  0  0  0  0  0  0  0  0  0
   27.8212  -20.6742   -9.5607 C   0  0  2  0  0  0  0  0  0  0  0  0
   26.4158  -21.1210   -9.7572 N   0  0  0  0  0  0  0  0  0  0  0  0
   28.6827  -21.4017  -10.5014 C   0  0  0  0  0  0  0  0  0  0  0  0
   29.7582  -20.9030  -11.1886 O   0  0  0  0  0  0  0  0  0  0  0  0
   28.4243  -22.6420  -10.7315 O   0  0  0  0  0  0  0  0  0  0  0  0
  2  1  1  6
  2  3  1  0
  3  4  1  0
  4  5  1  0
  5  9  1  0
  6  5  2  0
  7  2  1  0
  7  8  2  0
 10  7  1  0
 11 10  1  0
 11 12  1  0
 12 13  2  0
 12 19  1  0
 15 14  1  0
 16 15  1  0
 16 17  1  1
 18 16  1  0
 18 20  1  0
 18 19  1  6
 20 21  1  0
 22 20  2  0
M  END
$$$$
