EGI.pdb
     RDKit          3D

 22 21  0  0  1  0  0  0  0  0999 V2000
   24.9743  -22.1796  -14.4151 N   0  0  0  0  0  0  0  0  0  0  0  0
   24.5234  -20.8467  -13.9584 C   0  0  1  0  0  0  0  0  0  0  0  0
   23.1655  -21.0401  -13.3388 C   0  0  0  0  0  0  0  0  0  0  0  0
   22.0436  -20.7153  -14.2461 C   0  0  0  0  0  0  0  0  0  0  0  0
   21.5618  -21.8893  -14.9785 C   0  0  0  0  0  0  0  0  0  0  0  0
   20.9442  -22.7964  -14.3898 O   0  0  0  0  0  0  0  0  0  0  0  0
   25.5004  -20.3758  -12.9379 C   0  0  0  0  0  0  0  0  0  0  0  0
   25.2380  -19.3204  -12.2635 O   0  0  0  0  0  0  0  0  0  0  0  0
   21.7637  -22.0550  -16.3529 O   0  0  0  0  0  0  0  0  0  0  0  0
   26.6959  -21.0641  -12.6999 N   0  0  0  0  0  0  0  0  0  0  0  0
   27.6037  -20.5096  -11.7063 C   0  0  0  0  0  0  0  0  0  0  0  0
   27.2688  -21.0664  -10.3740 C   0  0  0  0  0  0  0  0  0  0  0  0
   27.1433  -22.2957  -10.1320 O   0  0  0  0  0  0  0  0  0  0  0  0
   29.4627  -18.8852   -5.8591 C   0  0  0  0  0  0  0  0  0  0  0  0
   28.8385  -19.8629   -6.7843 C   0  0  0  0  0  0  0  0  0  0  0  0
   27.3715  -19.7857   -6.9788 C   0  0  2  0  0  0  0  0  0  0  0  0
   26.5635  -19.6241   -5.7261 C   0  0  0  0  0  0  0  0  0  0  0  0
   26.7257  -20.7343   -7.9350 C   0  0  2  0  0  0  0  0  0  0  0  0
   27.0692  -20.1877   -9.2755 N   0  0  0  0  0  0  0  0  0  0  0  0
   25.2636  -20.7861   -7.8081 C   0  0  0  0  0  0  0  0  0  0  0  0
   24.5316  -21.6775   -7.0683 O   0  0  0  0  0  0  0  0  0  0  0  0
   24.5640  -19.9177   -8.4520 O   0  0  0  0  0  0  0  0  0  0  0  0
  2  1  1  1
  2  3  1  0
  3  4  1  0
  4  5  1  0
  5  9  1  0
  6  5  2  0
  7  2  1  0
  7  8  2  0
 10  7  1  0
 11 10  1  0
 11 12  1  0
 12 13  2  0
 12 19  1  0
 15 14  1  0
 16 15  1  0
 16 17  1  1
 18 16  1  0
 18 20  1  0
 18 19  1  6
 20 21  1  0
 22 20  2  0
M  END
$$$$
