KRH.pdb
     RDKit          3D

 31 31  0  0  1  0  0  0  0  0999 V2000
    6.8505  -17.4360   26.6278 N   0  0  0  0  0  0  0  0  0  0  0  0
    6.8726  -16.3355   25.7099 C   0  0  1  0  0  0  0  0  0  0  0  0
    7.6062  -15.1348   26.2611 C   0  0  0  0  0  0  0  0  0  0  0  0
    6.6030  -14.0784   26.6354 C   0  0  0  0  0  0  0  0  0  0  0  0
    7.2871  -12.7424   26.8619 C   0  0  0  0  0  0  0  0  0  0  0  0
    6.1964  -11.7367   27.1972 C   0  0  0  0  0  0  0  0  0  0  0  0
    6.8351  -10.4937   27.5388 N   0  0  0  0  0  0  0  0  0  0  0  0
    7.5778  -16.6979   24.4366 C   0  0  0  0  0  0  0  0  0  0  0  0
    7.8421  -17.8994   24.1854 O   0  0  0  0  0  0  0  0  0  0  0  0
    8.6403  -15.1088   16.4669 N   0  0  0  0  0  0  0  0  0  0  0  0
    8.0627  -13.9330   17.0313 C   0  0  0  0  0  0  0  0  0  0  0  0
    8.4637  -12.7772   16.6732 N   0  0  0  0  0  0  0  0  0  0  0  0
    7.0387  -14.0632   17.9938 N   0  0  0  0  0  0  0  0  0  0  0  0
    7.0791  -15.2038   18.8990 C   0  0  0  0  0  0  0  0  0  0  0  0
    8.2966  -15.0715   19.7969 C   0  0  0  0  0  0  0  0  0  0  0  0
    7.9298  -15.0085   21.2339 C   0  0  0  0  0  0  0  0  0  0  0  0
    8.3630  -16.1324   22.1083 C   0  0  2  0  0  0  0  0  0  0  0  0
    7.9693  -15.7315   23.4813 N   0  0  0  0  0  0  0  0  0  0  0  0
    9.8097  -16.3911   22.1541 C   0  0  0  0  0  0  0  0  0  0  0  0
   10.4340  -16.7983   21.1007 O   0  0  0  0  0  0  0  0  0  0  0  0
    8.0317  -11.9200   17.0906 N   0  0  0  0  0  0  0  0  0  0  0  0
   10.6321  -16.2287   23.2939 C   0  0  2  0  0  0  0  0  0  0  0  0
   12.0103  -16.7361   23.3108 C   0  0  0  0  0  0  0  0  0  0  0  0
   11.9751  -18.1466   22.7637 C   0  0  0  0  0  0  0  0  0  0  0  0
   13.3010  -18.7980   22.7754 C   0  0  0  0  0  0  0  0  0  0  0  0
   14.4735  -18.2104   23.1703 N   0  0  0  0  0  0  0  0  0  0  0  0
   15.4711  -19.1006   23.0412 C   0  0  0  0  0  0  0  0  0  0  0  0
   14.9112  -20.2202   22.5720 N   0  0  0  0  0  0  0  0  0  0  0  0
   13.5924  -20.0606   22.4023 C   0  0  0  0  0  0  0  0  0  0  0  0
   12.9068  -15.8437   22.5503 O   0  0  0  0  0  0  0  0  0  0  0  0
   14.2883  -15.8498   22.7212 O   0  0  0  0  0  0  0  0  0  0  0  0
  2  3  1  0
  2  1  1  1
  3  4  1  0
  4  5  1  0
  5  6  1  0
  7  6  1  0
  8  9  2  0
  8  2  1  0
 10 11  1  0
 11 12  2  0
 13 11  1  0
 13 14  1  0
 15 14  1  0
 15 16  1  0
 17 16  1  6
 17 19  1  0
 17 18  1  0
 18  8  1  0
 19 20  2  0
 21 22  1  0
 21 19  1  0
 22 23  1  6
 23 24  1  0
 24 25  2  0
 25 26  1  0
 27 26  1  0
 28 24  1  0
 28 27  2  0
 29 30  1  0
 29 22  1  0
 31 29  2  0
M  END
$$$$
