KRH.pdb
     RDKit          3D

 31 31  0  0  1  0  0  0  0  0999 V2000
    5.5369  -21.2883   22.9615 N   0  0  0  0  0  0  0  0  0  0  0  0
    5.5721  -19.9995   23.5876 C   0  0  1  0  0  0  0  0  0  0  0  0
    5.9991  -20.0692   25.0355 C   0  0  0  0  0  0  0  0  0  0  0  0
    7.1803  -20.9929   25.1529 C   0  0  0  0  0  0  0  0  0  0  0  0
    7.5473  -21.2153   26.6091 C   0  0  0  0  0  0  0  0  0  0  0  0
    8.7666  -22.1243   26.6254 C   0  0  0  0  0  0  0  0  0  0  0  0
    9.1566  -22.3114   27.9975 N   0  0  0  0  0  0  0  0  0  0  0  0
    6.5554  -19.0893   22.9135 C   0  0  0  0  0  0  0  0  0  0  0  0
    7.6893  -19.5202   22.5889 O   0  0  0  0  0  0  0  0  0  0  0  0
    7.7520  -11.7693   19.6025 N   0  0  0  0  0  0  0  0  0  0  0  0
    8.6568  -12.7177   19.0400 C   0  0  0  0  0  0  0  0  0  0  0  0
    9.8766  -12.4086   18.8358 N   0  0  0  0  0  0  0  0  0  0  0  0
    8.1858  -14.0068   18.7106 N   0  0  0  0  0  0  0  0  0  0  0  0
    6.9962  -14.5043   19.3885 C   0  0  0  0  0  0  0  0  0  0  0  0
    7.2725  -14.5604   20.8807 C   0  0  0  0  0  0  0  0  0  0  0  0
    6.5141  -15.6460   21.5512 C   0  0  0  0  0  0  0  0  0  0  0  0
    7.2620  -16.8711   21.9451 C   0  0  2  0  0  0  0  0  0  0  0  0
    6.2632  -17.7377   22.6176 N   0  0  0  0  0  0  0  0  0  0  0  0
    8.3537  -16.6758   22.9105 C   0  0  0  0  0  0  0  0  0  0  0  0
    8.1070  -16.6397   24.1767 O   0  0  0  0  0  0  0  0  0  0  0  0
   10.5304  -13.1075   18.4118 N   0  0  0  0  0  0  0  0  0  0  0  0
    9.7196  -16.5175   22.5771 C   0  0  1  0  0  0  0  0  0  0  0  0
   10.7313  -16.2933   23.6180 C   0  0  0  0  0  0  0  0  0  0  0  0
   10.7502  -17.5250   24.4969 C   0  0  0  0  0  0  0  0  0  0  0  0
    9.9027  -17.3835   25.6986 C   0  0  0  0  0  0  0  0  0  0  0  0
    9.1130  -16.3038   25.9936 N   0  0  0  0  0  0  0  0  0  0  0  0
    8.4938  -16.5250   27.1648 C   0  0  0  0  0  0  0  0  0  0  0  0
    8.9026  -17.7284   27.5795 N   0  0  0  0  0  0  0  0  0  0  0  0
    9.7597  -18.2700   26.7045 C   0  0  0  0  0  0  0  0  0  0  0  0
   12.0449  -15.9929   23.0159 O   0  0  0  0  0  0  0  0  0  0  0  0
   13.1549  -15.6436   23.7801 O   0  0  0  0  0  0  0  0  0  0  0  0
  2  3  1  0
  2  1  1  6
  3  4  1  0
  4  5  1  0
  5  6  1  0
  7  6  1  0
  8  9  2  0
  8  2  1  0
 10 11  1  0
 11 12  2  0
 13 11  1  0
 13 14  1  0
 15 14  1  0
 15 16  1  0
 17 16  1  1
 17 19  1  0
 17 18  1  0
 18  8  1  0
 19 20  2  0
 21 22  1  0
 21 19  1  0
 22 23  1  6
 23 24  1  0
 24 25  2  0
 25 26  1  0
 27 26  1  0
 28 24  1  0
 28 27  2  0
 29 30  1  0
 29 22  1  0
 31 29  2  0
M  END
$$$$
