KRH.pdb
     RDKit          3D

 31 31  0  0  1  0  0  0  0  0999 V2000
   12.4306  -19.9359   16.3683 N   0  0  0  0  0  0  0  0  0  0  0  0
   11.3156  -20.1181   17.2502 C   0  0  1  0  0  0  0  0  0  0  0  0
   11.3248  -21.4699   17.9256 C   0  0  0  0  0  0  0  0  0  0  0  0
   12.6593  -21.6763   18.5882 C   0  0  0  0  0  0  0  0  0  0  0  0
   12.5018  -22.4434   19.8886 C   0  0  0  0  0  0  0  0  0  0  0  0
   13.8594  -22.4372   20.5744 C   0  0  0  0  0  0  0  0  0  0  0  0
   13.7255  -23.1447   21.8200 N   0  0  0  0  0  0  0  0  0  0  0  0
   11.3216  -19.1065   18.3577 C   0  0  0  0  0  0  0  0  0  0  0  0
   12.4094  -18.6347   18.7711 O   0  0  0  0  0  0  0  0  0  0  0  0
    6.4242  -12.4825   19.1509 N   0  0  0  0  0  0  0  0  0  0  0  0
    7.2088  -13.3626   18.3481 C   0  0  0  0  0  0  0  0  0  0  0  0
    7.2603  -13.2141   17.0831 N   0  0  0  0  0  0  0  0  0  0  0  0
    7.9302  -14.4033   18.9713 N   0  0  0  0  0  0  0  0  0  0  0  0
    7.5636  -14.7849   20.3285 C   0  0  0  0  0  0  0  0  0  0  0  0
    8.5840  -15.7827   20.8474 C   0  0  0  0  0  0  0  0  0  0  0  0
    8.8959  -16.8365   19.8496 C   0  0  0  0  0  0  0  0  0  0  0  0
   10.1767  -17.5787   20.0047 C   0  0  2  0  0  0  0  0  0  0  0  0
   10.1356  -18.6456   18.9747 N   0  0  0  0  0  0  0  0  0  0  0  0
   10.3744  -18.2584   21.2934 C   0  0  0  0  0  0  0  0  0  0  0  0
   10.0327  -19.4943   21.4390 O   0  0  0  0  0  0  0  0  0  0  0  0
    7.7985  -13.8943   16.4971 N   0  0  0  0  0  0  0  0  0  0  0  0
   10.9324  -17.6667   22.4511 C   0  0  1  0  0  0  0  0  0  0  0  0
   11.7271  -18.4598   23.3980 C   0  0  0  0  0  0  0  0  0  0  0  0
   12.8868  -19.0498   22.6252 C   0  0  0  0  0  0  0  0  0  0  0  0
   13.7411  -19.9244   23.4545 C   0  0  0  0  0  0  0  0  0  0  0  0
   13.4298  -20.3875   24.7054 N   0  0  0  0  0  0  0  0  0  0  0  0
   14.4428  -21.1480   25.1522 C   0  0  0  0  0  0  0  0  0  0  0  0
   15.3628  -21.1480   24.1822 N   0  0  0  0  0  0  0  0  0  0  0  0
   14.9587  -20.4109   23.1397 C   0  0  0  0  0  0  0  0  0  0  0  0
   12.1567  -17.6332   24.5428 O   0  0  0  0  0  0  0  0  0  0  0  0
   12.5074  -18.1840   25.7723 O   0  0  0  0  0  0  0  0  0  0  0  0
  2  3  1  0
  2  1  1  6
  3  4  1  0
  4  5  1  0
  5  6  1  0
  7  6  1  0
  8  9  2  0
  8  2  1  0
 10 11  1  0
 11 12  2  0
 13 11  1  0
 13 14  1  0
 15 14  1  0
 15 16  1  0
 17 16  1  1
 17 19  1  0
 17 18  1  0
 18  8  1  0
 19 20  2  0
 21 22  1  0
 21 19  1  0
 22 23  1  6
 23 24  1  0
 24 25  2  0
 25 26  1  0
 27 26  1  0
 28 24  1  0
 28 27  2  0
 29 30  1  0
 29 22  1  0
 31 29  2  0
M  END
$$$$
