KRH.pdb
     RDKit          3D

 31 31  0  0  1  0  0  0  0  0999 V2000
    9.6643  -20.1938   16.6817 N   0  0  0  0  0  0  0  0  0  0  0  0
    9.0570  -20.2990   17.9756 C   0  0  1  0  0  0  0  0  0  0  0  0
    9.3107  -21.6380   18.6286 C   0  0  0  0  0  0  0  0  0  0  0  0
   10.5531  -22.2437   18.0354 C   0  0  0  0  0  0  0  0  0  0  0  0
   10.7548  -23.6611   18.5399 C   0  0  0  0  0  0  0  0  0  0  0  0
   12.0188  -24.1910   17.8804 C   0  0  0  0  0  0  0  0  0  0  0  0
   12.2487  -25.5215   18.3771 N   0  0  0  0  0  0  0  0  0  0  0  0
    9.6025  -19.2713   18.9223 C   0  0  0  0  0  0  0  0  0  0  0  0
   10.7370  -18.7722   18.7214 O   0  0  0  0  0  0  0  0  0  0  0  0
    6.5247  -12.6237   19.5054 N   0  0  0  0  0  0  0  0  0  0  0  0
    7.8919  -12.7096   19.9027 C   0  0  0  0  0  0  0  0  0  0  0  0
    8.6657  -11.7033   19.7863 N   0  0  0  0  0  0  0  0  0  0  0  0
    8.3807  -13.9249   20.4282 N   0  0  0  0  0  0  0  0  0  0  0  0
    7.7500  -14.4665   21.6244 C   0  0  0  0  0  0  0  0  0  0  0  0
    8.5391  -15.6792   22.0856 C   0  0  0  0  0  0  0  0  0  0  0  0
    8.2848  -16.8701   21.2367 C   0  0  0  0  0  0  0  0  0  0  0  0
    9.4360  -17.7647   20.9373 C   0  0  2  0  0  0  0  0  0  0  0  0
    8.8864  -18.8250   20.0572 N   0  0  0  0  0  0  0  0  0  0  0  0
   10.0313  -18.4552   22.0909 C   0  0  0  0  0  0  0  0  0  0  0  0
    9.8672  -19.7256   22.2474 O   0  0  0  0  0  0  0  0  0  0  0  0
    9.6824  -11.7946   20.0179 N   0  0  0  0  0  0  0  0  0  0  0  0
   10.8086  -17.8383   23.0993 C   0  0  2  0  0  0  0  0  0  0  0  0
   12.1087  -18.3933   23.4980 C   0  0  0  0  0  0  0  0  0  0  0  0
   12.9404  -18.5331   22.2415 C   0  0  0  0  0  0  0  0  0  0  0  0
   13.3885  -19.9205   22.0034 C   0  0  0  0  0  0  0  0  0  0  0  0
   13.1235  -20.9930   22.8131 N   0  0  0  0  0  0  0  0  0  0  0  0
   13.6932  -22.0884   22.2843 C   0  0  0  0  0  0  0  0  0  0  0  0
   14.2998  -21.6867   21.1627 N   0  0  0  0  0  0  0  0  0  0  0  0
   14.1285  -20.3724   20.9707 C   0  0  0  0  0  0  0  0  0  0  0  0
   12.7484  -17.5455   24.5230 O   0  0  0  0  0  0  0  0  0  0  0  0
   12.2721  -16.2787   24.8485 O   0  0  0  0  0  0  0  0  0  0  0  0
  2  3  1  0
  2  1  1  6
  3  4  1  0
  4  5  1  0
  5  6  1  0
  7  6  1  0
  8  9  2  0
  8  2  1  0
 10 11  1  0
 11 12  2  0
 13 11  1  0
 13 14  1  0
 15 14  1  0
 15 16  1  0
 17 16  1  1
 17 19  1  0
 17 18  1  0
 18  8  1  0
 19 20  2  0
 21 22  1  0
 21 19  1  0
 22 23  1  6
 23 24  1  0
 24 25  2  0
 25 26  1  0
 27 26  1  0
 28 24  1  0
 28 27  2  0
 29 30  1  0
 29 22  1  0
 31 29  2  0
M  END
$$$$
