KRH.pdb
     RDKit          3D

 31 31  0  0  1  0  0  0  0  0999 V2000
   13.6581  -17.1258   19.4615 N   0  0  0  0  0  0  0  0  0  0  0  0
   12.2990  -17.3657   19.8482 C   0  0  1  0  0  0  0  0  0  0  0  0
   12.0863  -18.7622   20.3852 C   0  0  0  0  0  0  0  0  0  0  0  0
   13.3866  -19.2761   20.9396 C   0  0  0  0  0  0  0  0  0  0  0  0
   13.2548  -20.7276   21.3641 C   0  0  0  0  0  0  0  0  0  0  0  0
   14.6049  -21.1510   21.9221 C   0  0  0  0  0  0  0  0  0  0  0  0
   14.4845  -22.5097   22.3795 N   0  0  0  0  0  0  0  0  0  0  0  0
   11.8684  -16.4354   20.9433 C   0  0  0  0  0  0  0  0  0  0  0  0
   12.7266  -15.7786   21.5826 O   0  0  0  0  0  0  0  0  0  0  0  0
    8.3127  -14.8728   17.6738 N   0  0  0  0  0  0  0  0  0  0  0  0
    7.7729  -13.8514   18.5104 C   0  0  0  0  0  0  0  0  0  0  0  0
    7.9704  -12.6210   18.2417 N   0  0  0  0  0  0  0  0  0  0  0  0
    7.0150  -14.2185   19.6430 N   0  0  0  0  0  0  0  0  0  0  0  0
    7.1939  -15.5555   20.1932 C   0  0  0  0  0  0  0  0  0  0  0  0
    7.6701  -15.4321   21.6299 C   0  0  0  0  0  0  0  0  0  0  0  0
    8.8918  -14.5971   21.7463 C   0  0  0  0  0  0  0  0  0  0  0  0
   10.1159  -15.2358   22.3023 C   0  0  2  0  0  0  0  0  0  0  0  0
   10.5120  -16.2559   21.3007 N   0  0  0  0  0  0  0  0  0  0  0  0
    9.9460  -15.9528   23.5747 C   0  0  0  0  0  0  0  0  0  0  0  0
   10.2680  -17.1988   23.6701 O   0  0  0  0  0  0  0  0  0  0  0  0
    7.6491  -11.8809   18.9086 N   0  0  0  0  0  0  0  0  0  0  0  0
    9.4415  -15.3871   24.7693 C   0  0  1  0  0  0  0  0  0  0  0  0
   10.0583  -15.6873   26.0680 C   0  0  0  0  0  0  0  0  0  0  0  0
    9.6925  -14.5600   27.0090 C   0  0  0  0  0  0  0  0  0  0  0  0
   10.1804  -14.7827   28.3855 C   0  0  0  0  0  0  0  0  0  0  0  0
   10.8508  -15.8943   28.8228 N   0  0  0  0  0  0  0  0  0  0  0  0
   11.1305  -15.7479   30.1283 C   0  0  0  0  0  0  0  0  0  0  0  0
   10.6349  -14.5580   30.4831 N   0  0  0  0  0  0  0  0  0  0  0  0
   10.0525  -13.9523   29.4402 C   0  0  0  0  0  0  0  0  0  0  0  0
    9.6291  -17.0116   26.5585 O   0  0  0  0  0  0  0  0  0  0  0  0
    8.3733  -17.5420   26.2763 O   0  0  0  0  0  0  0  0  0  0  0  0
  2  3  1  0
  2  1  1  1
  3  4  1  0
  4  5  1  0
  5  6  1  0
  7  6  1  0
  8  9  2  0
  8  2  1  0
 10 11  1  0
 11 12  2  0
 13 11  1  0
 13 14  1  0
 15 14  1  0
 15 16  1  0
 17 16  1  6
 17 19  1  0
 17 18  1  0
 18  8  1  0
 19 20  2  0
 21 22  1  0
 21 19  1  0
 22 23  1  6
 23 24  1  0
 24 25  2  0
 25 26  1  0
 27 26  1  0
 28 24  1  0
 28 27  2  0
 29 30  1  0
 29 22  1  0
 31 29  2  0
M  END
$$$$
