KRH.pdb
     RDKit          3D

 31 31  0  0  1  0  0  0  0  0999 V2000
    9.1622  -19.8965   17.8825 N   0  0  0  0  0  0  0  0  0  0  0  0
    9.6593  -20.2401   19.1821 C   0  0  1  0  0  0  0  0  0  0  0  0
   11.0125  -20.9107   19.1271 C   0  0  0  0  0  0  0  0  0  0  0  0
   10.8542  -22.2830   18.5321 C   0  0  0  0  0  0  0  0  0  0  0  0
   12.1784  -23.0253   18.5310 C   0  0  0  0  0  0  0  0  0  0  0  0
   11.9187  -24.3946   17.9217 C   0  0  0  0  0  0  0  0  0  0  0  0
   13.1524  -25.1338   17.9609 N   0  0  0  0  0  0  0  0  0  0  0  0
    9.8396  -19.0227   20.0395 C   0  0  0  0  0  0  0  0  0  0  0  0
   10.8383  -18.2800   19.8732 O   0  0  0  0  0  0  0  0  0  0  0  0
    6.4089  -11.3720   23.1344 N   0  0  0  0  0  0  0  0  0  0  0  0
    7.3647  -12.1339   22.3993 C   0  0  0  0  0  0  0  0  0  0  0  0
    7.7511  -11.7512   21.2464 N   0  0  0  0  0  0  0  0  0  0  0  0
    7.8801  -13.3203   22.9638 N   0  0  0  0  0  0  0  0  0  0  0  0
    7.9486  -14.5124   22.1293 C   0  0  0  0  0  0  0  0  0  0  0  0
    7.5814  -15.7205   22.9729 C   0  0  0  0  0  0  0  0  0  0  0  0
    7.7271  -16.9934   22.2234 C   0  0  0  0  0  0  0  0  0  0  0  0
    9.1010  -17.4144   21.8355 C   0  0  2  0  0  0  0  0  0  0  0  0
    8.9194  -18.6599   21.0502 N   0  0  0  0  0  0  0  0  0  0  0  0
   10.0063  -17.7548   22.9430 C   0  0  0  0  0  0  0  0  0  0  0  0
    9.8951  -18.8866   23.5529 O   0  0  0  0  0  0  0  0  0  0  0  0
    8.3971  -12.3527   20.6838 N   0  0  0  0  0  0  0  0  0  0  0  0
   11.0433  -16.9267   23.4334 C   0  0  2  0  0  0  0  0  0  0  0  0
   11.8512  -17.3316   24.5912 C   0  0  0  0  0  0  0  0  0  0  0  0
   13.0992  -16.4756   24.5880 C   0  0  0  0  0  0  0  0  0  0  0  0
   13.9693  -16.7371   23.4231 C   0  0  0  0  0  0  0  0  0  0  0  0
   13.7816  -17.7268   22.4951 N   0  0  0  0  0  0  0  0  0  0  0  0
   14.7694  -17.6646   21.5870 C   0  0  0  0  0  0  0  0  0  0  0  0
   15.5517  -16.6462   21.9586 N   0  0  0  0  0  0  0  0  0  0  0  0
   15.0855  -16.0666   23.0724 C   0  0  0  0  0  0  0  0  0  0  0  0
   11.0734  -17.2142   25.8400 O   0  0  0  0  0  0  0  0  0  0  0  0
    9.7659  -16.7369   25.8639 O   0  0  0  0  0  0  0  0  0  0  0  0
  2  3  1  0
  2  1  1  6
  3  4  1  0
  4  5  1  0
  5  6  1  0
  7  6  1  0
  8  9  2  0
  8  2  1  0
 10 11  1  0
 11 12  2  0
 13 11  1  0
 13 14  1  0
 15 14  1  0
 15 16  1  0
 17 16  1  1
 17 19  1  0
 17 18  1  0
 18  8  1  0
 19 20  2  0
 21 22  1  0
 21 19  1  0
 22 23  1  6
 23 24  1  0
 24 25  2  0
 25 26  1  0
 27 26  1  0
 28 24  1  0
 28 27  2  0
 29 30  1  0
 29 22  1  0
 31 29  2  0
M  END
$$$$
