KRH.pdb
     RDKit          3D

 31 31  0  0  1  0  0  0  0  0999 V2000
    6.9699  -16.1710   19.3425 N   0  0  0  0  0  0  0  0  0  0  0  0
    8.0046  -15.4265   19.9976 C   0  0  1  0  0  0  0  0  0  0  0  0
    7.6668  -13.9599   20.1341 C   0  0  0  0  0  0  0  0  0  0  0  0
    7.4467  -13.3794   18.7641 C   0  0  0  0  0  0  0  0  0  0  0  0
    8.5763  -13.7674   17.8271 C   0  0  0  0  0  0  0  0  0  0  0  0
    8.2996  -13.0891   16.4941 C   0  0  0  0  0  0  0  0  0  0  0  0
    9.2323  -13.6137   15.5325 N   0  0  0  0  0  0  0  0  0  0  0  0
    8.2390  -15.9248   21.3928 C   0  0  0  0  0  0  0  0  0  0  0  0
    7.4663  -15.5802   22.3206 O   0  0  0  0  0  0  0  0  0  0  0  0
    8.0817  -22.0137   21.9751 N   0  0  0  0  0  0  0  0  0  0  0  0
    8.4700  -22.5218   23.2501 C   0  0  0  0  0  0  0  0  0  0  0  0
    7.6931  -23.2905   23.9061 N   0  0  0  0  0  0  0  0  0  0  0  0
    9.7282  -22.1632   23.7797 N   0  0  0  0  0  0  0  0  0  0  0  0
   10.4165  -21.0116   23.2122 C   0  0  0  0  0  0  0  0  0  0  0  0
    9.5893  -19.7669   23.4821 C   0  0  0  0  0  0  0  0  0  0  0  0
   10.2578  -18.5332   22.9979 C   0  0  0  0  0  0  0  0  0  0  0  0
    9.5131  -17.2501   23.1185 C   0  0  2  0  0  0  0  0  0  0  0  0
    9.3120  -16.7842   21.7244 N   0  0  0  0  0  0  0  0  0  0  0  0
   10.2135  -16.1632   23.8184 C   0  0  0  0  0  0  0  0  0  0  0  0
   10.6692  -15.1503   23.1613 O   0  0  0  0  0  0  0  0  0  0  0  0
    7.9875  -23.6600   24.8402 N   0  0  0  0  0  0  0  0  0  0  0  0
   10.4498  -16.1090   25.2124 C   0  0  2  0  0  0  0  0  0  0  0  0
    9.8377  -15.0640   26.0434 C   0  0  0  0  0  0  0  0  0  0  0  0
    8.4551  -14.8017   25.4868 C   0  0  0  0  0  0  0  0  0  0  0  0
    7.7435  -13.7254   26.2063 C   0  0  0  0  0  0  0  0  0  0  0  0
    8.2527  -12.9881   27.2423 N   0  0  0  0  0  0  0  0  0  0  0  0
    7.3225  -12.1084   27.6485 C   0  0  0  0  0  0  0  0  0  0  0  0
    6.2563  -12.3081   26.8670 N   0  0  0  0  0  0  0  0  0  0  0  0
    6.4884  -13.2863   25.9822 C   0  0  0  0  0  0  0  0  0  0  0  0
    9.8221  -15.4658   27.4635 O   0  0  0  0  0  0  0  0  0  0  0  0
   10.2443  -14.6188   28.4844 O   0  0  0  0  0  0  0  0  0  0  0  0
  2  3  1  0
  2  1  1  1
  3  4  1  0
  4  5  1  0
  5  6  1  0
  7  6  1  0
  8  9  2  0
  8  2  1  0
 10 11  1  0
 11 12  2  0
 13 11  1  0
 13 14  1  0
 15 14  1  0
 15 16  1  0
 17 16  1  6
 17 19  1  0
 17 18  1  0
 18  8  1  0
 19 20  2  0
 21 22  1  0
 21 19  1  0
 22 23  1  6
 23 24  1  0
 24 25  2  0
 25 26  1  0
 27 26  1  0
 28 24  1  0
 28 27  2  0
 29 30  1  0
 29 22  1  0
 31 29  2  0
M  END
$$$$
