KRH.pdb
     RDKit          3D

 31 31  0  0  1  0  0  0  0  0999 V2000
    9.2757  -21.4499   19.8605 N   0  0  0  0  0  0  0  0  0  0  0  0
   10.5555  -20.8049   19.8434 C   0  0  1  0  0  0  0  0  0  0  0  0
   11.2358  -20.9008   18.4975 C   0  0  0  0  0  0  0  0  0  0  0  0
   10.1868  -20.9196   17.4197 C   0  0  0  0  0  0  0  0  0  0  0  0
    9.3625  -22.1923   17.4928 C   0  0  0  0  0  0  0  0  0  0  0  0
    8.4799  -22.2209   16.2544 C   0  0  0  0  0  0  0  0  0  0  0  0
    7.6257  -23.3746   16.3504 N   0  0  0  0  0  0  0  0  0  0  0  0
   10.4346  -19.3392   20.1381 C   0  0  0  0  0  0  0  0  0  0  0  0
   11.4628  -18.6195   20.1760 O   0  0  0  0  0  0  0  0  0  0  0  0
    8.1961  -12.4003   18.0833 N   0  0  0  0  0  0  0  0  0  0  0  0
    8.3594  -12.1931   19.4851 C   0  0  0  0  0  0  0  0  0  0  0  0
    8.6723  -11.0437   19.9388 N   0  0  0  0  0  0  0  0  0  0  0  0
    8.1700  -13.2780   20.3678 N   0  0  0  0  0  0  0  0  0  0  0  0
    7.5750  -14.5009   19.8457 C   0  0  0  0  0  0  0  0  0  0  0  0
    7.3774  -15.4759   20.9930 C   0  0  0  0  0  0  0  0  0  0  0  0
    7.7367  -16.8659   20.6162 C   0  0  0  0  0  0  0  0  0  0  0  0
    9.1261  -17.3211   20.8951 C   0  0  2  0  0  0  0  0  0  0  0  0
    9.1910  -18.7113   20.3811 N   0  0  0  0  0  0  0  0  0  0  0  0
    9.5085  -17.3885   22.3132 C   0  0  0  0  0  0  0  0  0  0  0  0
    8.6800  -17.8428   23.1921 O   0  0  0  0  0  0  0  0  0  0  0  0
    8.7864  -10.9004   20.9694 N   0  0  0  0  0  0  0  0  0  0  0  0
   10.7584  -16.9877   22.8415 C   0  0  1  0  0  0  0  0  0  0  0  0
   11.1730  -17.3901   24.1918 C   0  0  0  0  0  0  0  0  0  0  0  0
   11.1787  -18.9029   24.2265 C   0  0  0  0  0  0  0  0  0  0  0  0
   11.6625  -19.4439   25.5133 C   0  0  0  0  0  0  0  0  0  0  0  0
   11.9577  -18.7041   26.6276 N   0  0  0  0  0  0  0  0  0  0  0  0
   12.3720  -19.5311   27.6015 C   0  0  0  0  0  0  0  0  0  0  0  0
   12.3297  -20.7635   27.0850 N   0  0  0  0  0  0  0  0  0  0  0  0
   11.9012  -20.7360   25.8164 C   0  0  0  0  0  0  0  0  0  0  0  0
   12.4810  -16.7994   24.5363 O   0  0  0  0  0  0  0  0  0  0  0  0
   12.9549  -16.7442   25.8440 O   0  0  0  0  0  0  0  0  0  0  0  0
  2  3  1  0
  2  1  1  6
  3  4  1  0
  4  5  1  0
  5  6  1  0
  7  6  1  0
  8  9  2  0
  8  2  1  0
 10 11  1  0
 11 12  2  0
 13 11  1  0
 13 14  1  0
 15 14  1  0
 15 16  1  0
 17 16  1  1
 17 19  1  0
 17 18  1  0
 18  8  1  0
 19 20  2  0
 21 22  1  0
 21 19  1  0
 22 23  1  1
 23 24  1  0
 24 25  2  0
 25 26  1  0
 27 26  1  0
 28 24  1  0
 28 27  2  0
 29 30  1  0
 29 22  1  0
 31 29  2  0
M  END
$$$$
