KRH.pdb
     RDKit          3D

 31 31  0  0  1  0  0  0  0  0999 V2000
    9.9842  -19.8836   18.5911 N   0  0  0  0  0  0  0  0  0  0  0  0
   10.8292  -18.7770   18.2513 C   0  0  1  0  0  0  0  0  0  0  0  0
   10.2516  -17.9237   17.1459 C   0  0  0  0  0  0  0  0  0  0  0  0
   10.9467  -18.2596   15.8550 C   0  0  0  0  0  0  0  0  0  0  0  0
   10.2711  -19.4334   15.1693 C   0  0  0  0  0  0  0  0  0  0  0  0
   11.0008  -19.6586   13.8539 C   0  0  0  0  0  0  0  0  0  0  0  0
   10.4725  -20.8568   13.2581 N   0  0  0  0  0  0  0  0  0  0  0  0
   11.0244  -17.8572   19.4199 C   0  0  0  0  0  0  0  0  0  0  0  0
   12.1827  -17.5140   19.7620 O   0  0  0  0  0  0  0  0  0  0  0  0
    8.8897  -13.3274   17.7379 N   0  0  0  0  0  0  0  0  0  0  0  0
    7.5244  -13.0572   18.0502 C   0  0  0  0  0  0  0  0  0  0  0  0
    6.6664  -12.8950   17.1215 N   0  0  0  0  0  0  0  0  0  0  0  0
    7.1320  -12.9711   19.4031 N   0  0  0  0  0  0  0  0  0  0  0  0
    7.2002  -14.1735   20.2226 C   0  0  0  0  0  0  0  0  0  0  0  0
    8.6129  -14.7272   20.1600 C   0  0  0  0  0  0  0  0  0  0  0  0
    8.9441  -15.5551   21.3467 C   0  0  0  0  0  0  0  0  0  0  0  0
   10.1749  -16.3898   21.2861 C   0  0  2  0  0  0  0  0  0  0  0  0
    9.9437  -17.3443   20.1741 N   0  0  0  0  0  0  0  0  0  0  0  0
   10.4583  -17.2055   22.4762 C   0  0  0  0  0  0  0  0  0  0  0  0
    9.7933  -18.2889   22.6987 O   0  0  0  0  0  0  0  0  0  0  0  0
    5.6620  -12.7228   17.3603 N   0  0  0  0  0  0  0  0  0  0  0  0
   11.4384  -16.9110   23.4532 C   0  0  1  0  0  0  0  0  0  0  0  0
   11.5223  -17.6857   24.6981 C   0  0  0  0  0  0  0  0  0  0  0  0
   12.9842  -17.9975   24.9339 C   0  0  0  0  0  0  0  0  0  0  0  0
   13.5180  -18.9923   23.9810 C   0  0  0  0  0  0  0  0  0  0  0  0
   12.8025  -19.6086   22.9889 N   0  0  0  0  0  0  0  0  0  0  0  0
   13.6128  -20.4512   22.3274 C   0  0  0  0  0  0  0  0  0  0  0  0
   14.8111  -20.3491   22.9114 N   0  0  0  0  0  0  0  0  0  0  0  0
   14.7783  -19.4680   23.9195 C   0  0  0  0  0  0  0  0  0  0  0  0
   10.9009  -16.9498   25.8164 O   0  0  0  0  0  0  0  0  0  0  0  0
   10.8049  -17.4815   27.0993 O   0  0  0  0  0  0  0  0  0  0  0  0
  2  3  1  0
  2  1  1  1
  3  4  1  0
  4  5  1  0
  5  6  1  0
  7  6  1  0
  8  9  2  0
  8  2  1  0
 10 11  1  0
 11 12  2  0
 13 11  1  0
 13 14  1  0
 15 14  1  0
 15 16  1  0
 17 16  1  1
 17 19  1  0
 17 18  1  0
 18  8  1  0
 19 20  2  0
 21 22  1  0
 21 19  1  0
 22 23  1  1
 23 24  1  0
 24 25  2  0
 25 26  1  0
 27 26  1  0
 28 24  1  0
 28 27  2  0
 29 30  1  0
 29 22  1  0
 31 29  2  0
M  END
$$$$
