KRH.pdb
     RDKit          3D

 31 31  0  0  1  0  0  0  0  0999 V2000
   12.9704  -16.1297   13.2555 N   0  0  0  0  0  0  0  0  0  0  0  0
   13.8541  -16.9636   14.0156 C   0  0  1  0  0  0  0  0  0  0  0  0
   15.1970  -16.3151   14.2600 C   0  0  0  0  0  0  0  0  0  0  0  0
   15.9516  -16.2489   12.9605 C   0  0  0  0  0  0  0  0  0  0  0  0
   17.3127  -15.6070   13.1603 C   0  0  0  0  0  0  0  0  0  0  0  0
   17.9866  -15.5628   11.7975 C   0  0  0  0  0  0  0  0  0  0  0  0
   19.2406  -14.8742   11.9498 N   0  0  0  0  0  0  0  0  0  0  0  0
   13.2913  -17.2649   15.3730 C   0  0  0  0  0  0  0  0  0  0  0  0
   12.6465  -16.3849   15.9946 O   0  0  0  0  0  0  0  0  0  0  0  0
    9.3888  -23.2252   18.4114 N   0  0  0  0  0  0  0  0  0  0  0  0
    9.9963  -23.2372   19.7019 C   0  0  0  0  0  0  0  0  0  0  0  0
    9.3669  -23.6964   20.7108 N   0  0  0  0  0  0  0  0  0  0  0  0
   11.3064  -22.7337   19.8505 N   0  0  0  0  0  0  0  0  0  0  0  0
   12.0222  -22.3010   18.6579 C   0  0  0  0  0  0  0  0  0  0  0  0
   12.2304  -20.7986   18.7319 C   0  0  0  0  0  0  0  0  0  0  0  0
   12.7693  -20.2438   17.4649 C   0  0  0  0  0  0  0  0  0  0  0  0
   12.9152  -18.7660   17.3637 C   0  0  2  0  0  0  0  0  0  0  0  0
   13.4539  -18.5203   16.0033 N   0  0  0  0  0  0  0  0  0  0  0  0
   13.8653  -18.1477   18.3001 C   0  0  0  0  0  0  0  0  0  0  0  0
   15.1354  -18.2169   18.0825 O   0  0  0  0  0  0  0  0  0  0  0  0
    9.8251  -23.7114   21.6519 N   0  0  0  0  0  0  0  0  0  0  0  0
   13.5120  -17.4454   19.4765 C   0  0  1  0  0  0  0  0  0  0  0  0
   14.5412  -16.9497   20.3995 C   0  0  0  0  0  0  0  0  0  0  0  0
   14.3576  -15.4518   20.5125 C   0  0  0  0  0  0  0  0  0  0  0  0
   14.7973  -14.7286   19.3016 C   0  0  0  0  0  0  0  0  0  0  0  0
   13.9704  -14.1663   18.3656 N   0  0  0  0  0  0  0  0  0  0  0  0
   14.7209  -13.6003   17.4061 C   0  0  0  0  0  0  0  0  0  0  0  0
   15.9934  -13.8161   17.7546 N   0  0  0  0  0  0  0  0  0  0  0  0
   16.0653  -14.5002   18.9037 C   0  0  0  0  0  0  0  0  0  0  0  0
   14.4560  -17.6419   21.7003 O   0  0  0  0  0  0  0  0  0  0  0  0
   13.4704  -18.5835   21.9826 O   0  0  0  0  0  0  0  0  0  0  0  0
  2  3  1  0
  2  1  1  1
  3  4  1  0
  4  5  1  0
  5  6  1  0
  7  6  1  0
  8  9  2  0
  8  2  1  0
 10 11  1  0
 11 12  2  0
 13 11  1  0
 13 14  1  0
 15 14  1  0
 15 16  1  0
 17 16  1  1
 17 19  1  0
 17 18  1  0
 18  8  1  0
 19 20  2  0
 21 22  1  0
 21 19  1  0
 22 23  1  1
 23 24  1  0
 24 25  2  0
 25 26  1  0
 27 26  1  0
 28 24  1  0
 28 27  2  0
 29 30  1  0
 29 22  1  0
 31 29  2  0
M  END
$$$$
