KRH.pdb
     RDKit          3D

 31 31  0  0  1  0  0  0  0  0999 V2000
   10.1368  -12.8854   19.4408 N   0  0  0  0  0  0  0  0  0  0  0  0
    8.8221  -13.1428   19.9500 C   0  0  1  0  0  0  0  0  0  0  0  0
    7.8112  -13.3822   18.8525 C   0  0  0  0  0  0  0  0  0  0  0  0
    8.5031  -14.0268   17.6828 C   0  0  0  0  0  0  0  0  0  0  0  0
    7.5189  -14.3027   16.5604 C   0  0  0  0  0  0  0  0  0  0  0  0
    8.3025  -14.9608   15.4351 C   0  0  0  0  0  0  0  0  0  0  0  0
    7.4022  -15.1595   14.3307 N   0  0  0  0  0  0  0  0  0  0  0  0
    8.7972  -14.3743   20.8060 C   0  0  0  0  0  0  0  0  0  0  0  0
    7.7212  -14.7517   21.3318 O   0  0  0  0  0  0  0  0  0  0  0  0
   12.8407  -19.9809   19.2053 N   0  0  0  0  0  0  0  0  0  0  0  0
   13.4009  -20.4016   20.4477 C   0  0  0  0  0  0  0  0  0  0  0  0
   14.5620  -20.9260   20.4914 N   0  0  0  0  0  0  0  0  0  0  0  0
   12.6536  -20.2304   21.6327 N   0  0  0  0  0  0  0  0  0  0  0  0
   11.3253  -19.6402   21.5354 C   0  0  0  0  0  0  0  0  0  0  0  0
   11.2778  -18.3986   22.4086 C   0  0  0  0  0  0  0  0  0  0  0  0
   11.0523  -17.1639   21.6162 C   0  0  0  0  0  0  0  0  0  0  0  0
    9.9143  -16.2884   22.0086 C   0  0  2  0  0  0  0  0  0  0  0  0
    9.9521  -15.1509   21.0569 N   0  0  0  0  0  0  0  0  0  0  0  0
    9.9886  -15.7013   23.3546 C   0  0  0  0  0  0  0  0  0  0  0  0
   10.1201  -14.4263   23.5045 O   0  0  0  0  0  0  0  0  0  0  0  0
   14.9391  -21.2893   21.3977 N   0  0  0  0  0  0  0  0  0  0  0  0
    9.9250  -16.4282   24.5668 C   0  0  2  0  0  0  0  0  0  0  0  0
    9.2793  -15.8593   25.7570 C   0  0  0  0  0  0  0  0  0  0  0  0
    7.8562  -15.5159   25.3736 C   0  0  0  0  0  0  0  0  0  0  0  0
    7.4656  -14.1524   25.7867 C   0  0  0  0  0  0  0  0  0  0  0  0
    8.2462  -13.2822   26.5005 N   0  0  0  0  0  0  0  0  0  0  0  0
    7.5615  -12.1431   26.6952 C   0  0  0  0  0  0  0  0  0  0  0  0
    6.3745  -12.3180   26.1054 N   0  0  0  0  0  0  0  0  0  0  0  0
    6.2927  -13.5321   25.5460 C   0  0  0  0  0  0  0  0  0  0  0  0
    9.3611  -16.7952   26.8954 O   0  0  0  0  0  0  0  0  0  0  0  0
    9.5522  -18.1635   26.7257 O   0  0  0  0  0  0  0  0  0  0  0  0
  2  3  1  0
  2  1  1  6
  3  4  1  0
  4  5  1  0
  5  6  1  0
  7  6  1  0
  8  9  2  0
  8  2  1  0
 10 11  1  0
 11 12  2  0
 13 11  1  0
 13 14  1  0
 15 14  1  0
 15 16  1  0
 17 16  1  6
 17 19  1  0
 17 18  1  0
 18  8  1  0
 19 20  2  0
 21 22  1  0
 21 19  1  0
 22 23  1  6
 23 24  1  0
 24 25  2  0
 25 26  1  0
 27 26  1  0
 28 24  1  0
 28 27  2  0
 29 30  1  0
 29 22  1  0
 31 29  2  0
M  END
$$$$
