KRH.pdb
     RDKit          3D

 31 31  0  0  1  0  0  0  0  0999 V2000
   11.4736  -19.3701   15.5047 N   0  0  0  0  0  0  0  0  0  0  0  0
   10.5392  -19.5056   16.5830 C   0  0  1  0  0  0  0  0  0  0  0  0
   10.6043  -20.8651   17.2398 C   0  0  0  0  0  0  0  0  0  0  0  0
   12.0311  -21.3411   17.2380 C   0  0  0  0  0  0  0  0  0  0  0  0
   12.2020  -22.5266   16.3054 C   0  0  0  0  0  0  0  0  0  0  0  0
   13.6266  -23.0288   16.4828 C   0  0  0  0  0  0  0  0  0  0  0  0
   13.8053  -24.1597   15.6117 N   0  0  0  0  0  0  0  0  0  0  0  0
   10.8109  -18.5107   17.6721 C   0  0  0  0  0  0  0  0  0  0  0  0
   11.8797  -17.8517   17.6680 O   0  0  0  0  0  0  0  0  0  0  0  0
    8.4856  -12.3506   19.2209 N   0  0  0  0  0  0  0  0  0  0  0  0
    8.0547  -12.2384   20.5759 C   0  0  0  0  0  0  0  0  0  0  0  0
    8.3104  -11.1891   21.2532 N   0  0  0  0  0  0  0  0  0  0  0  0
    7.3393  -13.3050   21.1612 N   0  0  0  0  0  0  0  0  0  0  0  0
    7.3133  -14.5856   20.4672 C   0  0  0  0  0  0  0  0  0  0  0  0
    8.7042  -15.1935   20.5122 C   0  0  0  0  0  0  0  0  0  0  0  0
    8.7748  -16.4872   19.7878 C   0  0  0  0  0  0  0  0  0  0  0  0
   10.1063  -17.1416   19.6688 C   0  0  2  0  0  0  0  0  0  0  0  0
    9.9023  -18.2712   18.7289 N   0  0  0  0  0  0  0  0  0  0  0  0
   10.6482  -17.7269   20.9040 C   0  0  0  0  0  0  0  0  0  0  0  0
   10.4190  -18.9628   21.1962 O   0  0  0  0  0  0  0  0  0  0  0  0
    8.0819  -11.1558   22.2742 N   0  0  0  0  0  0  0  0  0  0  0  0
   11.4390  -17.0392   21.8545 C   0  0  2  0  0  0  0  0  0  0  0  0
   12.0954  -17.7579   22.9544 C   0  0  0  0  0  0  0  0  0  0  0  0
   13.4970  -18.0963   22.4949 C   0  0  0  0  0  0  0  0  0  0  0  0
   13.5763  -19.4065   21.8171 C   0  0  0  0  0  0  0  0  0  0  0  0
   12.7940  -19.8086   20.7671 N   0  0  0  0  0  0  0  0  0  0  0  0
   13.1446  -21.0570   20.4166 C   0  0  0  0  0  0  0  0  0  0  0  0
   14.1314  -21.4121   21.2456 N   0  0  0  0  0  0  0  0  0  0  0  0
   14.4115  -20.4249   22.1062 C   0  0  0  0  0  0  0  0  0  0  0  0
   12.0714  -16.9556   24.1929 O   0  0  0  0  0  0  0  0  0  0  0  0
   12.3779  -17.4953   25.4390 O   0  0  0  0  0  0  0  0  0  0  0  0
  2  3  1  0
  2  1  1  6
  3  4  1  0
  4  5  1  0
  5  6  1  0
  7  6  1  0
  8  9  2  0
  8  2  1  0
 10 11  1  0
 11 12  2  0
 13 11  1  0
 13 14  1  0
 15 14  1  0
 15 16  1  0
 17 16  1  1
 17 19  1  0
 17 18  1  0
 18  8  1  0
 19 20  2  0
 21 22  1  0
 21 19  1  0
 22 23  1  6
 23 24  1  0
 24 25  2  0
 25 26  1  0
 27 26  1  0
 28 24  1  0
 28 27  2  0
 29 30  1  0
 29 22  1  0
 31 29  2  0
M  END
$$$$
