KRH.pdb
     RDKit          3D

 31 31  0  0  1  0  0  0  0  0999 V2000
   10.5080  -18.5852   15.9955 N   0  0  0  0  0  0  0  0  0  0  0  0
    9.8211  -18.2789   17.2156 C   0  0  1  0  0  0  0  0  0  0  0  0
    9.4662  -19.5158   18.0080 C   0  0  0  0  0  0  0  0  0  0  0  0
   10.6580  -20.4328   18.0427 C   0  0  0  0  0  0  0  0  0  0  0  0
   10.3357  -21.7060   18.8039 C   0  0  0  0  0  0  0  0  0  0  0  0
   11.5915  -22.5640   18.7850 C   0  0  0  0  0  0  0  0  0  0  0  0
   11.4328  -23.5520   17.7514 N   0  0  0  0  0  0  0  0  0  0  0  0
   10.6674  -17.4382   18.1249 C   0  0  0  0  0  0  0  0  0  0  0  0
   11.9126  -17.4013   17.9673 O   0  0  0  0  0  0  0  0  0  0  0  0
    7.2122  -14.1720   22.2541 N   0  0  0  0  0  0  0  0  0  0  0  0
    7.1844  -12.9510   21.5173 C   0  0  0  0  0  0  0  0  0  0  0  0
    6.9704  -11.8417   22.1079 N   0  0  0  0  0  0  0  0  0  0  0  0
    7.3973  -12.9838   20.1225 N   0  0  0  0  0  0  0  0  0  0  0  0
    8.7498  -12.7762   19.6226 C   0  0  0  0  0  0  0  0  0  0  0  0
    9.3552  -14.1257   19.2782 C   0  0  0  0  0  0  0  0  0  0  0  0
   10.2720  -14.6161   20.3377 C   0  0  0  0  0  0  0  0  0  0  0  0
   10.9972  -15.8918   20.0889 C   0  0  2  0  0  0  0  0  0  0  0  0
   10.1209  -16.6662   19.1761 N   0  0  0  0  0  0  0  0  0  0  0  0
   11.2214  -16.7444   21.2656 C   0  0  0  0  0  0  0  0  0  0  0  0
   10.2598  -17.4567   21.7486 O   0  0  0  0  0  0  0  0  0  0  0  0
    6.9865  -10.9472   21.5646 N   0  0  0  0  0  0  0  0  0  0  0  0
   12.4483  -16.8733   21.9584 C   0  0  2  0  0  0  0  0  0  0  0  0
   12.5556  -17.7155   23.1568 C   0  0  0  0  0  0  0  0  0  0  0  0
   14.0096  -18.1106   23.2979 C   0  0  0  0  0  0  0  0  0  0  0  0
   14.4495  -19.0568   22.2522 C   0  0  0  0  0  0  0  0  0  0  0  0
   13.6245  -19.7409   21.3992 N   0  0  0  0  0  0  0  0  0  0  0  0
   14.3744  -20.5090   20.5917 C   0  0  0  0  0  0  0  0  0  0  0  0
   15.6445  -20.2947   20.9497 N   0  0  0  0  0  0  0  0  0  0  0  0
   15.7155  -19.4154   21.9574 C   0  0  0  0  0  0  0  0  0  0  0  0
   12.0310  -17.0097   24.3421 O   0  0  0  0  0  0  0  0  0  0  0  0
   11.5896  -15.6904   24.2917 O   0  0  0  0  0  0  0  0  0  0  0  0
  2  3  1  0
  2  1  1  6
  3  4  1  0
  4  5  1  0
  5  6  1  0
  7  6  1  0
  8  9  2  0
  8  2  1  0
 10 11  1  0
 11 12  2  0
 13 11  1  0
 13 14  1  0
 15 14  1  0
 15 16  1  0
 17 16  1  1
 17 19  1  0
 17 18  1  0
 18  8  1  0
 19 20  2  0
 21 22  1  0
 21 19  1  0
 22 23  1  6
 23 24  1  0
 24 25  2  0
 25 26  1  0
 27 26  1  0
 28 24  1  0
 28 27  2  0
 29 30  1  0
 29 22  1  0
 31 29  2  0
M  END
$$$$
