KRH.pdb
     RDKit          3D

 31 31  0  0  1  0  0  0  0  0999 V2000
    6.9196  -17.0739   17.9254 N   0  0  0  0  0  0  0  0  0  0  0  0
    8.0463  -16.3194   18.3897 C   0  0  1  0  0  0  0  0  0  0  0  0
    7.8516  -15.7885   19.7911 C   0  0  0  0  0  0  0  0  0  0  0  0
    7.1822  -14.4437   19.7158 C   0  0  0  0  0  0  0  0  0  0  0  0
    8.2112  -13.3376   19.5676 C   0  0  0  0  0  0  0  0  0  0  0  0
    7.4425  -12.0403   19.3689 C   0  0  0  0  0  0  0  0  0  0  0  0
    8.3967  -11.0054   19.0716 N   0  0  0  0  0  0  0  0  0  0  0  0
    9.2869  -17.1610   18.4387 C   0  0  0  0  0  0  0  0  0  0  0  0
    9.2176  -18.3609   18.8020 O   0  0  0  0  0  0  0  0  0  0  0  0
   14.9068  -19.3126   13.2951 N   0  0  0  0  0  0  0  0  0  0  0  0
   15.7402  -19.5271   14.4326 C   0  0  0  0  0  0  0  0  0  0  0  0
   16.7457  -20.3075   14.3622 N   0  0  0  0  0  0  0  0  0  0  0  0
   15.4390  -18.8636   15.6413 N   0  0  0  0  0  0  0  0  0  0  0  0
   14.1305  -18.2390   15.7819 C   0  0  0  0  0  0  0  0  0  0  0  0
   14.0941  -17.4720   17.0921 C   0  0  0  0  0  0  0  0  0  0  0  0
   12.7880  -16.8024   17.3140 C   0  0  0  0  0  0  0  0  0  0  0  0
   11.7552  -17.5409   18.0907 C   0  0  2  0  0  0  0  0  0  0  0  0
   10.5618  -16.6595   18.0878 N   0  0  0  0  0  0  0  0  0  0  0  0
   12.0736  -17.7974   19.5031 C   0  0  0  0  0  0  0  0  0  0  0  0
   12.1183  -16.8243   20.3495 O   0  0  0  0  0  0  0  0  0  0  0  0
   17.2643  -20.5737   15.2316 N   0  0  0  0  0  0  0  0  0  0  0  0
   12.3483  -19.0687   20.0600 C   0  0  2  0  0  0  0  0  0  0  0  0
   12.7723  -19.2059   21.4594 C   0  0  0  0  0  0  0  0  0  0  0  0
   12.8173  -20.6862   21.7707 C   0  0  0  0  0  0  0  0  0  0  0  0
   13.1452  -20.9639   23.1841 C   0  0  0  0  0  0  0  0  0  0  0  0
   13.3609  -20.0191   24.1521 N   0  0  0  0  0  0  0  0  0  0  0  0
   13.6382  -20.6391   25.3110 C   0  0  0  0  0  0  0  0  0  0  0  0
   13.5918  -21.9497   25.0512 N   0  0  0  0  0  0  0  0  0  0  0  0
   13.2938  -22.1720   23.7645 C   0  0  0  0  0  0  0  0  0  0  0  0
   14.0643  -18.5287   21.6845 O   0  0  0  0  0  0  0  0  0  0  0  0
   15.1493  -18.6849   20.8265 O   0  0  0  0  0  0  0  0  0  0  0  0
  2  3  1  0
  2  1  1  1
  3  4  1  0
  4  5  1  0
  5  6  1  0
  7  6  1  0
  8  9  2  0
  8  2  1  0
 10 11  1  0
 11 12  2  0
 13 11  1  0
 13 14  1  0
 15 14  1  0
 15 16  1  0
 17 16  1  1
 17 19  1  0
 17 18  1  0
 18  8  1  0
 19 20  2  0
 21 22  1  0
 21 19  1  0
 22 23  1  6
 23 24  1  0
 24 25  2  0
 25 26  1  0
 27 26  1  0
 28 24  1  0
 28 27  2  0
 29 30  1  0
 29 22  1  0
 31 29  2  0
M  END
$$$$
