KRH.pdb
     RDKit          3D

 31 31  0  0  1  0  0  0  0  0999 V2000
    8.5201  -15.9206   17.3773 N   0  0  0  0  0  0  0  0  0  0  0  0
    9.1819  -15.2014   18.4256 C   0  0  1  0  0  0  0  0  0  0  0  0
    8.5516  -13.8541   18.6926 C   0  0  0  0  0  0  0  0  0  0  0  0
    7.5757  -13.5440   17.5908 C   0  0  0  0  0  0  0  0  0  0  0  0
    8.2551  -13.6120   16.2350 C   0  0  0  0  0  0  0  0  0  0  0  0
    7.1944  -13.2978   15.1911 C   0  0  0  0  0  0  0  0  0  0  0  0
    7.7962  -13.4512   13.8934 N   0  0  0  0  0  0  0  0  0  0  0  0
    9.1207  -15.9474   19.7254 C   0  0  0  0  0  0  0  0  0  0  0  0
    8.0940  -16.6059   20.0235 O   0  0  0  0  0  0  0  0  0  0  0  0
   12.9396  -19.8238   18.7300 N   0  0  0  0  0  0  0  0  0  0  0  0
   13.0191  -20.9564   19.5934 C   0  0  0  0  0  0  0  0  0  0  0  0
   12.8113  -22.1309   19.1435 N   0  0  0  0  0  0  0  0  0  0  0  0
   13.3315  -20.7624   20.9560 N   0  0  0  0  0  0  0  0  0  0  0  0
   13.4830  -19.3986   21.4451 C   0  0  0  0  0  0  0  0  0  0  0  0
   12.1322  -18.9005   21.9283 C   0  0  0  0  0  0  0  0  0  0  0  0
   11.6793  -17.6978   21.1856 C   0  0  0  0  0  0  0  0  0  0  0  0
   10.3850  -17.0828   21.5882 C   0  0  2  0  0  0  0  0  0  0  0  0
   10.1866  -15.9470   20.6547 N   0  0  0  0  0  0  0  0  0  0  0  0
   10.3367  -16.5147   22.9434 C   0  0  0  0  0  0  0  0  0  0  0  0
   11.1737  -15.5987   23.2977 O   0  0  0  0  0  0  0  0  0  0  0  0
   12.9329  -22.9609   19.7696 N   0  0  0  0  0  0  0  0  0  0  0  0
    9.4169  -16.8867   23.9521 C   0  0  2  0  0  0  0  0  0  0  0  0
    9.5678  -16.4012   25.3300 C   0  0  0  0  0  0  0  0  0  0  0  0
    8.1764  -16.1704   25.8785 C   0  0  0  0  0  0  0  0  0  0  0  0
    7.5793  -14.9032   25.4093 C   0  0  0  0  0  0  0  0  0  0  0  0
    8.2038  -13.9718   24.6227 N   0  0  0  0  0  0  0  0  0  0  0  0
    7.3586  -12.9513   24.4027 C   0  0  0  0  0  0  0  0  0  0  0  0
    6.2295  -13.2584   25.0494 N   0  0  0  0  0  0  0  0  0  0  0  0
    6.3396  -14.4406   25.6689 C   0  0  0  0  0  0  0  0  0  0  0  0
   10.3567  -17.3521   26.1374 O   0  0  0  0  0  0  0  0  0  0  0  0
   10.7691  -17.0672   27.4360 O   0  0  0  0  0  0  0  0  0  0  0  0
  2  3  1  0
  2  1  1  6
  3  4  1  0
  4  5  1  0
  5  6  1  0
  7  6  1  0
  8  9  2  0
  8  2  1  0
 10 11  1  0
 11 12  2  0
 13 11  1  0
 13 14  1  0
 15 14  1  0
 15 16  1  0
 17 16  1  6
 17 19  1  0
 17 18  1  0
 18  8  1  0
 19 20  2  0
 21 22  1  0
 21 19  1  0
 22 23  1  6
 23 24  1  0
 24 25  2  0
 25 26  1  0
 27 26  1  0
 28 24  1  0
 28 27  2  0
 29 30  1  0
 29 22  1  0
 31 29  2  0
M  END
$$$$
