WAG.pdb
     RDKit          3D

 24 25  0  0  1  0  0  0  0  0999 V2000
   27.8406  -19.7574   -9.5437 N   0  0  0  0  0  0  0  0  0  0  0  0
   26.7779  -20.7283   -9.5602 C   0  0  1  0  0  0  0  0  0  0  0  0
   26.1234  -20.6774   -8.1811 C   0  0  0  0  0  0  0  0  0  0  0  0
   27.0327  -19.8572   -7.3389 C   0  0  0  0  0  0  0  0  0  0  0  0
   27.3223  -18.5382   -7.4936 C   0  0  0  0  0  0  0  0  0  0  0  0
   28.1861  -18.1080   -6.5587 N   0  0  0  0  0  0  0  0  0  0  0  0
   28.4753  -19.1567   -5.7704 C   0  0  0  0  0  0  0  0  0  0  0  0
   29.2736  -19.3375   -4.6760 C   0  0  0  0  0  0  0  0  0  0  0  0
   29.3704  -20.5641   -4.0634 C   0  0  0  0  0  0  0  0  0  0  0  0
   28.6760  -21.6416   -4.5233 C   0  0  0  0  0  0  0  0  0  0  0  0
   27.8602  -21.5015   -5.6239 C   0  0  0  0  0  0  0  0  0  0  0  0
   27.7702  -20.2719   -6.2290 C   0  0  0  0  0  0  0  0  0  0  0  0
   25.8260  -20.5071  -10.6582 C   0  0  0  0  0  0  0  0  0  0  0  0
   25.2322  -19.4018  -10.7310 O   0  0  0  0  0  0  0  0  0  0  0  0
   25.0231  -22.4138  -13.7132 C   0  0  0  0  0  0  0  0  0  0  0  0
   24.7252  -21.3092  -12.7345 C   0  0  2  0  0  0  0  0  0  0  0  0
   25.5915  -21.5112  -11.5982 N   0  0  0  0  0  0  0  0  0  0  0  0
   23.3415  -21.2702  -12.2780 C   0  0  0  0  0  0  0  0  0  0  0  0
   23.0263  -21.8921  -11.2306 O   0  0  0  0  0  0  0  0  0  0  0  0
   22.3192  -20.5536  -12.9689 N   0  0  0  0  0  0  0  0  0  0  0  0
   20.9514  -20.6751  -12.4941 C   0  0  0  0  0  0  0  0  0  0  0  0
   20.3055  -21.8930  -13.0206 C   0  0  0  0  0  0  0  0  0  0  0  0
   18.9445  -22.1401  -12.8321 O   0  0  0  0  0  0  0  0  0  0  0  0
   21.0178  -22.7136  -13.6509 O   0  0  0  0  0  0  0  0  0  0  0  0
  2  1  1  1
  2 13  1  0
  3  2  1  0
  4 12  1  0
  4  3  1  0
  5  4  2  0
  6  5  1  0
  6  7  1  0
  7 12  2  0
  8  7  1  0
  8  9  2  0
  9 10  1  0
 10 11  2  0
 12 11  1  0
 13 14  2  0
 16 15  1  6
 16 18  1  0
 17 13  1  0
 17 16  1  0
 18 19  2  0
 20 18  1  0
 20 21  1  0
 22 21  1  0
 22 23  1  0
 24 22  2  0
M  END
$$$$
