WAG.pdb
     RDKit          3D

 24 25  0  0  1  0  0  0  0  0999 V2000
   28.3647  -21.2944  -10.4597 N   0  0  0  0  0  0  0  0  0  0  0  0
   27.0014  -21.0206  -10.0875 C   0  0  1  0  0  0  0  0  0  0  0  0
   27.0463  -19.8456   -9.1127 C   0  0  0  0  0  0  0  0  0  0  0  0
   28.0949  -20.1931   -8.1185 C   0  0  0  0  0  0  0  0  0  0  0  0
   29.2200  -20.9232   -8.3385 C   0  0  0  0  0  0  0  0  0  0  0  0
   29.9533  -21.0519   -7.2200 N   0  0  0  0  0  0  0  0  0  0  0  0
   29.3061  -20.3975   -6.2414 C   0  0  0  0  0  0  0  0  0  0  0  0
   29.5507  -20.1782   -4.9148 C   0  0  0  0  0  0  0  0  0  0  0  0
   28.6786  -19.4472   -4.1439 C   0  0  0  0  0  0  0  0  0  0  0  0
   27.5415  -18.9158   -4.6725 C   0  0  0  0  0  0  0  0  0  0  0  0
   27.2580  -19.1138   -6.0055 C   0  0  0  0  0  0  0  0  0  0  0  0
   28.1356  -19.8455   -6.7674 C   0  0  0  0  0  0  0  0  0  0  0  0
   26.1363  -20.7723  -11.2497 C   0  0  0  0  0  0  0  0  0  0  0  0
   26.5307  -19.9763  -12.1387 O   0  0  0  0  0  0  0  0  0  0  0  0
   23.6642  -22.5117  -13.0509 C   0  0  0  0  0  0  0  0  0  0  0  0
   24.0053  -21.1692  -12.4610 C   0  0  2  0  0  0  0  0  0  0  0  0
   24.9011  -21.4125  -11.3561 N   0  0  0  0  0  0  0  0  0  0  0  0
   22.8534  -20.4144  -11.9834 C   0  0  0  0  0  0  0  0  0  0  0  0
   22.5252  -20.5027  -10.7719 O   0  0  0  0  0  0  0  0  0  0  0  0
   22.0742  -19.5731  -12.8325 N   0  0  0  0  0  0  0  0  0  0  0  0
   20.9168  -18.9030  -12.2643 C   0  0  0  0  0  0  0  0  0  0  0  0
   19.7282  -19.7775  -12.2791 C   0  0  0  0  0  0  0  0  0  0  0  0
   18.4880  -19.3355  -11.8145 O   0  0  0  0  0  0  0  0  0  0  0  0
   19.8591  -20.9445  -12.7252 O   0  0  0  0  0  0  0  0  0  0  0  0
  2  1  1  6
  2 13  1  0
  3  2  1  0
  4 12  1  0
  4  3  1  0
  5  4  2  0
  6  5  1  0
  6  7  1  0
  7 12  2  0
  8  7  1  0
  8  9  2  0
  9 10  1  0
 10 11  2  0
 12 11  1  0
 13 14  2  0
 16 15  1  1
 16 18  1  0
 17 13  1  0
 17 16  1  0
 18 19  2  0
 20 18  1  0
 20 21  1  0
 22 21  1  0
 22 23  1  0
 24 22  2  0
M  END
$$$$
