WAG.pdb
     RDKit          3D

 24 25  0  0  1  0  0  0  0  0999 V2000
   25.0828  -19.9390  -11.5476 N   0  0  0  0  0  0  0  0  0  0  0  0
   26.2850  -20.6958  -11.7801 C   0  0  1  0  0  0  0  0  0  0  0  0
   26.2868  -21.8309  -10.7581 C   0  0  0  0  0  0  0  0  0  0  0  0
   26.3343  -21.1690   -9.4282 C   0  0  0  0  0  0  0  0  0  0  0  0
   25.2752  -20.7699   -8.6755 C   0  0  0  0  0  0  0  0  0  0  0  0
   25.6721  -20.2020   -7.5243 N   0  0  0  0  0  0  0  0  0  0  0  0
   27.0153  -20.2237   -7.5112 C   0  0  0  0  0  0  0  0  0  0  0  0
   27.9689  -19.8016   -6.6280 C   0  0  0  0  0  0  0  0  0  0  0  0
   29.3069  -19.9645   -6.8972 C   0  0  0  0  0  0  0  0  0  0  0  0
   29.7304  -20.5511   -8.0510 C   0  0  0  0  0  0  0  0  0  0  0  0
   28.8012  -20.9904   -8.9675 C   0  0  0  0  0  0  0  0  0  0  0  0
   27.4667  -20.8232   -8.6895 C   0  0  0  0  0  0  0  0  0  0  0  0
   26.3965  -21.1693  -13.1672 C   0  0  0  0  0  0  0  0  0  0  0  0
   27.3123  -21.9792  -13.4585 O   0  0  0  0  0  0  0  0  0  0  0  0
   24.3217  -20.8093  -16.1909 C   0  0  0  0  0  0  0  0  0  0  0  0
   25.6553  -21.0471  -15.5340 C   0  0  2  0  0  0  0  0  0  0  0  0
   25.4979  -20.7227  -14.1367 N   0  0  0  0  0  0  0  0  0  0  0  0
   26.7458  -20.2541  -16.0876 C   0  0  0  0  0  0  0  0  0  0  0  0
   26.9084  -19.0735  -15.6839 O   0  0  0  0  0  0  0  0  0  0  0  0
   27.6453  -20.7582  -17.0740 N   0  0  0  0  0  0  0  0  0  0  0  0
   28.7542  -19.9164  -17.4897 C   0  0  0  0  0  0  0  0  0  0  0  0
   28.4623  -19.2336  -18.7651 C   0  0  0  0  0  0  0  0  0  0  0  0
   29.4821  -18.7512  -19.5876 O   0  0  0  0  0  0  0  0  0  0  0  0
   27.2592  -19.0944  -19.0985 O   0  0  0  0  0  0  0  0  0  0  0  0
  2  1  1  6
  2 13  1  0
  3  2  1  0
  4 12  1  0
  4  3  1  0
  5  4  2  0
  6  5  1  0
  6  7  1  0
  7 12  2  0
  8  7  1  0
  8  9  2  0
  9 10  1  0
 10 11  2  0
 12 11  1  0
 13 14  2  0
 16 15  1  6
 16 18  1  0
 17 13  1  0
 17 16  1  0
 18 19  2  0
 20 18  1  0
 20 21  1  0
 22 21  1  0
 22 23  1  0
 24 22  2  0
M  END
$$$$
