WAG.pdb
     RDKit          3D

 24 25  0  0  1  0  0  0  0  0999 V2000
   27.1450  -22.4836  -12.8136 N   0  0  0  0  0  0  0  0  0  0  0  0
   26.2176  -21.4941  -12.3310 C   0  0  1  0  0  0  0  0  0  0  0  0
   27.0224  -20.2135  -12.1185 C   0  0  0  0  0  0  0  0  0  0  0  0
   27.8688  -20.4688  -10.9239 C   0  0  0  0  0  0  0  0  0  0  0  0
   29.1793  -20.8293  -10.9125 C   0  0  0  0  0  0  0  0  0  0  0  0
   29.6398  -20.9825   -9.6596 N   0  0  0  0  0  0  0  0  0  0  0  0
   28.6201  -20.7200   -8.8251 C   0  0  0  0  0  0  0  0  0  0  0  0
   28.4764  -20.7094   -7.4661 C   0  0  0  0  0  0  0  0  0  0  0  0
   27.2734  -20.3911   -6.8824 C   0  0  0  0  0  0  0  0  0  0  0  0
   26.1832  -20.0754   -7.6351 C   0  0  0  0  0  0  0  0  0  0  0  0
   26.2861  -20.0744   -9.0084 C   0  0  0  0  0  0  0  0  0  0  0  0
   27.4923  -20.3938   -9.5821 C   0  0  0  0  0  0  0  0  0  0  0  0
   25.0683  -21.3100  -13.2288 C   0  0  0  0  0  0  0  0  0  0  0  0
   25.2794  -20.9704  -14.4203 O   0  0  0  0  0  0  0  0  0  0  0  0
   21.7695  -22.5954  -13.4156 C   0  0  0  0  0  0  0  0  0  0  0  0
   22.6156  -21.3657  -13.6125 C   0  0  2  0  0  0  0  0  0  0  0  0
   23.7700  -21.5104  -12.7587 N   0  0  0  0  0  0  0  0  0  0  0  0
   21.9391  -20.1152  -13.2917 C   0  0  0  0  0  0  0  0  0  0  0  0
   21.9686  -19.6914  -12.1074 O   0  0  0  0  0  0  0  0  0  0  0  0
   21.2393  -19.3425  -14.2660 N   0  0  0  0  0  0  0  0  0  0  0  0
   20.5815  -18.1211  -13.8340 C   0  0  0  0  0  0  0  0  0  0  0  0
   19.3144  -18.4110  -13.1354 C   0  0  0  0  0  0  0  0  0  0  0  0
   18.3461  -19.2485  -13.6922 O   0  0  0  0  0  0  0  0  0  0  0  0
   19.1241  -17.8799  -12.0130 O   0  0  0  0  0  0  0  0  0  0  0  0
  2  1  1  6
  2 13  1  0
  3  2  1  0
  4 12  1  0
  4  3  1  0
  5  4  2  0
  6  5  1  0
  6  7  1  0
  7 12  2  0
  8  7  1  0
  8  9  2  0
  9 10  1  0
 10 11  2  0
 12 11  1  0
 13 14  2  0
 16 15  1  1
 16 18  1  0
 17 13  1  0
 17 16  1  0
 18 19  2  0
 20 18  1  0
 20 21  1  0
 22 21  1  0
 22 23  1  0
 24 22  2  0
M  END
$$$$
