WAG.pdb
     RDKit          3D

 24 25  0  0  1  0  0  0  0  0999 V2000
   25.9249  -21.5091   -9.5970 N   0  0  0  0  0  0  0  0  0  0  0  0
   26.9066  -20.5398  -10.0080 C   0  0  1  0  0  0  0  0  0  0  0  0
   28.1397  -20.7768   -9.1383 C   0  0  0  0  0  0  0  0  0  0  0  0
   27.7871  -20.2477   -7.7950 C   0  0  0  0  0  0  0  0  0  0  0  0
   26.6869  -19.5206   -7.4659 C   0  0  0  0  0  0  0  0  0  0  0  0
   26.6776  -19.1998   -6.1611 N   0  0  0  0  0  0  0  0  0  0  0  0
   27.7884  -19.7214   -5.6144 C   0  0  0  0  0  0  0  0  0  0  0  0
   28.3201  -19.7299   -4.3554 C   0  0  0  0  0  0  0  0  0  0  0  0
   29.5095  -20.3662   -4.0919 C   0  0  0  0  0  0  0  0  0  0  0  0
   30.2003  -21.0100   -5.0733 C   0  0  0  0  0  0  0  0  0  0  0  0
   29.6987  -21.0249   -6.3558 C   0  0  0  0  0  0  0  0  0  0  0  0
   28.5095  -20.3863   -6.6090 C   0  0  0  0  0  0  0  0  0  0  0  0
   27.1962  -20.6028  -11.4477 C   0  0  0  0  0  0  0  0  0  0  0  0
   28.3264  -20.2329  -11.8545 O   0  0  0  0  0  0  0  0  0  0  0  0
   26.5754  -21.7481  -14.5814 C   0  0  0  0  0  0  0  0  0  0  0  0
   26.1577  -20.5987  -13.7032 C   0  0  2  0  0  0  0  0  0  0  0  0
   26.2284  -21.0660  -12.3398 N   0  0  0  0  0  0  0  0  0  0  0  0
   24.8136  -20.1006  -13.9673 C   0  0  0  0  0  0  0  0  0  0  0  0
   24.5342  -19.6783  -15.1192 O   0  0  0  0  0  0  0  0  0  0  0  0
   23.7912  -20.0693  -12.9724 N   0  0  0  0  0  0  0  0  0  0  0  0
   22.4683  -19.6084  -13.3582 C   0  0  0  0  0  0  0  0  0  0  0  0
   21.6484  -20.7131  -13.8921 C   0  0  0  0  0  0  0  0  0  0  0  0
   22.2296  -21.8431  -14.4705 O   0  0  0  0  0  0  0  0  0  0  0  0
   20.3987  -20.6125  -13.8133 O   0  0  0  0  0  0  0  0  0  0  0  0
  2  1  1  1
  2 13  1  0
  3  2  1  0
  4 12  1  0
  4  3  1  0
  5  4  2  0
  6  5  1  0
  6  7  1  0
  7 12  2  0
  8  7  1  0
  8  9  2  0
  9 10  1  0
 10 11  2  0
 12 11  1  0
 13 14  2  0
 16 15  1  6
 16 18  1  0
 17 13  1  0
 17 16  1  0
 18 19  2  0
 20 18  1  0
 20 21  1  0
 22 21  1  0
 22 23  1  0
 24 22  2  0
M  END
$$$$
