WAG.pdb
     RDKit          3D

 24 25  0  0  1  0  0  0  0  0999 V2000
   25.4088  -19.2187  -11.3312 N   0  0  0  0  0  0  0  0  0  0  0  0
   25.7010  -20.4672  -11.9855 C   0  0  1  0  0  0  0  0  0  0  0  0
   25.6328  -21.5473  -10.9077 C   0  0  0  0  0  0  0  0  0  0  0  0
   26.4188  -21.0175   -9.7630 C   0  0  0  0  0  0  0  0  0  0  0  0
   25.9326  -20.4037   -8.6520 C   0  0  0  0  0  0  0  0  0  0  0  0
   26.9187  -20.0450   -7.8129 N   0  0  0  0  0  0  0  0  0  0  0  0
   28.0782  -20.4261   -8.3742 C   0  0  0  0  0  0  0  0  0  0  0  0
   29.3917  -20.3377   -8.0073 C   0  0  0  0  0  0  0  0  0  0  0  0
   30.3885  -20.8332   -8.8136 C   0  0  0  0  0  0  0  0  0  0  0  0
   30.1045  -21.4290  -10.0049 C   0  0  0  0  0  0  0  0  0  0  0  0
   28.7932  -21.5381  -10.4114 C   0  0  0  0  0  0  0  0  0  0  0  0
   27.8045  -21.0400   -9.5988 C   0  0  0  0  0  0  0  0  0  0  0  0
   24.8095  -20.7320  -13.1238 C   0  0  0  0  0  0  0  0  0  0  0  0
   23.6260  -20.3117  -13.0762 O   0  0  0  0  0  0  0  0  0  0  0  0
   25.4077  -22.0638  -16.5137 C   0  0  0  0  0  0  0  0  0  0  0  0
   24.4750  -21.6171  -15.4196 C   0  0  2  0  0  0  0  0  0  0  0  0
   25.2765  -21.4380  -14.2330 N   0  0  0  0  0  0  0  0  0  0  0  0
   23.3979  -22.5556  -15.1302 C   0  0  0  0  0  0  0  0  0  0  0  0
   23.6064  -23.4923  -14.3165 O   0  0  0  0  0  0  0  0  0  0  0  0
   22.1074  -22.4608  -15.7315 N   0  0  0  0  0  0  0  0  0  0  0  0
   21.1344  -23.5005  -15.4421 C   0  0  0  0  0  0  0  0  0  0  0  0
   20.1187  -23.0334  -14.4789 C   0  0  0  0  0  0  0  0  0  0  0  0
   18.8644  -23.6392  -14.3858 O   0  0  0  0  0  0  0  0  0  0  0  0
   20.4122  -22.0651  -13.7343 O   0  0  0  0  0  0  0  0  0  0  0  0
  2  1  1  1
  2 13  1  0
  3  2  1  0
  4 12  1  0
  4  3  1  0
  5  4  2  0
  6  5  1  0
  6  7  1  0
  7 12  2  0
  8  7  1  0
  8  9  2  0
  9 10  1  0
 10 11  2  0
 12 11  1  0
 13 14  2  0
 16 15  1  6
 16 18  1  0
 17 13  1  0
 17 16  1  0
 18 19  2  0
 20 18  1  0
 20 21  1  0
 22 21  1  0
 22 23  1  0
 24 22  2  0
M  END
$$$$
