WAG.pdb
     RDKit          3D

 24 25  0  0  1  0  0  0  0  0999 V2000
   24.1433  -19.7570  -11.7571 N   0  0  0  0  0  0  0  0  0  0  0  0
   25.5058  -20.1708  -11.9684 C   0  0  1  0  0  0  0  0  0  0  0  0
   25.6819  -21.4849  -11.2102 C   0  0  0  0  0  0  0  0  0  0  0  0
   25.8439  -21.1025   -9.7832 C   0  0  0  0  0  0  0  0  0  0  0  0
   24.8538  -20.8422   -8.8892 C   0  0  0  0  0  0  0  0  0  0  0  0
   25.3485  -20.5225   -7.6816 N   0  0  0  0  0  0  0  0  0  0  0  0
   26.6879  -20.5708   -7.7739 C   0  0  0  0  0  0  0  0  0  0  0  0
   27.7143  -20.3507   -6.8988 C   0  0  0  0  0  0  0  0  0  0  0  0
   29.0241  -20.4809   -7.2944 C   0  0  0  0  0  0  0  0  0  0  0  0
   29.3464  -20.8333   -8.5699 C   0  0  0  0  0  0  0  0  0  0  0  0
   28.3415  -21.0642   -9.4827 C   0  0  0  0  0  0  0  0  0  0  0  0
   27.0360  -20.9315   -9.0778 C   0  0  0  0  0  0  0  0  0  0  0  0
   25.8505  -20.2772  -13.3935 C   0  0  0  0  0  0  0  0  0  0  0  0
   25.0390  -20.8382  -14.1721 O   0  0  0  0  0  0  0  0  0  0  0  0
   28.4701  -18.7879  -15.4983 C   0  0  0  0  0  0  0  0  0  0  0  0
   27.4441  -19.8617  -15.2519 C   0  0  2  0  0  0  0  0  0  0  0  0
   27.0586  -19.7624  -13.8648 N   0  0  0  0  0  0  0  0  0  0  0  0
   27.9163  -21.2144  -15.5197 C   0  0  0  0  0  0  0  0  0  0  0  0
   28.5624  -21.8233  -14.6282 O   0  0  0  0  0  0  0  0  0  0  0  0
   27.6779  -21.8861  -16.7559 N   0  0  0  0  0  0  0  0  0  0  0  0
   28.3008  -23.1817  -16.9674 C   0  0  0  0  0  0  0  0  0  0  0  0
   29.5637  -23.0547  -17.7201 C   0  0  0  0  0  0  0  0  0  0  0  0
   30.1117  -24.1324  -18.4182 O   0  0  0  0  0  0  0  0  0  0  0  0
   30.1425  -21.9398  -17.7186 O   0  0  0  0  0  0  0  0  0  0  0  0
  2  1  1  6
  2 13  1  0
  3  2  1  0
  4 12  1  0
  4  3  1  0
  5  4  2  0
  6  5  1  0
  6  7  1  0
  7 12  2  0
  8  7  1  0
  8  9  2  0
  9 10  1  0
 10 11  2  0
 12 11  1  0
 13 14  2  0
 16 15  1  1
 16 18  1  0
 17 13  1  0
 17 16  1  0
 18 19  2  0
 20 18  1  0
 20 21  1  0
 22 21  1  0
 22 23  1  0
 24 22  2  0
M  END
$$$$
