WAG.pdb
     RDKit          3D

 24 25  0  0  1  0  0  0  0  0999 V2000
   24.1901  -20.6652  -11.3712 N   0  0  0  0  0  0  0  0  0  0  0  0
   25.5989  -20.4802  -11.6020 C   0  0  1  0  0  0  0  0  0  0  0  0
   26.3189  -21.5118  -10.7358 C   0  0  0  0  0  0  0  0  0  0  0  0
   26.4251  -20.8950   -9.3878 C   0  0  0  0  0  0  0  0  0  0  0  0
   25.4036  -20.4484   -8.6104 C   0  0  0  0  0  0  0  0  0  0  0  0
   25.8501  -19.9434   -7.4481 N   0  0  0  0  0  0  0  0  0  0  0  0
   27.1888  -20.0560   -7.4526 C   0  0  0  0  0  0  0  0  0  0  0  0
   28.1781  -19.7259   -6.5694 C   0  0  0  0  0  0  0  0  0  0  0  0
   29.4991  -19.9703   -6.8600 C   0  0  0  0  0  0  0  0  0  0  0  0
   29.8697  -20.5491   -8.0358 C   0  0  0  0  0  0  0  0  0  0  0  0
   28.9032  -20.8970   -8.9531 C   0  0  0  0  0  0  0  0  0  0  0  0
   27.5861  -20.6487   -8.6535 C   0  0  0  0  0  0  0  0  0  0  0  0
   25.9563  -20.5725  -13.0249 C   0  0  0  0  0  0  0  0  0  0  0  0
   25.3439  -21.3958  -13.7505 O   0  0  0  0  0  0  0  0  0  0  0  0
   28.0838  -18.5207  -15.2300 C   0  0  0  0  0  0  0  0  0  0  0  0
   27.3053  -19.7792  -14.9528 C   0  0  2  0  0  0  0  0  0  0  0  0
   26.9585  -19.7573  -13.5522 N   0  0  0  0  0  0  0  0  0  0  0  0
   28.0308  -21.0091  -15.2451 C   0  0  0  0  0  0  0  0  0  0  0  0
   28.9040  -21.4107  -14.4330 O   0  0  0  0  0  0  0  0  0  0  0  0
   27.7951  -21.7856  -16.4188 N   0  0  0  0  0  0  0  0  0  0  0  0
   28.6310  -22.9507  -16.6535 C   0  0  0  0  0  0  0  0  0  0  0  0
   29.6968  -22.6596  -17.6318 C   0  0  0  0  0  0  0  0  0  0  0  0
   30.7114  -23.5790  -17.9047 O   0  0  0  0  0  0  0  0  0  0  0  0
   29.6703  -21.5508  -18.2214 O   0  0  0  0  0  0  0  0  0  0  0  0
  2  1  1  6
  2 13  1  0
  3  2  1  0
  4 12  1  0
  4  3  1  0
  5  4  2  0
  6  5  1  0
  6  7  1  0
  7 12  2  0
  8  7  1  0
  8  9  2  0
  9 10  1  0
 10 11  2  0
 12 11  1  0
 13 14  2  0
 16 15  1  1
 16 18  1  0
 17 13  1  0
 17 16  1  0
 18 19  2  0
 20 18  1  0
 20 21  1  0
 22 21  1  0
 22 23  1  0
 24 22  2  0
M  END
$$$$
