WAG.pdb
     RDKit          3D

 24 25  0  0  1  0  0  0  0  0999 V2000
   25.9331  -19.0056   -8.8872 N   0  0  0  0  0  0  0  0  0  0  0  0
   26.7987  -19.9057   -9.6032 C   0  0  1  0  0  0  0  0  0  0  0  0
   26.9432  -21.1521   -8.7323 C   0  0  0  0  0  0  0  0  0  0  0  0
   27.0717  -20.6513   -7.3389 C   0  0  0  0  0  0  0  0  0  0  0  0
   26.0855  -20.1264   -6.5648 C   0  0  0  0  0  0  0  0  0  0  0  0
   26.5442  -19.7690   -5.3535 N   0  0  0  0  0  0  0  0  0  0  0  0
   27.8552  -20.0607   -5.3216 C   0  0  0  0  0  0  0  0  0  0  0  0
   28.8404  -19.9299   -4.3835 C   0  0  0  0  0  0  0  0  0  0  0  0
   30.1288  -20.3295   -4.6474 C   0  0  0  0  0  0  0  0  0  0  0  0
   30.4701  -20.8692   -5.8503 C   0  0  0  0  0  0  0  0  0  0  0  0
   29.5066  -21.0183   -6.8230 C   0  0  0  0  0  0  0  0  0  0  0  0
   28.2222  -20.6160   -6.5498 C   0  0  0  0  0  0  0  0  0  0  0  0
   26.3107  -20.2027  -10.9577 C   0  0  0  0  0  0  0  0  0  0  0  0
   25.0711  -20.2198  -11.1642 O   0  0  0  0  0  0  0  0  0  0  0  0
   28.0308  -20.7636  -14.1921 C   0  0  0  0  0  0  0  0  0  0  0  0
   26.7851  -20.6390  -13.3557 C   0  0  2  0  0  0  0  0  0  0  0  0
   27.2140  -20.4600  -11.9895 N   0  0  0  0  0  0  0  0  0  0  0  0
   25.8963  -21.7918  -13.4291 C   0  0  0  0  0  0  0  0  0  0  0  0
   26.1658  -22.8150  -12.7482 O   0  0  0  0  0  0  0  0  0  0  0  0
   24.7250  -21.8145  -14.2438 N   0  0  0  0  0  0  0  0  0  0  0  0
   23.7975  -22.9219  -14.0862 C   0  0  0  0  0  0  0  0  0  0  0  0
   22.3972  -22.4716  -14.2058 C   0  0  0  0  0  0  0  0  0  0  0  0
   21.3312  -23.3713  -14.1486 O   0  0  0  0  0  0  0  0  0  0  0  0
   22.1831  -21.2437  -14.3624 O   0  0  0  0  0  0  0  0  0  0  0  0
  2  1  1  1
  2 13  1  0
  3  2  1  0
  4 12  1  0
  4  3  1  0
  5  4  2  0
  6  5  1  0
  6  7  1  0
  7 12  2  0
  8  7  1  0
  8  9  2  0
  9 10  1  0
 10 11  2  0
 12 11  1  0
 13 14  2  0
 16 15  1  6
 16 18  1  0
 17 13  1  0
 17 16  1  0
 18 19  2  0
 20 18  1  0
 20 21  1  0
 22 21  1  0
 22 23  1  0
 24 22  2  0
M  END
$$$$
