WAG.pdb
     RDKit          3D

 24 25  0  0  1  0  0  0  0  0999 V2000
   23.1566  -21.1731  -17.0221 N   0  0  0  0  0  0  0  0  0  0  0  0
   23.1426  -20.9598  -15.5986 C   0  0  1  0  0  0  0  0  0  0  0  0
   22.1068  -21.9253  -15.0261 C   0  0  0  0  0  0  0  0  0  0  0  0
   21.0410  -21.0674  -14.4457 C   0  0  0  0  0  0  0  0  0  0  0  0
   19.9254  -20.6119  -15.0745 C   0  0  0  0  0  0  0  0  0  0  0  0
   19.1709  -19.8564  -14.2588 N   0  0  0  0  0  0  0  0  0  0  0  0
   19.7942  -19.8088  -13.0696 C   0  0  0  0  0  0  0  0  0  0  0  0
   19.5217  -19.2103  -11.8716 C   0  0  0  0  0  0  0  0  0  0  0  0
   20.3734  -19.3452  -10.8012 C   0  0  0  0  0  0  0  0  0  0  0  0
   21.5171  -20.0786  -10.8949 C   0  0  0  0  0  0  0  0  0  0  0  0
   21.8283  -20.6979  -12.0849 C   0  0  0  0  0  0  0  0  0  0  0  0
   20.9711  -20.5572  -13.1486 C   0  0  0  0  0  0  0  0  0  0  0  0
   24.4718  -21.1136  -14.9900 C   0  0  0  0  0  0  0  0  0  0  0  0
   25.1003  -22.1866  -15.1721 O   0  0  0  0  0  0  0  0  0  0  0  0
   26.9047  -18.8508  -13.4934 C   0  0  0  0  0  0  0  0  0  0  0  0
   26.2836  -20.2213  -13.5453 C   0  0  2  0  0  0  0  0  0  0  0  0
   25.0184  -20.0824  -14.2254 N   0  0  0  0  0  0  0  0  0  0  0  0
   26.0585  -20.8270  -12.2388 C   0  0  0  0  0  0  0  0  0  0  0  0
   24.8893  -20.8620  -11.7752 O   0  0  0  0  0  0  0  0  0  0  0  0
   27.1108  -21.3868  -11.4544 N   0  0  0  0  0  0  0  0  0  0  0  0
   26.8012  -21.8396  -10.1089 C   0  0  0  0  0  0  0  0  0  0  0  0
   26.3437  -20.7239   -9.2581 C   0  0  0  0  0  0  0  0  0  0  0  0
   25.3649  -20.9034   -8.2789 O   0  0  0  0  0  0  0  0  0  0  0  0
   26.8618  -19.5937   -9.4373 O   0  0  0  0  0  0  0  0  0  0  0  0
  2  1  1  6
  2 13  1  0
  3  2  1  0
  4 12  1  0
  4  3  1  0
  5  4  2  0
  6  5  1  0
  6  7  1  0
  7 12  2  0
  8  7  1  0
  8  9  2  0
  9 10  1  0
 10 11  2  0
 12 11  1  0
 13 14  2  0
 16 15  1  1
 16 18  1  0
 17 13  1  0
 17 16  1  0
 18 19  2  0
 20 18  1  0
 20 21  1  0
 22 21  1  0
 22 23  1  0
 24 22  2  0
M  END
$$$$
