VAM.pdb
     RDKit          3D

 21 20  0  0  1  0  0  0  0  0999 V2000
    7.5281  -12.6019   20.1620 C   0  0  0  0  0  0  0  0  0  0  0  0
    8.6504  -13.2425   19.3861 C   0  0  2  0  0  0  0  0  0  0  0  0
    8.9106  -12.4602   18.1231 C   0  0  0  0  0  0  0  0  0  0  0  0
    8.3797  -14.6828   19.0613 C   0  0  2  0  0  0  0  0  0  0  0  0
    7.4083  -14.8467   18.0137 N   0  0  0  0  0  0  0  0  0  0  0  0
    8.0485  -15.4818   20.2682 C   0  0  0  0  0  0  0  0  0  0  0  0
    6.8708  -15.4631   20.7123 O   0  0  0  0  0  0  0  0  0  0  0  0
    9.4747  -18.2798   22.1626 C   0  0  0  0  0  0  0  0  0  0  0  0
    8.7022  -16.9601   22.2009 C   0  0  2  0  0  0  0  0  0  0  0  0
    8.9896  -16.2754   20.9610 N   0  0  0  0  0  0  0  0  0  0  0  0
    9.1424  -16.2108   23.3870 C   0  0  0  0  0  0  0  0  0  0  0  0
   10.2186  -15.5892   23.3657 O   0  0  0  0  0  0  0  0  0  0  0  0
    6.5880  -11.1732   26.8873 C   0  0  0  0  0  0  0  0  0  0  0  0
    5.7331  -12.6259   26.2392 S   0  0  0  0  0  0  0  0  0  0  0  0
    6.8845  -13.7402   25.4234 C   0  0  0  0  0  0  0  0  0  0  0  0
    7.5150  -14.7754   26.2500 C   0  0  0  0  0  0  0  0  0  0  0  0
    8.7573  -15.3691   25.7014 C   0  0  2  0  0  0  0  0  0  0  0  0
    8.3408  -16.2022   24.5406 N   0  0  0  0  0  0  0  0  0  0  0  0
    9.4583  -16.2788   26.5950 C   0  0  0  0  0  0  0  0  0  0  0  0
    9.1708  -17.5344   26.5409 O   0  0  0  0  0  0  0  0  0  0  0  0
   10.4381  -15.9334   27.5233 O   0  0  0  0  0  0  0  0  0  0  0  0
  2  1  1  6
  3  2  1  0
  4  2  1  0
  4  5  1  6
  6  4  1  0
  6  7  2  0
  9  8  1  6
  9 11  1  0
  9 10  1  0
 10  6  1  0
 11 18  1  0
 12 11  2  0
 14 13  1  0
 15 14  1  0
 16 15  1  0
 17 16  1  1
 18 17  1  0
 19 17  1  0
 20 19  2  0
 21 19  1  0
M  END
$$$$
