VAM.pdb
     RDKit          3D

 21 20  0  0  1  0  0  0  0  0999 V2000
    6.7043  -14.3582   18.8687 C   0  0  0  0  0  0  0  0  0  0  0  0
    7.6499  -13.3022   19.3813 C   0  0  2  0  0  0  0  0  0  0  0  0
    7.9912  -12.3393   18.2717 C   0  0  0  0  0  0  0  0  0  0  0  0
    8.9017  -13.8844   19.9704 C   0  0  2  0  0  0  0  0  0  0  0  0
    9.6955  -14.5959   19.0051 N   0  0  0  0  0  0  0  0  0  0  0  0
    8.6312  -14.6937   21.1855 C   0  0  0  0  0  0  0  0  0  0  0  0
    7.9607  -14.1877   22.1230 O   0  0  0  0  0  0  0  0  0  0  0  0
    9.4734  -18.1762   22.3043 C   0  0  0  0  0  0  0  0  0  0  0  0
    8.7837  -16.8274   22.5167 C   0  0  2  0  0  0  0  0  0  0  0  0
    9.0878  -16.0193   21.3577 N   0  0  0  0  0  0  0  0  0  0  0  0
    9.2921  -16.2499   23.7696 C   0  0  0  0  0  0  0  0  0  0  0  0
   10.3998  -15.6864   23.7902 O   0  0  0  0  0  0  0  0  0  0  0  0
    6.7004  -10.7692   26.2411 C   0  0  0  0  0  0  0  0  0  0  0  0
    6.5186  -12.4711   26.8172 S   0  0  0  0  0  0  0  0  0  0  0  0
    7.9008  -13.4854   26.2758 C   0  0  0  0  0  0  0  0  0  0  0  0
    7.9194  -14.8842   26.7180 C   0  0  0  0  0  0  0  0  0  0  0  0
    9.0294  -15.7118   26.1894 C   0  0  2  0  0  0  0  0  0  0  0  0
    8.5197  -16.3391   24.9397 N   0  0  0  0  0  0  0  0  0  0  0  0
    9.4356  -16.8218   27.0381 C   0  0  0  0  0  0  0  0  0  0  0  0
    8.8673  -17.9660   26.8651 O   0  0  0  0  0  0  0  0  0  0  0  0
   10.4028  -16.7846   28.0402 O   0  0  0  0  0  0  0  0  0  0  0  0
  2  1  1  6
  3  2  1  0
  4  2  1  0
  4  5  1  6
  6  4  1  0
  6  7  2  0
  9  8  1  6
  9 11  1  0
  9 10  1  0
 10  6  1  0
 11 18  1  0
 12 11  2  0
 14 13  1  0
 15 14  1  0
 16 15  1  0
 17 16  1  1
 18 17  1  0
 19 17  1  0
 20 19  2  0
 21 19  1  0
M  END
$$$$
