VAM.pdb
     RDKit          3D

 21 20  0  0  1  0  0  0  0  0999 V2000
    7.5762  -12.4709   20.1807 C   0  0  0  0  0  0  0  0  0  0  0  0
    8.7057  -13.0957   19.4024 C   0  0  2  0  0  0  0  0  0  0  0  0
    8.9494  -12.3123   18.1368 C   0  0  0  0  0  0  0  0  0  0  0  0
    8.4566  -14.5407   19.0818 C   0  0  2  0  0  0  0  0  0  0  0  0
    7.4337  -14.7246   18.0879 N   0  0  0  0  0  0  0  0  0  0  0  0
    8.2142  -15.3561   20.2988 C   0  0  0  0  0  0  0  0  0  0  0  0
    7.0620  -15.3750   20.8052 O   0  0  0  0  0  0  0  0  0  0  0  0
    9.9903  -18.0943   22.0377 C   0  0  0  0  0  0  0  0  0  0  0  0
    8.9713  -16.9548   22.0929 C   0  0  2  0  0  0  0  0  0  0  0  0
    9.2140  -16.1253   20.9346 N   0  0  0  0  0  0  0  0  0  0  0  0
    9.1600  -16.2384   23.3630 C   0  0  0  0  0  0  0  0  0  0  0  0
   10.0777  -15.4081   23.4781 O   0  0  0  0  0  0  0  0  0  0  0  0
    6.5213  -10.9628   26.8598 C   0  0  0  0  0  0  0  0  0  0  0  0
    6.2559  -12.7378   27.0596 S   0  0  0  0  0  0  0  0  0  0  0  0
    7.3898  -13.6786   26.0292 C   0  0  0  0  0  0  0  0  0  0  0  0
    7.3381  -15.1408   26.1377 C   0  0  0  0  0  0  0  0  0  0  0  0
    8.5774  -15.8588   25.7567 C   0  0  2  0  0  0  0  0  0  0  0  0
    8.2984  -16.4978   24.4419 N   0  0  0  0  0  0  0  0  0  0  0  0
    8.9599  -16.9499   26.6403 C   0  0  0  0  0  0  0  0  0  0  0  0
    9.7083  -16.6833   27.6556 O   0  0  0  0  0  0  0  0  0  0  0  0
    8.5900  -18.2868   26.5100 O   0  0  0  0  0  0  0  0  0  0  0  0
  2  1  1  6
  3  2  1  0
  4  2  1  0
  4  5  1  6
  6  4  1  0
  6  7  2  0
  9  8  1  1
  9 11  1  0
  9 10  1  0
 10  6  1  0
 11 18  1  0
 12 11  2  0
 14 13  1  0
 15 14  1  0
 16 15  1  0
 17 16  1  1
 18 17  1  0
 19 17  1  0
 20 19  2  0
 21 19  1  0
M  END
$$$$
