VAM.pdb
     RDKit          3D

 21 20  0  0  1  0  0  0  0  0999 V2000
    7.7475  -12.6429   20.6114 C   0  0  0  0  0  0  0  0  0  0  0  0
    8.5424  -13.4016   19.5797 C   0  0  2  0  0  0  0  0  0  0  0  0
    8.5931  -12.6155   18.2935 C   0  0  0  0  0  0  0  0  0  0  0  0
    7.9988  -14.7780   19.3288 C   0  0  2  0  0  0  0  0  0  0  0  0
    6.7589  -14.7653   18.6005 N   0  0  0  0  0  0  0  0  0  0  0  0
    7.9157  -15.5879   20.5706 C   0  0  0  0  0  0  0  0  0  0  0  0
    6.8849  -15.5063   21.2885 O   0  0  0  0  0  0  0  0  0  0  0  0
    9.9767  -18.2715   22.1602 C   0  0  0  0  0  0  0  0  0  0  0  0
    8.8924  -17.1959   22.2464 C   0  0  2  0  0  0  0  0  0  0  0  0
    8.9395  -16.4594   21.0038 N   0  0  0  0  0  0  0  0  0  0  0  0
    9.1754  -16.3592   23.4218 C   0  0  0  0  0  0  0  0  0  0  0  0
   10.0344  -15.4633   23.3551 O   0  0  0  0  0  0  0  0  0  0  0  0
    6.6597  -10.9419   27.3875 C   0  0  0  0  0  0  0  0  0  0  0  0
    6.2367  -12.6117   26.8453 S   0  0  0  0  0  0  0  0  0  0  0  0
    7.7177  -13.5785   26.5219 C   0  0  0  0  0  0  0  0  0  0  0  0
    7.5301  -14.9666   26.0855 C   0  0  0  0  0  0  0  0  0  0  0  0
    8.7709  -15.7244   25.7982 C   0  0  2  0  0  0  0  0  0  0  0  0
    8.4705  -16.5786   24.6171 N   0  0  0  0  0  0  0  0  0  0  0  0
    9.1914  -16.6468   26.8421 C   0  0  0  0  0  0  0  0  0  0  0  0
    8.8974  -17.8953   26.7122 O   0  0  0  0  0  0  0  0  0  0  0  0
    9.9026  -16.3210   27.9950 O   0  0  0  0  0  0  0  0  0  0  0  0
  2  1  1  1
  3  2  1  0
  4  2  1  0
  4  5  1  1
  6  4  1  0
  6  7  2  0
  9  8  1  6
  9 11  1  0
  9 10  1  0
 10  6  1  0
 11 18  1  0
 12 11  2  0
 14 13  1  0
 15 14  1  0
 16 15  1  0
 17 16  1  1
 18 17  1  0
 19 17  1  0
 20 19  2  0
 21 19  1  0
M  END
$$$$
