VAM.pdb
     RDKit          3D

 21 20  0  0  1  0  0  0  0  0999 V2000
    8.0693  -12.4397   18.2444 C   0  0  0  0  0  0  0  0  0  0  0  0
    7.8891  -13.2786   19.4836 C   0  0  2  0  0  0  0  0  0  0  0  0
    8.7428  -12.7314   20.6001 C   0  0  0  0  0  0  0  0  0  0  0  0
    8.2013  -14.7281   19.2505 C   0  0  2  0  0  0  0  0  0  0  0  0
    7.4094  -15.3087   18.1999 N   0  0  0  0  0  0  0  0  0  0  0  0
    8.1505  -15.5256   20.5020 C   0  0  0  0  0  0  0  0  0  0  0  0
    7.0483  -15.6714   21.0923 O   0  0  0  0  0  0  0  0  0  0  0  0
   10.3336  -17.9297   22.2616 C   0  0  0  0  0  0  0  0  0  0  0  0
    9.2519  -16.8510   22.3400 C   0  0  2  0  0  0  0  0  0  0  0  0
    9.2822  -16.1414   21.0813 N   0  0  0  0  0  0  0  0  0  0  0  0
    9.5525  -15.9897   23.4931 C   0  0  0  0  0  0  0  0  0  0  0  0
   10.4735  -15.1578   23.4244 O   0  0  0  0  0  0  0  0  0  0  0  0
    6.1074  -11.5315   25.5928 C   0  0  0  0  0  0  0  0  0  0  0  0
    6.4427  -12.2854   27.1991 S   0  0  0  0  0  0  0  0  0  0  0  0
    7.8158  -13.4414   27.0941 C   0  0  0  0  0  0  0  0  0  0  0  0
    7.8237  -14.3715   25.9596 C   0  0  0  0  0  0  0  0  0  0  0  0
    9.0563  -15.1783   25.7972 C   0  0  2  0  0  0  0  0  0  0  0  0
    8.7940  -16.1129   24.6691 N   0  0  0  0  0  0  0  0  0  0  0  0
    9.3963  -16.0279   26.9286 C   0  0  0  0  0  0  0  0  0  0  0  0
    8.9454  -17.2356   26.9459 O   0  0  0  0  0  0  0  0  0  0  0  0
   10.1831  -15.6720   28.0219 O   0  0  0  0  0  0  0  0  0  0  0  0
  2  1  1  6
  3  2  1  0
  4  2  1  0
  4  5  1  6
  6  4  1  0
  6  7  2  0
  9  8  1  6
  9 11  1  0
  9 10  1  0
 10  6  1  0
 11 18  1  0
 12 11  2  0
 14 13  1  0
 15 14  1  0
 16 15  1  0
 17 16  1  1
 18 17  1  0
 19 17  1  0
 20 19  2  0
 21 19  1  0
M  END
$$$$
