VAM.pdb
     RDKit          3D

 21 20  0  0  1  0  0  0  0  0999 V2000
    7.9825  -12.2429   18.3400 C   0  0  0  0  0  0  0  0  0  0  0  0
    7.8359  -13.1973   19.4973 C   0  0  2  0  0  0  0  0  0  0  0  0
    8.6244  -12.6923   20.6797 C   0  0  0  0  0  0  0  0  0  0  0  0
    8.2553  -14.5959   19.1495 C   0  0  2  0  0  0  0  0  0  0  0  0
    7.5651  -15.1173   18.0007 N   0  0  0  0  0  0  0  0  0  0  0  0
    8.1849  -15.5135   20.3148 C   0  0  0  0  0  0  0  0  0  0  0  0
    7.0579  -15.8681   20.7492 O   0  0  0  0  0  0  0  0  0  0  0  0
   10.3401  -17.9511   21.9483 C   0  0  0  0  0  0  0  0  0  0  0  0
    9.2589  -16.8852   22.1349 C   0  0  2  0  0  0  0  0  0  0  0  0
    9.3240  -16.0218   20.9777 N   0  0  0  0  0  0  0  0  0  0  0  0
    9.5308  -16.1787   23.3954 C   0  0  0  0  0  0  0  0  0  0  0  0
   10.4601  -15.3557   23.4590 O   0  0  0  0  0  0  0  0  0  0  0  0
    6.2734  -10.9476   25.9422 C   0  0  0  0  0  0  0  0  0  0  0  0
    6.1653  -12.7034   26.3506 S   0  0  0  0  0  0  0  0  0  0  0  0
    7.6493  -13.5774   25.8341 C   0  0  0  0  0  0  0  0  0  0  0  0
    7.7176  -15.0134   26.1268 C   0  0  0  0  0  0  0  0  0  0  0  0
    8.9938  -15.6814   25.7782 C   0  0  2  0  0  0  0  0  0  0  0  0
    8.7354  -16.4393   24.5237 N   0  0  0  0  0  0  0  0  0  0  0  0
    9.4582  -16.6728   26.7369 C   0  0  0  0  0  0  0  0  0  0  0  0
    9.1630  -17.9107   26.5307 O   0  0  0  0  0  0  0  0  0  0  0  0
   10.2136  -16.4250   27.8810 O   0  0  0  0  0  0  0  0  0  0  0  0
  2  1  1  6
  3  2  1  0
  4  2  1  0
  4  5  1  6
  6  4  1  0
  6  7  2  0
  9  8  1  6
  9 11  1  0
  9 10  1  0
 10  6  1  0
 11 18  1  0
 12 11  2  0
 14 13  1  0
 15 14  1  0
 16 15  1  0
 17 16  1  1
 18 17  1  0
 19 17  1  0
 20 19  2  0
 21 19  1  0
M  END
$$$$
