VAM.pdb
     RDKit          3D

 21 20  0  0  1  0  0  0  0  0999 V2000
    9.5913  -12.9030   19.9328 C   0  0  0  0  0  0  0  0  0  0  0  0
    8.2543  -13.3045   19.3644 C   0  0  2  0  0  0  0  0  0  0  0  0
    7.1465  -12.7762   20.2411 C   0  0  0  0  0  0  0  0  0  0  0  0
    8.1215  -14.7898   19.1939 C   0  0  2  0  0  0  0  0  0  0  0  0
    6.9122  -15.1687   18.5141 N   0  0  0  0  0  0  0  0  0  0  0  0
    8.3045  -15.5240   20.4714 C   0  0  0  0  0  0  0  0  0  0  0  0
    7.3530  -15.5704   21.2942 O   0  0  0  0  0  0  0  0  0  0  0  0
   11.1068  -17.4554   22.0537 C   0  0  0  0  0  0  0  0  0  0  0  0
    9.7119  -16.8296   22.1033 C   0  0  2  0  0  0  0  0  0  0  0  0
    9.5012  -16.1851   20.8269 N   0  0  0  0  0  0  0  0  0  0  0  0
    9.6755  -15.8909   23.2343 C   0  0  0  0  0  0  0  0  0  0  0  0
    9.9301  -14.6879   23.0525 O   0  0  0  0  0  0  0  0  0  0  0  0
    6.2539  -11.3903   27.3824 C   0  0  0  0  0  0  0  0  0  0  0  0
    6.9191  -12.2709   25.9529 S   0  0  0  0  0  0  0  0  0  0  0  0
    7.0148  -14.0377   26.2721 C   0  0  0  0  0  0  0  0  0  0  0  0
    7.6533  -14.8705   25.2468 C   0  0  0  0  0  0  0  0  0  0  0  0
    9.0053  -15.3780   25.5799 C   0  0  2  0  0  0  0  0  0  0  0  0
    9.3518  -16.3614   24.5179 N   0  0  0  0  0  0  0  0  0  0  0  0
    9.1016  -16.1145   26.8312 C   0  0  0  0  0  0  0  0  0  0  0  0
    8.8881  -15.4810   27.9336 O   0  0  0  0  0  0  0  0  0  0  0  0
    9.4005  -17.4679   26.9723 O   0  0  0  0  0  0  0  0  0  0  0  0
  2  1  1  1
  3  2  1  0
  4  2  1  0
  4  5  1  1
  6  4  1  0
  6  7  2  0
  9  8  1  6
  9 11  1  0
  9 10  1  0
 10  6  1  0
 11 18  1  0
 12 11  2  0
 14 13  1  0
 15 14  1  0
 16 15  1  0
 17 16  1  6
 18 17  1  0
 19 17  1  0
 20 19  2  0
 21 19  1  0
M  END
$$$$
