VAM.pdb
     RDKit          3D

 21 20  0  0  1  0  0  0  0  0999 V2000
    6.6734  -14.1972   18.8139 C   0  0  0  0  0  0  0  0  0  0  0  0
    7.6817  -13.2316   19.3820 C   0  0  2  0  0  0  0  0  0  0  0  0
    8.1335  -12.2735   18.3084 C   0  0  0  0  0  0  0  0  0  0  0  0
    8.8641  -13.9245   19.9941 C   0  0  2  0  0  0  0  0  0  0  0  0
    9.6555  -14.6383   19.0286 N   0  0  0  0  0  0  0  0  0  0  0  0
    8.4848  -14.7736   21.1516 C   0  0  0  0  0  0  0  0  0  0  0  0
    7.7599  -14.2867   22.0583 O   0  0  0  0  0  0  0  0  0  0  0  0
    9.1743  -18.3128   22.1944 C   0  0  0  0  0  0  0  0  0  0  0  0
    8.5296  -16.9454   22.4281 C   0  0  2  0  0  0  0  0  0  0  0  0
    8.8942  -16.1173   21.3011 N   0  0  0  0  0  0  0  0  0  0  0  0
    9.0256  -16.4229   23.7098 C   0  0  0  0  0  0  0  0  0  0  0  0
   10.1710  -15.9462   23.7856 O   0  0  0  0  0  0  0  0  0  0  0  0
    6.9960  -10.7622   26.9742 C   0  0  0  0  0  0  0  0  0  0  0  0
    6.4711  -12.4899   26.9458 S   0  0  0  0  0  0  0  0  0  0  0  0
    7.8569  -13.5782   26.5885 C   0  0  0  0  0  0  0  0  0  0  0  0
    7.6041  -15.0226   26.6345 C   0  0  0  0  0  0  0  0  0  0  0  0
    8.6955  -15.8840   26.1211 C   0  0  2  0  0  0  0  0  0  0  0  0
    8.1984  -16.4657   24.8446 N   0  0  0  0  0  0  0  0  0  0  0  0
    9.0317  -17.0258   26.9581 C   0  0  0  0  0  0  0  0  0  0  0  0
    8.5513  -18.1799   26.6429 O   0  0  0  0  0  0  0  0  0  0  0  0
    9.8440  -17.0096   28.0899 O   0  0  0  0  0  0  0  0  0  0  0  0
  2  1  1  6
  3  2  1  0
  4  2  1  0
  4  5  1  6
  6  4  1  0
  6  7  2  0
  9  8  1  6
  9 11  1  0
  9 10  1  0
 10  6  1  0
 11 18  1  0
 12 11  2  0
 14 13  1  0
 15 14  1  0
 16 15  1  0
 17 16  1  1
 18 17  1  0
 19 17  1  0
 20 19  2  0
 21 19  1  0
M  END
$$$$
