VAM.pdb
     RDKit          3D

 21 20  0  0  1  0  0  0  0  0999 V2000
    4.4206  -19.5297   20.5676 C   0  0  0  0  0  0  0  0  0  0  0  0
    5.4461  -18.5955   21.1571 C   0  0  2  0  0  0  0  0  0  0  0  0
    4.7651  -17.5808   22.0411 C   0  0  0  0  0  0  0  0  0  0  0  0
    6.2692  -17.9053   20.1088 C   0  0  2  0  0  0  0  0  0  0  0  0
    6.9106  -18.8238   19.2071 N   0  0  0  0  0  0  0  0  0  0  0  0
    7.2230  -16.9280   20.6918 C   0  0  0  0  0  0  0  0  0  0  0  0
    8.2259  -17.3515   21.3238 O   0  0  0  0  0  0  0  0  0  0  0  0
    7.4958  -13.1861   20.7593 C   0  0  0  0  0  0  0  0  0  0  0  0
    7.9530  -14.5735   21.2130 C   0  0  2  0  0  0  0  0  0  0  0  0
    7.0719  -15.5280   20.5793 N   0  0  0  0  0  0  0  0  0  0  0  0
    7.8860  -14.6158   22.6812 C   0  0  0  0  0  0  0  0  0  0  0  0
    6.7861  -14.7199   23.2508 O   0  0  0  0  0  0  0  0  0  0  0  0
    5.4486  -11.8396   27.4361 C   0  0  0  0  0  0  0  0  0  0  0  0
    7.1565  -12.1302   26.9265 S   0  0  0  0  0  0  0  0  0  0  0  0
    7.2217  -12.9184   25.3118 C   0  0  0  0  0  0  0  0  0  0  0  0
    7.5825  -14.3399   25.2739 C   0  0  0  0  0  0  0  0  0  0  0  0
    8.9896  -14.6377   24.9162 C   0  0  2  0  0  0  0  0  0  0  0  0
    9.0700  -14.5383   23.4334 N   0  0  0  0  0  0  0  0  0  0  0  0
    9.4404  -15.9838   25.2357 C   0  0  0  0  0  0  0  0  0  0  0  0
    9.2457  -16.9178   24.3686 O   0  0  0  0  0  0  0  0  0  0  0  0
   10.0833  -16.3839   26.4052 O   0  0  0  0  0  0  0  0  0  0  0  0
  2  1  1  6
  3  2  1  0
  4  2  1  0
  4  5  1  1
  6  4  1  0
  6  7  2  0
  9  8  1  6
  9 11  1  0
  9 10  1  0
 10  6  1  0
 11 18  1  0
 12 11  2  0
 14 13  1  0
 15 14  1  0
 16 15  1  0
 17 16  1  6
 18 17  1  0
 19 17  1  0
 20 19  2  0
 21 19  1  0
M  END
$$$$
