VAM.pdb
     RDKit          3D

 21 20  0  0  1  0  0  0  0  0999 V2000
    7.8580  -19.5406   18.4147 C   0  0  0  0  0  0  0  0  0  0  0  0
    7.3922  -18.1149   18.2653 C   0  0  2  0  0  0  0  0  0  0  0  0
    7.3215  -17.7505   16.8035 C   0  0  0  0  0  0  0  0  0  0  0  0
    8.2642  -17.1417   19.0040 C   0  0  2  0  0  0  0  0  0  0  0  0
    9.5660  -16.9955   18.4109 N   0  0  0  0  0  0  0  0  0  0  0  0
    8.3360  -17.4375   20.4573 C   0  0  0  0  0  0  0  0  0  0  0  0
    7.2697  -17.5082   21.1225 O   0  0  0  0  0  0  0  0  0  0  0  0
   10.9472  -18.7015   22.7733 C   0  0  0  0  0  0  0  0  0  0  0  0
    9.6196  -17.9727   22.5583 C   0  0  2  0  0  0  0  0  0  0  0  0
    9.5480  -17.6480   21.1518 N   0  0  0  0  0  0  0  0  0  0  0  0
    9.6088  -16.7844   23.4241 C   0  0  0  0  0  0  0  0  0  0  0  0
   10.0419  -15.7002   22.9974 O   0  0  0  0  0  0  0  0  0  0  0  0
    7.0289  -11.2547   26.7791 C   0  0  0  0  0  0  0  0  0  0  0  0
    7.8140  -12.5362   25.7778 S   0  0  0  0  0  0  0  0  0  0  0  0
    6.9152  -14.0887   25.8982 C   0  0  0  0  0  0  0  0  0  0  0  0
    7.4508  -15.2330   25.1525 C   0  0  0  0  0  0  0  0  0  0  0  0
    8.8358  -15.6338   25.4959 C   0  0  2  0  0  0  0  0  0  0  0  0
    9.1069  -16.8824   24.7326 N   0  0  0  0  0  0  0  0  0  0  0  0
    9.0537  -15.9822   26.8918 C   0  0  0  0  0  0  0  0  0  0  0  0
    8.6163  -17.1184   27.3158 O   0  0  0  0  0  0  0  0  0  0  0  0
    9.7075  -15.2044   27.8449 O   0  0  0  0  0  0  0  0  0  0  0  0
  2  1  1  6
  3  2  1  0
  4  2  1  0
  4  5  1  6
  6  4  1  0
  6  7  2  0
  9  8  1  6
  9 11  1  0
  9 10  1  0
 10  6  1  0
 11 18  1  0
 12 11  2  0
 14 13  1  0
 15 14  1  0
 16 15  1  0
 17 16  1  1
 18 17  1  0
 19 17  1  0
 20 19  2  0
 21 19  1  0
M  END
$$$$
