VAM.pdb
     RDKit          3D

 21 20  0  0  1  0  0  0  0  0999 V2000
    7.0438  -18.1868   18.1106 C   0  0  0  0  0  0  0  0  0  0  0  0
    7.4794  -19.0897   19.2362 C   0  0  2  0  0  0  0  0  0  0  0  0
    6.6788  -20.3676   19.2057 C   0  0  0  0  0  0  0  0  0  0  0  0
    7.3637  -18.4334   20.5811 C   0  0  2  0  0  0  0  0  0  0  0  0
    5.9997  -18.2203   20.9838 N   0  0  0  0  0  0  0  0  0  0  0  0
    8.1809  -17.1976   20.6792 C   0  0  0  0  0  0  0  0  0  0  0  0
    9.4246  -17.2685   20.4984 O   0  0  0  0  0  0  0  0  0  0  0  0
    7.5311  -13.5478   20.7860 C   0  0  0  0  0  0  0  0  0  0  0  0
    8.4390  -14.7313   21.1250 C   0  0  2  0  0  0  0  0  0  0  0  0
    7.6397  -15.9251   20.9679 N   0  0  0  0  0  0  0  0  0  0  0  0
    8.9325  -14.5462   22.4976 C   0  0  0  0  0  0  0  0  0  0  0  0
    9.6721  -13.5845   22.7681 O   0  0  0  0  0  0  0  0  0  0  0  0
    6.1352  -11.0497   26.9590 C   0  0  0  0  0  0  0  0  0  0  0  0
    6.1292  -12.8385   26.7114 S   0  0  0  0  0  0  0  0  0  0  0  0
    7.6703  -13.3912   25.9684 C   0  0  0  0  0  0  0  0  0  0  0  0
    7.7861  -14.8182   25.6479 C   0  0  0  0  0  0  0  0  0  0  0  0
    9.0022  -15.2130   24.8984 C   0  0  2  0  0  0  0  0  0  0  0  0
    8.5635  -15.4609   23.4981 N   0  0  0  0  0  0  0  0  0  0  0  0
    9.6230  -16.4557   25.3319 C   0  0  0  0  0  0  0  0  0  0  0  0
   10.1034  -16.5172   26.5267 O   0  0  0  0  0  0  0  0  0  0  0  0
    9.7524  -17.6209   24.5791 O   0  0  0  0  0  0  0  0  0  0  0  0
  2  1  1  6
  3  2  1  0
  4  2  1  0
  4  5  1  6
  6  4  1  0
  6  7  2  0
  9  8  1  1
  9 11  1  0
  9 10  1  0
 10  6  1  0
 11 18  1  0
 12 11  2  0
 14 13  1  0
 15 14  1  0
 16 15  1  0
 17 16  1  1
 18 17  1  0
 19 17  1  0
 20 19  2  0
 21 19  1  0
M  END
$$$$
