VAM.pdb
     RDKit          3D

 21 20  0  0  1  0  0  0  0  0999 V2000
    7.6822  -12.8327   19.9904 C   0  0  0  0  0  0  0  0  0  0  0  0
    8.6604  -13.4200   19.0054 C   0  0  2  0  0  0  0  0  0  0  0  0
    8.5522  -12.6987   17.6853 C   0  0  0  0  0  0  0  0  0  0  0  0
    8.4687  -14.8960   18.8108 C   0  0  2  0  0  0  0  0  0  0  0  0
    7.4322  -15.2050   17.8631 N   0  0  0  0  0  0  0  0  0  0  0  0
    8.2912  -15.6173   20.0965 C   0  0  0  0  0  0  0  0  0  0  0  0
    7.1623  -15.6100   20.6534 O   0  0  0  0  0  0  0  0  0  0  0  0
   10.2728  -18.0499   22.0955 C   0  0  0  0  0  0  0  0  0  0  0  0
    9.1701  -16.9928   22.0158 C   0  0  2  0  0  0  0  0  0  0  0  0
    9.3288  -16.3233   20.7448 N   0  0  0  0  0  0  0  0  0  0  0  0
    9.3240  -16.0888   23.1651 C   0  0  0  0  0  0  0  0  0  0  0  0
   10.1986  -15.2057   23.1488 O   0  0  0  0  0  0  0  0  0  0  0  0
    6.2186  -10.9915   27.5827 C   0  0  0  0  0  0  0  0  0  0  0  0
    6.2036  -12.1351   26.1852 S   0  0  0  0  0  0  0  0  0  0  0  0
    7.0505  -13.6667   26.5972 C   0  0  0  0  0  0  0  0  0  0  0  0
    7.2116  -14.6533   25.5234 C   0  0  0  0  0  0  0  0  0  0  0  0
    8.5676  -15.2345   25.3813 C   0  0  2  0  0  0  0  0  0  0  0  0
    8.4783  -16.2294   24.2781 N   0  0  0  0  0  0  0  0  0  0  0  0
    9.0472  -15.9817   26.5342 C   0  0  0  0  0  0  0  0  0  0  0  0
    8.8917  -17.2614   26.5436 O   0  0  0  0  0  0  0  0  0  0  0  0
    9.6799  -15.4521   27.6568 O   0  0  0  0  0  0  0  0  0  0  0  0
  2  1  1  1
  3  2  1  0
  4  2  1  0
  4  5  1  6
  6  4  1  0
  6  7  2  0
  9  8  1  1
  9 11  1  0
  9 10  1  0
 10  6  1  0
 11 18  1  0
 12 11  2  0
 14 13  1  0
 15 14  1  0
 16 15  1  0
 17 16  1  1
 18 17  1  0
 19 17  1  0
 20 19  2  0
 21 19  1  0
M  END
$$$$
