VAM.pdb
     RDKit          3D

 21 20  0  0  1  0  0  0  0  0999 V2000
    7.3116  -13.2278   21.6706 C   0  0  0  0  0  0  0  0  0  0  0  0
    8.3153  -13.4552   20.5694 C   0  0  2  0  0  0  0  0  0  0  0  0
    8.1837  -12.3740   19.5261 C   0  0  0  0  0  0  0  0  0  0  0  0
    8.1819  -14.8098   19.9366 C   0  0  2  0  0  0  0  0  0  0  0  0
    7.0279  -14.9181   19.0855 N   0  0  0  0  0  0  0  0  0  0  0  0
    8.2537  -15.9085   20.9328 C   0  0  0  0  0  0  0  0  0  0  0  0
    7.3558  -16.7907   20.9391 O   0  0  0  0  0  0  0  0  0  0  0  0
    9.8311  -18.3484   21.7852 C   0  0  0  0  0  0  0  0  0  0  0  0
    9.4755  -17.1933   22.7229 C   0  0  2  0  0  0  0  0  0  0  0  0
    9.2852  -16.0273   21.8906 N   0  0  0  0  0  0  0  0  0  0  0  0
   10.5737  -17.0378   23.6881 C   0  0  0  0  0  0  0  0  0  0  0  0
   11.2745  -18.0172   23.9958 O   0  0  0  0  0  0  0  0  0  0  0  0
   10.8047  -13.6360   29.2523 C   0  0  0  0  0  0  0  0  0  0  0  0
    9.3673  -13.3978   28.1855 S   0  0  0  0  0  0  0  0  0  0  0  0
    8.9173  -14.9300   27.3594 C   0  0  0  0  0  0  0  0  0  0  0  0
    9.3194  -15.0783   25.9563 C   0  0  0  0  0  0  0  0  0  0  0  0
   10.6832  -15.6130   25.7305 C   0  0  2  0  0  0  0  0  0  0  0  0
   10.8247  -15.7786   24.2583 N   0  0  0  0  0  0  0  0  0  0  0  0
   10.9340  -16.9322   26.2911 C   0  0  0  0  0  0  0  0  0  0  0  0
   11.7501  -17.0315   27.2842 O   0  0  0  0  0  0  0  0  0  0  0  0
   10.3679  -18.1319   25.8654 O   0  0  0  0  0  0  0  0  0  0  0  0
  2  1  1  1
  3  2  1  0
  4  2  1  0
  4  5  1  1
  6  4  1  0
  6  7  2  0
  9  8  1  6
  9 11  1  0
  9 10  1  0
 10  6  1  0
 11 18  1  0
 12 11  2  0
 14 13  1  0
 15 14  1  0
 16 15  1  0
 17 16  1  6
 18 17  1  0
 19 17  1  0
 20 19  2  0
 21 19  1  0
M  END
$$$$
