VAM.pdb
     RDKit          3D

 21 20  0  0  1  0  0  0  0  0999 V2000
    8.0922  -12.8730   17.5641 C   0  0  0  0  0  0  0  0  0  0  0  0
    7.8844  -13.7302   18.7863 C   0  0  2  0  0  0  0  0  0  0  0  0
    6.9871  -13.0156   19.7656 C   0  0  0  0  0  0  0  0  0  0  0  0
    9.1754  -14.1165   19.4475 C   0  0  2  0  0  0  0  0  0  0  0  0
   10.0921  -14.7642   18.5486 N   0  0  0  0  0  0  0  0  0  0  0  0
    8.9615  -14.8952   20.6935 C   0  0  0  0  0  0  0  0  0  0  0  0
    8.1798  -14.4453   21.5717 O   0  0  0  0  0  0  0  0  0  0  0  0
   10.2539  -18.1427   22.0600 C   0  0  0  0  0  0  0  0  0  0  0  0
    9.3105  -16.9403   22.1232 C   0  0  2  0  0  0  0  0  0  0  0  0
    9.5918  -16.1311   20.9592 N   0  0  0  0  0  0  0  0  0  0  0  0
    9.5597  -16.2338   23.3884 C   0  0  0  0  0  0  0  0  0  0  0  0
   10.5410  -15.4786   23.4961 O   0  0  0  0  0  0  0  0  0  0  0  0
    6.7468  -11.0267   27.7113 C   0  0  0  0  0  0  0  0  0  0  0  0
    6.3589  -12.5449   26.8137 S   0  0  0  0  0  0  0  0  0  0  0  0
    7.8382  -13.5313   26.5468 C   0  0  0  0  0  0  0  0  0  0  0  0
    7.6610  -14.8538   25.9368 C   0  0  0  0  0  0  0  0  0  0  0  0
    8.9025  -15.6327   25.7165 C   0  0  2  0  0  0  0  0  0  0  0  0
    8.6836  -16.4176   24.4712 N   0  0  0  0  0  0  0  0  0  0  0  0
    9.2079  -16.6182   26.7427 C   0  0  0  0  0  0  0  0  0  0  0  0
    8.9620  -17.8590   26.4939 O   0  0  0  0  0  0  0  0  0  0  0  0
    9.7587  -16.3617   27.9965 O   0  0  0  0  0  0  0  0  0  0  0  0
  2  1  1  6
  3  2  1  0
  4  2  1  0
  4  5  1  6
  6  4  1  0
  6  7  2  0
  9  8  1  6
  9 11  1  0
  9 10  1  0
 10  6  1  0
 11 18  1  0
 12 11  2  0
 14 13  1  0
 15 14  1  0
 16 15  1  0
 17 16  1  1
 18 17  1  0
 19 17  1  0
 20 19  2  0
 21 19  1  0
M  END
$$$$
