VAM.pdb
     RDKit          3D

 21 20  0  0  1  0  0  0  0  0999 V2000
    7.8838  -12.3729   18.4062 C   0  0  0  0  0  0  0  0  0  0  0  0
    7.8901  -13.3024   19.5928 C   0  0  2  0  0  0  0  0  0  0  0  0
    8.7916  -12.7515   20.6691 C   0  0  0  0  0  0  0  0  0  0  0  0
    8.3033  -14.6992   19.2304 C   0  0  2  0  0  0  0  0  0  0  0  0
    7.5275  -15.2499   18.1521 N   0  0  0  0  0  0  0  0  0  0  0  0
    8.3486  -15.5993   20.4104 C   0  0  0  0  0  0  0  0  0  0  0  0
    7.2775  -15.8808   21.0089 O   0  0  0  0  0  0  0  0  0  0  0  0
   10.8613  -17.8408   21.9872 C   0  0  0  0  0  0  0  0  0  0  0  0
    9.5980  -16.9861   22.1027 C   0  0  2  0  0  0  0  0  0  0  0  0
    9.5398  -16.1693   20.9119 N   0  0  0  0  0  0  0  0  0  0  0  0
    9.6965  -16.1952   23.3382 C   0  0  0  0  0  0  0  0  0  0  0  0
   10.4775  -15.2301   23.3982 O   0  0  0  0  0  0  0  0  0  0  0  0
    6.5114  -10.8933   26.6344 C   0  0  0  0  0  0  0  0  0  0  0  0
    6.2171  -12.6050   26.1397 S   0  0  0  0  0  0  0  0  0  0  0  0
    7.7553  -13.5345   26.0893 C   0  0  0  0  0  0  0  0  0  0  0  0
    7.6711  -14.9499   25.7127 C   0  0  0  0  0  0  0  0  0  0  0  0
    8.9596  -15.6807   25.6633 C   0  0  2  0  0  0  0  0  0  0  0  0
    8.9040  -16.5365   24.4470 N   0  0  0  0  0  0  0  0  0  0  0  0
    9.1962  -16.5981   26.7677 C   0  0  0  0  0  0  0  0  0  0  0  0
    8.7683  -17.8096   26.6612 O   0  0  0  0  0  0  0  0  0  0  0  0
    9.8590  -16.3050   27.9576 O   0  0  0  0  0  0  0  0  0  0  0  0
  2  1  1  6
  3  2  1  0
  4  2  1  0
  4  5  1  6
  6  4  1  0
  6  7  2  0
  9  8  1  6
  9 11  1  0
  9 10  1  0
 10  6  1  0
 11 18  1  0
 12 11  2  0
 14 13  1  0
 15 14  1  0
 16 15  1  0
 17 16  1  1
 18 17  1  0
 19 17  1  0
 20 19  2  0
 21 19  1  0
M  END
$$$$
