VAM.pdb
     RDKit          3D

 21 20  0  0  1  0  0  0  0  0999 V2000
   11.9182  -16.2851   20.1829 C   0  0  0  0  0  0  0  0  0  0  0  0
   11.4395  -17.6277   19.6928 C   0  0  2  0  0  0  0  0  0  0  0  0
   12.2662  -18.0645   18.5094 C   0  0  0  0  0  0  0  0  0  0  0  0
    9.9809  -17.6270   19.3387 C   0  0  2  0  0  0  0  0  0  0  0  0
    9.6947  -16.8711   18.1493 N   0  0  0  0  0  0  0  0  0  0  0  0
    9.1219  -17.2272   20.4819 C   0  0  0  0  0  0  0  0  0  0  0  0
    8.7417  -16.0308   20.5748 O   0  0  0  0  0  0  0  0  0  0  0  0
    7.3376  -19.0370   23.2242 C   0  0  0  0  0  0  0  0  0  0  0  0
    7.8477  -17.7399   22.5941 C   0  0  2  0  0  0  0  0  0  0  0  0
    8.6974  -18.1219   21.4893 N   0  0  0  0  0  0  0  0  0  0  0  0
    8.5607  -16.9808   23.6321 C   0  0  0  0  0  0  0  0  0  0  0  0
    9.7937  -17.0894   23.7454 O   0  0  0  0  0  0  0  0  0  0  0  0
    6.9302  -10.7371   26.6986 C   0  0  0  0  0  0  0  0  0  0  0  0
    6.2043  -11.9339   25.5575 S   0  0  0  0  0  0  0  0  0  0  0  0
    7.4150  -13.1670   25.0612 C   0  0  0  0  0  0  0  0  0  0  0  0
    7.6402  -14.2915   25.9761 C   0  0  0  0  0  0  0  0  0  0  0  0
    8.5842  -15.3300   25.4997 C   0  0  2  0  0  0  0  0  0  0  0  0
    7.8409  -16.1346   24.4921 N   0  0  0  0  0  0  0  0  0  0  0  0
    9.0186  -16.2845   26.5085 C   0  0  0  0  0  0  0  0  0  0  0  0
    8.3089  -17.3443   26.6960 O   0  0  0  0  0  0  0  0  0  0  0  0
   10.1525  -16.1795   27.3111 O   0  0  0  0  0  0  0  0  0  0  0  0
  2  1  1  6
  3  2  1  0
  4  2  1  0
  4  5  1  6
  6  4  1  0
  6  7  2  0
  9  8  1  1
  9 11  1  0
  9 10  1  0
 10  6  1  0
 11 18  1  0
 12 11  2  0
 14 13  1  0
 15 14  1  0
 16 15  1  0
 17 16  1  1
 18 17  1  0
 19 17  1  0
 20 19  2  0
 21 19  1  0
M  END
$$$$
