VAM.pdb
     RDKit          3D

 21 20  0  0  1  0  0  0  0  0999 V2000
    3.0138  -19.8784   21.1829 C   0  0  0  0  0  0  0  0  0  0  0  0
    4.1522  -19.0658   21.7448 C   0  0  2  0  0  0  0  0  0  0  0  0
    3.6087  -17.9298   22.5748 C   0  0  0  0  0  0  0  0  0  0  0  0
    5.0688  -18.5407   20.6784 C   0  0  2  0  0  0  0  0  0  0  0  0
    5.5601  -19.5726   19.8056 N   0  0  0  0  0  0  0  0  0  0  0  0
    6.1621  -17.7040   21.2345 C   0  0  0  0  0  0  0  0  0  0  0  0
    7.1090  -18.2609   21.8492 O   0  0  0  0  0  0  0  0  0  0  0  0
    6.9070  -14.0271   21.3432 C   0  0  0  0  0  0  0  0  0  0  0  0
    7.2762  -15.4812   21.6418 C   0  0  2  0  0  0  0  0  0  0  0  0
    6.2062  -16.2972   21.1146 N   0  0  0  0  0  0  0  0  0  0  0  0
    7.4406  -15.6182   23.0965 C   0  0  0  0  0  0  0  0  0  0  0  0
    6.4406  -15.6810   23.8321 O   0  0  0  0  0  0  0  0  0  0  0  0
    5.8784  -19.3628   26.2514 C   0  0  0  0  0  0  0  0  0  0  0  0
    7.4716  -19.2942   27.0988 S   0  0  0  0  0  0  0  0  0  0  0  0
    8.3340  -17.7612   26.7260 C   0  0  0  0  0  0  0  0  0  0  0  0
    8.2270  -17.2481   25.3558 C   0  0  0  0  0  0  0  0  0  0  0  0
    8.8818  -15.9425   25.1043 C   0  0  2  0  0  0  0  0  0  0  0  0
    8.7315  -15.6775   23.6475 N   0  0  0  0  0  0  0  0  0  0  0  0
   10.3148  -15.9077   25.3549 C   0  0  0  0  0  0  0  0  0  0  0  0
   11.1159  -16.0067   24.3497 O   0  0  0  0  0  0  0  0  0  0  0  0
   10.9332  -15.7681   26.5955 O   0  0  0  0  0  0  0  0  0  0  0  0
  2  1  1  6
  3  2  1  0
  4  2  1  0
  4  5  1  1
  6  4  1  0
  6  7  2  0
  9  8  1  1
  9 11  1  0
  9 10  1  0
 10  6  1  0
 11 18  1  0
 12 11  2  0
 14 13  1  0
 15 14  1  0
 16 15  1  0
 17 16  1  6
 18 17  1  0
 19 17  1  0
 20 19  2  0
 21 19  1  0
M  END
$$$$
