GGR.pdb
     RDKit          3D

 20 19  0  0  1  0  0  0  0  0999 V2000
   11.0164  -14.6411    4.7312 N   0  0  0  0  0  0  0  0  0  0  0  0
   11.2307  -16.0808    4.7916 C   0  0  0  0  0  0  0  0  0  0  0  0
   12.5389  -16.4144    4.1840 C   0  0  0  0  0  0  0  0  0  0  0  0
   13.3229  -15.5383    3.7406 O   0  0  0  0  0  0  0  0  0  0  0  0
   12.9384  -17.7736    4.0916 N   0  0  0  0  0  0  0  0  0  0  0  0
   14.1274  -18.2277    3.4202 C   0  0  0  0  0  0  0  0  0  0  0  0
   14.2596  -19.6910    3.5931 C   0  0  0  0  0  0  0  0  0  0  0  0
   13.3622  -20.3168    4.1946 O   0  0  0  0  0  0  0  0  0  0  0  0
   14.2898  -24.0627   -3.3488 N   0  0  0  0  0  0  0  0  0  0  0  0
   13.6046  -22.9839   -2.7317 C   0  0  0  0  0  0  0  0  0  0  0  0
   12.8566  -22.2300   -3.4644 N   0  0  0  0  0  0  0  0  0  0  0  0
   13.7022  -22.6987   -1.3553 N   0  0  0  0  0  0  0  0  0  0  0  0
   14.9805  -22.8348   -0.5957 C   0  0  0  0  0  0  0  0  0  0  0  0
   14.6601  -22.4283    0.7888 C   0  0  0  0  0  0  0  0  0  0  0  0
   15.6697  -22.3185    1.8300 C   0  0  0  0  0  0  0  0  0  0  0  0
   15.4039  -21.8572    3.2063 C   0  0  2  0  0  0  0  0  0  0  0  0
   15.3796  -20.3659    3.0900 N   0  0  0  0  0  0  0  0  0  0  0  0
   16.3594  -22.1231    4.2638 C   0  0  0  0  0  0  0  0  0  0  0  0
   17.1825  -21.3150    4.7129 O   0  0  0  0  0  0  0  0  0  0  0  0
   16.3915  -23.4016    4.8651 O   0  0  0  0  0  0  0  0  0  0  0  0
  2  1  1  0
  3  2  1  0
  4  3  2  0
  5  3  1  0
  6  5  1  0
  7  6  1  0
  7 17  1  0
  8  7  2  0
  9 10  1  0
 10 12  1  0
 11 10  2  0
 12 13  1  0
 13 14  1  0
 14 15  1  0
 16 15  1  6
 16 17  1  0
 18 20  1  0
 18 16  1  0
 19 18  2  0
M  END
$$$$
