GGR.pdb
     RDKit          3D

 20 19  0  0  1  0  0  0  0  0999 V2000
   18.5576  -25.4935   -8.3483 N   0  0  0  0  0  0  0  0  0  0  0  0
   18.3519  -24.1180   -8.7820 C   0  0  0  0  0  0  0  0  0  0  0  0
   18.4698  -24.0388  -10.2557 C   0  0  0  0  0  0  0  0  0  0  0  0
   19.0659  -24.9114  -10.9355 O   0  0  0  0  0  0  0  0  0  0  0  0
   17.8913  -22.9396  -10.9433 N   0  0  0  0  0  0  0  0  0  0  0  0
   17.8932  -22.7832  -12.3737 C   0  0  0  0  0  0  0  0  0  0  0  0
   18.5180  -21.4890  -12.7247 C   0  0  0  0  0  0  0  0  0  0  0  0
   18.3684  -20.5132  -11.9604 O   0  0  0  0  0  0  0  0  0  0  0  0
   25.4579  -23.2459  -12.9957 N   0  0  0  0  0  0  0  0  0  0  0  0
   24.5215  -23.2429  -14.0621 C   0  0  0  0  0  0  0  0  0  0  0  0
   24.4038  -24.3079  -14.7811 N   0  0  0  0  0  0  0  0  0  0  0  0
   23.7129  -22.1312  -14.3714 N   0  0  0  0  0  0  0  0  0  0  0  0
   23.7177  -20.8824  -13.5527 C   0  0  0  0  0  0  0  0  0  0  0  0
   22.2945  -20.5699  -13.3044 C   0  0  0  0  0  0  0  0  0  0  0  0
   21.3344  -20.3684  -14.3782 C   0  0  0  0  0  0  0  0  0  0  0  0
   19.9109  -20.0370  -14.1750 C   0  0  2  0  0  0  0  0  0  0  0  0
   19.2667  -21.3594  -13.9019 N   0  0  0  0  0  0  0  0  0  0  0  0
   19.1306  -19.4701  -15.2575 C   0  0  0  0  0  0  0  0  0  0  0  0
   18.5090  -20.1134  -16.1131 O   0  0  0  0  0  0  0  0  0  0  0  0
   19.0420  -18.0657  -15.3879 O   0  0  0  0  0  0  0  0  0  0  0  0
  2  1  1  0
  3  2  1  0
  4  3  2  0
  5  3  1  0
  6  5  1  0
  7  6  1  0
  7 17  1  0
  8  7  2  0
  9 10  1  0
 10 12  1  0
 11 10  2  0
 12 13  1  0
 13 14  1  0
 14 15  1  0
 16 15  1  6
 16 17  1  0
 18 20  1  0
 18 16  1  0
 19 18  2  0
M  END
$$$$
