GGR.pdb
     RDKit          3D

 20 19  0  0  1  0  0  0  0  0999 V2000
   27.0337  -24.1326  -15.8901 N   0  0  0  0  0  0  0  0  0  0  0  0
   26.6825  -22.7355  -15.6730 C   0  0  0  0  0  0  0  0  0  0  0  0
   25.7208  -22.6334  -14.5520 C   0  0  0  0  0  0  0  0  0  0  0  0
   24.6888  -23.3463  -14.4777 O   0  0  0  0  0  0  0  0  0  0  0  0
   25.9600  -21.6977  -13.5113 N   0  0  0  0  0  0  0  0  0  0  0  0
   25.1342  -21.5539  -12.3416 C   0  0  0  0  0  0  0  0  0  0  0  0
   23.9803  -20.6845  -12.6597 C   0  0  0  0  0  0  0  0  0  0  0  0
   23.4886  -19.9716  -11.7605 O   0  0  0  0  0  0  0  0  0  0  0  0
   26.4346  -17.3620  -14.9886 N   0  0  0  0  0  0  0  0  0  0  0  0
   25.9812  -16.4321  -15.9601 C   0  0  0  0  0  0  0  0  0  0  0  0
   26.8508  -15.6786  -16.5440 N   0  0  0  0  0  0  0  0  0  0  0  0
   24.6253  -16.2945  -16.3179 N   0  0  0  0  0  0  0  0  0  0  0  0
   23.5234  -16.9581  -15.5595 C   0  0  0  0  0  0  0  0  0  0  0  0
   23.4898  -18.3508  -16.0535 C   0  0  0  0  0  0  0  0  0  0  0  0
   22.4935  -19.3164  -15.6172 C   0  0  0  0  0  0  0  0  0  0  0  0
   22.2971  -19.7399  -14.2173 C   0  0  2  0  0  0  0  0  0  0  0  0
   23.4445  -20.6633  -13.9541 N   0  0  0  0  0  0  0  0  0  0  0  0
   21.1233  -20.5038  -13.8425 C   0  0  0  0  0  0  0  0  0  0  0  0
   20.1240  -20.0553  -13.2659 O   0  0  0  0  0  0  0  0  0  0  0  0
   21.0689  -21.8842  -14.1408 O   0  0  0  0  0  0  0  0  0  0  0  0
  2  1  1  0
  3  2  1  0
  4  3  2  0
  5  3  1  0
  6  5  1  0
  7  6  1  0
  7 17  1  0
  8  7  2  0
  9 10  1  0
 10 12  1  0
 11 10  2  0
 12 13  1  0
 13 14  1  0
 14 15  1  0
 16 15  1  6
 16 17  1  0
 18 20  1  0
 18 16  1  0
 19 18  2  0
M  END
$$$$
