GGR.pdb
     RDKit          3D

 20 19  0  0  1  0  0  0  0  0999 V2000
   25.2478  -19.3865  -18.7837 N   0  0  0  0  0  0  0  0  0  0  0  0
   24.7684  -19.5963  -17.4241 C   0  0  0  0  0  0  0  0  0  0  0  0
   25.2473  -18.4988  -16.5534 C   0  0  0  0  0  0  0  0  0  0  0  0
   24.4820  -17.6124  -16.0979 O   0  0  0  0  0  0  0  0  0  0  0  0
   26.6232  -18.4312  -16.2100 N   0  0  0  0  0  0  0  0  0  0  0  0
   27.1757  -17.5214  -15.2416 C   0  0  0  0  0  0  0  0  0  0  0  0
   27.1090  -18.1360  -13.8975 C   0  0  0  0  0  0  0  0  0  0  0  0
   27.6238  -17.5397  -12.9289 O   0  0  0  0  0  0  0  0  0  0  0  0
   20.2518  -21.5277   -9.7207 N   0  0  0  0  0  0  0  0  0  0  0  0
   21.3958  -21.5177   -8.8808 C   0  0  0  0  0  0  0  0  0  0  0  0
   21.2570  -21.8697   -7.6472 N   0  0  0  0  0  0  0  0  0  0  0  0
   22.6769  -21.1427   -9.3320 N   0  0  0  0  0  0  0  0  0  0  0  0
   22.9427  -20.7314  -10.7427 C   0  0  0  0  0  0  0  0  0  0  0  0
   24.3624  -20.3211  -10.7713 C   0  0  0  0  0  0  0  0  0  0  0  0
   24.9866  -19.7288  -11.9440 C   0  0  0  0  0  0  0  0  0  0  0  0
   26.4006  -19.9160  -12.3224 C   0  0  2  0  0  0  0  0  0  0  0  0
   26.4778  -19.3733  -13.7144 N   0  0  0  0  0  0  0  0  0  0  0  0
   26.9604  -21.2497  -12.4214 C   0  0  0  0  0  0  0  0  0  0  0  0
   27.0365  -21.9256  -13.4556 O   0  0  0  0  0  0  0  0  0  0  0  0
   27.4769  -21.8736  -11.2633 O   0  0  0  0  0  0  0  0  0  0  0  0
  2  1  1  0
  3  2  1  0
  4  3  2  0
  5  3  1  0
  6  5  1  0
  7  6  1  0
  7 17  1  0
  8  7  2  0
  9 10  1  0
 10 12  1  0
 11 10  2  0
 12 13  1  0
 13 14  1  0
 14 15  1  0
 16 15  1  6
 16 17  1  0
 18 20  1  0
 18 16  1  0
 19 18  2  0
M  END
$$$$
