GGR.pdb
     RDKit          3D

 20 19  0  0  1  0  0  0  0  0999 V2000
   28.5144  -13.7563  -15.6509 N   0  0  0  0  0  0  0  0  0  0  0  0
   27.3161  -13.2906  -16.3362 C   0  0  0  0  0  0  0  0  0  0  0  0
   27.0831  -11.8641  -16.0156 C   0  0  0  0  0  0  0  0  0  0  0  0
   27.8739  -11.1908  -15.3085 O   0  0  0  0  0  0  0  0  0  0  0  0
   25.9247  -11.2164  -16.5201 N   0  0  0  0  0  0  0  0  0  0  0  0
   25.5363   -9.8710  -16.1889 C   0  0  0  0  0  0  0  0  0  0  0  0
   24.2647   -9.5457  -16.8714 C   0  0  0  0  0  0  0  0  0  0  0  0
   23.7631  -10.3788  -17.6544 O   0  0  0  0  0  0  0  0  0  0  0  0
   16.3826   -7.4565  -14.7528 N   0  0  0  0  0  0  0  0  0  0  0  0
   16.6348   -6.8007  -15.9859 C   0  0  0  0  0  0  0  0  0  0  0  0
   15.6284   -6.4287  -16.7025 N   0  0  0  0  0  0  0  0  0  0  0  0
   17.9337   -6.5356  -16.4634 N   0  0  0  0  0  0  0  0  0  0  0  0
   19.1438   -7.2237  -15.9232 C   0  0  0  0  0  0  0  0  0  0  0  0
   20.2913   -6.6055  -16.6201 C   0  0  0  0  0  0  0  0  0  0  0  0
   21.6589   -7.0704  -16.4492 C   0  0  0  0  0  0  0  0  0  0  0  0
   22.3113   -8.0802  -17.3050 C   0  0  2  0  0  0  0  0  0  0  0  0
   23.6322   -8.3165  -16.6435 N   0  0  0  0  0  0  0  0  0  0  0  0
   22.6452   -7.7668  -18.6806 C   0  0  0  0  0  0  0  0  0  0  0  0
   23.6539   -7.1562  -19.0574 O   0  0  0  0  0  0  0  0  0  0  0  0
   21.7741   -8.1736  -19.7164 O   0  0  0  0  0  0  0  0  0  0  0  0
  2  1  1  0
  3  2  1  0
  4  3  2  0
  5  3  1  0
  6  5  1  0
  7  6  1  0
  7 17  1  0
  8  7  2  0
  9 10  1  0
 10 12  1  0
 11 10  2  0
 12 13  1  0
 13 14  1  0
 14 15  1  0
 16 15  1  1
 16 17  1  0
 18 20  1  0
 18 16  1  0
 19 18  2  0
M  END
$$$$
