GGR.pdb
     RDKit          3D

 20 19  0  0  1  0  0  0  0  0999 V2000
   26.9644  -17.1779  -19.1576 N   0  0  0  0  0  0  0  0  0  0  0  0
   25.9122  -17.9862  -18.5560 C   0  0  0  0  0  0  0  0  0  0  0  0
   25.7616  -17.6233  -17.1286 C   0  0  0  0  0  0  0  0  0  0  0  0
   25.0739  -16.6431  -16.7477 O   0  0  0  0  0  0  0  0  0  0  0  0
   26.4136  -18.4041  -16.1382 N   0  0  0  0  0  0  0  0  0  0  0  0
   26.2742  -18.2007  -14.7205 C   0  0  0  0  0  0  0  0  0  0  0  0
   25.5408  -19.3422  -14.1310 C   0  0  0  0  0  0  0  0  0  0  0  0
   25.8916  -20.5054  -14.4185 O   0  0  0  0  0  0  0  0  0  0  0  0
   20.7026  -20.7899   -8.7283 N   0  0  0  0  0  0  0  0  0  0  0  0
   21.4941  -21.6778   -7.9540 C   0  0  0  0  0  0  0  0  0  0  0  0
   20.8968  -22.5645   -7.2317 N   0  0  0  0  0  0  0  0  0  0  0  0
   22.9025  -21.6368   -7.9387 N   0  0  0  0  0  0  0  0  0  0  0  0
   23.6836  -20.5972   -8.6727 C   0  0  0  0  0  0  0  0  0  0  0  0
   23.4266  -20.8516  -10.1058 C   0  0  0  0  0  0  0  0  0  0  0  0
   24.0607  -20.0853  -11.1669 C   0  0  0  0  0  0  0  0  0  0  0  0
   23.8406  -20.3129  -12.6082 C   0  0  2  0  0  0  0  0  0  0  0  0
   24.4641  -19.1205  -13.2624 N   0  0  0  0  0  0  0  0  0  0  0  0
   22.4942  -20.3579  -13.1439 C   0  0  0  0  0  0  0  0  0  0  0  0
   21.7537  -21.3498  -13.1527 O   0  0  0  0  0  0  0  0  0  0  0  0
   21.9351  -19.1927  -13.7157 O   0  0  0  0  0  0  0  0  0  0  0  0
  2  1  1  0
  3  2  1  0
  4  3  2  0
  5  3  1  0
  6  5  1  0
  7  6  1  0
  7 17  1  0
  8  7  2  0
  9 10  1  0
 10 12  1  0
 11 10  2  0
 12 13  1  0
 13 14  1  0
 14 15  1  0
 16 15  1  1
 16 17  1  0
 18 20  1  0
 18 16  1  0
 19 18  2  0
M  END
$$$$
