GGR.pdb
     RDKit          3D

 20 19  0  0  1  0  0  0  0  0999 V2000
   28.7300  -23.5106  -16.8984 N   0  0  0  0  0  0  0  0  0  0  0  0
   28.1618  -22.2277  -17.2901 C   0  0  0  0  0  0  0  0  0  0  0  0
   27.8342  -21.4392  -16.0806 C   0  0  0  0  0  0  0  0  0  0  0  0
   27.4877  -21.9731  -14.9973 O   0  0  0  0  0  0  0  0  0  0  0  0
   27.9103  -20.0224  -16.1303 N   0  0  0  0  0  0  0  0  0  0  0  0
   27.7655  -19.1598  -14.9876 C   0  0  0  0  0  0  0  0  0  0  0  0
   26.3275  -18.9506  -14.7101 C   0  0  0  0  0  0  0  0  0  0  0  0
   25.9915  -18.2238  -13.7522 O   0  0  0  0  0  0  0  0  0  0  0  0
   19.2102  -20.2911  -14.2511 N   0  0  0  0  0  0  0  0  0  0  0  0
   18.7093  -19.5061  -15.3221 C   0  0  0  0  0  0  0  0  0  0  0  0
   17.4720  -19.6447  -15.6608 N   0  0  0  0  0  0  0  0  0  0  0  0
   19.5003  -18.5809  -16.0319 N   0  0  0  0  0  0  0  0  0  0  0  0
   20.9058  -18.2607  -15.6423 C   0  0  0  0  0  0  0  0  0  0  0  0
   21.7542  -19.1368  -16.4775 C   0  0  0  0  0  0  0  0  0  0  0  0
   23.2026  -19.1809  -16.3521 C   0  0  0  0  0  0  0  0  0  0  0  0
   23.9248  -19.4339  -15.0904 C   0  0  2  0  0  0  0  0  0  0  0  0
   25.3547  -19.5627  -15.5112 N   0  0  0  0  0  0  0  0  0  0  0  0
   23.6617  -20.6376  -14.3263 C   0  0  0  0  0  0  0  0  0  0  0  0
   24.1208  -21.7613  -14.5688 O   0  0  0  0  0  0  0  0  0  0  0  0
   22.8138  -20.5720  -13.1976 O   0  0  0  0  0  0  0  0  0  0  0  0
  2  1  1  0
  3  2  1  0
  4  3  2  0
  5  3  1  0
  6  5  1  0
  7  6  1  0
  7 17  1  0
  8  7  2  0
  9 10  1  0
 10 12  1  0
 11 10  2  0
 12 13  1  0
 13 14  1  0
 14 15  1  0
 16 15  1  6
 16 17  1  0
 18 20  1  0
 18 16  1  0
 19 18  2  0
M  END
$$$$
