GGR.pdb
     RDKit          3D

 20 19  0  0  1  0  0  0  0  0999 V2000
   26.4057  -34.1384   -4.2598 N   0  0  0  0  0  0  0  0  0  0  0  0
   25.6172  -32.9350   -4.4882 C   0  0  0  0  0  0  0  0  0  0  0  0
   24.3746  -32.9954   -3.6854 C   0  0  0  0  0  0  0  0  0  0  0  0
   24.0571  -34.0017   -3.0032 O   0  0  0  0  0  0  0  0  0  0  0  0
   23.4963  -31.8799   -3.6751 N   0  0  0  0  0  0  0  0  0  0  0  0
   22.3051  -31.7905   -2.8729 C   0  0  0  0  0  0  0  0  0  0  0  0
   21.6835  -30.4617   -3.0645 C   0  0  0  0  0  0  0  0  0  0  0  0
   22.2518  -29.6229   -3.7940 O   0  0  0  0  0  0  0  0  0  0  0  0
   15.1566  -26.0043    0.9198 N   0  0  0  0  0  0  0  0  0  0  0  0
   15.5908  -27.2842    1.3529 C   0  0  0  0  0  0  0  0  0  0  0  0
   15.0450  -27.7963    2.4039 N   0  0  0  0  0  0  0  0  0  0  0  0
   16.5897  -28.0224    0.6875 N   0  0  0  0  0  0  0  0  0  0  0  0
   16.9547  -27.7751   -0.7391 C   0  0  0  0  0  0  0  0  0  0  0  0
   17.8264  -28.9053   -1.1232 C   0  0  0  0  0  0  0  0  0  0  0  0
   18.4151  -29.0300   -2.4474 C   0  0  0  0  0  0  0  0  0  0  0  0
   19.8453  -28.8269   -2.7485 C   0  0  2  0  0  0  0  0  0  0  0  0
   20.4730  -30.1477   -2.4329 N   0  0  0  0  0  0  0  0  0  0  0  0
   20.6225  -27.8656   -1.9910 C   0  0  0  0  0  0  0  0  0  0  0  0
   21.2814  -28.1123   -0.9725 O   0  0  0  0  0  0  0  0  0  0  0  0
   20.6620  -26.5176   -2.4135 O   0  0  0  0  0  0  0  0  0  0  0  0
  2  1  1  0
  3  2  1  0
  4  3  2  0
  5  3  1  0
  6  5  1  0
  7  6  1  0
  7 17  1  0
  8  7  2  0
  9 10  1  0
 10 12  1  0
 11 10  2  0
 12 13  1  0
 13 14  1  0
 14 15  1  0
 16 15  1  1
 16 17  1  0
 18 20  1  0
 18 16  1  0
 19 18  2  0
M  END
$$$$
