GGR.pdb
     RDKit          3D

 20 19  0  0  1  0  0  0  0  0999 V2000
   23.8400  -18.4973  -18.1226 N   0  0  0  0  0  0  0  0  0  0  0  0
   23.3466  -19.7262  -17.5155 C   0  0  0  0  0  0  0  0  0  0  0  0
   23.2260  -19.5435  -16.0513 C   0  0  0  0  0  0  0  0  0  0  0  0
   23.5166  -18.4643  -15.4771 O   0  0  0  0  0  0  0  0  0  0  0  0
   22.7646  -20.6208  -15.2499 N   0  0  0  0  0  0  0  0  0  0  0  0
   22.4898  -20.5263  -13.8406 C   0  0  0  0  0  0  0  0  0  0  0  0
   21.1893  -21.1690  -13.5504 C   0  0  0  0  0  0  0  0  0  0  0  0
   20.4809  -21.5659  -14.4987 O   0  0  0  0  0  0  0  0  0  0  0  0
   18.2951  -25.2012   -6.0103 N   0  0  0  0  0  0  0  0  0  0  0  0
   17.4508  -25.4504   -7.1235 C   0  0  0  0  0  0  0  0  0  0  0  0
   16.3259  -26.0492   -6.9212 N   0  0  0  0  0  0  0  0  0  0  0  0
   17.7834  -25.0728   -8.4397 N   0  0  0  0  0  0  0  0  0  0  0  0
   19.0327  -24.3240   -8.7687 C   0  0  0  0  0  0  0  0  0  0  0  0
   18.7678  -23.6693  -10.0672 C   0  0  0  0  0  0  0  0  0  0  0  0
   19.7082  -22.7526  -10.6922 C   0  0  0  0  0  0  0  0  0  0  0  0
   19.4931  -22.0946  -11.9955 C   0  0  2  0  0  0  0  0  0  0  0  0
   20.7569  -21.3283  -12.2272 N   0  0  0  0  0  0  0  0  0  0  0  0
   18.4388  -21.1119  -12.1530 C   0  0  0  0  0  0  0  0  0  0  0  0
   18.5538  -19.8937  -11.9657 O   0  0  0  0  0  0  0  0  0  0  0  0
   17.1510  -21.5335  -12.5541 O   0  0  0  0  0  0  0  0  0  0  0  0
  2  1  1  0
  3  2  1  0
  4  3  2  0
  5  3  1  0
  6  5  1  0
  7  6  1  0
  7 17  1  0
  8  7  2  0
  9 10  1  0
 10 12  1  0
 11 10  2  0
 12 13  1  0
 13 14  1  0
 14 15  1  0
 16 15  1  1
 16 17  1  0
 18 20  1  0
 18 16  1  0
 19 18  2  0
M  END
$$$$
