GGR.pdb
     RDKit          3D

 20 19  0  0  1  0  0  0  0  0999 V2000
   22.0918  -18.1415  -16.8961 N   0  0  0  0  0  0  0  0  0  0  0  0
   22.3229  -16.7369  -16.5863 C   0  0  0  0  0  0  0  0  0  0  0  0
   23.4254  -16.6193  -15.6051 C   0  0  0  0  0  0  0  0  0  0  0  0
   23.3938  -17.1790  -14.4805 O   0  0  0  0  0  0  0  0  0  0  0  0
   24.5710  -15.8474  -15.9327 N   0  0  0  0  0  0  0  0  0  0  0  0
   25.7052  -15.6673  -15.0657 C   0  0  0  0  0  0  0  0  0  0  0  0
   26.6702  -16.7668  -15.2858 C   0  0  0  0  0  0  0  0  0  0  0  0
   27.5810  -16.6186  -16.1268 O   0  0  0  0  0  0  0  0  0  0  0  0
   26.0846  -20.4454   -9.1533 N   0  0  0  0  0  0  0  0  0  0  0  0
   24.9978  -20.8556   -9.9687 C   0  0  0  0  0  0  0  0  0  0  0  0
   23.8088  -20.8303   -9.4682 N   0  0  0  0  0  0  0  0  0  0  0  0
   25.1568  -21.2880  -11.3004 N   0  0  0  0  0  0  0  0  0  0  0  0
   26.4825  -21.3008  -11.9875 C   0  0  0  0  0  0  0  0  0  0  0  0
   26.6622  -19.9337  -12.5198 C   0  0  0  0  0  0  0  0  0  0  0  0
   27.7854  -19.5599  -13.3650 C   0  0  0  0  0  0  0  0  0  0  0  0
   27.6579  -18.9680  -14.7107 C   0  0  2  0  0  0  0  0  0  0  0  0
   26.5618  -17.9609  -14.5610 N   0  0  0  0  0  0  0  0  0  0  0  0
   27.2467  -19.7876  -15.8338 C   0  0  0  0  0  0  0  0  0  0  0  0
   26.1228  -19.7897  -16.3525 O   0  0  0  0  0  0  0  0  0  0  0  0
   28.1751  -20.6765  -16.4212 O   0  0  0  0  0  0  0  0  0  0  0  0
  2  1  1  0
  3  2  1  0
  4  3  2  0
  5  3  1  0
  6  5  1  0
  7  6  1  0
  7 17  1  0
  8  7  2  0
  9 10  1  0
 10 12  1  0
 11 10  2  0
 12 13  1  0
 13 14  1  0
 14 15  1  0
 16 15  1  1
 16 17  1  0
 18 20  1  0
 18 16  1  0
 19 18  2  0
M  END
$$$$
