GGR.pdb
     RDKit          3D

 20 19  0  0  1  0  0  0  0  0999 V2000
   34.5797   -4.9339  -14.6597 N   0  0  0  0  0  0  0  0  0  0  0  0
   33.7353   -5.7937  -15.4782 C   0  0  0  0  0  0  0  0  0  0  0  0
   34.3411   -7.1414  -15.5719 C   0  0  0  0  0  0  0  0  0  0  0  0
   35.4362   -7.4311  -15.0282 O   0  0  0  0  0  0  0  0  0  0  0  0
   33.6702   -8.1582  -16.3011 N   0  0  0  0  0  0  0  0  0  0  0  0
   34.1987   -9.4766  -16.5320 C   0  0  0  0  0  0  0  0  0  0  0  0
   33.1780  -10.3013  -17.2152 C   0  0  0  0  0  0  0  0  0  0  0  0
   33.4733  -11.4589  -17.5779 O   0  0  0  0  0  0  0  0  0  0  0  0
   24.4736  -11.2685  -15.5526 N   0  0  0  0  0  0  0  0  0  0  0  0
   24.8355  -11.8565  -16.7925 C   0  0  0  0  0  0  0  0  0  0  0  0
   23.9520  -12.5523  -17.4251 N   0  0  0  0  0  0  0  0  0  0  0  0
   26.1148  -11.7144  -17.3659 N   0  0  0  0  0  0  0  0  0  0  0  0
   27.2018  -10.9223  -16.7174 C   0  0  0  0  0  0  0  0  0  0  0  0
   28.3787  -11.0755  -17.5983 C   0  0  0  0  0  0  0  0  0  0  0  0
   29.6922  -10.5541  -17.2541 C   0  0  0  0  0  0  0  0  0  0  0  0
   30.8940  -10.6928  -18.0991 C   0  0  2  0  0  0  0  0  0  0  0  0
   31.8963   -9.7885  -17.4543 N   0  0  0  0  0  0  0  0  0  0  0  0
   30.8649  -10.2718  -19.4862 C   0  0  0  0  0  0  0  0  0  0  0  0
   31.2110   -9.1619  -19.9110 O   0  0  0  0  0  0  0  0  0  0  0  0
   30.4101  -11.1725  -20.4757 O   0  0  0  0  0  0  0  0  0  0  0  0
  2  1  1  0
  3  2  1  0
  4  3  2  0
  5  3  1  0
  6  5  1  0
  7  6  1  0
  7 17  1  0
  8  7  2  0
  9 10  1  0
 10 12  1  0
 11 10  2  0
 12 13  1  0
 13 14  1  0
 14 15  1  0
 16 15  1  1
 16 17  1  0
 18 20  1  0
 18 16  1  0
 19 18  2  0
M  END
$$$$
