GGR.pdb
     RDKit          3D

 20 19  0  0  1  0  0  0  0  0999 V2000
   23.3409  -28.2700  -17.9760 N   0  0  0  0  0  0  0  0  0  0  0  0
   22.1466  -28.1688  -17.1481 C   0  0  0  0  0  0  0  0  0  0  0  0
   22.4126  -27.2732  -15.9995 C   0  0  0  0  0  0  0  0  0  0  0  0
   23.5209  -26.7079  -15.8239 O   0  0  0  0  0  0  0  0  0  0  0  0
   21.3848  -27.0330  -15.0500 N   0  0  0  0  0  0  0  0  0  0  0  0
   21.5359  -26.2110  -13.8786 C   0  0  0  0  0  0  0  0  0  0  0  0
   20.2787  -26.2321  -13.0992 C   0  0  0  0  0  0  0  0  0  0  0  0
   19.7219  -27.3260  -12.8709 O   0  0  0  0  0  0  0  0  0  0  0  0
   18.2620  -24.7452   -5.1879 N   0  0  0  0  0  0  0  0  0  0  0  0
   17.2805  -25.5399   -5.8356 C   0  0  0  0  0  0  0  0  0  0  0  0
   16.2208  -25.8677   -5.1765 N   0  0  0  0  0  0  0  0  0  0  0  0
   17.4089  -25.9863   -7.1659 N   0  0  0  0  0  0  0  0  0  0  0  0
   18.4193  -25.4207   -8.1086 C   0  0  0  0  0  0  0  0  0  0  0  0
   18.2610  -26.1889   -9.3614 C   0  0  0  0  0  0  0  0  0  0  0  0
   19.0348  -25.9068  -10.5603 C   0  0  0  0  0  0  0  0  0  0  0  0
   18.5342  -25.1385  -11.7164 C   0  0  2  0  0  0  0  0  0  0  0  0
   19.7186  -25.0387  -12.6250 N   0  0  0  0  0  0  0  0  0  0  0  0
   18.0905  -23.7687  -11.5469 C   0  0  0  0  0  0  0  0  0  0  0  0
   18.7924  -22.7594  -11.6920 O   0  0  0  0  0  0  0  0  0  0  0  0
   16.7484  -23.5133  -11.1854 O   0  0  0  0  0  0  0  0  0  0  0  0
  2  1  1  0
  3  2  1  0
  4  3  2  0
  5  3  1  0
  6  5  1  0
  7  6  1  0
  7 17  1  0
  8  7  2  0
  9 10  1  0
 10 12  1  0
 11 10  2  0
 12 13  1  0
 13 14  1  0
 14 15  1  0
 16 15  1  1
 16 17  1  0
 18 20  1  0
 18 16  1  0
 19 18  2  0
M  END
$$$$
