GGR.pdb
     RDKit          3D

 20 19  0  0  1  0  0  0  0  0999 V2000
   25.5811  -13.7849  -18.7500 N   0  0  0  0  0  0  0  0  0  0  0  0
   25.1498  -14.8696  -17.8784 C   0  0  0  0  0  0  0  0  0  0  0  0
   26.2214  -15.8868  -17.7835 C   0  0  0  0  0  0  0  0  0  0  0  0
   27.4388  -15.6019  -17.9085 O   0  0  0  0  0  0  0  0  0  0  0  0
   25.8763  -17.2426  -17.5418 N   0  0  0  0  0  0  0  0  0  0  0  0
   26.8301  -18.2993  -17.3311 C   0  0  0  0  0  0  0  0  0  0  0  0
   26.3232  -19.2164  -16.2869 C   0  0  0  0  0  0  0  0  0  0  0  0
   26.9224  -20.2916  -16.0774 O   0  0  0  0  0  0  0  0  0  0  0  0
   25.9012  -20.7466   -8.9058 N   0  0  0  0  0  0  0  0  0  0  0  0
   24.5251  -21.0729   -9.0240 C   0  0  0  0  0  0  0  0  0  0  0  0
   23.8256  -21.1911   -7.9462 N   0  0  0  0  0  0  0  0  0  0  0  0
   23.8866  -21.2723  -10.2642 N   0  0  0  0  0  0  0  0  0  0  0  0
   24.6028  -21.1352  -11.5672 C   0  0  0  0  0  0  0  0  0  0  0  0
   24.4292  -19.7221  -11.9641 C   0  0  0  0  0  0  0  0  0  0  0  0
   24.8890  -19.2017  -13.2421 C   0  0  0  0  0  0  0  0  0  0  0  0
   24.6924  -19.8776  -14.5391 C   0  0  2  0  0  0  0  0  0  0  0  0
   25.1832  -18.8834  -15.5436 N   0  0  0  0  0  0  0  0  0  0  0  0
   23.3577  -20.2201  -14.9899 C   0  0  0  0  0  0  0  0  0  0  0  0
   22.5302  -19.4297  -15.4618 O   0  0  0  0  0  0  0  0  0  0  0  0
   22.9184  -21.5606  -14.9034 O   0  0  0  0  0  0  0  0  0  0  0  0
  2  1  1  0
  3  2  1  0
  4  3  2  0
  5  3  1  0
  6  5  1  0
  7  6  1  0
  7 17  1  0
  8  7  2  0
  9 10  1  0
 10 12  1  0
 11 10  2  0
 12 13  1  0
 13 14  1  0
 14 15  1  0
 16 15  1  1
 16 17  1  0
 18 20  1  0
 18 16  1  0
 19 18  2  0
M  END
$$$$
