GGR.pdb
     RDKit          3D

 20 19  0  0  1  0  0  0  0  0999 V2000
   15.3002  -24.5579  -11.9340 N   0  0  0  0  0  0  0  0  0  0  0  0
   16.3190  -25.5988  -11.9045 C   0  0  0  0  0  0  0  0  0  0  0  0
   17.4032  -25.2067  -10.9756 C   0  0  0  0  0  0  0  0  0  0  0  0
   17.9894  -24.0977  -11.0484 O   0  0  0  0  0  0  0  0  0  0  0  0
   17.8081  -26.1083   -9.9564 N   0  0  0  0  0  0  0  0  0  0  0  0
   18.8559  -25.8439   -9.0062 C   0  0  0  0  0  0  0  0  0  0  0  0
   18.2565  -25.5125   -7.6949 C   0  0  0  0  0  0  0  0  0  0  0  0
   19.0039  -25.1969   -6.7459 O   0  0  0  0  0  0  0  0  0  0  0  0
   12.7028  -20.3726  -10.0814 N   0  0  0  0  0  0  0  0  0  0  0  0
   14.0735  -20.7404  -10.0716 C   0  0  0  0  0  0  0  0  0  0  0  0
   14.7880  -20.4811  -11.1142 N   0  0  0  0  0  0  0  0  0  0  0  0
   14.6910  -21.3744   -8.9751 N   0  0  0  0  0  0  0  0  0  0  0  0
   14.3803  -22.7809   -8.5816 C   0  0  0  0  0  0  0  0  0  0  0  0
   15.1387  -23.0168   -7.3350 C   0  0  0  0  0  0  0  0  0  0  0  0
   15.1122  -24.2867   -6.6265 C   0  0  0  0  0  0  0  0  0  0  0  0
   16.3130  -25.0456   -6.2265 C   0  0  2  0  0  0  0  0  0  0  0  0
   16.8671  -25.5545   -7.5196 N   0  0  0  0  0  0  0  0  0  0  0  0
   16.1879  -26.2270   -5.3955 C   0  0  0  0  0  0  0  0  0  0  0  0
   16.2004  -27.3974   -5.7982 O   0  0  0  0  0  0  0  0  0  0  0  0
   16.0368  -26.0799   -3.9980 O   0  0  0  0  0  0  0  0  0  0  0  0
  2  1  1  0
  3  2  1  0
  4  3  2  0
  5  3  1  0
  6  5  1  0
  7  6  1  0
  7 17  1  0
  8  7  2  0
  9 10  1  0
 10 12  1  0
 11 10  2  0
 12 13  1  0
 13 14  1  0
 14 15  1  0
 16 15  1  6
 16 17  1  0
 18 20  1  0
 18 16  1  0
 19 18  2  0
M  END
$$$$
