GGR.pdb
     RDKit          3D

 20 19  0  0  1  0  0  0  0  0999 V2000
   36.6219   -7.1692  -13.2951 N   0  0  0  0  0  0  0  0  0  0  0  0
   35.3941   -7.4116  -14.0408 C   0  0  0  0  0  0  0  0  0  0  0  0
   35.7252   -7.9209  -15.3910 C   0  0  0  0  0  0  0  0  0  0  0  0
   36.9075   -8.1061  -15.7740 O   0  0  0  0  0  0  0  0  0  0  0  0
   34.6764   -8.2169  -16.3010 N   0  0  0  0  0  0  0  0  0  0  0  0
   34.8737   -8.7420  -17.6261 C   0  0  0  0  0  0  0  0  0  0  0  0
   33.5622   -8.8949  -18.2933 C   0  0  0  0  0  0  0  0  0  0  0  0
   33.5265   -9.1637  -19.5120 O   0  0  0  0  0  0  0  0  0  0  0  0
   26.4631  -13.4475  -15.5928 N   0  0  0  0  0  0  0  0  0  0  0  0
   26.3030  -12.9006  -16.8925 C   0  0  0  0  0  0  0  0  0  0  0  0
   25.2835  -13.2671  -17.5934 N   0  0  0  0  0  0  0  0  0  0  0  0
   27.2051  -11.9744  -17.4528 N   0  0  0  0  0  0  0  0  0  0  0  0
   28.5018  -11.6220  -16.8016 C   0  0  0  0  0  0  0  0  0  0  0  0
   29.1085  -10.5893  -17.6677 C   0  0  0  0  0  0  0  0  0  0  0  0
   30.4020   -9.9870  -17.3859 C   0  0  0  0  0  0  0  0  0  0  0  0
   31.0854   -9.0231  -18.2700 C   0  0  2  0  0  0  0  0  0  0  0  0
   32.3747   -8.7378  -17.5667 N   0  0  0  0  0  0  0  0  0  0  0  0
   30.5070   -7.7159  -18.5120 C   0  0  0  0  0  0  0  0  0  0  0  0
   30.7045   -6.7018  -17.8302 O   0  0  0  0  0  0  0  0  0  0  0  0
   29.6362   -7.5345  -19.6102 O   0  0  0  0  0  0  0  0  0  0  0  0
  2  1  1  0
  3  2  1  0
  4  3  2  0
  5  3  1  0
  6  5  1  0
  7  6  1  0
  7 17  1  0
  8  7  2  0
  9 10  1  0
 10 12  1  0
 11 10  2  0
 12 13  1  0
 13 14  1  0
 14 15  1  0
 16 15  1  1
 16 17  1  0
 18 20  1  0
 18 16  1  0
 19 18  2  0
M  END
$$$$
