DVQ.pdb
     RDKit          3D

 25 24  0  0  1  0  0  0  0  0999 V2000
    8.1601  -17.2600   16.7360 N   0  0  0  0  0  0  0  0  0  0  0  0
    9.5764  -17.0793   16.9738 C   0  0  1  0  0  0  0  0  0  0  0  0
   10.3146  -16.6197   15.7599 C   0  0  0  0  0  0  0  0  0  0  0  0
   10.1017  -17.5771   14.6565 C   0  0  0  0  0  0  0  0  0  0  0  0
    9.8401  -18.7716   14.8938 O   0  0  0  0  0  0  0  0  0  0  0  0
    9.8266  -16.2199   18.1569 C   0  0  0  0  0  0  0  0  0  0  0  0
   11.0082  -16.0508   18.5334 O   0  0  0  0  0  0  0  0  0  0  0  0
   10.1922  -17.1437   13.3518 O   0  0  0  0  0  0  0  0  0  0  0  0
    7.6542  -13.3870   21.6266 C   0  0  0  0  0  0  0  0  0  0  0  0
    7.5978  -14.1007   20.3041 C   0  0  1  0  0  0  0  0  0  0  0  0
    7.4558  -13.0775   19.1834 C   0  0  0  0  0  0  0  0  0  0  0  0
    8.8707  -14.8810   20.0687 C   0  0  2  0  0  0  0  0  0  0  0  0
    8.7457  -15.6057   18.8454 N   0  0  0  0  0  0  0  0  0  0  0  0
    9.0317  -15.7747   21.2489 C   0  0  0  0  0  0  0  0  0  0  0  0
    8.3424  -16.7738   21.4839 O   0  0  0  0  0  0  0  0  0  0  0  0
   14.7737  -16.4848   23.0658 N   0  0  0  0  0  0  0  0  0  0  0  0
   14.2004  -17.4270   23.9560 C   0  0  0  0  0  0  0  0  0  0  0  0
   14.8810  -18.2004   24.6845 O   0  0  0  0  0  0  0  0  0  0  0  0
   12.6964  -17.4941   24.0239 C   0  0  0  0  0  0  0  0  0  0  0  0
   12.0955  -16.4973   23.0602 C   0  0  0  0  0  0  0  0  0  0  0  0
   10.6147  -16.4181   23.0819 C   0  0  2  0  0  0  0  0  0  0  0  0
   10.0685  -15.4311   22.1691 N   0  0  0  0  0  0  0  0  0  0  0  0
   10.1840  -16.1171   24.4885 C   0  0  0  0  0  0  0  0  0  0  0  0
    9.8831  -14.9377   24.7810 O   0  0  0  0  0  0  0  0  0  0  0  0
   10.1072  -17.0880   25.4621 O   0  0  0  0  0  0  0  0  0  0  0  0
  2  1  1  6
  2  6  1  0
  2  3  1  0
  3  4  1  0
  4  5  2  0
  6 13  1  0
  7  6  2  0
  8  4  1  0
 10  9  1  1
 11 10  1  0
 12 10  1  0
 12 13  1  6
 14 15  2  0
 14 12  1  0
 16 17  1  0
 17 19  1  0
 18 17  2  0
 19 20  1  0
 21 22  1  0
 21 20  1  1
 22 14  1  0
 23 21  1  0
 24 23  2  0
 25 23  1  0
M  END
$$$$
