DVQ.pdb
     RDKit          3D

 25 24  0  0  1  0  0  0  0  0999 V2000
    8.6056  -14.9686   20.7220 N   0  0  0  0  0  0  0  0  0  0  0  0
    7.9677  -15.4798   21.9165 C   0  0  1  0  0  0  0  0  0  0  0  0
    7.9444  -16.9719   21.9686 C   0  0  0  0  0  0  0  0  0  0  0  0
    7.3157  -17.5024   20.7427 C   0  0  0  0  0  0  0  0  0  0  0  0
    7.8554  -17.3416   19.6316 O   0  0  0  0  0  0  0  0  0  0  0  0
    8.5382  -14.8718   23.1436 C   0  0  0  0  0  0  0  0  0  0  0  0
    9.7795  -14.7312   23.2192 O   0  0  0  0  0  0  0  0  0  0  0  0
    6.1210  -18.1830   20.8298 O   0  0  0  0  0  0  0  0  0  0  0  0
    7.4706  -12.6088   27.4286 C   0  0  0  0  0  0  0  0  0  0  0  0
    7.0150  -13.2062   26.1260 C   0  0  1  0  0  0  0  0  0  0  0  0
    6.5637  -12.0918   25.1893 C   0  0  0  0  0  0  0  0  0  0  0  0
    8.1494  -13.9495   25.4587 C   0  0  2  0  0  0  0  0  0  0  0  0
    7.6905  -14.4612   24.2078 N   0  0  0  0  0  0  0  0  0  0  0  0
    8.5505  -15.0272   26.4049 C   0  0  0  0  0  0  0  0  0  0  0  0
    7.8153  -15.9417   26.7944 O   0  0  0  0  0  0  0  0  0  0  0  0
   12.9934  -15.2923   25.3389 N   0  0  0  0  0  0  0  0  0  0  0  0
   12.3076  -16.4370   24.8615 C   0  0  0  0  0  0  0  0  0  0  0  0
   12.2891  -16.7821   23.6479 O   0  0  0  0  0  0  0  0  0  0  0  0
   11.5672  -17.2759   25.8711 C   0  0  0  0  0  0  0  0  0  0  0  0
   11.6707  -16.6409   27.2385 C   0  0  0  0  0  0  0  0  0  0  0  0
   10.4169  -16.0301   27.7429 C   0  0  2  0  0  0  0  0  0  0  0  0
    9.8933  -14.9801   26.8890 N   0  0  0  0  0  0  0  0  0  0  0  0
   10.6801  -15.4943   29.1206 C   0  0  0  0  0  0  0  0  0  0  0  0
   10.5713  -14.2620   29.3124 O   0  0  0  0  0  0  0  0  0  0  0  0
   11.0336  -16.3066   30.1749 O   0  0  0  0  0  0  0  0  0  0  0  0
  2  1  1  6
  2  6  1  0
  2  3  1  0
  3  4  1  0
  4  5  2  0
  6 13  1  0
  7  6  2  0
  8  4  1  0
 10  9  1  1
 11 10  1  0
 12 10  1  0
 12 13  1  6
 14 15  2  0
 14 12  1  0
 16 17  1  0
 17 19  1  0
 18 17  2  0
 19 20  1  0
 21 22  1  0
 21 20  1  6
 22 14  1  0
 23 21  1  0
 24 23  2  0
 25 23  1  0
M  END
$$$$
