DVQ.pdb
     RDKit          3D

 25 24  0  0  1  0  0  0  0  0999 V2000
    9.3443  -17.5808   16.4049 N   0  0  0  0  0  0  0  0  0  0  0  0
    8.3733  -17.3706   17.4575 C   0  0  1  0  0  0  0  0  0  0  0  0
    7.7290  -18.6379   17.9142 C   0  0  0  0  0  0  0  0  0  0  0  0
    7.0385  -19.2816   16.7792 C   0  0  0  0  0  0  0  0  0  0  0  0
    6.4342  -20.3601   16.9324 O   0  0  0  0  0  0  0  0  0  0  0  0
    8.9431  -16.5811   18.5769 C   0  0  0  0  0  0  0  0  0  0  0  0
   10.1647  -16.6921   18.8252 O   0  0  0  0  0  0  0  0  0  0  0  0
    7.0620  -18.6820   15.5390 O   0  0  0  0  0  0  0  0  0  0  0  0
    7.9043  -13.1902   22.0700 C   0  0  0  0  0  0  0  0  0  0  0  0
    7.4978  -13.9645   20.8466 C   0  0  1  0  0  0  0  0  0  0  0  0
    7.3500  -13.0081   19.6692 C   0  0  0  0  0  0  0  0  0  0  0  0
    8.5535  -14.9864   20.4917 C   0  0  2  0  0  0  0  0  0  0  0  0
    8.1162  -15.7204   19.3483 N   0  0  0  0  0  0  0  0  0  0  0  0
    8.7167  -15.8472   21.6958 C   0  0  0  0  0  0  0  0  0  0  0  0
    7.9020  -16.6937   22.0807 O   0  0  0  0  0  0  0  0  0  0  0  0
   14.2226  -18.0116   22.4002 N   0  0  0  0  0  0  0  0  0  0  0  0
   13.6833  -18.6346   23.5534 C   0  0  0  0  0  0  0  0  0  0  0  0
   14.3168  -19.4718   24.2533 O   0  0  0  0  0  0  0  0  0  0  0  0
   12.2775  -18.2646   23.9508 C   0  0  0  0  0  0  0  0  0  0  0  0
   11.7460  -17.1995   23.0199 C   0  0  0  0  0  0  0  0  0  0  0  0
   10.3938  -16.6910   23.3556 C   0  0  2  0  0  0  0  0  0  0  0  0
    9.9147  -15.6624   22.4510 N   0  0  0  0  0  0  0  0  0  0  0  0
   10.4277  -16.1684   24.7627 C   0  0  0  0  0  0  0  0  0  0  0  0
   10.4990  -14.9309   24.9381 O   0  0  0  0  0  0  0  0  0  0  0  0
   10.3817  -16.9980   25.8610 O   0  0  0  0  0  0  0  0  0  0  0  0
  2  1  1  6
  2  6  1  0
  2  3  1  0
  3  4  1  0
  4  5  2  0
  6 13  1  0
  7  6  2  0
  8  4  1  0
 10  9  1  1
 11 10  1  0
 12 10  1  0
 12 13  1  6
 14 15  2  0
 14 12  1  0
 16 17  1  0
 17 19  1  0
 18 17  2  0
 19 20  1  0
 21 22  1  0
 21 20  1  6
 22 14  1  0
 23 21  1  0
 24 23  2  0
 25 23  1  0
M  END
$$$$
