DVQ.pdb
     RDKit          3D

 25 24  0  0  1  0  0  0  0  0999 V2000
    8.2676  -16.7640   16.8303 N   0  0  0  0  0  0  0  0  0  0  0  0
    9.2033  -17.1207   17.8755 C   0  0  1  0  0  0  0  0  0  0  0  0
   10.4678  -17.7120   17.3452 C   0  0  0  0  0  0  0  0  0  0  0  0
   10.3483  -19.1827   17.3004 C   0  0  0  0  0  0  0  0  0  0  0  0
    9.2421  -19.7349   17.4520 O   0  0  0  0  0  0  0  0  0  0  0  0
    9.4445  -15.9882   18.8029 C   0  0  0  0  0  0  0  0  0  0  0  0
    9.9463  -14.9372   18.3448 O   0  0  0  0  0  0  0  0  0  0  0  0
   11.4719  -19.9511   17.0874 O   0  0  0  0  0  0  0  0  0  0  0  0
    7.5830  -13.0316   21.6016 C   0  0  0  0  0  0  0  0  0  0  0  0
    7.9460  -14.0476   20.5540 C   0  0  1  0  0  0  0  0  0  0  0  0
    8.5166  -13.3339   19.3341 C   0  0  0  0  0  0  0  0  0  0  0  0
    8.9999  -14.9957   21.0786 C   0  0  2  0  0  0  0  0  0  0  0  0
    9.1130  -16.0992   20.1804 N   0  0  0  0  0  0  0  0  0  0  0  0
    8.5465  -15.4074   22.4360 C   0  0  0  0  0  0  0  0  0  0  0  0
    7.4256  -15.8534   22.7067 O   0  0  0  0  0  0  0  0  0  0  0  0
   11.4382  -20.5645   23.5231 N   0  0  0  0  0  0  0  0  0  0  0  0
   12.0799  -19.3288   23.2584 C   0  0  0  0  0  0  0  0  0  0  0  0
   12.8347  -19.1346   22.2661 O   0  0  0  0  0  0  0  0  0  0  0  0
   11.8352  -18.1973   24.2232 C   0  0  0  0  0  0  0  0  0  0  0  0
   11.2051  -17.0319   23.4962 C   0  0  0  0  0  0  0  0  0  0  0  0
   10.0333  -16.4281   24.1758 C   0  0  2  0  0  0  0  0  0  0  0  0
    9.4964  -15.2657   23.4931 N   0  0  0  0  0  0  0  0  0  0  0  0
   10.4409  -16.0650   25.5745 C   0  0  0  0  0  0  0  0  0  0  0  0
   10.6214  -14.8569   25.8488 O   0  0  0  0  0  0  0  0  0  0  0  0
   10.6207  -17.0089   26.5610 O   0  0  0  0  0  0  0  0  0  0  0  0
  2  1  1  6
  2  6  1  0
  2  3  1  0
  3  4  1  0
  4  5  2  0
  6 13  1  0
  7  6  2  0
  8  4  1  0
 10  9  1  1
 11 10  1  0
 12 10  1  0
 12 13  1  6
 14 15  2  0
 14 12  1  0
 16 17  1  0
 17 19  1  0
 18 17  2  0
 19 20  1  0
 21 22  1  0
 21 20  1  6
 22 14  1  0
 23 21  1  0
 24 23  2  0
 25 23  1  0
M  END
$$$$
