DVQ.pdb
     RDKit          3D

 25 24  0  0  1  0  0  0  0  0999 V2000
    9.0744  -15.0616   20.5826 N   0  0  0  0  0  0  0  0  0  0  0  0
    7.9903  -15.0883   21.5413 C   0  0  1  0  0  0  0  0  0  0  0  0
    7.2783  -16.4003   21.5758 C   0  0  0  0  0  0  0  0  0  0  0  0
    6.9659  -16.8327   20.1993 C   0  0  0  0  0  0  0  0  0  0  0  0
    6.8974  -16.0027   19.2730 O   0  0  0  0  0  0  0  0  0  0  0  0
    8.4371  -14.6426   22.8840 C   0  0  0  0  0  0  0  0  0  0  0  0
    9.6428  -14.7822   23.1893 O   0  0  0  0  0  0  0  0  0  0  0  0
    6.7496  -18.1679   19.9374 O   0  0  0  0  0  0  0  0  0  0  0  0
    7.0365  -12.4889   27.1336 C   0  0  0  0  0  0  0  0  0  0  0  0
    6.7171  -12.8932   25.7208 C   0  0  1  0  0  0  0  0  0  0  0  0
    6.6529  -11.6498   24.8416 C   0  0  0  0  0  0  0  0  0  0  0  0
    7.7950  -13.8002   25.1730 C   0  0  2  0  0  0  0  0  0  0  0  0
    7.5129  -14.0719   23.8004 N   0  0  0  0  0  0  0  0  0  0  0  0
    7.7699  -15.0277   26.0158 C   0  0  0  0  0  0  0  0  0  0  0  0
    6.8918  -15.8973   25.9800 O   0  0  0  0  0  0  0  0  0  0  0  0
   11.7967  -17.7318   23.9375 N   0  0  0  0  0  0  0  0  0  0  0  0
   11.7270  -18.6860   24.9831 C   0  0  0  0  0  0  0  0  0  0  0  0
   12.3150  -19.8018   24.9480 O   0  0  0  0  0  0  0  0  0  0  0  0
   10.9032  -18.3317   26.1943 C   0  0  0  0  0  0  0  0  0  0  0  0
   10.2897  -16.9627   26.0136 C   0  0  0  0  0  0  0  0  0  0  0  0
    9.4578  -16.4933   27.1481 C   0  0  2  0  0  0  0  0  0  0  0  0
    8.8538  -15.1919   26.9311 N   0  0  0  0  0  0  0  0  0  0  0  0
   10.3184  -16.4664   28.3781 C   0  0  0  0  0  0  0  0  0  0  0  0
   10.7751  -15.3661   28.7629 O   0  0  0  0  0  0  0  0  0  0  0  0
   10.6200  -17.6031   29.0947 O   0  0  0  0  0  0  0  0  0  0  0  0
  2  1  1  6
  2  6  1  0
  2  3  1  0
  3  4  1  0
  4  5  2  0
  6 13  1  0
  7  6  2  0
  8  4  1  0
 10  9  1  1
 11 10  1  0
 12 10  1  0
 12 13  1  6
 14 15  2  0
 14 12  1  0
 16 17  1  0
 17 19  1  0
 18 17  2  0
 19 20  1  0
 21 22  1  0
 21 20  1  6
 22 14  1  0
 23 21  1  0
 24 23  2  0
 25 23  1  0
M  END
$$$$
