DVQ.pdb
     RDKit          3D

 25 24  0  0  1  0  0  0  0  0999 V2000
    8.1126  -14.6221   20.3477 N   0  0  0  0  0  0  0  0  0  0  0  0
    7.3248  -14.9376   21.5203 C   0  0  1  0  0  0  0  0  0  0  0  0
    6.8331  -16.3475   21.5269 C   0  0  0  0  0  0  0  0  0  0  0  0
    6.8471  -16.8853   20.1521 C   0  0  0  0  0  0  0  0  0  0  0  0
    7.1212  -16.1495   19.1851 O   0  0  0  0  0  0  0  0  0  0  0  0
    8.0350  -14.5719   22.7704 C   0  0  0  0  0  0  0  0  0  0  0  0
    9.2435  -14.8776   22.8823 O   0  0  0  0  0  0  0  0  0  0  0  0
    6.5555  -18.2146   19.9378 O   0  0  0  0  0  0  0  0  0  0  0  0
    7.6030  -12.3630   27.1892 C   0  0  0  0  0  0  0  0  0  0  0  0
    6.9651  -12.7693   25.8894 C   0  0  1  0  0  0  0  0  0  0  0  0
    6.7718  -11.5365   25.0143 C   0  0  0  0  0  0  0  0  0  0  0  0
    7.8531  -13.7393   25.1442 C   0  0  2  0  0  0  0  0  0  0  0  0
    7.3540  -13.8912   23.8156 N   0  0  0  0  0  0  0  0  0  0  0  0
    7.8163  -15.0112   25.9178 C   0  0  0  0  0  0  0  0  0  0  0  0
    6.9959  -15.9212   25.7520 O   0  0  0  0  0  0  0  0  0  0  0  0
   10.2629  -18.4670   23.8500 N   0  0  0  0  0  0  0  0  0  0  0  0
   11.0956  -18.9138   24.9063 C   0  0  0  0  0  0  0  0  0  0  0  0
   11.7301  -20.0041   24.8794 O   0  0  0  0  0  0  0  0  0  0  0  0
   11.2192  -18.0260   26.1177 C   0  0  0  0  0  0  0  0  0  0  0  0
   10.3776  -16.7849   25.9308 C   0  0  0  0  0  0  0  0  0  0  0  0
    9.5203  -16.4282   27.0873 C   0  0  2  0  0  0  0  0  0  0  0  0
    8.8150  -15.1704   26.9263 N   0  0  0  0  0  0  0  0  0  0  0  0
   10.3856  -16.3837   28.3135 C   0  0  0  0  0  0  0  0  0  0  0  0
   10.9304  -15.2990   28.6203 O   0  0  0  0  0  0  0  0  0  0  0  0
   10.5986  -17.4875   29.1089 O   0  0  0  0  0  0  0  0  0  0  0  0
  2  1  1  6
  2  6  1  0
  2  3  1  0
  3  4  1  0
  4  5  2  0
  6 13  1  0
  7  6  2  0
  8  4  1  0
 10  9  1  1
 11 10  1  0
 12 10  1  0
 12 13  1  6
 14 15  2  0
 14 12  1  0
 16 17  1  0
 17 19  1  0
 18 17  2  0
 19 20  1  0
 21 22  1  0
 21 20  1  6
 22 14  1  0
 23 21  1  0
 24 23  2  0
 25 23  1  0
M  END
$$$$
