DVQ.pdb
     RDKit          3D

 25 24  0  0  1  0  0  0  0  0999 V2000
    9.2776  -17.4903   16.3822 N   0  0  0  0  0  0  0  0  0  0  0  0
    8.4398  -17.4586   17.5622 C   0  0  1  0  0  0  0  0  0  0  0  0
    8.1016  -18.8213   18.0704 C   0  0  0  0  0  0  0  0  0  0  0  0
    7.2648  -19.5276   17.0804 C   0  0  0  0  0  0  0  0  0  0  0  0
    7.1961  -19.1243   15.9038 O   0  0  0  0  0  0  0  0  0  0  0  0
    9.0089  -16.5794   18.6130 C   0  0  0  0  0  0  0  0  0  0  0  0
   10.2310  -16.6673   18.8683 O   0  0  0  0  0  0  0  0  0  0  0  0
    6.5543  -20.6445   17.4622 O   0  0  0  0  0  0  0  0  0  0  0  0
    7.8675  -13.1536   22.0461 C   0  0  0  0  0  0  0  0  0  0  0  0
    7.5035  -13.9217   20.8054 C   0  0  1  0  0  0  0  0  0  0  0  0
    7.3766  -12.9565   19.6326 C   0  0  0  0  0  0  0  0  0  0  0  0
    8.5805  -14.9280   20.4706 C   0  0  2  0  0  0  0  0  0  0  0  0
    8.1808  -15.6604   19.3125 N   0  0  0  0  0  0  0  0  0  0  0  0
    8.7251  -15.7941   21.6733 C   0  0  0  0  0  0  0  0  0  0  0  0
    7.9042  -16.6418   22.0423 O   0  0  0  0  0  0  0  0  0  0  0  0
   12.2323  -19.5884   22.1505 N   0  0  0  0  0  0  0  0  0  0  0  0
   12.3517  -19.5455   23.5622 C   0  0  0  0  0  0  0  0  0  0  0  0
   12.7256  -20.5282   24.2596 O   0  0  0  0  0  0  0  0  0  0  0  0
   12.0110  -18.2485   24.2500 C   0  0  0  0  0  0  0  0  0  0  0  0
   11.6048  -17.2163   23.2239 C   0  0  0  0  0  0  0  0  0  0  0  0
   10.2913  -16.5722   23.4681 C   0  0  2  0  0  0  0  0  0  0  0  0
    9.9116  -15.6132   22.4474 N   0  0  0  0  0  0  0  0  0  0  0  0
   10.3411  -15.9055   24.8124 C   0  0  0  0  0  0  0  0  0  0  0  0
   10.1422  -16.6036   25.8324 O   0  0  0  0  0  0  0  0  0  0  0  0
   10.5980  -14.5609   24.9620 O   0  0  0  0  0  0  0  0  0  0  0  0
  2  1  1  6
  2  6  1  0
  2  3  1  0
  3  4  1  0
  4  5  2  0
  6 13  1  0
  7  6  2  0
  8  4  1  0
 10  9  1  1
 11 10  1  0
 12 10  1  0
 12 13  1  6
 14 15  2  0
 14 12  1  0
 16 17  1  0
 17 19  1  0
 18 17  2  0
 19 20  1  0
 21 22  1  0
 21 20  1  6
 22 14  1  0
 23 21  1  0
 24 23  2  0
 25 23  1  0
M  END
$$$$
