DVQ.pdb
     RDKit          3D

 25 24  0  0  1  0  0  0  0  0999 V2000
    8.8863  -18.5164   19.7292 N   0  0  0  0  0  0  0  0  0  0  0  0
   10.2501  -18.0381   19.8096 C   0  0  1  0  0  0  0  0  0  0  0  0
   10.8383  -17.7341   18.4712 C   0  0  0  0  0  0  0  0  0  0  0  0
   10.8559  -18.9583   17.6463 C   0  0  0  0  0  0  0  0  0  0  0  0
   10.9341  -20.0818   18.1786 O   0  0  0  0  0  0  0  0  0  0  0  0
   10.3776  -16.9081   20.7623 C   0  0  0  0  0  0  0  0  0  0  0  0
   11.5038  -16.3862   20.9229 O   0  0  0  0  0  0  0  0  0  0  0  0
   10.7836  -18.8561   16.2743 O   0  0  0  0  0  0  0  0  0  0  0  0
    7.9210  -13.7306   23.6664 C   0  0  0  0  0  0  0  0  0  0  0  0
    7.9083  -14.8298   22.6403 C   0  0  1  0  0  0  0  0  0  0  0  0
    7.4950  -14.2561   21.2901 C   0  0  0  0  0  0  0  0  0  0  0  0
    9.2869  -15.4319   22.4922 C   0  0  2  0  0  0  0  0  0  0  0  0
    9.2441  -16.4331   21.4757 N   0  0  0  0  0  0  0  0  0  0  0  0
    9.6407  -15.9876   23.8277 C   0  0  0  0  0  0  0  0  0  0  0  0
    8.9198  -16.7318   24.5022 O   0  0  0  0  0  0  0  0  0  0  0  0
    8.6762  -15.2665   28.7242 N   0  0  0  0  0  0  0  0  0  0  0  0
    9.5907  -14.2121   28.4779 C   0  0  0  0  0  0  0  0  0  0  0  0
    9.5971  -13.1299   29.1268 O   0  0  0  0  0  0  0  0  0  0  0  0
   10.6032  -14.4117   27.3797 C   0  0  0  0  0  0  0  0  0  0  0  0
   10.4165  -15.7739   26.7528 C   0  0  0  0  0  0  0  0  0  0  0  0
   11.3569  -16.0915   25.6507 C   0  0  2  0  0  0  0  0  0  0  0  0
   10.9168  -15.6176   24.3517 N   0  0  0  0  0  0  0  0  0  0  0  0
   11.5540  -17.5796   25.6197 C   0  0  0  0  0  0  0  0  0  0  0  0
   11.0516  -18.2285   24.6743 O   0  0  0  0  0  0  0  0  0  0  0  0
   12.2655  -18.2517   26.5885 O   0  0  0  0  0  0  0  0  0  0  0  0
  2  1  1  6
  2  6  1  0
  2  3  1  0
  3  4  1  0
  4  5  2  0
  6 13  1  0
  7  6  2  0
  8  4  1  0
 10  9  1  1
 11 10  1  0
 12 10  1  0
 12 13  1  6
 14 15  2  0
 14 12  1  0
 16 17  1  0
 17 19  1  0
 18 17  2  0
 19 20  1  0
 21 22  1  0
 21 20  1  1
 22 14  1  0
 23 21  1  0
 24 23  2  0
 25 23  1  0
M  END
$$$$
