DVQ.pdb
     RDKit          3D

 25 24  0  0  1  0  0  0  0  0999 V2000
    6.8657  -16.2447   21.8971 N   0  0  0  0  0  0  0  0  0  0  0  0
    8.3061  -16.1340   21.9863 C   0  0  1  0  0  0  0  0  0  0  0  0
    8.9366  -15.7137   20.6997 C   0  0  0  0  0  0  0  0  0  0  0  0
    8.7399  -16.7657   19.6827 C   0  0  0  0  0  0  0  0  0  0  0  0
    7.9419  -17.7010   19.8827 O   0  0  0  0  0  0  0  0  0  0  0  0
    8.7192  -15.2861   23.1314 C   0  0  0  0  0  0  0  0  0  0  0  0
    9.9371  -15.0426   23.2859 O   0  0  0  0  0  0  0  0  0  0  0  0
    9.4455  -16.7106   18.5007 O   0  0  0  0  0  0  0  0  0  0  0  0
    7.1927  -12.3469   26.8024 C   0  0  0  0  0  0  0  0  0  0  0  0
    6.8652  -13.2108   25.6159 C   0  0  1  0  0  0  0  0  0  0  0  0
    6.5126  -12.3243   24.4273 C   0  0  0  0  0  0  0  0  0  0  0  0
    8.0571  -14.0577   25.2324 C   0  0  2  0  0  0  0  0  0  0  0  0
    7.7504  -14.7653   24.0313 N   0  0  0  0  0  0  0  0  0  0  0  0
    8.3053  -14.9678   26.3847 C   0  0  0  0  0  0  0  0  0  0  0  0
    7.5142  -15.8227   26.7992 O   0  0  0  0  0  0  0  0  0  0  0  0
   13.4025  -18.0782   26.7374 N   0  0  0  0  0  0  0  0  0  0  0  0
   12.5322  -18.6964   27.6697 C   0  0  0  0  0  0  0  0  0  0  0  0
   12.5594  -19.9294   27.9362 O   0  0  0  0  0  0  0  0  0  0  0  0
   11.5280  -17.8188   28.3716 C   0  0  0  0  0  0  0  0  0  0  0  0
   11.0959  -16.6995   27.4531 C   0  0  0  0  0  0  0  0  0  0  0  0
   10.0273  -15.8233   27.9916 C   0  0  2  0  0  0  0  0  0  0  0  0
    9.5611  -14.8231   27.0493 N   0  0  0  0  0  0  0  0  0  0  0  0
   10.5488  -15.1611   29.2342 C   0  0  0  0  0  0  0  0  0  0  0  0
   10.8545  -15.8819   30.2110 O   0  0  0  0  0  0  0  0  0  0  0  0
   10.7030  -13.7964   29.3358 O   0  0  0  0  0  0  0  0  0  0  0  0
  2  1  1  6
  2  6  1  0
  2  3  1  0
  3  4  1  0
  4  5  2  0
  6 13  1  0
  7  6  2  0
  8  4  1  0
 10  9  1  1
 11 10  1  0
 12 10  1  0
 12 13  1  6
 14 15  2  0
 14 12  1  0
 16 17  1  0
 17 19  1  0
 18 17  2  0
 19 20  1  0
 21 22  1  0
 21 20  1  6
 22 14  1  0
 23 21  1  0
 24 23  2  0
 25 23  1  0
M  END
$$$$
