DVQ.pdb
     RDKit          3D

 25 24  0  0  1  0  0  0  0  0999 V2000
    9.2359  -15.2548   20.9193 N   0  0  0  0  0  0  0  0  0  0  0  0
    8.3187  -15.6372   21.9717 C   0  0  1  0  0  0  0  0  0  0  0  0
    8.1628  -17.1170   22.0963 C   0  0  0  0  0  0  0  0  0  0  0  0
    7.6277  -17.6683   20.8357 C   0  0  0  0  0  0  0  0  0  0  0  0
    8.3912  -17.9615   19.8961 O   0  0  0  0  0  0  0  0  0  0  0  0
    8.6628  -14.9863   23.2597 C   0  0  0  0  0  0  0  0  0  0  0  0
    9.8594  -14.9833   23.6267 O   0  0  0  0  0  0  0  0  0  0  0  0
    6.2705  -17.8613   20.6986 O   0  0  0  0  0  0  0  0  0  0  0  0
    6.8909  -12.3469   27.0780 C   0  0  0  0  0  0  0  0  0  0  0  0
    6.6855  -12.9725   25.7260 C   0  0  1  0  0  0  0  0  0  0  0  0
    6.5708  -11.8757   24.6738 C   0  0  0  0  0  0  0  0  0  0  0  0
    7.8624  -13.8491   25.3639 C   0  0  2  0  0  0  0  0  0  0  0  0
    7.6529  -14.3823   24.0565 N   0  0  0  0  0  0  0  0  0  0  0  0
    7.9267  -14.9074   26.4096 C   0  0  0  0  0  0  0  0  0  0  0  0
    7.1962  -15.9036   26.4591 O   0  0  0  0  0  0  0  0  0  0  0  0
   11.3942  -18.6338   25.6852 N   0  0  0  0  0  0  0  0  0  0  0  0
   12.2282  -17.5641   26.0963 C   0  0  0  0  0  0  0  0  0  0  0  0
   13.4287  -17.4364   25.7296 O   0  0  0  0  0  0  0  0  0  0  0  0
   11.6324  -16.5327   27.0196 C   0  0  0  0  0  0  0  0  0  0  0  0
   10.1727  -16.8421   27.2587 C   0  0  0  0  0  0  0  0  0  0  0  0
    9.4627  -15.8788   28.1348 C   0  0  2  0  0  0  0  0  0  0  0  0
    8.9157  -14.7370   27.4257 N   0  0  0  0  0  0  0  0  0  0  0  0
   10.4205  -15.4193   29.1959 C   0  0  0  0  0  0  0  0  0  0  0  0
   10.8503  -16.2611   30.0168 O   0  0  0  0  0  0  0  0  0  0  0  0
   10.8415  -14.1120   29.2961 O   0  0  0  0  0  0  0  0  0  0  0  0
  2  1  1  6
  2  6  1  0
  2  3  1  0
  3  4  1  0
  4  5  2  0
  6 13  1  0
  7  6  2  0
  8  4  1  0
 10  9  1  1
 11 10  1  0
 12 10  1  0
 12 13  1  6
 14 15  2  0
 14 12  1  0
 16 17  1  0
 17 19  1  0
 18 17  2  0
 19 20  1  0
 21 22  1  0
 21 20  1  6
 22 14  1  0
 23 21  1  0
 24 23  2  0
 25 23  1  0
M  END
$$$$
