QVK.pdb
     RDKit          3D

 26 25  0  0  1  0  0  0  0  0999 V2000
    8.1245  -19.6639   25.2120 N   0  0  0  0  0  0  0  0  0  0  0  0
    6.7660  -19.7279   24.7367 C   0  0  0  0  0  0  0  0  0  0  0  0
    5.9329  -20.3814   25.3945 O   0  0  0  0  0  0  0  0  0  0  0  0
    6.3893  -19.0268   23.4912 C   0  0  0  0  0  0  0  0  0  0  0  0
    7.5082  -18.2284   22.9055 C   0  0  0  0  0  0  0  0  0  0  0  0
    7.1206  -16.8140   22.5674 C   0  0  2  0  0  0  0  0  0  0  0  0
    7.5629  -16.6273   21.1707 N   0  0  0  0  0  0  0  0  0  0  0  0
    7.7860  -15.7954   23.4166 C   0  0  0  0  0  0  0  0  0  0  0  0
    9.0542  -15.7027   23.3410 O   0  0  0  0  0  0  0  0  0  0  0  0
    7.5784  -11.9736   26.6215 C   0  0  0  0  0  0  0  0  0  0  0  0
    6.9577  -12.9891   25.7165 C   0  0  2  0  0  0  0  0  0  0  0  0
    5.8008  -13.6757   26.4218 C   0  0  0  0  0  0  0  0  0  0  0  0
    7.9110  -14.0260   25.1666 C   0  0  2  0  0  0  0  0  0  0  0  0
    7.1293  -14.9184   24.3001 N   0  0  0  0  0  0  0  0  0  0  0  0
    8.4690  -14.8183   26.2894 C   0  0  0  0  0  0  0  0  0  0  0  0
    7.7512  -15.7130   26.8739 O   0  0  0  0  0  0  0  0  0  0  0  0
    9.7778  -14.7051   26.8261 N   0  0  0  0  0  0  0  0  0  0  0  0
   10.2442  -15.5495   27.8964 C   0  0  1  0  0  0  0  0  0  0  0  0
   11.5958  -16.0933   27.6046 C   0  0  0  0  0  0  0  0  0  0  0  0
   11.7744  -17.1007   26.5523 C   0  0  0  0  0  0  0  0  0  0  0  0
   13.1787  -17.3301   26.1302 C   0  0  0  0  0  0  0  0  0  0  0  0
   13.2308  -18.2816   24.9109 C   0  0  0  0  0  0  0  0  0  0  0  0
   14.5779  -18.3787   24.4106 N   0  0  0  0  0  0  0  0  0  0  0  0
   10.4050  -14.7627   29.1687 C   0  0  0  0  0  0  0  0  0  0  0  0
   10.6849  -15.4046   30.3406 O   0  0  0  0  0  0  0  0  0  0  0  0
   10.2779  -13.5404   29.1187 O   0  0  0  0  0  0  0  0  0  0  0  0
  2  3  2  0
  2  1  1  0
  4  2  1  0
  5  4  1  0
  6  5  1  0
  6  7  1  6
  8  9  2  0
  8  6  1  0
 11 10  1  1
 11 12  1  0
 11 13  1  0
 13 14  1  6
 14  8  1  0
 15 16  2  0
 15 13  1  0
 17 15  1  0
 18 19  1  6
 18 17  1  0
 20 21  1  0
 20 19  1  0
 22 21  1  0
 23 22  1  0
 24 18  1  0
 25 24  1  0
 26 24  2  0
M  END
$$$$
