QVK.pdb
     RDKit          3D

 26 25  0  0  1  0  0  0  0  0999 V2000
    8.0084  -12.2845   18.1920 N   0  0  0  0  0  0  0  0  0  0  0  0
    8.1780  -13.7103   18.0755 C   0  0  0  0  0  0  0  0  0  0  0  0
    8.4788  -14.1875   16.9639 O   0  0  0  0  0  0  0  0  0  0  0  0
    7.9931  -14.5719   19.2622 C   0  0  0  0  0  0  0  0  0  0  0  0
    7.5820  -13.8119   20.4811 C   0  0  0  0  0  0  0  0  0  0  0  0
    7.3927  -14.6833   21.6936 C   0  0  2  0  0  0  0  0  0  0  0  0
    5.9299  -14.7425   21.8885 N   0  0  0  0  0  0  0  0  0  0  0  0
    8.0141  -14.1343   22.9239 C   0  0  0  0  0  0  0  0  0  0  0  0
    8.3961  -12.9192   22.8992 O   0  0  0  0  0  0  0  0  0  0  0  0
    6.3890  -13.6197   26.1191 C   0  0  0  0  0  0  0  0  0  0  0  0
    7.7221  -13.0976   25.6883 C   0  0  2  0  0  0  0  0  0  0  0  0
    7.5501  -12.1156   24.5423 C   0  0  0  0  0  0  0  0  0  0  0  0
    8.7335  -14.1558   25.3094 C   0  0  2  0  0  0  0  0  0  0  0  0
    8.2148  -14.8465   24.1211 N   0  0  0  0  0  0  0  0  0  0  0  0
    8.8521  -15.1346   26.4174 C   0  0  0  0  0  0  0  0  0  0  0  0
    7.7979  -15.6634   26.9336 O   0  0  0  0  0  0  0  0  0  0  0  0
   10.0593  -15.5886   27.0093 N   0  0  0  0  0  0  0  0  0  0  0  0
   10.0828  -16.6364   27.9980 C   0  0  1  0  0  0  0  0  0  0  0  0
   11.0461  -17.7055   27.6282 C   0  0  0  0  0  0  0  0  0  0  0  0
   10.9528  -18.3618   26.3188 C   0  0  0  0  0  0  0  0  0  0  0  0
   12.2446  -18.5439   25.6108 C   0  0  0  0  0  0  0  0  0  0  0  0
   12.0089  -19.0925   24.1831 C   0  0  0  0  0  0  0  0  0  0  0  0
   13.2646  -19.2529   23.4963 N   0  0  0  0  0  0  0  0  0  0  0  0
   10.5684  -16.1129   29.3224 C   0  0  0  0  0  0  0  0  0  0  0  0
   10.8626  -14.7880   29.4693 O   0  0  0  0  0  0  0  0  0  0  0  0
   10.6896  -16.9065   30.2543 O   0  0  0  0  0  0  0  0  0  0  0  0
  2  3  2  0
  2  1  1  0
  4  2  1  0
  5  4  1  0
  6  5  1  0
  6  7  1  1
  8  9  2  0
  8  6  1  0
 11 10  1  6
 11 12  1  0
 11 13  1  0
 13 14  1  6
 14  8  1  0
 15 16  2  0
 15 13  1  0
 17 15  1  0
 18 19  1  6
 18 17  1  0
 20 21  1  0
 20 19  1  0
 22 21  1  0
 23 22  1  0
 24 18  1  0
 25 24  1  0
 26 24  2  0
M  END
$$$$
