QVK.pdb
     RDKit          3D

 26 25  0  0  1  0  0  0  0  0999 V2000
   14.5427  -17.6151   17.1146 N   0  0  0  0  0  0  0  0  0  0  0  0
   13.8433  -17.7105   18.3704 C   0  0  0  0  0  0  0  0  0  0  0  0
   13.1472  -18.7206   18.5915 O   0  0  0  0  0  0  0  0  0  0  0  0
   13.9614  -16.6208   19.3621 C   0  0  0  0  0  0  0  0  0  0  0  0
   13.6726  -15.2716   18.7889 C   0  0  0  0  0  0  0  0  0  0  0  0
   12.2102  -15.0355   18.5227 C   0  0  2  0  0  0  0  0  0  0  0  0
   12.1833  -14.0609   17.4133 N   0  0  0  0  0  0  0  0  0  0  0  0
   11.4803  -14.4594   19.6789 C   0  0  0  0  0  0  0  0  0  0  0  0
   12.0267  -13.4880   20.2958 O   0  0  0  0  0  0  0  0  0  0  0  0
    7.4310  -15.4327   20.7143 C   0  0  0  0  0  0  0  0  0  0  0  0
    8.1033  -14.1174   20.9456 C   0  0  2  0  0  0  0  0  0  0  0  0
    7.8865  -13.2057   19.7502 C   0  0  0  0  0  0  0  0  0  0  0  0
    9.5784  -14.1989   21.2675 C   0  0  2  0  0  0  0  0  0  0  0  0
   10.2287  -14.8973   20.1506 N   0  0  0  0  0  0  0  0  0  0  0  0
    9.7634  -14.9978   22.5034 C   0  0  0  0  0  0  0  0  0  0  0  0
   10.0575  -16.2490   22.4310 O   0  0  0  0  0  0  0  0  0  0  0  0
    9.6530  -14.5197   23.8349 N   0  0  0  0  0  0  0  0  0  0  0  0
    9.8724  -15.3707   24.9767 C   0  0  1  0  0  0  0  0  0  0  0  0
    9.9899  -14.5764   26.2269 C   0  0  0  0  0  0  0  0  0  0  0  0
   10.2341  -15.2492   27.5082 C   0  0  0  0  0  0  0  0  0  0  0  0
   10.3688  -14.3470   28.6790 C   0  0  0  0  0  0  0  0  0  0  0  0
   10.6538  -15.1625   29.9630 C   0  0  0  0  0  0  0  0  0  0  0  0
   10.6091  -14.3049   31.1193 N   0  0  0  0  0  0  0  0  0  0  0  0
    8.6958  -16.2813   25.2006 C   0  0  0  0  0  0  0  0  0  0  0  0
    8.8549  -17.4502   25.8876 O   0  0  0  0  0  0  0  0  0  0  0  0
    7.6022  -15.9426   24.7508 O   0  0  0  0  0  0  0  0  0  0  0  0
  2  3  2  0
  2  1  1  0
  4  2  1  0
  5  4  1  0
  6  5  1  0
  6  7  1  6
  8  9  2  0
  8  6  1  0
 11 10  1  6
 11 12  1  0
 11 13  1  0
 13 14  1  6
 14  8  1  0
 15 16  2  0
 15 13  1  0
 17 15  1  0
 18 19  1  1
 18 17  1  0
 20 21  1  0
 20 19  1  0
 22 21  1  0
 23 22  1  0
 24 18  1  0
 25 24  1  0
 26 24  2  0
M  END
$$$$
