QVK.pdb
     RDKit          3D

 26 25  0  0  1  0  0  0  0  0999 V2000
   10.1864  -15.1117   13.8436 N   0  0  0  0  0  0  0  0  0  0  0  0
    9.7574  -16.4839   13.7513 C   0  0  0  0  0  0  0  0  0  0  0  0
    9.2196  -16.8721   12.6959 O   0  0  0  0  0  0  0  0  0  0  0  0
    9.9592  -17.3957   14.8969 C   0  0  0  0  0  0  0  0  0  0  0  0
   10.5278  -16.7126   16.0979 C   0  0  0  0  0  0  0  0  0  0  0  0
    9.9805  -17.2358   17.3986 C   0  0  2  0  0  0  0  0  0  0  0  0
    8.5821  -17.6028   17.0968 N   0  0  0  0  0  0  0  0  0  0  0  0
    9.9830  -16.2327   18.4918 C   0  0  0  0  0  0  0  0  0  0  0  0
   11.1117  -15.8836   18.9684 O   0  0  0  0  0  0  0  0  0  0  0  0
    7.6066  -12.9584   18.8686 C   0  0  0  0  0  0  0  0  0  0  0  0
    7.7562  -13.7737   20.1130 C   0  0  2  0  0  0  0  0  0  0  0  0
    7.7473  -12.8676   21.3321 C   0  0  0  0  0  0  0  0  0  0  0  0
    8.9728  -14.6708   20.1497 C   0  0  2  0  0  0  0  0  0  0  0  0
    8.8378  -15.6309   19.0460 N   0  0  0  0  0  0  0  0  0  0  0  0
    8.9896  -15.4159   21.4320 C   0  0  0  0  0  0  0  0  0  0  0  0
    7.9968  -16.1664   21.7611 O   0  0  0  0  0  0  0  0  0  0  0  0
   10.0319  -15.4038   22.3950 N   0  0  0  0  0  0  0  0  0  0  0  0
   10.1157  -16.3839   23.4477 C   0  0  1  0  0  0  0  0  0  0  0  0
   10.5265  -17.7101   22.9186 C   0  0  0  0  0  0  0  0  0  0  0  0
   10.7602  -18.8307   23.8372 C   0  0  0  0  0  0  0  0  0  0  0  0
   11.1927  -20.0956   23.1922 C   0  0  0  0  0  0  0  0  0  0  0  0
   11.4596  -21.1852   24.2582 C   0  0  0  0  0  0  0  0  0  0  0  0
   11.7179  -22.4520   23.6236 N   0  0  0  0  0  0  0  0  0  0  0  0
   11.1814  -16.0122   24.4426 C   0  0  0  0  0  0  0  0  0  0  0  0
   11.1942  -16.5879   25.6804 O   0  0  0  0  0  0  0  0  0  0  0  0
   12.0280  -15.1848   24.1087 O   0  0  0  0  0  0  0  0  0  0  0  0
  2  3  2  0
  2  1  1  0
  4  2  1  0
  5  4  1  0
  6  5  1  0
  6  7  1  6
  8  9  2  0
  8  6  1  0
 11 10  1  6
 11 12  1  0
 11 13  1  0
 13 14  1  6
 14  8  1  0
 15 16  2  0
 15 13  1  0
 17 15  1  0
 18 19  1  6
 18 17  1  0
 20 21  1  0
 20 19  1  0
 22 21  1  0
 23 22  1  0
 24 18  1  0
 25 24  1  0
 26 24  2  0
M  END
$$$$
