QVK.pdb
     RDKit          3D

 26 25  0  0  1  0  0  0  0  0999 V2000
    6.8752  -21.4603   24.1088 N   0  0  0  0  0  0  0  0  0  0  0  0
    5.5379  -20.9673   23.8993 C   0  0  0  0  0  0  0  0  0  0  0  0
    4.6140  -21.7908   23.7502 O   0  0  0  0  0  0  0  0  0  0  0  0
    5.2885  -19.5109   23.8639 C   0  0  0  0  0  0  0  0  0  0  0  0
    6.5191  -18.6986   24.1049 C   0  0  0  0  0  0  0  0  0  0  0  0
    6.5173  -17.3804   23.3784 C   0  0  2  0  0  0  0  0  0  0  0  0
    7.1295  -17.6740   22.0668 N   0  0  0  0  0  0  0  0  0  0  0  0
    7.3184  -16.3287   24.0518 C   0  0  0  0  0  0  0  0  0  0  0  0
    8.5862  -16.4519   24.0340 O   0  0  0  0  0  0  0  0  0  0  0  0
    6.2823  -12.3111   24.7718 C   0  0  0  0  0  0  0  0  0  0  0  0
    6.8581  -13.1151   25.8932 C   0  0  2  0  0  0  0  0  0  0  0  0
    7.6817  -12.2212   26.8041 C   0  0  0  0  0  0  0  0  0  0  0  0
    7.6802  -14.3112   25.4686 C   0  0  2  0  0  0  0  0  0  0  0  0
    6.7918  -15.2010   24.7089 N   0  0  0  0  0  0  0  0  0  0  0  0
    8.1558  -15.0283   26.6766 C   0  0  0  0  0  0  0  0  0  0  0  0
    7.3735  -15.8358   27.3037 O   0  0  0  0  0  0  0  0  0  0  0  0
    9.4473  -14.9290   27.2562 N   0  0  0  0  0  0  0  0  0  0  0  0
    9.8190  -15.6707   28.4341 C   0  0  1  0  0  0  0  0  0  0  0  0
   10.8653  -16.6803   28.1280 C   0  0  0  0  0  0  0  0  0  0  0  0
   11.3971  -17.5381   29.1937 C   0  0  0  0  0  0  0  0  0  0  0  0
   12.4682  -18.4757   28.7735 C   0  0  0  0  0  0  0  0  0  0  0  0
   12.9056  -19.3675   29.9601 C   0  0  0  0  0  0  0  0  0  0  0  0
   13.7323  -20.4503   29.4928 N   0  0  0  0  0  0  0  0  0  0  0  0
   10.4380  -14.7656   29.4644 C   0  0  0  0  0  0  0  0  0  0  0  0
   10.8059  -13.4948   29.1277 O   0  0  0  0  0  0  0  0  0  0  0  0
   10.5991  -15.2021   30.6030 O   0  0  0  0  0  0  0  0  0  0  0  0
  2  3  2  0
  2  1  1  0
  4  2  1  0
  5  4  1  0
  6  5  1  0
  6  7  1  6
  8  9  2  0
  8  6  1  0
 11 10  1  6
 11 12  1  0
 11 13  1  0
 13 14  1  6
 14  8  1  0
 15 16  2  0
 15 13  1  0
 17 15  1  0
 18 19  1  6
 18 17  1  0
 20 21  1  0
 20 19  1  0
 22 21  1  0
 23 22  1  0
 24 18  1  0
 25 24  1  0
 26 24  2  0
M  END
$$$$
