QVK.pdb
     RDKit          3D

 26 25  0  0  1  0  0  0  0  0999 V2000
   11.4821  -18.7730   15.3963 N   0  0  0  0  0  0  0  0  0  0  0  0
   11.1426  -17.5450   14.7240 C   0  0  0  0  0  0  0  0  0  0  0  0
   11.5364  -17.3758   13.5535 O   0  0  0  0  0  0  0  0  0  0  0  0
   10.3437  -16.5189   15.4267 C   0  0  0  0  0  0  0  0  0  0  0  0
    9.0591  -17.0491   15.9753 C   0  0  0  0  0  0  0  0  0  0  0  0
    9.1725  -17.5421   17.3929 C   0  0  2  0  0  0  0  0  0  0  0  0
    7.8523  -18.1332   17.6913 N   0  0  0  0  0  0  0  0  0  0  0  0
    9.4446  -16.4658   18.3773 C   0  0  0  0  0  0  0  0  0  0  0  0
   10.6617  -16.2280   18.6688 O   0  0  0  0  0  0  0  0  0  0  0  0
    7.3933  -12.9289   19.0581 C   0  0  0  0  0  0  0  0  0  0  0  0
    7.7063  -13.7710   20.2532 C   0  0  2  0  0  0  0  0  0  0  0  0
    7.9633  -12.8853   21.4602 C   0  0  0  0  0  0  0  0  0  0  0  0
    8.8544  -14.7384   20.0732 C   0  0  2  0  0  0  0  0  0  0  0  0
    8.4659  -15.6815   19.0160 N   0  0  0  0  0  0  0  0  0  0  0  0
    9.0584  -15.4917   21.3345 C   0  0  0  0  0  0  0  0  0  0  0  0
    8.1010  -16.1907   21.8366 O   0  0  0  0  0  0  0  0  0  0  0  0
   10.2539  -15.5412   22.0974 N   0  0  0  0  0  0  0  0  0  0  0  0
   10.4888  -16.5576   23.0912 C   0  0  1  0  0  0  0  0  0  0  0  0
   10.7475  -17.8782   22.4614 C   0  0  0  0  0  0  0  0  0  0  0  0
   10.9893  -19.0597   23.2979 C   0  0  0  0  0  0  0  0  0  0  0  0
   11.1874  -20.3292   22.5548 C   0  0  0  0  0  0  0  0  0  0  0  0
   11.4014  -21.5057   23.5369 C   0  0  0  0  0  0  0  0  0  0  0  0
   11.4050  -22.7570   22.8238 N   0  0  0  0  0  0  0  0  0  0  0  0
   11.7293  -16.2533   23.8864 C   0  0  0  0  0  0  0  0  0  0  0  0
   12.5382  -15.2152   23.5237 O   0  0  0  0  0  0  0  0  0  0  0  0
   11.9865  -16.9604   24.8594 O   0  0  0  0  0  0  0  0  0  0  0  0
  2  3  2  0
  2  1  1  0
  4  2  1  0
  5  4  1  0
  6  5  1  0
  6  7  1  1
  8  9  2  0
  8  6  1  0
 11 10  1  6
 11 12  1  0
 11 13  1  0
 13 14  1  6
 14  8  1  0
 15 16  2  0
 15 13  1  0
 17 15  1  0
 18 19  1  6
 18 17  1  0
 20 21  1  0
 20 19  1  0
 22 21  1  0
 23 22  1  0
 24 18  1  0
 25 24  1  0
 26 24  2  0
M  END
$$$$
