QVK.pdb
     RDKit          3D

 26 25  0  0  1  0  0  0  0  0999 V2000
    5.1889  -18.7959   17.9620 N   0  0  0  0  0  0  0  0  0  0  0  0
    5.9643  -19.6080   17.0595 C   0  0  0  0  0  0  0  0  0  0  0  0
    5.3673  -20.2682   16.1868 O   0  0  0  0  0  0  0  0  0  0  0  0
    7.4367  -19.6444   17.1839 C   0  0  0  0  0  0  0  0  0  0  0  0
    7.9521  -18.8011   18.3045 C   0  0  0  0  0  0  0  0  0  0  0  0
    8.2640  -17.3870   17.8942 C   0  0  2  0  0  0  0  0  0  0  0  0
    9.2609  -17.5213   16.8128 N   0  0  0  0  0  0  0  0  0  0  0  0
    8.8513  -16.5674   18.9826 C   0  0  0  0  0  0  0  0  0  0  0  0
   10.0865  -16.7349   19.2453 O   0  0  0  0  0  0  0  0  0  0  0  0
    6.6644  -13.8066   21.5561 C   0  0  0  0  0  0  0  0  0  0  0  0
    8.0785  -13.6344   21.1023 C   0  0  2  0  0  0  0  0  0  0  0  0
    8.1229  -12.7616   19.8599 C   0  0  0  0  0  0  0  0  0  0  0  0
    8.8331  -14.9207   20.8526 C   0  0  2  0  0  0  0  0  0  0  0  0
    8.1548  -15.6151   19.7499 N   0  0  0  0  0  0  0  0  0  0  0  0
    8.7633  -15.7695   22.0669 C   0  0  0  0  0  0  0  0  0  0  0  0
    8.0905  -16.8670   22.0553 O   0  0  0  0  0  0  0  0  0  0  0  0
    9.3894  -15.5039   23.3124 N   0  0  0  0  0  0  0  0  0  0  0  0
   10.2268  -16.4729   23.9725 C   0  0  1  0  0  0  0  0  0  0  0  0
   11.4491  -16.7600   23.1779 C   0  0  0  0  0  0  0  0  0  0  0  0
   12.4725  -17.6720   23.7021 C   0  0  0  0  0  0  0  0  0  0  0  0
   12.9315  -18.7174   22.7537 C   0  0  0  0  0  0  0  0  0  0  0  0
   14.4157  -18.4946   22.3765 C   0  0  0  0  0  0  0  0  0  0  0  0
   14.8100  -19.4113   21.3380 N   0  0  0  0  0  0  0  0  0  0  0  0
   10.7304  -15.9397   25.2863 C   0  0  0  0  0  0  0  0  0  0  0  0
   11.3233  -16.7794   26.1846 O   0  0  0  0  0  0  0  0  0  0  0  0
   10.5921  -14.7402   25.5205 O   0  0  0  0  0  0  0  0  0  0  0  0
  2  3  2  0
  2  1  1  0
  4  2  1  0
  5  4  1  0
  6  5  1  0
  6  7  1  6
  8  9  2  0
  8  6  1  0
 11 10  1  6
 11 12  1  0
 11 13  1  0
 13 14  1  6
 14  8  1  0
 15 16  2  0
 15 13  1  0
 17 15  1  0
 18 19  1  6
 18 17  1  0
 20 21  1  0
 20 19  1  0
 22 21  1  0
 23 22  1  0
 24 18  1  0
 25 24  1  0
 26 24  2  0
M  END
$$$$
