QVK.pdb
     RDKit          3D

 26 25  0  0  1  0  0  0  0  0999 V2000
    7.7784  -19.7929   21.5445 N   0  0  0  0  0  0  0  0  0  0  0  0
    7.2155  -19.1302   20.3958 C   0  0  0  0  0  0  0  0  0  0  0  0
    6.8595  -19.8218   19.4218 O   0  0  0  0  0  0  0  0  0  0  0  0
    7.0733  -17.6590   20.3925 C   0  0  0  0  0  0  0  0  0  0  0  0
    7.4890  -17.0261   21.6805 C   0  0  0  0  0  0  0  0  0  0  0  0
    7.2225  -15.5457   21.7328 C   0  0  2  0  0  0  0  0  0  0  0  0
    7.7552  -15.0234   20.4582 N   0  0  0  0  0  0  0  0  0  0  0  0
    7.9096  -14.8566   22.8528 C   0  0  0  0  0  0  0  0  0  0  0  0
    9.1738  -14.9879   22.9385 O   0  0  0  0  0  0  0  0  0  0  0  0
    7.8315  -11.7340   26.7496 C   0  0  0  0  0  0  0  0  0  0  0  0
    7.1896  -12.4570   25.6092 C   0  0  2  0  0  0  0  0  0  0  0  0
    5.8960  -13.1073   26.0683 C   0  0  0  0  0  0  0  0  0  0  0  0
    8.0651  -13.4832   24.9260 C   0  0  2  0  0  0  0  0  0  0  0  0
    7.2783  -14.0650   23.8303 N   0  0  0  0  0  0  0  0  0  0  0  0
    8.4035  -14.5554   25.8932 C   0  0  0  0  0  0  0  0  0  0  0  0
    7.5558  -15.4891   26.1521 O   0  0  0  0  0  0  0  0  0  0  0  0
    9.6232  -14.6864   26.6068 N   0  0  0  0  0  0  0  0  0  0  0  0
    9.8902  -15.8079   27.4710 C   0  0  1  0  0  0  0  0  0  0  0  0
   11.1329  -16.5157   27.0678 C   0  0  0  0  0  0  0  0  0  0  0  0
   11.6359  -17.6377   27.8692 C   0  0  0  0  0  0  0  0  0  0  0  0
   12.8994  -18.2449   27.3815 C   0  0  0  0  0  0  0  0  0  0  0  0
   13.1702  -19.5875   28.1019 C   0  0  0  0  0  0  0  0  0  0  0  0
   14.4194  -20.1497   27.6571 N   0  0  0  0  0  0  0  0  0  0  0  0
   10.1411  -15.3495   28.8819 C   0  0  0  0  0  0  0  0  0  0  0  0
   10.2535  -16.2636   29.8896 O   0  0  0  0  0  0  0  0  0  0  0  0
   10.2400  -14.1420   29.0941 O   0  0  0  0  0  0  0  0  0  0  0  0
  2  3  2  0
  2  1  1  0
  4  2  1  0
  5  4  1  0
  6  5  1  0
  6  7  1  6
  8  9  2  0
  8  6  1  0
 11 10  1  1
 11 12  1  0
 11 13  1  0
 13 14  1  6
 14  8  1  0
 15 16  2  0
 15 13  1  0
 17 15  1  0
 18 19  1  6
 18 17  1  0
 20 21  1  0
 20 19  1  0
 22 21  1  0
 23 22  1  0
 24 18  1  0
 25 24  1  0
 26 24  2  0
M  END
$$$$
