QVK.pdb
     RDKit          3D

 26 25  0  0  1  0  0  0  0  0999 V2000
   12.2573  -15.2031   20.1352 N   0  0  0  0  0  0  0  0  0  0  0  0
   12.4075  -14.3315   18.9980 C   0  0  0  0  0  0  0  0  0  0  0  0
   13.4086  -14.4687   18.2680 O   0  0  0  0  0  0  0  0  0  0  0  0
   11.3844  -13.3012   18.7214 C   0  0  0  0  0  0  0  0  0  0  0  0
   10.2434  -13.3332   19.6855 C   0  0  0  0  0  0  0  0  0  0  0  0
    9.1182  -14.2334   19.2507 C   0  0  2  0  0  0  0  0  0  0  0  0
    8.2613  -13.3801   18.4029 N   0  0  0  0  0  0  0  0  0  0  0  0
    8.3043  -14.7547   20.3764 C   0  0  0  0  0  0  0  0  0  0  0  0
    7.5483  -13.9314   20.9875 O   0  0  0  0  0  0  0  0  0  0  0  0
    6.3111  -18.5356   22.9033 C   0  0  0  0  0  0  0  0  0  0  0  0
    7.0770  -17.9244   21.7740 C   0  0  2  0  0  0  0  0  0  0  0  0
    8.3178  -18.7501   21.4807 C   0  0  0  0  0  0  0  0  0  0  0  0
    7.4602  -16.4748   21.9693 C   0  0  2  0  0  0  0  0  0  0  0  0
    8.2965  -16.0887   20.8249 N   0  0  0  0  0  0  0  0  0  0  0  0
    8.2607  -16.3460   23.2112 C   0  0  0  0  0  0  0  0  0  0  0  0
    9.5461  -16.4002   23.1650 O   0  0  0  0  0  0  0  0  0  0  0  0
    7.7503  -16.1546   24.5215 N   0  0  0  0  0  0  0  0  0  0  0  0
    8.6074  -15.8797   25.6465 C   0  0  1  0  0  0  0  0  0  0  0  0
    7.9211  -15.0279   26.6521 C   0  0  0  0  0  0  0  0  0  0  0  0
    7.5665  -13.6416   26.3258 C   0  0  0  0  0  0  0  0  0  0  0  0
    6.4250  -13.0848   27.0940 C   0  0  0  0  0  0  0  0  0  0  0  0
    6.2193  -11.5893   26.7538 C   0  0  0  0  0  0  0  0  0  0  0  0
    4.8151  -11.2699   26.7359 N   0  0  0  0  0  0  0  0  0  0  0  0
    8.9542  -17.1476   26.3787 C   0  0  0  0  0  0  0  0  0  0  0  0
    9.9672  -17.1553   27.2937 O   0  0  0  0  0  0  0  0  0  0  0  0
    8.3043  -18.1616   26.1291 O   0  0  0  0  0  0  0  0  0  0  0  0
  2  3  2  0
  2  1  1  0
  4  2  1  0
  5  4  1  0
  6  5  1  0
  6  7  1  6
  8  9  2  0
  8  6  1  0
 11 10  1  1
 11 12  1  0
 11 13  1  0
 13 14  1  6
 14  8  1  0
 15 16  2  0
 15 13  1  0
 17 15  1  0
 18 19  1  1
 18 17  1  0
 20 21  1  0
 20 19  1  0
 22 21  1  0
 23 22  1  0
 24 18  1  0
 25 24  1  0
 26 24  2  0
M  END
$$$$
