QVK.pdb
     RDKit          3D

 26 25  0  0  1  0  0  0  0  0999 V2000
   11.3329  -18.5761   20.3548 N   0  0  0  0  0  0  0  0  0  0  0  0
   10.0621  -18.5250   19.6782 C   0  0  0  0  0  0  0  0  0  0  0  0
    9.8743  -19.2769   18.7019 O   0  0  0  0  0  0  0  0  0  0  0  0
    9.0164  -17.5919   20.1478 C   0  0  0  0  0  0  0  0  0  0  0  0
    9.3820  -16.8900   21.4150 C   0  0  0  0  0  0  0  0  0  0  0  0
    8.2501  -16.0923   22.0048 C   0  0  2  0  0  0  0  0  0  0  0  0
    7.8445  -15.1647   20.9294 N   0  0  0  0  0  0  0  0  0  0  0  0
    8.6393  -15.2977   23.1958 C   0  0  0  0  0  0  0  0  0  0  0  0
    9.8835  -15.1239   23.4072 O   0  0  0  0  0  0  0  0  0  0  0  0
    6.5407  -12.2196   24.9777 C   0  0  0  0  0  0  0  0  0  0  0  0
    7.1220  -13.2417   25.9012 C   0  0  2  0  0  0  0  0  0  0  0  0
    7.5701  -12.5800   27.1929 C   0  0  0  0  0  0  0  0  0  0  0  0
    8.2561  -14.0575   25.3227 C   0  0  2  0  0  0  0  0  0  0  0  0
    7.7445  -14.7160   24.1133 N   0  0  0  0  0  0  0  0  0  0  0  0
    8.6553  -15.0984   26.3011 C   0  0  0  0  0  0  0  0  0  0  0  0
    7.7958  -15.9598   26.7212 O   0  0  0  0  0  0  0  0  0  0  0  0
    9.9482  -15.2720   26.8597 N   0  0  0  0  0  0  0  0  0  0  0  0
   10.2417  -16.3193   27.8047 C   0  0  1  0  0  0  0  0  0  0  0  0
   11.5266  -16.9922   27.4822 C   0  0  0  0  0  0  0  0  0  0  0  0
   11.5285  -18.2804   26.7788 C   0  0  0  0  0  0  0  0  0  0  0  0
   12.4446  -18.3618   25.6139 C   0  0  0  0  0  0  0  0  0  0  0  0
   12.2139  -19.6774   24.8324 C   0  0  0  0  0  0  0  0  0  0  0  0
   13.1261  -19.7646   23.7212 N   0  0  0  0  0  0  0  0  0  0  0  0
   10.4308  -15.7563   29.1871 C   0  0  0  0  0  0  0  0  0  0  0  0
   10.3738  -14.4078   29.3915 O   0  0  0  0  0  0  0  0  0  0  0  0
   10.6354  -16.5397   30.1130 O   0  0  0  0  0  0  0  0  0  0  0  0
  2  3  2  0
  2  1  1  0
  4  2  1  0
  5  4  1  0
  6  5  1  0
  6  7  1  6
  8  9  2  0
  8  6  1  0
 11 10  1  6
 11 12  1  0
 11 13  1  0
 13 14  1  6
 14  8  1  0
 15 16  2  0
 15 13  1  0
 17 15  1  0
 18 19  1  6
 18 17  1  0
 20 21  1  0
 20 19  1  0
 22 21  1  0
 23 22  1  0
 24 18  1  0
 25 24  1  0
 26 24  2  0
M  END
$$$$
