QVK.pdb
     RDKit          3D

 26 25  0  0  1  0  0  0  0  0999 V2000
    9.3217  -21.5915   17.8034 N   0  0  0  0  0  0  0  0  0  0  0  0
    9.0061  -20.6748   16.7378 C   0  0  0  0  0  0  0  0  0  0  0  0
    9.8348  -20.5173   15.8201 O   0  0  0  0  0  0  0  0  0  0  0  0
    7.7208  -19.9452   16.7524 C   0  0  0  0  0  0  0  0  0  0  0  0
    7.6512  -18.8999   17.8177 C   0  0  0  0  0  0  0  0  0  0  0  0
    7.9257  -17.5097   17.3104 C   0  0  2  0  0  0  0  0  0  0  0  0
    8.8908  -17.6964   16.2081 N   0  0  0  0  0  0  0  0  0  0  0  0
    8.5322  -16.6144   18.3262 C   0  0  0  0  0  0  0  0  0  0  0  0
    9.8036  -16.5795   18.3969 O   0  0  0  0  0  0  0  0  0  0  0  0
    7.1545  -12.8998   19.7046 C   0  0  0  0  0  0  0  0  0  0  0  0
    7.5641  -13.9302   20.7076 C   0  0  2  0  0  0  0  0  0  0  0  0
    8.1325  -13.2550   21.9438 C   0  0  0  0  0  0  0  0  0  0  0  0
    8.5367  -14.9700   20.1982 C   0  0  2  0  0  0  0  0  0  0  0  0
    7.8164  -15.7958   19.2198 N   0  0  0  0  0  0  0  0  0  0  0  0
    8.9644  -15.8309   21.3277 C   0  0  0  0  0  0  0  0  0  0  0  0
    8.1424  -16.6713   21.8524 O   0  0  0  0  0  0  0  0  0  0  0  0
   10.2481  -15.8436   21.9326 N   0  0  0  0  0  0  0  0  0  0  0  0
   10.6027  -16.7887   22.9607 C   0  0  1  0  0  0  0  0  0  0  0  0
   12.0520  -17.1136   22.9181 C   0  0  0  0  0  0  0  0  0  0  0  0
   12.6459  -17.9730   23.9489 C   0  0  0  0  0  0  0  0  0  0  0  0
   13.4390  -19.1179   23.4358 C   0  0  0  0  0  0  0  0  0  0  0  0
   14.0773  -19.9043   24.6058 C   0  0  0  0  0  0  0  0  0  0  0  0
   14.8627  -21.0008   24.1008 N   0  0  0  0  0  0  0  0  0  0  0  0
   10.3725  -16.2047   24.3281 C   0  0  0  0  0  0  0  0  0  0  0  0
   10.3586  -17.0158   25.4261 O   0  0  0  0  0  0  0  0  0  0  0  0
   10.1999  -14.9906   24.4224 O   0  0  0  0  0  0  0  0  0  0  0  0
  2  3  2  0
  2  1  1  0
  4  2  1  0
  5  4  1  0
  6  5  1  0
  6  7  1  6
  8  9  2  0
  8  6  1  0
 11 10  1  6
 11 12  1  0
 11 13  1  0
 13 14  1  6
 14  8  1  0
 15 16  2  0
 15 13  1  0
 17 15  1  0
 18 19  1  1
 18 17  1  0
 20 21  1  0
 20 19  1  0
 22 21  1  0
 23 22  1  0
 24 18  1  0
 25 24  1  0
 26 24  2  0
M  END
$$$$
