DPD.pdb
     RDKit          3D

 24 24  0  0  1  0  0  0  0  0999 V2000
   22.8040  -35.7249  -11.4057 N   0  0  0  0  0  0  0  0  0  0  0  0
   22.8463  -34.6371  -10.4480 C   0  0  1  0  0  0  0  0  0  0  0  0
   21.4823  -34.4993   -9.8364 C   0  0  0  0  0  0  0  0  0  0  0  0
   21.4700  -33.4861   -8.7285 C   0  0  0  0  0  0  0  0  0  0  0  0
   21.1403  -32.3100   -9.0449 O   0  0  0  0  0  0  0  0  0  0  0  0
   23.9836  -34.7413   -9.5481 C   0  0  0  0  0  0  0  0  0  0  0  0
   24.1451  -35.9072   -8.9886 O   0  0  0  0  0  0  0  0  0  0  0  0
   21.7985  -33.8138   -7.4385 O   0  0  0  0  0  0  0  0  0  0  0  0
   24.9429  -33.7797   -9.1811 N   0  0  0  0  0  0  0  0  0  0  0  0
   25.1283  -32.3843   -9.4484 C   0  0  0  0  0  0  0  0  0  0  0  0
   26.6225  -32.3777   -9.8216 C   0  0  0  0  0  0  0  0  0  0  0  0
   27.1916  -33.1665   -8.6621 C   0  0  0  0  0  0  0  0  0  0  0  0
   26.0859  -34.1116   -8.3115 C   0  0  1  0  0  0  0  0  0  0  0  0
   25.6828  -34.0445   -6.8832 C   0  0  0  0  0  0  0  0  0  0  0  0
   24.5384  -33.6452   -6.5517 O   0  0  0  0  0  0  0  0  0  0  0  0
   26.5689  -34.4276   -5.8266 N   0  0  0  0  0  0  0  0  0  0  0  0
   26.1857  -34.4730   -4.4499 C   0  0  1  0  0  0  0  0  0  0  0  0
   24.9090  -35.2460   -4.2137 C   0  0  0  0  0  0  0  0  0  0  0  0
   24.5253  -35.3166   -2.8077 C   0  0  0  0  0  0  0  0  0  0  0  0
   24.9391  -34.5010   -1.9493 O   0  0  0  0  0  0  0  0  0  0  0  0
   27.2732  -34.9156   -3.5476 C   0  0  0  0  0  0  0  0  0  0  0  0
   28.0046  -35.9064   -3.7693 O   0  0  0  0  0  0  0  0  0  0  0  0
   23.6697  -36.3196   -2.3870 O   0  0  0  0  0  0  0  0  0  0  0  0
   27.4961  -34.1916   -2.3883 O   0  0  0  0  0  0  0  0  0  0  0  0
  2  1  1  1
  2  3  1  0
  3  4  1  0
  4  8  1  0
  5  4  2  0
  6  2  1  0
  7  6  2  0
  9  6  1  0
  9 13  1  0
 10 11  1  0
 10  9  1  0
 11 12  1  0
 12 13  1  0
 14 16  1  0
 13 14  1  1
 15 14  2  0
 17 16  1  0
 17 18  1  6
 19 18  1  0
 19 23  1  0
 20 19  2  0
 21 24  1  0
 21 17  1  0
 22 21  2  0
M  END
$$$$
