DPD.pdb
     RDKit          3D

 24 24  0  0  1  0  0  0  0  0999 V2000
   18.0170  -12.9698  -15.3906 N   0  0  0  0  0  0  0  0  0  0  0  0
   17.9078  -11.6134  -15.8911 C   0  0  1  0  0  0  0  0  0  0  0  0
   16.4639  -11.2073  -15.8300 C   0  0  0  0  0  0  0  0  0  0  0  0
   15.6142  -12.0365  -16.7490 C   0  0  0  0  0  0  0  0  0  0  0  0
   14.5191  -12.4528  -16.2805 O   0  0  0  0  0  0  0  0  0  0  0  0
   18.8867  -10.7242  -15.2866 C   0  0  0  0  0  0  0  0  0  0  0  0
   19.0609  -10.8783  -14.0043 O   0  0  0  0  0  0  0  0  0  0  0  0
   16.0010  -12.3303  -18.0310 O   0  0  0  0  0  0  0  0  0  0  0  0
   19.6799   -9.7173  -15.8669 N   0  0  0  0  0  0  0  0  0  0  0  0
   19.7503   -9.1067  -17.1610 C   0  0  0  0  0  0  0  0  0  0  0  0
   21.2720   -9.1466  -17.3954 C   0  0  0  0  0  0  0  0  0  0  0  0
   21.7599   -8.5652  -16.0860 C   0  0  0  0  0  0  0  0  0  0  0  0
   20.7238   -9.0106  -15.1028 C   0  0  1  0  0  0  0  0  0  0  0  0
   20.1268   -7.8929  -14.3275 C   0  0  0  0  0  0  0  0  0  0  0  0
   18.9711   -7.4718  -14.5843 O   0  0  0  0  0  0  0  0  0  0  0  0
   20.8315   -7.2483  -13.2615 N   0  0  0  0  0  0  0  0  0  0  0  0
   20.2801   -6.1894  -12.4749 C   0  0  1  0  0  0  0  0  0  0  0  0
   19.6962   -6.6644  -11.1647 C   0  0  0  0  0  0  0  0  0  0  0  0
   19.2453   -5.5771  -10.3024 C   0  0  0  0  0  0  0  0  0  0  0  0
   18.7264   -4.5265  -10.7498 O   0  0  0  0  0  0  0  0  0  0  0  0
   21.2063   -5.0497  -12.2848 C   0  0  0  0  0  0  0  0  0  0  0  0
   20.8429   -3.9068  -11.9282 O   0  0  0  0  0  0  0  0  0  0  0  0
   19.3889   -5.6942   -8.9310 O   0  0  0  0  0  0  0  0  0  0  0  0
   22.5558   -5.2588  -12.5148 O   0  0  0  0  0  0  0  0  0  0  0  0
  2  1  1  1
  2  3  1  0
  3  4  1  0
  4  8  1  0
  5  4  2  0
  6  2  1  0
  7  6  2  0
  9  6  1  0
  9 13  1  0
 10 11  1  0
 10  9  1  0
 11 12  1  0
 12 13  1  0
 14 16  1  0
 13 14  1  6
 15 14  2  0
 17 16  1  0
 17 18  1  1
 19 18  1  0
 19 23  1  0
 20 19  2  0
 21 24  1  0
 21 17  1  0
 22 21  2  0
M  END
$$$$
