DPD.pdb
     RDKit          3D

 24 24  0  0  1  0  0  0  0  0999 V2000
   27.3676  -22.5330  -16.7142 N   0  0  0  0  0  0  0  0  0  0  0  0
   27.1669  -21.3269  -15.9350 C   0  0  1  0  0  0  0  0  0  0  0  0
   27.0255  -20.1740  -16.8859 C   0  0  0  0  0  0  0  0  0  0  0  0
   27.6134  -18.9130  -16.3216 C   0  0  0  0  0  0  0  0  0  0  0  0
   26.7988  -18.0791  -15.8387 O   0  0  0  0  0  0  0  0  0  0  0  0
   26.1414  -21.4943  -14.9178 C   0  0  0  0  0  0  0  0  0  0  0  0
   25.0773  -22.1411  -15.3020 O   0  0  0  0  0  0  0  0  0  0  0  0
   28.9631  -18.6729  -16.3271 O   0  0  0  0  0  0  0  0  0  0  0  0
   26.1128  -21.0667  -13.5777 N   0  0  0  0  0  0  0  0  0  0  0  0
   27.0022  -20.3243  -12.7347 C   0  0  0  0  0  0  0  0  0  0  0  0
   26.9895  -21.2153  -11.4785 C   0  0  0  0  0  0  0  0  0  0  0  0
   25.4982  -21.3964  -11.2939 C   0  0  0  0  0  0  0  0  0  0  0  0
   24.9691  -21.3528  -12.6927 C   0  0  1  0  0  0  0  0  0  0  0  0
   23.9005  -20.3396  -12.8882 C   0  0  0  0  0  0  0  0  0  0  0  0
   24.1492  -19.2326  -13.4283 O   0  0  0  0  0  0  0  0  0  0  0  0
   22.5500  -20.5726  -12.4755 N   0  0  0  0  0  0  0  0  0  0  0  0
   21.4120  -20.2790  -13.2896 C   0  0  1  0  0  0  0  0  0  0  0  0
   21.6502  -20.5374  -14.7593 C   0  0  0  0  0  0  0  0  0  0  0  0
   21.4217  -19.3660  -15.5987 C   0  0  0  0  0  0  0  0  0  0  0  0
   21.5740  -19.3828  -16.8435 O   0  0  0  0  0  0  0  0  0  0  0  0
   20.1634  -20.9167  -12.8129 C   0  0  0  0  0  0  0  0  0  0  0  0
   19.9893  -22.1545  -12.7562 O   0  0  0  0  0  0  0  0  0  0  0  0
   21.0197  -18.1787  -15.0123 O   0  0  0  0  0  0  0  0  0  0  0  0
   19.1249  -20.0963  -12.4051 O   0  0  0  0  0  0  0  0  0  0  0  0
  2  1  1  6
  2  3  1  0
  3  4  1  0
  4  8  1  0
  5  4  2  0
  6  2  1  0
  7  6  2  0
  9  6  1  0
  9 13  1  0
 10 11  1  0
 10  9  1  0
 11 12  1  0
 12 13  1  0
 14 16  1  0
 13 14  1  1
 15 14  2  0
 17 16  1  0
 17 18  1  6
 19 18  1  0
 19 23  1  0
 20 19  2  0
 21 24  1  0
 21 17  1  0
 22 21  2  0
M  END
$$$$
