DPD.pdb
     RDKit          3D

 24 24  0  0  1  0  0  0  0  0999 V2000
   16.9441   -9.2428  -11.3516 N   0  0  0  0  0  0  0  0  0  0  0  0
   17.5702   -9.0750  -12.6485 C   0  0  1  0  0  0  0  0  0  0  0  0
   16.4907   -8.8151  -13.6588 C   0  0  0  0  0  0  0  0  0  0  0  0
   15.5690   -9.9916  -13.8020 C   0  0  0  0  0  0  0  0  0  0  0  0
   14.3362   -9.7610  -13.6639 O   0  0  0  0  0  0  0  0  0  0  0  0
   18.6902   -8.1489  -12.6021 C   0  0  0  0  0  0  0  0  0  0  0  0
   18.5684   -7.1710  -11.7493 O   0  0  0  0  0  0  0  0  0  0  0  0
   16.0346  -11.2531  -14.0687 O   0  0  0  0  0  0  0  0  0  0  0  0
   19.8911   -8.1382  -13.3351 N   0  0  0  0  0  0  0  0  0  0  0  0
   20.4672   -8.9779  -14.3429 C   0  0  0  0  0  0  0  0  0  0  0  0
   21.8945   -9.1291  -13.7842 C   0  0  0  0  0  0  0  0  0  0  0  0
   22.2282   -7.6792  -13.5065 C   0  0  0  0  0  0  0  0  0  0  0  0
   20.9020   -7.0799  -13.1592 C   0  0  1  0  0  0  0  0  0  0  0  0
   20.5557   -5.8944  -13.9848 C   0  0  0  0  0  0  0  0  0  0  0  0
   19.8008   -5.9997  -14.9839 O   0  0  0  0  0  0  0  0  0  0  0  0
   21.0594   -4.5887  -13.6855 N   0  0  0  0  0  0  0  0  0  0  0  0
   20.7652   -3.4286  -14.4677 C   0  0  1  0  0  0  0  0  0  0  0  0
   20.3765   -2.2312  -13.6318 C   0  0  0  0  0  0  0  0  0  0  0  0
   20.0748   -1.0439  -14.4243 C   0  0  0  0  0  0  0  0  0  0  0  0
   19.2962   -1.0638  -15.4075 O   0  0  0  0  0  0  0  0  0  0  0  0
   21.8208   -3.0952  -15.4512 C   0  0  0  0  0  0  0  0  0  0  0  0
   23.0429   -3.2747  -15.2514 O   0  0  0  0  0  0  0  0  0  0  0  0
   20.6641    0.1629  -14.0905 O   0  0  0  0  0  0  0  0  0  0  0  0
   21.4350   -2.5521  -16.6653 O   0  0  0  0  0  0  0  0  0  0  0  0
  2  1  1  1
  2  3  1  0
  3  4  1  0
  4  8  1  0
  5  4  2  0
  6  2  1  0
  7  6  2  0
  9  6  1  0
  9 13  1  0
 10 11  1  0
 10  9  1  0
 11 12  1  0
 12 13  1  0
 14 16  1  0
 13 14  1  6
 15 14  2  0
 17 16  1  0
 17 18  1  1
 19 18  1  0
 19 23  1  0
 20 19  2  0
 21 24  1  0
 21 17  1  0
 22 21  2  0
M  END
$$$$
