DPD.pdb
     RDKit          3D

 24 24  0  0  1  0  0  0  0  0999 V2000
   14.2298  -10.8763  -14.1128 N   0  0  0  0  0  0  0  0  0  0  0  0
   14.7670  -10.9653  -12.7690 C   0  0  1  0  0  0  0  0  0  0  0  0
   16.2251  -11.3077  -12.8701 C   0  0  0  0  0  0  0  0  0  0  0  0
   16.4367  -12.6613  -13.4843 C   0  0  0  0  0  0  0  0  0  0  0  0
   17.3629  -12.7544  -14.3361 O   0  0  0  0  0  0  0  0  0  0  0  0
   14.3960   -9.8210  -11.9521 C   0  0  0  0  0  0  0  0  0  0  0  0
   14.3392   -8.6822  -12.5832 O   0  0  0  0  0  0  0  0  0  0  0  0
   15.6681  -13.7439  -13.1429 O   0  0  0  0  0  0  0  0  0  0  0  0
   14.0877   -9.7451  -10.5815 N   0  0  0  0  0  0  0  0  0  0  0  0
   14.0936  -10.6749   -9.4915 C   0  0  0  0  0  0  0  0  0  0  0  0
   12.7198  -10.3669   -8.8670 C   0  0  0  0  0  0  0  0  0  0  0  0
   12.7986   -8.8581   -8.7778 C   0  0  0  0  0  0  0  0  0  0  0  0
   13.6518   -8.4867   -9.9494 C   0  0  1  0  0  0  0  0  0  0  0  0
   14.8299   -7.6593   -9.5829 C   0  0  0  0  0  0  0  0  0  0  0  0
   15.9920   -8.1361   -9.6190 O   0  0  0  0  0  0  0  0  0  0  0  0
   14.7000   -6.2935   -9.1755 N   0  0  0  0  0  0  0  0  0  0  0  0
   15.6816   -5.2901   -9.4469 C   0  0  1  0  0  0  0  0  0  0  0  0
   16.1350   -5.2768  -10.8884 C   0  0  0  0  0  0  0  0  0  0  0  0
   17.0564   -4.1883  -11.1966 C   0  0  0  0  0  0  0  0  0  0  0  0
   18.0789   -3.9496  -10.5105 O   0  0  0  0  0  0  0  0  0  0  0  0
   15.2925   -3.9401   -8.9789 C   0  0  0  0  0  0  0  0  0  0  0  0
   14.1218   -3.4996   -9.0141 O   0  0  0  0  0  0  0  0  0  0  0  0
   16.8062   -3.3757  -12.2884 O   0  0  0  0  0  0  0  0  0  0  0  0
   16.2813   -3.1140   -8.4715 O   0  0  0  0  0  0  0  0  0  0  0  0
  2  1  1  6
  2  3  1  0
  3  4  1  0
  4  8  1  0
  5  4  2  0
  6  2  1  0
  7  6  2  0
  9  6  1  0
  9 13  1  0
 10 11  1  0
 10  9  1  0
 11 12  1  0
 12 13  1  0
 14 16  1  0
 13 14  1  1
 15 14  2  0
 17 16  1  0
 17 18  1  6
 19 18  1  0
 19 23  1  0
 20 19  2  0
 21 24  1  0
 21 17  1  0
 22 21  2  0
M  END
$$$$
