DPD.pdb
     RDKit          3D

 24 24  0  0  1  0  0  0  0  0999 V2000
   18.4260  -12.5879  -16.4033 N   0  0  0  0  0  0  0  0  0  0  0  0
   19.5493  -11.8974  -17.0063 C   0  0  1  0  0  0  0  0  0  0  0  0
   19.0617  -11.2042  -18.2453 C   0  0  0  0  0  0  0  0  0  0  0  0
   18.6964  -12.1838  -19.3228 C   0  0  0  0  0  0  0  0  0  0  0  0
   19.4836  -13.1556  -19.4905 O   0  0  0  0  0  0  0  0  0  0  0  0
   20.2931  -11.1080  -16.0378 C   0  0  0  0  0  0  0  0  0  0  0  0
   19.5673  -10.4911  -15.1484 O   0  0  0  0  0  0  0  0  0  0  0  0
   17.5687  -12.0371  -20.0885 O   0  0  0  0  0  0  0  0  0  0  0  0
   21.6785  -10.9010  -15.9066 N   0  0  0  0  0  0  0  0  0  0  0  0
   22.8380  -11.3378  -16.6260 C   0  0  0  0  0  0  0  0  0  0  0  0
   23.7331  -11.7783  -15.4525 C   0  0  0  0  0  0  0  0  0  0  0  0
   23.6202  -10.5623  -14.5586 C   0  0  0  0  0  0  0  0  0  0  0  0
   22.2421  -10.0526  -14.8410 C   0  0  1  0  0  0  0  0  0  0  0  0
   22.2133   -8.6248  -15.2500 C   0  0  0  0  0  0  0  0  0  0  0  0
   22.0293   -8.2987  -16.4495 O   0  0  0  0  0  0  0  0  0  0  0  0
   22.3914   -7.5624  -14.3077 N   0  0  0  0  0  0  0  0  0  0  0  0
   22.0444   -6.2014  -14.5747 C   0  0  1  0  0  0  0  0  0  0  0  0
   20.6467   -6.0418  -15.1264 C   0  0  0  0  0  0  0  0  0  0  0  0
   20.2711   -4.6516  -15.3616 C   0  0  0  0  0  0  0  0  0  0  0  0
   21.0372   -3.8254  -15.9126 O   0  0  0  0  0  0  0  0  0  0  0  0
   22.2933   -5.2925  -13.4324 C   0  0  0  0  0  0  0  0  0  0  0  0
   22.1654   -5.6269  -12.2334 O   0  0  0  0  0  0  0  0  0  0  0  0
   19.0206   -4.2101  -14.9661 O   0  0  0  0  0  0  0  0  0  0  0  0
   22.6913   -3.9944  -13.7046 O   0  0  0  0  0  0  0  0  0  0  0  0
  2  1  1  1
  2  3  1  0
  3  4  1  0
  4  8  1  0
  5  4  2  0
  6  2  1  0
  7  6  2  0
  9  6  1  0
  9 13  1  0
 10 11  1  0
 10  9  1  0
 11 12  1  0
 12 13  1  0
 14 16  1  0
 13 14  1  6
 15 14  2  0
 17 16  1  0
 17 18  1  1
 19 18  1  0
 19 23  1  0
 20 19  2  0
 21 24  1  0
 21 17  1  0
 22 21  2  0
M  END
$$$$
