DPD.pdb
     RDKit          3D

 24 24  0  0  1  0  0  0  0  0999 V2000
   19.0176  -13.0092  -16.2048 N   0  0  0  0  0  0  0  0  0  0  0  0
   19.9189  -12.0711  -16.8449 C   0  0  1  0  0  0  0  0  0  0  0  0
   19.1768  -11.3986  -17.9632 C   0  0  0  0  0  0  0  0  0  0  0  0
   18.8465  -12.3601  -19.0680 C   0  0  0  0  0  0  0  0  0  0  0  0
   17.6212  -12.5421  -19.3082 O   0  0  0  0  0  0  0  0  0  0  0  0
   20.6045  -11.2238  -15.8824 C   0  0  0  0  0  0  0  0  0  0  0  0
   19.8712  -10.8024  -14.8909 O   0  0  0  0  0  0  0  0  0  0  0  0
   19.8192  -13.0101  -19.7826 O   0  0  0  0  0  0  0  0  0  0  0  0
   21.9400  -10.7822  -15.8499 N   0  0  0  0  0  0  0  0  0  0  0  0
   23.0934  -10.9907  -16.6738 C   0  0  0  0  0  0  0  0  0  0  0  0
   24.1450  -11.3003  -15.5919 C   0  0  0  0  0  0  0  0  0  0  0  0
   23.8999  -10.1472  -14.6427 C   0  0  0  0  0  0  0  0  0  0  0  0
   22.4362   -9.8778  -14.7969 C   0  0  1  0  0  0  0  0  0  0  0  0
   22.1292   -8.4663  -15.1436 C   0  0  0  0  0  0  0  0  0  0  0  0
   21.9957   -8.1082  -16.3406 O   0  0  0  0  0  0  0  0  0  0  0  0
   21.9719   -7.4566  -14.1416 N   0  0  0  0  0  0  0  0  0  0  0  0
   21.6157   -6.1026  -14.4317 C   0  0  1  0  0  0  0  0  0  0  0  0
   20.1317   -5.9108  -14.6425 C   0  0  0  0  0  0  0  0  0  0  0  0
   19.7581   -4.5259  -14.9102 C   0  0  0  0  0  0  0  0  0  0  0  0
   20.4891   -3.7387  -15.5576 O   0  0  0  0  0  0  0  0  0  0  0  0
   22.1660   -5.1260  -13.4642 C   0  0  0  0  0  0  0  0  0  0  0  0
   22.5378   -5.4233  -12.3070 O   0  0  0  0  0  0  0  0  0  0  0  0
   18.5498   -4.0452  -14.4370 O   0  0  0  0  0  0  0  0  0  0  0  0
   22.2766   -3.8039  -13.8612 O   0  0  0  0  0  0  0  0  0  0  0  0
  2  1  1  1
  2  3  1  0
  3  4  1  0
  4  8  1  0
  5  4  2  0
  6  2  1  0
  7  6  2  0
  9  6  1  0
  9 13  1  0
 10 11  1  0
 10  9  1  0
 11 12  1  0
 12 13  1  0
 14 16  1  0
 13 14  1  6
 15 14  2  0
 17 16  1  0
 17 18  1  1
 19 18  1  0
 19 23  1  0
 20 19  2  0
 21 24  1  0
 21 17  1  0
 22 21  2  0
M  END
$$$$
