DPD.pdb
     RDKit          3D

 24 24  0  0  1  0  0  0  0  0999 V2000
   18.9798  -13.0118  -16.7960 N   0  0  0  0  0  0  0  0  0  0  0  0
   20.2608  -12.4114  -17.1132 C   0  0  1  0  0  0  0  0  0  0  0  0
   20.1828  -11.8503  -18.5034 C   0  0  0  0  0  0  0  0  0  0  0  0
   19.9332  -12.9241  -19.5227 C   0  0  0  0  0  0  0  0  0  0  0  0
   18.8972  -12.7974  -20.2317 O   0  0  0  0  0  0  0  0  0  0  0  0
   20.7331  -11.5332  -16.0549 C   0  0  0  0  0  0  0  0  0  0  0  0
   19.8010  -10.8996  -15.4006 O   0  0  0  0  0  0  0  0  0  0  0  0
   20.7816  -13.9893  -19.6806 O   0  0  0  0  0  0  0  0  0  0  0  0
   22.0426  -11.2549  -15.6220 N   0  0  0  0  0  0  0  0  0  0  0  0
   23.3468  -11.7288  -15.9787 C   0  0  0  0  0  0  0  0  0  0  0  0
   23.9329  -11.9850  -14.5776 C   0  0  0  0  0  0  0  0  0  0  0  0
   23.5933  -10.6742  -13.9015 C   0  0  0  0  0  0  0  0  0  0  0  0
   22.3208  -10.2599  -14.5705 C   0  0  1  0  0  0  0  0  0  0  0  0
   22.3783   -8.8954  -15.1551 C   0  0  0  0  0  0  0  0  0  0  0  0
   22.4250   -8.7257  -16.3993 O   0  0  0  0  0  0  0  0  0  0  0  0
   22.3832   -7.7202  -14.3382 N   0  0  0  0  0  0  0  0  0  0  0  0
   22.1201   -6.4072  -14.8391 C   0  0  1  0  0  0  0  0  0  0  0  0
   20.8325   -6.3181  -15.6251 C   0  0  0  0  0  0  0  0  0  0  0  0
   20.5331   -4.9703  -16.0970 C   0  0  0  0  0  0  0  0  0  0  0  0
   21.1396   -4.4365  -17.0564 O   0  0  0  0  0  0  0  0  0  0  0  0
   22.2092   -5.3509  -13.8052 C   0  0  0  0  0  0  0  0  0  0  0  0
   21.9422   -5.5329  -12.5964 O   0  0  0  0  0  0  0  0  0  0  0  0
   19.5410   -4.2365  -15.4705 O   0  0  0  0  0  0  0  0  0  0  0  0
   22.6116   -4.0851  -14.1970 O   0  0  0  0  0  0  0  0  0  0  0  0
  2  1  1  1
  2  3  1  0
  3  4  1  0
  4  8  1  0
  5  4  2  0
  6  2  1  0
  7  6  2  0
  9  6  1  0
  9 13  1  0
 10 11  1  0
 10  9  1  0
 11 12  1  0
 12 13  1  0
 14 16  1  0
 13 14  1  6
 15 14  2  0
 17 16  1  0
 17 18  1  1
 19 18  1  0
 19 23  1  0
 20 19  2  0
 21 24  1  0
 21 17  1  0
 22 21  2  0
M  END
$$$$
