DPD.pdb
     RDKit          3D

 24 24  0  0  1  0  0  0  0  0999 V2000
   17.0105  -11.8854  -15.3284 N   0  0  0  0  0  0  0  0  0  0  0  0
   17.8455  -11.2031  -16.2976 C   0  0  1  0  0  0  0  0  0  0  0  0
   16.9524  -10.4178  -17.2137 C   0  0  0  0  0  0  0  0  0  0  0  0
   16.0636  -11.3144  -18.0263 C   0  0  0  0  0  0  0  0  0  0  0  0
   16.6387  -12.1925  -18.7265 O   0  0  0  0  0  0  0  0  0  0  0  0
   18.9550  -10.5028  -15.6707 C   0  0  0  0  0  0  0  0  0  0  0  0
   18.6873   -9.9549  -14.5190 O   0  0  0  0  0  0  0  0  0  0  0  0
   14.6983  -11.1917  -18.0135 O   0  0  0  0  0  0  0  0  0  0  0  0
   20.2788  -10.3197  -16.1109 N   0  0  0  0  0  0  0  0  0  0  0  0
   21.0231  -10.7191  -17.2682 C   0  0  0  0  0  0  0  0  0  0  0  0
   22.3041  -11.2473  -16.5956 C   0  0  0  0  0  0  0  0  0  0  0  0
   22.6140  -10.0933  -15.6666 C   0  0  0  0  0  0  0  0  0  0  0  0
   21.2617   -9.5513  -15.3259 C   0  0  1  0  0  0  0  0  0  0  0  0
   21.1208   -8.0988  -15.6041 C   0  0  0  0  0  0  0  0  0  0  0  0
   20.5177   -7.6916  -16.6286 O   0  0  0  0  0  0  0  0  0  0  0  0
   21.6592   -7.1033  -14.7281 N   0  0  0  0  0  0  0  0  0  0  0  0
   21.3908   -5.7051  -14.8593 C   0  0  1  0  0  0  0  0  0  0  0  0
   19.9146   -5.3843  -14.8954 C   0  0  0  0  0  0  0  0  0  0  0  0
   19.6339   -3.9637  -15.0748 C   0  0  0  0  0  0  0  0  0  0  0  0
   20.5298   -3.1202  -15.3179 O   0  0  0  0  0  0  0  0  0  0  0  0
   22.1127   -4.8692  -13.8729 C   0  0  0  0  0  0  0  0  0  0  0  0
   22.6183   -5.3137  -12.8182 O   0  0  0  0  0  0  0  0  0  0  0  0
   18.3297   -3.5117  -14.9758 O   0  0  0  0  0  0  0  0  0  0  0  0
   22.2371   -3.5143  -14.1309 O   0  0  0  0  0  0  0  0  0  0  0  0
  2  1  1  1
  2  3  1  0
  3  4  1  0
  4  8  1  0
  5  4  2  0
  6  2  1  0
  7  6  2  0
  9  6  1  0
  9 13  1  0
 10 11  1  0
 10  9  1  0
 11 12  1  0
 12 13  1  0
 14 16  1  0
 13 14  1  6
 15 14  2  0
 17 16  1  0
 17 18  1  1
 19 18  1  0
 19 23  1  0
 20 19  2  0
 21 24  1  0
 21 17  1  0
 22 21  2  0
M  END
$$$$
