DPD.pdb
     RDKit          3D

 24 24  0  0  1  0  0  0  0  0999 V2000
   18.3451  -12.6296  -16.2130 N   0  0  0  0  0  0  0  0  0  0  0  0
   19.3670  -11.8377  -16.8694 C   0  0  1  0  0  0  0  0  0  0  0  0
   18.7843  -11.2785  -18.1348 C   0  0  0  0  0  0  0  0  0  0  0  0
   18.3458  -12.3659  -19.0726 C   0  0  0  0  0  0  0  0  0  0  0  0
   19.2495  -13.1301  -19.5102 O   0  0  0  0  0  0  0  0  0  0  0  0
   20.0150  -10.9107  -15.9557 C   0  0  0  0  0  0  0  0  0  0  0  0
   19.2414  -10.4010  -15.0391 O   0  0  0  0  0  0  0  0  0  0  0  0
   17.0346  -12.5264  -19.4390 O   0  0  0  0  0  0  0  0  0  0  0  0
   21.3508  -10.4719  -15.9025 N   0  0  0  0  0  0  0  0  0  0  0  0
   22.5193  -10.6924  -16.7016 C   0  0  0  0  0  0  0  0  0  0  0  0
   23.5491  -10.9923  -15.5963 C   0  0  0  0  0  0  0  0  0  0  0  0
   23.2888   -9.8280  -14.6650 C   0  0  0  0  0  0  0  0  0  0  0  0
   21.8291   -9.5570  -14.8503 C   0  0  1  0  0  0  0  0  0  0  0  0
   21.5324   -8.1487  -15.2186 C   0  0  0  0  0  0  0  0  0  0  0  0
   21.3644   -7.8151  -16.4184 O   0  0  0  0  0  0  0  0  0  0  0  0
   21.4245   -7.1145  -14.2351 N   0  0  0  0  0  0  0  0  0  0  0  0
   21.1694   -5.7441  -14.5528 C   0  0  1  0  0  0  0  0  0  0  0  0
   19.7035   -5.3824  -14.4895 C   0  0  0  0  0  0  0  0  0  0  0  0
   19.4388   -3.9794  -14.7903 C   0  0  0  0  0  0  0  0  0  0  0  0
   19.9041   -3.4025  -15.8021 O   0  0  0  0  0  0  0  0  0  0  0  0
   22.0055   -4.7934  -13.7847 C   0  0  0  0  0  0  0  0  0  0  0  0
   22.2970   -3.6427  -14.1804 O   0  0  0  0  0  0  0  0  0  0  0  0
   18.6426   -3.2400  -13.9333 O   0  0  0  0  0  0  0  0  0  0  0  0
   22.4953   -5.1997  -12.5548 O   0  0  0  0  0  0  0  0  0  0  0  0
  2  1  1  1
  2  3  1  0
  3  4  1  0
  4  8  1  0
  5  4  2  0
  6  2  1  0
  7  6  2  0
  9  6  1  0
  9 13  1  0
 10 11  1  0
 10  9  1  0
 11 12  1  0
 12 13  1  0
 14 16  1  0
 13 14  1  6
 15 14  2  0
 17 16  1  0
 17 18  1  1
 19 18  1  0
 19 23  1  0
 20 19  2  0
 21 24  1  0
 21 17  1  0
 22 21  2  0
M  END
$$$$
