MKE.pdb
     RDKit          3D

 27 26  0  0  1  0  0  0  0  0999 V2000
    8.0467  -11.6038   27.1215 C   0  0  0  0  0  0  0  0  0  0  0  0
    6.6095  -12.3597   27.8424 S   0  0  0  0  0  0  0  0  0  0  0  0
    6.0454  -13.8539   27.1063 C   0  0  0  0  0  0  0  0  0  0  0  0
    6.8858  -14.4047   26.0263 C   0  0  0  0  0  0  0  0  0  0  0  0
    6.4238  -15.5997   25.2695 C   0  0  2  0  0  0  0  0  0  0  0  0
    6.3593  -16.8181   25.9831 N   0  0  0  0  0  0  0  0  0  0  0  0
    7.0927  -15.6424   23.9566 C   0  0  0  0  0  0  0  0  0  0  0  0
    7.8260  -16.6228   23.6568 O   0  0  0  0  0  0  0  0  0  0  0  0
    6.9876  -14.6206   22.9389 N   0  0  0  0  0  0  0  0  0  0  0  0
    7.7912  -14.6740   21.7625 C   0  0  1  0  0  0  0  0  0  0  0  0
    7.7545  -13.5967   20.7556 C   0  0  0  0  0  0  0  0  0  0  0  0
    8.5911  -13.6016   19.5567 C   0  0  0  0  0  0  0  0  0  0  0  0
    7.9218  -14.1184   18.3291 C   0  0  0  0  0  0  0  0  0  0  0  0
    8.9690  -14.0564   17.2102 C   0  0  0  0  0  0  0  0  0  0  0  0
    8.3788  -14.4972   15.9672 N   0  0  0  0  0  0  0  0  0  0  0  0
    9.2049  -14.9489   22.2295 C   0  0  0  0  0  0  0  0  0  0  0  0
    9.7197  -14.3038   23.1761 O   0  0  0  0  0  0  0  0  0  0  0  0
    9.9954  -15.9495   21.6105 N   0  0  0  0  0  0  0  0  0  0  0  0
   11.4286  -16.1338   21.9643 C   0  0  1  0  0  0  0  0  0  0  0  0
   11.5990  -17.4392   22.6710 C   0  0  0  0  0  0  0  0  0  0  0  0
   11.0995  -17.4104   24.0776 C   0  0  0  0  0  0  0  0  0  0  0  0
   11.2958  -18.6942   24.7733 C   0  0  0  0  0  0  0  0  0  0  0  0
   11.7481  -19.6838   24.1149 O   0  0  0  0  0  0  0  0  0  0  0  0
   12.1851  -16.0012   20.7145 C   0  0  0  0  0  0  0  0  0  0  0  0
   13.5713  -15.7646   20.6813 O   0  0  0  0  0  0  0  0  0  0  0  0
   11.0049  -18.8600   26.1109 O   0  0  0  0  0  0  0  0  0  0  0  0
   11.6404  -16.0911   19.5891 O   0  0  0  0  0  0  0  0  0  0  0  0
  1  2  1  0
  3  4  1  0
  3  2  1  0
  4  5  1  0
  5  6  1  1
  7  5  1  0
  7  8  2  0
  9  7  1  0
 10  9  1  0
 10 11  1  1
 12 11  1  0
 13 12  1  0
 13 14  1  0
 14 15  1  0
 16 10  1  0
 17 16  2  0
 18 16  1  0
 19 18  1  0
 19 20  1  6
 21 20  1  0
 22 21  1  0
 23 22  2  0
 24 19  1  0
 24 25  1  0
 26 22  1  0
 27 24  2  0
M  END
$$$$
