MKE.pdb
     RDKit          3D

 27 26  0  0  1  0  0  0  0  0999 V2000
    4.7384  -11.7016   27.7547 C   0  0  0  0  0  0  0  0  0  0  0  0
    6.4741  -11.4894   27.4400 S   0  0  0  0  0  0  0  0  0  0  0  0
    7.0774  -12.0739   25.8950 C   0  0  0  0  0  0  0  0  0  0  0  0
    7.4409  -13.5023   25.8369 C   0  0  0  0  0  0  0  0  0  0  0  0
    6.5994  -14.4457   25.0519 C   0  0  2  0  0  0  0  0  0  0  0  0
    6.0273  -15.5270   25.7600 N   0  0  0  0  0  0  0  0  0  0  0  0
    7.2768  -14.7755   23.7849 C   0  0  0  0  0  0  0  0  0  0  0  0
    7.7992  -15.9121   23.6293 O   0  0  0  0  0  0  0  0  0  0  0  0
    7.4094  -13.8795   22.6578 N   0  0  0  0  0  0  0  0  0  0  0  0
    8.1147  -14.2783   21.4849 C   0  0  1  0  0  0  0  0  0  0  0  0
    8.2642  -13.3718   20.3309 C   0  0  0  0  0  0  0  0  0  0  0  0
    8.8056  -13.8067   19.0444 C   0  0  0  0  0  0  0  0  0  0  0  0
    8.1810  -15.0404   18.4879 C   0  0  0  0  0  0  0  0  0  0  0  0
    8.8918  -15.3196   17.1578 C   0  0  0  0  0  0  0  0  0  0  0  0
    8.4561  -16.5929   16.6318 N   0  0  0  0  0  0  0  0  0  0  0  0
    9.4548  -14.8021   21.9560 C   0  0  0  0  0  0  0  0  0  0  0  0
   10.2184  -14.1034   22.6674 O   0  0  0  0  0  0  0  0  0  0  0  0
    9.8912  -16.1052   21.6085 N   0  0  0  0  0  0  0  0  0  0  0  0
   11.1944  -16.6394   22.0874 C   0  0  1  0  0  0  0  0  0  0  0  0
   10.9488  -17.6689   23.1421 C   0  0  0  0  0  0  0  0  0  0  0  0
   12.1956  -18.3628   23.5813 C   0  0  0  0  0  0  0  0  0  0  0  0
   11.9373  -19.4017   24.5936 C   0  0  0  0  0  0  0  0  0  0  0  0
   12.7556  -19.5327   25.5582 O   0  0  0  0  0  0  0  0  0  0  0  0
   11.9057  -17.1249   20.8998 C   0  0  0  0  0  0  0  0  0  0  0  0
   13.3028  -17.0433   20.7589 O   0  0  0  0  0  0  0  0  0  0  0  0
   10.8418  -20.2366   24.5302 O   0  0  0  0  0  0  0  0  0  0  0  0
   11.3093  -17.6471   19.9287 O   0  0  0  0  0  0  0  0  0  0  0  0
  1  2  1  0
  3  4  1  0
  3  2  1  0
  4  5  1  0
  5  6  1  1
  7  5  1  0
  7  8  2  0
  9  7  1  0
 10  9  1  0
 10 11  1  6
 12 11  1  0
 13 12  1  0
 13 14  1  0
 14 15  1  0
 16 10  1  0
 17 16  2  0
 18 16  1  0
 19 18  1  0
 19 20  1  1
 21 20  1  0
 22 21  1  0
 23 22  2  0
 24 19  1  0
 24 25  1  0
 26 22  1  0
 27 24  2  0
M  END
$$$$
