MKE.pdb
     RDKit          3D

 27 26  0  0  1  0  0  0  0  0999 V2000
    7.2058  -11.8838   27.6398 C   0  0  0  0  0  0  0  0  0  0  0  0
    5.9386  -11.9746   26.3977 S   0  0  0  0  0  0  0  0  0  0  0  0
    6.4216  -12.5667   24.8137 C   0  0  0  0  0  0  0  0  0  0  0  0
    7.0951  -13.8787   24.7873 C   0  0  0  0  0  0  0  0  0  0  0  0
    8.0810  -14.1797   23.7140 C   0  0  2  0  0  0  0  0  0  0  0  0
    7.7083  -13.8368   22.3943 N   0  0  0  0  0  0  0  0  0  0  0  0
    8.6279  -15.5343   23.9109 C   0  0  0  0  0  0  0  0  0  0  0  0
    8.6742  -16.0310   25.0685 O   0  0  0  0  0  0  0  0  0  0  0  0
    9.1431  -16.3815   22.8584 N   0  0  0  0  0  0  0  0  0  0  0  0
    9.6085  -17.6990   23.1413 C   0  0  1  0  0  0  0  0  0  0  0  0
    9.7745  -18.7027   22.0732 C   0  0  0  0  0  0  0  0  0  0  0  0
   10.1938  -20.0786   22.3348 C   0  0  0  0  0  0  0  0  0  0  0  0
   10.4250  -20.9046   21.1157 C   0  0  0  0  0  0  0  0  0  0  0  0
   10.7524  -22.3189   21.6104 C   0  0  0  0  0  0  0  0  0  0  0  0
    9.5532  -23.1248   21.6070 N   0  0  0  0  0  0  0  0  0  0  0  0
   10.8784  -17.5335   23.9490 C   0  0  0  0  0  0  0  0  0  0  0  0
   11.7636  -16.7070   23.6166 O   0  0  0  0  0  0  0  0  0  0  0  0
   11.1082  -18.3092   25.1129 N   0  0  0  0  0  0  0  0  0  0  0  0
   12.3859  -18.2124   25.8688 C   0  0  1  0  0  0  0  0  0  0  0  0
   12.0884  -17.9715   27.3131 C   0  0  0  0  0  0  0  0  0  0  0  0
   11.3767  -16.6815   27.5546 C   0  0  0  0  0  0  0  0  0  0  0  0
   11.1485  -16.4216   28.9868 C   0  0  0  0  0  0  0  0  0  0  0  0
   11.4589  -17.3226   29.8290 O   0  0  0  0  0  0  0  0  0  0  0  0
   13.1303  -19.4443   25.5854 C   0  0  0  0  0  0  0  0  0  0  0  0
   14.5059  -19.5828   25.8439 O   0  0  0  0  0  0  0  0  0  0  0  0
   10.6092  -15.2381   29.4445 O   0  0  0  0  0  0  0  0  0  0  0  0
   12.5836  -20.4586   25.0917 O   0  0  0  0  0  0  0  0  0  0  0  0
  1  2  1  0
  3  4  1  0
  3  2  1  0
  4  5  1  0
  5  6  1  6
  7  5  1  0
  7  8  2  0
  9  7  1  0
 10  9  1  0
 10 11  1  6
 12 11  1  0
 13 12  1  0
 13 14  1  0
 14 15  1  0
 16 10  1  0
 17 16  2  0
 18 16  1  0
 19 18  1  0
 19 20  1  1
 21 20  1  0
 22 21  1  0
 23 22  2  0
 24 19  1  0
 24 25  1  0
 26 22  1  0
 27 24  2  0
M  END
$$$$
