MKE.pdb
     RDKit          3D

 27 26  0  0  1  0  0  0  0  0999 V2000
    6.5057  -10.9275   26.8313 C   0  0  0  0  0  0  0  0  0  0  0  0
    6.5090  -12.2537   28.0137 S   0  0  0  0  0  0  0  0  0  0  0  0
    6.1106  -13.8563   27.4093 C   0  0  0  0  0  0  0  0  0  0  0  0
    6.7993  -14.2755   26.1741 C   0  0  0  0  0  0  0  0  0  0  0  0
    6.4908  -15.6007   25.5715 C   0  0  2  0  0  0  0  0  0  0  0  0
    6.5668  -16.7219   26.4289 N   0  0  0  0  0  0  0  0  0  0  0  0
    7.1716  -15.7223   24.2697 C   0  0  0  0  0  0  0  0  0  0  0  0
    7.8124  -16.7715   23.9916 O   0  0  0  0  0  0  0  0  0  0  0  0
    7.1790  -14.7073   23.2399 N   0  0  0  0  0  0  0  0  0  0  0  0
    7.8949  -14.9048   22.0229 C   0  0  1  0  0  0  0  0  0  0  0  0
    7.7596  -13.9700   20.8899 C   0  0  0  0  0  0  0  0  0  0  0  0
    8.4248  -14.1785   19.6048 C   0  0  0  0  0  0  0  0  0  0  0  0
    8.0451  -13.2077   18.5392 C   0  0  0  0  0  0  0  0  0  0  0  0
    8.8702  -13.5832   17.3020 C   0  0  0  0  0  0  0  0  0  0  0  0
    8.5900  -14.9502   16.9274 N   0  0  0  0  0  0  0  0  0  0  0  0
    9.3451  -15.0973   22.4129 C   0  0  0  0  0  0  0  0  0  0  0  0
    9.9287  -14.2954   23.1832 O   0  0  0  0  0  0  0  0  0  0  0  0
   10.0929  -16.1958   21.9195 N   0  0  0  0  0  0  0  0  0  0  0  0
   11.5331  -16.3645   22.2520 C   0  0  1  0  0  0  0  0  0  0  0  0
   11.7640  -17.7513   22.7581 C   0  0  0  0  0  0  0  0  0  0  0  0
   12.6456  -17.7933   23.9623 C   0  0  0  0  0  0  0  0  0  0  0  0
   12.2507  -18.8453   24.9152 C   0  0  0  0  0  0  0  0  0  0  0  0
   11.2415  -19.5697   24.6430 O   0  0  0  0  0  0  0  0  0  0  0  0
   12.2827  -16.0129   21.0410 C   0  0  0  0  0  0  0  0  0  0  0  0
   13.6495  -15.6811   21.0574 O   0  0  0  0  0  0  0  0  0  0  0  0
   12.9353  -19.0699   26.0908 O   0  0  0  0  0  0  0  0  0  0  0  0
   11.7489  -15.9858   19.9071 O   0  0  0  0  0  0  0  0  0  0  0  0
  1  2  1  0
  3  4  1  0
  3  2  1  0
  4  5  1  0
  5  6  1  1
  7  5  1  0
  7  8  2  0
  9  7  1  0
 10  9  1  0
 10 11  1  6
 12 11  1  0
 13 12  1  0
 13 14  1  0
 14 15  1  0
 16 10  1  0
 17 16  2  0
 18 16  1  0
 19 18  1  0
 19 20  1  6
 21 20  1  0
 22 21  1  0
 23 22  2  0
 24 19  1  0
 24 25  1  0
 26 22  1  0
 27 24  2  0
M  END
$$$$
