MKE.pdb
     RDKit          3D

 27 26  0  0  1  0  0  0  0  0999 V2000
   50.1488  -73.0110   21.7291 C   0  0  0  0  0  0  0  0  0  0  0  0
   49.7149  -74.5324   20.9206 S   0  0  0  0  0  0  0  0  0  0  0  0
   51.0331  -75.6323   20.5397 C   0  0  0  0  0  0  0  0  0  0  0  0
   51.6292  -75.4932   19.1976 C   0  0  0  0  0  0  0  0  0  0  0  0
   53.0399  -75.0398   19.0610 C   0  0  2  0  0  0  0  0  0  0  0  0
   53.3432  -73.7496   19.5522 N   0  0  0  0  0  0  0  0  0  0  0  0
   53.5336  -75.3606   17.7096 C   0  0  0  0  0  0  0  0  0  0  0  0
   54.1795  -74.4980   17.0556 O   0  0  0  0  0  0  0  0  0  0  0  0
   53.3343  -76.6222   17.0318 N   0  0  0  0  0  0  0  0  0  0  0  0
   53.7366  -76.7957   15.6751 C   0  0  1  0  0  0  0  0  0  0  0  0
   53.9560  -78.1374   15.1029 C   0  0  0  0  0  0  0  0  0  0  0  0
   52.8616  -79.0043   14.6692 C   0  0  0  0  0  0  0  0  0  0  0  0
   52.5302  -80.1116   15.6104 C   0  0  0  0  0  0  0  0  0  0  0  0
   51.4664  -80.9667   14.9106 C   0  0  0  0  0  0  0  0  0  0  0  0
   50.3698  -81.2164   15.8176 N   0  0  0  0  0  0  0  0  0  0  0  0
   52.7648  -75.9888   14.8404 C   0  0  0  0  0  0  0  0  0  0  0  0
   52.7929  -74.7333   14.8326 O   0  0  0  0  0  0  0  0  0  0  0  0
   51.7887  -76.6287   14.0361 N   0  0  0  0  0  0  0  0  0  0  0  0
   51.5950  -78.1032   14.0788 C   0  0  1  0  0  0  0  0  0  0  0  0
   52.8870  -78.7808   13.7561 C   0  0  0  0  0  0  0  0  0  0  0  0
   53.4361  -78.3857   12.4252 C   0  0  0  0  0  0  0  0  0  0  0  0
   53.5902  -76.9269   12.2880 C   0  0  0  0  0  0  0  0  0  0  0  0
   54.7183  -76.4033   12.5540 O   0  0  0  0  0  0  0  0  0  0  0  0
   51.0463  -78.4116   15.4039 C   0  0  0  0  0  0  0  0  0  0  0  0
   49.7117  -78.8077   15.6054 O   0  0  0  0  0  0  0  0  0  0  0  0
   52.5549  -76.1110   11.8836 O   0  0  0  0  0  0  0  0  0  0  0  0
   51.7370  -78.3414   16.4477 O   0  0  0  0  0  0  0  0  0  0  0  0
  1  2  1  0
  3  4  1  0
  3  2  1  0
  4  5  1  0
  5  6  1  6
  7  5  1  0
  7  8  2  0
  9  7  1  0
 10  9  1  0
 10 11  1  6
 12 11  1  0
 13 12  1  0
 13 14  1  0
 14 15  1  0
 16 10  1  0
 17 16  2  0
 18 16  1  0
 19 18  1  0
 19 20  1  1
 21 20  1  0
 22 21  1  0
 23 22  2  0
 24 19  1  0
 24 25  1  0
 26 22  1  0
 27 24  2  0
M  END
$$$$
