MKE.pdb
     RDKit          3D

 27 26  0  0  1  0  0  0  0  0999 V2000
    5.2016  -11.7662   27.1220 C   0  0  0  0  0  0  0  0  0  0  0  0
    6.9720  -11.8673   27.2328 S   0  0  0  0  0  0  0  0  0  0  0  0
    7.7159  -13.3680   26.6968 C   0  0  0  0  0  0  0  0  0  0  0  0
    6.8627  -14.2680   25.8982 C   0  0  0  0  0  0  0  0  0  0  0  0
    7.4637  -15.4559   25.2334 C   0  0  2  0  0  0  0  0  0  0  0  0
    8.6909  -15.9236   25.7561 N   0  0  0  0  0  0  0  0  0  0  0  0
    7.3933  -15.2919   23.7702 C   0  0  0  0  0  0  0  0  0  0  0  0
    6.7764  -16.1409   23.0719 O   0  0  0  0  0  0  0  0  0  0  0  0
    7.9946  -14.2067   23.0275 N   0  0  0  0  0  0  0  0  0  0  0  0
    8.2525  -14.3303   21.6308 C   0  0  1  0  0  0  0  0  0  0  0  0
    8.1452  -13.1728   20.7228 C   0  0  0  0  0  0  0  0  0  0  0  0
    8.5891  -13.2121   19.3304 C   0  0  0  0  0  0  0  0  0  0  0  0
    7.7211  -14.0113   18.4195 C   0  0  0  0  0  0  0  0  0  0  0  0
    8.3526  -13.9099   17.0255 C   0  0  0  0  0  0  0  0  0  0  0  0
    7.5647  -14.6653   16.0789 N   0  0  0  0  0  0  0  0  0  0  0  0
    9.6011  -15.0076   21.5092 C   0  0  0  0  0  0  0  0  0  0  0  0
   10.5827  -14.6428   22.2024 O   0  0  0  0  0  0  0  0  0  0  0  0
    9.7985  -16.0815   20.6054 N   0  0  0  0  0  0  0  0  0  0  0  0
   11.1101  -16.7759   20.5018 C   0  0  1  0  0  0  0  0  0  0  0  0
   11.1783  -17.8586   21.5292 C   0  0  0  0  0  0  0  0  0  0  0  0
   11.6997  -19.1473   20.9847 C   0  0  0  0  0  0  0  0  0  0  0  0
   11.7963  -20.1975   22.0135 C   0  0  0  0  0  0  0  0  0  0  0  0
   12.8545  -20.9006   22.0724 O   0  0  0  0  0  0  0  0  0  0  0  0
   11.2307  -17.2303   19.1122 C   0  0  0  0  0  0  0  0  0  0  0  0
   12.4447  -17.6700   18.5542 O   0  0  0  0  0  0  0  0  0  0  0  0
   10.7801  -20.4451   22.9119 O   0  0  0  0  0  0  0  0  0  0  0  0
   10.2525  -17.2559   18.3287 O   0  0  0  0  0  0  0  0  0  0  0  0
  1  2  1  0
  3  4  1  0
  3  2  1  0
  4  5  1  0
  5  6  1  1
  7  5  1  0
  7  8  2  0
  9  7  1  0
 10  9  1  0
 10 11  1  1
 12 11  1  0
 13 12  1  0
 13 14  1  0
 14 15  1  0
 16 10  1  0
 17 16  2  0
 18 16  1  0
 19 18  1  0
 19 20  1  1
 21 20  1  0
 22 21  1  0
 23 22  2  0
 24 19  1  0
 24 25  1  0
 26 22  1  0
 27 24  2  0
M  END
$$$$
