MKE.pdb
     RDKit          3D

 27 26  0  0  1  0  0  0  0  0999 V2000
    7.7837  -11.3348   26.8478 C   0  0  0  0  0  0  0  0  0  0  0  0
    6.4370  -12.4470   27.1735 S   0  0  0  0  0  0  0  0  0  0  0  0
    6.8453  -14.1426   27.3990 C   0  0  0  0  0  0  0  0  0  0  0  0
    7.4823  -14.8165   26.2519 C   0  0  0  0  0  0  0  0  0  0  0  0
    6.6365  -15.4991   25.2355 C   0  0  2  0  0  0  0  0  0  0  0  0
    5.8263  -16.5629   25.6936 N   0  0  0  0  0  0  0  0  0  0  0  0
    7.4326  -15.7558   24.0217 C   0  0  0  0  0  0  0  0  0  0  0  0
    7.8799  -16.9126   23.7968 O   0  0  0  0  0  0  0  0  0  0  0  0
    7.7681  -14.7635   23.0249 N   0  0  0  0  0  0  0  0  0  0  0  0
    8.7568  -15.0282   22.0325 C   0  0  1  0  0  0  0  0  0  0  0  0
    8.9925  -14.0970   20.9131 C   0  0  0  0  0  0  0  0  0  0  0  0
    8.8533  -14.4888   19.5115 C   0  0  0  0  0  0  0  0  0  0  0  0
    8.2994  -13.4316   18.6185 C   0  0  0  0  0  0  0  0  0  0  0  0
    8.2358  -14.0451   17.2142 C   0  0  0  0  0  0  0  0  0  0  0  0
    7.5192  -13.1571   16.3279 N   0  0  0  0  0  0  0  0  0  0  0  0
   10.0371  -15.3295   22.7823 C   0  0  0  0  0  0  0  0  0  0  0  0
   10.4457  -14.5849   23.7074 O   0  0  0  0  0  0  0  0  0  0  0  0
   10.8179  -16.4686   22.4630 N   0  0  0  0  0  0  0  0  0  0  0  0
   12.0628  -16.7894   23.2118 C   0  0  1  0  0  0  0  0  0  0  0  0
   11.9485  -18.1597   23.7963 C   0  0  0  0  0  0  0  0  0  0  0  0
   13.2440  -18.6767   24.3284 C   0  0  0  0  0  0  0  0  0  0  0  0
   13.0769  -19.9006   25.1315 C   0  0  0  0  0  0  0  0  0  0  0  0
   12.4496  -20.8839   24.6247 O   0  0  0  0  0  0  0  0  0  0  0  0
   13.1725  -16.6069   22.2699 C   0  0  0  0  0  0  0  0  0  0  0  0
   14.4980  -16.3837   22.6842 O   0  0  0  0  0  0  0  0  0  0  0  0
   13.5748  -20.0156   26.4122 O   0  0  0  0  0  0  0  0  0  0  0  0
   13.0086  -16.6387   21.0275 O   0  0  0  0  0  0  0  0  0  0  0  0
  1  2  1  0
  3  4  1  0
  3  2  1  0
  4  5  1  0
  5  6  1  1
  7  5  1  0
  7  8  2  0
  9  7  1  0
 10  9  1  0
 10 11  1  6
 12 11  1  0
 13 12  1  0
 13 14  1  0
 14 15  1  0
 16 10  1  0
 17 16  2  0
 18 16  1  0
 19 18  1  0
 19 20  1  6
 21 20  1  0
 22 21  1  0
 23 22  2  0
 24 19  1  0
 24 25  1  0
 26 22  1  0
 27 24  2  0
M  END
$$$$
