MKE.pdb
     RDKit          3D

 27 26  0  0  1  0  0  0  0  0999 V2000
    8.1483  -11.5188   21.0017 C   0  0  0  0  0  0  0  0  0  0  0  0
    7.5985  -12.5392   19.6551 S   0  0  0  0  0  0  0  0  0  0  0  0
    7.8029  -14.2760   19.8411 C   0  0  0  0  0  0  0  0  0  0  0  0
    9.1867  -14.7521   20.0258 C   0  0  0  0  0  0  0  0  0  0  0  0
    9.4462  -16.2035   20.2268 C   0  0  2  0  0  0  0  0  0  0  0  0
    8.3740  -17.0841   19.9572 N   0  0  0  0  0  0  0  0  0  0  0  0
   10.1578  -16.4065   21.5017 C   0  0  0  0  0  0  0  0  0  0  0  0
   11.2121  -15.7589   21.7427 O   0  0  0  0  0  0  0  0  0  0  0  0
    9.7471  -17.3205   22.5441 N   0  0  0  0  0  0  0  0  0  0  0  0
   10.4917  -17.4322   23.7548 C   0  0  1  0  0  0  0  0  0  0  0  0
    9.9854  -18.2105   24.9009 C   0  0  0  0  0  0  0  0  0  0  0  0
   10.7674  -18.4355   26.1155 C   0  0  0  0  0  0  0  0  0  0  0  0
   10.0912  -19.2697   27.1492 C   0  0  0  0  0  0  0  0  0  0  0  0
   11.0062  -19.2543   28.3800 C   0  0  0  0  0  0  0  0  0  0  0  0
   10.3809  -19.9827   29.4598 N   0  0  0  0  0  0  0  0  0  0  0  0
   11.8832  -17.8750   23.3549 C   0  0  0  0  0  0  0  0  0  0  0  0
   12.0647  -18.8484   22.5826 O   0  0  0  0  0  0  0  0  0  0  0  0
   13.0308  -17.1999   23.8412 N   0  0  0  0  0  0  0  0  0  0  0  0
   14.4025  -17.6238   23.4514 C   0  0  1  0  0  0  0  0  0  0  0  0
   15.0571  -16.5266   22.6767 C   0  0  0  0  0  0  0  0  0  0  0  0
   16.4968  -16.7958   22.3871 C   0  0  0  0  0  0  0  0  0  0  0  0
   17.1391  -15.6967   21.6455 C   0  0  0  0  0  0  0  0  0  0  0  0
   17.6382  -14.7270   22.2998 O   0  0  0  0  0  0  0  0  0  0  0  0
   15.0882  -18.0026   24.6916 C   0  0  0  0  0  0  0  0  0  0  0  0
   16.2268  -18.8282   24.7141 O   0  0  0  0  0  0  0  0  0  0  0  0
   17.2160  -15.6822   20.2689 O   0  0  0  0  0  0  0  0  0  0  0  0
   14.7003  -17.6115   25.8177 O   0  0  0  0  0  0  0  0  0  0  0  0
  1  2  1  0
  3  4  1  0
  3  2  1  0
  4  5  1  0
  5  6  1  1
  7  5  1  0
  7  8  2  0
  9  7  1  0
 10  9  1  0
 10 11  1  1
 12 11  1  0
 13 12  1  0
 13 14  1  0
 14 15  1  0
 16 10  1  0
 17 16  2  0
 18 16  1  0
 19 18  1  0
 19 20  1  1
 21 20  1  0
 22 21  1  0
 23 22  2  0
 24 19  1  0
 24 25  1  0
 26 22  1  0
 27 24  2  0
M  END
$$$$
