MKE.pdb
     RDKit          3D

 27 26  0  0  1  0  0  0  0  0999 V2000
    7.7164  -11.5704   27.4154 C   0  0  0  0  0  0  0  0  0  0  0  0
    6.0198  -11.8271   26.9546 S   0  0  0  0  0  0  0  0  0  0  0  0
    5.7259  -12.5299   25.3695 C   0  0  0  0  0  0  0  0  0  0  0  0
    6.5651  -13.6870   25.0053 C   0  0  0  0  0  0  0  0  0  0  0  0
    7.6457  -13.5249   23.9952 C   0  0  2  0  0  0  0  0  0  0  0  0
    7.3615  -12.6931   22.8883 N   0  0  0  0  0  0  0  0  0  0  0  0
    8.2411  -14.8392   23.6929 C   0  0  0  0  0  0  0  0  0  0  0  0
    8.2455  -15.7436   24.5709 O   0  0  0  0  0  0  0  0  0  0  0  0
    8.8512  -15.2032   22.4336 N   0  0  0  0  0  0  0  0  0  0  0  0
    9.3111  -16.5323   22.2003 C   0  0  1  0  0  0  0  0  0  0  0  0
    9.5423  -17.0382   20.8342 C   0  0  0  0  0  0  0  0  0  0  0  0
    8.4785  -17.1479   19.8374 C   0  0  0  0  0  0  0  0  0  0  0  0
    8.9319  -17.5740   18.4829 C   0  0  0  0  0  0  0  0  0  0  0  0
    7.6681  -17.6812   17.6205 C   0  0  0  0  0  0  0  0  0  0  0  0
    8.0317  -18.0311   16.2667 N   0  0  0  0  0  0  0  0  0  0  0  0
   10.5342  -16.7149   23.0738 C   0  0  0  0  0  0  0  0  0  0  0  0
   11.4390  -15.8455   23.1248 O   0  0  0  0  0  0  0  0  0  0  0  0
   10.6962  -17.8785   23.8669 N   0  0  0  0  0  0  0  0  0  0  0  0
   11.7715  -17.9750   24.8905 C   0  0  1  0  0  0  0  0  0  0  0  0
   11.2495  -18.6995   26.0885 C   0  0  0  0  0  0  0  0  0  0  0  0
   12.3147  -19.0265   27.0822 C   0  0  0  0  0  0  0  0  0  0  0  0
   11.7954  -19.7707   28.2429 C   0  0  0  0  0  0  0  0  0  0  0  0
   12.6204  -20.2222   29.0990 O   0  0  0  0  0  0  0  0  0  0  0  0
   12.9170  -18.6111   24.2307 C   0  0  0  0  0  0  0  0  0  0  0  0
   12.8030  -19.3322   23.0284 O   0  0  0  0  0  0  0  0  0  0  0  0
   10.4482  -19.9958   28.4316 O   0  0  0  0  0  0  0  0  0  0  0  0
   14.0779  -18.5516   24.6998 O   0  0  0  0  0  0  0  0  0  0  0  0
  1  2  1  0
  3  4  1  0
  3  2  1  0
  4  5  1  0
  5  6  1  6
  7  5  1  0
  7  8  2  0
  9  7  1  0
 10  9  1  0
 10 11  1  6
 12 11  1  0
 13 12  1  0
 13 14  1  0
 14 15  1  0
 16 10  1  0
 17 16  2  0
 18 16  1  0
 19 18  1  0
 19 20  1  1
 21 20  1  0
 22 21  1  0
 23 22  2  0
 24 19  1  0
 24 25  1  0
 26 22  1  0
 27 24  2  0
M  END
$$$$
