MKE.pdb
     RDKit          3D

 27 26  0  0  1  0  0  0  0  0999 V2000
    8.3070  -11.6322   20.6590 C   0  0  0  0  0  0  0  0  0  0  0  0
    8.1481  -12.6053   19.1809 S   0  0  0  0  0  0  0  0  0  0  0  0
    7.3001  -14.1389   19.3283 C   0  0  0  0  0  0  0  0  0  0  0  0
    7.8972  -15.1268   20.2465 C   0  0  0  0  0  0  0  0  0  0  0  0
    8.9207  -16.0804   19.7390 C   0  0  2  0  0  0  0  0  0  0  0  0
    8.6588  -16.6888   18.4904 N   0  0  0  0  0  0  0  0  0  0  0  0
    9.3454  -16.9764   20.8298 C   0  0  0  0  0  0  0  0  0  0  0  0
    9.6666  -16.4947   21.9494 O   0  0  0  0  0  0  0  0  0  0  0  0
    9.4377  -18.4161   20.7317 N   0  0  0  0  0  0  0  0  0  0  0  0
    9.8730  -19.1988   21.8409 C   0  0  1  0  0  0  0  0  0  0  0  0
    9.5076  -20.6221   21.9694 C   0  0  0  0  0  0  0  0  0  0  0  0
    8.3117  -21.0739   22.6786 C   0  0  0  0  0  0  0  0  0  0  0  0
    8.1422  -22.5536   22.7396 C   0  0  0  0  0  0  0  0  0  0  0  0
    6.8352  -22.8055   23.5015 C   0  0  0  0  0  0  0  0  0  0  0  0
    6.5898  -24.2267   23.5890 N   0  0  0  0  0  0  0  0  0  0  0  0
   11.3709  -19.0000   21.9355 C   0  0  0  0  0  0  0  0  0  0  0  0
   12.1389  -19.3515   21.0060 O   0  0  0  0  0  0  0  0  0  0  0  0
   11.9564  -18.4063   23.0818 N   0  0  0  0  0  0  0  0  0  0  0  0
   13.4305  -18.2480   23.2051 C   0  0  1  0  0  0  0  0  0  0  0  0
   13.8383  -16.9396   22.6097 C   0  0  0  0  0  0  0  0  0  0  0  0
   15.2780  -16.6179   22.8393 C   0  0  0  0  0  0  0  0  0  0  0  0
   15.6648  -15.3171   22.2656 C   0  0  0  0  0  0  0  0  0  0  0  0
   16.4788  -14.5823   22.9096 O   0  0  0  0  0  0  0  0  0  0  0  0
   13.7477  -18.4082   24.6283 C   0  0  0  0  0  0  0  0  0  0  0  0
   12.7648  -18.4157   25.6345 O   0  0  0  0  0  0  0  0  0  0  0  0
   15.1739  -14.8690   21.0576 O   0  0  0  0  0  0  0  0  0  0  0  0
   14.9230  -18.5497   25.0408 O   0  0  0  0  0  0  0  0  0  0  0  0
  1  2  1  0
  3  4  1  0
  3  2  1  0
  4  5  1  0
  5  6  1  6
  7  5  1  0
  7  8  2  0
  9  7  1  0
 10  9  1  0
 10 11  1  6
 12 11  1  0
 13 12  1  0
 13 14  1  0
 14 15  1  0
 16 10  1  0
 17 16  2  0
 18 16  1  0
 19 18  1  0
 19 20  1  1
 21 20  1  0
 22 21  1  0
 23 22  2  0
 24 19  1  0
 24 25  1  0
 26 22  1  0
 27 24  2  0
M  END
$$$$
