MKE.pdb
     RDKit          3D

 27 26  0  0  1  0  0  0  0  0999 V2000
    5.5919  -11.3020   26.3460 C   0  0  0  0  0  0  0  0  0  0  0  0
    6.9641  -12.1120   27.1320 S   0  0  0  0  0  0  0  0  0  0  0  0
    6.8241  -13.8472   27.3814 C   0  0  0  0  0  0  0  0  0  0  0  0
    6.6175  -14.6638   26.1705 C   0  0  0  0  0  0  0  0  0  0  0  0
    7.7908  -15.2508   25.4683 C   0  0  2  0  0  0  0  0  0  0  0  0
    9.0684  -14.8514   25.9224 N   0  0  0  0  0  0  0  0  0  0  0  0
    7.5682  -15.2065   24.0118 C   0  0  0  0  0  0  0  0  0  0  0  0
    6.5912  -15.8223   23.5067 O   0  0  0  0  0  0  0  0  0  0  0  0
    8.4025  -14.4983   23.0667 N   0  0  0  0  0  0  0  0  0  0  0  0
    8.4880  -14.9190   21.7072 C   0  0  1  0  0  0  0  0  0  0  0  0
    8.1265  -14.0165   20.5980 C   0  0  0  0  0  0  0  0  0  0  0  0
    8.1729  -14.4247   19.1949 C   0  0  0  0  0  0  0  0  0  0  0  0
    7.7959  -13.3609   18.2212 C   0  0  0  0  0  0  0  0  0  0  0  0
    7.9316  -13.9863   16.8273 C   0  0  0  0  0  0  0  0  0  0  0  0
    7.5326  -13.0271   15.8232 N   0  0  0  0  0  0  0  0  0  0  0  0
    9.8795  -15.4880   21.5284 C   0  0  0  0  0  0  0  0  0  0  0  0
   10.8998  -14.7590   21.5983 O   0  0  0  0  0  0  0  0  0  0  0  0
   10.0755  -16.8691   21.2767 N   0  0  0  0  0  0  0  0  0  0  0  0
   11.4404  -17.4522   21.1749 C   0  0  1  0  0  0  0  0  0  0  0  0
   12.2351  -17.0626   22.3787 C   0  0  0  0  0  0  0  0  0  0  0  0
   13.5303  -17.7974   22.4853 C   0  0  0  0  0  0  0  0  0  0  0  0
   14.3521  -17.3327   23.6164 C   0  0  0  0  0  0  0  0  0  0  0  0
   15.4799  -16.7972   23.3738 O   0  0  0  0  0  0  0  0  0  0  0  0
   11.2621  -18.8964   20.9896 C   0  0  0  0  0  0  0  0  0  0  0  0
   12.1957  -19.7013   20.3120 O   0  0  0  0  0  0  0  0  0  0  0  0
   13.9422  -17.4599   24.9267 O   0  0  0  0  0  0  0  0  0  0  0  0
   10.2595  -19.5090   21.4266 O   0  0  0  0  0  0  0  0  0  0  0  0
  1  2  1  0
  3  4  1  0
  3  2  1  0
  4  5  1  0
  5  6  1  6
  7  5  1  0
  7  8  2  0
  9  7  1  0
 10  9  1  0
 10 11  1  6
 12 11  1  0
 13 12  1  0
 13 14  1  0
 14 15  1  0
 16 10  1  0
 17 16  2  0
 18 16  1  0
 19 18  1  0
 19 20  1  1
 21 20  1  0
 22 21  1  0
 23 22  2  0
 24 19  1  0
 24 25  1  0
 26 22  1  0
 27 24  2  0
M  END
$$$$
