MKE.pdb
     RDKit          3D

 27 26  0  0  1  0  0  0  0  0999 V2000
    7.7206  -10.9398   26.7054 C   0  0  0  0  0  0  0  0  0  0  0  0
    6.8347  -11.9961   27.8261 S   0  0  0  0  0  0  0  0  0  0  0  0
    6.1885  -13.4915   27.1634 C   0  0  0  0  0  0  0  0  0  0  0  0
    6.9271  -14.0716   26.0260 C   0  0  0  0  0  0  0  0  0  0  0  0
    6.4127  -15.3004   25.3628 C   0  0  2  0  0  0  0  0  0  0  0  0
    6.1994  -16.4269   26.1895 N   0  0  0  0  0  0  0  0  0  0  0  0
    7.1565  -15.5354   24.1120 C   0  0  0  0  0  0  0  0  0  0  0  0
    7.9663  -16.4982   24.0341 O   0  0  0  0  0  0  0  0  0  0  0  0
    7.0449  -14.7289   22.9170 N   0  0  0  0  0  0  0  0  0  0  0  0
    7.8358  -15.0137   21.7655 C   0  0  1  0  0  0  0  0  0  0  0  0
    7.7921  -14.1517   20.5693 C   0  0  0  0  0  0  0  0  0  0  0  0
    8.4732  -14.4909   19.3209 C   0  0  0  0  0  0  0  0  0  0  0  0
    8.0004  -13.7364   18.1255 C   0  0  0  0  0  0  0  0  0  0  0  0
    8.7636  -14.3105   16.9253 C   0  0  0  0  0  0  0  0  0  0  0  0
    8.5529  -13.4709   15.7686 N   0  0  0  0  0  0  0  0  0  0  0  0
    9.2535  -15.2005   22.2630 C   0  0  0  0  0  0  0  0  0  0  0  0
    9.8134  -14.3394   22.9857 O   0  0  0  0  0  0  0  0  0  0  0  0
    9.9966  -16.3602   21.9282 N   0  0  0  0  0  0  0  0  0  0  0  0
   11.3941  -16.5487   22.4023 C   0  0  1  0  0  0  0  0  0  0  0  0
   11.5302  -17.9062   23.0115 C   0  0  0  0  0  0  0  0  0  0  0  0
   12.9280  -18.2189   23.4326 C   0  0  0  0  0  0  0  0  0  0  0  0
   13.0531  -19.5633   24.0223 C   0  0  0  0  0  0  0  0  0  0  0  0
   11.9972  -20.1740   24.3820 O   0  0  0  0  0  0  0  0  0  0  0  0
   12.2620  -16.2970   21.2467 C   0  0  0  0  0  0  0  0  0  0  0  0
   11.9141  -16.6659   19.9347 O   0  0  0  0  0  0  0  0  0  0  0  0
   14.2735  -20.1802   24.1991 O   0  0  0  0  0  0  0  0  0  0  0  0
   13.3762  -15.7332   21.3561 O   0  0  0  0  0  0  0  0  0  0  0  0
  1  2  1  0
  3  4  1  0
  3  2  1  0
  4  5  1  0
  5  6  1  1
  7  5  1  0
  7  8  2  0
  9  7  1  0
 10  9  1  0
 10 11  1  6
 12 11  1  0
 13 12  1  0
 13 14  1  0
 14 15  1  0
 16 10  1  0
 17 16  2  0
 18 16  1  0
 19 18  1  0
 19 20  1  6
 21 20  1  0
 22 21  1  0
 23 22  2  0
 24 19  1  0
 24 25  1  0
 26 22  1  0
 27 24  2  0
M  END
$$$$
