MKE.pdb
     RDKit          3D

 27 26  0  0  1  0  0  0  0  0999 V2000
    9.2588  -12.7622   20.3937 C   0  0  0  0  0  0  0  0  0  0  0  0
    7.6078  -12.7124   19.7391 S   0  0  0  0  0  0  0  0  0  0  0  0
    6.7222  -14.2313   19.7040 C   0  0  0  0  0  0  0  0  0  0  0  0
    6.8222  -15.0707   20.9128 C   0  0  0  0  0  0  0  0  0  0  0  0
    6.0905  -16.3650   20.9741 C   0  0  2  0  0  0  0  0  0  0  0  0
    4.7339  -16.3475   20.5776 N   0  0  0  0  0  0  0  0  0  0  0  0
    6.3939  -17.0446   22.2465 C   0  0  0  0  0  0  0  0  0  0  0  0
    6.0632  -16.5095   23.3389 O   0  0  0  0  0  0  0  0  0  0  0  0
    7.0681  -18.3181   22.3662 N   0  0  0  0  0  0  0  0  0  0  0  0
    7.2309  -18.9434   23.6369 C   0  0  1  0  0  0  0  0  0  0  0  0
    6.6791  -20.2835   23.9118 C   0  0  0  0  0  0  0  0  0  0  0  0
    6.9113  -20.9956   25.1673 C   0  0  0  0  0  0  0  0  0  0  0  0
    6.2868  -22.3468   25.2447 C   0  0  0  0  0  0  0  0  0  0  0  0
    6.6659  -22.9175   26.6170 C   0  0  0  0  0  0  0  0  0  0  0  0
    5.9695  -24.1647   26.8339 N   0  0  0  0  0  0  0  0  0  0  0  0
    8.7100  -18.8771   23.9534 C   0  0  0  0  0  0  0  0  0  0  0  0
    9.5745  -19.2693   23.1312 O   0  0  0  0  0  0  0  0  0  0  0  0
    9.1678  -18.3659   25.1937 N   0  0  0  0  0  0  0  0  0  0  0  0
   10.6153  -18.3451   25.5364 C   0  0  1  0  0  0  0  0  0  0  0  0
   11.2722  -17.1998   24.8369 C   0  0  0  0  0  0  0  0  0  0  0  0
   12.5614  -17.5765   24.1851 C   0  0  0  0  0  0  0  0  0  0  0  0
   13.2213  -16.4312   23.5342 C   0  0  0  0  0  0  0  0  0  0  0  0
   14.2998  -16.6314   22.8907 O   0  0  0  0  0  0  0  0  0  0  0  0
   10.6948  -18.3062   27.0007 C   0  0  0  0  0  0  0  0  0  0  0  0
   11.8994  -18.4798   27.7058 O   0  0  0  0  0  0  0  0  0  0  0  0
   12.7116  -15.1518   23.6000 O   0  0  0  0  0  0  0  0  0  0  0  0
    9.6871  -18.1142   27.7212 O   0  0  0  0  0  0  0  0  0  0  0  0
  1  2  1  0
  3  4  1  0
  3  2  1  0
  4  5  1  0
  5  6  1  1
  7  5  1  0
  7  8  2  0
  9  7  1  0
 10  9  1  0
 10 11  1  6
 12 11  1  0
 13 12  1  0
 13 14  1  0
 14 15  1  0
 16 10  1  0
 17 16  2  0
 18 16  1  0
 19 18  1  0
 19 20  1  6
 21 20  1  0
 22 21  1  0
 23 22  2  0
 24 19  1  0
 24 25  1  0
 26 22  1  0
 27 24  2  0
M  END
$$$$
