MKE.pdb
     RDKit          3D

 27 26  0  0  1  0  0  0  0  0999 V2000
    8.7992  -13.4950   28.7747 C   0  0  0  0  0  0  0  0  0  0  0  0
    7.1663  -13.3637   28.0869 S   0  0  0  0  0  0  0  0  0  0  0  0
    6.4283  -14.8504   27.5058 C   0  0  0  0  0  0  0  0  0  0  0  0
    6.7377  -15.2296   26.1143 C   0  0  0  0  0  0  0  0  0  0  0  0
    7.6994  -14.4137   25.3245 C   0  0  2  0  0  0  0  0  0  0  0  0
    7.6641  -13.0154   25.5285 N   0  0  0  0  0  0  0  0  0  0  0  0
    7.7035  -14.8729   23.9238 C   0  0  0  0  0  0  0  0  0  0  0  0
    7.6923  -16.1070   23.6672 O   0  0  0  0  0  0  0  0  0  0  0  0
    7.7254  -14.0057   22.7669 N   0  0  0  0  0  0  0  0  0  0  0  0
    8.1413  -14.4942   21.4938 C   0  0  1  0  0  0  0  0  0  0  0  0
    8.0359  -13.6643   20.2789 C   0  0  0  0  0  0  0  0  0  0  0  0
    8.3914  -14.1555   18.9486 C   0  0  0  0  0  0  0  0  0  0  0  0
    8.0046  -13.2550   17.8254 C   0  0  0  0  0  0  0  0  0  0  0  0
    7.7800  -14.1595   16.6072 C   0  0  0  0  0  0  0  0  0  0  0  0
    9.0504  -14.6521   16.1268 N   0  0  0  0  0  0  0  0  0  0  0  0
    9.5469  -15.0237   21.6837 C   0  0  0  0  0  0  0  0  0  0  0  0
   10.2754  -14.6261   22.6262 O   0  0  0  0  0  0  0  0  0  0  0  0
   10.0869  -15.9912   20.7997 N   0  0  0  0  0  0  0  0  0  0  0  0
   11.3106  -16.7621   21.1484 C   0  0  1  0  0  0  0  0  0  0  0  0
   11.0655  -17.5377   22.4017 C   0  0  0  0  0  0  0  0  0  0  0  0
   12.2030  -18.4338   22.7649 C   0  0  0  0  0  0  0  0  0  0  0  0
   11.9713  -19.1579   24.0270 C   0  0  0  0  0  0  0  0  0  0  0  0
   12.4507  -18.6796   25.1035 O   0  0  0  0  0  0  0  0  0  0  0  0
   11.6402  -17.5728   19.9711 C   0  0  0  0  0  0  0  0  0  0  0  0
   12.9541  -17.9631   19.6552 O   0  0  0  0  0  0  0  0  0  0  0  0
   11.2553  -20.3350   24.0808 O   0  0  0  0  0  0  0  0  0  0  0  0
   10.7656  -17.9719   19.1666 O   0  0  0  0  0  0  0  0  0  0  0  0
  1  2  1  0
  3  4  1  0
  3  2  1  0
  4  5  1  0
  5  6  1  6
  7  5  1  0
  7  8  2  0
  9  7  1  0
 10  9  1  0
 10 11  1  6
 12 11  1  0
 13 12  1  0
 13 14  1  0
 14 15  1  0
 16 10  1  0
 17 16  2  0
 18 16  1  0
 19 18  1  0
 19 20  1  1
 21 20  1  0
 22 21  1  0
 23 22  2  0
 24 19  1  0
 24 25  1  0
 26 22  1  0
 27 24  2  0
M  END
$$$$
