MKE.pdb
     RDKit          3D

 27 26  0  0  1  0  0  0  0  0999 V2000
    7.6294  -11.6409   25.9335 C   0  0  0  0  0  0  0  0  0  0  0  0
    6.6154  -12.4327   27.1589 S   0  0  0  0  0  0  0  0  0  0  0  0
    6.3705  -14.1656   26.9866 C   0  0  0  0  0  0  0  0  0  0  0  0
    6.2551  -14.6722   25.6061 C   0  0  0  0  0  0  0  0  0  0  0  0
    7.0636  -15.8474   25.1821 C   0  0  2  0  0  0  0  0  0  0  0  0
    8.3722  -15.9416   25.7082 N   0  0  0  0  0  0  0  0  0  0  0  0
    6.9249  -16.0441   23.7278 C   0  0  0  0  0  0  0  0  0  0  0  0
    5.8774  -15.6626   23.1394 O   0  0  0  0  0  0  0  0  0  0  0  0
    7.9158  -16.6644   22.8768 N   0  0  0  0  0  0  0  0  0  0  0  0
    8.7289  -15.8793   22.0079 C   0  0  1  0  0  0  0  0  0  0  0  0
    8.5847  -14.4132   21.9347 C   0  0  0  0  0  0  0  0  0  0  0  0
    7.7469  -13.7465   20.9391 C   0  0  0  0  0  0  0  0  0  0  0  0
    8.4392  -13.4118   19.6622 C   0  0  0  0  0  0  0  0  0  0  0  0
    7.3729  -12.8053   18.7414 C   0  0  0  0  0  0  0  0  0  0  0  0
    7.9333  -12.5851   17.4280 N   0  0  0  0  0  0  0  0  0  0  0  0
   10.1605  -16.2824   22.2913 C   0  0  0  0  0  0  0  0  0  0  0  0
   11.1268  -15.7015   21.7381 O   0  0  0  0  0  0  0  0  0  0  0  0
   10.4566  -17.3326   23.1960 N   0  0  0  0  0  0  0  0  0  0  0  0
   11.4978  -17.1791   24.2475 C   0  0  1  0  0  0  0  0  0  0  0  0
   11.0446  -17.8648   25.4953 C   0  0  0  0  0  0  0  0  0  0  0  0
   12.0478  -17.7910   26.5985 C   0  0  0  0  0  0  0  0  0  0  0  0
   11.6128  -18.5127   27.8070 C   0  0  0  0  0  0  0  0  0  0  0  0
   10.4780  -19.0868   27.8014 O   0  0  0  0  0  0  0  0  0  0  0  0
   12.7459  -17.6944   23.6742 C   0  0  0  0  0  0  0  0  0  0  0  0
   12.8144  -18.2884   22.4011 O   0  0  0  0  0  0  0  0  0  0  0  0
   12.3914  -18.5855   28.9426 O   0  0  0  0  0  0  0  0  0  0  0  0
   13.8380  -17.6374   24.2869 O   0  0  0  0  0  0  0  0  0  0  0  0
  1  2  1  0
  3  4  1  0
  3  2  1  0
  4  5  1  0
  5  6  1  6
  7  5  1  0
  7  8  2  0
  9  7  1  0
 10  9  1  0
 10 11  1  1
 12 11  1  0
 13 12  1  0
 13 14  1  0
 14 15  1  0
 16 10  1  0
 17 16  2  0
 18 16  1  0
 19 18  1  0
 19 20  1  1
 21 20  1  0
 22 21  1  0
 23 22  2  0
 24 19  1  0
 24 25  1  0
 26 22  1  0
 27 24  2  0
M  END
$$$$
