IDE.pdb
     RDKit          3D

 26 25  0  0  1  0  0  0  0  0999 V2000
    7.6466  -15.7868   16.0344 C   0  0  0  0  0  0  0  0  0  0  0  0
    7.5098  -14.7076   17.0432 C   0  0  0  0  0  0  0  0  0  0  0  0
    8.1321  -14.9057   18.3654 C   0  0  2  0  0  0  0  0  0  0  0  0
    7.7968  -16.2267   19.0126 C   0  0  0  0  0  0  0  0  0  0  0  0
    7.9066  -13.7827   19.3340 C   0  0  2  0  0  0  0  0  0  0  0  0
    8.1643  -12.5059   18.8088 N   0  0  0  0  0  0  0  0  0  0  0  0
    8.6218  -14.1310   20.6064 C   0  0  0  0  0  0  0  0  0  0  0  0
    9.8940  -14.0329   20.6183 O   0  0  0  0  0  0  0  0  0  0  0  0
    7.9022  -14.5442   21.7203 N   0  0  0  0  0  0  0  0  0  0  0  0
    8.4065  -14.8538   23.0197 C   0  0  1  0  0  0  0  0  0  0  0  0
    7.5338  -14.4552   24.1866 C   0  0  0  0  0  0  0  0  0  0  0  0
    8.2554  -14.7337   25.4446 C   0  0  0  0  0  0  0  0  0  0  0  0
    9.0997  -13.9001   25.8608 O   0  0  0  0  0  0  0  0  0  0  0  0
    9.0224  -16.1532   23.0842 C   0  0  0  0  0  0  0  0  0  0  0  0
    8.3556  -17.1636   22.7048 O   0  0  0  0  0  0  0  0  0  0  0  0
    8.0358  -15.8895   26.1908 O   0  0  0  0  0  0  0  0  0  0  0  0
   10.3549  -16.3647   23.5567 N   0  0  0  0  0  0  0  0  0  0  0  0
   10.9064  -17.6982   23.6630 C   0  0  1  0  0  0  0  0  0  0  0  0
   12.2743  -17.7246   23.0337 C   0  0  0  0  0  0  0  0  0  0  0  0
   12.1320  -17.9949   21.5577 C   0  0  0  0  0  0  0  0  0  0  0  0
   13.4693  -18.0647   20.8983 C   0  0  0  0  0  0  0  0  0  0  0  0
   14.4216  -18.5821   21.5214 O   0  0  0  0  0  0  0  0  0  0  0  0
   11.0416  -18.0336   25.1178 C   0  0  0  0  0  0  0  0  0  0  0  0
   10.5812  -17.2041   26.1178 O   0  0  0  0  0  0  0  0  0  0  0  0
   13.6851  -17.5773   19.6266 O   0  0  0  0  0  0  0  0  0  0  0  0
   11.5973  -19.1171   25.4827 O   0  0  0  0  0  0  0  0  0  0  0  0
  2  3  1  0
  2  1  1  0
  3  5  1  0
  3  4  1  1
  5  7  1  0
  5  6  1  6
  7  8  2  0
  9 10  1  0
  9  7  1  0
 10 11  1  1
 11 12  1  0
 12 13  2  0
 14 10  1  0
 14 15  2  0
 16 12  1  0
 17 14  1  0
 18 17  1  0
 18 23  1  0
 18 19  1  1
 20 19  1  0
 21 20  1  0
 21 22  2  0
 23 24  1  0
 25 21  1  0
 26 23  2  0
M  END
$$$$
