IDE.pdb
     RDKit          3D

 26 25  0  0  1  0  0  0  0  0999 V2000
    6.6922  -11.5596   26.5604 C   0  0  0  0  0  0  0  0  0  0  0  0
    6.2707  -12.8505   25.9630 C   0  0  0  0  0  0  0  0  0  0  0  0
    7.3176  -13.7748   25.4891 C   0  0  2  0  0  0  0  0  0  0  0  0
    8.2718  -13.1658   24.4916 C   0  0  0  0  0  0  0  0  0  0  0  0
    6.8037  -15.0883   24.9786 C   0  0  2  0  0  0  0  0  0  0  0  0
    5.8717  -15.7122   25.8239 N   0  0  0  0  0  0  0  0  0  0  0  0
    7.9905  -15.9148   24.5784 C   0  0  0  0  0  0  0  0  0  0  0  0
    8.5420  -16.6352   25.4757 O   0  0  0  0  0  0  0  0  0  0  0  0
    8.4553  -15.8801   23.2699 N   0  0  0  0  0  0  0  0  0  0  0  0
    9.5268  -16.6351   22.7039 C   0  0  1  0  0  0  0  0  0  0  0  0
    9.6745  -16.5616   21.2023 C   0  0  0  0  0  0  0  0  0  0  0  0
    8.6135  -17.3744   20.5739 C   0  0  0  0  0  0  0  0  0  0  0  0
    8.2978  -18.4739   21.0957 O   0  0  0  0  0  0  0  0  0  0  0  0
   10.7367  -16.5546   23.4795 C   0  0  0  0  0  0  0  0  0  0  0  0
   11.2657  -15.4170   23.6681 O   0  0  0  0  0  0  0  0  0  0  0  0
    7.9466  -16.9679   19.4202 O   0  0  0  0  0  0  0  0  0  0  0  0
   11.3766  -17.6978   24.0517 N   0  0  0  0  0  0  0  0  0  0  0  0
   12.5363  -17.5550   24.9051 C   0  0  1  0  0  0  0  0  0  0  0  0
   12.4457  -18.5408   26.0399 C   0  0  0  0  0  0  0  0  0  0  0  0
   11.2297  -18.2232   26.8721 C   0  0  0  0  0  0  0  0  0  0  0  0
   11.0524  -19.2291   27.9606 C   0  0  0  0  0  0  0  0  0  0  0  0
   10.0605  -19.9891   27.9224 O   0  0  0  0  0  0  0  0  0  0  0  0
   13.7561  -17.8701   24.0927 C   0  0  0  0  0  0  0  0  0  0  0  0
   15.0353  -17.6456   24.5547 O   0  0  0  0  0  0  0  0  0  0  0  0
   11.9470  -19.3449   29.0035 O   0  0  0  0  0  0  0  0  0  0  0  0
   13.6466  -18.3650   22.9269 O   0  0  0  0  0  0  0  0  0  0  0  0
  2  3  1  0
  2  1  1  0
  3  5  1  0
  3  4  1  6
  5  7  1  0
  5  6  1  1
  7  8  2  0
  9 10  1  0
  9  7  1  0
 10 11  1  6
 11 12  1  0
 12 13  2  0
 14 10  1  0
 14 15  2  0
 16 12  1  0
 17 14  1  0
 18 17  1  0
 18 23  1  0
 18 19  1  1
 20 19  1  0
 21 20  1  0
 21 22  2  0
 23 24  1  0
 25 21  1  0
 26 23  2  0
M  END
$$$$
