IDE.pdb
     RDKit          3D

 26 25  0  0  1  0  0  0  0  0999 V2000
    8.4295  -12.1853   27.2450 C   0  0  0  0  0  0  0  0  0  0  0  0
    7.7957  -13.4720   26.8660 C   0  0  0  0  0  0  0  0  0  0  0  0
    6.8619  -13.4802   25.7246 C   0  0  2  0  0  0  0  0  0  0  0  0
    5.7411  -12.4765   25.8382 C   0  0  0  0  0  0  0  0  0  0  0  0
    6.3126  -14.8327   25.3794 C   0  0  2  0  0  0  0  0  0  0  0  0
    5.8233  -15.5558   26.4796 N   0  0  0  0  0  0  0  0  0  0  0  0
    7.3318  -15.5323   24.5286 C   0  0  0  0  0  0  0  0  0  0  0  0
    7.9510  -16.5243   25.0391 O   0  0  0  0  0  0  0  0  0  0  0  0
    7.5759  -15.0964   23.2326 N   0  0  0  0  0  0  0  0  0  0  0  0
    8.4828  -15.6532   22.2807 C   0  0  1  0  0  0  0  0  0  0  0  0
    8.2765  -15.2409   20.8421 C   0  0  0  0  0  0  0  0  0  0  0  0
    8.9726  -16.2008   19.9617 C   0  0  0  0  0  0  0  0  0  0  0  0
   10.0996  -15.8946   19.4960 O   0  0  0  0  0  0  0  0  0  0  0  0
    9.8405  -15.6878   22.7574 C   0  0  0  0  0  0  0  0  0  0  0  0
   10.5197  -14.6164   22.7420 O   0  0  0  0  0  0  0  0  0  0  0  0
    8.4260  -17.4374   19.6259 O   0  0  0  0  0  0  0  0  0  0  0  0
   10.4665  -16.8747   23.2505 N   0  0  0  0  0  0  0  0  0  0  0  0
   11.7399  -16.8177   23.9352 C   0  0  1  0  0  0  0  0  0  0  0  0
   12.0188  -18.1484   24.5826 C   0  0  0  0  0  0  0  0  0  0  0  0
   13.2907  -18.0483   25.3855 C   0  0  0  0  0  0  0  0  0  0  0  0
   13.6095  -19.3506   26.0416 C   0  0  0  0  0  0  0  0  0  0  0  0
   14.3833  -20.1432   25.4620 O   0  0  0  0  0  0  0  0  0  0  0  0
   12.8065  -16.5472   22.9171 C   0  0  0  0  0  0  0  0  0  0  0  0
   13.8769  -15.7150   23.1651 O   0  0  0  0  0  0  0  0  0  0  0  0
   13.0780  -19.7044   27.2637 O   0  0  0  0  0  0  0  0  0  0  0  0
   12.7559  -17.0887   21.7680 O   0  0  0  0  0  0  0  0  0  0  0  0
  2  3  1  0
  2  1  1  0
  3  5  1  0
  3  4  1  1
  5  7  1  0
  5  6  1  1
  7  8  2  0
  9 10  1  0
  9  7  1  0
 10 11  1  6
 11 12  1  0
 12 13  2  0
 14 10  1  0
 14 15  2  0
 16 12  1  0
 17 14  1  0
 18 17  1  0
 18 23  1  0
 18 19  1  6
 20 19  1  0
 21 20  1  0
 21 22  2  0
 23 24  1  0
 25 21  1  0
 26 23  2  0
M  END
$$$$
