IDE.pdb
     RDKit          3D

 26 25  0  0  1  0  0  0  0  0999 V2000
    7.2584  -11.0492   27.2031 C   0  0  0  0  0  0  0  0  0  0  0  0
    7.1674  -12.5281   27.2768 C   0  0  0  0  0  0  0  0  0  0  0  0
    6.9899  -13.2797   26.0204 C   0  0  2  0  0  0  0  0  0  0  0  0
    5.8231  -12.8151   25.1841 C   0  0  0  0  0  0  0  0  0  0  0  0
    6.9464  -14.7697   26.1872 C   0  0  2  0  0  0  0  0  0  0  0  0
    7.8111  -15.2661   27.1764 N   0  0  0  0  0  0  0  0  0  0  0  0
    7.0800  -15.3826   24.8240 C   0  0  0  0  0  0  0  0  0  0  0  0
    6.0697  -16.0008   24.3494 O   0  0  0  0  0  0  0  0  0  0  0  0
    8.2730  -15.2682   24.1217 N   0  0  0  0  0  0  0  0  0  0  0  0
    8.5875  -15.8141   22.8405 C   0  0  1  0  0  0  0  0  0  0  0  0
    8.3286  -14.9185   21.6518 C   0  0  0  0  0  0  0  0  0  0  0  0
    8.5823  -15.6793   20.4116 C   0  0  0  0  0  0  0  0  0  0  0  0
    9.7619  -15.7799   19.9884 O   0  0  0  0  0  0  0  0  0  0  0  0
    9.8210  -16.5559   22.8375 C   0  0  0  0  0  0  0  0  0  0  0  0
   10.3964  -16.7779   21.7288 O   0  0  0  0  0  0  0  0  0  0  0  0
    7.5603  -16.2919   19.6897 O   0  0  0  0  0  0  0  0  0  0  0  0
   10.4347  -17.0583   24.0269 N   0  0  0  0  0  0  0  0  0  0  0  0
   11.7624  -17.6326   23.9965 C   0  0  1  0  0  0  0  0  0  0  0  0
   12.7484  -16.5878   23.5450 C   0  0  0  0  0  0  0  0  0  0  0  0
   14.1437  -17.1470   23.6564 C   0  0  0  0  0  0  0  0  0  0  0  0
   15.1504  -16.1711   23.1441 C   0  0  0  0  0  0  0  0  0  0  0  0
   14.7476  -15.1153   22.6094 O   0  0  0  0  0  0  0  0  0  0  0  0
   12.1194  -18.0586   25.3888 C   0  0  0  0  0  0  0  0  0  0  0  0
   11.3172  -17.7899   26.4771 O   0  0  0  0  0  0  0  0  0  0  0  0
   16.5068  -16.3985   23.2426 O   0  0  0  0  0  0  0  0  0  0  0  0
   13.1966  -18.6949   25.6142 O   0  0  0  0  0  0  0  0  0  0  0  0
  2  3  1  0
  2  1  1  0
  3  5  1  0
  3  4  1  1
  5  7  1  0
  5  6  1  1
  7  8  2  0
  9 10  1  0
  9  7  1  0
 10 11  1  6
 11 12  1  0
 12 13  2  0
 14 10  1  0
 14 15  2  0
 16 12  1  0
 17 14  1  0
 18 17  1  0
 18 23  1  0
 18 19  1  1
 20 19  1  0
 21 20  1  0
 21 22  2  0
 23 24  1  0
 25 21  1  0
 26 23  2  0
M  END
$$$$
