IDE.pdb
     RDKit          3D

 26 25  0  0  1  0  0  0  0  0999 V2000
    6.2781  -11.7446   27.2002 C   0  0  0  0  0  0  0  0  0  0  0  0
    5.9044  -12.9399   26.4050 C   0  0  0  0  0  0  0  0  0  0  0  0
    6.9834  -13.7286   25.7817 C   0  0  2  0  0  0  0  0  0  0  0  0
    7.8749  -12.9329   24.8605 C   0  0  0  0  0  0  0  0  0  0  0  0
    6.5236  -14.9835   25.1007 C   0  0  2  0  0  0  0  0  0  0  0  0
    5.6143  -15.7478   25.8500 N   0  0  0  0  0  0  0  0  0  0  0  0
    7.7435  -15.7042   24.6065 C   0  0  0  0  0  0  0  0  0  0  0  0
    8.3631  -16.4564   25.4302 O   0  0  0  0  0  0  0  0  0  0  0  0
    8.1651  -15.5419   23.2930 N   0  0  0  0  0  0  0  0  0  0  0  0
    9.2274  -16.2246   22.6266 C   0  0  1  0  0  0  0  0  0  0  0  0
    9.3641  -15.9614   21.1453 C   0  0  0  0  0  0  0  0  0  0  0  0
   10.4303  -16.8252   20.5993 C   0  0  0  0  0  0  0  0  0  0  0  0
   10.2023  -18.0520   20.4452 O   0  0  0  0  0  0  0  0  0  0  0  0
   10.4436  -16.2502   23.3959 C   0  0  0  0  0  0  0  0  0  0  0  0
   11.0474  -15.1570   23.6188 O   0  0  0  0  0  0  0  0  0  0  0  0
   11.6843  -16.3307   20.2472 O   0  0  0  0  0  0  0  0  0  0  0  0
   11.0093  -17.4517   23.9252 N   0  0  0  0  0  0  0  0  0  0  0  0
   12.1756  -17.4140   24.7808 C   0  0  1  0  0  0  0  0  0  0  0  0
   11.7737  -17.7659   26.1887 C   0  0  0  0  0  0  0  0  0  0  0  0
   12.1192  -19.2091   26.4531 C   0  0  0  0  0  0  0  0  0  0  0  0
   11.7347  -19.6027   27.8406 C   0  0  0  0  0  0  0  0  0  0  0  0
   12.5621  -19.4405   28.7637 O   0  0  0  0  0  0  0  0  0  0  0  0
   13.1495  -18.4421   24.2891 C   0  0  0  0  0  0  0  0  0  0  0  0
   14.4265  -18.5581   24.7949 O   0  0  0  0  0  0  0  0  0  0  0  0
   10.4982  -20.1380   28.1339 O   0  0  0  0  0  0  0  0  0  0  0  0
   12.8210  -19.2569   23.3703 O   0  0  0  0  0  0  0  0  0  0  0  0
  2  3  1  0
  2  1  1  0
  3  5  1  0
  3  4  1  6
  5  7  1  0
  5  6  1  1
  7  8  2  0
  9 10  1  0
  9  7  1  0
 10 11  1  6
 11 12  1  0
 12 13  2  0
 14 10  1  0
 14 15  2  0
 16 12  1  0
 17 14  1  0
 18 17  1  0
 18 23  1  0
 18 19  1  1
 20 19  1  0
 21 20  1  0
 21 22  2  0
 23 24  1  0
 25 21  1  0
 26 23  2  0
M  END
$$$$
