IDE.pdb
     RDKit          3D

 26 25  0  0  1  0  0  0  0  0999 V2000
    7.0549  -12.0736   19.5175 C   0  0  0  0  0  0  0  0  0  0  0  0
    7.7356  -13.3007   19.0360 C   0  0  0  0  0  0  0  0  0  0  0  0
    8.1782  -14.2908   20.0353 C   0  0  2  0  0  0  0  0  0  0  0  0
    8.9722  -13.7027   21.1756 C   0  0  0  0  0  0  0  0  0  0  0  0
    8.8965  -15.4760   19.4615 C   0  0  2  0  0  0  0  0  0  0  0  0
    8.1572  -16.1934   18.5068 N   0  0  0  0  0  0  0  0  0  0  0  0
    9.4445  -16.2731   20.6088 C   0  0  0  0  0  0  0  0  0  0  0  0
    8.6783  -17.1376   21.1507 O   0  0  0  0  0  0  0  0  0  0  0  0
   10.7446  -16.0590   21.0486 N   0  0  0  0  0  0  0  0  0  0  0  0
   11.4499  -16.7701   22.0661 C   0  0  1  0  0  0  0  0  0  0  0  0
   12.9569  -16.6716   22.0266 C   0  0  0  0  0  0  0  0  0  0  0  0
   13.5343  -17.8562   22.6933 C   0  0  0  0  0  0  0  0  0  0  0  0
   13.0503  -18.2353   23.7900 O   0  0  0  0  0  0  0  0  0  0  0  0
   10.8263  -16.6596   23.3587 C   0  0  0  0  0  0  0  0  0  0  0  0
   10.8685  -15.5448   23.9629 O   0  0  0  0  0  0  0  0  0  0  0  0
   14.5994  -18.5723   22.1515 O   0  0  0  0  0  0  0  0  0  0  0  0
   10.1576  -17.7481   24.0003 N   0  0  0  0  0  0  0  0  0  0  0  0
    9.4924  -17.5699   25.2728 C   0  0  1  0  0  0  0  0  0  0  0  0
    8.2201  -18.3753   25.2885 C   0  0  0  0  0  0  0  0  0  0  0  0
    7.9388  -18.8239   26.6998 C   0  0  0  0  0  0  0  0  0  0  0  0
    7.2123  -20.1278   26.7088 C   0  0  0  0  0  0  0  0  0  0  0  0
    5.9719  -20.1270   26.5533 O   0  0  0  0  0  0  0  0  0  0  0  0
   10.3988  -18.0847   26.3502 C   0  0  0  0  0  0  0  0  0  0  0  0
   11.3964  -19.0039   26.1060 O   0  0  0  0  0  0  0  0  0  0  0  0
    7.8662  -21.3292   26.8830 O   0  0  0  0  0  0  0  0  0  0  0  0
   10.2728  -17.6807   27.5490 O   0  0  0  0  0  0  0  0  0  0  0  0
  2  3  1  0
  2  1  1  0
  3  5  1  0
  3  4  1  1
  5  7  1  0
  5  6  1  1
  7  8  2  0
  9 10  1  0
  9  7  1  0
 10 11  1  1
 11 12  1  0
 12 13  2  0
 14 10  1  0
 14 15  2  0
 16 12  1  0
 17 14  1  0
 18 17  1  0
 18 23  1  0
 18 19  1  6
 20 19  1  0
 21 20  1  0
 21 22  2  0
 23 24  1  0
 25 21  1  0
 26 23  2  0
M  END
$$$$
