IDE.pdb
     RDKit          3D

 26 25  0  0  1  0  0  0  0  0999 V2000
    7.7771  -11.6611   27.1816 C   0  0  0  0  0  0  0  0  0  0  0  0
    7.4040  -13.0745   26.9288 C   0  0  0  0  0  0  0  0  0  0  0  0
    7.3597  -13.5453   25.5320 C   0  0  2  0  0  0  0  0  0  0  0  0
    6.4699  -12.7232   24.6326 C   0  0  0  0  0  0  0  0  0  0  0  0
    7.0469  -15.0041   25.3764 C   0  0  2  0  0  0  0  0  0  0  0  0
    7.6614  -15.8319   26.3300 N   0  0  0  0  0  0  0  0  0  0  0  0
    7.2784  -15.3665   23.9387 C   0  0  0  0  0  0  0  0  0  0  0  0
    6.5295  -14.8214   23.0610 O   0  0  0  0  0  0  0  0  0  0  0  0
    8.2795  -16.2676   23.5990 N   0  0  0  0  0  0  0  0  0  0  0  0
    9.2981  -16.1091   22.6112 C   0  0  1  0  0  0  0  0  0  0  0  0
    8.9350  -15.2727   21.4067 C   0  0  0  0  0  0  0  0  0  0  0  0
    8.4892  -16.1651   20.3177 C   0  0  0  0  0  0  0  0  0  0  0  0
    7.8472  -15.6768   19.3533 O   0  0  0  0  0  0  0  0  0  0  0  0
   10.6010  -15.8918   23.1830 C   0  0  0  0  0  0  0  0  0  0  0  0
   11.6170  -15.9509   22.4255 O   0  0  0  0  0  0  0  0  0  0  0  0
    8.7536  -17.5329   20.3182 O   0  0  0  0  0  0  0  0  0  0  0  0
   10.8101  -15.6109   24.5690 N   0  0  0  0  0  0  0  0  0  0  0  0
   11.7488  -16.3832   25.3539 C   0  0  1  0  0  0  0  0  0  0  0  0
   11.0423  -16.9600   26.5522 C   0  0  0  0  0  0  0  0  0  0  0  0
   12.0240  -17.7697   27.3600 C   0  0  0  0  0  0  0  0  0  0  0  0
   11.3882  -18.2862   28.6078 C   0  0  0  0  0  0  0  0  0  0  0  0
   11.4739  -19.5062   28.8667 O   0  0  0  0  0  0  0  0  0  0  0  0
   12.2510  -17.5118   24.5046 C   0  0  0  0  0  0  0  0  0  0  0  0
   13.5930  -17.7352   24.2830 O   0  0  0  0  0  0  0  0  0  0  0  0
   10.7112  -17.4607   29.4805 O   0  0  0  0  0  0  0  0  0  0  0  0
   11.4371  -18.3156   23.9500 O   0  0  0  0  0  0  0  0  0  0  0  0
  2  3  1  0
  2  1  1  0
  3  5  1  0
  3  4  1  6
  5  7  1  0
  5  6  1  1
  7  8  2  0
  9 10  1  0
  9  7  1  0
 10 11  1  6
 11 12  1  0
 12 13  2  0
 14 10  1  0
 14 15  2  0
 16 12  1  0
 17 14  1  0
 18 17  1  0
 18 23  1  0
 18 19  1  1
 20 19  1  0
 21 20  1  0
 21 22  2  0
 23 24  1  0
 25 21  1  0
 26 23  2  0
M  END
$$$$
