IDE.pdb
     RDKit          3D

 26 25  0  0  1  0  0  0  0  0999 V2000
    6.4590  -11.8132   26.7157 C   0  0  0  0  0  0  0  0  0  0  0  0
    6.0851  -13.0611   26.0060 C   0  0  0  0  0  0  0  0  0  0  0  0
    7.1581  -14.0052   25.6424 C   0  0  2  0  0  0  0  0  0  0  0  0
    8.2427  -13.4041   24.7829 C   0  0  0  0  0  0  0  0  0  0  0  0
    6.6771  -15.2934   25.0430 C   0  0  2  0  0  0  0  0  0  0  0  0
    5.5932  -15.8766   25.7196 N   0  0  0  0  0  0  0  0  0  0  0  0
    7.8758  -16.1716   24.8338 C   0  0  0  0  0  0  0  0  0  0  0  0
    8.3256  -16.8122   25.8416 O   0  0  0  0  0  0  0  0  0  0  0  0
    8.4592  -16.2676   23.5769 N   0  0  0  0  0  0  0  0  0  0  0  0
    9.5131  -17.1396   23.1681 C   0  0  1  0  0  0  0  0  0  0  0  0
    9.7143  -17.2908   21.6785 C   0  0  0  0  0  0  0  0  0  0  0  0
   10.1717  -16.0019   21.1213 C   0  0  0  0  0  0  0  0  0  0  0  0
    9.3196  -15.1979   20.6650 O   0  0  0  0  0  0  0  0  0  0  0  0
   10.6988  -16.9969   23.9716 C   0  0  0  0  0  0  0  0  0  0  0  0
   11.2254  -15.8481   24.0831 O   0  0  0  0  0  0  0  0  0  0  0  0
   11.5169  -15.6414   21.0816 O   0  0  0  0  0  0  0  0  0  0  0  0
   11.3171  -18.0900   24.6548 N   0  0  0  0  0  0  0  0  0  0  0  0
   12.4810  -17.8861   25.4899 C   0  0  1  0  0  0  0  0  0  0  0  0
   12.0788  -17.9770   26.9382 C   0  0  0  0  0  0  0  0  0  0  0  0
   11.3425  -19.2728   27.1642 C   0  0  0  0  0  0  0  0  0  0  0  0
   10.9665  -19.4275   28.6004 C   0  0  0  0  0  0  0  0  0  0  0  0
   11.6870  -20.1337   29.3387 O   0  0  0  0  0  0  0  0  0  0  0  0
   13.4643  -18.9788   25.1960 C   0  0  0  0  0  0  0  0  0  0  0  0
   13.2003  -19.9965   24.3046 O   0  0  0  0  0  0  0  0  0  0  0  0
    9.8520  -18.8170   29.1355 O   0  0  0  0  0  0  0  0  0  0  0  0
   14.5972  -19.0016   25.7723 O   0  0  0  0  0  0  0  0  0  0  0  0
  2  3  1  0
  2  1  1  0
  3  5  1  0
  3  4  1  6
  5  7  1  0
  5  6  1  1
  7  8  2  0
  9 10  1  0
  9  7  1  0
 10 11  1  6
 11 12  1  0
 12 13  2  0
 14 10  1  0
 14 15  2  0
 16 12  1  0
 17 14  1  0
 18 17  1  0
 18 23  1  0
 18 19  1  1
 20 19  1  0
 21 20  1  0
 21 22  2  0
 23 24  1  0
 25 21  1  0
 26 23  2  0
M  END
$$$$
