IDE.pdb
     RDKit          3D

 26 25  0  0  1  0  0  0  0  0999 V2000
    7.3134  -11.8919   27.5978 C   0  0  0  0  0  0  0  0  0  0  0  0
    6.5877  -12.9634   26.8725 C   0  0  0  0  0  0  0  0  0  0  0  0
    7.3773  -13.9462   26.1073 C   0  0  2  0  0  0  0  0  0  0  0  0
    8.3662  -13.3299   25.1488 C   0  0  0  0  0  0  0  0  0  0  0  0
    6.5604  -14.9915   25.4073 C   0  0  2  0  0  0  0  0  0  0  0  0
    5.6307  -15.6464   26.2316 N   0  0  0  0  0  0  0  0  0  0  0  0
    7.5076  -15.8737   24.6480 C   0  0  0  0  0  0  0  0  0  0  0  0
    7.8956  -16.9513   25.2106 O   0  0  0  0  0  0  0  0  0  0  0  0
    7.9340  -15.5086   23.3775 N   0  0  0  0  0  0  0  0  0  0  0  0
    8.6652  -16.3004   22.4411 C   0  0  1  0  0  0  0  0  0  0  0  0
    8.7298  -15.7721   21.0273 C   0  0  0  0  0  0  0  0  0  0  0  0
    9.4244  -16.7589   20.1759 C   0  0  0  0  0  0  0  0  0  0  0  0
    8.8923  -17.8821   19.9857 O   0  0  0  0  0  0  0  0  0  0  0  0
    9.8845  -16.8316   22.9915 C   0  0  0  0  0  0  0  0  0  0  0  0
   10.4121  -17.8449   22.4398 O   0  0  0  0  0  0  0  0  0  0  0  0
   10.6517  -16.4919   19.5731 O   0  0  0  0  0  0  0  0  0  0  0  0
   10.5355  -16.2724   24.1349 N   0  0  0  0  0  0  0  0  0  0  0  0
   11.6566  -16.9423   24.7577 C   0  0  1  0  0  0  0  0  0  0  0  0
   12.9231  -16.1883   24.4493 C   0  0  0  0  0  0  0  0  0  0  0  0
   13.3165  -16.4513   23.0181 C   0  0  0  0  0  0  0  0  0  0  0  0
   14.6388  -15.8322   22.7075 C   0  0  0  0  0  0  0  0  0  0  0  0
   15.2715  -15.2702   23.6276 O   0  0  0  0  0  0  0  0  0  0  0  0
   11.4419  -16.9321   26.2413 C   0  0  0  0  0  0  0  0  0  0  0  0
   10.3444  -16.3408   26.8294 O   0  0  0  0  0  0  0  0  0  0  0  0
   15.1815  -15.8615   21.4402 O   0  0  0  0  0  0  0  0  0  0  0  0
   12.2837  -17.4803   27.0203 O   0  0  0  0  0  0  0  0  0  0  0  0
  2  3  1  0
  2  1  1  0
  3  5  1  0
  3  4  1  6
  5  7  1  0
  5  6  1  1
  7  8  2  0
  9 10  1  0
  9  7  1  0
 10 11  1  6
 11 12  1  0
 12 13  2  0
 14 10  1  0
 14 15  2  0
 16 12  1  0
 17 14  1  0
 18 17  1  0
 18 23  1  0
 18 19  1  1
 20 19  1  0
 21 20  1  0
 21 22  2  0
 23 24  1  0
 25 21  1  0
 26 23  2  0
M  END
$$$$
