IDE.pdb
     RDKit          3D

 26 25  0  0  1  0  0  0  0  0999 V2000
    6.1205  -11.3667   26.6438 C   0  0  0  0  0  0  0  0  0  0  0  0
    5.7982  -12.7066   26.0946 C   0  0  0  0  0  0  0  0  0  0  0  0
    6.9058  -13.5370   25.5861 C   0  0  2  0  0  0  0  0  0  0  0  0
    7.7915  -12.8370   24.5851 C   0  0  0  0  0  0  0  0  0  0  0  0
    6.4874  -14.8775   25.0587 C   0  0  2  0  0  0  0  0  0  0  0  0
    5.6053  -15.5787   25.8969 N   0  0  0  0  0  0  0  0  0  0  0  0
    7.7302  -15.6102   24.6457 C   0  0  0  0  0  0  0  0  0  0  0  0
    8.3288  -16.3091   25.5297 O   0  0  0  0  0  0  0  0  0  0  0  0
    8.1944  -15.5152   23.3400 N   0  0  0  0  0  0  0  0  0  0  0  0
    9.2656  -16.2433   22.7393 C   0  0  1  0  0  0  0  0  0  0  0  0
    9.5350  -15.9528   21.2815 C   0  0  0  0  0  0  0  0  0  0  0  0
   10.5709  -16.8830   20.7888 C   0  0  0  0  0  0  0  0  0  0  0  0
   10.2366  -18.0499   20.4609 O   0  0  0  0  0  0  0  0  0  0  0  0
   10.4131  -16.3597   23.6005 C   0  0  0  0  0  0  0  0  0  0  0  0
   10.9635  -15.3002   24.0296 O   0  0  0  0  0  0  0  0  0  0  0  0
   11.9097  -16.5157   20.6731 O   0  0  0  0  0  0  0  0  0  0  0  0
   10.9676  -17.6154   23.9995 N   0  0  0  0  0  0  0  0  0  0  0  0
   11.8979  -17.7035   25.1042 C   0  0  1  0  0  0  0  0  0  0  0  0
   11.2673  -18.4834   26.2274 C   0  0  0  0  0  0  0  0  0  0  0  0
   12.2847  -18.6803   27.3220 C   0  0  0  0  0  0  0  0  0  0  0  0
   11.7153  -19.4919   28.4379 C   0  0  0  0  0  0  0  0  0  0  0  0
   12.4982  -20.0480   29.2383 O   0  0  0  0  0  0  0  0  0  0  0  0
   13.1149  -18.4411   24.6329 C   0  0  0  0  0  0  0  0  0  0  0  0
   14.3308  -18.3572   25.2768 O   0  0  0  0  0  0  0  0  0  0  0  0
   10.3562  -19.6461   28.6119 O   0  0  0  0  0  0  0  0  0  0  0  0
   13.0625  -19.1831   23.6020 O   0  0  0  0  0  0  0  0  0  0  0  0
  2  3  1  0
  2  1  1  0
  3  5  1  0
  3  4  1  6
  5  7  1  0
  5  6  1  1
  7  8  2  0
  9 10  1  0
  9  7  1  0
 10 11  1  6
 11 12  1  0
 12 13  2  0
 14 10  1  0
 14 15  2  0
 16 12  1  0
 17 14  1  0
 18 17  1  0
 18 23  1  0
 18 19  1  1
 20 19  1  0
 21 20  1  0
 21 22  2  0
 23 24  1  0
 25 21  1  0
 26 23  2  0
M  END
$$$$
