IDE.pdb
     RDKit          3D

 26 25  0  0  1  0  0  0  0  0999 V2000
    6.0162  -11.2916   26.4922 C   0  0  0  0  0  0  0  0  0  0  0  0
    5.7648  -12.6803   26.0350 C   0  0  0  0  0  0  0  0  0  0  0  0
    6.9063  -13.4662   25.5306 C   0  0  2  0  0  0  0  0  0  0  0  0
    7.6772  -12.7917   24.4228 C   0  0  0  0  0  0  0  0  0  0  0  0
    6.5690  -14.8754   25.1430 C   0  0  2  0  0  0  0  0  0  0  0  0
    5.7597  -15.5520   26.0703 N   0  0  0  0  0  0  0  0  0  0  0  0
    7.8488  -15.5588   24.7597 C   0  0  0  0  0  0  0  0  0  0  0  0
    8.5501  -16.0728   25.6936 O   0  0  0  0  0  0  0  0  0  0  0  0
    8.2364  -15.6170   23.4271 N   0  0  0  0  0  0  0  0  0  0  0  0
    9.3690  -16.2893   22.8761 C   0  0  1  0  0  0  0  0  0  0  0  0
    9.4819  -16.2815   21.3697 C   0  0  0  0  0  0  0  0  0  0  0  0
   10.5802  -17.1818   20.9646 C   0  0  0  0  0  0  0  0  0  0  0  0
   11.5153  -16.7242   20.2596 O   0  0  0  0  0  0  0  0  0  0  0  0
   10.5780  -16.0462   23.6185 C   0  0  0  0  0  0  0  0  0  0  0  0
   11.2603  -15.0107   23.3506 O   0  0  0  0  0  0  0  0  0  0  0  0
   10.6199  -18.5242   21.3350 O   0  0  0  0  0  0  0  0  0  0  0  0
   11.0519  -16.9168   24.6486 N   0  0  0  0  0  0  0  0  0  0  0  0
   12.2417  -16.5972   25.4074 C   0  0  1  0  0  0  0  0  0  0  0  0
   12.1115  -17.1564   26.7995 C   0  0  0  0  0  0  0  0  0  0  0  0
   11.1037  -16.3386   27.5662 C   0  0  0  0  0  0  0  0  0  0  0  0
   10.9743  -16.8324   28.9689 C   0  0  0  0  0  0  0  0  0  0  0  0
   10.3082  -16.1594   29.7851 O   0  0  0  0  0  0  0  0  0  0  0  0
   13.4131  -17.2493   24.7367 C   0  0  0  0  0  0  0  0  0  0  0  0
   14.7115  -17.0606   25.1595 O   0  0  0  0  0  0  0  0  0  0  0  0
   11.5655  -18.0048   29.3900 O   0  0  0  0  0  0  0  0  0  0  0  0
   13.2420  -18.0132   23.7351 O   0  0  0  0  0  0  0  0  0  0  0  0
  2  3  1  0
  2  1  1  0
  3  5  1  0
  3  4  1  6
  5  7  1  0
  5  6  1  1
  7  8  2  0
  9 10  1  0
  9  7  1  0
 10 11  1  6
 11 12  1  0
 12 13  2  0
 14 10  1  0
 14 15  2  0
 16 12  1  0
 17 14  1  0
 18 17  1  0
 18 23  1  0
 18 19  1  1
 20 19  1  0
 21 20  1  0
 21 22  2  0
 23 24  1  0
 25 21  1  0
 26 23  2  0
M  END
$$$$
