IDE.pdb
     RDKit          3D

 26 25  0  0  1  0  0  0  0  0999 V2000
    6.1487  -11.4084   26.5805 C   0  0  0  0  0  0  0  0  0  0  0  0
    5.8721  -12.7293   25.9646 C   0  0  0  0  0  0  0  0  0  0  0  0
    7.0156  -13.6065   25.6519 C   0  0  2  0  0  0  0  0  0  0  0  0
    8.0672  -12.9617   24.7831 C   0  0  0  0  0  0  0  0  0  0  0  0
    6.6376  -14.9481   25.0976 C   0  0  2  0  0  0  0  0  0  0  0  0
    5.6893  -15.6442   25.8649 N   0  0  0  0  0  0  0  0  0  0  0  0
    7.9078  -15.6851   24.7884 C   0  0  0  0  0  0  0  0  0  0  0  0
    8.4198  -16.3996   25.7133 O   0  0  0  0  0  0  0  0  0  0  0  0
    8.4882  -15.5773   23.5311 N   0  0  0  0  0  0  0  0  0  0  0  0
    9.5947  -16.3169   23.0142 C   0  0  1  0  0  0  0  0  0  0  0  0
    9.9597  -16.0514   21.5726 C   0  0  0  0  0  0  0  0  0  0  0  0
   11.0824  -16.9315   21.1903 C   0  0  0  0  0  0  0  0  0  0  0  0
   11.0445  -18.1450   21.5167 O   0  0  0  0  0  0  0  0  0  0  0  0
   10.6830  -16.4204   23.9505 C   0  0  0  0  0  0  0  0  0  0  0  0
   11.5848  -15.5281   23.9385 O   0  0  0  0  0  0  0  0  0  0  0  0
   12.1865  -16.4665   20.4792 O   0  0  0  0  0  0  0  0  0  0  0  0
   10.8004  -17.4833   24.8992 N   0  0  0  0  0  0  0  0  0  0  0  0
   11.9069  -17.5343   25.8301 C   0  0  1  0  0  0  0  0  0  0  0  0
   11.3925  -17.8971   27.1981 C   0  0  0  0  0  0  0  0  0  0  0  0
   10.9109  -19.3254   27.1802 C   0  0  0  0  0  0  0  0  0  0  0  0
   10.4828  -19.7596   28.5426 C   0  0  0  0  0  0  0  0  0  0  0  0
   11.3596  -20.0140   29.3967 O   0  0  0  0  0  0  0  0  0  0  0  0
   12.8523  -18.6047   25.3743 C   0  0  0  0  0  0  0  0  0  0  0  0
   12.5521  -19.4736   24.3472 O   0  0  0  0  0  0  0  0  0  0  0  0
    9.1536  -19.8882   28.8863 O   0  0  0  0  0  0  0  0  0  0  0  0
   13.9852  -18.7477   25.9329 O   0  0  0  0  0  0  0  0  0  0  0  0
  2  3  1  0
  2  1  1  0
  3  5  1  0
  3  4  1  6
  5  7  1  0
  5  6  1  1
  7  8  2  0
  9 10  1  0
  9  7  1  0
 10 11  1  6
 11 12  1  0
 12 13  2  0
 14 10  1  0
 14 15  2  0
 16 12  1  0
 17 14  1  0
 18 17  1  0
 18 23  1  0
 18 19  1  1
 20 19  1  0
 21 20  1  0
 21 22  2  0
 23 24  1  0
 25 21  1  0
 26 23  2  0
M  END
$$$$
