IDE.pdb
     RDKit          3D

 26 25  0  0  1  0  0  0  0  0999 V2000
    6.9176  -11.7322   27.4730 C   0  0  0  0  0  0  0  0  0  0  0  0
    6.3151  -12.8414   26.6936 C   0  0  0  0  0  0  0  0  0  0  0  0
    7.2189  -13.7807   26.0037 C   0  0  2  0  0  0  0  0  0  0  0  0
    8.2197  -13.1152   25.0916 C   0  0  0  0  0  0  0  0  0  0  0  0
    6.5238  -14.8973   25.2826 C   0  0  2  0  0  0  0  0  0  0  0  0
    5.5335  -15.5456   26.0387 N   0  0  0  0  0  0  0  0  0  0  0  0
    7.5811  -15.7779   24.6839 C   0  0  0  0  0  0  0  0  0  0  0  0
    8.0919  -16.6811   25.4265 O   0  0  0  0  0  0  0  0  0  0  0  0
    7.9746  -15.5967   23.3641 N   0  0  0  0  0  0  0  0  0  0  0  0
    8.9740  -16.3188   22.6443 C   0  0  1  0  0  0  0  0  0  0  0  0
    8.9668  -16.1514   21.1430 C   0  0  0  0  0  0  0  0  0  0  0  0
    9.9424  -17.0879   20.5495 C   0  0  0  0  0  0  0  0  0  0  0  0
    9.9834  -18.2726   20.9685 O   0  0  0  0  0  0  0  0  0  0  0  0
   10.2581  -16.2924   23.2939 C   0  0  0  0  0  0  0  0  0  0  0  0
   10.8424  -15.1765   23.4450 O   0  0  0  0  0  0  0  0  0  0  0  0
   10.8229  -16.7072   19.5392 O   0  0  0  0  0  0  0  0  0  0  0  0
   10.9129  -17.4664   23.7807 N   0  0  0  0  0  0  0  0  0  0  0  0
   12.1187  -17.3736   24.5751 C   0  0  1  0  0  0  0  0  0  0  0  0
   12.0898  -18.4261   25.6516 C   0  0  0  0  0  0  0  0  0  0  0  0
   11.6487  -17.7936   26.9468 C   0  0  0  0  0  0  0  0  0  0  0  0
   11.5849  -18.8082   28.0398 C   0  0  0  0  0  0  0  0  0  0  0  0
   11.1071  -18.4730   29.1453 O   0  0  0  0  0  0  0  0  0  0  0  0
   13.2907  -17.6373   23.6783 C   0  0  0  0  0  0  0  0  0  0  0  0
   14.5950  -17.4670   24.0903 O   0  0  0  0  0  0  0  0  0  0  0  0
   12.0357  -20.0998   27.8672 O   0  0  0  0  0  0  0  0  0  0  0  0
   13.1144  -18.0349   22.4838 O   0  0  0  0  0  0  0  0  0  0  0  0
  2  3  1  0
  2  1  1  0
  3  5  1  0
  3  4  1  6
  5  7  1  0
  5  6  1  1
  7  8  2  0
  9 10  1  0
  9  7  1  0
 10 11  1  6
 11 12  1  0
 12 13  2  0
 14 10  1  0
 14 15  2  0
 16 12  1  0
 17 14  1  0
 18 17  1  0
 18 23  1  0
 18 19  1  1
 20 19  1  0
 21 20  1  0
 21 22  2  0
 23 24  1  0
 25 21  1  0
 26 23  2  0
M  END
$$$$
