IDE.pdb
     RDKit          3D

 26 25  0  0  1  0  0  0  0  0999 V2000
    6.5066  -11.9614   27.2919 C   0  0  0  0  0  0  0  0  0  0  0  0
    6.1023  -13.1447   26.4937 C   0  0  0  0  0  0  0  0  0  0  0  0
    7.1610  -13.9614   25.8714 C   0  0  2  0  0  0  0  0  0  0  0  0
    8.0591  -13.1944   24.9325 C   0  0  0  0  0  0  0  0  0  0  0  0
    6.6718  -15.2160   25.2106 C   0  0  2  0  0  0  0  0  0  0  0  0
    5.7274  -15.9346   25.9618 N   0  0  0  0  0  0  0  0  0  0  0  0
    7.8755  -15.9855   24.7514 C   0  0  0  0  0  0  0  0  0  0  0  0
    8.4428  -16.7583   25.5936 O   0  0  0  0  0  0  0  0  0  0  0  0
    8.3384  -15.8446   23.4494 N   0  0  0  0  0  0  0  0  0  0  0  0
    9.4680  -16.4806   22.8510 C   0  0  1  0  0  0  0  0  0  0  0  0
    9.5592  -16.4000   21.3453 C   0  0  0  0  0  0  0  0  0  0  0  0
   10.6497  -17.2811   20.8811 C   0  0  0  0  0  0  0  0  0  0  0  0
   11.7570  -16.7710   20.5740 O   0  0  0  0  0  0  0  0  0  0  0  0
   10.6857  -16.2632   23.5872 C   0  0  0  0  0  0  0  0  0  0  0  0
   11.1631  -15.0892   23.6433 O   0  0  0  0  0  0  0  0  0  0  0  0
   10.4977  -18.6615   20.7700 O   0  0  0  0  0  0  0  0  0  0  0  0
   11.3886  -17.3088   24.2627 N   0  0  0  0  0  0  0  0  0  0  0  0
   12.5143  -17.0165   25.1236 C   0  0  1  0  0  0  0  0  0  0  0  0
   12.0396  -16.2299   26.3167 C   0  0  0  0  0  0  0  0  0  0  0  0
   11.3051  -17.1534   27.2547 C   0  0  0  0  0  0  0  0  0  0  0  0
   10.8507  -16.4219   28.4739 C   0  0  0  0  0  0  0  0  0  0  0  0
    9.6391  -16.4565   28.7802 O   0  0  0  0  0  0  0  0  0  0  0  0
   13.0859  -18.3167   25.6033 C   0  0  0  0  0  0  0  0  0  0  0  0
   12.4821  -19.5307   25.3553 O   0  0  0  0  0  0  0  0  0  0  0  0
   11.7242  -15.7116   29.2700 O   0  0  0  0  0  0  0  0  0  0  0  0
   14.1689  -18.3407   26.2685 O   0  0  0  0  0  0  0  0  0  0  0  0
  2  3  1  0
  2  1  1  0
  3  5  1  0
  3  4  1  6
  5  7  1  0
  5  6  1  1
  7  8  2  0
  9 10  1  0
  9  7  1  0
 10 11  1  6
 11 12  1  0
 12 13  2  0
 14 10  1  0
 14 15  2  0
 16 12  1  0
 17 14  1  0
 18 17  1  0
 18 23  1  0
 18 19  1  1
 20 19  1  0
 21 20  1  0
 21 22  2  0
 23 24  1  0
 25 21  1  0
 26 23  2  0
M  END
$$$$
