AVS.pdb
     RDKit          3D

 19 18  0  0  1  0  0  0  0  0999 V2000
   -1.4348  -27.3191   29.2663 C   0  0  0  0  0  0  0  0  0  0  0  0
   -2.7110  -27.1315   28.4816 C   0  0  2  0  0  0  0  0  0  0  0  0
   -2.5094  -27.3216   27.0609 N   0  0  0  0  0  0  0  0  0  0  0  0
   -3.2775  -25.7812   28.7556 C   0  0  0  0  0  0  0  0  0  0  0  0
   -3.5846  -25.4836   29.9385 O   0  0  0  0  0  0  0  0  0  0  0  0
   -3.9539  -21.1586   27.1056 C   0  0  0  0  0  0  0  0  0  0  0  0
   -3.4403  -22.5632   26.9132 C   0  0  1  0  0  0  0  0  0  0  0  0
   -1.9305  -22.5533   26.9857 C   0  0  0  0  0  0  0  0  0  0  0  0
   -4.0295  -23.4990   27.9492 C   0  0  2  0  0  0  0  0  0  0  0  0
   -3.4890  -24.8079   27.7417 N   0  0  0  0  0  0  0  0  0  0  0  0
   -5.4863  -23.4436   28.0061 C   0  0  0  0  0  0  0  0  0  0  0  0
   -6.1411  -24.1552   27.2000 O   0  0  0  0  0  0  0  0  0  0  0  0
   -9.2381  -24.3451   29.9481 O   0  0  0  0  0  0  0  0  0  0  0  0
   -7.8563  -24.2459   29.6832 C   0  0  0  0  0  0  0  0  0  0  0  0
   -7.6434  -22.8244   29.1703 C   0  0  2  0  0  0  0  0  0  0  0  0
   -6.2292  -22.6407   28.9097 N   0  0  0  0  0  0  0  0  0  0  0  0
   -8.1796  -21.8339   30.1107 C   0  0  0  0  0  0  0  0  0  0  0  0
   -7.4320  -21.3329   30.9832 O   0  0  0  0  0  0  0  0  0  0  0  0
   -9.5011  -21.4257   30.0699 O   0  0  0  0  0  0  0  0  0  0  0  0
  2  3  1  0
  2  1  1  1
  4  2  1  0
  5  4  2  0
  7  6  1  1
  7  8  1  0
  7  9  1  0
  9 10  1  6
 10  4  1  0
 11  9  1  0
 11 16  1  0
 12 11  2  0
 13 14  1  0
 15 14  1  1
 16 15  1  0
 17 15  1  0
 18 17  2  0
 19 17  1  0
M  END
$$$$
