AVS.pdb
     RDKit          3D

 19 18  0  0  1  0  0  0  0  0999 V2000
    6.5039  -19.0197   18.7769 C   0  0  0  0  0  0  0  0  0  0  0  0
    6.8379  -17.7272   18.0716 C   0  0  2  0  0  0  0  0  0  0  0  0
    7.4314  -17.9543   16.7711 N   0  0  0  0  0  0  0  0  0  0  0  0
    7.7416  -16.9060   18.9251 C   0  0  0  0  0  0  0  0  0  0  0  0
    8.9644  -17.1980   18.9659 O   0  0  0  0  0  0  0  0  0  0  0  0
    8.2321  -12.7263   21.5907 C   0  0  0  0  0  0  0  0  0  0  0  0
    7.3965  -13.6538   20.7450 C   0  0  1  0  0  0  0  0  0  0  0  0
    7.0738  -12.9738   19.4341 C   0  0  0  0  0  0  0  0  0  0  0  0
    8.1154  -14.9677   20.5148 C   0  0  2  0  0  0  0  0  0  0  0  0
    7.2881  -15.8037   19.6992 N   0  0  0  0  0  0  0  0  0  0  0  0
    8.5788  -15.5892   21.7508 C   0  0  0  0  0  0  0  0  0  0  0  0
    7.7166  -15.9687   22.5860 O   0  0  0  0  0  0  0  0  0  0  0  0
   10.8879  -18.3043   21.8701 O   0  0  0  0  0  0  0  0  0  0  0  0
   10.1672  -18.0039   23.0448 C   0  0  0  0  0  0  0  0  0  0  0  0
   10.3734  -16.5095   23.2753 C   0  0  2  0  0  0  0  0  0  0  0  0
    9.9409  -15.8009   22.0869 N   0  0  0  0  0  0  0  0  0  0  0  0
   11.7646  -16.2141   23.6363 C   0  0  0  0  0  0  0  0  0  0  0  0
   12.2717  -16.7442   24.6526 O   0  0  0  0  0  0  0  0  0  0  0  0
   12.5504  -15.3584   22.8846 O   0  0  0  0  0  0  0  0  0  0  0  0
  2  3  1  0
  2  1  1  1
  4  2  1  0
  5  4  2  0
  7  6  1  1
  7  8  1  0
  7  9  1  0
  9 10  1  1
 10  4  1  0
 11  9  1  0
 11 16  1  0
 12 11  2  0
 13 14  1  0
 15 14  1  6
 16 15  1  0
 17 15  1  0
 18 17  2  0
 19 17  1  0
M  END
$$$$
