AVS.pdb
     RDKit          3D

 19 18  0  0  1  0  0  0  0  0999 V2000
    7.0167  -16.8544   22.0413 C   0  0  0  0  0  0  0  0  0  0  0  0
    7.2633  -15.3732   21.8836 C   0  0  2  0  0  0  0  0  0  0  0  0
    8.0454  -15.0743   20.7030 N   0  0  0  0  0  0  0  0  0  0  0  0
    7.9305  -14.8404   23.1044 C   0  0  0  0  0  0  0  0  0  0  0  0
    9.1844  -14.9012   23.1828 O   0  0  0  0  0  0  0  0  0  0  0  0
    7.4393  -12.3596   27.3935 C   0  0  0  0  0  0  0  0  0  0  0  0
    6.8679  -12.8448   26.0851 C   0  0  1  0  0  0  0  0  0  0  0  0
    6.6341  -11.6598   25.1763 C   0  0  0  0  0  0  0  0  0  0  0  0
    7.7911  -13.8558   25.4357 C   0  0  2  0  0  0  0  0  0  0  0  0
    7.2168  -14.2641   24.1900 N   0  0  0  0  0  0  0  0  0  0  0  0
    8.1549  -14.9520   26.3271 C   0  0  0  0  0  0  0  0  0  0  0  0
    7.2580  -15.7694   26.6625 O   0  0  0  0  0  0  0  0  0  0  0  0
   11.7736  -16.5003   26.5393 O   0  0  0  0  0  0  0  0  0  0  0  0
   10.6687  -17.2507   26.9925 C   0  0  0  0  0  0  0  0  0  0  0  0
    9.7880  -16.2590   27.7474 C   0  0  2  0  0  0  0  0  0  0  0  0
    9.4557  -15.1697   26.8504 N   0  0  0  0  0  0  0  0  0  0  0  0
   10.4394  -15.7999   28.9793 C   0  0  0  0  0  0  0  0  0  0  0  0
   10.7951  -16.6334   29.8452 O   0  0  0  0  0  0  0  0  0  0  0  0
   10.6796  -14.4595   29.2250 O   0  0  0  0  0  0  0  0  0  0  0  0
  2  3  1  0
  2  1  1  1
  4  2  1  0
  5  4  2  0
  7  6  1  1
  7  8  1  0
  7  9  1  0
  9 10  1  6
 10  4  1  0
 11  9  1  0
 11 16  1  0
 12 11  2  0
 13 14  1  0
 15 14  1  6
 16 15  1  0
 17 15  1  0
 18 17  2  0
 19 17  1  0
M  END
$$$$
