AVS.pdb
     RDKit          3D

 19 18  0  0  1  0  0  0  0  0999 V2000
    7.5144  -18.6013   17.6254 C   0  0  0  0  0  0  0  0  0  0  0  0
    8.1004  -17.2885   17.1641 C   0  0  2  0  0  0  0  0  0  0  0  0
    9.0665  -17.4671   16.1012 N   0  0  0  0  0  0  0  0  0  0  0  0
    8.7160  -16.5775   18.3194 C   0  0  0  0  0  0  0  0  0  0  0  0
    9.9416  -16.7445   18.5481 O   0  0  0  0  0  0  0  0  0  0  0  0
    8.1305  -12.9763   21.7127 C   0  0  0  0  0  0  0  0  0  0  0  0
    7.5939  -13.8134   20.5790 C   0  0  1  0  0  0  0  0  0  0  0  0
    7.3771  -12.9313   19.3708 C   0  0  0  0  0  0  0  0  0  0  0  0
    8.5376  -14.9547   20.2582 C   0  0  2  0  0  0  0  0  0  0  0  0
    7.9835  -15.7157   19.1801 N   0  0  0  0  0  0  0  0  0  0  0  0
    8.9047  -15.7394   21.4321 C   0  0  0  0  0  0  0  0  0  0  0  0
    8.0375  -16.5024   21.9332 O   0  0  0  0  0  0  0  0  0  0  0  0
   12.2683  -17.3410   21.9528 O   0  0  0  0  0  0  0  0  0  0  0  0
   12.0119  -16.7662   23.2150 C   0  0  0  0  0  0  0  0  0  0  0  0
   10.5118  -16.4863   23.2352 C   0  0  2  0  0  0  0  0  0  0  0  0
   10.1773  -15.7082   22.0587 N   0  0  0  0  0  0  0  0  0  0  0  0
   10.1105  -15.8275   24.4833 C   0  0  0  0  0  0  0  0  0  0  0  0
   10.2823  -16.4100   25.5798 O   0  0  0  0  0  0  0  0  0  0  0  0
    9.5404  -14.5667   24.4954 O   0  0  0  0  0  0  0  0  0  0  0  0
  2  3  1  0
  2  1  1  1
  4  2  1  0
  5  4  2  0
  7  6  1  1
  7  8  1  0
  7  9  1  0
  9 10  1  6
 10  4  1  0
 11  9  1  0
 11 16  1  0
 12 11  2  0
 13 14  1  0
 15 14  1  1
 16 15  1  0
 17 15  1  0
 18 17  2  0
 19 17  1  0
M  END
$$$$
