AVS.pdb
     RDKit          3D

 19 18  0  0  1  0  0  0  0  0999 V2000
   -2.9349  -24.8099   25.3317 C   0  0  0  0  0  0  0  0  0  0  0  0
   -3.3113  -23.4606   24.7682 C   0  0  2  0  0  0  0  0  0  0  0  0
   -4.6829  -23.4266   24.3072 N   0  0  0  0  0  0  0  0  0  0  0  0
   -2.3776  -23.0963   23.6660 C   0  0  0  0  0  0  0  0  0  0  0  0
   -2.6248  -23.5088   22.5037 O   0  0  0  0  0  0  0  0  0  0  0  0
   -1.4954  -19.7982   22.4893 C   0  0  0  0  0  0  0  0  0  0  0  0
   -0.1636  -20.4283   22.8101 C   0  0  1  0  0  0  0  0  0  0  0  0
    0.3347  -19.8888   24.1313 C   0  0  0  0  0  0  0  0  0  0  0  0
   -0.2769  -21.9390   22.8464 C   0  0  2  0  0  0  0  0  0  0  0  0
   -1.2158  -22.3019   23.8638 N   0  0  0  0  0  0  0  0  0  0  0  0
    1.0166  -22.6064   22.9451 C   0  0  0  0  0  0  0  0  0  0  0  0
    1.6342  -22.5490   24.0407 O   0  0  0  0  0  0  0  0  0  0  0  0
    1.9609  -25.6017   20.6050 O   0  0  0  0  0  0  0  0  0  0  0  0
    2.6769  -25.4996   21.8160 C   0  0  0  0  0  0  0  0  0  0  0  0
    2.9100  -24.0057   22.0237 C   0  0  2  0  0  0  0  0  0  0  0  0
    1.6383  -23.3228   21.8899 N   0  0  0  0  0  0  0  0  0  0  0  0
    3.9285  -23.4931   21.1002 C   0  0  0  0  0  0  0  0  0  0  0  0
    3.6311  -22.5929   20.2803 O   0  0  0  0  0  0  0  0  0  0  0  0
    5.2260  -23.9740   21.1006 O   0  0  0  0  0  0  0  0  0  0  0  0
  2  3  1  0
  2  1  1  6
  4  2  1  0
  5  4  2  0
  7  6  1  1
  7  8  1  0
  7  9  1  0
  9 10  1  1
 10  4  1  0
 11  9  1  0
 11 16  1  0
 12 11  2  0
 13 14  1  0
 15 14  1  6
 16 15  1  0
 17 15  1  0
 18 17  2  0
 19 17  1  0
M  END
$$$$
