AVS.pdb
     RDKit          3D

 19 18  0  0  1  0  0  0  0  0999 V2000
    7.4065  -18.5697   17.3674 C   0  0  0  0  0  0  0  0  0  0  0  0
    7.8025  -17.2344   16.7844 C   0  0  2  0  0  0  0  0  0  0  0  0
    8.6204  -17.3789   15.5990 N   0  0  0  0  0  0  0  0  0  0  0  0
    8.5099  -16.4241   17.8151 C   0  0  0  0  0  0  0  0  0  0  0  0
    9.7653  -16.4797   17.8703 O   0  0  0  0  0  0  0  0  0  0  0  0
    8.2795  -12.8941   21.2847 C   0  0  0  0  0  0  0  0  0  0  0  0
    7.5973  -13.7236   20.2261 C   0  0  1  0  0  0  0  0  0  0  0  0
    7.3307  -12.8596   19.0147 C   0  0  0  0  0  0  0  0  0  0  0  0
    8.4391  -14.9294   19.8608 C   0  0  2  0  0  0  0  0  0  0  0  0
    7.8332  -15.5874   18.7435 N   0  0  0  0  0  0  0  0  0  0  0  0
    8.7188  -15.7969   21.0001 C   0  0  0  0  0  0  0  0  0  0  0  0
    7.9328  -16.7538   21.2270 O   0  0  0  0  0  0  0  0  0  0  0  0
   10.1815  -18.9266   21.7781 O   0  0  0  0  0  0  0  0  0  0  0  0
   10.9316  -17.7568   21.5364 C   0  0  0  0  0  0  0  0  0  0  0  0
   10.4528  -16.7470   22.5757 C   0  0  2  0  0  0  0  0  0  0  0  0
    9.8204  -15.6429   21.8810 N   0  0  0  0  0  0  0  0  0  0  0  0
   11.5541  -16.3143   23.4434 C   0  0  0  0  0  0  0  0  0  0  0  0
   12.1745  -15.2565   23.1839 O   0  0  0  0  0  0  0  0  0  0  0  0
   11.9396  -17.0420   24.5554 O   0  0  0  0  0  0  0  0  0  0  0  0
  2  3  1  0
  2  1  1  1
  4  2  1  0
  5  4  2  0
  7  6  1  1
  7  8  1  0
  7  9  1  0
  9 10  1  6
 10  4  1  0
 11  9  1  0
 11 16  1  0
 12 11  2  0
 13 14  1  0
 15 14  1  6
 16 15  1  0
 17 15  1  0
 18 17  2  0
 19 17  1  0
M  END
$$$$
