AVS.pdb
     RDKit          3D

 19 18  0  0  1  0  0  0  0  0999 V2000
    6.5148  -15.0177   20.7769 C   0  0  0  0  0  0  0  0  0  0  0  0
    7.1227  -13.7035   21.2048 C   0  0  2  0  0  0  0  0  0  0  0  0
    8.0664  -13.1975   20.2310 N   0  0  0  0  0  0  0  0  0  0  0  0
    7.7738  -13.8589   22.5357 C   0  0  0  0  0  0  0  0  0  0  0  0
    8.9758  -14.2267   22.5809 O   0  0  0  0  0  0  0  0  0  0  0  0
    7.4197  -13.0359   27.4378 C   0  0  0  0  0  0  0  0  0  0  0  0
    6.8407  -12.9502   26.0482 C   0  0  1  0  0  0  0  0  0  0  0  0
    6.7522  -11.4983   25.6367 C   0  0  0  0  0  0  0  0  0  0  0  0
    7.6770  -13.7450   25.0659 C   0  0  2  0  0  0  0  0  0  0  0  0
    7.1007  -13.6107   23.7627 N   0  0  0  0  0  0  0  0  0  0  0  0
    7.9044  -15.1215   25.4924 C   0  0  0  0  0  0  0  0  0  0  0  0
    6.9089  -15.8854   25.5946 O   0  0  0  0  0  0  0  0  0  0  0  0
   11.3914  -16.9471   25.0563 O   0  0  0  0  0  0  0  0  0  0  0  0
   10.2383  -17.7481   25.1903 C   0  0  0  0  0  0  0  0  0  0  0  0
    9.3735  -17.0421   26.2308 C   0  0  2  0  0  0  0  0  0  0  0  0
    9.1749  -15.6710   25.8041 N   0  0  0  0  0  0  0  0  0  0  0  0
    9.9667  -17.1388   27.5693 C   0  0  0  0  0  0  0  0  0  0  0  0
   10.3396  -16.0999   28.1633 O   0  0  0  0  0  0  0  0  0  0  0  0
   10.1327  -18.3535   28.2108 O   0  0  0  0  0  0  0  0  0  0  0  0
  2  3  1  0
  2  1  1  6
  4  2  1  0
  5  4  2  0
  7  6  1  1
  7  8  1  0
  7  9  1  0
  9 10  1  6
 10  4  1  0
 11  9  1  0
 11 16  1  0
 12 11  2  0
 13 14  1  0
 15 14  1  6
 16 15  1  0
 17 15  1  0
 18 17  2  0
 19 17  1  0
M  END
$$$$
