AVS.pdb
     RDKit          3D

 19 18  0  0  1  0  0  0  0  0999 V2000
    7.1638  -18.6639   17.8037 C   0  0  0  0  0  0  0  0  0  0  0  0
    7.5979  -17.2937   17.3415 C   0  0  2  0  0  0  0  0  0  0  0  0
    8.4570  -17.3584   16.1784 N   0  0  0  0  0  0  0  0  0  0  0  0
    8.2773  -16.5772   18.4570 C   0  0  0  0  0  0  0  0  0  0  0  0
    9.4850  -16.8363   18.6948 O   0  0  0  0  0  0  0  0  0  0  0  0
    7.9439  -12.9621   21.8818 C   0  0  0  0  0  0  0  0  0  0  0  0
    7.3787  -13.7066   20.6985 C   0  0  1  0  0  0  0  0  0  0  0  0
    7.3121  -12.7733   19.5113 C   0  0  0  0  0  0  0  0  0  0  0  0
    8.2141  -14.9308   20.3831 C   0  0  2  0  0  0  0  0  0  0  0  0
    7.6251  -15.6107   19.2698 N   0  0  0  0  0  0  0  0  0  0  0  0
    8.4587  -15.7715   21.5502 C   0  0  0  0  0  0  0  0  0  0  0  0
    7.4762  -16.3515   22.0825 O   0  0  0  0  0  0  0  0  0  0  0  0
   11.9050  -17.5636   22.3714 O   0  0  0  0  0  0  0  0  0  0  0  0
   10.7185  -18.0216   22.9812 C   0  0  0  0  0  0  0  0  0  0  0  0
    9.9380  -16.7617   23.3454 C   0  0  2  0  0  0  0  0  0  0  0  0
    9.7322  -15.9876   22.1371 N   0  0  0  0  0  0  0  0  0  0  0  0
   10.6198  -15.9995   24.3975 C   0  0  0  0  0  0  0  0  0  0  0  0
   11.0768  -14.8597   24.1460 O   0  0  0  0  0  0  0  0  0  0  0  0
   10.7797  -16.4998   25.6777 O   0  0  0  0  0  0  0  0  0  0  0  0
  2  3  1  0
  2  1  1  1
  4  2  1  0
  5  4  2  0
  7  6  1  1
  7  8  1  0
  7  9  1  0
  9 10  1  6
 10  4  1  0
 11  9  1  0
 11 16  1  0
 12 11  2  0
 13 14  1  0
 15 14  1  6
 16 15  1  0
 17 15  1  0
 18 17  2  0
 19 17  1  0
M  END
$$$$
