AVS.pdb
     RDKit          3D

 19 18  0  0  1  0  0  0  0  0999 V2000
    6.4089  -16.2882   21.5796 C   0  0  0  0  0  0  0  0  0  0  0  0
    7.1617  -14.9797   21.5515 C   0  0  2  0  0  0  0  0  0  0  0  0
    8.0694  -14.8978   20.4270 N   0  0  0  0  0  0  0  0  0  0  0  0
    7.8963  -14.7930   22.8341 C   0  0  0  0  0  0  0  0  0  0  0  0
    9.0359  -15.3106   22.9584 O   0  0  0  0  0  0  0  0  0  0  0  0
    5.9790  -13.1032   26.3393 C   0  0  0  0  0  0  0  0  0  0  0  0
    7.3447  -12.6632   25.8757 C   0  0  1  0  0  0  0  0  0  0  0  0
    8.1435  -12.1876   27.0676 C   0  0  0  0  0  0  0  0  0  0  0  0
    8.0583  -13.7896   25.1559 C   0  0  2  0  0  0  0  0  0  0  0  0
    7.3704  -14.0555   23.9293 N   0  0  0  0  0  0  0  0  0  0  0  0
    8.2740  -14.9603   25.9995 C   0  0  0  0  0  0  0  0  0  0  0  0
    7.2991  -15.7277   26.2133 O   0  0  0  0  0  0  0  0  0  0  0  0
   11.6389  -16.9776   26.2511 O   0  0  0  0  0  0  0  0  0  0  0  0
   10.4039  -17.5450   26.6283 C   0  0  0  0  0  0  0  0  0  0  0  0
    9.6967  -16.4683   27.4464 C   0  0  2  0  0  0  0  0  0  0  0  0
    9.5110  -15.3035   26.6036 N   0  0  0  0  0  0  0  0  0  0  0  0
   10.4352  -16.1650   28.6775 C   0  0  0  0  0  0  0  0  0  0  0  0
   10.6787  -17.0787   29.5003 O   0  0  0  0  0  0  0  0  0  0  0  0
   10.8800  -14.8875   28.9688 O   0  0  0  0  0  0  0  0  0  0  0  0
  2  3  1  0
  2  1  1  1
  4  2  1  0
  5  4  2  0
  7  6  1  1
  7  8  1  0
  7  9  1  0
  9 10  1  6
 10  4  1  0
 11  9  1  0
 11 16  1  0
 12 11  2  0
 13 14  1  0
 15 14  1  6
 16 15  1  0
 17 15  1  0
 18 17  2  0
 19 17  1  0
M  END
$$$$
