AVS.pdb
     RDKit          3D

 19 18  0  0  1  0  0  0  0  0999 V2000
   -2.1842  -27.4541   28.5498 C   0  0  0  0  0  0  0  0  0  0  0  0
   -3.6330  -27.0546   28.6944 C   0  0  2  0  0  0  0  0  0  0  0  0
   -4.3814  -27.2696   27.4742 N   0  0  0  0  0  0  0  0  0  0  0  0
   -3.7231  -25.6303   29.1216 C   0  0  0  0  0  0  0  0  0  0  0  0
   -3.2892  -25.3120   30.2586 O   0  0  0  0  0  0  0  0  0  0  0  0
   -4.2554  -20.9282   27.6903 C   0  0  0  0  0  0  0  0  0  0  0  0
   -4.0496  -22.3970   27.4180 C   0  0  1  0  0  0  0  0  0  0  0  0
   -2.6280  -22.6211   26.9557 C   0  0  0  0  0  0  0  0  0  0  0  0
   -4.3582  -23.2221   28.6509 C   0  0  2  0  0  0  0  0  0  0  0  0
   -4.2777  -24.6084   28.3042 N   0  0  0  0  0  0  0  0  0  0  0  0
   -5.6019  -22.8290   29.3046 C   0  0  0  0  0  0  0  0  0  0  0  0
   -5.6438  -21.7105   29.8810 O   0  0  0  0  0  0  0  0  0  0  0  0
  -10.1245  -22.2992   29.6625 O   0  0  0  0  0  0  0  0  0  0  0  0
   -8.9981  -22.7552   28.9463 C   0  0  0  0  0  0  0  0  0  0  0  0
   -8.0003  -23.2099   30.0077 C   0  0  2  0  0  0  0  0  0  0  0  0
   -6.7799  -23.6189   29.3407 N   0  0  0  0  0  0  0  0  0  0  0  0
   -8.5669  -24.2680   30.8516 C   0  0  0  0  0  0  0  0  0  0  0  0
   -8.3709  -25.4711   30.5598 O   0  0  0  0  0  0  0  0  0  0  0  0
   -9.3218  -23.9828   31.9756 O   0  0  0  0  0  0  0  0  0  0  0  0
  2  3  1  0
  2  1  1  6
  4  2  1  0
  5  4  2  0
  7  6  1  1
  7  8  1  0
  7  9  1  0
  9 10  1  6
 10  4  1  0
 11  9  1  0
 11 16  1  0
 12 11  2  0
 13 14  1  0
 15 14  1  6
 16 15  1  0
 17 15  1  0
 18 17  2  0
 19 17  1  0
M  END
$$$$
