AVS.pdb
     RDKit          3D

 19 18  0  0  1  0  0  0  0  0999 V2000
    6.9419  -16.3208   21.6167 C   0  0  0  0  0  0  0  0  0  0  0  0
    7.3012  -14.8547   21.6522 C   0  0  2  0  0  0  0  0  0  0  0  0
    8.1550  -14.4765   20.5463 N   0  0  0  0  0  0  0  0  0  0  0  0
    7.9494  -14.5258   22.9526 C   0  0  0  0  0  0  0  0  0  0  0  0
    9.1946  -14.6674   23.0598 O   0  0  0  0  0  0  0  0  0  0  0  0
    7.4312  -12.4826   27.4603 C   0  0  0  0  0  0  0  0  0  0  0  0
    6.8347  -12.8949   26.1381 C   0  0  1  0  0  0  0  0  0  0  0  0
    6.4932  -11.6570   25.3407 C   0  0  0  0  0  0  0  0  0  0  0  0
    7.7878  -13.7904   25.3728 C   0  0  2  0  0  0  0  0  0  0  0  0
    7.2268  -14.0577   24.0835 N   0  0  0  0  0  0  0  0  0  0  0  0
    8.1828  -14.9776   26.1232 C   0  0  0  0  0  0  0  0  0  0  0  0
    7.3134  -15.8624   26.3386 O   0  0  0  0  0  0  0  0  0  0  0  0
   11.8429  -16.4469   26.2993 O   0  0  0  0  0  0  0  0  0  0  0  0
   10.7596  -17.2621   26.6883 C   0  0  0  0  0  0  0  0  0  0  0  0
    9.8250  -16.3459   27.4733 C   0  0  2  0  0  0  0  0  0  0  0  0
    9.4852  -15.2138   26.6341 N   0  0  0  0  0  0  0  0  0  0  0  0
   10.4238  -15.9444   28.7513 C   0  0  0  0  0  0  0  0  0  0  0  0
   10.6261  -14.7311   28.9919 O   0  0  0  0  0  0  0  0  0  0  0  0
   10.7793  -16.8702   29.7164 O   0  0  0  0  0  0  0  0  0  0  0  0
  2  3  1  0
  2  1  1  1
  4  2  1  0
  5  4  2  0
  7  6  1  1
  7  8  1  0
  7  9  1  0
  9 10  1  6
 10  4  1  0
 11  9  1  0
 11 16  1  0
 12 11  2  0
 13 14  1  0
 15 14  1  6
 16 15  1  0
 17 15  1  0
 18 17  2  0
 19 17  1  0
M  END
$$$$
