AVS.pdb
     RDKit          3D

 19 18  0  0  1  0  0  0  0  0999 V2000
    6.8059  -16.1612   21.3051 C   0  0  0  0  0  0  0  0  0  0  0  0
    7.3000  -14.7426   21.4568 C   0  0  2  0  0  0  0  0  0  0  0  0
    8.2403  -14.3797   20.4180 N   0  0  0  0  0  0  0  0  0  0  0  0
    7.9102  -14.5626   22.8038 C   0  0  0  0  0  0  0  0  0  0  0  0
    9.1361  -14.8042   22.9489 O   0  0  0  0  0  0  0  0  0  0  0  0
    7.3738  -12.7522   27.4013 C   0  0  0  0  0  0  0  0  0  0  0  0
    6.8056  -13.0298   26.0324 C   0  0  1  0  0  0  0  0  0  0  0  0
    6.6373  -11.7232   25.2912 C   0  0  0  0  0  0  0  0  0  0  0  0
    7.6971  -13.9824   25.2619 C   0  0  2  0  0  0  0  0  0  0  0  0
    7.1722  -14.1292   23.9385 N   0  0  0  0  0  0  0  0  0  0  0  0
    7.9343  -15.2382   25.9658 C   0  0  0  0  0  0  0  0  0  0  0  0
    7.0252  -16.1091   25.9525 O   0  0  0  0  0  0  0  0  0  0  0  0
   11.1048  -17.2414   25.7674 O   0  0  0  0  0  0  0  0  0  0  0  0
    9.8861  -17.7980   26.2081 C   0  0  0  0  0  0  0  0  0  0  0  0
    9.3720  -16.8461   27.2846 C   0  0  2  0  0  0  0  0  0  0  0  0
    9.1234  -15.5562   26.6716 N   0  0  0  0  0  0  0  0  0  0  0  0
   10.3056  -16.7664   28.4137 C   0  0  0  0  0  0  0  0  0  0  0  0
   10.8011  -15.6614   28.7370 O   0  0  0  0  0  0  0  0  0  0  0  0
   10.6652  -17.8834   29.1469 O   0  0  0  0  0  0  0  0  0  0  0  0
  2  3  1  0
  2  1  1  6
  4  2  1  0
  5  4  2  0
  7  6  1  1
  7  8  1  0
  7  9  1  0
  9 10  1  6
 10  4  1  0
 11  9  1  0
 11 16  1  0
 12 11  2  0
 13 14  1  0
 15 14  1  6
 16 15  1  0
 17 15  1  0
 18 17  2  0
 19 17  1  0
M  END
$$$$
