AVS.pdb
     RDKit          3D

 19 18  0  0  1  0  0  0  0  0999 V2000
    8.0048  -18.6609   18.6967 C   0  0  0  0  0  0  0  0  0  0  0  0
    8.6460  -17.3395   18.3468 C   0  0  2  0  0  0  0  0  0  0  0  0
    9.8227  -17.5072   17.5208 N   0  0  0  0  0  0  0  0  0  0  0  0
    8.9811  -16.5960   19.5935 C   0  0  0  0  0  0  0  0  0  0  0  0
   10.0822  -16.8256   20.1565 O   0  0  0  0  0  0  0  0  0  0  0  0
    7.7136  -12.8251   22.6046 C   0  0  0  0  0  0  0  0  0  0  0  0
    7.5113  -13.6353   21.3490 C   0  0  1  0  0  0  0  0  0  0  0  0
    7.7818  -12.7610   20.1459 C   0  0  0  0  0  0  0  0  0  0  0  0
    8.4065  -14.8579   21.3465 C   0  0  2  0  0  0  0  0  0  0  0  0
    8.1139  -15.6354   20.1811 N   0  0  0  0  0  0  0  0  0  0  0  0
    8.3620  -15.6008   22.6014 C   0  0  0  0  0  0  0  0  0  0  0  0
    7.2562  -16.0726   22.9750 O   0  0  0  0  0  0  0  0  0  0  0  0
   11.1100  -17.9437   23.8637 O   0  0  0  0  0  0  0  0  0  0  0  0
    9.8147  -18.0163   24.4172 C   0  0  0  0  0  0  0  0  0  0  0  0
    9.4088  -16.5704   24.6885 C   0  0  2  0  0  0  0  0  0  0  0  0
    9.4812  -15.8348   23.4415 N   0  0  0  0  0  0  0  0  0  0  0  0
   10.2341  -15.9758   25.7459 C   0  0  0  0  0  0  0  0  0  0  0  0
   10.2601  -16.4978   26.8852 O   0  0  0  0  0  0  0  0  0  0  0  0
   10.9973  -14.8421   25.5290 O   0  0  0  0  0  0  0  0  0  0  0  0
  2  3  1  0
  2  1  1  1
  4  2  1  0
  5  4  2  0
  7  6  1  1
  7  8  1  0
  7  9  1  0
  9 10  1  6
 10  4  1  0
 11  9  1  0
 11 16  1  0
 12 11  2  0
 13 14  1  0
 15 14  1  6
 16 15  1  0
 17 15  1  0
 18 17  2  0
 19 17  1  0
M  END
$$$$
