AVS.pdb
     RDKit          3D

 19 18  0  0  1  0  0  0  0  0999 V2000
    7.5243  -18.3680   17.0452 C   0  0  0  0  0  0  0  0  0  0  0  0
    7.8730  -16.9484   16.6676 C   0  0  2  0  0  0  0  0  0  0  0  0
    8.7113  -16.8888   15.4892 N   0  0  0  0  0  0  0  0  0  0  0  0
    8.5337  -16.2687   17.8170 C   0  0  0  0  0  0  0  0  0  0  0  0
    9.7838  -16.3503   17.9297 O   0  0  0  0  0  0  0  0  0  0  0  0
    7.9925  -13.1954   21.7056 C   0  0  0  0  0  0  0  0  0  0  0  0
    7.4648  -13.8273   20.4422 C   0  0  1  0  0  0  0  0  0  0  0  0
    7.2974  -12.7589   19.3861 C   0  0  0  0  0  0  0  0  0  0  0  0
    8.3901  -14.9273   19.9627 C   0  0  2  0  0  0  0  0  0  0  0  0
    7.8178  -15.5293   18.7972 N   0  0  0  0  0  0  0  0  0  0  0  0
    8.7543  -15.8674   21.0174 C   0  0  0  0  0  0  0  0  0  0  0  0
    8.0246  -16.8784   21.1918 O   0  0  0  0  0  0  0  0  0  0  0  0
   12.0727  -17.6200   21.3343 O   0  0  0  0  0  0  0  0  0  0  0  0
   10.7954  -17.9598   21.8267 C   0  0  0  0  0  0  0  0  0  0  0  0
   10.3811  -16.7919   22.7175 C   0  0  2  0  0  0  0  0  0  0  0  0
    9.8795  -15.7279   21.8704 N   0  0  0  0  0  0  0  0  0  0  0  0
   11.4895  -16.3583   23.5755 C   0  0  0  0  0  0  0  0  0  0  0  0
   11.9500  -15.1981   23.4616 O   0  0  0  0  0  0  0  0  0  0  0  0
   12.0546  -17.1957   24.5211 O   0  0  0  0  0  0  0  0  0  0  0  0
  2  3  1  0
  2  1  1  1
  4  2  1  0
  5  4  2  0
  7  6  1  1
  7  8  1  0
  7  9  1  0
  9 10  1  6
 10  4  1  0
 11  9  1  0
 11 16  1  0
 12 11  2  0
 13 14  1  0
 15 14  1  6
 16 15  1  0
 17 15  1  0
 18 17  2  0
 19 17  1  0
M  END
$$$$
