AVS.pdb
     RDKit          3D

 19 18  0  0  1  0  0  0  0  0999 V2000
    7.2329  -18.7618   17.7777 C   0  0  0  0  0  0  0  0  0  0  0  0
    7.6214  -17.4012   17.2511 C   0  0  2  0  0  0  0  0  0  0  0  0
    8.3997  -17.4904   16.0340 N   0  0  0  0  0  0  0  0  0  0  0  0
    8.3686  -16.6497   18.2983 C   0  0  0  0  0  0  0  0  0  0  0  0
    9.6162  -16.7924   18.3700 O   0  0  0  0  0  0  0  0  0  0  0  0
    8.1741  -12.9611   21.6390 C   0  0  0  0  0  0  0  0  0  0  0  0
    7.5199  -13.8187   20.5852 C   0  0  1  0  0  0  0  0  0  0  0  0
    7.2005  -12.9650   19.3793 C   0  0  0  0  0  0  0  0  0  0  0  0
    8.4128  -14.9832   20.2074 C   0  0  2  0  0  0  0  0  0  0  0  0
    7.7382  -15.7754   19.2246 N   0  0  0  0  0  0  0  0  0  0  0  0
    8.8976  -15.7296   21.3634 C   0  0  0  0  0  0  0  0  0  0  0  0
    8.0993  -16.5098   21.9457 O   0  0  0  0  0  0  0  0  0  0  0  0
   12.6034  -16.8441   21.5928 O   0  0  0  0  0  0  0  0  0  0  0  0
   12.2444  -16.4598   22.9016 C   0  0  0  0  0  0  0  0  0  0  0  0
   10.7194  -16.5083   22.9339 C   0  0  2  0  0  0  0  0  0  0  0  0
   10.2134  -15.6426   21.8870 N   0  0  0  0  0  0  0  0  0  0  0  0
   10.2041  -16.1535   24.2610 C   0  0  0  0  0  0  0  0  0  0  0  0
    9.5931  -15.0713   24.4245 O   0  0  0  0  0  0  0  0  0  0  0  0
   10.3701  -16.9822   25.3567 O   0  0  0  0  0  0  0  0  0  0  0  0
  2  3  1  0
  2  1  1  1
  4  2  1  0
  5  4  2  0
  7  6  1  1
  7  8  1  0
  7  9  1  0
  9 10  1  6
 10  4  1  0
 11  9  1  0
 11 16  1  0
 12 11  2  0
 13 14  1  0
 15 14  1  1
 16 15  1  0
 17 15  1  0
 18 17  2  0
 19 17  1  0
M  END
$$$$
