GRW.pdb
     RDKit          3D

 30 31  0  0  1  0  0  0  0  0999 V2000
   10.6396  -18.9995   19.2076 N   0  0  0  0  0  0  0  0  0  0  0  0
    9.5966  -19.1285   20.1937 C   0  0  0  0  0  0  0  0  0  0  0  0
    8.9801  -17.7838   20.4424 C   0  0  0  0  0  0  0  0  0  0  0  0
    9.4660  -16.7823   19.9096 O   0  0  0  0  0  0  0  0  0  0  0  0
    1.7857  -19.1798   21.5775 N   0  0  0  0  0  0  0  0  0  0  0  0
    2.4046  -19.2478   20.2793 C   0  0  0  0  0  0  0  0  0  0  0  0
    1.6888  -19.2460   19.2143 N   0  0  0  0  0  0  0  0  0  0  0  0
    3.8142  -19.3145   20.2662 N   0  0  0  0  0  0  0  0  0  0  0  0
    4.6040  -18.6400   21.2532 C   0  0  0  0  0  0  0  0  0  0  0  0
    4.8719  -17.2208   20.8540 C   0  0  0  0  0  0  0  0  0  0  0  0
    5.7523  -16.5840   21.8957 C   0  0  0  0  0  0  0  0  0  0  0  0
    7.1781  -16.4090   21.5736 C   0  0  2  0  0  0  0  0  0  0  0  0
    7.8592  -17.6578   21.2740 N   0  0  0  0  0  0  0  0  0  0  0  0
    7.9004  -15.6854   22.6768 C   0  0  0  0  0  0  0  0  0  0  0  0
    7.5697  -14.5222   23.0215 O   0  0  0  0  0  0  0  0  0  0  0  0
    2.1589  -19.3561   18.2947 N   0  0  0  0  0  0  0  0  0  0  0  0
    8.9696  -16.3718   23.3091 C   0  0  1  0  0  0  0  0  0  0  0  0
    9.8016  -15.6893   24.3316 C   0  0  0  0  0  0  0  0  0  0  0  0
    9.2294  -16.1238   25.6343 C   0  0  0  0  0  0  0  0  0  0  0  0
    7.9855  -15.4160   25.9531 C   0  0  0  0  0  0  0  0  0  0  0  0
    6.6980  -15.9612   25.9868 N   0  0  0  0  0  0  0  0  0  0  0  0
    5.8034  -15.0067   26.2838 C   0  0  0  0  0  0  0  0  0  0  0  0
    6.4706  -13.8445   26.4480 C   0  0  0  0  0  0  0  0  0  0  0  0
    6.0300  -12.5655   26.7785 C   0  0  0  0  0  0  0  0  0  0  0  0
    6.9522  -11.5662   26.8990 C   0  0  0  0  0  0  0  0  0  0  0  0
    8.2960  -11.8059   26.6996 C   0  0  0  0  0  0  0  0  0  0  0  0
    8.7333  -13.0616   26.3736 C   0  0  0  0  0  0  0  0  0  0  0  0
    7.8235  -14.0858   26.2457 C   0  0  0  0  0  0  0  0  0  0  0  0
   11.2152  -15.9352   24.1152 O   0  0  0  0  0  0  0  0  0  0  0  0
   12.2319  -15.3527   24.8404 O   0  0  0  0  0  0  0  0  0  0  0  0
  2  1  1  0
  3  2  1  0
  4  3  2  0
  6  8  1  0
  6  5  1  0
  7  6  2  0
  9  8  1  0
 10  9  1  0
 11 10  1  0
 12 11  1  1
 12 13  1  0
 13  3  1  0
 14 16  1  0
 14 12  1  0
 15 14  2  0
 17 18  1  6
 17 16  1  0
 18 19  1  0
 19 20  2  0
 19 27  1  0
 20 21  1  0
 21 22  1  0
 22 23  2  0
 23 24  1  0
 25 24  2  0
 26 25  1  0
 27 26  2  0
 27 22  1  0
 28 17  1  0
 28 29  1  0
 30 28  2  0
M  END
$$$$
