GRW.pdb
     RDKit          3D

 30 31  0  0  1  0  0  0  0  0999 V2000
    9.5998  -17.2025   17.0138 N   0  0  0  0  0  0  0  0  0  0  0  0
   10.1263  -17.7495   18.2387 C   0  0  0  0  0  0  0  0  0  0  0  0
    9.4769  -17.0672   19.4062 C   0  0  0  0  0  0  0  0  0  0  0  0
    9.3350  -15.8413   19.3943 O   0  0  0  0  0  0  0  0  0  0  0  0
    4.7067  -21.8204   23.8628 N   0  0  0  0  0  0  0  0  0  0  0  0
    5.7706  -22.3759   23.0675 C   0  0  0  0  0  0  0  0  0  0  0  0
    5.6424  -23.5298   22.5209 N   0  0  0  0  0  0  0  0  0  0  0  0
    6.9293  -21.5809   22.9382 N   0  0  0  0  0  0  0  0  0  0  0  0
    6.8807  -20.1573   23.0940 C   0  0  0  0  0  0  0  0  0  0  0  0
    7.0808  -19.4626   21.7816 C   0  0  0  0  0  0  0  0  0  0  0  0
    7.1201  -17.9772   22.0225 C   0  0  0  0  0  0  0  0  0  0  0  0
    8.3553  -17.2584   21.6694 C   0  0  2  0  0  0  0  0  0  0  0  0
    9.0320  -17.8109   20.5074 N   0  0  0  0  0  0  0  0  0  0  0  0
    9.3048  -17.2030   22.8346 C   0  0  0  0  0  0  0  0  0  0  0  0
   10.0892  -18.1536   23.0843 O   0  0  0  0  0  0  0  0  0  0  0  0
    6.4562  -23.9417   22.0240 N   0  0  0  0  0  0  0  0  0  0  0  0
    9.2751  -16.0337   23.6384 C   0  0  2  0  0  0  0  0  0  0  0  0
   10.0524  -15.9691   24.9014 C   0  0  0  0  0  0  0  0  0  0  0  0
    9.7631  -14.6182   25.4532 C   0  0  0  0  0  0  0  0  0  0  0  0
    8.3349  -14.4285   25.7254 C   0  0  0  0  0  0  0  0  0  0  0  0
    7.3526  -15.4231   25.7704 N   0  0  0  0  0  0  0  0  0  0  0  0
    6.1536  -14.8729   26.0131 C   0  0  0  0  0  0  0  0  0  0  0  0
    6.3216  -13.5384   26.1304 C   0  0  0  0  0  0  0  0  0  0  0  0
    5.4171  -12.5136   26.3965 C   0  0  0  0  0  0  0  0  0  0  0  0
    5.8841  -11.2337   26.4805 C   0  0  0  0  0  0  0  0  0  0  0  0
    7.2226  -10.9484   26.3070 C   0  0  0  0  0  0  0  0  0  0  0  0
    8.1151  -11.9528   26.0444 C   0  0  0  0  0  0  0  0  0  0  0  0
    7.6692  -13.2513   25.9542 C   0  0  0  0  0  0  0  0  0  0  0  0
    9.7702  -17.1071   25.7564 O   0  0  0  0  0  0  0  0  0  0  0  0
    8.8049  -18.0572   25.5030 O   0  0  0  0  0  0  0  0  0  0  0  0
  2  1  1  0
  3  2  1  0
  4  3  2  0
  6  8  1  0
  6  5  1  0
  7  6  2  0
  9  8  1  0
 10  9  1  0
 11 10  1  0
 12 11  1  1
 12 13  1  0
 13  3  1  0
 14 16  1  0
 14 12  1  0
 15 14  2  0
 17 18  1  6
 17 16  1  0
 18 19  1  0
 19 20  2  0
 19 27  1  0
 20 21  1  0
 21 22  1  0
 22 23  2  0
 23 24  1  0
 25 24  2  0
 26 25  1  0
 27 26  2  0
 27 22  1  0
 28 17  1  0
 28 29  1  0
 30 28  2  0
M  END
$$$$
