GRW.pdb
     RDKit          3D

 30 31  0  0  1  0  0  0  0  0999 V2000
    9.5495  -21.6008   21.9613 N   0  0  0  0  0  0  0  0  0  0  0  0
    8.5420  -20.6461   22.3491 C   0  0  0  0  0  0  0  0  0  0  0  0
    9.0121  -19.2629   22.0087 C   0  0  0  0  0  0  0  0  0  0  0  0
   10.1840  -19.0845   21.6653 O   0  0  0  0  0  0  0  0  0  0  0  0
    9.3992  -14.0793   17.8167 N   0  0  0  0  0  0  0  0  0  0  0  0
    8.7518  -12.9523   18.4362 C   0  0  0  0  0  0  0  0  0  0  0  0
    9.3001  -11.7923   18.4152 N   0  0  0  0  0  0  0  0  0  0  0  0
    7.5074  -13.2110   19.0495 N   0  0  0  0  0  0  0  0  0  0  0  0
    7.2082  -14.4891   19.6239 C   0  0  0  0  0  0  0  0  0  0  0  0
    7.5744  -14.5285   21.0763 C   0  0  0  0  0  0  0  0  0  0  0  0
    7.3238  -15.9172   21.6001 C   0  0  0  0  0  0  0  0  0  0  0  0
    8.4895  -16.7926   21.8054 C   0  0  2  0  0  0  0  0  0  0  0  0
    8.1317  -18.1749   22.0783 N   0  0  0  0  0  0  0  0  0  0  0  0
    9.3770  -16.2691   22.9011 C   0  0  0  0  0  0  0  0  0  0  0  0
   10.2060  -15.3482   22.6869 O   0  0  0  0  0  0  0  0  0  0  0  0
    8.8356  -11.0098   18.9159 N   0  0  0  0  0  0  0  0  0  0  0  0
    9.2382  -16.8600   24.1840 C   0  0  1  0  0  0  0  0  0  0  0  0
   10.0954  -16.4182   25.3125 C   0  0  0  0  0  0  0  0  0  0  0  0
    9.7263  -14.9936   25.5309 C   0  0  0  0  0  0  0  0  0  0  0  0
    8.3106  -14.8385   25.8792 C   0  0  0  0  0  0  0  0  0  0  0  0
    7.3343  -15.8400   25.8779 N   0  0  0  0  0  0  0  0  0  0  0  0
    6.1450  -15.3216   26.2191 C   0  0  0  0  0  0  0  0  0  0  0  0
    6.3138  -14.0015   26.4465 C   0  0  0  0  0  0  0  0  0  0  0  0
    5.4184  -13.0104   26.8403 C   0  0  0  0  0  0  0  0  0  0  0  0
    5.8845  -11.7396   27.0170 C   0  0  0  0  0  0  0  0  0  0  0  0
    7.2135  -11.4309   26.8126 C   0  0  0  0  0  0  0  0  0  0  0  0
    8.0969  -12.4021   26.4246 C   0  0  0  0  0  0  0  0  0  0  0  0
    7.6516  -13.6907   26.2392 C   0  0  0  0  0  0  0  0  0  0  0  0
    9.9791  -17.3132   26.4487 O   0  0  0  0  0  0  0  0  0  0  0  0
   10.7414  -17.2294   27.5935 O   0  0  0  0  0  0  0  0  0  0  0  0
  2  1  1  0
  3  2  1  0
  4  3  2  0
  6  8  1  0
  6  5  1  0
  7  6  2  0
  9  8  1  0
 10  9  1  0
 11 10  1  0
 12 11  1  1
 12 13  1  0
 13  3  1  0
 14 16  1  0
 14 12  1  0
 15 14  2  0
 17 18  1  1
 17 16  1  0
 18 19  1  0
 19 20  2  0
 19 27  1  0
 20 21  1  0
 21 22  1  0
 22 23  2  0
 23 24  1  0
 25 24  2  0
 26 25  1  0
 27 26  2  0
 27 22  1  0
 28 17  1  0
 28 29  1  0
 30 28  2  0
M  END
$$$$
