GRW.pdb
     RDKit          3D

 30 31  0  0  1  0  0  0  0  0999 V2000
    5.8033  -21.1939   22.9079 N   0  0  0  0  0  0  0  0  0  0  0  0
    5.6999  -19.8278   23.3549 C   0  0  0  0  0  0  0  0  0  0  0  0
    6.5767  -18.9592   22.5022 C   0  0  0  0  0  0  0  0  0  0  0  0
    7.3245  -19.4788   21.6693 O   0  0  0  0  0  0  0  0  0  0  0  0
    9.3026  -14.8031   16.9193 N   0  0  0  0  0  0  0  0  0  0  0  0
    8.4459  -13.8078   17.5096 C   0  0  0  0  0  0  0  0  0  0  0  0
    8.5523  -12.5737   17.1746 N   0  0  0  0  0  0  0  0  0  0  0  0
    7.5093  -14.2768   18.4553 N   0  0  0  0  0  0  0  0  0  0  0  0
    7.9259  -14.9416   19.6542 C   0  0  0  0  0  0  0  0  0  0  0  0
    7.3614  -14.2701   20.8690 C   0  0  0  0  0  0  0  0  0  0  0  0
    6.6754  -15.3062   21.7186 C   0  0  0  0  0  0  0  0  0  0  0  0
    7.3107  -16.6293   21.8319 C   0  0  2  0  0  0  0  0  0  0  0  0
    6.5525  -17.5654   22.6455 N   0  0  0  0  0  0  0  0  0  0  0  0
    8.7147  -16.5154   22.3593 C   0  0  0  0  0  0  0  0  0  0  0  0
    9.5924  -15.8572   21.7447 O   0  0  0  0  0  0  0  0  0  0  0  0
    7.9520  -11.8721   17.6502 N   0  0  0  0  0  0  0  0  0  0  0  0
    9.0044  -17.1829   23.5777 C   0  0  1  0  0  0  0  0  0  0  0  0
    9.3110  -16.4076   24.8059 C   0  0  0  0  0  0  0  0  0  0  0  0
    8.2172  -15.4038   24.9008 C   0  0  0  0  0  0  0  0  0  0  0  0
    8.3285  -14.5800   26.1085 C   0  0  0  0  0  0  0  0  0  0  0  0
    9.2410  -14.7488   27.1550 N   0  0  0  0  0  0  0  0  0  0  0  0
    9.0239  -13.8279   28.1059 C   0  0  0  0  0  0  0  0  0  0  0  0
    7.9900  -13.0546   27.7111 C   0  0  0  0  0  0  0  0  0  0  0  0
    7.3767  -11.9570   28.3095 C   0  0  0  0  0  0  0  0  0  0  0  0
    6.3451  -11.3467   27.6561 C   0  0  0  0  0  0  0  0  0  0  0  0
    5.9099  -11.7988   26.4276 C   0  0  0  0  0  0  0  0  0  0  0  0
    6.5096  -12.8781   25.8362 C   0  0  0  0  0  0  0  0  0  0  0  0
    7.5511  -13.5110   26.4748 C   0  0  0  0  0  0  0  0  0  0  0  0
    9.5088  -17.2803   25.9482 O   0  0  0  0  0  0  0  0  0  0  0  0
   10.4994  -17.1221   26.8929 O   0  0  0  0  0  0  0  0  0  0  0  0
  2  1  1  0
  3  2  1  0
  4  3  2  0
  6  8  1  0
  6  5  1  0
  7  6  2  0
  9  8  1  0
 10  9  1  0
 11 10  1  0
 12 11  1  1
 12 13  1  0
 13  3  1  0
 14 16  1  0
 14 12  1  0
 15 14  2  0
 17 18  1  1
 17 16  1  0
 18 19  1  0
 19 20  2  0
 19 27  1  0
 20 21  1  0
 21 22  1  0
 22 23  2  0
 23 24  1  0
 25 24  2  0
 26 25  1  0
 27 26  2  0
 27 22  1  0
 28 17  1  0
 28 29  1  0
 30 28  2  0
M  END
$$$$
