GRW.pdb
     RDKit          3D

 30 31  0  0  1  0  0  0  0  0999 V2000
    6.7609  -12.8836   18.8739 N   0  0  0  0  0  0  0  0  0  0  0  0
    8.1491  -13.2280   18.6980 C   0  0  0  0  0  0  0  0  0  0  0  0
    8.4881  -14.3900   19.5840 C   0  0  0  0  0  0  0  0  0  0  0  0
    7.6193  -14.8729   20.3154 O   0  0  0  0  0  0  0  0  0  0  0  0
   14.0187  -18.5401   15.7527 N   0  0  0  0  0  0  0  0  0  0  0  0
   12.6215  -18.3546   16.0471 C   0  0  0  0  0  0  0  0  0  0  0  0
   11.8927  -17.6024   15.3056 N   0  0  0  0  0  0  0  0  0  0  0  0
   12.1288  -19.0407   17.1776 N   0  0  0  0  0  0  0  0  0  0  0  0
   12.1944  -18.4661   18.4884 C   0  0  0  0  0  0  0  0  0  0  0  0
   11.4392  -17.1734   18.5506 C   0  0  0  0  0  0  0  0  0  0  0  0
   11.4472  -16.6772   19.9717 C   0  0  0  0  0  0  0  0  0  0  0  0
   10.2410  -15.9924   20.4651 C   0  0  2  0  0  0  0  0  0  0  0  0
    9.7816  -14.9290   19.5868 N   0  0  0  0  0  0  0  0  0  0  0  0
   10.4509  -15.4530   21.8533 C   0  0  0  0  0  0  0  0  0  0  0  0
   10.7974  -14.2595   22.0454 O   0  0  0  0  0  0  0  0  0  0  0  0
   10.9240  -17.3856   15.6111 N   0  0  0  0  0  0  0  0  0  0  0  0
   10.2422  -16.3489   22.9340 C   0  0  2  0  0  0  0  0  0  0  0  0
    9.5452  -15.8951   24.1636 C   0  0  0  0  0  0  0  0  0  0  0  0
    8.2333  -15.3818   23.6854 C   0  0  0  0  0  0  0  0  0  0  0  0
    7.3729  -14.9530   24.7924 C   0  0  0  0  0  0  0  0  0  0  0  0
    6.4948  -15.7551   25.5285 N   0  0  0  0  0  0  0  0  0  0  0  0
    5.8493  -15.0119   26.4398 C   0  0  0  0  0  0  0  0  0  0  0  0
    6.2814  -13.7381   26.3230 C   0  0  0  0  0  0  0  0  0  0  0  0
    5.9534  -12.5834   27.0286 C   0  0  0  0  0  0  0  0  0  0  0  0
    6.5782  -11.4152   26.6994 C   0  0  0  0  0  0  0  0  0  0  0  0
    7.5173  -11.3668   25.6900 C   0  0  0  0  0  0  0  0  0  0  0  0
    7.8421  -12.4997   24.9931 C   0  0  0  0  0  0  0  0  0  0  0  0
    7.2258  -13.6895   25.3056 C   0  0  0  0  0  0  0  0  0  0  0  0
    9.5196  -16.9367   25.1735 O   0  0  0  0  0  0  0  0  0  0  0  0
    9.7251  -16.7278   26.5200 O   0  0  0  0  0  0  0  0  0  0  0  0
  2  1  1  0
  3  2  1  0
  4  3  2  0
  6  8  1  0
  6  5  1  0
  7  6  2  0
  9  8  1  0
 10  9  1  0
 11 10  1  0
 12 11  1  6
 12 13  1  0
 13  3  1  0
 14 16  1  0
 14 12  1  0
 15 14  2  0
 17 18  1  6
 17 16  1  0
 18 19  1  0
 19 20  2  0
 19 27  1  0
 20 21  1  0
 21 22  1  0
 22 23  2  0
 23 24  1  0
 25 24  2  0
 26 25  1  0
 27 26  2  0
 27 22  1  0
 28 17  1  0
 28 29  1  0
 30 28  2  0
M  END
$$$$
