GRW.pdb
     RDKit          3D

 30 31  0  0  1  0  0  0  0  0999 V2000
    6.3664  -20.4352   21.3857 N   0  0  0  0  0  0  0  0  0  0  0  0
    6.0774  -19.0679   21.7375 C   0  0  0  0  0  0  0  0  0  0  0  0
    7.3319  -18.2524   21.6307 C   0  0  0  0  0  0  0  0  0  0  0  0
    8.4254  -18.8211   21.5686 O   0  0  0  0  0  0  0  0  0  0  0  0
    8.7783  -13.6414   16.0789 N   0  0  0  0  0  0  0  0  0  0  0  0
    8.5829  -13.2677   17.4556 C   0  0  0  0  0  0  0  0  0  0  0  0
    9.5745  -12.8857   18.1750 N   0  0  0  0  0  0  0  0  0  0  0  0
    7.2599  -13.3507   17.9397 N   0  0  0  0  0  0  0  0  0  0  0  0
    6.9722  -13.2987   19.3423 C   0  0  0  0  0  0  0  0  0  0  0  0
    7.0107  -14.6663   19.9534 C   0  0  0  0  0  0  0  0  0  0  0  0
    8.2977  -14.8169   20.7194 C   0  0  0  0  0  0  0  0  0  0  0  0
    8.4215  -15.9656   21.6317 C   0  0  2  0  0  0  0  0  0  0  0  0
    7.2702  -16.8527   21.6015 N   0  0  0  0  0  0  0  0  0  0  0  0
    8.6813  -15.5143   23.0428 C   0  0  0  0  0  0  0  0  0  0  0  0
    7.9048  -14.7164   23.6273 O   0  0  0  0  0  0  0  0  0  0  0  0
    9.4259  -12.7322   19.1914 N   0  0  0  0  0  0  0  0  0  0  0  0
    9.8395  -16.0269   23.6831 C   0  0  1  0  0  0  0  0  0  0  0  0
   10.0376  -15.8394   25.1423 C   0  0  0  0  0  0  0  0  0  0  0  0
    8.8847  -16.5378   25.7719 C   0  0  0  0  0  0  0  0  0  0  0  0
    7.7323  -15.6489   25.9493 C   0  0  0  0  0  0  0  0  0  0  0  0
    6.3993  -15.9350   25.6367 N   0  0  0  0  0  0  0  0  0  0  0  0
    5.6273  -14.8708   25.9029 C   0  0  0  0  0  0  0  0  0  0  0  0
    6.4193  -13.8893   26.3847 C   0  0  0  0  0  0  0  0  0  0  0  0
    6.1284  -12.6012   26.8266 C   0  0  0  0  0  0  0  0  0  0  0  0
    7.1489  -11.8220   27.2901 C   0  0  0  0  0  0  0  0  0  0  0  0
    8.4463  -12.2897   27.3248 C   0  0  0  0  0  0  0  0  0  0  0  0
    8.7368  -13.5551   26.8905 C   0  0  0  0  0  0  0  0  0  0  0  0
    7.7257  -14.3599   26.4182 C   0  0  0  0  0  0  0  0  0  0  0  0
   11.3662  -16.2523   25.5543 O   0  0  0  0  0  0  0  0  0  0  0  0
   11.9783  -15.8665   26.7271 O   0  0  0  0  0  0  0  0  0  0  0  0
  2  1  1  0
  3  2  1  0
  4  3  2  0
  6  8  1  0
  6  5  1  0
  7  6  2  0
  9  8  1  0
 10  9  1  0
 11 10  1  0
 12 11  1  6
 12 13  1  0
 13  3  1  0
 14 16  1  0
 14 12  1  0
 15 14  2  0
 17 18  1  1
 17 16  1  0
 18 19  1  0
 19 20  2  0
 19 27  1  0
 20 21  1  0
 21 22  1  0
 22 23  2  0
 23 24  1  0
 25 24  2  0
 26 25  1  0
 27 26  2  0
 27 22  1  0
 28 17  1  0
 28 29  1  0
 30 28  2  0
M  END
$$$$
