GRW.pdb
     RDKit          3D

 30 31  0  0  1  0  0  0  0  0999 V2000
    5.2299  -16.1073   20.3394 N   0  0  0  0  0  0  0  0  0  0  0  0
    6.0694  -15.2728   21.1614 C   0  0  0  0  0  0  0  0  0  0  0  0
    7.1833  -16.0993   21.7326 C   0  0  0  0  0  0  0  0  0  0  0  0
    6.9246  -17.1706   22.2880 O   0  0  0  0  0  0  0  0  0  0  0  0
   12.5362  -14.9174   19.0589 N   0  0  0  0  0  0  0  0  0  0  0  0
   13.7449  -14.9463   19.8408 C   0  0  0  0  0  0  0  0  0  0  0  0
   14.5765  -13.9702   19.7928 N   0  0  0  0  0  0  0  0  0  0  0  0
   13.9405  -16.0933   20.6393 N   0  0  0  0  0  0  0  0  0  0  0  0
   13.0080  -17.1811   20.6268 C   0  0  0  0  0  0  0  0  0  0  0  0
   12.0591  -17.0933   21.7830 C   0  0  0  0  0  0  0  0  0  0  0  0
   10.8608  -16.2844   21.3640 C   0  0  0  0  0  0  0  0  0  0  0  0
    9.6580  -16.3531   22.2101 C   0  0  2  0  0  0  0  0  0  0  0  0
    8.5120  -15.6637   21.6404 N   0  0  0  0  0  0  0  0  0  0  0  0
    9.9343  -15.8281   23.5923 C   0  0  0  0  0  0  0  0  0  0  0  0
   10.4533  -14.6966   23.7701 O   0  0  0  0  0  0  0  0  0  0  0  0
   15.4850  -14.0616   20.2877 N   0  0  0  0  0  0  0  0  0  0  0  0
    9.5851  -16.6650   24.6840 C   0  0  1  0  0  0  0  0  0  0  0  0
    9.9748  -16.2974   26.0684 C   0  0  0  0  0  0  0  0  0  0  0  0
    8.7094  -16.3684   26.8475 C   0  0  0  0  0  0  0  0  0  0  0  0
    7.7155  -15.4004   26.3734 C   0  0  0  0  0  0  0  0  0  0  0  0
    6.5746  -15.6771   25.6131 N   0  0  0  0  0  0  0  0  0  0  0  0
    5.9198  -14.5392   25.3377 C   0  0  0  0  0  0  0  0  0  0  0  0
    6.6013  -13.5179   25.8992 C   0  0  0  0  0  0  0  0  0  0  0  0
    6.3517  -12.1484   25.9315 C   0  0  0  0  0  0  0  0  0  0  0  0
    7.2202  -11.3403   26.6071 C   0  0  0  0  0  0  0  0  0  0  0  0
    8.3262  -11.8581   27.2486 C   0  0  0  0  0  0  0  0  0  0  0  0
    8.5758  -13.2039   27.2187 C   0  0  0  0  0  0  0  0  0  0  0  0
    7.7158  -14.0393   26.5439 C   0  0  0  0  0  0  0  0  0  0  0  0
   11.0866  -17.1030   26.5378 O   0  0  0  0  0  0  0  0  0  0  0  0
   11.7188  -16.9351   27.7507 O   0  0  0  0  0  0  0  0  0  0  0  0
  2  1  1  0
  3  2  1  0
  4  3  2  0
  6  8  1  0
  6  5  1  0
  7  6  2  0
  9  8  1  0
 10  9  1  0
 11 10  1  0
 12 11  1  6
 12 13  1  0
 13  3  1  0
 14 16  1  0
 14 12  1  0
 15 14  2  0
 17 18  1  1
 17 16  1  0
 18 19  1  0
 19 20  2  0
 19 27  1  0
 20 21  1  0
 21 22  1  0
 22 23  2  0
 23 24  1  0
 25 24  2  0
 26 25  1  0
 27 26  2  0
 27 22  1  0
 28 17  1  0
 28 29  1  0
 30 28  2  0
M  END
$$$$
