GRW.pdb
     RDKit          3D

 30 31  0  0  1  0  0  0  0  0999 V2000
    6.9789  -13.2012   18.2552 N   0  0  0  0  0  0  0  0  0  0  0  0
    8.1530  -13.3658   19.0745 C   0  0  0  0  0  0  0  0  0  0  0  0
    7.9693  -14.5540   19.9716 C   0  0  0  0  0  0  0  0  0  0  0  0
    6.9262  -15.2103   19.9082 O   0  0  0  0  0  0  0  0  0  0  0  0
   11.6647  -20.6903   18.0648 N   0  0  0  0  0  0  0  0  0  0  0  0
   12.0725  -19.3106   18.0091 C   0  0  0  0  0  0  0  0  0  0  0  0
   13.2107  -18.9861   17.5133 N   0  0  0  0  0  0  0  0  0  0  0  0
   11.1548  -18.3707   18.5249 N   0  0  0  0  0  0  0  0  0  0  0  0
    9.9078  -18.7806   19.0992 C   0  0  0  0  0  0  0  0  0  0  0  0
    9.1311  -17.6023   19.6029 C   0  0  0  0  0  0  0  0  0  0  0  0
    9.5877  -17.2851   21.0017 C   0  0  0  0  0  0  0  0  0  0  0  0
    8.9681  -16.1350   21.6803 C   0  0  2  0  0  0  0  0  0  0  0  0
    8.9717  -14.9221   20.8791 N   0  0  0  0  0  0  0  0  0  0  0  0
    9.6209  -15.8709   23.0093 C   0  0  0  0  0  0  0  0  0  0  0  0
   10.6382  -15.1377   23.1037 O   0  0  0  0  0  0  0  0  0  0  0  0
   13.5065  -17.9911   17.5477 N   0  0  0  0  0  0  0  0  0  0  0  0
    9.0400  -16.4854   24.1491 C   0  0  1  0  0  0  0  0  0  0  0  0
    9.6393  -16.2953   25.4938 C   0  0  0  0  0  0  0  0  0  0  0  0
    8.4809  -16.3049   26.4273 C   0  0  0  0  0  0  0  0  0  0  0  0
    7.5366  -15.2196   26.1447 C   0  0  0  0  0  0  0  0  0  0  0  0
    6.2517  -15.3476   25.6071 N   0  0  0  0  0  0  0  0  0  0  0  0
    5.6945  -14.1365   25.4575 C   0  0  0  0  0  0  0  0  0  0  0  0
    6.5811  -13.2123   25.8845 C   0  0  0  0  0  0  0  0  0  0  0  0
    6.5026  -11.8242   25.9629 C   0  0  0  0  0  0  0  0  0  0  0  0
    7.5678  -11.1357   26.4676 C   0  0  0  0  0  0  0  0  0  0  0  0
    8.7046  -11.7903   26.8944 C   0  0  0  0  0  0  0  0  0  0  0  0
    8.7863  -13.1548   26.8184 C   0  0  0  0  0  0  0  0  0  0  0  0
    7.7262  -13.8716   26.3129 C   0  0  0  0  0  0  0  0  0  0  0  0
   10.6977  -17.2561   25.7432 O   0  0  0  0  0  0  0  0  0  0  0  0
   11.5896  -17.1850   26.7912 O   0  0  0  0  0  0  0  0  0  0  0  0
  2  1  1  0
  3  2  1  0
  4  3  2  0
  6  8  1  0
  6  5  1  0
  7  6  2  0
  9  8  1  0
 10  9  1  0
 11 10  1  0
 12 11  1  6
 12 13  1  0
 13  3  1  0
 14 16  1  0
 14 12  1  0
 15 14  2  0
 17 18  1  1
 17 16  1  0
 18 19  1  0
 19 20  2  0
 19 27  1  0
 20 21  1  0
 21 22  1  0
 22 23  2  0
 23 24  1  0
 25 24  2  0
 26 25  1  0
 27 26  2  0
 27 22  1  0
 28 17  1  0
 28 29  1  0
 30 28  2  0
M  END
$$$$
