GRW.pdb
     RDKit          3D

 30 31  0  0  1  0  0  0  0  0999 V2000
    6.5008  -21.1828   22.5494 N   0  0  0  0  0  0  0  0  0  0  0  0
    6.5298  -19.9694   23.3264 C   0  0  0  0  0  0  0  0  0  0  0  0
    7.3995  -18.9599   22.6374 C   0  0  0  0  0  0  0  0  0  0  0  0
    8.4876  -19.3092   22.1714 O   0  0  0  0  0  0  0  0  0  0  0  0
    8.7594  -14.9438   16.9398 N   0  0  0  0  0  0  0  0  0  0  0  0
    8.2190  -13.6782   17.3633 C   0  0  0  0  0  0  0  0  0  0  0  0
    8.1386  -12.6955   16.5420 N   0  0  0  0  0  0  0  0  0  0  0  0
    7.7976  -13.6017   18.7079 N   0  0  0  0  0  0  0  0  0  0  0  0
    8.2536  -14.5410   19.6891 C   0  0  0  0  0  0  0  0  0  0  0  0
    7.7657  -14.1735   21.0574 C   0  0  0  0  0  0  0  0  0  0  0  0
    7.0213  -15.3468   21.6360 C   0  0  0  0  0  0  0  0  0  0  0  0
    7.8010  -16.5419   21.9979 C   0  0  2  0  0  0  0  0  0  0  0  0
    6.9857  -17.6262   22.5202 N   0  0  0  0  0  0  0  0  0  0  0  0
    8.8905  -16.2044   22.9785 C   0  0  0  0  0  0  0  0  0  0  0  0
    9.8221  -15.4162   22.6748 O   0  0  0  0  0  0  0  0  0  0  0  0
    7.7430  -11.7950   16.8758 N   0  0  0  0  0  0  0  0  0  0  0  0
    8.8212  -16.8144   24.2580 C   0  0  1  0  0  0  0  0  0  0  0  0
    9.8093  -16.4691   25.3106 C   0  0  0  0  0  0  0  0  0  0  0  0
    9.6221  -15.0111   25.5395 C   0  0  0  0  0  0  0  0  0  0  0  0
    8.2162  -14.6660   25.7719 C   0  0  0  0  0  0  0  0  0  0  0  0
    7.1226  -15.5367   25.7267 N   0  0  0  0  0  0  0  0  0  0  0  0
    5.9877  -14.8600   25.9580 C   0  0  0  0  0  0  0  0  0  0  0  0
    6.3068  -13.5631   26.1558 C   0  0  0  0  0  0  0  0  0  0  0  0
    5.5191  -12.4525   26.4474 C   0  0  0  0  0  0  0  0  0  0  0  0
    6.1297  -11.2437   26.6194 C   0  0  0  0  0  0  0  0  0  0  0  0
    7.4985  -11.1123   26.5090 C   0  0  0  0  0  0  0  0  0  0  0  0
    8.2765  -12.2016   26.2216 C   0  0  0  0  0  0  0  0  0  0  0  0
    7.6849  -13.4308   26.0432 C   0  0  0  0  0  0  0  0  0  0  0  0
    9.6825  -17.3413   26.4634 O   0  0  0  0  0  0  0  0  0  0  0  0
    8.7467  -18.3451   26.5874 O   0  0  0  0  0  0  0  0  0  0  0  0
  2  1  1  0
  3  2  1  0
  4  3  2  0
  6  8  1  0
  6  5  1  0
  7  6  2  0
  9  8  1  0
 10  9  1  0
 11 10  1  0
 12 11  1  1
 12 13  1  0
 13  3  1  0
 14 16  1  0
 14 12  1  0
 15 14  2  0
 17 18  1  1
 17 16  1  0
 18 19  1  0
 19 20  2  0
 19 27  1  0
 20 21  1  0
 21 22  1  0
 22 23  2  0
 23 24  1  0
 25 24  2  0
 26 25  1  0
 27 26  2  0
 27 22  1  0
 28 17  1  0
 28 29  1  0
 30 28  2  0
M  END
$$$$
