GRW.pdb
     RDKit          3D

 30 31  0  0  1  0  0  0  0  0999 V2000
    7.9947  -21.6907   23.0042 N   0  0  0  0  0  0  0  0  0  0  0  0
    7.4162  -20.4441   23.4381 C   0  0  0  0  0  0  0  0  0  0  0  0
    8.1083  -19.3081   22.7448 C   0  0  0  0  0  0  0  0  0  0  0  0
    9.2269  -19.4840   22.2540 O   0  0  0  0  0  0  0  0  0  0  0  0
    7.9201  -12.0024   19.5356 N   0  0  0  0  0  0  0  0  0  0  0  0
    8.3834  -12.9066   18.5153 C   0  0  0  0  0  0  0  0  0  0  0  0
    9.3585  -12.5799   17.7477 N   0  0  0  0  0  0  0  0  0  0  0  0
    7.7056  -14.1411   18.4254 N   0  0  0  0  0  0  0  0  0  0  0  0
    6.8199  -14.5850   19.4604 C   0  0  0  0  0  0  0  0  0  0  0  0
    7.5394  -14.7169   20.7682 C   0  0  0  0  0  0  0  0  0  0  0  0
    7.0540  -15.9607   21.4632 C   0  0  0  0  0  0  0  0  0  0  0  0
    8.0666  -16.8903   21.9902 C   0  0  2  0  0  0  0  0  0  0  0  0
    7.4947  -18.0517   22.6516 N   0  0  0  0  0  0  0  0  0  0  0  0
    9.0169  -16.1890   22.9215 C   0  0  0  0  0  0  0  0  0  0  0  0
    9.6961  -15.2016   22.5406 O   0  0  0  0  0  0  0  0  0  0  0  0
    9.6592  -13.2454   17.0092 N   0  0  0  0  0  0  0  0  0  0  0  0
    9.1135  -16.6905   24.2456 C   0  0  1  0  0  0  0  0  0  0  0  0
   10.0746  -16.0948   25.2075 C   0  0  0  0  0  0  0  0  0  0  0  0
    9.3249  -16.0172   26.4901 C   0  0  0  0  0  0  0  0  0  0  0  0
    8.0824  -15.2504   26.3565 C   0  0  0  0  0  0  0  0  0  0  0  0
    6.7902  -15.7682   26.2214 N   0  0  0  0  0  0  0  0  0  0  0  0
    5.9064  -14.7676   26.0903 C   0  0  0  0  0  0  0  0  0  0  0  0
    6.5850  -13.6013   26.1368 C   0  0  0  0  0  0  0  0  0  0  0  0
    6.1543  -12.2790   26.0671 C   0  0  0  0  0  0  0  0  0  0  0  0
    7.0819  -11.2822   26.1655 C   0  0  0  0  0  0  0  0  0  0  0  0
    8.4216  -11.5665   26.3307 C   0  0  0  0  0  0  0  0  0  0  0  0
    8.8494  -12.8652   26.3989 C   0  0  0  0  0  0  0  0  0  0  0  0
    7.9341  -13.8879   26.3016 C   0  0  0  0  0  0  0  0  0  0  0  0
   11.3314  -16.8199   25.2188 O   0  0  0  0  0  0  0  0  0  0  0  0
   12.4618  -16.4180   25.8968 O   0  0  0  0  0  0  0  0  0  0  0  0
  2  1  1  0
  3  2  1  0
  4  3  2  0
  6  8  1  0
  6  5  1  0
  7  6  2  0
  9  8  1  0
 10  9  1  0
 11 10  1  0
 12 11  1  1
 12 13  1  0
 13  3  1  0
 14 16  1  0
 14 12  1  0
 15 14  2  0
 17 18  1  1
 17 16  1  0
 18 19  1  0
 19 20  2  0
 19 27  1  0
 20 21  1  0
 21 22  1  0
 22 23  2  0
 23 24  1  0
 25 24  2  0
 26 25  1  0
 27 26  2  0
 27 22  1  0
 28 17  1  0
 28 29  1  0
 30 28  2  0
M  END
$$$$
