GRW.pdb
     RDKit          3D

 30 31  0  0  1  0  0  0  0  0999 V2000
    4.3384  -19.3095   22.1240 N   0  0  0  0  0  0  0  0  0  0  0  0
    4.5832  -17.8903   22.1744 C   0  0  0  0  0  0  0  0  0  0  0  0
    6.0620  -17.6405   22.1417 C   0  0  0  0  0  0  0  0  0  0  0  0
    6.8320  -18.4737   22.6275 O   0  0  0  0  0  0  0  0  0  0  0  0
    8.1105  -12.6621   16.4262 N   0  0  0  0  0  0  0  0  0  0  0  0
    8.2961  -13.9955   15.9156 C   0  0  0  0  0  0  0  0  0  0  0  0
    8.1342  -14.2445   14.6672 N   0  0  0  0  0  0  0  0  0  0  0  0
    8.6582  -14.9779   16.8619 N   0  0  0  0  0  0  0  0  0  0  0  0
    8.8935  -14.6428   18.2349 C   0  0  0  0  0  0  0  0  0  0  0  0
    7.9326  -15.3548   19.1377 C   0  0  0  0  0  0  0  0  0  0  0  0
    8.3039  -15.0608   20.5665 C   0  0  0  0  0  0  0  0  0  0  0  0
    7.9714  -16.0726   21.5828 C   0  0  2  0  0  0  0  0  0  0  0  0
    6.5733  -16.4701   21.5650 N   0  0  0  0  0  0  0  0  0  0  0  0
    8.3518  -15.6051   22.9609 C   0  0  0  0  0  0  0  0  0  0  0  0
    7.9470  -14.5035   23.4123 O   0  0  0  0  0  0  0  0  0  0  0  0
    8.4272  -15.1705   14.2992 N   0  0  0  0  0  0  0  0  0  0  0  0
    9.1867  -16.4600   23.7266 C   0  0  1  0  0  0  0  0  0  0  0  0
    9.8654  -15.9539   24.9460 C   0  0  0  0  0  0  0  0  0  0  0  0
    8.9799  -16.3655   26.0683 C   0  0  0  0  0  0  0  0  0  0  0  0
    7.7789  -15.5292   26.1577 C   0  0  0  0  0  0  0  0  0  0  0  0
    6.4807  -15.8866   25.7791 N   0  0  0  0  0  0  0  0  0  0  0  0
    5.6458  -14.8548   25.9735 C   0  0  0  0  0  0  0  0  0  0  0  0
    6.3624  -13.8251   26.4725 C   0  0  0  0  0  0  0  0  0  0  0  0
    5.9869  -12.5424   26.8633 C   0  0  0  0  0  0  0  0  0  0  0  0
    6.9418  -11.7040   27.3620 C   0  0  0  0  0  0  0  0  0  0  0  0
    8.2555  -12.1076   27.4814 C   0  0  0  0  0  0  0  0  0  0  0  0
    8.6291  -13.3676   27.0976 C   0  0  0  0  0  0  0  0  0  0  0  0
    7.6854  -14.2313   26.5911 C   0  0  0  0  0  0  0  0  0  0  0  0
   11.2488  -16.3881   25.0015 O   0  0  0  0  0  0  0  0  0  0  0  0
   12.1504  -16.0097   25.9725 O   0  0  0  0  0  0  0  0  0  0  0  0
  2  1  1  0
  3  2  1  0
  4  3  2  0
  6  8  1  0
  6  5  1  0
  7  6  2  0
  9  8  1  0
 10  9  1  0
 11 10  1  0
 12 11  1  6
 12 13  1  0
 13  3  1  0
 14 16  1  0
 14 12  1  0
 15 14  2  0
 17 18  1  1
 17 16  1  0
 18 19  1  0
 19 20  2  0
 19 27  1  0
 20 21  1  0
 21 22  1  0
 22 23  2  0
 23 24  1  0
 25 24  2  0
 26 25  1  0
 27 26  2  0
 27 22  1  0
 28 17  1  0
 28 29  1  0
 30 28  2  0
M  END
$$$$
