GRW.pdb
     RDKit          3D

 30 31  0  0  1  0  0  0  0  0999 V2000
    7.0182  -21.4204   24.0406 N   0  0  0  0  0  0  0  0  0  0  0  0
    6.6030  -20.0535   24.2302 C   0  0  0  0  0  0  0  0  0  0  0  0
    7.5304  -19.1446   23.4793 C   0  0  0  0  0  0  0  0  0  0  0  0
    8.6046  -19.5824   23.0580 O   0  0  0  0  0  0  0  0  0  0  0  0
    8.5153  -11.8621   19.4477 N   0  0  0  0  0  0  0  0  0  0  0  0
    8.1713  -12.8910   18.5011 C   0  0  0  0  0  0  0  0  0  0  0  0
    8.7795  -12.9704   17.3739 N   0  0  0  0  0  0  0  0  0  0  0  0
    7.1466  -13.7783   18.8936 N   0  0  0  0  0  0  0  0  0  0  0  0
    6.8063  -13.9646   20.2729 C   0  0  0  0  0  0  0  0  0  0  0  0
    7.8361  -14.7951   20.9765 C   0  0  0  0  0  0  0  0  0  0  0  0
    7.1327  -15.8336   21.8087 C   0  0  0  0  0  0  0  0  0  0  0  0
    7.9577  -16.8677   22.4546 C   0  0  2  0  0  0  0  0  0  0  0  0
    7.1860  -17.8050   23.2541 N   0  0  0  0  0  0  0  0  0  0  0  0
    9.0424  -16.2520   23.2953 C   0  0  0  0  0  0  0  0  0  0  0  0
    9.9747  -15.5876   22.7751 O   0  0  0  0  0  0  0  0  0  0  0  0
    8.5472  -13.7545   16.7337 N   0  0  0  0  0  0  0  0  0  0  0  0
    8.9675  -16.4546   24.6979 C   0  0  1  0  0  0  0  0  0  0  0  0
   10.1240  -16.1254   25.5684 C   0  0  0  0  0  0  0  0  0  0  0  0
    9.5429  -15.3270   26.6811 C   0  0  0  0  0  0  0  0  0  0  0  0
    8.1950  -14.8432   26.3666 C   0  0  0  0  0  0  0  0  0  0  0  0
    7.0461  -15.6218   26.1930 N   0  0  0  0  0  0  0  0  0  0  0  0
    6.0033  -14.8375   25.8819 C   0  0  0  0  0  0  0  0  0  0  0  0
    6.4368  -13.5593   25.8471 C   0  0  0  0  0  0  0  0  0  0  0  0
    5.7683  -12.3641   25.5947 C   0  0  0  0  0  0  0  0  0  0  0  0
    6.4725  -11.1959   25.6496 C   0  0  0  0  0  0  0  0  0  0  0  0
    7.8194  -11.1867   25.9479 C   0  0  0  0  0  0  0  0  0  0  0  0
    8.4805  -12.3596   26.1958 C   0  0  0  0  0  0  0  0  0  0  0  0
    7.7932  -13.5504   26.1460 C   0  0  0  0  0  0  0  0  0  0  0  0
   10.8722  -17.3153   25.9286 O   0  0  0  0  0  0  0  0  0  0  0  0
   10.5495  -18.5943   25.5301 O   0  0  0  0  0  0  0  0  0  0  0  0
  2  1  1  0
  3  2  1  0
  4  3  2  0
  6  8  1  0
  6  5  1  0
  7  6  2  0
  9  8  1  0
 10  9  1  0
 11 10  1  0
 12 11  1  1
 12 13  1  0
 13  3  1  0
 14 16  1  0
 14 12  1  0
 15 14  2  0
 17 18  1  1
 17 16  1  0
 18 19  1  0
 19 20  2  0
 19 27  1  0
 20 21  1  0
 21 22  1  0
 22 23  2  0
 23 24  1  0
 25 24  2  0
 26 25  1  0
 27 26  2  0
 27 22  1  0
 28 17  1  0
 28 29  1  0
 30 28  2  0
M  END
$$$$
