YES.pdb
     RDKit          3D

 28 28  0  0  1  0  0  0  0  0999 V2000
   30.4433  -21.2047   -9.3914 O   0  0  0  0  0  0  0  0  0  0  0  0
   29.3251  -20.9690  -10.1917 C   0  0  0  0  0  0  0  0  0  0  0  0
   29.4943  -20.7171  -11.5382 C   0  0  0  0  0  0  0  0  0  0  0  0
   28.3859  -20.4842  -12.3273 C   0  0  0  0  0  0  0  0  0  0  0  0
   27.1364  -20.5082  -11.7544 C   0  0  0  0  0  0  0  0  0  0  0  0
   25.9436  -20.2612  -12.5834 C   0  0  0  0  0  0  0  0  0  0  0  0
   25.0973  -21.4948  -12.7656 C   0  0  2  0  0  0  0  0  0  0  0  0
   25.8362  -22.5615  -13.4172 N   0  0  0  0  0  0  0  0  0  0  0  0
   23.9047  -21.1028  -13.5756 C   0  0  0  0  0  0  0  0  0  0  0  0
   23.8834  -21.2643  -14.8214 O   0  0  0  0  0  0  0  0  0  0  0  0
   26.9916  -20.7607  -10.4130 C   0  0  0  0  0  0  0  0  0  0  0  0
   28.0811  -20.9944   -9.6133 C   0  0  0  0  0  0  0  0  0  0  0  0
   22.7880  -20.5431  -12.9254 N   0  0  0  0  0  0  0  0  0  0  0  0
   21.4965  -20.3744  -13.5539 C   0  0  1  0  0  0  0  0  0  0  0  0
   20.4210  -20.1643  -12.5291 C   0  0  0  0  0  0  0  0  0  0  0  0
   19.7838  -21.4546  -12.1222 C   0  0  0  0  0  0  0  0  0  0  0  0
   18.8586  -21.8988  -13.1804 C   0  0  0  0  0  0  0  0  0  0  0  0
   17.6636  -21.5630  -13.1381 O   0  0  0  0  0  0  0  0  0  0  0  0
   21.5231  -19.1793  -14.4762 C   0  0  0  0  0  0  0  0  0  0  0  0
   21.7770  -18.0408  -14.0135 O   0  0  0  0  0  0  0  0  0  0  0  0
   19.2846  -22.6909  -14.2370 O   0  0  0  0  0  0  0  0  0  0  0  0
   23.0624  -19.1959  -18.0979 O   0  0  0  0  0  0  0  0  0  0  0  0
   21.8048  -18.6379  -18.1412 C   0  0  0  0  0  0  0  0  0  0  0  0
   21.2917  -18.3050  -16.7810 C   0  0  2  0  0  0  0  0  0  0  0  0
   21.2555  -19.3909  -15.8543 N   0  0  0  0  0  0  0  0  0  0  0  0
   19.9997  -17.5730  -16.8742 C   0  0  0  0  0  0  0  0  0  0  0  0
   19.8653  -16.3770  -17.1420 O   0  0  0  0  0  0  0  0  0  0  0  0
   18.8264  -18.3046  -16.6369 O   0  0  0  0  0  0  0  0  0  0  0  0
  2  1  1  0
  2 12  2  0
  3  2  1  0
  4  3  2  0
  4  5  1  0
  5 11  2  0
  6  5  1  0
  7  8  1  6
  7  6  1  0
  9  7  1  0
 10  9  2  0
 11 12  1  0
 13  9  1  0
 14 13  1  0
 14 15  1  1
 15 16  1  0
 16 17  1  0
 17 21  1  0
 17 18  2  0
 19 14  1  0
 20 19  2  0
 22 23  1  0
 24 23  1  6
 24 26  1  0
 24 25  1  0
 25 19  1  0
 26 28  1  0
 27 26  2  0
M  END
$$$$
