YES.pdb
     RDKit          3D

 28 28  0  0  1  0  0  0  0  0999 V2000
   42.9030  -15.7836  -10.9938 O   0  0  0  0  0  0  0  0  0  0  0  0
   42.6984  -14.7163  -10.1189 C   0  0  0  0  0  0  0  0  0  0  0  0
   42.6380  -13.4308  -10.6179 C   0  0  0  0  0  0  0  0  0  0  0  0
   42.4356  -12.3769   -9.7497 C   0  0  0  0  0  0  0  0  0  0  0  0
   42.2982  -12.6309   -8.4054 C   0  0  0  0  0  0  0  0  0  0  0  0
   42.0818  -11.5167   -7.4659 C   0  0  0  0  0  0  0  0  0  0  0  0
   43.2012  -11.3731   -6.4673 C   0  0  2  0  0  0  0  0  0  0  0  0
   42.8783  -10.4051   -5.4342 N   0  0  0  0  0  0  0  0  0  0  0  0
   44.4224  -10.9582   -7.2213 C   0  0  0  0  0  0  0  0  0  0  0  0
   44.5960   -9.7639   -7.5707 O   0  0  0  0  0  0  0  0  0  0  0  0
   42.3617  -13.9174   -7.9313 C   0  0  0  0  0  0  0  0  0  0  0  0
   42.5622  -14.9770   -8.7787 C   0  0  0  0  0  0  0  0  0  0  0  0
   45.3919  -11.9274   -7.5430 N   0  0  0  0  0  0  0  0  0  0  0  0
   46.6096  -11.6332   -8.2657 C   0  0  1  0  0  0  0  0  0  0  0  0
   47.6446  -12.6944   -8.0335 C   0  0  0  0  0  0  0  0  0  0  0  0
   48.2586  -12.5816   -6.6746 C   0  0  0  0  0  0  0  0  0  0  0  0
   49.4331  -13.4688   -6.5929 C   0  0  0  0  0  0  0  0  0  0  0  0
   49.3090  -14.6191   -6.1413 O   0  0  0  0  0  0  0  0  0  0  0  0
   46.3251  -11.5535   -9.7463 C   0  0  0  0  0  0  0  0  0  0  0  0
   45.8336  -12.5434  -10.3404 O   0  0  0  0  0  0  0  0  0  0  0  0
   50.6904  -13.0554   -7.0096 O   0  0  0  0  0  0  0  0  0  0  0  0
   45.9277   -8.6831  -13.6161 O   0  0  0  0  0  0  0  0  0  0  0  0
   46.3624   -8.7770  -12.3133 C   0  0  0  0  0  0  0  0  0  0  0  0
   46.3123  -10.1781  -11.8049 C   0  0  2  0  0  0  0  0  0  0  0  0
   46.6290  -10.3426  -10.4222 N   0  0  0  0  0  0  0  0  0  0  0  0
   47.0876  -11.0849  -12.6940 C   0  0  0  0  0  0  0  0  0  0  0  0
   48.2840  -11.3592  -12.5791 O   0  0  0  0  0  0  0  0  0  0  0  0
   46.4000  -11.6840  -13.7602 O   0  0  0  0  0  0  0  0  0  0  0  0
  2  1  1  0
  2 12  2  0
  3  2  1  0
  4  3  2  0
  4  5  1  0
  5 11  2  0
  6  5  1  0
  7  8  1  1
  7  6  1  0
  9  7  1  0
 10  9  2  0
 11 12  1  0
 13  9  1  0
 14 13  1  0
 14 15  1  6
 15 16  1  0
 16 17  1  0
 17 21  1  0
 17 18  2  0
 19 14  1  0
 20 19  2  0
 22 23  1  0
 24 23  1  6
 24 26  1  0
 24 25  1  0
 25 19  1  0
 26 28  1  0
 27 26  2  0
M  END
$$$$
