YES.pdb
     RDKit          3D

 28 28  0  0  1  0  0  0  0  0999 V2000
   25.7206  -31.4602   -9.3951 O   0  0  0  0  0  0  0  0  0  0  0  0
   25.8786  -32.2191   -8.2352 C   0  0  0  0  0  0  0  0  0  0  0  0
   27.0612  -32.8986   -8.0237 C   0  0  0  0  0  0  0  0  0  0  0  0
   27.2145  -33.6487   -6.8751 C   0  0  0  0  0  0  0  0  0  0  0  0
   26.1847  -33.7026   -5.9657 C   0  0  0  0  0  0  0  0  0  0  0  0
   26.3328  -34.4990   -4.7350 C   0  0  0  0  0  0  0  0  0  0  0  0
   26.7245  -35.9278   -5.0112 C   0  0  2  0  0  0  0  0  0  0  0  0
   25.7485  -36.5994   -5.8508 N   0  0  0  0  0  0  0  0  0  0  0  0
   26.8558  -36.6180   -3.6927 C   0  0  0  0  0  0  0  0  0  0  0  0
   25.8728  -37.1882   -3.1567 O   0  0  0  0  0  0  0  0  0  0  0  0
   25.0172  -33.0188   -6.1966 C   0  0  0  0  0  0  0  0  0  0  0  0
   24.8469  -32.2685   -7.3320 C   0  0  0  0  0  0  0  0  0  0  0  0
   28.1058  -36.6262   -3.0445 N   0  0  0  0  0  0  0  0  0  0  0  0
   28.3516  -37.2965   -1.7868 C   0  0  1  0  0  0  0  0  0  0  0  0
   29.8229  -37.4366   -1.5285 C   0  0  0  0  0  0  0  0  0  0  0  0
   30.4363  -38.5007   -2.3816 C   0  0  0  0  0  0  0  0  0  0  0  0
   31.8765  -38.5985   -2.0823 C   0  0  0  0  0  0  0  0  0  0  0  0
   32.7090  -38.4380   -2.9899 O   0  0  0  0  0  0  0  0  0  0  0  0
   27.7363  -36.5107   -0.6538 C   0  0  0  0  0  0  0  0  0  0  0  0
   27.5232  -35.2817   -0.7917 O   0  0  0  0  0  0  0  0  0  0  0  0
   32.3393  -38.8678   -0.8022 O   0  0  0  0  0  0  0  0  0  0  0  0
   25.6055  -36.5825    3.6717 O   0  0  0  0  0  0  0  0  0  0  0  0
   26.1870  -37.3415    2.6814 C   0  0  0  0  0  0  0  0  0  0  0  0
   26.9004  -36.5014    1.6766 C   0  0  2  0  0  0  0  0  0  0  0  0
   27.4167  -37.2018    0.5443 N   0  0  0  0  0  0  0  0  0  0  0  0
   27.9133  -35.6380    2.3415 C   0  0  0  0  0  0  0  0  0  0  0  0
   29.1361  -35.7311    2.2150 O   0  0  0  0  0  0  0  0  0  0  0  0
   27.4395  -34.6257    3.1896 O   0  0  0  0  0  0  0  0  0  0  0  0
  2  1  1  0
  2 12  2  0
  3  2  1  0
  4  3  2  0
  4  5  1  0
  5 11  2  0
  6  5  1  0
  7  8  1  6
  7  6  1  0
  9  7  1  0
 10  9  2  0
 11 12  1  0
 13  9  1  0
 14 13  1  0
 14 15  1  1
 15 16  1  0
 16 17  1  0
 17 21  1  0
 17 18  2  0
 19 14  1  0
 20 19  2  0
 22 23  1  0
 24 23  1  1
 24 26  1  0
 24 25  1  0
 25 19  1  0
 26 28  1  0
 27 26  2  0
M  END
$$$$
