YES.pdb
     RDKit          3D

 28 28  0  0  1  0  0  0  0  0999 V2000
   19.8211  -15.7580  -18.8785 O   0  0  0  0  0  0  0  0  0  0  0  0
   20.3097  -14.5621  -18.3518 C   0  0  0  0  0  0  0  0  0  0  0  0
   20.8943  -13.6375  -19.1936 C   0  0  0  0  0  0  0  0  0  0  0  0
   21.3768  -12.4553  -18.6694 C   0  0  0  0  0  0  0  0  0  0  0  0
   21.2645  -12.2240  -17.3188 C   0  0  0  0  0  0  0  0  0  0  0  0
   21.7748  -10.9670  -16.7441 C   0  0  0  0  0  0  0  0  0  0  0  0
   23.2496  -10.7740  -16.9865 C   0  0  2  0  0  0  0  0  0  0  0  0
   24.0351  -11.8443  -16.3983 N   0  0  0  0  0  0  0  0  0  0  0  0
   23.6295   -9.4528  -16.4016 C   0  0  0  0  0  0  0  0  0  0  0  0
   23.9685   -9.3488  -15.1963 O   0  0  0  0  0  0  0  0  0  0  0  0
   20.6794  -13.1576  -16.5002 C   0  0  0  0  0  0  0  0  0  0  0  0
   20.1943  -14.3378  -17.0031 C   0  0  0  0  0  0  0  0  0  0  0  0
   23.6052   -8.3078  -17.2209 N   0  0  0  0  0  0  0  0  0  0  0  0
   23.9652   -6.9851  -16.7598 C   0  0  1  0  0  0  0  0  0  0  0  0
   24.7512   -6.2456  -17.8021 C   0  0  0  0  0  0  0  0  0  0  0  0
   26.1337   -6.7967  -17.9480 C   0  0  0  0  0  0  0  0  0  0  0  0
   26.8716   -6.0082  -18.9515 C   0  0  0  0  0  0  0  0  0  0  0  0
   27.3753   -4.9184  -18.6333 O   0  0  0  0  0  0  0  0  0  0  0  0
   22.7202   -6.1921  -16.4426 C   0  0  0  0  0  0  0  0  0  0  0  0
   21.7023   -6.3146  -17.1663 O   0  0  0  0  0  0  0  0  0  0  0  0
   27.0242   -6.4494  -20.2582 O   0  0  0  0  0  0  0  0  0  0  0  0
   21.8975   -5.2137  -12.6586 O   0  0  0  0  0  0  0  0  0  0  0  0
   21.5239   -4.1895  -13.4991 C   0  0  0  0  0  0  0  0  0  0  0  0
   21.5838   -4.5913  -14.9341 C   0  0  2  0  0  0  0  0  0  0  0  0
   22.7474   -5.3236  -15.3199 N   0  0  0  0  0  0  0  0  0  0  0  0
   21.3083   -3.4247  -15.8156 C   0  0  0  0  0  0  0  0  0  0  0  0
   22.0341   -3.0213  -16.7269 O   0  0  0  0  0  0  0  0  0  0  0  0
   20.1174   -2.7170  -15.5938 O   0  0  0  0  0  0  0  0  0  0  0  0
  2  1  1  0
  2 12  2  0
  3  2  1  0
  4  3  2  0
  4  5  1  0
  5 11  2  0
  6  5  1  0
  7  8  1  1
  7  6  1  0
  9  7  1  0
 10  9  2  0
 11 12  1  0
 13  9  1  0
 14 13  1  0
 14 15  1  6
 15 16  1  0
 16 17  1  0
 17 21  1  0
 17 18  2  0
 19 14  1  0
 20 19  2  0
 22 23  1  0
 24 23  1  1
 24 26  1  0
 24 25  1  0
 25 19  1  0
 26 28  1  0
 27 26  2  0
M  END
$$$$
