YES.pdb
     RDKit          3D

 28 28  0  0  1  0  0  0  0  0999 V2000
   11.7977   -5.0799   -5.5131 O   0  0  0  0  0  0  0  0  0  0  0  0
   12.7082   -5.6772   -6.3852 C   0  0  0  0  0  0  0  0  0  0  0  0
   13.7759   -4.9428   -6.8604 C   0  0  0  0  0  0  0  0  0  0  0  0
   14.6750   -5.5366   -7.7232 C   0  0  0  0  0  0  0  0  0  0  0  0
   14.4873   -6.8480   -8.0908 C   0  0  0  0  0  0  0  0  0  0  0  0
   15.4381   -7.4960   -9.0112 C   0  0  0  0  0  0  0  0  0  0  0  0
   14.8194   -7.8324  -10.3435 C   0  0  2  0  0  0  0  0  0  0  0  0
   14.1599   -9.1258  -10.3181 N   0  0  0  0  0  0  0  0  0  0  0  0
   15.9127   -7.8133  -11.3615 C   0  0  0  0  0  0  0  0  0  0  0  0
   16.5055   -8.8685  -11.6986 O   0  0  0  0  0  0  0  0  0  0  0  0
   13.4182   -7.5595   -7.6060 C   0  0  0  0  0  0  0  0  0  0  0  0
   12.5148   -6.9863   -6.7479 C   0  0  0  0  0  0  0  0  0  0  0  0
   16.2806   -6.5879  -11.9497 N   0  0  0  0  0  0  0  0  0  0  0  0
   17.1606   -6.4800  -13.0923 C   0  0  1  0  0  0  0  0  0  0  0  0
   16.6546   -5.4593  -14.0687 C   0  0  0  0  0  0  0  0  0  0  0  0
   17.4603   -5.4506  -15.3285 C   0  0  0  0  0  0  0  0  0  0  0  0
   16.8766   -4.4840  -16.2762 C   0  0  0  0  0  0  0  0  0  0  0  0
   15.9144   -3.7803  -15.9278 O   0  0  0  0  0  0  0  0  0  0  0  0
   18.5432   -6.0727  -12.6427 C   0  0  0  0  0  0  0  0  0  0  0  0
   18.6766   -5.2782  -11.6806 O   0  0  0  0  0  0  0  0  0  0  0  0
   17.3735   -4.3325  -17.5629 O   0  0  0  0  0  0  0  0  0  0  0  0
   21.6211   -8.6055  -12.9258 O   0  0  0  0  0  0  0  0  0  0  0  0
   22.0194   -7.3336  -13.2700 C   0  0  0  0  0  0  0  0  0  0  0  0
   20.9917   -6.3105  -12.9221 C   0  0  2  0  0  0  0  0  0  0  0  0
   19.6586   -6.6120  -13.3359 N   0  0  0  0  0  0  0  0  0  0  0  0
   21.4409   -4.9550  -13.3399 C   0  0  0  0  0  0  0  0  0  0  0  0
   20.8566   -4.2132  -14.1326 O   0  0  0  0  0  0  0  0  0  0  0  0
   22.6361   -4.4732  -12.7850 O   0  0  0  0  0  0  0  0  0  0  0  0
  2  1  1  0
  2 12  2  0
  3  2  1  0
  4  3  2  0
  4  5  1  0
  5 11  2  0
  6  5  1  0
  7  8  1  1
  7  6  1  0
  9  7  1  0
 10  9  2  0
 11 12  1  0
 13  9  1  0
 14 13  1  0
 14 15  1  6
 15 16  1  0
 16 17  1  0
 17 21  1  0
 17 18  2  0
 19 14  1  0
 20 19  2  0
 22 23  1  0
 24 23  1  6
 24 26  1  0
 24 25  1  0
 25 19  1  0
 26 28  1  0
 27 26  2  0
M  END
$$$$
