YES.pdb
     RDKit          3D

 28 28  0  0  1  0  0  0  0  0999 V2000
   30.4434  -35.1740  -16.7203 O   0  0  0  0  0  0  0  0  0  0  0  0
   29.5482  -34.1069  -16.6418 C   0  0  0  0  0  0  0  0  0  0  0  0
   29.7553  -33.1137  -15.7059 C   0  0  0  0  0  0  0  0  0  0  0  0
   28.8677  -32.0593  -15.6307 C   0  0  0  0  0  0  0  0  0  0  0  0
   27.7956  -32.0210  -16.4905 C   0  0  0  0  0  0  0  0  0  0  0  0
   26.8392  -30.9023  -16.4226 C   0  0  0  0  0  0  0  0  0  0  0  0
   27.1017  -29.8493  -17.4682 C   0  0  2  0  0  0  0  0  0  0  0  0
   28.2723  -29.0526  -17.1460 N   0  0  0  0  0  0  0  0  0  0  0  0
   25.8820  -28.9909  -17.5540 C   0  0  0  0  0  0  0  0  0  0  0  0
   25.8263  -27.8801  -16.9695 O   0  0  0  0  0  0  0  0  0  0  0  0
   27.6092  -33.0197  -17.4136 C   0  0  0  0  0  0  0  0  0  0  0  0
   28.4805  -34.0751  -17.5030 C   0  0  0  0  0  0  0  0  0  0  0  0
   24.7787  -29.4403  -18.3049 N   0  0  0  0  0  0  0  0  0  0  0  0
   23.5841  -28.6547  -18.5222 C   0  0  1  0  0  0  0  0  0  0  0  0
   23.1021  -28.7857  -19.9370 C   0  0  0  0  0  0  0  0  0  0  0  0
   21.9459  -27.8787  -20.2146 C   0  0  0  0  0  0  0  0  0  0  0  0
   22.4484  -26.5737  -20.6811 C   0  0  0  0  0  0  0  0  0  0  0  0
   22.0853  -25.5316  -20.1113 O   0  0  0  0  0  0  0  0  0  0  0  0
   22.4862  -29.1166  -17.5945 C   0  0  0  0  0  0  0  0  0  0  0  0
   22.3196  -30.3431  -17.3885 O   0  0  0  0  0  0  0  0  0  0  0  0
   23.3260  -26.4696  -21.7508 O   0  0  0  0  0  0  0  0  0  0  0  0
   20.5536  -26.6737  -14.5788 O   0  0  0  0  0  0  0  0  0  0  0  0
   19.8300  -27.3755  -15.5162 C   0  0  0  0  0  0  0  0  0  0  0  0
   20.6114  -28.5049  -16.0975 C   0  0  2  0  0  0  0  0  0  0  0  0
   21.6702  -28.1308  -16.9797 N   0  0  0  0  0  0  0  0  0  0  0  0
   19.6997  -29.5269  -16.6790 C   0  0  0  0  0  0  0  0  0  0  0  0
   19.2980  -30.5437  -16.1092 O   0  0  0  0  0  0  0  0  0  0  0  0
   19.2545  -29.3194  -17.9932 O   0  0  0  0  0  0  0  0  0  0  0  0
  2  1  1  0
  2 12  2  0
  3  2  1  0
  4  3  2  0
  4  5  1  0
  5 11  2  0
  6  5  1  0
  7  8  1  1
  7  6  1  0
  9  7  1  0
 10  9  2  0
 11 12  1  0
 13  9  1  0
 14 13  1  0
 14 15  1  6
 15 16  1  0
 16 17  1  0
 17 21  1  0
 17 18  2  0
 19 14  1  0
 20 19  2  0
 22 23  1  0
 24 23  1  6
 24 26  1  0
 24 25  1  0
 25 19  1  0
 26 28  1  0
 27 26  2  0
M  END
$$$$
