YES.pdb
     RDKit          3D

 28 28  0  0  1  0  0  0  0  0999 V2000
   17.6856  -16.5603  -15.5341 O   0  0  0  0  0  0  0  0  0  0  0  0
   18.1148  -15.2623  -15.8124 C   0  0  0  0  0  0  0  0  0  0  0  0
   19.1897  -15.0684  -16.6563 C   0  0  0  0  0  0  0  0  0  0  0  0
   19.6120  -13.7830  -16.9295 C   0  0  0  0  0  0  0  0  0  0  0  0
   18.9522  -12.7227  -16.3546 C   0  0  0  0  0  0  0  0  0  0  0  0
   19.3911  -11.3446  -16.6362 C   0  0  0  0  0  0  0  0  0  0  0  0
   18.4934  -10.6385  -17.6193 C   0  0  2  0  0  0  0  0  0  0  0  0
   18.4083  -11.3550  -18.8795 N   0  0  0  0  0  0  0  0  0  0  0  0
   19.0474   -9.2663  -17.8246 C   0  0  0  0  0  0  0  0  0  0  0  0
   19.7065   -8.9788  -18.8549 O   0  0  0  0  0  0  0  0  0  0  0  0
   17.8855  -12.9389  -15.5182 C   0  0  0  0  0  0  0  0  0  0  0  0
   17.4517  -14.2089  -15.2352 C   0  0  0  0  0  0  0  0  0  0  0  0
   18.8235   -8.2824  -16.8424 N   0  0  0  0  0  0  0  0  0  0  0  0
   19.2186   -6.8990  -16.9897 C   0  0  1  0  0  0  0  0  0  0  0  0
   18.0830   -6.0655  -17.5062 C   0  0  0  0  0  0  0  0  0  0  0  0
   18.5120   -4.6621  -17.7939 C   0  0  0  0  0  0  0  0  0  0  0  0
   17.3636   -3.8953  -18.3101 C   0  0  0  0  0  0  0  0  0  0  0  0
   17.1853   -3.7981  -19.5354 O   0  0  0  0  0  0  0  0  0  0  0  0
   19.6573   -6.3424  -15.6565 C   0  0  0  0  0  0  0  0  0  0  0  0
   18.8993   -6.4392  -14.6612 O   0  0  0  0  0  0  0  0  0  0  0  0
   16.4626   -3.2695  -17.4604 O   0  0  0  0  0  0  0  0  0  0  0  0
   23.7634   -5.3296  -14.8483 O   0  0  0  0  0  0  0  0  0  0  0  0
   22.8004   -5.7599  -13.9638 C   0  0  0  0  0  0  0  0  0  0  0  0
   21.4427   -5.2601  -14.3258 C   0  0  2  0  0  0  0  0  0  0  0  0
   20.9310   -5.7204  -15.5770 N   0  0  0  0  0  0  0  0  0  0  0  0
   21.3721   -3.7817  -14.1738 C   0  0  0  0  0  0  0  0  0  0  0  0
   21.1275   -2.9743  -15.0729 O   0  0  0  0  0  0  0  0  0  0  0  0
   21.6040   -3.2541  -12.8946 O   0  0  0  0  0  0  0  0  0  0  0  0
  2  1  1  0
  2 12  2  0
  3  2  1  0
  4  3  2  0
  4  5  1  0
  5 11  2  0
  6  5  1  0
  7  8  1  6
  7  6  1  0
  9  7  1  0
 10  9  2  0
 11 12  1  0
 13  9  1  0
 14 13  1  0
 14 15  1  1
 15 16  1  0
 16 17  1  0
 17 21  1  0
 17 18  2  0
 19 14  1  0
 20 19  2  0
 22 23  1  0
 24 23  1  6
 24 26  1  0
 24 25  1  0
 25 19  1  0
 26 28  1  0
 27 26  2  0
M  END
$$$$
