YES.pdb
     RDKit          3D

 28 28  0  0  1  0  0  0  0  0999 V2000
   28.0780  -19.8733   -3.6716 O   0  0  0  0  0  0  0  0  0  0  0  0
   27.8071  -19.7826   -5.0372 C   0  0  0  0  0  0  0  0  0  0  0  0
   28.6355  -19.0307   -5.8457 C   0  0  0  0  0  0  0  0  0  0  0  0
   28.3647  -18.9428   -7.1964 C   0  0  0  0  0  0  0  0  0  0  0  0
   27.2747  -19.6068   -7.7075 C   0  0  0  0  0  0  0  0  0  0  0  0
   26.9722  -19.5227   -9.1471 C   0  0  0  0  0  0  0  0  0  0  0  0
   26.7564  -20.8753   -9.7754 C   0  0  2  0  0  0  0  0  0  0  0  0
   27.9952  -21.6269   -9.8706 N   0  0  0  0  0  0  0  0  0  0  0  0
   26.1662  -20.6502  -11.1292 C   0  0  0  0  0  0  0  0  0  0  0  0
   26.7732  -19.9769  -11.9992 O   0  0  0  0  0  0  0  0  0  0  0  0
   26.4643  -20.3489   -6.8848 C   0  0  0  0  0  0  0  0  0  0  0  0
   26.7177  -20.4477   -5.5405 C   0  0  0  0  0  0  0  0  0  0  0  0
   24.9071  -21.2049  -11.4292 N   0  0  0  0  0  0  0  0  0  0  0  0
   24.2714  -21.0954  -12.7236 C   0  0  1  0  0  0  0  0  0  0  0  0
   23.9980  -22.4505  -13.3068 C   0  0  0  0  0  0  0  0  0  0  0  0
   25.2467  -23.0967  -13.8162 C   0  0  0  0  0  0  0  0  0  0  0  0
   24.9139  -24.4039  -14.4110 C   0  0  0  0  0  0  0  0  0  0  0  0
   24.9765  -25.4326  -13.7179 O   0  0  0  0  0  0  0  0  0  0  0  0
   22.9629  -20.3533  -12.5953 C   0  0  0  0  0  0  0  0  0  0  0  0
   22.3339  -20.3825  -11.5098 O   0  0  0  0  0  0  0  0  0  0  0  0
   24.5278  -24.5247  -15.7383 O   0  0  0  0  0  0  0  0  0  0  0  0
   21.3342  -18.3652  -15.9831 O   0  0  0  0  0  0  0  0  0  0  0  0
   21.0425  -17.8991  -14.7211 C   0  0  0  0  0  0  0  0  0  0  0  0
   21.2366  -18.9466  -13.6775 C   0  0  2  0  0  0  0  0  0  0  0  0
   22.4848  -19.6386  -13.7250 N   0  0  0  0  0  0  0  0  0  0  0  0
   20.0633  -19.8602  -13.6290 C   0  0  0  0  0  0  0  0  0  0  0  0
   18.9051  -19.5343  -13.3598 O   0  0  0  0  0  0  0  0  0  0  0  0
   20.2899  -21.2151  -13.9144 O   0  0  0  0  0  0  0  0  0  0  0  0
  2  1  1  0
  2 12  2  0
  3  2  1  0
  4  3  2  0
  4  5  1  0
  5 11  2  0
  6  5  1  0
  7  8  1  6
  7  6  1  0
  9  7  1  0
 10  9  2  0
 11 12  1  0
 13  9  1  0
 14 13  1  0
 14 15  1  1
 15 16  1  0
 16 17  1  0
 17 21  1  0
 17 18  2  0
 19 14  1  0
 20 19  2  0
 22 23  1  0
 24 23  1  6
 24 26  1  0
 24 25  1  0
 25 19  1  0
 26 28  1  0
 27 26  2  0
M  END
$$$$
