YES.pdb
     RDKit          3D

 28 28  0  0  1  0  0  0  0  0999 V2000
   19.6978  -15.4300  -20.4614 O   0  0  0  0  0  0  0  0  0  0  0  0
   20.6797  -16.2485  -19.9027 C   0  0  0  0  0  0  0  0  0  0  0  0
   21.8546  -16.4683  -20.5930 C   0  0  0  0  0  0  0  0  0  0  0  0
   22.8242  -17.2787  -20.0376 C   0  0  0  0  0  0  0  0  0  0  0  0
   22.5985  -17.8499  -18.8076 C   0  0  0  0  0  0  0  0  0  0  0  0
   23.6236  -18.7174  -18.2015 C   0  0  0  0  0  0  0  0  0  0  0  0
   24.5120  -17.9786  -17.2341 C   0  0  2  0  0  0  0  0  0  0  0  0
   25.2897  -16.9481  -17.8988 N   0  0  0  0  0  0  0  0  0  0  0  0
   25.4065  -18.9866  -16.5894 C   0  0  0  0  0  0  0  0  0  0  0  0
   26.6118  -19.0962  -16.9268 O   0  0  0  0  0  0  0  0  0  0  0  0
   21.4225  -17.6175  -18.1387 C   0  0  0  0  0  0  0  0  0  0  0  0
   20.4478  -16.8153  -18.6748 C   0  0  0  0  0  0  0  0  0  0  0  0
   24.8835  -19.8257  -15.5867 N   0  0  0  0  0  0  0  0  0  0  0  0
   25.6768  -20.7855  -14.8511 C   0  0  1  0  0  0  0  0  0  0  0  0
   25.0518  -21.0974  -13.5232 C   0  0  0  0  0  0  0  0  0  0  0  0
   23.5890  -21.3801  -13.6521 C   0  0  0  0  0  0  0  0  0  0  0  0
   23.0509  -21.7835  -12.3402 C   0  0  0  0  0  0  0  0  0  0  0  0
   23.7803  -21.7491  -11.3355 O   0  0  0  0  0  0  0  0  0  0  0  0
   25.7984  -22.0674  -15.6394 C   0  0  0  0  0  0  0  0  0  0  0  0
   24.7969  -22.5269  -16.2398 O   0  0  0  0  0  0  0  0  0  0  0  0
   21.7381  -22.2065  -12.1887 O   0  0  0  0  0  0  0  0  0  0  0  0
   29.4500  -23.2718  -17.0982 O   0  0  0  0  0  0  0  0  0  0  0  0
   28.6709  -24.3139  -16.6486 C   0  0  0  0  0  0  0  0  0  0  0  0
   27.2520  -23.9044  -16.4407 C   0  0  2  0  0  0  0  0  0  0  0  0
   27.0609  -22.7158  -15.6726 N   0  0  0  0  0  0  0  0  0  0  0  0
   26.4427  -25.0530  -15.9513 C   0  0  0  0  0  0  0  0  0  0  0  0
   25.7170  -25.0522  -14.9547 O   0  0  0  0  0  0  0  0  0  0  0  0
   26.5079  -26.2463  -16.6864 O   0  0  0  0  0  0  0  0  0  0  0  0
  2  1  1  0
  2 12  2  0
  3  2  1  0
  4  3  2  0
  4  5  1  0
  5 11  2  0
  6  5  1  0
  7  8  1  6
  7  6  1  0
  9  7  1  0
 10  9  2  0
 11 12  1  0
 13  9  1  0
 14 13  1  0
 14 15  1  1
 15 16  1  0
 16 17  1  0
 17 21  1  0
 17 18  2  0
 19 14  1  0
 20 19  2  0
 22 23  1  0
 24 23  1  1
 24 26  1  0
 24 25  1  0
 25 19  1  0
 26 28  1  0
 27 26  2  0
M  END
$$$$
