YES.pdb
     RDKit          3D

 28 28  0  0  1  0  0  0  0  0999 V2000
   27.8711  -28.3226  -17.4745 O   0  0  0  0  0  0  0  0  0  0  0  0
   27.5439  -27.0406  -17.0321 C   0  0  0  0  0  0  0  0  0  0  0  0
   28.5495  -26.1221  -16.8074 C   0  0  0  0  0  0  0  0  0  0  0  0
   28.2226  -24.8545  -16.3696 C   0  0  0  0  0  0  0  0  0  0  0  0
   26.9011  -24.5339  -16.1667 C   0  0  0  0  0  0  0  0  0  0  0  0
   26.5361  -23.1852  -15.6993 C   0  0  0  0  0  0  0  0  0  0  0  0
   26.4750  -22.1789  -16.8195 C   0  0  2  0  0  0  0  0  0  0  0  0
   27.8004  -21.7480  -17.2271 N   0  0  0  0  0  0  0  0  0  0  0  0
   25.6649  -21.0205  -16.3359 C   0  0  0  0  0  0  0  0  0  0  0  0
   26.1490  -20.1747  -15.5429 O   0  0  0  0  0  0  0  0  0  0  0  0
   25.9174  -25.4633  -16.3965 C   0  0  0  0  0  0  0  0  0  0  0  0
   26.2232  -26.7275  -16.8316 C   0  0  0  0  0  0  0  0  0  0  0  0
   24.3361  -20.8798  -16.7804 N   0  0  0  0  0  0  0  0  0  0  0  0
   23.4639  -19.8019  -16.3694 C   0  0  1  0  0  0  0  0  0  0  0  0
   23.0688  -18.9512  -17.5404 C   0  0  0  0  0  0  0  0  0  0  0  0
   22.1787  -17.8220  -17.1296 C   0  0  0  0  0  0  0  0  0  0  0  0
   21.7606  -17.0681  -18.3255 C   0  0  0  0  0  0  0  0  0  0  0  0
   21.2290  -17.6634  -19.2772 O   0  0  0  0  0  0  0  0  0  0  0  0
   22.2127  -20.3624  -15.7373 C   0  0  0  0  0  0  0  0  0  0  0  0
   21.6312  -21.3400  -16.2672 O   0  0  0  0  0  0  0  0  0  0  0  0
   21.9440  -15.6963  -18.4246 O   0  0  0  0  0  0  0  0  0  0  0  0
   20.4106  -18.3706  -12.4733 O   0  0  0  0  0  0  0  0  0  0  0  0
   20.3865  -19.7470  -12.4777 C   0  0  0  0  0  0  0  0  0  0  0  0
   20.6240  -20.3078  -13.8390 C   0  0  2  0  0  0  0  0  0  0  0  0
   21.7326  -19.7532  -14.5482 N   0  0  0  0  0  0  0  0  0  0  0  0
   19.3646  -20.3085  -14.6313 C   0  0  0  0  0  0  0  0  0  0  0  0
   19.1821  -19.7167  -15.6973 O   0  0  0  0  0  0  0  0  0  0  0  0
   18.2851  -21.0472  -14.1240 O   0  0  0  0  0  0  0  0  0  0  0  0
  2  1  1  0
  2 12  2  0
  3  2  1  0
  4  3  2  0
  4  5  1  0
  5 11  2  0
  6  5  1  0
  7  8  1  1
  7  6  1  0
  9  7  1  0
 10  9  2  0
 11 12  1  0
 13  9  1  0
 14 13  1  0
 14 15  1  6
 15 16  1  0
 16 17  1  0
 17 21  1  0
 17 18  2  0
 19 14  1  0
 20 19  2  0
 22 23  1  0
 24 23  1  1
 24 26  1  0
 24 25  1  0
 25 19  1  0
 26 28  1  0
 27 26  2  0
M  END
$$$$
