YES.pdb
     RDKit          3D

 28 28  0  0  1  0  0  0  0  0999 V2000
   23.7998  -31.7805  -10.2377 O   0  0  0  0  0  0  0  0  0  0  0  0
   24.2698  -32.2634   -9.0162 C   0  0  0  0  0  0  0  0  0  0  0  0
   25.0070  -33.4299   -8.9851 C   0  0  0  0  0  0  0  0  0  0  0  0
   25.4706  -33.9052   -7.7748 C   0  0  0  0  0  0  0  0  0  0  0  0
   25.1876  -33.2056   -6.6256 C   0  0  0  0  0  0  0  0  0  0  0  0
   25.6751  -33.7000   -5.3261 C   0  0  0  0  0  0  0  0  0  0  0  0
   26.9570  -33.0350   -4.8952 C   0  0  2  0  0  0  0  0  0  0  0  0
   28.0582  -33.3663   -5.7819 N   0  0  0  0  0  0  0  0  0  0  0  0
   27.2454  -33.4826   -3.4994 C   0  0  0  0  0  0  0  0  0  0  0  0
   28.1695  -34.2985   -3.2563 O   0  0  0  0  0  0  0  0  0  0  0  0
   24.4526  -32.0476   -6.6801 C   0  0  0  0  0  0  0  0  0  0  0  0
   23.9837  -31.5602   -7.8732 C   0  0  0  0  0  0  0  0  0  0  0  0
   26.4644  -32.9776   -2.4421 N   0  0  0  0  0  0  0  0  0  0  0  0
   26.7217  -33.2644   -1.0482 C   0  0  1  0  0  0  0  0  0  0  0  0
   25.8636  -32.4169   -0.1556 C   0  0  0  0  0  0  0  0  0  0  0  0
   26.1316  -32.6877    1.2905 C   0  0  0  0  0  0  0  0  0  0  0  0
   25.3696  -31.7337    2.1166 C   0  0  0  0  0  0  0  0  0  0  0  0
   25.9467  -30.7603    2.6285 O   0  0  0  0  0  0  0  0  0  0  0  0
   26.4314  -34.7172   -0.7576 C   0  0  0  0  0  0  0  0  0  0  0  0
   25.3930  -35.2494   -1.2193 O   0  0  0  0  0  0  0  0  0  0  0  0
   24.0098  -31.8896    2.3446 O   0  0  0  0  0  0  0  0  0  0  0  0
   29.1593  -36.9567    1.6015 O   0  0  0  0  0  0  0  0  0  0  0  0
   28.4575  -37.5796    0.5943 C   0  0  0  0  0  0  0  0  0  0  0  0
   27.2083  -36.8443    0.2433 C   0  0  2  0  0  0  0  0  0  0  0  0
   27.3582  -35.4388    0.0397 N   0  0  0  0  0  0  0  0  0  0  0  0
   26.1166  -37.1838    1.1955 C   0  0  0  0  0  0  0  0  0  0  0  0
   25.7630  -38.3216    1.5123 O   0  0  0  0  0  0  0  0  0  0  0  0
   25.4245  -36.1172    1.7885 O   0  0  0  0  0  0  0  0  0  0  0  0
  2  1  1  0
  2 12  2  0
  3  2  1  0
  4  3  2  0
  4  5  1  0
  5 11  2  0
  6  5  1  0
  7  8  1  6
  7  6  1  0
  9  7  1  0
 10  9  2  0
 11 12  1  0
 13  9  1  0
 14 13  1  0
 14 15  1  1
 15 16  1  0
 16 17  1  0
 17 21  1  0
 17 18  2  0
 19 14  1  0
 20 19  2  0
 22 23  1  0
 24 23  1  1
 24 26  1  0
 24 25  1  0
 25 19  1  0
 26 28  1  0
 27 26  2  0
M  END
$$$$
