YES.pdb
     RDKit          3D

 28 28  0  0  1  0  0  0  0  0999 V2000
   24.5942  -14.4353  -19.4650 O   0  0  0  0  0  0  0  0  0  0  0  0
   24.1098  -13.4587  -18.5943 C   0  0  0  0  0  0  0  0  0  0  0  0
   24.6595  -13.3392  -17.3339 C   0  0  0  0  0  0  0  0  0  0  0  0
   24.1780  -12.3720  -16.4747 C   0  0  0  0  0  0  0  0  0  0  0  0
   23.1603  -11.5479  -16.8936 C   0  0  0  0  0  0  0  0  0  0  0  0
   22.6353  -10.5109  -15.9882 C   0  0  0  0  0  0  0  0  0  0  0  0
   23.1203   -9.1292  -16.3441 C   0  0  2  0  0  0  0  0  0  0  0  0
   24.5643   -9.0222  -16.2344 N   0  0  0  0  0  0  0  0  0  0  0  0
   22.4446   -8.1671  -15.4223 C   0  0  0  0  0  0  0  0  0  0  0  0
   23.0212   -7.7414  -14.3904 O   0  0  0  0  0  0  0  0  0  0  0  0
   22.6285  -11.6847  -18.1516 C   0  0  0  0  0  0  0  0  0  0  0  0
   23.0940  -12.6398  -19.0188 C   0  0  0  0  0  0  0  0  0  0  0  0
   21.1385   -7.7335  -15.7210 N   0  0  0  0  0  0  0  0  0  0  0  0
   20.4349   -6.7261  -14.9583 C   0  0  1  0  0  0  0  0  0  0  0  0
   21.1659   -5.4163  -14.9909 C   0  0  0  0  0  0  0  0  0  0  0  0
   21.4266   -4.9620  -16.3917 C   0  0  0  0  0  0  0  0  0  0  0  0
   22.1201   -3.6614  -16.3635 C   0  0  0  0  0  0  0  0  0  0  0  0
   21.4611   -2.6088  -16.3754 O   0  0  0  0  0  0  0  0  0  0  0  0
   19.0516   -6.5201  -15.5272 C   0  0  0  0  0  0  0  0  0  0  0  0
   18.9017   -6.3791  -16.7650 O   0  0  0  0  0  0  0  0  0  0  0  0
   23.5043   -3.5732  -16.3235 O   0  0  0  0  0  0  0  0  0  0  0  0
   15.6500   -7.9446  -13.5966 O   0  0  0  0  0  0  0  0  0  0  0  0
   15.7618   -7.5900  -14.9220 C   0  0  0  0  0  0  0  0  0  0  0  0
   16.6152   -6.3814  -15.1094 C   0  0  2  0  0  0  0  0  0  0  0  0
   17.9545   -6.4931  -14.6266 N   0  0  0  0  0  0  0  0  0  0  0  0
   15.9151   -5.1652  -14.6149 C   0  0  0  0  0  0  0  0  0  0  0  0
   16.3349   -4.3912  -13.7519 O   0  0  0  0  0  0  0  0  0  0  0  0
   14.6648   -4.8682  -15.1779 O   0  0  0  0  0  0  0  0  0  0  0  0
  2  1  1  0
  2 12  2  0
  3  2  1  0
  4  3  2  0
  4  5  1  0
  5 11  2  0
  6  5  1  0
  7  8  1  1
  7  6  1  0
  9  7  1  0
 10  9  2  0
 11 12  1  0
 13  9  1  0
 14 13  1  0
 14 15  1  6
 15 16  1  0
 16 17  1  0
 17 21  1  0
 17 18  2  0
 19 14  1  0
 20 19  2  0
 22 23  1  0
 24 23  1  1
 24 26  1  0
 24 25  1  0
 25 19  1  0
 26 28  1  0
 27 26  2  0
M  END
$$$$
