YES.pdb
     RDKit          3D

 28 28  0  0  1  0  0  0  0  0999 V2000
   28.7179  -19.0991   -5.5783 O   0  0  0  0  0  0  0  0  0  0  0  0
   28.3032  -19.3937   -6.8774 C   0  0  0  0  0  0  0  0  0  0  0  0
   26.9979  -19.1400   -7.2478 C   0  0  0  0  0  0  0  0  0  0  0  0
   26.5906  -19.4327   -8.5338 C   0  0  0  0  0  0  0  0  0  0  0  0
   27.4948  -19.9710   -9.4187 C   0  0  0  0  0  0  0  0  0  0  0  0
   27.0753  -20.2891  -10.7948 C   0  0  0  0  0  0  0  0  0  0  0  0
   26.2639  -21.5564  -10.8766 C   0  0  2  0  0  0  0  0  0  0  0  0
   27.1059  -22.7379  -10.8166 N   0  0  0  0  0  0  0  0  0  0  0  0
   25.4976  -21.5145  -12.1583 C   0  0  0  0  0  0  0  0  0  0  0  0
   26.0304  -21.8502  -13.2455 O   0  0  0  0  0  0  0  0  0  0  0  0
   28.7880  -20.2150   -9.0286 C   0  0  0  0  0  0  0  0  0  0  0  0
   29.2107  -19.9307   -7.7552 C   0  0  0  0  0  0  0  0  0  0  0  0
   24.1549  -21.0903  -12.1409 N   0  0  0  0  0  0  0  0  0  0  0  0
   23.2375  -21.2899  -13.2410 C   0  0  1  0  0  0  0  0  0  0  0  0
   21.8328  -21.4711  -12.7460 C   0  0  0  0  0  0  0  0  0  0  0  0
   20.8881  -21.7845  -13.8621 C   0  0  0  0  0  0  0  0  0  0  0  0
   19.5281  -21.9548  -13.3192 C   0  0  0  0  0  0  0  0  0  0  0  0
   18.9028  -20.9682  -12.8970 O   0  0  0  0  0  0  0  0  0  0  0  0
   23.2723  -20.0968  -14.1655 C   0  0  0  0  0  0  0  0  0  0  0  0
   23.2449  -18.9370  -13.6872 O   0  0  0  0  0  0  0  0  0  0  0  0
   18.9150  -23.1983  -13.2634 O   0  0  0  0  0  0  0  0  0  0  0  0
   23.8294  -18.5026  -18.7014 O   0  0  0  0  0  0  0  0  0  0  0  0
   23.6950  -19.6120  -17.8976 C   0  0  0  0  0  0  0  0  0  0  0  0
   23.3654  -19.2479  -16.4894 C   0  0  2  0  0  0  0  0  0  0  0  0
   23.3358  -20.3348  -15.5637 N   0  0  0  0  0  0  0  0  0  0  0  0
   22.1403  -18.4049  -16.4404 C   0  0  0  0  0  0  0  0  0  0  0  0
   20.9820  -18.8188  -16.3565 O   0  0  0  0  0  0  0  0  0  0  0  0
   22.3134  -17.0137  -16.4944 O   0  0  0  0  0  0  0  0  0  0  0  0
  2  1  1  0
  2 12  2  0
  3  2  1  0
  4  3  2  0
  4  5  1  0
  5 11  2  0
  6  5  1  0
  7  8  1  6
  7  6  1  0
  9  7  1  0
 10  9  2  0
 11 12  1  0
 13  9  1  0
 14 13  1  0
 14 15  1  1
 15 16  1  0
 16 17  1  0
 17 21  1  0
 17 18  2  0
 19 14  1  0
 20 19  2  0
 22 23  1  0
 24 23  1  6
 24 26  1  0
 24 25  1  0
 25 19  1  0
 26 28  1  0
 27 26  2  0
M  END
$$$$
