NYS.pdb
     RDKit          3D

 27 27  0  0  1  0  0  0  0  0999 V2000
   13.7562  -11.5114  -17.2105 N   0  0  0  0  0  0  0  0  0  0  0  0
   13.2910  -11.6696  -15.8804 C   0  0  0  0  0  0  0  0  0  0  0  0
   12.0373  -11.6324  -15.7161 O   0  0  0  0  0  0  0  0  0  0  0  0
   14.2301  -11.8677  -14.7482 C   0  0  0  0  0  0  0  0  0  0  0  0
   15.6284  -11.6980  -15.2581 C   0  0  2  0  0  0  0  0  0  0  0  0
   16.1391  -13.0000  -15.6096 N   0  0  0  0  0  0  0  0  0  0  0  0
   16.5068  -10.9762  -14.3276 C   0  0  0  0  0  0  0  0  0  0  0  0
   16.9233  -11.5693  -13.3020 O   0  0  0  0  0  0  0  0  0  0  0  0
   22.7390   -5.4739  -11.5572 O   0  0  0  0  0  0  0  0  0  0  0  0
   21.8195   -6.2218  -12.2996 C   0  0  0  0  0  0  0  0  0  0  0  0
   21.6841   -7.5739  -12.0731 C   0  0  0  0  0  0  0  0  0  0  0  0
   20.7993   -8.3280  -12.7781 C   0  0  0  0  0  0  0  0  0  0  0  0
   19.9923   -7.7588  -13.7613 C   0  0  0  0  0  0  0  0  0  0  0  0
   19.0475   -8.6158  -14.5115 C   0  0  0  0  0  0  0  0  0  0  0  0
   17.8111   -8.9578  -13.7419 C   0  0  2  0  0  0  0  0  0  0  0  0
   16.8700   -9.6443  -14.5886 N   0  0  0  0  0  0  0  0  0  0  0  0
   17.1595   -7.8343  -13.0471 C   0  0  0  0  0  0  0  0  0  0  0  0
   16.4104   -7.0758  -13.7118 O   0  0  0  0  0  0  0  0  0  0  0  0
   20.1272   -6.4062  -13.9886 C   0  0  0  0  0  0  0  0  0  0  0  0
   21.0276   -5.6294  -13.2736 C   0  0  0  0  0  0  0  0  0  0  0  0
   16.5877   -5.3606   -8.8481 O   0  0  0  0  0  0  0  0  0  0  0  0
   17.0846   -6.4794   -9.5162 C   0  0  0  0  0  0  0  0  0  0  0  0
   16.7998   -6.3944  -10.9946 C   0  0  2  0  0  0  0  0  0  0  0  0
   17.3271   -7.5563  -11.6684 N   0  0  0  0  0  0  0  0  0  0  0  0
   17.4645   -5.1564  -11.4994 C   0  0  0  0  0  0  0  0  0  0  0  0
   17.1122   -4.0070  -11.1464 O   0  0  0  0  0  0  0  0  0  0  0  0
   18.5107   -5.3316  -12.3947 O   0  0  0  0  0  0  0  0  0  0  0  0
  2  3  2  0
  2  1  1  0
  4  2  1  0
  5  4  1  0
  5  7  1  0
  5  6  1  1
  7  8  2  0
  9 10  1  0
 10 11  2  0
 10 20  1  0
 11 12  1  0
 12 13  2  0
 13 14  1  0
 15 14  1  6
 16  7  1  0
 16 15  1  0
 17 15  1  0
 17 18  2  0
 19 13  1  0
 20 19  2  0
 21 22  1  0
 23 22  1  1
 23 24  1  0
 24 17  1  0
 25 23  1  0
 25 27  1  0
 26 25  2  0
M  END
$$$$
