NYS.pdb
     RDKit          3D

 27 27  0  0  1  0  0  0  0  0999 V2000
   16.7552  -10.4155  -18.9077 N   0  0  0  0  0  0  0  0  0  0  0  0
   16.1733  -10.0022  -17.6825 C   0  0  0  0  0  0  0  0  0  0  0  0
   14.9717   -9.6105  -17.7358 O   0  0  0  0  0  0  0  0  0  0  0  0
   16.9389  -10.0307  -16.4113 C   0  0  0  0  0  0  0  0  0  0  0  0
   18.2728  -10.6588  -16.6762 C   0  0  2  0  0  0  0  0  0  0  0  0
   18.1526  -12.0785  -16.4536 N   0  0  0  0  0  0  0  0  0  0  0  0
   19.3675  -10.0542  -15.9052 C   0  0  0  0  0  0  0  0  0  0  0  0
   19.3771  -10.1885  -14.6566 O   0  0  0  0  0  0  0  0  0  0  0  0
   23.9407  -14.5115  -15.4816 O   0  0  0  0  0  0  0  0  0  0  0  0
   23.6388  -13.1650  -15.7088 C   0  0  0  0  0  0  0  0  0  0  0  0
   23.9235  -12.2204  -14.7474 C   0  0  0  0  0  0  0  0  0  0  0  0
   23.6421  -10.9040  -14.9384 C   0  0  0  0  0  0  0  0  0  0  0  0
   23.0521  -10.4586  -16.1196 C   0  0  0  0  0  0  0  0  0  0  0  0
   22.7549   -9.0184  -16.2852 C   0  0  0  0  0  0  0  0  0  0  0  0
   21.3892   -8.6321  -15.8126 C   0  0  2  0  0  0  0  0  0  0  0  0
   20.3831   -9.3393  -16.5619 N   0  0  0  0  0  0  0  0  0  0  0  0
   21.1033   -7.1872  -15.7965 C   0  0  0  0  0  0  0  0  0  0  0  0
   20.7575   -6.6357  -16.8710 O   0  0  0  0  0  0  0  0  0  0  0  0
   22.7669  -11.4030  -17.0820 C   0  0  0  0  0  0  0  0  0  0  0  0
   23.0508  -12.7483  -16.8952 C   0  0  0  0  0  0  0  0  0  0  0  0
   19.2577   -3.3267  -14.1382 O   0  0  0  0  0  0  0  0  0  0  0  0
   19.5030   -4.6954  -14.2449 C   0  0  0  0  0  0  0  0  0  0  0  0
   20.9437   -4.9579  -14.6048 C   0  0  2  0  0  0  0  0  0  0  0  0
   21.1953   -6.3784  -14.6374 N   0  0  0  0  0  0  0  0  0  0  0  0
   21.7839   -4.3068  -13.5563 C   0  0  0  0  0  0  0  0  0  0  0  0
   22.2742   -4.9395  -12.5923 O   0  0  0  0  0  0  0  0  0  0  0  0
   22.0059   -2.9435  -13.6934 O   0  0  0  0  0  0  0  0  0  0  0  0
  2  3  2  0
  2  1  1  0
  4  2  1  0
  5  4  1  0
  5  7  1  0
  5  6  1  1
  7  8  2  0
  9 10  1  0
 10 11  2  0
 10 20  1  0
 11 12  1  0
 12 13  2  0
 13 14  1  0
 15 14  1  6
 16  7  1  0
 16 15  1  0
 17 15  1  0
 17 18  2  0
 19 13  1  0
 20 19  2  0
 21 22  1  0
 23 22  1  1
 23 24  1  0
 24 17  1  0
 25 23  1  0
 25 27  1  0
 26 25  2  0
M  END
$$$$
