NYS.pdb
     RDKit          3D

 27 27  0  0  1  0  0  0  0  0999 V2000
   29.5338  -21.5892  -21.0737 N   0  0  0  0  0  0  0  0  0  0  0  0
   29.2248  -21.0067  -19.8184 C   0  0  0  0  0  0  0  0  0  0  0  0
   29.8052  -19.9158  -19.5477 O   0  0  0  0  0  0  0  0  0  0  0  0
   28.2714  -21.6481  -18.8790 C   0  0  0  0  0  0  0  0  0  0  0  0
   28.9846  -21.9131  -17.5886 C   0  0  2  0  0  0  0  0  0  0  0  0
   29.8748  -23.0298  -17.7888 N   0  0  0  0  0  0  0  0  0  0  0  0
   28.0785  -22.1072  -16.4485 C   0  0  0  0  0  0  0  0  0  0  0  0
   27.5632  -23.2381  -16.2681 O   0  0  0  0  0  0  0  0  0  0  0  0
   24.1232  -20.7861   -8.6732 O   0  0  0  0  0  0  0  0  0  0  0  0
   24.8802  -20.6426   -9.8403 C   0  0  0  0  0  0  0  0  0  0  0  0
   26.1327  -21.2098   -9.9266 C   0  0  0  0  0  0  0  0  0  0  0  0
   26.8928  -21.0881  -11.0474 C   0  0  0  0  0  0  0  0  0  0  0  0
   26.4313  -20.3817  -12.1563 C   0  0  0  0  0  0  0  0  0  0  0  0
   27.2927  -20.2661  -13.3540 C   0  0  0  0  0  0  0  0  0  0  0  0
   26.9277  -21.2206  -14.4466 C   0  0  2  0  0  0  0  0  0  0  0  0
   27.7985  -21.0396  -15.5791 N   0  0  0  0  0  0  0  0  0  0  0  0
   25.5168  -21.1992  -14.8691 C   0  0  0  0  0  0  0  0  0  0  0  0
   25.1386  -20.2810  -15.6386 O   0  0  0  0  0  0  0  0  0  0  0  0
   25.1784  -19.8139  -12.0708 C   0  0  0  0  0  0  0  0  0  0  0  0
   24.3962  -19.9333  -10.9309 C   0  0  0  0  0  0  0  0  0  0  0  0
   23.5319  -24.4576  -14.5460 O   0  0  0  0  0  0  0  0  0  0  0  0
   22.6272  -23.5049  -15.0138 C   0  0  0  0  0  0  0  0  0  0  0  0
   23.1541  -22.1089  -14.7953 C   0  0  2  0  0  0  0  0  0  0  0  0
   24.5563  -22.1556  -14.4582 N   0  0  0  0  0  0  0  0  0  0  0  0
   22.3706  -21.5146  -13.6719 C   0  0  0  0  0  0  0  0  0  0  0  0
   22.8998  -21.1491  -12.5965 O   0  0  0  0  0  0  0  0  0  0  0  0
   21.0032  -21.3795  -13.8688 O   0  0  0  0  0  0  0  0  0  0  0  0
  2  3  2  0
  2  1  1  0
  4  2  1  0
  5  4  1  0
  5  7  1  0
  5  6  1  6
  7  8  2  0
  9 10  1  0
 10 11  2  0
 10 20  1  0
 11 12  1  0
 12 13  2  0
 13 14  1  0
 15 14  1  1
 16  7  1  0
 16 15  1  0
 17 15  1  0
 17 18  2  0
 19 13  1  0
 20 19  2  0
 21 22  1  0
 23 22  1  1
 23 24  1  0
 24 17  1  0
 25 23  1  0
 25 27  1  0
 26 25  2  0
M  END
$$$$
