NYS.pdb
     RDKit          3D

 27 27  0  0  1  0  0  0  0  0999 V2000
   22.6062  -10.4278  -14.1305 N   0  0  0  0  0  0  0  0  0  0  0  0
   23.7678   -9.9492  -14.7878 C   0  0  0  0  0  0  0  0  0  0  0  0
   24.8717  -10.4254  -14.3944 O   0  0  0  0  0  0  0  0  0  0  0  0
   23.6847   -8.9442  -15.8769 C   0  0  0  0  0  0  0  0  0  0  0  0
   22.2507   -8.5442  -16.0432 C   0  0  2  0  0  0  0  0  0  0  0  0
   21.5174   -9.6905  -16.5207 N   0  0  0  0  0  0  0  0  0  0  0  0
   22.0686   -7.3598  -16.8931 C   0  0  0  0  0  0  0  0  0  0  0  0
   22.7890   -7.2280  -17.9133 O   0  0  0  0  0  0  0  0  0  0  0  0
   20.3412   -9.0077  -22.5590 O   0  0  0  0  0  0  0  0  0  0  0  0
   20.1552   -8.1443  -21.4747 C   0  0  0  0  0  0  0  0  0  0  0  0
   20.6280   -6.8516  -21.5306 C   0  0  0  0  0  0  0  0  0  0  0  0
   20.4629   -5.9885  -20.4932 C   0  0  0  0  0  0  0  0  0  0  0  0
   19.8061   -6.3809  -19.3286 C   0  0  0  0  0  0  0  0  0  0  0  0
   19.6539   -5.4133  -18.2192 C   0  0  0  0  0  0  0  0  0  0  0  0
   20.8944   -5.2429  -17.4009 C   0  0  2  0  0  0  0  0  0  0  0  0
   21.1019   -6.3953  -16.5627 N   0  0  0  0  0  0  0  0  0  0  0  0
   20.9714   -4.0043  -16.6073 C   0  0  0  0  0  0  0  0  0  0  0  0
   20.5908   -4.0383  -15.4105 O   0  0  0  0  0  0  0  0  0  0  0  0
   19.3328   -7.6740  -19.2718 C   0  0  0  0  0  0  0  0  0  0  0  0
   19.4970   -8.5612  -20.3259 C   0  0  0  0  0  0  0  0  0  0  0  0
   22.4971    0.6499  -16.3964 O   0  0  0  0  0  0  0  0  0  0  0  0
   22.2969   -0.5060  -17.1504 C   0  0  0  0  0  0  0  0  0  0  0  0
   21.5926   -1.5635  -16.3383 C   0  0  2  0  0  0  0  0  0  0  0  0
   21.4509   -2.7717  -17.1143 N   0  0  0  0  0  0  0  0  0  0  0  0
   20.2499   -1.0187  -15.9779 C   0  0  0  0  0  0  0  0  0  0  0  0
   19.2453   -1.1522  -16.7147 O   0  0  0  0  0  0  0  0  0  0  0  0
   20.1554   -0.3438  -14.7687 O   0  0  0  0  0  0  0  0  0  0  0  0
  2  3  2  0
  2  1  1  0
  4  2  1  0
  5  4  1  0
  5  7  1  0
  5  6  1  6
  7  8  2  0
  9 10  1  0
 10 11  2  0
 10 20  1  0
 11 12  1  0
 12 13  2  0
 13 14  1  0
 15 14  1  1
 16  7  1  0
 16 15  1  0
 17 15  1  0
 17 18  2  0
 19 13  1  0
 20 19  2  0
 21 22  1  0
 23 22  1  6
 23 24  1  0
 24 17  1  0
 25 23  1  0
 25 27  1  0
 26 25  2  0
M  END
$$$$
