NYS.pdb
     RDKit          3D

 27 27  0  0  1  0  0  0  0  0999 V2000
   28.2415  -16.6395  -19.8513 N   0  0  0  0  0  0  0  0  0  0  0  0
   27.0163  -17.2963  -20.1305 C   0  0  0  0  0  0  0  0  0  0  0  0
   26.2681  -16.7469  -20.9899 O   0  0  0  0  0  0  0  0  0  0  0  0
   26.6395  -18.5590  -19.4475 C   0  0  0  0  0  0  0  0  0  0  0  0
   27.7767  -18.9784  -18.5673 C   0  0  2  0  0  0  0  0  0  0  0  0
   28.7080  -19.7352  -19.3672 N   0  0  0  0  0  0  0  0  0  0  0  0
   27.3479  -19.6996  -17.3613 C   0  0  0  0  0  0  0  0  0  0  0  0
   27.1029  -20.9286  -17.4437 O   0  0  0  0  0  0  0  0  0  0  0  0
   25.3399  -21.2962   -8.9012 O   0  0  0  0  0  0  0  0  0  0  0  0
   25.8624  -20.7908  -10.0961 C   0  0  0  0  0  0  0  0  0  0  0  0
   25.4676  -19.5534  -10.5551 C   0  0  0  0  0  0  0  0  0  0  0  0
   25.9573  -19.0349  -11.7127 C   0  0  0  0  0  0  0  0  0  0  0  0
   26.8814  -19.7391  -12.4820 C   0  0  0  0  0  0  0  0  0  0  0  0
   27.3843  -19.1428  -13.7396 C   0  0  0  0  0  0  0  0  0  0  0  0
   26.7306  -19.6959  -14.9662 C   0  0  2  0  0  0  0  0  0  0  0  0
   27.2168  -19.0179  -16.1399 N   0  0  0  0  0  0  0  0  0  0  0  0
   25.2578  -19.7156  -14.9518 C   0  0  0  0  0  0  0  0  0  0  0  0
   24.6450  -18.6369  -15.1500 O   0  0  0  0  0  0  0  0  0  0  0  0
   27.2769  -20.9771  -12.0235 C   0  0  0  0  0  0  0  0  0  0  0  0
   26.7821  -21.5136  -10.8433 C   0  0  0  0  0  0  0  0  0  0  0  0
   21.1706  -22.4046  -14.6499 O   0  0  0  0  0  0  0  0  0  0  0  0
   22.5635  -22.3484  -14.6929 C   0  0  0  0  0  0  0  0  0  0  0  0
   23.0453  -20.9195  -14.6852 C   0  0  2  0  0  0  0  0  0  0  0  0
   24.4872  -20.8825  -14.7270 N   0  0  0  0  0  0  0  0  0  0  0  0
   22.5474  -20.2949  -13.4237 C   0  0  0  0  0  0  0  0  0  0  0  0
   21.4853  -19.6322  -13.3699 O   0  0  0  0  0  0  0  0  0  0  0  0
   23.3233  -20.4806  -12.2879 O   0  0  0  0  0  0  0  0  0  0  0  0
  2  3  2  0
  2  1  1  0
  4  2  1  0
  5  4  1  0
  5  7  1  0
  5  6  1  6
  7  8  2  0
  9 10  1  0
 10 11  2  0
 10 20  1  0
 11 12  1  0
 12 13  2  0
 13 14  1  0
 15 14  1  1
 16  7  1  0
 16 15  1  0
 17 15  1  0
 17 18  2  0
 19 13  1  0
 20 19  2  0
 21 22  1  0
 23 22  1  1
 23 24  1  0
 24 17  1  0
 25 23  1  0
 25 27  1  0
 26 25  2  0
M  END
$$$$
