NYS.pdb
     RDKit          3D

 27 27  0  0  1  0  0  0  0  0999 V2000
   23.9274   -7.2377  -18.7602 N   0  0  0  0  0  0  0  0  0  0  0  0
   22.5361   -7.4912  -18.8641 C   0  0  0  0  0  0  0  0  0  0  0  0
   21.7731   -6.4884  -18.7526 O   0  0  0  0  0  0  0  0  0  0  0  0
   22.0118   -8.8610  -19.0911 C   0  0  0  0  0  0  0  0  0  0  0  0
   23.1556   -9.8249  -19.0102 C   0  0  2  0  0  0  0  0  0  0  0  0
   23.9681   -9.6574  -20.1898 N   0  0  0  0  0  0  0  0  0  0  0  0
   22.7339  -11.2172  -18.8047 C   0  0  0  0  0  0  0  0  0  0  0  0
   22.4926  -11.9329  -19.8080 O   0  0  0  0  0  0  0  0  0  0  0  0
   21.8592  -19.1863  -15.2593 O   0  0  0  0  0  0  0  0  0  0  0  0
   22.1920  -17.8590  -15.5484 C   0  0  0  0  0  0  0  0  0  0  0  0
   21.8568  -16.8542  -14.6676 C   0  0  0  0  0  0  0  0  0  0  0  0
   22.1663  -15.5546  -14.9202 C   0  0  0  0  0  0  0  0  0  0  0  0
   22.8376  -15.1884  -16.0851 C   0  0  0  0  0  0  0  0  0  0  0  0
   23.1492  -13.7619  -16.3261 C   0  0  0  0  0  0  0  0  0  0  0  0
   22.2136  -13.1003  -17.2878 C   0  0  2  0  0  0  0  0  0  0  0  0
   22.6053  -11.7315  -17.5036 N   0  0  0  0  0  0  0  0  0  0  0  0
   20.7830  -13.1824  -16.9467 C   0  0  0  0  0  0  0  0  0  0  0  0
   20.3284  -12.3872  -16.0870 O   0  0  0  0  0  0  0  0  0  0  0  0
   23.1733  -16.1930  -16.9668 C   0  0  0  0  0  0  0  0  0  0  0  0
   22.8612  -17.5217  -16.7168 C   0  0  0  0  0  0  0  0  0  0  0  0
   17.0028  -14.7805  -15.4046 O   0  0  0  0  0  0  0  0  0  0  0  0
   18.3290  -14.4852  -15.7191 C   0  0  0  0  0  0  0  0  0  0  0  0
   18.4865  -14.2213  -17.1955 C   0  0  2  0  0  0  0  0  0  0  0  0
   19.8850  -14.1081  -17.5322 N   0  0  0  0  0  0  0  0  0  0  0  0
   17.7771  -12.9411  -17.4909 C   0  0  0  0  0  0  0  0  0  0  0  0
   18.3032  -11.8184  -17.3100 O   0  0  0  0  0  0  0  0  0  0  0  0
   16.4840  -13.0448  -17.9845 O   0  0  0  0  0  0  0  0  0  0  0  0
  2  3  2  0
  2  1  1  0
  4  2  1  0
  5  4  1  0
  5  7  1  0
  5  6  1  6
  7  8  2  0
  9 10  1  0
 10 11  2  0
 10 20  1  0
 11 12  1  0
 12 13  2  0
 13 14  1  0
 15 14  1  1
 16  7  1  0
 16 15  1  0
 17 15  1  0
 17 18  2  0
 19 13  1  0
 20 19  2  0
 21 22  1  0
 23 22  1  1
 23 24  1  0
 24 17  1  0
 25 23  1  0
 25 27  1  0
 26 25  2  0
M  END
$$$$
