NYS.pdb
     RDKit          3D

 27 27  0  0  1  0  0  0  0  0999 V2000
   17.3346  -11.4620  -17.1947 N   0  0  0  0  0  0  0  0  0  0  0  0
   18.4306  -10.5760  -17.0387 C   0  0  0  0  0  0  0  0  0  0  0  0
   19.5565  -11.0022  -17.4271 O   0  0  0  0  0  0  0  0  0  0  0  0
   18.2580   -9.2240  -16.4510 C   0  0  0  0  0  0  0  0  0  0  0  0
   19.4838   -8.8939  -15.6557 C   0  0  2  0  0  0  0  0  0  0  0  0
   19.5473   -9.7970  -14.5332 N   0  0  0  0  0  0  0  0  0  0  0  0
   19.5576   -7.4828  -15.2535 C   0  0  0  0  0  0  0  0  0  0  0  0
   18.5577   -6.9537  -14.7083 O   0  0  0  0  0  0  0  0  0  0  0  0
   19.3544   -6.2291   -8.9114 O   0  0  0  0  0  0  0  0  0  0  0  0
   19.9182   -5.9413  -10.1585 C   0  0  0  0  0  0  0  0  0  0  0  0
   20.8954   -6.7594  -10.6814 C   0  0  0  0  0  0  0  0  0  0  0  0
   21.4628   -6.5063  -11.8908 C   0  0  0  0  0  0  0  0  0  0  0  0
   21.0752   -5.4043  -12.6506 C   0  0  0  0  0  0  0  0  0  0  0  0
   21.7228   -5.1598  -13.9586 C   0  0  0  0  0  0  0  0  0  0  0  0
   20.8051   -5.3509  -15.1244 C   0  0  2  0  0  0  0  0  0  0  0  0
   20.7317   -6.7447  -15.4787 N   0  0  0  0  0  0  0  0  0  0  0  0
   21.0997   -4.5294  -16.3110 C   0  0  0  0  0  0  0  0  0  0  0  0
   22.1870   -4.7175  -16.9116 O   0  0  0  0  0  0  0  0  0  0  0  0
   20.0976   -4.5853  -12.1282 C   0  0  0  0  0  0  0  0  0  0  0  0
   19.5134   -4.8364  -10.8949 C   0  0  0  0  0  0  0  0  0  0  0  0
   19.4480   -1.6603  -19.8497 O   0  0  0  0  0  0  0  0  0  0  0  0
   19.2039   -2.3747  -18.6771 C   0  0  0  0  0  0  0  0  0  0  0  0
   20.4949   -2.7223  -17.9796 C   0  0  2  0  0  0  0  0  0  0  0  0
   20.2272   -3.5355  -16.8181 N   0  0  0  0  0  0  0  0  0  0  0  0
   21.1356   -1.4358  -17.5749 C   0  0  0  0  0  0  0  0  0  0  0  0
   20.8448   -0.8398  -16.5118 O   0  0  0  0  0  0  0  0  0  0  0  0
   22.0867   -0.9139  -18.4407 O   0  0  0  0  0  0  0  0  0  0  0  0
  2  3  2  0
  2  1  1  0
  4  2  1  0
  5  4  1  0
  5  7  1  0
  5  6  1  1
  7  8  2  0
  9 10  1  0
 10 11  2  0
 10 20  1  0
 11 12  1  0
 12 13  2  0
 13 14  1  0
 15 14  1  1
 16  7  1  0
 16 15  1  0
 17 15  1  0
 17 18  2  0
 19 13  1  0
 20 19  2  0
 21 22  1  0
 23 22  1  1
 23 24  1  0
 24 17  1  0
 25 23  1  0
 25 27  1  0
 26 25  2  0
M  END
$$$$
