NYS.pdb
     RDKit          3D

 27 27  0  0  1  0  0  0  0  0999 V2000
   21.4573  -20.1458  -16.9632 N   0  0  0  0  0  0  0  0  0  0  0  0
   20.8544  -19.7306  -15.7489 C   0  0  0  0  0  0  0  0  0  0  0  0
   19.8682  -20.4147  -15.3492 O   0  0  0  0  0  0  0  0  0  0  0  0
   21.3586  -18.5565  -14.9939 C   0  0  0  0  0  0  0  0  0  0  0  0
   22.5747  -18.0309  -15.6933 C   0  0  2  0  0  0  0  0  0  0  0  0
   23.6822  -18.9006  -15.3824 N   0  0  0  0  0  0  0  0  0  0  0  0
   22.8587  -16.6211  -15.3931 C   0  0  0  0  0  0  0  0  0  0  0  0
   22.2941  -16.0844  -14.4081 O   0  0  0  0  0  0  0  0  0  0  0  0
   28.6427  -18.8367  -15.5333 O   0  0  0  0  0  0  0  0  0  0  0  0
   27.8417  -17.6922  -15.6009 C   0  0  0  0  0  0  0  0  0  0  0  0
   27.3670  -17.1109  -14.4458 C   0  0  0  0  0  0  0  0  0  0  0  0
   26.5863  -15.9981  -14.4785 C   0  0  0  0  0  0  0  0  0  0  0  0
   26.2354  -15.4010  -15.6877 C   0  0  0  0  0  0  0  0  0  0  0  0
   25.3776  -14.1951  -15.6804 C   0  0  0  0  0  0  0  0  0  0  0  0
   23.9431  -14.4807  -15.9939 C   0  0  2  0  0  0  0  0  0  0  0  0
   23.7486  -15.8926  -16.2001 N   0  0  0  0  0  0  0  0  0  0  0  0
   23.3668  -13.7099  -17.1090 C   0  0  0  0  0  0  0  0  0  0  0  0
   23.4064  -14.2082  -18.2615 O   0  0  0  0  0  0  0  0  0  0  0  0
   26.7100  -15.9820  -16.8438 C   0  0  0  0  0  0  0  0  0  0  0  0
   27.5071  -17.1175  -16.8194 C   0  0  0  0  0  0  0  0  0  0  0  0
   20.1519  -10.6055  -18.7280 O   0  0  0  0  0  0  0  0  0  0  0  0
   20.7264  -11.3903  -17.7285 C   0  0  0  0  0  0  0  0  0  0  0  0
   22.1757  -11.6747  -18.0333 C   0  0  2  0  0  0  0  0  0  0  0  0
   22.7679  -12.4351  -16.9595 N   0  0  0  0  0  0  0  0  0  0  0  0
   22.8617  -10.3560  -18.1742 C   0  0  0  0  0  0  0  0  0  0  0  0
   23.7598   -9.9729  -17.3890 O   0  0  0  0  0  0  0  0  0  0  0  0
   22.4574   -9.5531  -19.2319 O   0  0  0  0  0  0  0  0  0  0  0  0
  2  3  2  0
  2  1  1  0
  4  2  1  0
  5  4  1  0
  5  7  1  0
  5  6  1  1
  7  8  2  0
  9 10  1  0
 10 11  2  0
 10 20  1  0
 11 12  1  0
 12 13  2  0
 13 14  1  0
 15 14  1  6
 16  7  1  0
 16 15  1  0
 17 15  1  0
 17 18  2  0
 19 13  1  0
 20 19  2  0
 21 22  1  0
 23 22  1  1
 23 24  1  0
 24 17  1  0
 25 23  1  0
 25 27  1  0
 26 25  2  0
M  END
$$$$
