NYS.pdb
     RDKit          3D

 27 27  0  0  1  0  0  0  0  0999 V2000
   29.4576  -19.3690  -19.5865 N   0  0  0  0  0  0  0  0  0  0  0  0
   28.2265  -20.0242  -19.8428 C   0  0  0  0  0  0  0  0  0  0  0  0
   27.6045  -19.6629  -20.8834 O   0  0  0  0  0  0  0  0  0  0  0  0
   27.7031  -21.0753  -18.9350 C   0  0  0  0  0  0  0  0  0  0  0  0
   28.6226  -21.1841  -17.7574 C   0  0  2  0  0  0  0  0  0  0  0  0
   29.6642  -22.1256  -18.0866 N   0  0  0  0  0  0  0  0  0  0  0  0
   27.9315  -21.5177  -16.5046 C   0  0  0  0  0  0  0  0  0  0  0  0
   27.7290  -22.7253  -16.2258 O   0  0  0  0  0  0  0  0  0  0  0  0
   24.5220  -20.7597   -8.4098 O   0  0  0  0  0  0  0  0  0  0  0  0
   25.1792  -20.5423   -9.6250 C   0  0  0  0  0  0  0  0  0  0  0  0
   26.3734  -21.1763   -9.8888 C   0  0  0  0  0  0  0  0  0  0  0  0
   27.0363  -20.9856  -11.0605 C   0  0  0  0  0  0  0  0  0  0  0  0
   26.5301  -20.1373  -12.0433 C   0  0  0  0  0  0  0  0  0  0  0  0
   27.2861  -19.9510  -13.3018 C   0  0  0  0  0  0  0  0  0  0  0  0
   26.7947  -20.8066  -14.4261 C   0  0  2  0  0  0  0  0  0  0  0  0
   27.5076  -20.4962  -15.6382 N   0  0  0  0  0  0  0  0  0  0  0  0
   25.3405  -20.7821  -14.6595 C   0  0  0  0  0  0  0  0  0  0  0  0
   24.8401  -19.7636  -15.1985 O   0  0  0  0  0  0  0  0  0  0  0  0
   25.3354  -19.5026  -11.7802 C   0  0  0  0  0  0  0  0  0  0  0  0
   24.6525  -19.6916  -10.5872 C   0  0  0  0  0  0  0  0  0  0  0  0
   21.0552  -23.1271  -14.2108 O   0  0  0  0  0  0  0  0  0  0  0  0
   22.4491  -23.1694  -14.1999 C   0  0  0  0  0  0  0  0  0  0  0  0
   23.0313  -21.7983  -14.4346 C   0  0  2  0  0  0  0  0  0  0  0  0
   24.4683  -21.8424  -14.3113 N   0  0  0  0  0  0  0  0  0  0  0  0
   22.4502  -20.8915  -13.4004 C   0  0  0  0  0  0  0  0  0  0  0  0
   23.0932  -20.5125  -12.3941 O   0  0  0  0  0  0  0  0  0  0  0  0
   21.1413  -20.4753  -13.6012 O   0  0  0  0  0  0  0  0  0  0  0  0
  2  3  2  0
  2  1  1  0
  4  2  1  0
  5  4  1  0
  5  7  1  0
  5  6  1  6
  7  8  2  0
  9 10  1  0
 10 11  2  0
 10 20  1  0
 11 12  1  0
 12 13  2  0
 13 14  1  0
 15 14  1  1
 16  7  1  0
 16 15  1  0
 17 15  1  0
 17 18  2  0
 19 13  1  0
 20 19  2  0
 21 22  1  0
 23 22  1  1
 23 24  1  0
 24 17  1  0
 25 23  1  0
 25 27  1  0
 26 25  2  0
M  END
$$$$
