NYS.pdb
     RDKit          3D

 27 27  0  0  1  0  0  0  0  0999 V2000
   29.8319  -20.6928  -19.1275 N   0  0  0  0  0  0  0  0  0  0  0  0
   28.4471  -20.6719  -19.4316 C   0  0  0  0  0  0  0  0  0  0  0  0
   28.1135  -20.0601  -20.4874 O   0  0  0  0  0  0  0  0  0  0  0  0
   27.4498  -21.3338  -18.5541 C   0  0  0  0  0  0  0  0  0  0  0  0
   28.1538  -21.8316  -17.3292 C   0  0  2  0  0  0  0  0  0  0  0  0
   28.8885  -23.0202  -17.6855 N   0  0  0  0  0  0  0  0  0  0  0  0
   27.2579  -22.0404  -16.1836 C   0  0  0  0  0  0  0  0  0  0  0  0
   26.6680  -23.1429  -16.0673 O   0  0  0  0  0  0  0  0  0  0  0  0
   23.4814  -20.8167   -8.2828 O   0  0  0  0  0  0  0  0  0  0  0  0
   24.2432  -20.6870   -9.4484 C   0  0  0  0  0  0  0  0  0  0  0  0
   25.4856  -21.2762   -9.5321 C   0  0  0  0  0  0  0  0  0  0  0  0
   26.2500  -21.1683  -10.6513 C   0  0  0  0  0  0  0  0  0  0  0  0
   25.8033  -20.4541  -11.7613 C   0  0  0  0  0  0  0  0  0  0  0  0
   26.6690  -20.3540  -12.9574 C   0  0  0  0  0  0  0  0  0  0  0  0
   26.2231  -21.2215  -14.0917 C   0  0  2  0  0  0  0  0  0  0  0  0
   27.0700  -21.0181  -15.2385 N   0  0  0  0  0  0  0  0  0  0  0  0
   24.8040  -21.1024  -14.4678 C   0  0  0  0  0  0  0  0  0  0  0  0
   24.4459  -20.0997  -15.1347 O   0  0  0  0  0  0  0  0  0  0  0  0
   24.5605  -19.8642  -11.6784 C   0  0  0  0  0  0  0  0  0  0  0  0
   23.7740  -19.9695  -10.5401 C   0  0  0  0  0  0  0  0  0  0  0  0
   20.4493  -23.2463  -14.8826 O   0  0  0  0  0  0  0  0  0  0  0  0
   21.7981  -23.3247  -14.5366 C   0  0  0  0  0  0  0  0  0  0  0  0
   22.4177  -21.9515  -14.4699 C   0  0  2  0  0  0  0  0  0  0  0  0
   23.8141  -22.0544  -14.1214 N   0  0  0  0  0  0  0  0  0  0  0  0
   21.6774  -21.1861  -13.4232 C   0  0  0  0  0  0  0  0  0  0  0  0
   21.9835  -21.2300  -12.2090 O   0  0  0  0  0  0  0  0  0  0  0  0
   20.6136  -20.4068  -13.8565 O   0  0  0  0  0  0  0  0  0  0  0  0
  2  3  2  0
  2  1  1  0
  4  2  1  0
  5  4  1  0
  5  7  1  0
  5  6  1  6
  7  8  2  0
  9 10  1  0
 10 11  2  0
 10 20  1  0
 11 12  1  0
 12 13  2  0
 13 14  1  0
 15 14  1  1
 16  7  1  0
 16 15  1  0
 17 15  1  0
 17 18  2  0
 19 13  1  0
 20 19  2  0
 21 22  1  0
 23 22  1  1
 23 24  1  0
 24 17  1  0
 25 23  1  0
 25 27  1  0
 26 25  2  0
M  END
$$$$
