PTV.pdb
     RDKit          3D

 22 22  0  0  1  0  0  0  0  0999 V2000
    8.8931  -15.0902   18.8438 N   0  0  0  0  0  0  0  0  0  0  0  0
    9.2369  -14.6593   17.4938 C   0  0  0  0  0  0  0  0  0  0  0  0
    8.4697  -13.3678   17.2672 C   0  0  0  0  0  0  0  0  0  0  0  0
    7.8573  -13.0530   18.6183 C   0  0  0  0  0  0  0  0  0  0  0  0
    8.8084  -13.8305   19.5384 C   0  0  1  0  0  0  0  0  0  0  0  0
    8.1944  -13.9567   20.8789 C   0  0  0  0  0  0  0  0  0  0  0  0
    7.7927  -12.9478   21.5165 O   0  0  0  0  0  0  0  0  0  0  0  0
    6.2466  -17.5618   21.7215 C   0  0  0  0  0  0  0  0  0  0  0  0
    7.0793  -17.0012   22.8385 C   0  0  1  0  0  0  0  0  0  0  0  0
    8.2677  -17.6833   22.9712 O   0  0  0  0  0  0  0  0  0  0  0  0
    7.2886  -15.5210   22.6045 C   0  0  2  0  0  0  0  0  0  0  0  0
    8.0741  -15.2647   21.4231 N   0  0  0  0  0  0  0  0  0  0  0  0
    7.9529  -14.9232   23.7878 C   0  0  0  0  0  0  0  0  0  0  0  0
    9.2021  -14.8350   23.8699 O   0  0  0  0  0  0  0  0  0  0  0  0
    7.6531  -11.9133   27.5831 C   0  0  0  0  0  0  0  0  0  0  0  0
    6.8757  -12.6480   26.5160 C   0  0  2  0  0  0  0  0  0  0  0  0
    5.6274  -13.2049   27.1367 C   0  0  0  0  0  0  0  0  0  0  0  0
    7.7806  -13.7412   25.9651 C   0  0  2  0  0  0  0  0  0  0  0  0
    7.1757  -14.4319   24.8662 N   0  0  0  0  0  0  0  0  0  0  0  0
    8.1920  -14.6426   27.0540 C   0  0  0  0  0  0  0  0  0  0  0  0
    7.7697  -15.8166   27.1311 O   0  0  0  0  0  0  0  0  0  0  0  0
    9.0675  -14.1882   28.0206 O   0  0  0  0  0  0  0  0  0  0  0  0
  1  5  1  0
  2  1  1  0
  3  4  1  0
  3  2  1  0
  4  5  1  0
  5  6  1  1
  6  7  2  0
  9  8  1  6
  9 11  1  0
 10  9  1  0
 11 13  1  0
 12  6  1  0
 11 12  1  6
 13 14  2  0
 13 19  1  0
 16 18  1  0
 16 15  1  1
 17 16  1  0
 18 20  1  0
 18 19  1  6
 20 22  1  0
 21 20  2  0
M  END
$$$$
