PTV.pdb
     RDKit          3D

 22 22  0  0  1  0  0  0  0  0999 V2000
    8.5307  -15.0726   19.0948 N   0  0  0  0  0  0  0  0  0  0  0  0
    8.8416  -14.5899   17.7544 C   0  0  0  0  0  0  0  0  0  0  0  0
    8.1456  -13.2451   17.6308 C   0  0  0  0  0  0  0  0  0  0  0  0
    7.6126  -12.9689   19.0233 C   0  0  0  0  0  0  0  0  0  0  0  0
    8.5533  -13.8498   19.8568 C   0  0  1  0  0  0  0  0  0  0  0  0
    7.9914  -14.0125   21.2160 C   0  0  0  0  0  0  0  0  0  0  0  0
    7.7288  -13.0184   21.9431 O   0  0  0  0  0  0  0  0  0  0  0  0
    5.7571  -17.4569   22.0406 C   0  0  0  0  0  0  0  0  0  0  0  0
    6.7503  -17.0620   23.0954 C   0  0  1  0  0  0  0  0  0  0  0  0
    7.8649  -17.8692   23.0643 O   0  0  0  0  0  0  0  0  0  0  0  0
    7.0950  -15.5983   22.9269 C   0  0  2  0  0  0  0  0  0  0  0  0
    7.7576  -15.3384   21.6732 N   0  0  0  0  0  0  0  0  0  0  0  0
    7.9588  -15.1620   24.0505 C   0  0  0  0  0  0  0  0  0  0  0  0
    9.2101  -15.1480   23.9551 O   0  0  0  0  0  0  0  0  0  0  0  0
    6.2337  -13.2073   27.3885 C   0  0  0  0  0  0  0  0  0  0  0  0
    7.6460  -12.9506   26.9170 C   0  0  2  0  0  0  0  0  0  0  0  0
    7.6114  -11.8608   25.8852 C   0  0  0  0  0  0  0  0  0  0  0  0
    8.1823  -14.2590   26.3532 C   0  0  2  0  0  0  0  0  0  0  0  0
    7.3769  -14.7455   25.2738 N   0  0  0  0  0  0  0  0  0  0  0  0
    8.3420  -15.2406   27.4387 C   0  0  0  0  0  0  0  0  0  0  0  0
    7.6759  -16.2977   27.4729 O   0  0  0  0  0  0  0  0  0  0  0  0
    9.2494  -14.9959   28.4507 O   0  0  0  0  0  0  0  0  0  0  0  0
  1  5  1  0
  2  1  1  0
  3  4  1  0
  3  2  1  0
  4  5  1  0
  5  6  1  1
  6  7  2  0
  9  8  1  6
  9 11  1  0
 10  9  1  0
 11 13  1  0
 12  6  1  0
 11 12  1  6
 13 14  2  0
 13 19  1  0
 16 18  1  0
 16 15  1  6
 17 16  1  0
 18 20  1  0
 18 19  1  6
 20 22  1  0
 21 20  2  0
M  END
$$$$
