PTV.pdb
     RDKit          3D

 22 22  0  0  1  0  0  0  0  0999 V2000
    8.7301  -15.1586   18.8928 N   0  0  0  0  0  0  0  0  0  0  0  0
    9.0564  -14.6924   17.5502 C   0  0  0  0  0  0  0  0  0  0  0  0
    8.3358  -13.3645   17.3903 C   0  0  0  0  0  0  0  0  0  0  0  0
    7.7711  -13.0757   18.7677 C   0  0  0  0  0  0  0  0  0  0  0  0
    8.7135  -13.9228   19.6337 C   0  0  1  0  0  0  0  0  0  0  0  0
    8.1294  -14.0739   20.9849 C   0  0  0  0  0  0  0  0  0  0  0  0
    7.8854  -13.0751   21.7120 O   0  0  0  0  0  0  0  0  0  0  0  0
    5.8382  -17.5145   21.7608 C   0  0  0  0  0  0  0  0  0  0  0  0
    6.7967  -17.1016   22.8407 C   0  0  1  0  0  0  0  0  0  0  0  0
    7.9149  -17.9043   22.8545 O   0  0  0  0  0  0  0  0  0  0  0  0
    7.1406  -15.6387   22.6638 C   0  0  2  0  0  0  0  0  0  0  0  0
    7.8524  -15.3941   21.4342 N   0  0  0  0  0  0  0  0  0  0  0  0
    7.9557  -15.1806   23.8147 C   0  0  0  0  0  0  0  0  0  0  0  0
    9.2097  -15.1584   23.7690 O   0  0  0  0  0  0  0  0  0  0  0  0
    8.1953  -12.2608   27.6531 C   0  0  0  0  0  0  0  0  0  0  0  0
    7.3500  -12.8484   26.5472 C   0  0  2  0  0  0  0  0  0  0  0  0
    5.9880  -13.1519   27.1008 C   0  0  0  0  0  0  0  0  0  0  0  0
    8.0593  -14.0994   26.0481 C   0  0  2  0  0  0  0  0  0  0  0  0
    7.3226  -14.7522   25.0080 N   0  0  0  0  0  0  0  0  0  0  0  0
    8.3604  -14.9874   27.1832 C   0  0  0  0  0  0  0  0  0  0  0  0
    9.1653  -14.6576   28.0808 O   0  0  0  0  0  0  0  0  0  0  0  0
    7.7421  -16.2194   27.2672 O   0  0  0  0  0  0  0  0  0  0  0  0
  1  5  1  0
  2  1  1  0
  3  4  1  0
  3  2  1  0
  4  5  1  0
  5  6  1  1
  6  7  2  0
  9  8  1  6
  9 11  1  0
 10  9  1  0
 11 13  1  0
 12  6  1  0
 11 12  1  6
 13 14  2  0
 13 19  1  0
 16 18  1  0
 16 15  1  1
 17 16  1  0
 18 20  1  0
 18 19  1  6
 20 22  1  0
 21 20  2  0
M  END
$$$$
