PTV.pdb
     RDKit          3D

 22 22  0  0  1  0  0  0  0  0999 V2000
    8.5606  -15.0215   19.4558 N   0  0  0  0  0  0  0  0  0  0  0  0
    8.6441  -14.4463   18.1185 C   0  0  0  0  0  0  0  0  0  0  0  0
    7.9453  -13.1001   18.2063 C   0  0  0  0  0  0  0  0  0  0  0  0
    7.6562  -12.9230   19.6844 C   0  0  0  0  0  0  0  0  0  0  0  0
    8.7186  -13.8537   20.2851 C   0  0  1  0  0  0  0  0  0  0  0  0
    8.3927  -14.1124   21.7052 C   0  0  0  0  0  0  0  0  0  0  0  0
    8.3175  -13.1765   22.5443 O   0  0  0  0  0  0  0  0  0  0  0  0
    5.9472  -17.2984   22.6666 C   0  0  0  0  0  0  0  0  0  0  0  0
    7.1925  -17.2133   23.5016 C   0  0  1  0  0  0  0  0  0  0  0  0
    8.1174  -18.1601   23.1235 O   0  0  0  0  0  0  0  0  0  0  0  0
    7.7446  -15.8066   23.4242 C   0  0  2  0  0  0  0  0  0  0  0  0
    8.1665  -15.4626   22.0893 N   0  0  0  0  0  0  0  0  0  0  0  0
    8.8860  -15.6720   24.3611 C   0  0  0  0  0  0  0  0  0  0  0  0
   10.0757  -15.7405   23.9673 O   0  0  0  0  0  0  0  0  0  0  0  0
   10.6050  -13.7029   28.3893 C   0  0  0  0  0  0  0  0  0  0  0  0
    9.5648  -13.8054   27.2983 C   0  0  2  0  0  0  0  0  0  0  0  0
    8.2086  -13.6281   27.9171 C   0  0  0  0  0  0  0  0  0  0  0  0
    9.7241  -15.1709   26.6446 C   0  0  2  0  0  0  0  0  0  0  0  0
    8.6503  -15.4598   25.7424 N   0  0  0  0  0  0  0  0  0  0  0  0
    9.8967  -16.2020   27.6812 C   0  0  0  0  0  0  0  0  0  0  0  0
    9.0145  -17.0570   27.9120 O   0  0  0  0  0  0  0  0  0  0  0  0
   11.0608  -16.2336   28.4236 O   0  0  0  0  0  0  0  0  0  0  0  0
  1  5  1  0
  2  1  1  0
  3  4  1  0
  3  2  1  0
  4  5  1  0
  5  6  1  1
  6  7  2  0
  9  8  1  6
  9 11  1  0
 10  9  1  0
 11 13  1  0
 12  6  1  0
 11 12  1  6
 13 14  2  0
 13 19  1  0
 16 18  1  0
 16 15  1  1
 17 16  1  0
 18 20  1  0
 18 19  1  1
 20 22  1  0
 21 20  2  0
M  END
$$$$
