PTV.pdb
     RDKit          3D

 22 22  0  0  1  0  0  0  0  0999 V2000
    8.5652  -14.9816   19.1271 N   0  0  0  0  0  0  0  0  0  0  0  0
    8.8471  -14.4876   17.7844 C   0  0  0  0  0  0  0  0  0  0  0  0
    8.0900  -13.1761   17.6621 C   0  0  0  0  0  0  0  0  0  0  0  0
    7.5519  -12.9219   19.0569 C   0  0  0  0  0  0  0  0  0  0  0  0
    8.5359  -13.7576   19.8870 C   0  0  1  0  0  0  0  0  0  0  0  0
    7.9887  -13.9433   21.2493 C   0  0  0  0  0  0  0  0  0  0  0  0
    7.6838  -12.9609   21.9757 O   0  0  0  0  0  0  0  0  0  0  0  0
    6.0311  -17.5611   22.1127 C   0  0  0  0  0  0  0  0  0  0  0  0
    6.9640  -17.0493   23.1725 C   0  0  1  0  0  0  0  0  0  0  0  0
    8.1478  -17.7518   23.1826 O   0  0  0  0  0  0  0  0  0  0  0  0
    7.1774  -15.5652   22.9688 C   0  0  2  0  0  0  0  0  0  0  0  0
    7.8190  -15.2776   21.7102 N   0  0  0  0  0  0  0  0  0  0  0  0
    7.9943  -15.0264   24.0828 C   0  0  0  0  0  0  0  0  0  0  0  0
    9.2443  -14.9446   24.0060 O   0  0  0  0  0  0  0  0  0  0  0  0
    6.0931  -13.2365   27.4620 C   0  0  0  0  0  0  0  0  0  0  0  0
    7.4354  -12.7868   26.9340 C   0  0  2  0  0  0  0  0  0  0  0  0
    7.2072  -11.7151   25.9079 C   0  0  0  0  0  0  0  0  0  0  0  0
    8.1252  -14.0092   26.3446 C   0  0  2  0  0  0  0  0  0  0  0  0
    7.3676  -14.5863   25.2753 N   0  0  0  0  0  0  0  0  0  0  0  0
    8.4333  -14.9716   27.4153 C   0  0  0  0  0  0  0  0  0  0  0  0
    7.9494  -16.1241   27.4230 O   0  0  0  0  0  0  0  0  0  0  0  0
    9.2782  -14.6005   28.4427 O   0  0  0  0  0  0  0  0  0  0  0  0
  1  5  1  0
  2  1  1  0
  3  4  1  0
  3  2  1  0
  4  5  1  0
  5  6  1  1
  6  7  2  0
  9  8  1  6
  9 11  1  0
 10  9  1  0
 11 13  1  0
 12  6  1  0
 11 12  1  6
 13 14  2  0
 13 19  1  0
 16 18  1  0
 16 15  1  6
 17 16  1  0
 18 20  1  0
 18 19  1  6
 20 22  1  0
 21 20  2  0
M  END
$$$$
