PTV.pdb
     RDKit          3D

 22 22  0  0  1  0  0  0  0  0999 V2000
    8.6744  -15.1690   19.0471 N   0  0  0  0  0  0  0  0  0  0  0  0
    9.0103  -14.7443   17.6931 C   0  0  0  0  0  0  0  0  0  0  0  0
    8.3222  -13.4034   17.5009 C   0  0  0  0  0  0  0  0  0  0  0  0
    7.7666  -13.0668   18.8711 C   0  0  0  0  0  0  0  0  0  0  0  0
    8.6891  -13.9152   19.7571 C   0  0  1  0  0  0  0  0  0  0  0  0
    8.1032  -14.0183   21.1121 C   0  0  0  0  0  0  0  0  0  0  0  0
    7.8818  -12.9959   21.8132 O   0  0  0  0  0  0  0  0  0  0  0  0
    5.7124  -17.3574   21.9335 C   0  0  0  0  0  0  0  0  0  0  0  0
    6.6678  -16.9618   23.0225 C   0  0  1  0  0  0  0  0  0  0  0  0
    7.7534  -17.8068   23.0708 O   0  0  0  0  0  0  0  0  0  0  0  0
    7.0716  -15.5170   22.8254 C   0  0  2  0  0  0  0  0  0  0  0  0
    7.7978  -15.3201   21.5957 N   0  0  0  0  0  0  0  0  0  0  0  0
    7.8999  -15.0748   23.9732 C   0  0  0  0  0  0  0  0  0  0  0  0
    9.1466  -15.2184   23.9824 O   0  0  0  0  0  0  0  0  0  0  0  0
    6.0604  -13.2221   27.3665 C   0  0  0  0  0  0  0  0  0  0  0  0
    7.4170  -12.7822   26.8675 C   0  0  2  0  0  0  0  0  0  0  0  0
    7.2243  -11.6386   25.9142 C   0  0  0  0  0  0  0  0  0  0  0  0
    8.0676  -13.9848   26.1983 C   0  0  2  0  0  0  0  0  0  0  0  0
    7.2880  -14.4716   25.1002 N   0  0  0  0  0  0  0  0  0  0  0  0
    8.3526  -15.0208   27.2047 C   0  0  0  0  0  0  0  0  0  0  0  0
    7.7834  -16.1335   27.1827 O   0  0  0  0  0  0  0  0  0  0  0  0
    9.2716  -14.7660   28.2036 O   0  0  0  0  0  0  0  0  0  0  0  0
  1  5  1  0
  2  1  1  0
  3  4  1  0
  3  2  1  0
  4  5  1  0
  5  6  1  1
  6  7  2  0
  9  8  1  6
  9 11  1  0
 10  9  1  0
 11 13  1  0
 12  6  1  0
 11 12  1  6
 13 14  2  0
 13 19  1  0
 16 18  1  0
 16 15  1  6
 17 16  1  0
 18 20  1  0
 18 19  1  6
 20 22  1  0
 21 20  2  0
M  END
$$$$
