PTV.pdb
     RDKit          3D

 22 22  0  0  1  0  0  0  0  0999 V2000
    8.3833  -15.1465   18.8832 N   0  0  0  0  0  0  0  0  0  0  0  0
    8.6349  -14.7480   17.5032 C   0  0  0  0  0  0  0  0  0  0  0  0
    8.0868  -13.3367   17.3770 C   0  0  0  0  0  0  0  0  0  0  0  0
    7.7049  -12.9543   18.7938 C   0  0  0  0  0  0  0  0  0  0  0  0
    8.6060  -13.9096   19.5882 C   0  0  1  0  0  0  0  0  0  0  0  0
    8.1433  -13.9606   20.9928 C   0  0  0  0  0  0  0  0  0  0  0  0
    8.0355  -12.9166   21.6887 O   0  0  0  0  0  0  0  0  0  0  0  0
    5.5643  -17.1041   21.8812 C   0  0  0  0  0  0  0  0  0  0  0  0
    6.5649  -16.7854   22.9547 C   0  0  1  0  0  0  0  0  0  0  0  0
    7.5845  -17.7099   22.9826 O   0  0  0  0  0  0  0  0  0  0  0  0
    7.0731  -15.3743   22.7539 C   0  0  2  0  0  0  0  0  0  0  0  0
    7.8234  -15.2374   21.5305 N   0  0  0  0  0  0  0  0  0  0  0  0
    7.9197  -14.9857   23.9076 C   0  0  0  0  0  0  0  0  0  0  0  0
    9.1723  -15.0451   23.8576 O   0  0  0  0  0  0  0  0  0  0  0  0
    6.1220  -13.4298   27.4766 C   0  0  0  0  0  0  0  0  0  0  0  0
    7.4363  -12.9121   26.9405 C   0  0  2  0  0  0  0  0  0  0  0  0
    7.1546  -11.7474   26.0363 C   0  0  0  0  0  0  0  0  0  0  0  0
    8.1116  -14.0609   26.2044 C   0  0  2  0  0  0  0  0  0  0  0  0
    7.3194  -14.5322   25.1086 N   0  0  0  0  0  0  0  0  0  0  0  0
    8.4633  -15.1253   27.1588 C   0  0  0  0  0  0  0  0  0  0  0  0
    9.2560  -14.9254   28.1044 O   0  0  0  0  0  0  0  0  0  0  0  0
    7.9079  -16.3814   27.0136 O   0  0  0  0  0  0  0  0  0  0  0  0
  1  5  1  0
  2  1  1  0
  3  4  1  0
  3  2  1  0
  4  5  1  0
  5  6  1  1
  6  7  2  0
  9  8  1  6
  9 11  1  0
 10  9  1  0
 11 13  1  0
 12  6  1  0
 11 12  1  6
 13 14  2  0
 13 19  1  0
 16 18  1  0
 16 15  1  6
 17 16  1  0
 18 20  1  0
 18 19  1  6
 20 22  1  0
 21 20  2  0
M  END
$$$$
