PTV.pdb
     RDKit          3D

 22 22  0  0  1  0  0  0  0  0999 V2000
   10.5685  -18.2886   20.8495 N   0  0  0  0  0  0  0  0  0  0  0  0
   11.4090  -19.1914   20.0717 C   0  0  0  0  0  0  0  0  0  0  0  0
   12.0751  -18.3250   19.0163 C   0  0  0  0  0  0  0  0  0  0  0  0
   11.6855  -16.9087   19.3928 C   0  0  0  0  0  0  0  0  0  0  0  0
   11.3771  -17.0964   20.8845 C   0  0  1  0  0  0  0  0  0  0  0  0
   10.6347  -15.9163   21.3807 C   0  0  0  0  0  0  0  0  0  0  0  0
   11.1363  -14.7617   21.3481 O   0  0  0  0  0  0  0  0  0  0  0  0
    6.8637  -15.2034   20.4304 C   0  0  0  0  0  0  0  0  0  0  0  0
    7.0259  -15.2945   21.9206 C   0  0  1  0  0  0  0  0  0  0  0  0
    6.5746  -16.5023   22.4028 O   0  0  0  0  0  0  0  0  0  0  0  0
    8.4738  -15.0374   22.2770 C   0  0  2  0  0  0  0  0  0  0  0  0
    9.3284  -16.1348   21.8978 N   0  0  0  0  0  0  0  0  0  0  0  0
    8.5875  -14.7940   23.7353 C   0  0  0  0  0  0  0  0  0  0  0  0
    9.2308  -15.5671   24.4860 O   0  0  0  0  0  0  0  0  0  0  0  0
    7.5515  -11.8685   27.5489 C   0  0  0  0  0  0  0  0  0  0  0  0
    7.1585  -12.2353   26.1369 C   0  0  2  0  0  0  0  0  0  0  0  0
    5.6860  -12.5263   26.1144 C   0  0  0  0  0  0  0  0  0  0  0  0
    7.9896  -13.4450   25.7329 C   0  0  2  0  0  0  0  0  0  0  0  0
    7.9609  -13.6643   24.3181 N   0  0  0  0  0  0  0  0  0  0  0  0
    7.5624  -14.6231   26.5057 C   0  0  0  0  0  0  0  0  0  0  0  0
    8.0169  -14.8623   27.6453 O   0  0  0  0  0  0  0  0  0  0  0  0
    6.6354  -15.4928   25.9657 O   0  0  0  0  0  0  0  0  0  0  0  0
  1  5  1  0
  2  1  1  0
  3  4  1  0
  3  2  1  0
  4  5  1  0
  5  6  1  6
  6  7  2  0
  9  8  1  6
  9 11  1  0
 10  9  1  0
 11 13  1  0
 12  6  1  0
 11 12  1  1
 13 14  2  0
 13 19  1  0
 16 18  1  0
 16 15  1  1
 17 16  1  0
 18 20  1  0
 18 19  1  6
 20 22  1  0
 21 20  2  0
M  END
$$$$
