PTV.pdb
     RDKit          3D

 22 22  0  0  1  0  0  0  0  0999 V2000
   10.5707  -18.4175   20.4541 N   0  0  0  0  0  0  0  0  0  0  0  0
   10.9471  -19.0032   19.1729 C   0  0  0  0  0  0  0  0  0  0  0  0
   11.1197  -17.8318   18.2209 C   0  0  0  0  0  0  0  0  0  0  0  0
   10.9941  -16.6070   19.1061 C   0  0  0  0  0  0  0  0  0  0  0  0
   11.3623  -17.2134   20.4672 C   0  0  1  0  0  0  0  0  0  0  0  0
   10.9623  -16.2777   21.5415 C   0  0  0  0  0  0  0  0  0  0  0  0
   11.5170  -15.1553   21.6771 O   0  0  0  0  0  0  0  0  0  0  0  0
    7.1320  -15.5467   22.3487 C   0  0  0  0  0  0  0  0  0  0  0  0
    7.8623  -16.0321   23.5678 C   0  0  1  0  0  0  0  0  0  0  0  0
    7.5741  -17.3515   23.8348 O   0  0  0  0  0  0  0  0  0  0  0  0
    9.3451  -15.7929   23.3841 C   0  0  2  0  0  0  0  0  0  0  0  0
    9.9240  -16.6941   22.4191 N   0  0  0  0  0  0  0  0  0  0  0  0
   10.0348  -15.9439   24.6880 C   0  0  0  0  0  0  0  0  0  0  0  0
   10.8521  -16.8726   24.8995 O   0  0  0  0  0  0  0  0  0  0  0  0
   10.9475  -14.2120   29.1925 C   0  0  0  0  0  0  0  0  0  0  0  0
   10.3261  -13.9129   27.8481 C   0  0  2  0  0  0  0  0  0  0  0  0
    8.9255  -13.4210   28.0714 C   0  0  0  0  0  0  0  0  0  0  0  0
   10.3606  -15.1991   27.0346 C   0  0  2  0  0  0  0  0  0  0  0  0
    9.7793  -15.0264   25.7374 N   0  0  0  0  0  0  0  0  0  0  0  0
    9.7387  -16.2906   27.8023 C   0  0  0  0  0  0  0  0  0  0  0  0
    8.5903  -16.7083   27.5395 O   0  0  0  0  0  0  0  0  0  0  0  0
   10.4347  -16.8748   28.8423 O   0  0  0  0  0  0  0  0  0  0  0  0
  1  5  1  0
  2  1  1  0
  3  4  1  0
  3  2  1  0
  4  5  1  0
  5  6  1  1
  6  7  2  0
  9  8  1  6
  9 11  1  0
 10  9  1  0
 11 13  1  0
 12  6  1  0
 11 12  1  6
 13 14  2  0
 13 19  1  0
 16 18  1  0
 16 15  1  1
 17 16  1  0
 18 20  1  0
 18 19  1  6
 20 22  1  0
 21 20  2  0
M  END
$$$$
