PTV.pdb
     RDKit          3D

 22 22  0  0  1  0  0  0  0  0999 V2000
    8.3936  -15.0867   19.9256 N   0  0  0  0  0  0  0  0  0  0  0  0
    8.4342  -14.5398   18.5745 C   0  0  0  0  0  0  0  0  0  0  0  0
    7.7523  -13.1848   18.6595 C   0  0  0  0  0  0  0  0  0  0  0  0
    7.5186  -12.9746   20.1430 C   0  0  0  0  0  0  0  0  0  0  0  0
    8.5929  -13.9040   20.7242 C   0  0  1  0  0  0  0  0  0  0  0  0
    8.3160  -14.1302   22.1602 C   0  0  0  0  0  0  0  0  0  0  0  0
    8.1687  -13.1699   22.9614 O   0  0  0  0  0  0  0  0  0  0  0  0
    5.8784  -17.1149   23.3024 C   0  0  0  0  0  0  0  0  0  0  0  0
    7.1775  -17.1550   24.0546 C   0  0  1  0  0  0  0  0  0  0  0  0
    7.9878  -18.1730   23.6052 O   0  0  0  0  0  0  0  0  0  0  0  0
    7.8469  -15.8014   23.9581 C   0  0  2  0  0  0  0  0  0  0  0  0
    8.2220  -15.4777   22.6042 N   0  0  0  0  0  0  0  0  0  0  0  0
    9.0466  -15.7807   24.8294 C   0  0  0  0  0  0  0  0  0  0  0  0
   10.1878  -16.0616   24.3892 O   0  0  0  0  0  0  0  0  0  0  0  0
    8.8975  -14.5489   29.0383 C   0  0  0  0  0  0  0  0  0  0  0  0
    9.9606  -14.1837   28.0287 C   0  0  2  0  0  0  0  0  0  0  0  0
    9.5547  -12.9063   27.3528 C   0  0  0  0  0  0  0  0  0  0  0  0
   10.0735  -15.3422   27.0476 C   0  0  2  0  0  0  0  0  0  0  0  0
    8.9241  -15.4374   26.1989 N   0  0  0  0  0  0  0  0  0  0  0  0
   10.3522  -16.5889   27.7794 C   0  0  0  0  0  0  0  0  0  0  0  0
    9.5221  -17.5221   27.8291 O   0  0  0  0  0  0  0  0  0  0  0  0
   11.5602  -16.7408   28.4314 O   0  0  0  0  0  0  0  0  0  0  0  0
  1  5  1  0
  2  1  1  0
  3  4  1  0
  3  2  1  0
  4  5  1  0
  5  6  1  1
  6  7  2  0
  9  8  1  6
  9 11  1  0
 10  9  1  0
 11 13  1  0
 12  6  1  0
 11 12  1  6
 13 14  2  0
 13 19  1  0
 16 18  1  0
 16 15  1  1
 17 16  1  0
 18 20  1  0
 18 19  1  1
 20 22  1  0
 21 20  2  0
M  END
$$$$
