FNN.pdb
     RDKit          3D

 28 28  0  0  1  0  0  0  0  0999 V2000
    6.0375  -18.0461   24.3611 N   0  0  0  0  0  0  0  0  0  0  0  0
    6.8310  -16.8575   24.4382 C   0  0  1  0  0  0  0  0  0  0  0  0
    6.7318  -16.2831   25.8203 C   0  0  0  0  0  0  0  0  0  0  0  0
    6.9909  -14.8247   25.7849 C   0  0  0  0  0  0  0  0  0  0  0  0
    7.5389  -14.1734   26.8839 C   0  0  0  0  0  0  0  0  0  0  0  0
    7.7646  -12.8152   26.8126 C   0  0  0  0  0  0  0  0  0  0  0  0
    7.4528  -12.0991   25.6644 C   0  0  0  0  0  0  0  0  0  0  0  0
    6.9083  -12.7505   24.5741 C   0  0  0  0  0  0  0  0  0  0  0  0
    6.6839  -14.1147   24.6521 C   0  0  0  0  0  0  0  0  0  0  0  0
    8.2183  -17.0534   23.9844 C   0  0  0  0  0  0  0  0  0  0  0  0
    8.7780  -18.1634   24.1792 O   0  0  0  0  0  0  0  0  0  0  0  0
    9.7406  -17.1220   19.8634 N   0  0  0  0  0  0  0  0  0  0  0  0
    9.8479  -15.8114   20.3882 C   0  0  0  0  0  0  0  0  0  0  0  0
    9.2327  -14.8939   19.7259 O   0  0  0  0  0  0  0  0  0  0  0  0
   10.6037  -15.4760   21.6052 C   0  0  0  0  0  0  0  0  0  0  0  0
   10.3102  -16.3188   22.7788 C   0  0  2  0  0  0  0  0  0  0  0  0
    8.9829  -16.0586   23.3304 N   0  0  0  0  0  0  0  0  0  0  0  0
   11.2851  -16.1880   23.8589 C   0  0  0  0  0  0  0  0  0  0  0  0
   12.5397  -16.3703   23.6202 O   0  0  0  0  0  0  0  0  0  0  0  0
   11.8635  -19.4817   27.7806 N   0  0  0  0  0  0  0  0  0  0  0  0
   11.2741  -18.2093   28.0513 C   0  0  0  0  0  0  0  0  0  0  0  0
   11.2984  -17.8256   29.2254 O   0  0  0  0  0  0  0  0  0  0  0  0
   10.6754  -17.4120   26.9818 C   0  0  0  0  0  0  0  0  0  0  0  0
   11.6899  -16.5615   26.2741 C   0  0  2  0  0  0  0  0  0  0  0  0
   10.9396  -15.8637   25.1782 N   0  0  0  0  0  0  0  0  0  0  0  0
   12.6830  -17.3928   25.5870 C   0  0  0  0  0  0  0  0  0  0  0  0
   13.8680  -17.4490   25.9776 O   0  0  0  0  0  0  0  0  0  0  0  0
   12.3530  -18.1459   24.4855 O   0  0  0  0  0  0  0  0  0  0  0  0
  2  1  1  1
  2  3  1  0
  3  4  1  0
  4  9  2  0
  4  5  1  0
  5  6  2  0
  6  7  1  0
  8  7  2  0
  9  8  1  0
 10  2  1  0
 11 10  2  0
 13 12  1  0
 13 15  1  0
 14 13  2  0
 16 15  1  6
 16 18  1  0
 16 17  1  0
 17 10  1  0
 18 19  2  0
 20 21  1  0
 21 22  2  0
 24 23  1  6
 23 21  1  0
 25 24  1  0
 25 18  1  0
 26 24  1  0
 26 28  1  0
 27 26  2  0
M  END
$$$$
