FNN.pdb
     RDKit          3D

 28 28  0  0  1  0  0  0  0  0999 V2000
    6.0136  -17.4660   24.6397 N   0  0  0  0  0  0  0  0  0  0  0  0
    7.0006  -16.4344   24.7394 C   0  0  1  0  0  0  0  0  0  0  0  0
    6.9585  -15.8384   26.1152 C   0  0  0  0  0  0  0  0  0  0  0  0
    6.8028  -14.3675   26.0279 C   0  0  0  0  0  0  0  0  0  0  0  0
    5.5464  -13.7794   26.1175 C   0  0  0  0  0  0  0  0  0  0  0  0
    5.4423  -12.4073   26.0310 C   0  0  0  0  0  0  0  0  0  0  0  0
    6.5698  -11.6156   25.8570 C   0  0  0  0  0  0  0  0  0  0  0  0
    7.8168  -12.2043   25.7684 C   0  0  0  0  0  0  0  0  0  0  0  0
    7.9146  -13.5828   25.8560 C   0  0  0  0  0  0  0  0  0  0  0  0
    8.3460  -16.8751   24.3338 C   0  0  0  0  0  0  0  0  0  0  0  0
    8.6277  -18.1011   24.3675 O   0  0  0  0  0  0  0  0  0  0  0  0
   12.4627  -17.0851   20.6447 N   0  0  0  0  0  0  0  0  0  0  0  0
   12.3253  -16.0101   21.5558 C   0  0  0  0  0  0  0  0  0  0  0  0
   13.4083  -15.3678   21.8272 O   0  0  0  0  0  0  0  0  0  0  0  0
   11.0492  -15.6204   22.1759 C   0  0  0  0  0  0  0  0  0  0  0  0
   10.6119  -16.4694   23.2991 C   0  0  2  0  0  0  0  0  0  0  0  0
    9.3668  -15.9969   23.8995 N   0  0  0  0  0  0  0  0  0  0  0  0
   11.6065  -16.6033   24.3608 C   0  0  0  0  0  0  0  0  0  0  0  0
   12.6560  -15.8531   24.3591 O   0  0  0  0  0  0  0  0  0  0  0  0
   11.3050  -14.0351   28.6387 N   0  0  0  0  0  0  0  0  0  0  0  0
   10.8637  -15.3708   28.3927 C   0  0  0  0  0  0  0  0  0  0  0  0
   10.5551  -16.0437   29.3818 O   0  0  0  0  0  0  0  0  0  0  0  0
   10.7862  -15.9018   27.0326 C   0  0  0  0  0  0  0  0  0  0  0  0
   11.7751  -17.0068   26.7991 C   0  0  2  0  0  0  0  0  0  0  0  0
   11.4925  -17.5178   25.4171 N   0  0  0  0  0  0  0  0  0  0  0  0
   11.5109  -18.1429   27.6873 C   0  0  0  0  0  0  0  0  0  0  0  0
   12.1505  -18.3032   28.7480 O   0  0  0  0  0  0  0  0  0  0  0  0
   10.5485  -19.0788   27.3918 O   0  0  0  0  0  0  0  0  0  0  0  0
  2  1  1  1
  2  3  1  0
  3  4  1  0
  4  9  2  0
  4  5  1  0
  5  6  2  0
  6  7  1  0
  8  7  2  0
  9  8  1  0
 10  2  1  0
 11 10  2  0
 13 12  1  0
 13 15  1  0
 14 13  2  0
 16 15  1  6
 16 18  1  0
 16 17  1  0
 17 10  1  0
 18 19  2  0
 20 21  1  0
 21 22  2  0
 24 23  1  1
 23 21  1  0
 25 24  1  0
 25 18  1  0
 26 24  1  0
 26 28  1  0
 27 26  2  0
M  END
$$$$
