FNN.pdb
     RDKit          3D

 28 28  0  0  1  0  0  0  0  0999 V2000
    7.3026  -14.8597   22.7935 N   0  0  0  0  0  0  0  0  0  0  0  0
    8.2022  -15.4887   23.7119 C   0  0  1  0  0  0  0  0  0  0  0  0
    7.7133  -15.2717   25.1132 C   0  0  0  0  0  0  0  0  0  0  0  0
    7.3253  -13.8544   25.3028 C   0  0  0  0  0  0  0  0  0  0  0  0
    6.2356  -13.5160   26.0968 C   0  0  0  0  0  0  0  0  0  0  0  0
    5.9056  -12.1860   26.2484 C   0  0  0  0  0  0  0  0  0  0  0  0
    6.6445  -11.1914   25.6213 C   0  0  0  0  0  0  0  0  0  0  0  0
    7.7270  -11.5321   24.8330 C   0  0  0  0  0  0  0  0  0  0  0  0
    8.0533  -12.8696   24.6847 C   0  0  0  0  0  0  0  0  0  0  0  0
    8.4619  -16.9034   23.3954 C   0  0  0  0  0  0  0  0  0  0  0  0
    7.8369  -17.4463   22.4477 O   0  0  0  0  0  0  0  0  0  0  0  0
   10.4918  -18.1397   21.1242 N   0  0  0  0  0  0  0  0  0  0  0  0
   11.0465  -16.9109   21.5562 C   0  0  0  0  0  0  0  0  0  0  0  0
   11.4309  -16.1135   20.6206 O   0  0  0  0  0  0  0  0  0  0  0  0
   11.1945  -16.5313   22.9700 C   0  0  0  0  0  0  0  0  0  0  0  0
   10.8314  -17.5783   23.9425 C   0  0  2  0  0  0  0  0  0  0  0  0
    9.3852  -17.7130   24.0983 N   0  0  0  0  0  0  0  0  0  0  0  0
   11.4151  -17.3823   25.2673 C   0  0  0  0  0  0  0  0  0  0  0  0
   12.6899  -17.2299   25.3938 O   0  0  0  0  0  0  0  0  0  0  0  0
   11.0897  -14.4814   27.0565 N   0  0  0  0  0  0  0  0  0  0  0  0
   10.2308  -15.0671   28.0358 C   0  0  0  0  0  0  0  0  0  0  0  0
    9.2262  -14.4203   28.3500 O   0  0  0  0  0  0  0  0  0  0  0  0
   10.5382  -16.3680   28.6281 C   0  0  0  0  0  0  0  0  0  0  0  0
   11.4124  -17.2029   27.7380 C   0  0  2  0  0  0  0  0  0  0  0  0
   10.6599  -17.3433   26.4477 N   0  0  0  0  0  0  0  0  0  0  0  0
   11.5372  -18.5683   28.2572 C   0  0  0  0  0  0  0  0  0  0  0  0
   10.5394  -19.3067   28.3950 O   0  0  0  0  0  0  0  0  0  0  0  0
   12.7563  -19.0942   28.6131 O   0  0  0  0  0  0  0  0  0  0  0  0
  2  1  1  6
  2  3  1  0
  3  4  1  0
  4  9  2  0
  4  5  1  0
  5  6  2  0
  6  7  1  0
  8  7  2  0
  9  8  1  0
 10  2  1  0
 11 10  2  0
 13 12  1  0
 13 15  1  0
 14 13  2  0
 16 15  1  6
 16 18  1  0
 16 17  1  0
 17 10  1  0
 18 19  2  0
 20 21  1  0
 21 22  2  0
 24 23  1  1
 23 21  1  0
 25 24  1  0
 25 18  1  0
 26 24  1  0
 26 28  1  0
 27 26  2  0
M  END
$$$$
