FNN.pdb
     RDKit          3D

 28 28  0  0  1  0  0  0  0  0999 V2000
    5.8575  -16.8463   24.8090 N   0  0  0  0  0  0  0  0  0  0  0  0
    6.7273  -15.7577   24.4826 C   0  0  1  0  0  0  0  0  0  0  0  0
    7.4034  -15.2712   25.7300 C   0  0  0  0  0  0  0  0  0  0  0  0
    7.0178  -13.8668   26.0029 C   0  0  0  0  0  0  0  0  0  0  0  0
    7.7148  -12.8130   25.4231 C   0  0  0  0  0  0  0  0  0  0  0  0
    7.3261  -11.5200   25.7020 C   0  0  0  0  0  0  0  0  0  0  0  0
    6.2555  -11.2634   26.5483 C   0  0  0  0  0  0  0  0  0  0  0  0
    5.5654  -12.3138   27.1226 C   0  0  0  0  0  0  0  0  0  0  0  0
    5.9607  -13.6101   26.8385 C   0  0  0  0  0  0  0  0  0  0  0  0
    7.6665  -16.0700   23.3920 C   0  0  0  0  0  0  0  0  0  0  0  0
    7.9988  -17.2669   23.1906 O   0  0  0  0  0  0  0  0  0  0  0  0
    7.2433  -12.8315   19.6549 N   0  0  0  0  0  0  0  0  0  0  0  0
    7.7839  -14.1338   19.7814 C   0  0  0  0  0  0  0  0  0  0  0  0
    7.0378  -15.0912   19.3505 O   0  0  0  0  0  0  0  0  0  0  0  0
    9.1052  -14.4191   20.3625 C   0  0  0  0  0  0  0  0  0  0  0  0
    9.1166  -15.4419   21.4243 C   0  0  2  0  0  0  0  0  0  0  0  0
    8.2342  -15.0968   22.5362 N   0  0  0  0  0  0  0  0  0  0  0  0
   10.4451  -15.7162   21.9664 C   0  0  0  0  0  0  0  0  0  0  0  0
   11.4495  -14.9897   21.6092 O   0  0  0  0  0  0  0  0  0  0  0  0
   11.2436  -15.6374   25.5094 N   0  0  0  0  0  0  0  0  0  0  0  0
   11.6467  -16.9987   25.6640 C   0  0  0  0  0  0  0  0  0  0  0  0
   11.5841  -17.4693   26.8046 O   0  0  0  0  0  0  0  0  0  0  0  0
   12.1084  -17.7837   24.5201 C   0  0  0  0  0  0  0  0  0  0  0  0
   12.1450  -16.9747   23.2562 C   0  0  2  0  0  0  0  0  0  0  0  0
   10.7106  -16.7453   22.8806 N   0  0  0  0  0  0  0  0  0  0  0  0
   12.7086  -17.7551   22.1504 C   0  0  0  0  0  0  0  0  0  0  0  0
   13.8906  -17.5984   21.7785 O   0  0  0  0  0  0  0  0  0  0  0  0
   11.9619  -18.6923   21.4770 O   0  0  0  0  0  0  0  0  0  0  0  0
  2  1  1  1
  2  3  1  0
  3  4  1  0
  4  9  2  0
  4  5  1  0
  5  6  2  0
  6  7  1  0
  8  7  2  0
  9  8  1  0
 10  2  1  0
 11 10  2  0
 13 12  1  0
 13 15  1  0
 14 13  2  0
 16 15  1  6
 16 18  1  0
 16 17  1  0
 17 10  1  0
 18 19  2  0
 20 21  1  0
 21 22  2  0
 24 23  1  1
 23 21  1  0
 25 24  1  0
 25 18  1  0
 26 24  1  0
 26 28  1  0
 27 26  2  0
M  END
$$$$
