FNN.pdb
     RDKit          3D

 28 28  0  0  1  0  0  0  0  0999 V2000
    6.6686  -16.1914   24.9074 N   0  0  0  0  0  0  0  0  0  0  0  0
    7.1232  -15.1100   24.0875 C   0  0  1  0  0  0  0  0  0  0  0  0
    8.2541  -14.4058   24.7768 C   0  0  0  0  0  0  0  0  0  0  0  0
    7.7260  -13.4935   25.8181 C   0  0  0  0  0  0  0  0  0  0  0  0
    8.2209  -13.5348   27.1165 C   0  0  0  0  0  0  0  0  0  0  0  0
    7.7035  -12.6701   28.0574 C   0  0  0  0  0  0  0  0  0  0  0  0
    6.7025  -11.7674   27.7232 C   0  0  0  0  0  0  0  0  0  0  0  0
    6.2135  -11.7297   26.4314 C   0  0  0  0  0  0  0  0  0  0  0  0
    6.7373  -12.6007   25.4910 C   0  0  0  0  0  0  0  0  0  0  0  0
    7.4422  -15.5188   22.7091 C   0  0  0  0  0  0  0  0  0  0  0  0
    7.3400  -16.7313   22.3881 O   0  0  0  0  0  0  0  0  0  0  0  0
    8.7908  -15.6232   17.5661 N   0  0  0  0  0  0  0  0  0  0  0  0
    8.2525  -14.3719   17.9521 C   0  0  0  0  0  0  0  0  0  0  0  0
    7.9894  -13.5575   16.9895 O   0  0  0  0  0  0  0  0  0  0  0  0
    7.9971  -13.9862   19.3489 C   0  0  0  0  0  0  0  0  0  0  0  0
    8.1851  -15.0603   20.3412 C   0  0  2  0  0  0  0  0  0  0  0  0
    7.8651  -14.6239   21.6981 N   0  0  0  0  0  0  0  0  0  0  0  0
    9.5318  -15.6263   20.3513 C   0  0  0  0  0  0  0  0  0  0  0  0
    9.9258  -16.3698   19.3735 O   0  0  0  0  0  0  0  0  0  0  0  0
   12.4093  -13.4102   19.2270 N   0  0  0  0  0  0  0  0  0  0  0  0
   12.8663  -14.6954   19.6501 C   0  0  0  0  0  0  0  0  0  0  0  0
   13.3109  -15.4423   18.7722 O   0  0  0  0  0  0  0  0  0  0  0  0
   12.8047  -15.0932   21.0557 C   0  0  0  0  0  0  0  0  0  0  0  0
   11.7604  -16.1432   21.3015 C   0  0  2  0  0  0  0  0  0  0  0  0
   10.4561  -15.4062   21.3821 N   0  0  0  0  0  0  0  0  0  0  0  0
   11.9342  -16.7564   22.6219 C   0  0  0  0  0  0  0  0  0  0  0  0
   12.9496  -17.4285   22.8996 O   0  0  0  0  0  0  0  0  0  0  0  0
   10.9889  -16.6172   23.6100 O   0  0  0  0  0  0  0  0  0  0  0  0
  2  1  1  1
  2  3  1  0
  3  4  1  0
  4  9  2  0
  4  5  1  0
  5  6  2  0
  6  7  1  0
  8  7  2  0
  9  8  1  0
 10  2  1  0
 11 10  2  0
 13 12  1  0
 13 15  1  0
 14 13  2  0
 16 15  1  6
 16 18  1  0
 16 17  1  0
 17 10  1  0
 18 19  2  0
 20 21  1  0
 21 22  2  0
 24 23  1  1
 23 21  1  0
 25 24  1  0
 25 18  1  0
 26 24  1  0
 26 28  1  0
 27 26  2  0
M  END
$$$$
