FNN.pdb
     RDKit          3D

 28 28  0  0  1  0  0  0  0  0999 V2000
    5.7028  -17.4194   25.1302 N   0  0  0  0  0  0  0  0  0  0  0  0
    6.6552  -16.3644   24.9621 C   0  0  1  0  0  0  0  0  0  0  0  0
    6.9913  -15.7807   26.3023 C   0  0  0  0  0  0  0  0  0  0  0  0
    6.8746  -14.3043   26.2579 C   0  0  0  0  0  0  0  0  0  0  0  0
    5.6357  -13.6855   26.3785 C   0  0  0  0  0  0  0  0  0  0  0  0
    5.5680  -12.3092   26.3317 C   0  0  0  0  0  0  0  0  0  0  0  0
    6.7147  -11.5434   26.1669 C   0  0  0  0  0  0  0  0  0  0  0  0
    7.9442  -12.1627   26.0475 C   0  0  0  0  0  0  0  0  0  0  0  0
    8.0055  -13.5452   26.0953 C   0  0  0  0  0  0  0  0  0  0  0  0
    7.8400  -16.7681   24.1861 C   0  0  0  0  0  0  0  0  0  0  0  0
    8.2942  -17.9341   24.3193 O   0  0  0  0  0  0  0  0  0  0  0  0
   10.8461  -16.8333   19.3745 N   0  0  0  0  0  0  0  0  0  0  0  0
   11.0258  -15.9455   20.4626 C   0  0  0  0  0  0  0  0  0  0  0  0
   12.2317  -15.5356   20.6541 O   0  0  0  0  0  0  0  0  0  0  0  0
    9.9350  -15.4972   21.3425 C   0  0  0  0  0  0  0  0  0  0  0  0
    9.6899  -16.3475   22.5217 C   0  0  2  0  0  0  0  0  0  0  0  0
    8.5185  -15.9178   23.2815 N   0  0  0  0  0  0  0  0  0  0  0  0
   10.8236  -16.4257   23.4397 C   0  0  0  0  0  0  0  0  0  0  0  0
   11.0725  -15.4462   24.2414 O   0  0  0  0  0  0  0  0  0  0  0  0
   12.2576  -18.0738   28.0183 N   0  0  0  0  0  0  0  0  0  0  0  0
   11.6528  -18.8464   26.9806 C   0  0  0  0  0  0  0  0  0  0  0  0
   11.5529  -20.0615   27.1806 O   0  0  0  0  0  0  0  0  0  0  0  0
   11.1803  -18.2168   25.7485 C   0  0  0  0  0  0  0  0  0  0  0  0
   12.3120  -17.8207   24.8453 C   0  0  2  0  0  0  0  0  0  0  0  0
   11.6846  -17.5295   23.5138 N   0  0  0  0  0  0  0  0  0  0  0  0
   13.2109  -18.9534   24.6037 C   0  0  0  0  0  0  0  0  0  0  0  0
   13.1393  -19.6302   23.5564 O   0  0  0  0  0  0  0  0  0  0  0  0
   14.1707  -19.3180   25.5176 O   0  0  0  0  0  0  0  0  0  0  0  0
  2  1  1  1
  2  3  1  0
  3  4  1  0
  4  9  2  0
  4  5  1  0
  5  6  2  0
  6  7  1  0
  8  7  2  0
  9  8  1  0
 10  2  1  0
 11 10  2  0
 13 12  1  0
 13 15  1  0
 14 13  2  0
 16 15  1  6
 16 18  1  0
 16 17  1  0
 17 10  1  0
 18 19  2  0
 20 21  1  0
 21 22  2  0
 24 23  1  1
 23 21  1  0
 25 24  1  0
 25 18  1  0
 26 24  1  0
 26 28  1  0
 27 26  2  0
M  END
$$$$
