FNN.pdb
     RDKit          3D

 28 28  0  0  1  0  0  0  0  0999 V2000
    8.9297  -17.1356   20.6794 N   0  0  0  0  0  0  0  0  0  0  0  0
   10.0368  -16.2683   20.4136 C   0  0  1  0  0  0  0  0  0  0  0  0
    9.8738  -15.0005   21.1985 C   0  0  0  0  0  0  0  0  0  0  0  0
    8.7838  -14.1805   20.6199 C   0  0  0  0  0  0  0  0  0  0  0  0
    8.9501  -13.5368   19.3991 C   0  0  0  0  0  0  0  0  0  0  0  0
    7.9127  -12.7823   18.8939 C   0  0  0  0  0  0  0  0  0  0  0  0
    6.7152  -12.6609   19.5865 C   0  0  0  0  0  0  0  0  0  0  0  0
    6.5541  -13.3025   20.7996 C   0  0  0  0  0  0  0  0  0  0  0  0
    7.5998  -14.0587   21.3017 C   0  0  0  0  0  0  0  0  0  0  0  0
   11.3444  -16.9158   20.6132 C   0  0  0  0  0  0  0  0  0  0  0  0
   11.4798  -17.7549   21.5412 O   0  0  0  0  0  0  0  0  0  0  0  0
   13.8630  -17.5745   16.5143 N   0  0  0  0  0  0  0  0  0  0  0  0
   14.2371  -18.0776   17.7837 C   0  0  0  0  0  0  0  0  0  0  0  0
   14.1760  -19.3574   17.9160 O   0  0  0  0  0  0  0  0  0  0  0  0
   14.6709  -17.2297   18.9053 C   0  0  0  0  0  0  0  0  0  0  0  0
   13.7896  -17.2525   20.0869 C   0  0  2  0  0  0  0  0  0  0  0  0
   12.4844  -16.6545   19.8170 N   0  0  0  0  0  0  0  0  0  0  0  0
   14.3576  -16.5936   21.2605 C   0  0  0  0  0  0  0  0  0  0  0  0
   14.6096  -15.3288   21.2307 O   0  0  0  0  0  0  0  0  0  0  0  0
   12.4144  -16.0295   25.1940 N   0  0  0  0  0  0  0  0  0  0  0  0
   13.1724  -17.2180   24.9646 C   0  0  0  0  0  0  0  0  0  0  0  0
   12.5355  -18.2726   24.8730 O   0  0  0  0  0  0  0  0  0  0  0  0
   14.6291  -17.1731   24.8464 C   0  0  0  0  0  0  0  0  0  0  0  0
   15.0750  -16.4221   23.6255 C   0  0  2  0  0  0  0  0  0  0  0  0
   14.6532  -17.2627   22.4565 N   0  0  0  0  0  0  0  0  0  0  0  0
   16.5380  -16.3683   23.5484 C   0  0  0  0  0  0  0  0  0  0  0  0
   17.1796  -17.1345   22.7993 O   0  0  0  0  0  0  0  0  0  0  0  0
   17.2656  -15.4726   24.2953 O   0  0  0  0  0  0  0  0  0  0  0  0
  2  1  1  1
  2  3  1  0
  3  4  1  0
  4  9  2  0
  4  5  1  0
  5  6  2  0
  6  7  1  0
  8  7  2  0
  9  8  1  0
 10  2  1  0
 11 10  2  0
 13 12  1  0
 13 15  1  0
 14 13  2  0
 16 15  1  6
 16 18  1  0
 16 17  1  0
 17 10  1  0
 18 19  2  0
 20 21  1  0
 21 22  2  0
 24 23  1  1
 23 21  1  0
 25 24  1  0
 25 18  1  0
 26 24  1  0
 26 28  1  0
 27 26  2  0
M  END
$$$$
