FNN.pdb
     RDKit          3D

 28 28  0  0  1  0  0  0  0  0999 V2000
    5.7582  -17.7631   24.9010 N   0  0  0  0  0  0  0  0  0  0  0  0
    6.4159  -16.4924   24.9361 C   0  0  1  0  0  0  0  0  0  0  0  0
    6.5363  -16.0349   26.3595 C   0  0  0  0  0  0  0  0  0  0  0  0
    6.6910  -14.5621   26.4090 C   0  0  0  0  0  0  0  0  0  0  0  0
    5.6376  -13.7248   26.0602 C   0  0  0  0  0  0  0  0  0  0  0  0
    5.8207  -12.3596   26.1185 C   0  0  0  0  0  0  0  0  0  0  0  0
    7.0356  -11.8188   26.5186 C   0  0  0  0  0  0  0  0  0  0  0  0
    8.0801  -12.6548   26.8644 C   0  0  0  0  0  0  0  0  0  0  0  0
    7.8899  -14.0250   26.8037 C   0  0  0  0  0  0  0  0  0  0  0  0
    7.6955  -16.4792   24.2071 C   0  0  0  0  0  0  0  0  0  0  0  0
    8.4033  -17.5196   24.1883 O   0  0  0  0  0  0  0  0  0  0  0  0
    7.3814  -13.0295   20.6886 N   0  0  0  0  0  0  0  0  0  0  0  0
    8.1697  -14.2015   20.7865 C   0  0  0  0  0  0  0  0  0  0  0  0
    7.7782  -15.1979   20.0703 O   0  0  0  0  0  0  0  0  0  0  0  0
    9.3633  -14.3166   21.6391 C   0  0  0  0  0  0  0  0  0  0  0  0
    9.3395  -15.4299   22.6055 C   0  0  2  0  0  0  0  0  0  0  0  0
    8.1962  -15.3535   23.5114 N   0  0  0  0  0  0  0  0  0  0  0  0
   10.5525  -15.5379   23.4124 C   0  0  0  0  0  0  0  0  0  0  0  0
   11.7101  -15.5014   22.8440 O   0  0  0  0  0  0  0  0  0  0  0  0
   11.3965  -16.4839   29.0301 N   0  0  0  0  0  0  0  0  0  0  0  0
   10.9180  -16.1404   27.7292 C   0  0  0  0  0  0  0  0  0  0  0  0
    9.8555  -16.6611   27.3739 O   0  0  0  0  0  0  0  0  0  0  0  0
   11.6596  -15.2169   26.8717 C   0  0  0  0  0  0  0  0  0  0  0  0
   11.8748  -15.7728   25.4940 C   0  0  2  0  0  0  0  0  0  0  0  0
   10.5443  -15.6791   24.8071 N   0  0  0  0  0  0  0  0  0  0  0  0
   12.1757  -17.2067   25.5484 C   0  0  0  0  0  0  0  0  0  0  0  0
   11.3828  -18.0566   25.0913 O   0  0  0  0  0  0  0  0  0  0  0  0
   13.3423  -17.6767   26.1029 O   0  0  0  0  0  0  0  0  0  0  0  0
  2  1  1  1
  2  3  1  0
  3  4  1  0
  4  9  2  0
  4  5  1  0
  5  6  2  0
  6  7  1  0
  8  7  2  0
  9  8  1  0
 10  2  1  0
 11 10  2  0
 13 12  1  0
 13 15  1  0
 14 13  2  0
 16 15  1  1
 16 18  1  0
 16 17  1  0
 17 10  1  0
 18 19  2  0
 20 21  1  0
 21 22  2  0
 24 23  1  1
 23 21  1  0
 25 24  1  0
 25 18  1  0
 26 24  1  0
 26 28  1  0
 27 26  2  0
M  END
$$$$
