FNN.pdb
     RDKit          3D

 28 28  0  0  1  0  0  0  0  0999 V2000
    6.8243  -17.3315   26.0231 N   0  0  0  0  0  0  0  0  0  0  0  0
    6.4844  -16.7712   24.7508 C   0  0  1  0  0  0  0  0  0  0  0  0
    5.8222  -15.4409   24.9550 C   0  0  0  0  0  0  0  0  0  0  0  0
    6.7096  -14.5451   25.7331 C   0  0  0  0  0  0  0  0  0  0  0  0
    7.5237  -15.0507   26.7400 C   0  0  0  0  0  0  0  0  0  0  0  0
    8.3351  -14.1851   27.4422 C   0  0  0  0  0  0  0  0  0  0  0  0
    8.3463  -12.8263   27.1556 C   0  0  0  0  0  0  0  0  0  0  0  0
    7.5355  -12.3279   26.1538 C   0  0  0  0  0  0  0  0  0  0  0  0
    6.7229  -13.2025   25.4522 C   0  0  0  0  0  0  0  0  0  0  0  0
    7.6202  -16.7216   23.8146 C   0  0  0  0  0  0  0  0  0  0  0  0
    8.3476  -17.7391   23.6759 O   0  0  0  0  0  0  0  0  0  0  0  0
    7.1303  -12.8777   20.4211 N   0  0  0  0  0  0  0  0  0  0  0  0
    7.7494  -14.1483   20.5045 C   0  0  0  0  0  0  0  0  0  0  0  0
    7.1233  -15.1124   19.9236 O   0  0  0  0  0  0  0  0  0  0  0  0
    9.0221  -14.3950   21.2004 C   0  0  0  0  0  0  0  0  0  0  0  0
    9.0436  -15.5888   22.0653 C   0  0  2  0  0  0  0  0  0  0  0  0
    7.9585  -15.5847   23.0433 N   0  0  0  0  0  0  0  0  0  0  0  0
   10.3021  -15.7759   22.7831 C   0  0  0  0  0  0  0  0  0  0  0  0
   11.4237  -15.6831   22.1526 O   0  0  0  0  0  0  0  0  0  0  0  0
   13.8601  -14.9026   26.9709 N   0  0  0  0  0  0  0  0  0  0  0  0
   12.8159  -15.8768   26.9574 C   0  0  0  0  0  0  0  0  0  0  0  0
   12.9968  -16.8929   27.6364 O   0  0  0  0  0  0  0  0  0  0  0  0
   11.5990  -15.6680   26.1741 C   0  0  0  0  0  0  0  0  0  0  0  0
   11.7455  -16.1525   24.7609 C   0  0  2  0  0  0  0  0  0  0  0  0
   10.3765  -16.0542   24.1551 N   0  0  0  0  0  0  0  0  0  0  0  0
   12.0756  -17.5805   24.7279 C   0  0  0  0  0  0  0  0  0  0  0  0
   11.1843  -18.4555   24.7326 O   0  0  0  0  0  0  0  0  0  0  0  0
   13.3783  -18.0174   24.6892 O   0  0  0  0  0  0  0  0  0  0  0  0
  2  1  1  1
  2  3  1  0
  3  4  1  0
  4  9  2  0
  4  5  1  0
  5  6  2  0
  6  7  1  0
  8  7  2  0
  9  8  1  0
 10  2  1  0
 11 10  2  0
 13 12  1  0
 13 15  1  0
 14 13  2  0
 16 15  1  1
 16 18  1  0
 16 17  1  0
 17 10  1  0
 18 19  2  0
 20 21  1  0
 21 22  2  0
 24 23  1  1
 23 21  1  0
 25 24  1  0
 25 18  1  0
 26 24  1  0
 26 28  1  0
 27 26  2  0
M  END
$$$$
