FNN.pdb
     RDKit          3D

 28 28  0  0  1  0  0  0  0  0999 V2000
    6.1210  -17.7923   23.9756 N   0  0  0  0  0  0  0  0  0  0  0  0
    6.9644  -16.7075   24.3760 C   0  0  1  0  0  0  0  0  0  0  0  0
    6.6352  -16.3171   25.7863 C   0  0  0  0  0  0  0  0  0  0  0  0
    7.0447  -14.9149   26.0347 C   0  0  0  0  0  0  0  0  0  0  0  0
    7.5238  -14.1205   24.9995 C   0  0  0  0  0  0  0  0  0  0  0  0
    7.8955  -12.8208   25.2706 C   0  0  0  0  0  0  0  0  0  0  0  0
    7.7965  -12.3034   26.5555 C   0  0  0  0  0  0  0  0  0  0  0  0
    7.3196  -13.0965   27.5816 C   0  0  0  0  0  0  0  0  0  0  0  0
    6.9480  -14.4010   27.3029 C   0  0  0  0  0  0  0  0  0  0  0  0
    8.3969  -16.9745   24.1622 C   0  0  0  0  0  0  0  0  0  0  0  0
    8.8598  -18.1097   24.4459 O   0  0  0  0  0  0  0  0  0  0  0  0
   10.4811  -17.2810   20.6072 N   0  0  0  0  0  0  0  0  0  0  0  0
   10.7875  -15.9490   20.9767 C   0  0  0  0  0  0  0  0  0  0  0  0
   10.6008  -15.0603   20.0632 O   0  0  0  0  0  0  0  0  0  0  0  0
   11.2900  -15.5625   22.3045 C   0  0  0  0  0  0  0  0  0  0  0  0
   10.7234  -16.3202   23.4352 C   0  0  2  0  0  0  0  0  0  0  0  0
    9.3093  -16.0226   23.6491 N   0  0  0  0  0  0  0  0  0  0  0  0
   11.4279  -16.1124   24.6980 C   0  0  0  0  0  0  0  0  0  0  0  0
   12.6926  -16.3539   24.7778 O   0  0  0  0  0  0  0  0  0  0  0  0
    9.4671  -15.6912   29.9497 N   0  0  0  0  0  0  0  0  0  0  0  0
    9.6828  -15.4844   28.5531 C   0  0  0  0  0  0  0  0  0  0  0  0
    8.8489  -15.9748   27.7848 O   0  0  0  0  0  0  0  0  0  0  0  0
   10.8377  -14.7279   28.0717 C   0  0  0  0  0  0  0  0  0  0  0  0
   11.6591  -15.5124   27.0903 C   0  0  2  0  0  0  0  0  0  0  0  0
   10.8042  -15.6498   25.8651 N   0  0  0  0  0  0  0  0  0  0  0  0
   11.8717  -16.8839   27.5628 C   0  0  0  0  0  0  0  0  0  0  0  0
   12.5202  -17.1213   28.6035 O   0  0  0  0  0  0  0  0  0  0  0  0
   11.3662  -17.9659   26.8824 O   0  0  0  0  0  0  0  0  0  0  0  0
  2  1  1  1
  2  3  1  0
  3  4  1  0
  4  9  2  0
  4  5  1  0
  5  6  2  0
  6  7  1  0
  8  7  2  0
  9  8  1  0
 10  2  1  0
 11 10  2  0
 13 12  1  0
 13 15  1  0
 14 13  2  0
 16 15  1  6
 16 18  1  0
 16 17  1  0
 17 10  1  0
 18 19  2  0
 20 21  1  0
 21 22  2  0
 24 23  1  1
 23 21  1  0
 25 24  1  0
 25 18  1  0
 26 24  1  0
 26 28  1  0
 27 26  2  0
M  END
$$$$
