FNN.pdb
     RDKit          3D

 28 28  0  0  1  0  0  0  0  0999 V2000
    6.0875  -17.3330   24.9306 N   0  0  0  0  0  0  0  0  0  0  0  0
    6.6887  -16.0661   24.6446 C   0  0  1  0  0  0  0  0  0  0  0  0
    7.6013  -15.6837   25.7719 C   0  0  0  0  0  0  0  0  0  0  0  0
    7.4123  -14.2553   26.1173 C   0  0  0  0  0  0  0  0  0  0  0  0
    6.2432  -13.8214   26.7315 C   0  0  0  0  0  0  0  0  0  0  0  0
    6.1044  -12.4841   27.0367 C   0  0  0  0  0  0  0  0  0  0  0  0
    7.1119  -11.5759   26.7391 C   0  0  0  0  0  0  0  0  0  0  0  0
    8.2724  -12.0115   26.1285 C   0  0  0  0  0  0  0  0  0  0  0  0
    8.4057  -13.3558   25.8246 C   0  0  0  0  0  0  0  0  0  0  0  0
    7.3377  -16.0149   23.3235 C   0  0  0  0  0  0  0  0  0  0  0  0
    7.7483  -17.0822   22.7984 O   0  0  0  0  0  0  0  0  0  0  0  0
    7.4374  -13.1231   18.1289 N   0  0  0  0  0  0  0  0  0  0  0  0
    8.3404  -13.4169   19.1791 C   0  0  0  0  0  0  0  0  0  0  0  0
    9.5580  -13.6377   18.8217 O   0  0  0  0  0  0  0  0  0  0  0  0
    7.9546  -13.4781   20.5976 C   0  0  0  0  0  0  0  0  0  0  0  0
    8.0190  -14.8183   21.2085 C   0  0  2  0  0  0  0  0  0  0  0  0
    7.5367  -14.8231   22.5874 N   0  0  0  0  0  0  0  0  0  0  0  0
    9.3539  -15.4118   21.1917 C   0  0  0  0  0  0  0  0  0  0  0  0
    9.8045  -15.9541   20.1115 O   0  0  0  0  0  0  0  0  0  0  0  0
   12.5417  -13.4203   19.7269 N   0  0  0  0  0  0  0  0  0  0  0  0
   12.8964  -14.5654   20.5031 C   0  0  0  0  0  0  0  0  0  0  0  0
   13.5940  -15.4189   19.9451 O   0  0  0  0  0  0  0  0  0  0  0  0
   12.4489  -14.7067   21.8879 C   0  0  0  0  0  0  0  0  0  0  0  0
   11.6043  -15.9314   22.0876 C   0  0  2  0  0  0  0  0  0  0  0  0
   10.2072  -15.4290   22.3038 N   0  0  0  0  0  0  0  0  0  0  0  0
   11.9605  -16.6163   23.3339 C   0  0  0  0  0  0  0  0  0  0  0  0
   11.1537  -16.7026   24.2835 O   0  0  0  0  0  0  0  0  0  0  0  0
   13.1955  -17.1933   23.5105 O   0  0  0  0  0  0  0  0  0  0  0  0
  2  1  1  1
  2  3  1  0
  3  4  1  0
  4  9  2  0
  4  5  1  0
  5  6  2  0
  6  7  1  0
  8  7  2  0
  9  8  1  0
 10  2  1  0
 11 10  2  0
 13 12  1  0
 13 15  1  0
 14 13  2  0
 16 15  1  1
 16 18  1  0
 16 17  1  0
 17 10  1  0
 18 19  2  0
 20 21  1  0
 21 22  2  0
 24 23  1  1
 23 21  1  0
 25 24  1  0
 25 18  1  0
 26 24  1  0
 26 28  1  0
 27 26  2  0
M  END
$$$$
