FNN.pdb
     RDKit          3D

 28 28  0  0  1  0  0  0  0  0999 V2000
    8.0050  -15.7720   25.6435 N   0  0  0  0  0  0  0  0  0  0  0  0
    7.6383  -15.6662   24.2641 C   0  0  1  0  0  0  0  0  0  0  0  0
    7.6151  -14.2202   23.8661 C   0  0  0  0  0  0  0  0  0  0  0  0
    7.1504  -13.3877   25.0004 C   0  0  0  0  0  0  0  0  0  0  0  0
    7.9520  -12.3747   25.5136 C   0  0  0  0  0  0  0  0  0  0  0  0
    7.4847  -11.6221   26.5700 C   0  0  0  0  0  0  0  0  0  0  0  0
    6.2330  -11.8645   27.1204 C   0  0  0  0  0  0  0  0  0  0  0  0
    5.4393  -12.8725   26.6072 C   0  0  0  0  0  0  0  0  0  0  0  0
    5.9144  -13.6248   25.5461 C   0  0  0  0  0  0  0  0  0  0  0  0
    8.4629  -16.5039   23.3769 C   0  0  0  0  0  0  0  0  0  0  0  0
    8.3219  -16.4034   22.1304 O   0  0  0  0  0  0  0  0  0  0  0  0
   11.0863  -17.7685   20.8797 N   0  0  0  0  0  0  0  0  0  0  0  0
   11.3304  -16.4684   21.3845 C   0  0  0  0  0  0  0  0  0  0  0  0
   11.7073  -15.5951   20.5160 O   0  0  0  0  0  0  0  0  0  0  0  0
   11.1778  -16.0977   22.8002 C   0  0  0  0  0  0  0  0  0  0  0  0
   10.8617  -17.2133   23.7108 C   0  0  2  0  0  0  0  0  0  0  0  0
    9.4234  -17.4348   23.8380 N   0  0  0  0  0  0  0  0  0  0  0  0
   11.4181  -17.0568   25.0524 C   0  0  0  0  0  0  0  0  0  0  0  0
   12.6925  -16.9355   25.2115 O   0  0  0  0  0  0  0  0  0  0  0  0
    9.9427  -13.6180   28.4436 N   0  0  0  0  0  0  0  0  0  0  0  0
   10.8138  -14.6559   27.9925 C   0  0  0  0  0  0  0  0  0  0  0  0
   11.7416  -14.3174   27.2502 O   0  0  0  0  0  0  0  0  0  0  0  0
   10.6054  -16.0453   28.3974 C   0  0  0  0  0  0  0  0  0  0  0  0
   11.3620  -17.0076   27.5286 C   0  0  2  0  0  0  0  0  0  0  0  0
   10.6362  -17.0244   26.2156 N   0  0  0  0  0  0  0  0  0  0  0  0
   11.2518  -18.3762   28.0427 C   0  0  0  0  0  0  0  0  0  0  0  0
   11.8684  -18.7391   29.0665 O   0  0  0  0  0  0  0  0  0  0  0  0
   10.4654  -19.3171   27.4218 O   0  0  0  0  0  0  0  0  0  0  0  0
  2  1  1  1
  2  3  1  0
  3  4  1  0
  4  9  2  0
  4  5  1  0
  5  6  2  0
  6  7  1  0
  8  7  2  0
  9  8  1  0
 10  2  1  0
 11 10  2  0
 13 12  1  0
 13 15  1  0
 14 13  2  0
 16 15  1  6
 16 18  1  0
 16 17  1  0
 17 10  1  0
 18 19  2  0
 20 21  1  0
 21 22  2  0
 24 23  1  1
 23 21  1  0
 25 24  1  0
 25 18  1  0
 26 24  1  0
 26 28  1  0
 27 26  2  0
M  END
$$$$
