FNN.pdb
     RDKit          3D

 28 28  0  0  1  0  0  0  0  0999 V2000
    6.1973  -16.6490   25.2076 N   0  0  0  0  0  0  0  0  0  0  0  0
    7.3955  -15.9445   24.8664 C   0  0  1  0  0  0  0  0  0  0  0  0
    7.8069  -15.0773   26.0191 C   0  0  0  0  0  0  0  0  0  0  0  0
    7.2196  -13.7248   25.8732 C   0  0  0  0  0  0  0  0  0  0  0  0
    6.6305  -13.0851   26.9577 C   0  0  0  0  0  0  0  0  0  0  0  0
    6.0943  -11.8272   26.7820 C   0  0  0  0  0  0  0  0  0  0  0  0
    6.1370  -11.1998   25.5438 C   0  0  0  0  0  0  0  0  0  0  0  0
    6.7236  -11.8392   24.4684 C   0  0  0  0  0  0  0  0  0  0  0  0
    7.2602  -13.1025   24.6514 C   0  0  0  0  0  0  0  0  0  0  0  0
    8.4720  -16.8264   24.3844 C   0  0  0  0  0  0  0  0  0  0  0  0
    8.6216  -17.9590   24.9121 O   0  0  0  0  0  0  0  0  0  0  0  0
    9.5330  -18.0248   19.8997 N   0  0  0  0  0  0  0  0  0  0  0  0
   10.0919  -16.8832   20.5233 C   0  0  0  0  0  0  0  0  0  0  0  0
    9.7125  -15.7473   20.0492 O   0  0  0  0  0  0  0  0  0  0  0  0
   11.0477  -16.9458   21.6403 C   0  0  0  0  0  0  0  0  0  0  0  0
   10.4726  -17.3476   22.9370 C   0  0  2  0  0  0  0  0  0  0  0  0
    9.3699  -16.4815   23.3468 N   0  0  0  0  0  0  0  0  0  0  0  0
   11.4449  -17.3921   24.0263 C   0  0  0  0  0  0  0  0  0  0  0  0
   12.0320  -16.3097   24.4108 O   0  0  0  0  0  0  0  0  0  0  0  0
   12.0908  -21.4683   26.9701 N   0  0  0  0  0  0  0  0  0  0  0  0
   11.4536  -20.1992   26.8190 C   0  0  0  0  0  0  0  0  0  0  0  0
   10.2598  -20.2126   26.5010 O   0  0  0  0  0  0  0  0  0  0  0  0
   12.1902  -18.9544   27.0331 C   0  0  0  0  0  0  0  0  0  0  0  0
   12.8399  -18.4575   25.7743 C   0  0  2  0  0  0  0  0  0  0  0  0
   11.7916  -18.5677   24.7067 N   0  0  0  0  0  0  0  0  0  0  0  0
   13.9146  -19.3591   25.3480 C   0  0  0  0  0  0  0  0  0  0  0  0
   13.8542  -19.9786   24.2652 O   0  0  0  0  0  0  0  0  0  0  0  0
   15.0339  -19.5602   26.1200 O   0  0  0  0  0  0  0  0  0  0  0  0
  2  1  1  1
  2  3  1  0
  3  4  1  0
  4  9  2  0
  4  5  1  0
  5  6  2  0
  6  7  1  0
  8  7  2  0
  9  8  1  0
 10  2  1  0
 11 10  2  0
 13 12  1  0
 13 15  1  0
 14 13  2  0
 16 15  1  6
 16 18  1  0
 16 17  1  0
 17 10  1  0
 18 19  2  0
 20 21  1  0
 21 22  2  0
 24 23  1  1
 23 21  1  0
 25 24  1  0
 25 18  1  0
 26 24  1  0
 26 28  1  0
 27 26  2  0
M  END
$$$$
