FNN.pdb
     RDKit          3D

 28 28  0  0  1  0  0  0  0  0999 V2000
    8.1805  -16.5200   16.3946 N   0  0  0  0  0  0  0  0  0  0  0  0
    8.5287  -15.4701   17.3028 C   0  0  1  0  0  0  0  0  0  0  0  0
    7.3628  -15.1849   18.2024 C   0  0  0  0  0  0  0  0  0  0  0  0
    7.7317  -14.1556   19.2023 C   0  0  0  0  0  0  0  0  0  0  0  0
    7.9373  -12.8350   18.8200 C   0  0  0  0  0  0  0  0  0  0  0  0
    8.2800  -11.9063   19.7796 C   0  0  0  0  0  0  0  0  0  0  0  0
    8.4201  -12.2746   21.1113 C   0  0  0  0  0  0  0  0  0  0  0  0
    8.2147  -13.5884   21.4870 C   0  0  0  0  0  0  0  0  0  0  0  0
    7.8708  -14.5162   20.5184 C   0  0  0  0  0  0  0  0  0  0  0  0
    9.7824  -15.7240   18.0328 C   0  0  0  0  0  0  0  0  0  0  0  0
   10.0285  -16.8867   18.4463 O   0  0  0  0  0  0  0  0  0  0  0  0
   15.5402  -13.7344   18.6031 N   0  0  0  0  0  0  0  0  0  0  0  0
   14.5236  -14.6942   18.3802 C   0  0  0  0  0  0  0  0  0  0  0  0
   14.8788  -15.9246   18.5181 O   0  0  0  0  0  0  0  0  0  0  0  0
   13.1408  -14.3519   18.0118 C   0  0  0  0  0  0  0  0  0  0  0  0
   12.0949  -15.0476   18.7837 C   0  0  2  0  0  0  0  0  0  0  0  0
   10.7508  -14.7299   18.3080 N   0  0  0  0  0  0  0  0  0  0  0  0
   12.1441  -14.7811   20.2192 C   0  0  0  0  0  0  0  0  0  0  0  0
   11.1852  -14.1315   20.7873 O   0  0  0  0  0  0  0  0  0  0  0  0
   12.1297  -16.6180   24.9114 N   0  0  0  0  0  0  0  0  0  0  0  0
   11.4800  -17.1137   23.7401 C   0  0  0  0  0  0  0  0  0  0  0  0
   10.6425  -18.0065   23.9066 O   0  0  0  0  0  0  0  0  0  0  0  0
   11.8006  -16.5811   22.4167 C   0  0  0  0  0  0  0  0  0  0  0  0
   12.8553  -15.5145   22.4759 C   0  0  2  0  0  0  0  0  0  0  0  0
   13.1938  -15.1999   21.0486 N   0  0  0  0  0  0  0  0  0  0  0  0
   14.0964  -16.0363   23.0561 C   0  0  0  0  0  0  0  0  0  0  0  0
   14.6057  -17.1033   22.6535 O   0  0  0  0  0  0  0  0  0  0  0  0
   14.7528  -15.3741   24.0661 O   0  0  0  0  0  0  0  0  0  0  0  0
  2  1  1  1
  2  3  1  0
  3  4  1  0
  4  9  2  0
  4  5  1  0
  5  6  2  0
  6  7  1  0
  8  7  2  0
  9  8  1  0
 10  2  1  0
 11 10  2  0
 13 12  1  0
 13 15  1  0
 14 13  2  0
 16 15  1  6
 16 18  1  0
 16 17  1  0
 17 10  1  0
 18 19  2  0
 20 21  1  0
 21 22  2  0
 24 23  1  6
 23 21  1  0
 25 24  1  0
 25 18  1  0
 26 24  1  0
 26 28  1  0
 27 26  2  0
M  END
$$$$
