FNN.pdb
     RDKit          3D

 28 28  0  0  1  0  0  0  0  0999 V2000
    5.6587  -17.6202   25.0445 N   0  0  0  0  0  0  0  0  0  0  0  0
    6.3932  -16.3923   25.0087 C   0  0  1  0  0  0  0  0  0  0  0  0
    6.7401  -15.9804   26.4086 C   0  0  0  0  0  0  0  0  0  0  0  0
    6.8654  -14.5062   26.4888 C   0  0  0  0  0  0  0  0  0  0  0  0
    5.7367  -13.6950   26.4688 C   0  0  0  0  0  0  0  0  0  0  0  0
    5.8944  -12.3275   26.5448 C   0  0  0  0  0  0  0  0  0  0  0  0
    7.1577  -11.7589   26.6403 C   0  0  0  0  0  0  0  0  0  0  0  0
    8.2770  -12.5689   26.6599 C   0  0  0  0  0  0  0  0  0  0  0  0
    8.1120  -13.9416   26.5832 C   0  0  0  0  0  0  0  0  0  0  0  0
    7.5564  -16.4361   24.1065 C   0  0  0  0  0  0  0  0  0  0  0  0
    8.2766  -17.4677   24.0814 O   0  0  0  0  0  0  0  0  0  0  0  0
    6.8503  -15.6308   20.3158 N   0  0  0  0  0  0  0  0  0  0  0  0
    7.7950  -14.5769   20.2797 C   0  0  0  0  0  0  0  0  0  0  0  0
    7.6183  -13.7017   19.3513 O   0  0  0  0  0  0  0  0  0  0  0  0
    8.9200  -14.4530   21.2199 C   0  0  0  0  0  0  0  0  0  0  0  0
    8.9926  -15.5017   22.2536 C   0  0  2  0  0  0  0  0  0  0  0  0
    7.9293  -15.3757   23.2472 N   0  0  0  0  0  0  0  0  0  0  0  0
   10.2710  -15.5484   22.9591 C   0  0  0  0  0  0  0  0  0  0  0  0
   10.5555  -14.6476   23.8377 O   0  0  0  0  0  0  0  0  0  0  0  0
   14.3924  -19.0873   25.2661 N   0  0  0  0  0  0  0  0  0  0  0  0
   13.2683  -18.2128   25.3712 C   0  0  0  0  0  0  0  0  0  0  0  0
   13.1194  -17.6285   26.4495 O   0  0  0  0  0  0  0  0  0  0  0  0
   12.3481  -18.0282   24.2500 C   0  0  0  0  0  0  0  0  0  0  0  0
   12.3676  -16.6211   23.7275 C   0  0  2  0  0  0  0  0  0  0  0  0
   11.2388  -16.5392   22.7426 N   0  0  0  0  0  0  0  0  0  0  0  0
   13.5791  -16.3708   22.9408 C   0  0  0  0  0  0  0  0  0  0  0  0
   13.5939  -16.5229   21.7012 O   0  0  0  0  0  0  0  0  0  0  0  0
   14.7488  -15.9575   23.5325 O   0  0  0  0  0  0  0  0  0  0  0  0
  2  1  1  1
  2  3  1  0
  3  4  1  0
  4  9  2  0
  4  5  1  0
  5  6  2  0
  6  7  1  0
  8  7  2  0
  9  8  1  0
 10  2  1  0
 11 10  2  0
 13 12  1  0
 13 15  1  0
 14 13  2  0
 16 15  1  6
 16 18  1  0
 16 17  1  0
 17 10  1  0
 18 19  2  0
 20 21  1  0
 21 22  2  0
 24 23  1  6
 23 21  1  0
 25 24  1  0
 25 18  1  0
 26 24  1  0
 26 28  1  0
 27 26  2  0
M  END
$$$$
