FNN.pdb
     RDKit          3D

 28 28  0  0  1  0  0  0  0  0999 V2000
    6.4009  -16.9924   25.6413 N   0  0  0  0  0  0  0  0  0  0  0  0
    6.7780  -15.7497   25.0398 C   0  0  1  0  0  0  0  0  0  0  0  0
    7.7269  -15.0260   25.9484 C   0  0  0  0  0  0  0  0  0  0  0  0
    7.1183  -13.7576   26.4134 C   0  0  0  0  0  0  0  0  0  0  0  0
    7.4346  -13.2333   27.6614 C   0  0  0  0  0  0  0  0  0  0  0  0
    6.8471  -12.0510   28.0587 C   0  0  0  0  0  0  0  0  0  0  0  0
    5.9512  -11.3860   27.2318 C   0  0  0  0  0  0  0  0  0  0  0  0
    5.6397  -11.9107   25.9921 C   0  0  0  0  0  0  0  0  0  0  0  0
    6.2331  -13.0985   25.5989 C   0  0  0  0  0  0  0  0  0  0  0  0
    7.2837  -15.8986   23.6646 C   0  0  0  0  0  0  0  0  0  0  0  0
    7.6410  -17.0355   23.2606 O   0  0  0  0  0  0  0  0  0  0  0  0
    8.2204  -13.0500   18.2333 N   0  0  0  0  0  0  0  0  0  0  0  0
    7.7977  -14.1181   19.0608 C   0  0  0  0  0  0  0  0  0  0  0  0
    7.7711  -15.2786   18.5026 O   0  0  0  0  0  0  0  0  0  0  0  0
    7.4041  -13.9566   20.4693 C   0  0  0  0  0  0  0  0  0  0  0  0
    7.8869  -15.0100   21.3808 C   0  0  2  0  0  0  0  0  0  0  0  0
    7.3988  -14.8289   22.7457 N   0  0  0  0  0  0  0  0  0  0  0  0
    9.3423  -15.1271   21.4303 C   0  0  0  0  0  0  0  0  0  0  0  0
   10.0189  -14.4080   22.2606 O   0  0  0  0  0  0  0  0  0  0  0  0
   13.7852  -17.4346   22.1163 N   0  0  0  0  0  0  0  0  0  0  0  0
   12.5657  -17.6624   22.8236 C   0  0  0  0  0  0  0  0  0  0  0  0
   12.6407  -18.3393   23.8544 O   0  0  0  0  0  0  0  0  0  0  0  0
   11.2990  -17.1153   22.3397 C   0  0  0  0  0  0  0  0  0  0  0  0
   11.4658  -16.3480   21.0603 C   0  0  2  0  0  0  0  0  0  0  0  0
   10.0768  -15.9984   20.6138 N   0  0  0  0  0  0  0  0  0  0  0  0
   12.0023  -17.2068   20.0002 C   0  0  0  0  0  0  0  0  0  0  0  0
   11.3794  -18.2120   19.5982 O   0  0  0  0  0  0  0  0  0  0  0  0
   13.2118  -16.9426   19.4030 O   0  0  0  0  0  0  0  0  0  0  0  0
  2  1  1  1
  2  3  1  0
  3  4  1  0
  4  9  2  0
  4  5  1  0
  5  6  2  0
  6  7  1  0
  8  7  2  0
  9  8  1  0
 10  2  1  0
 11 10  2  0
 13 12  1  0
 13 15  1  0
 14 13  2  0
 16 15  1  6
 16 18  1  0
 16 17  1  0
 17 10  1  0
 18 19  2  0
 20 21  1  0
 21 22  2  0
 24 23  1  1
 23 21  1  0
 25 24  1  0
 25 18  1  0
 26 24  1  0
 26 28  1  0
 27 26  2  0
M  END
$$$$
