RVL.pdb
     RDKit          3D

 27 26  0  0  1  0  0  0  0  0999 V2000
    9.0503  -11.8734   18.1931 N   0  0  0  0  0  0  0  0  0  0  0  0
    8.0919  -12.9158   17.8223 C   0  0  0  0  0  0  0  0  0  0  0  0
    8.0025  -13.2820   16.6154 N   0  0  0  0  0  0  0  0  0  0  0  0
    7.2833  -13.5172   18.8059 N   0  0  0  0  0  0  0  0  0  0  0  0
    7.5418  -13.6133   20.1825 C   0  0  0  0  0  0  0  0  0  0  0  0
    8.5029  -14.5988   20.7069 C   0  0  0  0  0  0  0  0  0  0  0  0
    8.2408  -15.9731   20.1588 C   0  0  0  0  0  0  0  0  0  0  0  0
    9.1544  -17.0695   20.5881 C   0  0  2  0  0  0  0  0  0  0  0  0
    8.7690  -18.3469   19.9977 N   0  0  0  0  0  0  0  0  0  0  0  0
    8.9745  -17.2639   22.0644 C   0  0  0  0  0  0  0  0  0  0  0  0
    7.8730  -17.7095   22.4977 O   0  0  0  0  0  0  0  0  0  0  0  0
    7.4297  -14.0100   16.2393 C   0  0  0  0  0  0  0  0  0  0  0  0
   10.9654  -18.3033   26.3623 C   0  0  2  0  0  0  0  0  0  0  0  0
   10.9358  -18.2014   24.8624 C   0  0  0  0  0  0  0  0  0  0  0  0
   10.8191  -19.5173   24.1734 C   0  0  1  0  0  0  0  0  0  0  0  0
    9.8958  -17.2008   24.3986 N   0  0  0  0  0  0  0  0  0  0  0  0
   10.0038  -16.9621   22.9771 C   0  0  0  0  0  0  0  0  0  0  0  0
   10.0656  -15.9078   25.1629 O   0  0  0  0  0  0  0  0  0  0  0  0
   11.0189  -15.1344   24.9010 C   0  0  0  0  0  0  0  0  0  0  0  0
    5.6705  -13.1125   27.1361 C   0  0  2  0  0  0  0  0  0  0  0  0
    6.9655  -13.4562   26.3242 C   0  0  0  0  0  0  0  0  0  0  0  0
    7.1012  -12.3399   25.3946 C   0  0  0  0  0  0  0  0  0  0  0  0
    7.9650  -13.8287   27.2981 C   0  0  2  0  0  0  0  0  0  0  0  0
    9.3019  -14.3300   27.0149 N   0  0  0  0  0  0  0  0  0  0  0  0
    9.1565  -15.5527   26.1782 C   0  0  0  0  0  0  0  0  0  0  0  0
   10.1681  -14.6406   28.1653 O   0  0  0  0  0  0  0  0  0  0  0  0
   10.9004  -13.7227   28.8677 O   0  0  0  0  0  0  0  0  0  0  0  0
  1  2  1  0
  2  3  2  0
  4  2  1  0
  5  4  1  0
  6  5  1  0
  7  6  1  0
  8 10  1  0
  8  7  1  0
  8  9  1  6
 10 11  2  0
 10 16  1  0
 13 12  1  6
 13 14  1  0
 15 13  1  0
 15 16  1  6
 17 18  2  0
 17 15  1  0
 20 22  1  0
 20 19  1  6
 21 20  1  0
 23 22  1  6
 23 24  1  0
 24 17  1  0
 25 23  1  0
 26 25  1  0
 27 25  2  0
M  END
$$$$
