RVL.pdb
     RDKit          3D

 27 26  0  0  1  0  0  0  0  0999 V2000
   12.1540  -21.7742   18.8430 N   0  0  0  0  0  0  0  0  0  0  0  0
   12.2172  -22.0941   20.2700 C   0  0  0  0  0  0  0  0  0  0  0  0
   13.3054  -22.4964   20.7727 N   0  0  0  0  0  0  0  0  0  0  0  0
   11.0764  -21.9423   21.0814 N   0  0  0  0  0  0  0  0  0  0  0  0
    9.8091  -21.4780   20.6949 C   0  0  0  0  0  0  0  0  0  0  0  0
    9.6640  -20.4517   19.6481 C   0  0  0  0  0  0  0  0  0  0  0  0
    8.9583  -19.2300   20.1649 C   0  0  0  0  0  0  0  0  0  0  0  0
    8.7032  -18.1240   19.1992 C   0  0  2  0  0  0  0  0  0  0  0  0
    9.6236  -18.1800   18.0685 N   0  0  0  0  0  0  0  0  0  0  0  0
    9.0261  -16.8313   19.8878 C   0  0  0  0  0  0  0  0  0  0  0  0
   10.2358  -16.4828   20.0091 O   0  0  0  0  0  0  0  0  0  0  0  0
   13.4937  -22.7068   21.7318 C   0  0  0  0  0  0  0  0  0  0  0  0
    7.7943  -12.3225   21.2171 C   0  0  2  0  0  0  0  0  0  0  0  0
    7.5187  -13.6091   20.4895 C   0  0  0  0  0  0  0  0  0  0  0  0
    7.7008  -13.5152   19.0137 C   0  0  1  0  0  0  0  0  0  0  0  0
    8.2841  -14.7643   21.1039 N   0  0  0  0  0  0  0  0  0  0  0  0
    8.0132  -15.9979   20.4011 C   0  0  0  0  0  0  0  0  0  0  0  0
    7.9094  -14.8973   22.5622 O   0  0  0  0  0  0  0  0  0  0  0  0
    6.8651  -15.5076   22.8977 C   0  0  0  0  0  0  0  0  0  0  0  0
    7.7619  -11.7820   26.5713 C   0  0  2  0  0  0  0  0  0  0  0  0
    6.6255  -12.8083   26.2401 C   0  0  0  0  0  0  0  0  0  0  0  0
    5.4113  -11.9994   26.2490 C   0  0  0  0  0  0  0  0  0  0  0  0
    7.0875  -13.5680   25.1018 C   0  0  2  0  0  0  0  0  0  0  0  0
    8.3436  -14.2967   25.0022 N   0  0  0  0  0  0  0  0  0  0  0  0
    8.7267  -14.3393   23.5642 C   0  0  0  0  0  0  0  0  0  0  0  0
    8.3790  -15.6656   25.5450 O   0  0  0  0  0  0  0  0  0  0  0  0
    9.3190  -16.1402   26.4187 O   0  0  0  0  0  0  0  0  0  0  0  0
  1  2  1  0
  2  3  2  0
  4  2  1  0
  5  4  1  0
  6  5  1  0
  7  6  1  0
  8 10  1  0
  8  7  1  0
  8  9  1  6
 10 11  2  0
 10 16  1  0
 13 12  1  6
 13 14  1  0
 15 13  1  0
 15 16  1  1
 17 18  2  0
 17 15  1  0
 20 22  1  0
 20 19  1  1
 21 20  1  0
 23 22  1  1
 23 24  1  0
 24 17  1  0
 25 23  1  0
 26 25  1  0
 27 25  2  0
M  END
$$$$
