RVL.pdb
     RDKit          3D

 27 26  0  0  1  0  0  0  0  0999 V2000
   13.2116  -21.5007   23.0222 N   0  0  0  0  0  0  0  0  0  0  0  0
   13.1674  -21.8640   21.6049 C   0  0  0  0  0  0  0  0  0  0  0  0
   13.6648  -22.9629   21.2256 N   0  0  0  0  0  0  0  0  0  0  0  0
   12.5627  -21.0011   20.6708 N   0  0  0  0  0  0  0  0  0  0  0  0
   11.6412  -19.9738   20.9288 C   0  0  0  0  0  0  0  0  0  0  0  0
   10.2317  -20.2773   21.2307 C   0  0  0  0  0  0  0  0  0  0  0  0
    9.4665  -19.0389   21.6033 C   0  0  0  0  0  0  0  0  0  0  0  0
    8.7839  -18.2972   20.5058 C   0  0  2  0  0  0  0  0  0  0  0  0
    9.2673  -18.7190   19.1954 N   0  0  0  0  0  0  0  0  0  0  0  0
    9.1820  -16.8549   20.6110 C   0  0  0  0  0  0  0  0  0  0  0  0
   10.3414  -16.5072   20.2446 O   0  0  0  0  0  0  0  0  0  0  0  0
   13.7011  -23.3276   20.2954 C   0  0  0  0  0  0  0  0  0  0  0  0
    7.7200  -12.1674   20.9027 C   0  0  2  0  0  0  0  0  0  0  0  0
    7.5041  -13.6259   20.6079 C   0  0  0  0  0  0  0  0  0  0  0  0
    7.2366  -13.9148   19.1709 C   0  0  1  0  0  0  0  0  0  0  0  0
    8.6220  -14.4750   21.1799 N   0  0  0  0  0  0  0  0  0  0  0  0
    8.2942  -15.8808   21.1078 C   0  0  0  0  0  0  0  0  0  0  0  0
    8.8799  -14.0685   22.6128 O   0  0  0  0  0  0  0  0  0  0  0  0
    9.2730  -12.9076   22.8839 C   0  0  0  0  0  0  0  0  0  0  0  0
    7.7178  -11.9676   26.8354 C   0  0  2  0  0  0  0  0  0  0  0  0
    6.8384  -13.2014   26.4370 C   0  0  0  0  0  0  0  0  0  0  0  0
    5.4702  -12.7126   26.5713 C   0  0  0  0  0  0  0  0  0  0  0  0
    7.4001  -13.7176   25.2105 C   0  0  1  0  0  0  0  0  0  0  0  0
    8.5657  -14.5812   25.0909 N   0  0  0  0  0  0  0  0  0  0  0  0
    8.6819  -14.9857   23.6629 C   0  0  0  0  0  0  0  0  0  0  0  0
    8.6045  -15.7895   25.9327 O   0  0  0  0  0  0  0  0  0  0  0  0
    8.0404  -16.9926   25.6064 O   0  0  0  0  0  0  0  0  0  0  0  0
  1  2  1  0
  2  3  2  0
  4  2  1  0
  5  4  1  0
  6  5  1  0
  7  6  1  0
  8 10  1  0
  8  7  1  0
  8  9  1  6
 10 11  2  0
 10 16  1  0
 13 12  1  1
 13 14  1  0
 15 13  1  0
 15 16  1  1
 17 18  2  0
 17 15  1  0
 20 22  1  0
 20 19  1  1
 21 20  1  0
 23 22  1  6
 23 24  1  0
 24 17  1  0
 25 23  1  0
 26 25  1  0
 27 25  2  0
M  END
$$$$
