RVL.pdb
     RDKit          3D

 27 26  0  0  1  0  0  0  0  0999 V2000
    8.4626  -14.2771   15.7538 N   0  0  0  0  0  0  0  0  0  0  0  0
    8.0878  -13.3453   16.8188 C   0  0  0  0  0  0  0  0  0  0  0  0
    8.8007  -12.3236   17.0349 N   0  0  0  0  0  0  0  0  0  0  0  0
    6.9326  -13.5780   17.5897 N   0  0  0  0  0  0  0  0  0  0  0  0
    6.7390  -14.5754   18.5586 C   0  0  0  0  0  0  0  0  0  0  0  0
    7.7294  -14.7986   19.6260 C   0  0  0  0  0  0  0  0  0  0  0  0
    8.0782  -16.2538   19.7618 C   0  0  0  0  0  0  0  0  0  0  0  0
    9.0390  -16.6325   20.8361 C   0  0  2  0  0  0  0  0  0  0  0  0
    9.1729  -18.0813   20.9458 N   0  0  0  0  0  0  0  0  0  0  0  0
    8.4508  -16.2053   22.1480 C   0  0  0  0  0  0  0  0  0  0  0  0
    8.1817  -14.9837   22.3343 O   0  0  0  0  0  0  0  0  0  0  0  0
    8.6327  -11.5904   17.6934 C   0  0  0  0  0  0  0  0  0  0  0  0
    6.8361  -17.6170   26.6562 C   0  0  2  0  0  0  0  0  0  0  0  0
    7.2173  -17.9792   25.2475 C   0  0  0  0  0  0  0  0  0  0  0  0
    6.1855  -18.7833   24.5343 C   0  0  1  0  0  0  0  0  0  0  0  0
    7.6559  -16.7578   24.4641 N   0  0  0  0  0  0  0  0  0  0  0  0
    8.1915  -17.1334   23.1753 C   0  0  0  0  0  0  0  0  0  0  0  0
    8.6890  -15.9937   25.2601 O   0  0  0  0  0  0  0  0  0  0  0  0
    8.3888  -14.9100   25.8177 C   0  0  0  0  0  0  0  0  0  0  0  0
    9.6658  -15.0880   29.7340 C   0  0  1  0  0  0  0  0  0  0  0  0
    9.6580  -14.8326   28.1883 C   0  0  0  0  0  0  0  0  0  0  0  0
    9.8692  -13.3936   28.0712 C   0  0  0  0  0  0  0  0  0  0  0  0
   10.5270  -15.8311   27.6102 C   0  0  2  0  0  0  0  0  0  0  0  0
   11.0360  -15.8477   26.2466 N   0  0  0  0  0  0  0  0  0  0  0  0
   10.0019  -16.4873   25.3876 C   0  0  0  0  0  0  0  0  0  0  0  0
   12.3283  -16.5149   26.0127 O   0  0  0  0  0  0  0  0  0  0  0  0
   13.5540  -15.9692   26.2810 O   0  0  0  0  0  0  0  0  0  0  0  0
  1  2  1  0
  2  3  2  0
  4  2  1  0
  5  4  1  0
  6  5  1  0
  7  6  1  0
  8 10  1  0
  8  7  1  0
  8  9  1  1
 10 11  2  0
 10 16  1  0
 13 12  1  1
 13 14  1  0
 15 13  1  0
 15 16  1  1
 17 18  2  0
 17 15  1  0
 20 22  1  0
 20 19  1  1
 21 20  1  0
 23 22  1  6
 23 24  1  0
 24 17  1  0
 25 23  1  0
 26 25  1  0
 27 25  2  0
M  END
$$$$
