RVL.pdb
     RDKit          3D

 27 26  0  0  1  0  0  0  0  0999 V2000
   10.1737  -14.9243   16.4821 N   0  0  0  0  0  0  0  0  0  0  0  0
    9.6331  -16.2843   16.4515 C   0  0  0  0  0  0  0  0  0  0  0  0
    9.2655  -16.7861   15.3506 N   0  0  0  0  0  0  0  0  0  0  0  0
    9.5352  -17.0347   17.6389 N   0  0  0  0  0  0  0  0  0  0  0  0
    9.8775  -16.6266   18.9379 C   0  0  0  0  0  0  0  0  0  0  0  0
    9.4808  -15.3021   19.4462 C   0  0  0  0  0  0  0  0  0  0  0  0
    8.0626  -15.3019   19.9426 C   0  0  0  0  0  0  0  0  0  0  0  0
    7.5121  -14.0128   20.4484 C   0  0  2  0  0  0  0  0  0  0  0  0
    7.9872  -12.8826   19.6573 N   0  0  0  0  0  0  0  0  0  0  0  0
    8.0756  -13.7804   21.8188 C   0  0  0  0  0  0  0  0  0  0  0  0
    9.1952  -13.2040   21.9354 O   0  0  0  0  0  0  0  0  0  0  0  0
    8.9598  -17.7223   15.1785 C   0  0  0  0  0  0  0  0  0  0  0  0
    7.1843  -13.5563   26.6844 C   0  0  2  0  0  0  0  0  0  0  0  0
    6.7158  -13.6345   25.2578 C   0  0  0  0  0  0  0  0  0  0  0  0
    5.9042  -12.4616   24.8273 C   0  0  1  0  0  0  0  0  0  0  0  0
    7.8658  -13.9312   24.3158 N   0  0  0  0  0  0  0  0  0  0  0  0
    7.3860  -14.1891   22.9770 C   0  0  0  0  0  0  0  0  0  0  0  0
    8.6458  -15.1186   24.8322 O   0  0  0  0  0  0  0  0  0  0  0  0
    8.7802  -16.1474   24.1258 C   0  0  0  0  0  0  0  0  0  0  0  0
   10.8124  -14.6646   30.0887 C   0  0  2  0  0  0  0  0  0  0  0  0
   10.6336  -14.5070   28.5403 C   0  0  0  0  0  0  0  0  0  0  0  0
   11.7325  -13.6304   28.1495 C   0  0  0  0  0  0  0  0  0  0  0  0
   10.4325  -15.8393   28.0199 C   0  0  2  0  0  0  0  0  0  0  0  0
   10.0770  -16.1875   26.6520 N   0  0  0  0  0  0  0  0  0  0  0  0
    9.2328  -15.0866   26.1119 C   0  0  0  0  0  0  0  0  0  0  0  0
    9.3834  -17.4690   26.4362 O   0  0  0  0  0  0  0  0  0  0  0  0
    9.9961  -18.6896   26.3533 O   0  0  0  0  0  0  0  0  0  0  0  0
  1  2  1  0
  2  3  2  0
  4  2  1  0
  5  4  1  0
  6  5  1  0
  7  6  1  0
  8 10  1  0
  8  7  1  0
  8  9  1  6
 10 11  2  0
 10 16  1  0
 13 12  1  1
 13 14  1  0
 15 13  1  0
 15 16  1  1
 17 18  2  0
 17 15  1  0
 20 22  1  0
 20 19  1  1
 21 20  1  0
 23 22  1  6
 23 24  1  0
 24 17  1  0
 25 23  1  0
 26 25  1  0
 27 25  2  0
M  END
$$$$
