RVL.pdb
     RDKit          3D

 27 26  0  0  1  0  0  0  0  0999 V2000
    9.8218  -14.6673   16.5930 N   0  0  0  0  0  0  0  0  0  0  0  0
    8.7283  -13.7667   16.2245 C   0  0  0  0  0  0  0  0  0  0  0  0
    8.4369  -13.6036   15.0050 N   0  0  0  0  0  0  0  0  0  0  0  0
    7.9959  -13.0959   17.2227 N   0  0  0  0  0  0  0  0  0  0  0  0
    7.4815  -13.6351   18.4125 C   0  0  0  0  0  0  0  0  0  0  0  0
    7.8970  -14.9678   18.8833 C   0  0  0  0  0  0  0  0  0  0  0  0
    7.1306  -15.3865   20.1060 C   0  0  0  0  0  0  0  0  0  0  0  0
    7.4307  -16.7293   20.6784 C   0  0  2  0  0  0  0  0  0  0  0  0
    6.7260  -17.7854   19.9596 N   0  0  0  0  0  0  0  0  0  0  0  0
    6.8648  -16.7722   22.0668 C   0  0  0  0  0  0  0  0  0  0  0  0
    5.6967  -17.2239   22.2426 O   0  0  0  0  0  0  0  0  0  0  0  0
    7.7021  -13.0439   14.6226 C   0  0  0  0  0  0  0  0  0  0  0  0
    7.4232  -18.7186   26.0755 C   0  0  2  0  0  0  0  0  0  0  0  0
    7.4741  -18.2707   24.6410 C   0  0  0  0  0  0  0  0  0  0  0  0
    6.5236  -18.9957   23.7516 C   0  0  1  0  0  0  0  0  0  0  0  0
    7.3505  -16.7640   24.5296 N   0  0  0  0  0  0  0  0  0  0  0  0
    7.6048  -16.3215   23.1773 C   0  0  0  0  0  0  0  0  0  0  0  0
    8.3180  -16.1075   25.4878 O   0  0  0  0  0  0  0  0  0  0  0  0
    9.5358  -16.4109   25.4697 C   0  0  0  0  0  0  0  0  0  0  0  0
    6.4138  -11.1713   27.0302 C   0  0  2  0  0  0  0  0  0  0  0  0
    7.0752  -12.3951   26.3096 C   0  0  0  0  0  0  0  0  0  0  0  0
    7.3887  -11.8883   24.9778 C   0  0  0  0  0  0  0  0  0  0  0  0
    8.0556  -12.9230   27.2296 C   0  0  2  0  0  0  0  0  0  0  0  0
    8.7716  -14.1836   27.0988 N   0  0  0  0  0  0  0  0  0  0  0  0
    7.8666  -15.1465   26.4130 C   0  0  0  0  0  0  0  0  0  0  0  0
    9.2814  -14.8058   28.3330 O   0  0  0  0  0  0  0  0  0  0  0  0
    8.8217  -15.9773   28.8700 O   0  0  0  0  0  0  0  0  0  0  0  0
  1  2  1  0
  2  3  2  0
  4  2  1  0
  5  4  1  0
  6  5  1  0
  7  6  1  0
  8 10  1  0
  8  7  1  0
  8  9  1  6
 10 11  2  0
 10 16  1  0
 13 12  1  6
 13 14  1  0
 15 13  1  0
 15 16  1  6
 17 18  2  0
 17 15  1  0
 20 22  1  0
 20 19  1  6
 21 20  1  0
 23 22  1  6
 23 24  1  0
 24 17  1  0
 25 23  1  0
 26 25  1  0
 27 25  2  0
M  END
$$$$
