RVL.pdb
     RDKit          3D

 27 26  0  0  1  0  0  0  0  0999 V2000
   10.0838  -15.3942   17.4486 N   0  0  0  0  0  0  0  0  0  0  0  0
   10.6902  -14.1633   17.9581 C   0  0  0  0  0  0  0  0  0  0  0  0
   11.9122  -14.1565   18.2832 N   0  0  0  0  0  0  0  0  0  0  0  0
    9.9210  -12.9894   18.0733 N   0  0  0  0  0  0  0  0  0  0  0  0
    8.6494  -12.8551   18.6531 C   0  0  0  0  0  0  0  0  0  0  0  0
    8.4428  -13.0934   20.0920 C   0  0  0  0  0  0  0  0  0  0  0  0
    7.5031  -14.2408   20.3335 C   0  0  0  0  0  0  0  0  0  0  0  0
    8.1015  -15.5954   20.5003 C   0  0  2  0  0  0  0  0  0  0  0  0
    7.2933  -16.6199   19.8478 N   0  0  0  0  0  0  0  0  0  0  0  0
    8.0495  -15.9426   21.9586 C   0  0  0  0  0  0  0  0  0  0  0  0
    6.9606  -15.8043   22.5867 O   0  0  0  0  0  0  0  0  0  0  0  0
   12.4623  -13.3736   18.5728 C   0  0  0  0  0  0  0  0  0  0  0  0
   10.1639  -18.4656   25.6510 C   0  0  1  0  0  0  0  0  0  0  0  0
   10.0786  -18.0698   24.2029 C   0  0  0  0  0  0  0  0  0  0  0  0
    9.7744  -19.2049   23.2871 C   0  0  1  0  0  0  0  0  0  0  0  0
    9.1457  -16.8909   24.0080 N   0  0  0  0  0  0  0  0  0  0  0  0
    9.1850  -16.4190   22.6425 C   0  0  0  0  0  0  0  0  0  0  0  0
    9.5319  -15.7811   24.9588 O   0  0  0  0  0  0  0  0  0  0  0  0
   10.5943  -15.1356   24.7853 C   0  0  0  0  0  0  0  0  0  0  0  0
    5.7001  -12.7241   27.5082 C   0  0  2  0  0  0  0  0  0  0  0  0
    6.8651  -13.2370   26.5950 C   0  0  0  0  0  0  0  0  0  0  0  0
    7.0775  -12.1433   25.6528 C   0  0  0  0  0  0  0  0  0  0  0  0
    7.8795  -13.7505   27.4858 C   0  0  2  0  0  0  0  0  0  0  0  0
    9.0852  -14.4685   27.0990 N   0  0  0  0  0  0  0  0  0  0  0  0
    8.7050  -15.4556   26.0514 C   0  0  0  0  0  0  0  0  0  0  0  0
    9.8306  -15.1653   28.1616 O   0  0  0  0  0  0  0  0  0  0  0  0
   10.6596  -14.5598   29.0662 O   0  0  0  0  0  0  0  0  0  0  0  0
  1  2  1  0
  2  3  2  0
  4  2  1  0
  5  4  1  0
  6  5  1  0
  7  6  1  0
  8 10  1  0
  8  7  1  0
  8  9  1  6
 10 11  2  0
 10 16  1  0
 13 12  1  6
 13 14  1  0
 15 13  1  0
 15 16  1  6
 17 18  2  0
 17 15  1  0
 20 22  1  0
 20 19  1  6
 21 20  1  0
 23 22  1  6
 23 24  1  0
 24 17  1  0
 25 23  1  0
 26 25  1  0
 27 25  2  0
M  END
$$$$
