RVL.pdb
     RDKit          3D

 27 26  0  0  1  0  0  0  0  0999 V2000
   14.4337  -22.9732   21.1630 N   0  0  0  0  0  0  0  0  0  0  0  0
   13.8795  -22.4597   19.9092 C   0  0  0  0  0  0  0  0  0  0  0  0
   14.6514  -22.2178   18.9374 N   0  0  0  0  0  0  0  0  0  0  0  0
   12.4932  -22.2487   19.7811 N   0  0  0  0  0  0  0  0  0  0  0  0
   11.7411  -21.1795   20.2932 C   0  0  0  0  0  0  0  0  0  0  0  0
   12.2448  -19.7968   20.2259 C   0  0  0  0  0  0  0  0  0  0  0  0
   11.2148  -18.8091   20.6963 C   0  0  0  0  0  0  0  0  0  0  0  0
   11.0125  -17.5832   19.8736 C   0  0  2  0  0  0  0  0  0  0  0  0
   12.2536  -17.1586   19.2345 N   0  0  0  0  0  0  0  0  0  0  0  0
   10.6610  -16.4602   20.8036 C   0  0  0  0  0  0  0  0  0  0  0  0
   11.5899  -15.7855   21.3341 O   0  0  0  0  0  0  0  0  0  0  0  0
   14.4046  -21.8647   18.0352 C   0  0  0  0  0  0  0  0  0  0  0  0
    7.0732  -13.5743   22.6904 C   0  0  2  0  0  0  0  0  0  0  0  0
    7.5689  -14.5305   21.6412 C   0  0  0  0  0  0  0  0  0  0  0  0
    7.4976  -13.9900   20.2546 C   0  0  1  0  0  0  0  0  0  0  0  0
    8.9413  -15.0702   21.9919 N   0  0  0  0  0  0  0  0  0  0  0  0
    9.3212  -16.1409   21.0984 C   0  0  0  0  0  0  0  0  0  0  0  0
    8.9404  -15.5558   23.4233 O   0  0  0  0  0  0  0  0  0  0  0  0
    8.7943  -16.7756   23.6812 C   0  0  0  0  0  0  0  0  0  0  0  0
   11.0174  -14.0868   28.4846 C   0  0  2  0  0  0  0  0  0  0  0  0
    9.5121  -13.8100   28.1500 C   0  0  0  0  0  0  0  0  0  0  0  0
    9.1862  -12.6363   28.9532 C   0  0  0  0  0  0  0  0  0  0  0  0
    9.4021  -13.8658   26.7109 C   0  0  1  0  0  0  0  0  0  0  0  0
    9.3256  -15.0701   25.8969 N   0  0  0  0  0  0  0  0  0  0  0  0
    9.1039  -14.6472   24.4868 C   0  0  0  0  0  0  0  0  0  0  0  0
    8.3072  -16.0708   26.2594 O   0  0  0  0  0  0  0  0  0  0  0  0
    6.9816  -15.9981   25.9285 O   0  0  0  0  0  0  0  0  0  0  0  0
  1  2  1  0
  2  3  2  0
  4  2  1  0
  5  4  1  0
  6  5  1  0
  7  6  1  0
  8 10  1  0
  8  7  1  0
  8  9  1  1
 10 11  2  0
 10 16  1  0
 13 12  1  6
 13 14  1  0
 15 13  1  0
 15 16  1  6
 17 18  2  0
 17 15  1  0
 20 22  1  0
 20 19  1  1
 21 20  1  0
 23 22  1  6
 23 24  1  0
 24 17  1  0
 25 23  1  0
 26 25  1  0
 27 25  2  0
M  END
$$$$
