RVL.pdb
     RDKit          3D

 27 26  0  0  1  0  0  0  0  0999 V2000
   10.9014  -21.2764   18.1028 N   0  0  0  0  0  0  0  0  0  0  0  0
   10.9970  -22.4275   19.0020 C   0  0  0  0  0  0  0  0  0  0  0  0
   11.3109  -23.5602   18.5360 N   0  0  0  0  0  0  0  0  0  0  0  0
   10.7540  -22.2720   20.3803 N   0  0  0  0  0  0  0  0  0  0  0  0
   10.3120  -21.1169   21.0446 C   0  0  0  0  0  0  0  0  0  0  0  0
    9.1974  -20.3147   20.5114 C   0  0  0  0  0  0  0  0  0  0  0  0
    9.3565  -18.8577   20.8421 C   0  0  0  0  0  0  0  0  0  0  0  0
    8.8282  -17.8688   19.8604 C   0  0  2  0  0  0  0  0  0  0  0  0
    9.4419  -18.0400   18.5478 N   0  0  0  0  0  0  0  0  0  0  0  0
    9.2613  -16.5040   20.3069 C   0  0  0  0  0  0  0  0  0  0  0  0
   10.4155  -16.0911   19.9959 O   0  0  0  0  0  0  0  0  0  0  0  0
   11.5016  -24.3985   19.0463 C   0  0  0  0  0  0  0  0  0  0  0  0
    7.8612  -13.2016   19.3684 C   0  0  2  0  0  0  0  0  0  0  0  0
    7.7266  -13.3391   20.8596 C   0  0  0  0  0  0  0  0  0  0  0  0
    6.3382  -13.6344   21.3125 C   0  0  2  0  0  0  0  0  0  0  0  0
    8.7463  -14.3124   21.4173 N   0  0  0  0  0  0  0  0  0  0  0  0
    8.4119  -15.6732   21.0632 C   0  0  0  0  0  0  0  0  0  0  0  0
    8.8158  -14.1624   22.9198 O   0  0  0  0  0  0  0  0  0  0  0  0
    9.0543  -13.0439   23.4372 C   0  0  0  0  0  0  0  0  0  0  0  0
    6.3831  -12.1430   26.1548 C   0  0  1  0  0  0  0  0  0  0  0  0
    7.7461  -12.7522   25.6797 C   0  0  0  0  0  0  0  0  0  0  0  0
    8.7308  -12.1342   26.5614 C   0  0  0  0  0  0  0  0  0  0  0  0
    7.5345  -14.1768   25.5699 C   0  0  2  0  0  0  0  0  0  0  0  0
    8.5408  -15.1765   25.2433 N   0  0  0  0  0  0  0  0  0  0  0  0
    8.6133  -15.2746   23.7596 C   0  0  0  0  0  0  0  0  0  0  0  0
    8.3613  -16.5279   25.8015 O   0  0  0  0  0  0  0  0  0  0  0  0
    8.7045  -16.9054   27.0711 O   0  0  0  0  0  0  0  0  0  0  0  0
  1  2  1  0
  2  3  2  0
  4  2  1  0
  5  4  1  0
  6  5  1  0
  7  6  1  0
  8 10  1  0
  8  7  1  0
  8  9  1  6
 10 11  2  0
 10 16  1  0
 13 12  1  1
 13 14  1  0
 15 13  1  0
 15 16  1  1
 17 18  2  0
 17 15  1  0
 20 22  1  0
 20 19  1  6
 21 20  1  0
 23 22  1  6
 23 24  1  0
 24 17  1  0
 25 23  1  0
 26 25  1  0
 27 25  2  0
M  END
$$$$
