RVL.pdb
     RDKit          3D

 27 26  0  0  1  0  0  0  0  0999 V2000
    9.0385  -13.9265   15.1439 N   0  0  0  0  0  0  0  0  0  0  0  0
    7.5990  -14.1373   15.3048 C   0  0  0  0  0  0  0  0  0  0  0  0
    6.9699  -14.8303   14.4546 N   0  0  0  0  0  0  0  0  0  0  0  0
    6.9205  -13.5830   16.4072 N   0  0  0  0  0  0  0  0  0  0  0  0
    7.4817  -12.9194   17.5098 C   0  0  0  0  0  0  0  0  0  0  0  0
    8.6800  -13.4482   18.1841 C   0  0  0  0  0  0  0  0  0  0  0  0
    8.3218  -14.4578   19.2378 C   0  0  0  0  0  0  0  0  0  0  0  0
    9.1713  -15.6782   19.3367 C   0  0  2  0  0  0  0  0  0  0  0  0
    8.8028  -16.6679   18.3300 N   0  0  0  0  0  0  0  0  0  0  0  0
    8.8702  -16.3406   20.6483 C   0  0  0  0  0  0  0  0  0  0  0  0
    8.0902  -17.3359   20.6715 O   0  0  0  0  0  0  0  0  0  0  0  0
    5.9911  -15.0333   14.4366 C   0  0  0  0  0  0  0  0  0  0  0  0
   10.6395  -18.7623   23.9658 C   0  0  2  0  0  0  0  0  0  0  0  0
   10.4653  -17.9071   22.7414 C   0  0  0  0  0  0  0  0  0  0  0  0
   10.0356  -18.6673   21.5342 C   0  0  1  0  0  0  0  0  0  0  0  0
    9.5814  -16.7093   23.0273 N   0  0  0  0  0  0  0  0  0  0  0  0
    9.4366  -15.8796   21.8526 C   0  0  0  0  0  0  0  0  0  0  0  0
   10.1709  -15.9092   24.1662 O   0  0  0  0  0  0  0  0  0  0  0  0
   10.8904  -14.9071   23.9342 C   0  0  0  0  0  0  0  0  0  0  0  0
    8.3603  -12.3223   26.6707 C   0  0  2  0  0  0  0  0  0  0  0  0
    7.4906  -13.6254   26.6715 C   0  0  0  0  0  0  0  0  0  0  0  0
    6.1801  -13.1705   26.2193 C   0  0  0  0  0  0  0  0  0  0  0  0
    8.2762  -14.6349   26.0008 C   0  0  1  0  0  0  0  0  0  0  0  0
    9.4436  -15.3187   26.5379 N   0  0  0  0  0  0  0  0  0  0  0  0
    9.9207  -16.2762   25.5026 C   0  0  0  0  0  0  0  0  0  0  0  0
    9.2818  -16.0380   27.8132 O   0  0  0  0  0  0  0  0  0  0  0  0
    8.5970  -17.2119   27.9716 O   0  0  0  0  0  0  0  0  0  0  0  0
  1  2  1  0
  2  3  2  0
  4  2  1  0
  5  4  1  0
  6  5  1  0
  7  6  1  0
  8 10  1  0
  8  7  1  0
  8  9  1  6
 10 11  2  0
 10 16  1  0
 13 12  1  6
 13 14  1  0
 15 13  1  0
 15 16  1  6
 17 18  2  0
 17 15  1  0
 20 22  1  0
 20 19  1  1
 21 20  1  0
 23 22  1  6
 23 24  1  0
 24 17  1  0
 25 23  1  0
 26 25  1  0
 27 25  2  0
M  END
$$$$
