RPG.pdb
     RDKit          3D

 23 23  0  0  1  0  0  0  0  0999 V2000
    9.5226  -13.0141   19.0933 N   0  0  0  0  0  0  0  0  0  0  0  0
    8.5478  -13.8277   18.4496 C   0  0  0  0  0  0  0  0  0  0  0  0
    7.6490  -13.3582   17.6500 N   0  0  0  0  0  0  0  0  0  0  0  0
    8.5388  -15.2365   18.6804 N   0  0  0  0  0  0  0  0  0  0  0  0
    7.8155  -15.8411   19.7649 C   0  0  0  0  0  0  0  0  0  0  0  0
    8.3776  -15.3144   21.0673 C   0  0  0  0  0  0  0  0  0  0  0  0
    7.7500  -15.9591   22.2613 C   0  0  0  0  0  0  0  0  0  0  0  0
    7.0247  -14.9250   23.0924 C   0  0  2  0  0  0  0  0  0  0  0  0
    6.6382  -13.8317   22.2662 N   0  0  0  0  0  0  0  0  0  0  0  0
    7.8299  -14.4554   24.2230 C   0  0  0  0  0  0  0  0  0  0  0  0
    9.0328  -14.8460   24.2657 O   0  0  0  0  0  0  0  0  0  0  0  0
    6.9531  -14.0023   17.2055 N   0  0  0  0  0  0  0  0  0  0  0  0
    7.3034  -13.6035   25.2341 C   0  0  0  0  0  0  0  0  0  0  0  0
    5.9916  -13.0035   25.2336 C   0  0  0  0  0  0  0  0  0  0  0  0
    6.0045  -12.0479   26.4182 C   0  0  0  0  0  0  0  0  0  0  0  0
    7.0268  -12.6343   27.3441 C   0  0  2  0  0  0  0  0  0  0  0  0
    8.0350  -13.2403   26.4051 C   0  0  0  0  0  0  0  0  0  0  0  0
    8.7061  -14.3952   27.0805 O   0  0  0  0  0  0  0  0  0  0  0  0
    8.0605  -15.4442   27.2646 N   0  0  0  0  0  0  0  0  0  0  0  0
   10.0442  -14.3064   27.5038 C   0  0  0  0  0  0  0  0  0  0  0  0
   10.4783  -14.5422   28.8629 C   0  0  0  0  0  0  0  0  0  0  0  0
   10.3596  -15.9604   29.2543 O   0  0  0  0  0  0  0  0  0  0  0  0
   11.0474  -16.8177   28.6621 O   0  0  0  0  0  0  0  0  0  0  0  0
  2  4  1  0
  2  1  1  0
  3  2  2  0
  5  4  1  0
  6  5  1  0
  7  8  1  0
  7  6  1  0
  8 10  1  0
  8  9  1  6
 10 12  1  0
 11 10  2  0
 12 13  1  0
 12 16  1  0
 13 14  1  0
 14 15  1  0
 16 15  1  0
 16 17  1  1
 17 18  2  0
 19 17  1  0
 20 19  1  0
 20 21  1  0
 21 22  2  0
 21 23  1  0
M  END
$$$$
