RPG.pdb
     RDKit          3D

 23 23  0  0  1  0  0  0  0  0999 V2000
    8.8178  -14.9188   16.6093 N   0  0  0  0  0  0  0  0  0  0  0  0
    8.2635  -13.7944   17.2838 C   0  0  0  0  0  0  0  0  0  0  0  0
    7.7062  -12.8039   16.6706 N   0  0  0  0  0  0  0  0  0  0  0  0
    8.3115  -13.7308   18.7092 N   0  0  0  0  0  0  0  0  0  0  0  0
    7.8303  -14.7918   19.5505 C   0  0  0  0  0  0  0  0  0  0  0  0
    6.8309  -14.2118   20.5274 C   0  0  0  0  0  0  0  0  0  0  0  0
    7.0017  -14.7569   21.9089 C   0  0  0  0  0  0  0  0  0  0  0  0
    8.2058  -14.1284   22.5732 C   0  0  2  0  0  0  0  0  0  0  0  0
    9.3929  -14.5475   21.9081 N   0  0  0  0  0  0  0  0  0  0  0  0
    8.2795  -14.4418   24.0027 C   0  0  0  0  0  0  0  0  0  0  0  0
    8.9985  -15.4296   24.3321 O   0  0  0  0  0  0  0  0  0  0  0  0
    7.2961  -12.0108   17.2178 N   0  0  0  0  0  0  0  0  0  0  0  0
    7.5833  -13.6860   24.9872 C   0  0  0  0  0  0  0  0  0  0  0  0
    6.8207  -12.4853   24.7464 C   0  0  0  0  0  0  0  0  0  0  0  0
    6.4536  -11.9774   26.1335 C   0  0  0  0  0  0  0  0  0  0  0  0
    6.4631  -13.2113   26.9842 C   0  0  2  0  0  0  0  0  0  0  0  0
    7.5536  -14.0462   26.3684 C   0  0  0  0  0  0  0  0  0  0  0  0
    7.2613  -15.4943   26.6088 O   0  0  0  0  0  0  0  0  0  0  0  0
    6.2305  -15.9911   26.1172 N   0  0  0  0  0  0  0  0  0  0  0  0
    8.1312  -16.2892   27.3762 C   0  0  0  0  0  0  0  0  0  0  0  0
    7.9385  -17.7033   27.6094 C   0  0  0  0  0  0  0  0  0  0  0  0
    8.9951  -18.2830   28.4616 O   0  0  0  0  0  0  0  0  0  0  0  0
   10.0861  -17.6863   28.5736 O   0  0  0  0  0  0  0  0  0  0  0  0
  2  4  1  0
  2  1  1  0
  3  2  2  0
  5  4  1  0
  6  5  1  0
  7  8  1  0
  7  6  1  0
  8 10  1  0
  8  9  1  6
 10 12  1  0
 11 10  2  0
 12 13  1  0
 12 16  1  0
 13 14  1  0
 14 15  1  0
 16 15  1  0
 16 17  1  6
 17 18  2  0
 19 17  1  0
 20 19  1  0
 20 21  1  0
 21 22  2  0
 21 23  1  0
M  END
$$$$
