RPG.pdb
     RDKit          3D

 23 23  0  0  1  0  0  0  0  0999 V2000
    8.0342  -15.1781   17.6942 N   0  0  0  0  0  0  0  0  0  0  0  0
    8.2709  -13.7769   17.7781 C   0  0  0  0  0  0  0  0  0  0  0  0
    8.5072  -13.0351   16.7478 N   0  0  0  0  0  0  0  0  0  0  0  0
    8.2523  -13.1318   19.0515 N   0  0  0  0  0  0  0  0  0  0  0  0
    8.8250  -13.7225   20.2297 C   0  0  0  0  0  0  0  0  0  0  0  0
    7.7110  -14.3458   21.0421 C   0  0  0  0  0  0  0  0  0  0  0  0
    7.8066  -14.0070   22.4951 C   0  0  0  0  0  0  0  0  0  0  0  0
    7.7088  -15.2627   23.3317 C   0  0  2  0  0  0  0  0  0  0  0  0
    7.1398  -14.9508   24.5991 N   0  0  0  0  0  0  0  0  0  0  0  0
    9.0066  -15.9222   23.4991 C   0  0  0  0  0  0  0  0  0  0  0  0
    9.8766  -15.3018   24.1770 O   0  0  0  0  0  0  0  0  0  0  0  0
    8.6824  -12.0096   16.8677 N   0  0  0  0  0  0  0  0  0  0  0  0
    9.2946  -17.1961   22.9339 C   0  0  0  0  0  0  0  0  0  0  0  0
    8.3442  -18.0660   22.2849 C   0  0  0  0  0  0  0  0  0  0  0  0
    9.1089  -19.3595   22.0425 C   0  0  0  0  0  0  0  0  0  0  0  0
   10.5413  -18.9243   21.9712 C   0  0  2  0  0  0  0  0  0  0  0  0
   10.6005  -17.7731   22.9391 C   0  0  0  0  0  0  0  0  0  0  0  0
   11.6802  -16.8273   22.5150 O   0  0  0  0  0  0  0  0  0  0  0  0
   11.4406  -16.0044   21.6115 N   0  0  0  0  0  0  0  0  0  0  0  0
   12.9485  -16.8601   23.1217 C   0  0  0  0  0  0  0  0  0  0  0  0
   13.9966  -15.9004   22.8538 C   0  0  0  0  0  0  0  0  0  0  0  0
   15.2109  -16.1544   23.6535 O   0  0  0  0  0  0  0  0  0  0  0  0
   15.1408  -16.9022   24.6508 O   0  0  0  0  0  0  0  0  0  0  0  0
  2  4  1  0
  2  1  1  0
  3  2  2  0
  5  4  1  0
  6  5  1  0
  7  8  1  0
  7  6  1  0
  8 10  1  0
  8  9  1  1
 10 12  1  0
 11 10  2  0
 12 13  1  0
 12 16  1  0
 13 14  1  0
 14 15  1  0
 16 15  1  0
 16 17  1  6
 17 18  2  0
 19 17  1  0
 20 19  1  0
 20 21  1  0
 21 22  2  0
 21 23  1  0
M  END
$$$$
