RPG.pdb
     RDKit          3D

 23 23  0  0  1  0  0  0  0  0999 V2000
    7.9514  -14.6614   17.8745 N   0  0  0  0  0  0  0  0  0  0  0  0
    7.9759  -13.3209   18.3529 C   0  0  0  0  0  0  0  0  0  0  0  0
    8.7425  -12.4061   17.8596 N   0  0  0  0  0  0  0  0  0  0  0  0
    7.1213  -12.9393   19.4309 N   0  0  0  0  0  0  0  0  0  0  0  0
    6.3673  -13.8917   20.1987 C   0  0  0  0  0  0  0  0  0  0  0  0
    7.2799  -15.0422   20.5632 C   0  0  0  0  0  0  0  0  0  0  0  0
    7.2826  -15.3248   22.0312 C   0  0  0  0  0  0  0  0  0  0  0  0
    8.4135  -14.5804   22.7043 C   0  0  2  0  0  0  0  0  0  0  0  0
    9.6578  -15.0015   22.1553 N   0  0  0  0  0  0  0  0  0  0  0  0
    8.4075  -14.7565   24.1590 C   0  0  0  0  0  0  0  0  0  0  0  0
    9.0850  -15.7218   24.6179 O   0  0  0  0  0  0  0  0  0  0  0  0
    8.6989  -11.4278   18.2305 N   0  0  0  0  0  0  0  0  0  0  0  0
    7.6809  -13.8966   25.0296 C   0  0  0  0  0  0  0  0  0  0  0  0
    6.9127  -12.7432   24.6290 C   0  0  0  0  0  0  0  0  0  0  0  0
    6.5081  -12.0768   25.9362 C   0  0  0  0  0  0  0  0  0  0  0  0
    6.5093  -13.1992   26.9293 C   0  0  2  0  0  0  0  0  0  0  0  0
    7.6221  -14.0885   26.4431 C   0  0  0  0  0  0  0  0  0  0  0  0
    7.3382  -15.5007   26.8496 O   0  0  0  0  0  0  0  0  0  0  0  0
    6.3385  -16.0746   26.3780 N   0  0  0  0  0  0  0  0  0  0  0  0
    8.1814  -16.1770   27.7492 C   0  0  0  0  0  0  0  0  0  0  0  0
    8.1083  -17.5970   28.0122 C   0  0  0  0  0  0  0  0  0  0  0  0
    9.0925  -18.0345   29.0215 O   0  0  0  0  0  0  0  0  0  0  0  0
    9.9541  -17.2264   29.4255 O   0  0  0  0  0  0  0  0  0  0  0  0
  2  4  1  0
  2  1  1  0
  3  2  2  0
  5  4  1  0
  6  5  1  0
  7  8  1  0
  7  6  1  0
  8 10  1  0
  8  9  1  6
 10 12  1  0
 11 10  2  0
 12 13  1  0
 12 16  1  0
 13 14  1  0
 14 15  1  0
 16 15  1  0
 16 17  1  6
 17 18  2  0
 19 17  1  0
 20 19  1  0
 20 21  1  0
 21 22  2  0
 21 23  1  0
M  END
$$$$
