RPG.pdb
     RDKit          3D

 23 23  0  0  1  0  0  0  0  0999 V2000
    4.7723  -19.5092   22.2681 N   0  0  0  0  0  0  0  0  0  0  0  0
    5.5530  -18.9373   21.2241 C   0  0  0  0  0  0  0  0  0  0  0  0
    5.2578  -19.0553   19.9724 N   0  0  0  0  0  0  0  0  0  0  0  0
    6.7264  -18.1908   21.5464 N   0  0  0  0  0  0  0  0  0  0  0  0
    6.7082  -17.0600   22.4330 C   0  0  0  0  0  0  0  0  0  0  0  0
    6.3850  -15.8229   21.6239 C   0  0  0  0  0  0  0  0  0  0  0  0
    6.0980  -14.6362   22.4867 C   0  0  0  0  0  0  0  0  0  0  0  0
    7.3286  -13.7656   22.6035 C   0  0  2  0  0  0  0  0  0  0  0  0
    8.2317  -14.0683   21.5453 N   0  0  0  0  0  0  0  0  0  0  0  0
    7.9914  -13.9105   23.9023 C   0  0  0  0  0  0  0  0  0  0  0  0
    8.9515  -14.7327   23.9624 O   0  0  0  0  0  0  0  0  0  0  0  0
    5.9012  -18.6688   19.2421 N   0  0  0  0  0  0  0  0  0  0  0  0
    7.5894  -13.1736   25.0515 C   0  0  0  0  0  0  0  0  0  0  0  0
    6.6347  -12.0922   25.0695 C   0  0  0  0  0  0  0  0  0  0  0  0
    6.7129  -11.5328   26.4828 C   0  0  0  0  0  0  0  0  0  0  0  0
    7.1888  -12.6923   27.3044 C   0  0  2  0  0  0  0  0  0  0  0  0
    8.0965  -13.4343   26.3604 C   0  0  0  0  0  0  0  0  0  0  0  0
    8.1076  -14.8857   26.7257 O   0  0  0  0  0  0  0  0  0  0  0  0
    7.0865  -15.5677   26.5181 N   0  0  0  0  0  0  0  0  0  0  0  0
    9.2488  -15.4787   27.2948 C   0  0  0  0  0  0  0  0  0  0  0  0
    9.3050  -16.8509   27.7473 C   0  0  0  0  0  0  0  0  0  0  0  0
   10.5773  -17.1693   28.4245 O   0  0  0  0  0  0  0  0  0  0  0  0
   11.2304  -18.1689   28.0600 O   0  0  0  0  0  0  0  0  0  0  0  0
  2  4  1  0
  2  1  1  0
  3  2  2  0
  5  4  1  0
  6  5  1  0
  7  8  1  0
  7  6  1  0
  8 10  1  0
  8  9  1  6
 10 12  1  0
 11 10  2  0
 12 13  1  0
 12 16  1  0
 13 14  1  0
 14 15  1  0
 16 15  1  0
 16 17  1  1
 17 18  2  0
 19 17  1  0
 20 19  1  0
 20 21  1  0
 21 22  2  0
 21 23  1  0
M  END
$$$$
