RPG.pdb
     RDKit          3D

 23 23  0  0  1  0  0  0  0  0999 V2000
    6.3822  -21.1321   21.7483 N   0  0  0  0  0  0  0  0  0  0  0  0
    6.2208  -20.3028   20.6027 C   0  0  0  0  0  0  0  0  0  0  0  0
    6.1026  -20.7663   19.4031 N   0  0  0  0  0  0  0  0  0  0  0  0
    6.1841  -18.8839   20.7565 N   0  0  0  0  0  0  0  0  0  0  0  0
    6.4925  -18.2292   21.9980 C   0  0  0  0  0  0  0  0  0  0  0  0
    6.3982  -16.7339   21.7865 C   0  0  0  0  0  0  0  0  0  0  0  0
    6.5361  -15.9678   23.0629 C   0  0  0  0  0  0  0  0  0  0  0  0
    7.5637  -14.8700   22.9046 C   0  0  2  0  0  0  0  0  0  0  0  0
    8.5289  -15.2542   21.9310 N   0  0  0  0  0  0  0  0  0  0  0  0
    8.2177  -14.5332   24.1719 C   0  0  0  0  0  0  0  0  0  0  0  0
    9.2795  -15.1634   24.4492 O   0  0  0  0  0  0  0  0  0  0  0  0
    5.9840  -20.1102   18.5956 N   0  0  0  0  0  0  0  0  0  0  0  0
    7.6996  -13.5505   25.0613 C   0  0  0  0  0  0  0  0  0  0  0  0
    6.6829  -12.5773   24.7444 C   0  0  0  0  0  0  0  0  0  0  0  0
    6.6368  -11.6594   25.9577 C   0  0  0  0  0  0  0  0  0  0  0  0
    7.1273  -12.5212   27.0815 C   0  0  2  0  0  0  0  0  0  0  0  0
    8.1362  -13.4168   26.4140 C   0  0  0  0  0  0  0  0  0  0  0  0
    8.2105  -14.7147   27.1557 O   0  0  0  0  0  0  0  0  0  0  0  0
    7.2243  -15.4750   27.1409 N   0  0  0  0  0  0  0  0  0  0  0  0
    9.3716  -15.0783   27.8610 C   0  0  0  0  0  0  0  0  0  0  0  0
    9.5506  -16.3537   28.5185 C   0  0  0  0  0  0  0  0  0  0  0  0
   10.8629  -16.4647   29.1850 O   0  0  0  0  0  0  0  0  0  0  0  0
   10.9082  -16.6943   30.4113 O   0  0  0  0  0  0  0  0  0  0  0  0
  2  4  1  0
  2  1  1  0
  3  2  2  0
  5  4  1  0
  6  5  1  0
  7  8  1  0
  7  6  1  0
  8 10  1  0
  8  9  1  6
 10 12  1  0
 11 10  2  0
 12 13  1  0
 12 16  1  0
 13 14  1  0
 14 15  1  0
 16 15  1  0
 16 17  1  1
 17 18  2  0
 19 17  1  0
 20 19  1  0
 20 21  1  0
 21 22  2  0
 21 23  1  0
M  END
$$$$
