RPG.pdb
     RDKit          3D

 23 23  0  0  1  0  0  0  0  0999 V2000
    8.5976  -13.9031   15.9709 N   0  0  0  0  0  0  0  0  0  0  0  0
    8.0950  -13.7611   17.2952 C   0  0  0  0  0  0  0  0  0  0  0  0
    8.1470  -12.6541   17.9581 N   0  0  0  0  0  0  0  0  0  0  0  0
    7.4983  -14.8813   17.9488 N   0  0  0  0  0  0  0  0  0  0  0  0
    7.0107  -14.8232   19.2994 C   0  0  0  0  0  0  0  0  0  0  0  0
    8.1861  -14.5879   20.2226 C   0  0  0  0  0  0  0  0  0  0  0  0
    7.8158  -14.7282   21.6643 C   0  0  0  0  0  0  0  0  0  0  0  0
    9.0095  -14.4263   22.5419 C   0  0  2  0  0  0  0  0  0  0  0  0
   10.1602  -15.0907   22.0304 N   0  0  0  0  0  0  0  0  0  0  0  0
    8.7801  -14.7985   23.9405 C   0  0  0  0  0  0  0  0  0  0  0  0
    9.3763  -15.8334   24.3588 O   0  0  0  0  0  0  0  0  0  0  0  0
    7.7204  -12.5926   18.9125 N   0  0  0  0  0  0  0  0  0  0  0  0
    7.9314  -14.0477   24.8014 C   0  0  0  0  0  0  0  0  0  0  0  0
    7.3324  -12.7719   24.4936 C   0  0  0  0  0  0  0  0  0  0  0  0
    6.6927  -12.3217   25.7993 C   0  0  0  0  0  0  0  0  0  0  0  0
    6.4178  -13.6025   26.5273 C   0  0  2  0  0  0  0  0  0  0  0  0
    7.5586  -14.4898   26.1067 C   0  0  0  0  0  0  0  0  0  0  0  0
    7.1163  -15.9188   26.1570 O   0  0  0  0  0  0  0  0  0  0  0  0
    6.4637  -16.3820   25.2027 N   0  0  0  0  0  0  0  0  0  0  0  0
    7.4280  -16.7331   27.2603 C   0  0  0  0  0  0  0  0  0  0  0  0
    7.0901  -18.1363   27.3490 C   0  0  0  0  0  0  0  0  0  0  0  0
    8.2594  -19.0120   27.1372 O   0  0  0  0  0  0  0  0  0  0  0  0
    9.1935  -18.6187   26.4082 O   0  0  0  0  0  0  0  0  0  0  0  0
  2  4  1  0
  2  1  1  0
  3  2  2  0
  5  4  1  0
  6  5  1  0
  7  8  1  0
  7  6  1  0
  8 10  1  0
  8  9  1  6
 10 12  1  0
 11 10  2  0
 12 13  1  0
 12 16  1  0
 13 14  1  0
 14 15  1  0
 16 15  1  0
 16 17  1  6
 17 18  2  0
 19 17  1  0
 20 19  1  0
 20 21  1  0
 21 22  2  0
 21 23  1  0
M  END
$$$$
