RPG.pdb
     RDKit          3D

 23 23  0  0  1  0  0  0  0  0999 V2000
   11.1260  -15.9604   17.0807 N   0  0  0  0  0  0  0  0  0  0  0  0
   10.0794  -16.8977   17.3104 C   0  0  0  0  0  0  0  0  0  0  0  0
   10.2801  -18.0823   17.7838 N   0  0  0  0  0  0  0  0  0  0  0  0
    8.7304  -16.5383   17.0118 N   0  0  0  0  0  0  0  0  0  0  0  0
    8.3603  -15.2307   16.5447 C   0  0  0  0  0  0  0  0  0  0  0  0
    7.7522  -14.4648   17.6993 C   0  0  0  0  0  0  0  0  0  0  0  0
    8.3468  -14.8504   19.0156 C   0  0  0  0  0  0  0  0  0  0  0  0
    8.6798  -13.6145   19.8205 C   0  0  2  0  0  0  0  0  0  0  0  0
    9.6577  -12.8429   19.1309 N   0  0  0  0  0  0  0  0  0  0  0  0
    9.1409  -13.9389   21.1730 C   0  0  0  0  0  0  0  0  0  0  0  0
   10.3228  -14.3781   21.2809 O   0  0  0  0  0  0  0  0  0  0  0  0
    9.4694  -18.7195   17.9666 N   0  0  0  0  0  0  0  0  0  0  0  0
    8.3156  -13.7766   22.3209 C   0  0  0  0  0  0  0  0  0  0  0  0
    7.0019  -13.1809   22.3386 C   0  0  0  0  0  0  0  0  0  0  0  0
    6.6463  -13.0758   23.8148 C   0  0  0  0  0  0  0  0  0  0  0  0
    7.4503  -14.1648   24.4583 C   0  0  2  0  0  0  0  0  0  0  0  0
    8.7038  -14.2056   23.6261 C   0  0  0  0  0  0  0  0  0  0  0  0
    9.2750  -15.5886   23.6623 O   0  0  0  0  0  0  0  0  0  0  0  0
    8.7342  -16.4823   22.9842 N   0  0  0  0  0  0  0  0  0  0  0  0
   10.4043  -15.8835   24.4468 C   0  0  0  0  0  0  0  0  0  0  0  0
   10.9135  -17.2202   24.6584 C   0  0  0  0  0  0  0  0  0  0  0  0
   12.1097  -17.5034   23.8413 O   0  0  0  0  0  0  0  0  0  0  0  0
   13.0706  -16.7069   23.8677 O   0  0  0  0  0  0  0  0  0  0  0  0
  2  4  1  0
  2  1  1  0
  3  2  2  0
  5  4  1  0
  6  5  1  0
  7  8  1  0
  7  6  1  0
  8 10  1  0
  8  9  1  6
 10 12  1  0
 11 10  2  0
 12 13  1  0
 12 16  1  0
 13 14  1  0
 14 15  1  0
 16 15  1  0
 16 17  1  1
 17 18  2  0
 19 17  1  0
 20 19  1  0
 20 21  1  0
 21 22  2  0
 21 23  1  0
M  END
$$$$
