RPG.pdb
     RDKit          3D

 23 23  0  0  1  0  0  0  0  0999 V2000
    6.7728  -19.2637   25.9294 N   0  0  0  0  0  0  0  0  0  0  0  0
    7.6886  -18.6867   26.8540 C   0  0  0  0  0  0  0  0  0  0  0  0
    7.8633  -19.1355   28.0523 N   0  0  0  0  0  0  0  0  0  0  0  0
    8.4664  -17.5544   26.4655 N   0  0  0  0  0  0  0  0  0  0  0  0
    7.8768  -16.2969   26.0965 C   0  0  0  0  0  0  0  0  0  0  0  0
    7.2064  -16.4596   24.7499 C   0  0  0  0  0  0  0  0  0  0  0  0
    8.1430  -16.2066   23.6124 C   0  0  0  0  0  0  0  0  0  0  0  0
    7.3943  -16.2515   22.2995 C   0  0  2  0  0  0  0  0  0  0  0  0
    6.8365  -17.5478   22.1103 N   0  0  0  0  0  0  0  0  0  0  0  0
    8.2430  -15.8860   21.1623 C   0  0  0  0  0  0  0  0  0  0  0  0
    9.1129  -16.7332   20.8062 O   0  0  0  0  0  0  0  0  0  0  0  0
    8.5541  -18.6747   28.6904 N   0  0  0  0  0  0  0  0  0  0  0  0
    8.1124  -14.6440   20.4798 C   0  0  0  0  0  0  0  0  0  0  0  0
    7.0227  -13.7102   20.6273 C   0  0  0  0  0  0  0  0  0  0  0  0
    7.2655  -12.6617   19.5511 C   0  0  0  0  0  0  0  0  0  0  0  0
    8.7464  -12.7116   19.3258 C   0  0  2  0  0  0  0  0  0  0  0  0
    9.0800  -14.1626   19.5469 C   0  0  0  0  0  0  0  0  0  0  0  0
   10.4924  -14.2759   20.0292 O   0  0  0  0  0  0  0  0  0  0  0  0
   10.7350  -14.0835   21.2355 N   0  0  0  0  0  0  0  0  0  0  0  0
   11.5356  -14.5941   19.1415 C   0  0  0  0  0  0  0  0  0  0  0  0
   12.9190  -14.7342   19.5385 C   0  0  0  0  0  0  0  0  0  0  0  0
   13.7849  -15.1621   18.4223 O   0  0  0  0  0  0  0  0  0  0  0  0
   14.7671  -14.4591   18.1064 O   0  0  0  0  0  0  0  0  0  0  0  0
  2  4  1  0
  2  1  1  0
  3  2  2  0
  5  4  1  0
  6  5  1  0
  7  8  1  0
  7  6  1  0
  8 10  1  0
  8  9  1  6
 10 12  1  0
 11 10  2  0
 12 13  1  0
 12 16  1  0
 13 14  1  0
 14 15  1  0
 16 15  1  0
 16 17  1  1
 17 18  2  0
 19 17  1  0
 20 19  1  0
 20 21  1  0
 21 22  2  0
 21 23  1  0
M  END
$$$$
