RPG.pdb
     RDKit          3D

 23 23  0  0  1  0  0  0  0  0999 V2000
    8.3906  -12.8088   14.1630 N   0  0  0  0  0  0  0  0  0  0  0  0
    7.9534  -13.5748   15.2805 C   0  0  0  0  0  0  0  0  0  0  0  0
    7.8249  -14.8595   15.2525 N   0  0  0  0  0  0  0  0  0  0  0  0
    7.6338  -12.9173   16.5067 N   0  0  0  0  0  0  0  0  0  0  0  0
    6.9873  -13.5872   17.6014 C   0  0  0  0  0  0  0  0  0  0  0  0
    8.0065  -14.4650   18.2943 C   0  0  0  0  0  0  0  0  0  0  0  0
    8.2337  -14.0619   19.7159 C   0  0  0  0  0  0  0  0  0  0  0  0
    7.5056  -15.0033   20.6485 C   0  0  2  0  0  0  0  0  0  0  0  0
    6.4481  -14.3082   21.3011 N   0  0  0  0  0  0  0  0  0  0  0  0
    8.4023  -15.6158   21.6323 C   0  0  0  0  0  0  0  0  0  0  0  0
    8.8067  -14.8729   22.5735 O   0  0  0  0  0  0  0  0  0  0  0  0
    7.4550  -15.3689   16.0893 N   0  0  0  0  0  0  0  0  0  0  0  0
    8.8112  -16.9765   21.5501 C   0  0  0  0  0  0  0  0  0  0  0  0
    8.2777  -17.9650   20.6449 C   0  0  0  0  0  0  0  0  0  0  0  0
    8.9066  -19.2767   21.0929 C   0  0  0  0  0  0  0  0  0  0  0  0
   10.1855  -18.8575   21.7523 C   0  0  2  0  0  0  0  0  0  0  0  0
    9.8340  -17.5335   22.3759 C   0  0  0  0  0  0  0  0  0  0  0  0
   11.0657  -16.6878   22.4649 O   0  0  0  0  0  0  0  0  0  0  0  0
   11.5553  -16.2234   21.4182 N   0  0  0  0  0  0  0  0  0  0  0  0
   11.6675  -16.4165   23.7066 C   0  0  0  0  0  0  0  0  0  0  0  0
   12.7366  -17.2068   24.2755 C   0  0  0  0  0  0  0  0  0  0  0  0
   13.9221  -17.2656   23.3982 O   0  0  0  0  0  0  0  0  0  0  0  0
   14.3678  -18.3775   23.0464 O   0  0  0  0  0  0  0  0  0  0  0  0
  2  4  1  0
  2  1  1  0
  3  2  2  0
  5  4  1  0
  6  5  1  0
  7  8  1  0
  7  6  1  0
  8 10  1  0
  8  9  1  1
 10 12  1  0
 11 10  2  0
 12 13  1  0
 12 16  1  0
 13 14  1  0
 14 15  1  0
 16 15  1  0
 16 17  1  6
 17 18  2  0
 19 17  1  0
 20 19  1  0
 20 21  1  0
 21 22  2  0
 21 23  1  0
M  END
$$$$
