RPG.pdb
     RDKit          3D

 23 23  0  0  1  0  0  0  0  0999 V2000
    5.4237  -18.9569   12.6536 N   0  0  0  0  0  0  0  0  0  0  0  0
    5.9432  -19.9885   13.4857 C   0  0  0  0  0  0  0  0  0  0  0  0
    5.8565  -21.2439   13.1959 N   0  0  0  0  0  0  0  0  0  0  0  0
    6.5979  -19.6485   14.7080 N   0  0  0  0  0  0  0  0  0  0  0  0
    6.4949  -18.3469   15.3081 C   0  0  0  0  0  0  0  0  0  0  0  0
    7.3475  -18.3275   16.5579 C   0  0  0  0  0  0  0  0  0  0  0  0
    7.1472  -17.0856   17.3657 C   0  0  0  0  0  0  0  0  0  0  0  0
    8.2400  -16.0849   17.0649 C   0  0  2  0  0  0  0  0  0  0  0  0
    9.1672  -16.6505   16.1442 N   0  0  0  0  0  0  0  0  0  0  0  0
    8.9293  -15.6329   18.2764 C   0  0  0  0  0  0  0  0  0  0  0  0
    9.8939  -16.3450   18.6812 O   0  0  0  0  0  0  0  0  0  0  0  0
    6.1861  -21.9651   13.8799 N   0  0  0  0  0  0  0  0  0  0  0  0
    8.5472  -14.4554   18.9784 C   0  0  0  0  0  0  0  0  0  0  0  0
    7.5154  -13.5307   18.5769 C   0  0  0  0  0  0  0  0  0  0  0  0
    7.6418  -12.3665   19.5492 C   0  0  0  0  0  0  0  0  0  0  0  0
    8.2578  -12.9805   20.7697 C   0  0  2  0  0  0  0  0  0  0  0  0
    9.1566  -14.0466   20.2031 C   0  0  0  0  0  0  0  0  0  0  0  0
    9.3031  -15.1508   21.2029 O   0  0  0  0  0  0  0  0  0  0  0  0
    8.3968  -15.9992   21.3014 N   0  0  0  0  0  0  0  0  0  0  0  0
   10.4427  -15.2369   22.0223 C   0  0  0  0  0  0  0  0  0  0  0  0
   10.6883  -16.3163   22.9527 C   0  0  0  0  0  0  0  0  0  0  0  0
   11.9383  -16.1294   23.7152 O   0  0  0  0  0  0  0  0  0  0  0  0
   13.0343  -16.3198   23.1483 O   0  0  0  0  0  0  0  0  0  0  0  0
  2  4  1  0
  2  1  1  0
  3  2  2  0
  5  4  1  0
  6  5  1  0
  7  8  1  0
  7  6  1  0
  8 10  1  0
  8  9  1  6
 10 12  1  0
 11 10  2  0
 12 13  1  0
 12 16  1  0
 13 14  1  0
 14 15  1  0
 16 15  1  0
 16 17  1  1
 17 18  2  0
 19 17  1  0
 20 19  1  0
 20 21  1  0
 21 22  2  0
 21 23  1  0
M  END
$$$$
