RPG.pdb
     RDKit          3D

 23 23  0  0  1  0  0  0  0  0999 V2000
    8.7747  -20.2632   16.0869 N   0  0  0  0  0  0  0  0  0  0  0  0
    7.4602  -19.7199   16.1464 C   0  0  0  0  0  0  0  0  0  0  0  0
    6.3926  -20.4279   15.9829 N   0  0  0  0  0  0  0  0  0  0  0  0
    7.2821  -18.3259   16.3978 N   0  0  0  0  0  0  0  0  0  0  0  0
    8.3675  -17.3849   16.3587 C   0  0  0  0  0  0  0  0  0  0  0  0
    8.1620  -16.3716   17.4634 C   0  0  0  0  0  0  0  0  0  0  0  0
    8.6398  -15.0073   17.0818 C   0  0  0  0  0  0  0  0  0  0  0  0
    8.2899  -14.0100   18.1630 C   0  0  2  0  0  0  0  0  0  0  0  0
    8.7001  -12.7065   17.7631 N   0  0  0  0  0  0  0  0  0  0  0  0
    8.8819  -14.3611   19.4565 C   0  0  0  0  0  0  0  0  0  0  0  0
   10.1079  -14.6747   19.4547 O   0  0  0  0  0  0  0  0  0  0  0  0
    5.4509  -19.9702   16.0001 N   0  0  0  0  0  0  0  0  0  0  0  0
    8.1319  -14.3574   20.6660 C   0  0  0  0  0  0  0  0  0  0  0  0
    6.7410  -13.9976   20.7956 C   0  0  0  0  0  0  0  0  0  0  0  0
    6.4876  -13.9730   22.2963 C   0  0  0  0  0  0  0  0  0  0  0  0
    7.5133  -14.9144   22.8512 C   0  0  2  0  0  0  0  0  0  0  0  0
    8.6873  -14.7284   21.9278 C   0  0  0  0  0  0  0  0  0  0  0  0
    9.4879  -15.9923   21.8871 O   0  0  0  0  0  0  0  0  0  0  0  0
    9.1056  -16.9251   21.1558 N   0  0  0  0  0  0  0  0  0  0  0  0
   10.6549  -16.1335   22.6591 C   0  0  0  0  0  0  0  0  0  0  0  0
   11.4446  -17.3436   22.7147 C   0  0  0  0  0  0  0  0  0  0  0  0
   12.6182  -17.2103   23.5999 O   0  0  0  0  0  0  0  0  0  0  0  0
   13.5331  -16.4204   23.2873 O   0  0  0  0  0  0  0  0  0  0  0  0
  2  4  1  0
  2  1  1  0
  3  2  2  0
  5  4  1  0
  6  5  1  0
  7  8  1  0
  7  6  1  0
  8 10  1  0
  8  9  1  6
 10 12  1  0
 11 10  2  0
 12 13  1  0
 12 16  1  0
 13 14  1  0
 14 15  1  0
 16 15  1  0
 16 17  1  1
 17 18  2  0
 19 17  1  0
 20 19  1  0
 20 21  1  0
 21 22  2  0
 21 23  1  0
M  END
$$$$
