RPG.pdb
     RDKit          3D

 23 23  0  0  1  0  0  0  0  0999 V2000
    8.3440  -18.0203   25.2319 N   0  0  0  0  0  0  0  0  0  0  0  0
    6.9922  -18.4587   25.1476 C   0  0  0  0  0  0  0  0  0  0  0  0
    6.4505  -19.2551   26.0078 N   0  0  0  0  0  0  0  0  0  0  0  0
    6.1701  -18.0123   24.0692 N   0  0  0  0  0  0  0  0  0  0  0  0
    6.1343  -18.6745   22.7944 C   0  0  0  0  0  0  0  0  0  0  0  0
    6.6043  -17.7007   21.7360 C   0  0  0  0  0  0  0  0  0  0  0  0
    6.8014  -18.3550   20.4063 C   0  0  0  0  0  0  0  0  0  0  0  0
    7.2141  -17.3288   19.3753 C   0  0  2  0  0  0  0  0  0  0  0  0
    7.5568  -17.9836   18.1584 N   0  0  0  0  0  0  0  0  0  0  0  0
    8.3231  -16.4902   19.8380 C   0  0  0  0  0  0  0  0  0  0  0  0
    9.4228  -17.0746   20.0625 O   0  0  0  0  0  0  0  0  0  0  0  0
    5.4480  -19.5389   25.9025 N   0  0  0  0  0  0  0  0  0  0  0  0
    8.1898  -15.0868   20.0329 C   0  0  0  0  0  0  0  0  0  0  0  0
    7.0006  -14.3092   19.7839 C   0  0  0  0  0  0  0  0  0  0  0  0
    7.4415  -12.8633   19.9617 C   0  0  0  0  0  0  0  0  0  0  0  0
    8.6105  -12.9544   20.8951 C   0  0  2  0  0  0  0  0  0  0  0  0
    9.2502  -14.2641   20.5198 C   0  0  0  0  0  0  0  0  0  0  0  0
    9.9538  -14.8294   21.7138 O   0  0  0  0  0  0  0  0  0  0  0  0
    9.2827  -15.1541   22.7114 N   0  0  0  0  0  0  0  0  0  0  0  0
   11.3503  -14.9950   21.7181 C   0  0  0  0  0  0  0  0  0  0  0  0
   12.1055  -15.4524   22.8633 C   0  0  0  0  0  0  0  0  0  0  0  0
   13.5452  -15.5925   22.5694 O   0  0  0  0  0  0  0  0  0  0  0  0
   13.9279  -15.6069   21.3811 O   0  0  0  0  0  0  0  0  0  0  0  0
  2  4  1  0
  2  1  1  0
  3  2  2  0
  5  4  1  0
  6  5  1  0
  7  8  1  0
  7  6  1  0
  8 10  1  0
  8  9  1  6
 10 12  1  0
 11 10  2  0
 12 13  1  0
 12 16  1  0
 13 14  1  0
 14 15  1  0
 16 15  1  0
 16 17  1  1
 17 18  2  0
 19 17  1  0
 20 19  1  0
 20 21  1  0
 21 22  2  0
 21 23  1  0
M  END
$$$$
