RPG.pdb
     RDKit          3D

 23 23  0  0  1  0  0  0  0  0999 V2000
    6.3183  -13.9527   18.3320 N   0  0  0  0  0  0  0  0  0  0  0  0
    7.4714  -13.3224   18.8794 C   0  0  0  0  0  0  0  0  0  0  0  0
    8.0448  -12.3000   18.3374 N   0  0  0  0  0  0  0  0  0  0  0  0
    8.0449  -13.8235   20.0869 N   0  0  0  0  0  0  0  0  0  0  0  0
    7.5423  -13.4764   21.3877 C   0  0  0  0  0  0  0  0  0  0  0  0
    6.9201  -14.7098   22.0049 C   0  0  0  0  0  0  0  0  0  0  0  0
    7.9452  -15.6934   22.4706 C   0  0  0  0  0  0  0  0  0  0  0  0
    9.1398  -14.9687   23.0484 C   0  0  2  0  0  0  0  0  0  0  0  0
   10.3155  -15.3391   22.3357 N   0  0  0  0  0  0  0  0  0  0  0  0
    9.3056  -15.2240   24.4817 C   0  0  0  0  0  0  0  0  0  0  0  0
    9.9012  -16.2930   24.8039 O   0  0  0  0  0  0  0  0  0  0  0  0
    8.9022  -11.8861   18.7734 N   0  0  0  0  0  0  0  0  0  0  0  0
    8.8263  -14.3276   25.4777 C   0  0  0  0  0  0  0  0  0  0  0  0
    8.0908  -13.1106   25.2346 C   0  0  0  0  0  0  0  0  0  0  0  0
    7.9933  -12.4406   26.5978 C   0  0  0  0  0  0  0  0  0  0  0  0
    8.0917  -13.5789   27.5676 C   0  0  2  0  0  0  0  0  0  0  0  0
    9.0190  -14.5419   26.8760 C   0  0  0  0  0  0  0  0  0  0  0  0
    8.7050  -15.9356   27.3223 O   0  0  0  0  0  0  0  0  0  0  0  0
    7.6071  -16.4351   27.0124 N   0  0  0  0  0  0  0  0  0  0  0  0
    9.6290  -16.6770   28.0800 C   0  0  0  0  0  0  0  0  0  0  0  0
    9.3810  -18.0136   28.5731 C   0  0  0  0  0  0  0  0  0  0  0  0
   10.5111  -18.5418   29.3620 O   0  0  0  0  0  0  0  0  0  0  0  0
   10.5756  -18.2887   30.5829 O   0  0  0  0  0  0  0  0  0  0  0  0
  2  4  1  0
  2  1  1  0
  3  2  2  0
  5  4  1  0
  6  5  1  0
  7  8  1  0
  7  6  1  0
  8 10  1  0
  8  9  1  6
 10 12  1  0
 11 10  2  0
 12 13  1  0
 12 16  1  0
 13 14  1  0
 14 15  1  0
 16 15  1  0
 16 17  1  6
 17 18  2  0
 19 17  1  0
 20 19  1  0
 20 21  1  0
 21 22  2  0
 21 23  1  0
M  END
$$$$
