RPG.pdb
     RDKit          3D

 23 23  0  0  1  0  0  0  0  0999 V2000
    6.7104  -17.1682   11.1900 N   0  0  0  0  0  0  0  0  0  0  0  0
    6.8231  -16.9770   12.5962 C   0  0  0  0  0  0  0  0  0  0  0  0
    6.6799  -15.8285   13.1691 N   0  0  0  0  0  0  0  0  0  0  0  0
    7.1080  -18.0923   13.4407 N   0  0  0  0  0  0  0  0  0  0  0  0
    7.2495  -17.9711   14.8656 C   0  0  0  0  0  0  0  0  0  0  0  0
    8.2359  -16.8610   15.1557 C   0  0  0  0  0  0  0  0  0  0  0  0
    8.5388  -16.7342   16.6142 C   0  0  0  0  0  0  0  0  0  0  0  0
    9.6088  -15.6893   16.8365 C   0  0  2  0  0  0  0  0  0  0  0  0
   10.8505  -16.1580   16.3209 N   0  0  0  0  0  0  0  0  0  0  0  0
    9.7441  -15.3231   18.2489 C   0  0  0  0  0  0  0  0  0  0  0  0
   10.5629  -16.0002   18.9361 O   0  0  0  0  0  0  0  0  0  0  0  0
    6.7360  -15.7508   14.2119 N   0  0  0  0  0  0  0  0  0  0  0  0
    8.9993  -14.2630   18.8378 C   0  0  0  0  0  0  0  0  0  0  0  0
    8.0741  -13.3969   18.1487 C   0  0  0  0  0  0  0  0  0  0  0  0
    7.7065  -12.3328   19.1730 C   0  0  0  0  0  0  0  0  0  0  0  0
    7.9183  -13.0125   20.4918 C   0  0  2  0  0  0  0  0  0  0  0  0
    9.0808  -13.9304   20.2238 C   0  0  0  0  0  0  0  0  0  0  0  0
    8.9944  -15.1146   21.1351 O   0  0  0  0  0  0  0  0  0  0  0  0
    8.0273  -15.8915   21.0244 N   0  0  0  0  0  0  0  0  0  0  0  0
    9.9849  -15.3542   22.1042 C   0  0  0  0  0  0  0  0  0  0  0  0
    9.9727  -16.4818   23.0094 C   0  0  0  0  0  0  0  0  0  0  0  0
   11.0607  -16.4170   24.0048 O   0  0  0  0  0  0  0  0  0  0  0  0
   12.0696  -15.7225   23.7633 O   0  0  0  0  0  0  0  0  0  0  0  0
  2  4  1  0
  2  1  1  0
  3  2  2  0
  5  4  1  0
  6  5  1  0
  7  8  1  0
  7  6  1  0
  8 10  1  0
  8  9  1  1
 10 12  1  0
 11 10  2  0
 12 13  1  0
 12 16  1  0
 13 14  1  0
 14 15  1  0
 16 15  1  0
 16 17  1  1
 17 18  2  0
 19 17  1  0
 20 19  1  0
 20 21  1  0
 21 22  2  0
 21 23  1  0
M  END
$$$$
