RPG.pdb
     RDKit          3D

 23 23  0  0  1  0  0  0  0  0999 V2000
    7.1106  -12.6708   18.0736 N   0  0  0  0  0  0  0  0  0  0  0  0
    7.5077  -13.9106   17.4976 C   0  0  0  0  0  0  0  0  0  0  0  0
    8.0633  -14.0067   16.3358 N   0  0  0  0  0  0  0  0  0  0  0  0
    7.2938  -15.1250   18.2169 N   0  0  0  0  0  0  0  0  0  0  0  0
    6.6679  -15.1618   19.5099 C   0  0  0  0  0  0  0  0  0  0  0  0
    7.2824  -14.0790   20.3698 C   0  0  0  0  0  0  0  0  0  0  0  0
    7.5162  -14.5312   21.7755 C   0  0  0  0  0  0  0  0  0  0  0  0
    8.2400  -13.4575   22.5560 C   0  0  2  0  0  0  0  0  0  0  0  0
    9.4501  -13.1138   21.8890 N   0  0  0  0  0  0  0  0  0  0  0  0
    8.5118  -13.8618   23.9380 C   0  0  0  0  0  0  0  0  0  0  0  0
    9.3908  -14.7564   24.1065 O   0  0  0  0  0  0  0  0  0  0  0  0
    8.3462  -14.9441   15.9646 N   0  0  0  0  0  0  0  0  0  0  0  0
    7.8306  -13.2902   25.0491 C   0  0  0  0  0  0  0  0  0  0  0  0
    6.8069  -12.2760   24.9810 C   0  0  0  0  0  0  0  0  0  0  0  0
    6.5566  -11.8834   26.4300 C   0  0  0  0  0  0  0  0  0  0  0  0
    6.9519  -13.1019   27.2079 C   0  0  2  0  0  0  0  0  0  0  0  0
    8.0864  -13.6733   26.4004 C   0  0  0  0  0  0  0  0  0  0  0  0
    8.1424  -15.1545   26.6080 O   0  0  0  0  0  0  0  0  0  0  0  0
    7.1484  -15.8432   26.3103 N   0  0  0  0  0  0  0  0  0  0  0  0
    9.2951  -15.7677   27.1302 C   0  0  0  0  0  0  0  0  0  0  0  0
    9.3906  -17.1774   27.4382 C   0  0  0  0  0  0  0  0  0  0  0  0
    9.8564  -17.4226   28.8172 O   0  0  0  0  0  0  0  0  0  0  0  0
   10.0587  -16.4518   29.5758 O   0  0  0  0  0  0  0  0  0  0  0  0
  2  4  1  0
  2  1  1  0
  3  2  2  0
  5  4  1  0
  6  5  1  0
  7  8  1  0
  7  6  1  0
  8 10  1  0
  8  9  1  6
 10 12  1  0
 11 10  2  0
 12 13  1  0
 12 16  1  0
 13 14  1  0
 14 15  1  0
 16 15  1  0
 16 17  1  6
 17 18  2  0
 19 17  1  0
 20 19  1  0
 20 21  1  0
 21 22  2  0
 21 23  1  0
M  END
$$$$
