AHA.pdb
     RDKit          3D

 21 21  0  0  1  0  0  0  0  0999 V2000
   34.1929  -35.1106   -3.4081 C   0  0  0  0  0  0  0  0  0  0  0  0
   33.0013  -35.7263   -4.1068 C   0  0  2  0  0  0  0  0  0  0  0  0
   33.1263  -35.4440   -5.5202 N   0  0  0  0  0  0  0  0  0  0  0  0
   31.7131  -35.1784   -3.6297 C   0  0  0  0  0  0  0  0  0  0  0  0
   31.2820  -34.1066   -4.1147 O   0  0  0  0  0  0  0  0  0  0  0  0
   30.9490  -35.8558   -2.6193 N   0  0  0  0  0  0  0  0  0  0  0  0
   29.7102  -35.3068   -2.1495 C   0  0  1  0  0  0  0  0  0  0  0  0
   28.5018  -35.9388   -2.7865 C   0  0  0  0  0  0  0  0  0  0  0  0
   28.2836  -35.5231   -4.1717 C   0  0  0  0  0  0  0  0  0  0  0  0
   28.4986  -36.2918   -5.2881 C   0  0  0  0  0  0  0  0  0  0  0  0
   28.1778  -35.5409   -6.3619 N   0  0  0  0  0  0  0  0  0  0  0  0
   27.7698  -34.3297   -5.9539 C   0  0  0  0  0  0  0  0  0  0  0  0
   27.8426  -34.3408   -4.6092 N   0  0  0  0  0  0  0  0  0  0  0  0
   29.6278  -35.3702   -0.6475 C   0  0  0  0  0  0  0  0  0  0  0  0
   30.0253  -36.4105   -0.0617 O   0  0  0  0  0  0  0  0  0  0  0  0
   28.6390  -33.0999    2.2050 C   0  0  0  0  0  0  0  0  0  0  0  0
   29.0290  -34.4208    1.5600 C   0  0  2  0  0  0  0  0  0  0  0  0
   29.1170  -34.2963    0.1261 N   0  0  0  0  0  0  0  0  0  0  0  0
   28.0124  -35.4493    1.9429 C   0  0  0  0  0  0  0  0  0  0  0  0
   27.8844  -35.7513    3.1568 O   0  0  0  0  0  0  0  0  0  0  0  0
   27.2017  -36.0882    1.0245 O   0  0  0  0  0  0  0  0  0  0  0  0
  2  1  1  1
  2  4  1  0
  2  3  1  0
  4  5  2  0
  6  7  1  0
  6  4  1  0
  7  8  1  6
  9  8  1  0
 10  9  2  0
 11 10  1  0
 12 11  1  0
 12 13  2  0
 13  9  1  0
 14 15  2  0
 14  7  1  0
 17 16  1  1
 17 19  1  0
 17 18  1  0
 18 14  1  0
 19 21  1  0
 20 19  2  0
M  END
$$$$
