AHA.pdb
     RDKit          3D

 21 21  0  0  1  0  0  0  0  0999 V2000
   31.5748  -37.3628   -4.8962 C   0  0  0  0  0  0  0  0  0  0  0  0
   30.7805  -36.4955   -5.8468 C   0  0  2  0  0  0  0  0  0  0  0  0
   31.7205  -35.8153   -6.7110 N   0  0  0  0  0  0  0  0  0  0  0  0
   29.9644  -35.4796   -5.1473 C   0  0  0  0  0  0  0  0  0  0  0  0
   30.5292  -34.4983   -4.6108 O   0  0  0  0  0  0  0  0  0  0  0  0
   28.5349  -35.6007   -5.0735 N   0  0  0  0  0  0  0  0  0  0  0  0
   27.7611  -34.6662   -4.3088 C   0  0  1  0  0  0  0  0  0  0  0  0
   26.4270  -34.3517   -4.9306 C   0  0  0  0  0  0  0  0  0  0  0  0
   26.5245  -33.5877   -6.1740 C   0  0  0  0  0  0  0  0  0  0  0  0
   27.6854  -33.1699   -6.7751 C   0  0  0  0  0  0  0  0  0  0  0  0
   27.3408  -32.5007   -7.8947 N   0  0  0  0  0  0  0  0  0  0  0  0
   26.0045  -32.4867   -8.0129 C   0  0  0  0  0  0  0  0  0  0  0  0
   25.5249  -33.1580   -6.9485 N   0  0  0  0  0  0  0  0  0  0  0  0
   27.6004  -35.1354   -2.8872 C   0  0  0  0  0  0  0  0  0  0  0  0
   27.3330  -36.3466   -2.6748 O   0  0  0  0  0  0  0  0  0  0  0  0
   28.1846  -33.8585    0.5896 C   0  0  0  0  0  0  0  0  0  0  0  0
   27.5007  -34.7390   -0.4447 C   0  0  2  0  0  0  0  0  0  0  0  0
   27.7406  -34.2567   -1.7823 N   0  0  0  0  0  0  0  0  0  0  0  0
   26.0355  -34.7662   -0.1442 C   0  0  0  0  0  0  0  0  0  0  0  0
   25.2354  -34.2904   -0.9895 O   0  0  0  0  0  0  0  0  0  0  0  0
   25.5135  -35.2908    1.0224 O   0  0  0  0  0  0  0  0  0  0  0  0
  2  1  1  1
  2  4  1  0
  2  3  1  0
  4  5  2  0
  6  7  1  0
  6  4  1  0
  7  8  1  6
  9  8  1  0
 10  9  2  0
 11 10  1  0
 12 11  1  0
 12 13  2  0
 13  9  1  0
 14 15  2  0
 14  7  1  0
 17 16  1  1
 17 19  1  0
 17 18  1  0
 18 14  1  0
 19 21  1  0
 20 19  2  0
M  END
$$$$
