AHA.pdb
     RDKit          3D

 21 21  0  0  1  0  0  0  0  0999 V2000
   14.3499   -9.7293  -13.6271 C   0  0  0  0  0  0  0  0  0  0  0  0
   15.1251  -10.5321  -14.6476 C   0  0  2  0  0  0  0  0  0  0  0  0
   14.9238  -11.9334  -14.3498 N   0  0  0  0  0  0  0  0  0  0  0  0
   16.5763  -10.2480  -14.6156 C   0  0  0  0  0  0  0  0  0  0  0  0
   17.2648  -10.6659  -13.6559 O   0  0  0  0  0  0  0  0  0  0  0  0
   17.2079   -9.5007  -15.6674 N   0  0  0  0  0  0  0  0  0  0  0  0
   18.6238   -9.2733  -15.6532 C   0  0  1  0  0  0  0  0  0  0  0  0
   19.2953   -9.6327  -16.9514 C   0  0  0  0  0  0  0  0  0  0  0  0
   20.7467   -9.4529  -16.9307 C   0  0  0  0  0  0  0  0  0  0  0  0
   21.6502  -10.2576  -16.2830 C   0  0  0  0  0  0  0  0  0  0  0  0
   22.8787   -9.7495  -16.5120 N   0  0  0  0  0  0  0  0  0  0  0  0
   22.7729   -8.6550  -17.2806 C   0  0  0  0  0  0  0  0  0  0  0  0
   21.4587   -8.4918  -17.5252 N   0  0  0  0  0  0  0  0  0  0  0  0
   18.9381   -7.8562  -15.2535 C   0  0  0  0  0  0  0  0  0  0  0  0
   18.1391   -6.9416  -15.5831 O   0  0  0  0  0  0  0  0  0  0  0  0
   21.6604   -6.0108  -13.3869 C   0  0  0  0  0  0  0  0  0  0  0  0
   20.3796   -6.1423  -14.1963 C   0  0  2  0  0  0  0  0  0  0  0  0
   20.1044   -7.5206  -14.5187 N   0  0  0  0  0  0  0  0  0  0  0  0
   20.5235   -5.3239  -15.4403 C   0  0  0  0  0  0  0  0  0  0  0  0
   20.9040   -5.8901  -16.4967 O   0  0  0  0  0  0  0  0  0  0  0  0
   20.2578   -3.9690  -15.4878 O   0  0  0  0  0  0  0  0  0  0  0  0
  2  1  1  1
  2  4  1  0
  2  3  1  0
  4  5  2  0
  6  7  1  0
  6  4  1  0
  7  8  1  6
  9  8  1  0
 10  9  2  0
 11 10  1  0
 12 11  1  0
 12 13  2  0
 13  9  1  0
 14 15  2  0
 14  7  1  0
 17 16  1  6
 17 19  1  0
 17 18  1  0
 18 14  1  0
 19 21  1  0
 20 19  2  0
M  END
$$$$
