AHA.pdb
     RDKit          3D

 21 21  0  0  1  0  0  0  0  0999 V2000
   27.9271   -8.0305  -19.9349 C   0  0  0  0  0  0  0  0  0  0  0  0
   28.2286   -9.0230  -18.8344 C   0  0  2  0  0  0  0  0  0  0  0  0
   28.9727  -10.1165  -19.4203 N   0  0  0  0  0  0  0  0  0  0  0  0
   27.0058   -9.5689  -18.2065 C   0  0  0  0  0  0  0  0  0  0  0  0
   26.3508  -10.4556  -18.8019 O   0  0  0  0  0  0  0  0  0  0  0  0
   26.5580   -9.0984  -16.9252 N   0  0  0  0  0  0  0  0  0  0  0  0
   25.3509   -9.6072  -16.3413 C   0  0  1  0  0  0  0  0  0  0  0  0
   25.5874  -10.3889  -15.0769 C   0  0  0  0  0  0  0  0  0  0  0  0
   26.2765  -11.6607  -15.2935 C   0  0  0  0  0  0  0  0  0  0  0  0
   27.5587  -11.9596  -14.9064 C   0  0  0  0  0  0  0  0  0  0  0  0
   27.8107  -13.2275  -15.2924 N   0  0  0  0  0  0  0  0  0  0  0  0
   26.7295  -13.7301  -15.9073 C   0  0  0  0  0  0  0  0  0  0  0  0
   25.8020  -12.7537  -15.8969 N   0  0  0  0  0  0  0  0  0  0  0  0
   24.3530   -8.5023  -16.1178 C   0  0  0  0  0  0  0  0  0  0  0  0
   24.7498   -7.4191  -15.6151 O   0  0  0  0  0  0  0  0  0  0  0  0
   21.0951   -7.3843  -17.3683 C   0  0  0  0  0  0  0  0  0  0  0  0
   22.0652   -7.5586  -16.2100 C   0  0  2  0  0  0  0  0  0  0  0  0
   22.9823   -8.6440  -16.4553 N   0  0  0  0  0  0  0  0  0  0  0  0
   21.2722   -7.8038  -14.9654 C   0  0  0  0  0  0  0  0  0  0  0  0
   21.2829   -8.9541  -14.4576 O   0  0  0  0  0  0  0  0  0  0  0  0
   20.5240   -6.8242  -14.3415 O   0  0  0  0  0  0  0  0  0  0  0  0
  2  1  1  6
  2  4  1  0
  2  3  1  0
  4  5  2  0
  6  7  1  0
  6  4  1  0
  7  8  1  1
  9  8  1  0
 10  9  2  0
 11 10  1  0
 12 11  1  0
 12 13  2  0
 13  9  1  0
 14 15  2  0
 14  7  1  0
 17 16  1  6
 17 19  1  0
 17 18  1  0
 18 14  1  0
 19 21  1  0
 20 19  2  0
M  END
$$$$
