AHA.pdb
     RDKit          3D

 21 21  0  0  1  0  0  0  0  0999 V2000
   25.0118  -34.9342  -13.8546 C   0  0  0  0  0  0  0  0  0  0  0  0
   24.5652  -33.4894  -13.8433 C   0  0  2  0  0  0  0  0  0  0  0  0
   25.3917  -32.7664  -14.7851 N   0  0  0  0  0  0  0  0  0  0  0  0
   24.7052  -32.8583  -12.5131 C   0  0  0  0  0  0  0  0  0  0  0  0
   25.7841  -32.2998  -12.2067 O   0  0  0  0  0  0  0  0  0  0  0  0
   23.6238  -32.8758  -11.5676 N   0  0  0  0  0  0  0  0  0  0  0  0
   23.7871  -32.3085  -10.2606 C   0  0  1  0  0  0  0  0  0  0  0  0
   22.4862  -31.8933   -9.6275 C   0  0  0  0  0  0  0  0  0  0  0  0
   21.9271  -30.6634  -10.1879 C   0  0  0  0  0  0  0  0  0  0  0  0
   22.5249  -29.8597  -11.1259 C   0  0  0  0  0  0  0  0  0  0  0  0
   21.6843  -28.8334  -11.3715 N   0  0  0  0  0  0  0  0  0  0  0  0
   20.5822  -28.9692  -10.6187 C   0  0  0  0  0  0  0  0  0  0  0  0
   20.7521  -30.0964   -9.9016 N   0  0  0  0  0  0  0  0  0  0  0  0
   24.5557  -33.2396   -9.3611 C   0  0  0  0  0  0  0  0  0  0  0  0
   24.3723  -34.4795   -9.4726 O   0  0  0  0  0  0  0  0  0  0  0  0
   27.3777  -33.0090   -6.8730 C   0  0  0  0  0  0  0  0  0  0  0  0
   26.2334  -33.6998   -7.5986 C   0  0  2  0  0  0  0  0  0  0  0  0
   25.4781  -32.7637   -8.3939 N   0  0  0  0  0  0  0  0  0  0  0  0
   25.3590  -34.3579   -6.5787 C   0  0  0  0  0  0  0  0  0  0  0  0
   24.2225  -33.8704   -6.3508 O   0  0  0  0  0  0  0  0  0  0  0  0
   25.7392  -35.4811   -5.8699 O   0  0  0  0  0  0  0  0  0  0  0  0
  2  1  1  1
  2  4  1  0
  2  3  1  0
  4  5  2  0
  6  7  1  0
  6  4  1  0
  7  8  1  1
  9  8  1  0
 10  9  2  0
 11 10  1  0
 12 11  1  0
 12 13  2  0
 13  9  1  0
 14 15  2  0
 14  7  1  0
 17 16  1  1
 17 19  1  0
 17 18  1  0
 18 14  1  0
 19 21  1  0
 20 19  2  0
M  END
$$$$
