AHA.pdb
     RDKit          3D

 21 21  0  0  1  0  0  0  0  0999 V2000
   24.2700   -8.9927  -21.8141 C   0  0  0  0  0  0  0  0  0  0  0  0
   24.3334   -9.8506  -20.5702 C   0  0  2  0  0  0  0  0  0  0  0  0
   24.2499  -11.2338  -20.9855 N   0  0  0  0  0  0  0  0  0  0  0  0
   23.2269   -9.5744  -19.6285 C   0  0  0  0  0  0  0  0  0  0  0  0
   22.0439   -9.7630  -19.9955 O   0  0  0  0  0  0  0  0  0  0  0  0
   23.4877   -9.0934  -18.3002 N   0  0  0  0  0  0  0  0  0  0  0  0
   22.4067   -8.7921  -17.4072 C   0  0  1  0  0  0  0  0  0  0  0  0
   22.4395   -9.6048  -16.1407 C   0  0  0  0  0  0  0  0  0  0  0  0
   21.2833   -9.3849  -15.2723 C   0  0  0  0  0  0  0  0  0  0  0  0
   19.9855   -9.7314  -15.5538 C   0  0  0  0  0  0  0  0  0  0  0  0
   19.2313   -9.3576  -14.4996 N   0  0  0  0  0  0  0  0  0  0  0  0
   20.0140   -8.7897  -13.5697 C   0  0  0  0  0  0  0  0  0  0  0  0
   21.2665   -8.8169  -14.0636 N   0  0  0  0  0  0  0  0  0  0  0  0
   22.3522   -7.3181  -17.1050 C   0  0  0  0  0  0  0  0  0  0  0  0
   23.4087   -6.7313  -16.7547 O   0  0  0  0  0  0  0  0  0  0  0  0
   20.1286   -4.4718  -17.9300 C   0  0  0  0  0  0  0  0  0  0  0  0
   21.1786   -5.1380  -17.0544 C   0  0  2  0  0  0  0  0  0  0  0  0
   21.1495   -6.5720  -17.2028 N   0  0  0  0  0  0  0  0  0  0  0  0
   20.9239   -4.7453  -15.6335 C   0  0  0  0  0  0  0  0  0  0  0  0
   20.1947   -5.4834  -14.9230 O   0  0  0  0  0  0  0  0  0  0  0  0
   21.4524   -3.6056  -15.0586 O   0  0  0  0  0  0  0  0  0  0  0  0
  2  1  1  6
  2  4  1  0
  2  3  1  0
  4  5  2  0
  6  7  1  0
  6  4  1  0
  7  8  1  1
  9  8  1  0
 10  9  2  0
 11 10  1  0
 12 11  1  0
 12 13  2  0
 13  9  1  0
 14 15  2  0
 14  7  1  0
 17 16  1  6
 17 19  1  0
 17 18  1  0
 18 14  1  0
 19 21  1  0
 20 19  2  0
M  END
$$$$
