AHA.pdb
     RDKit          3D

 21 21  0  0  1  0  0  0  0  0999 V2000
   17.5748  -11.2392  -18.7096 C   0  0  0  0  0  0  0  0  0  0  0  0
   18.9884  -11.0242  -18.2170 C   0  0  2  0  0  0  0  0  0  0  0  0
   19.4606  -12.2794  -17.6746 N   0  0  0  0  0  0  0  0  0  0  0  0
   19.0748   -9.9928  -17.1605 C   0  0  0  0  0  0  0  0  0  0  0  0
   18.4173  -10.1368  -16.1037 O   0  0  0  0  0  0  0  0  0  0  0  0
   19.9005   -8.8292  -17.3273 N   0  0  0  0  0  0  0  0  0  0  0  0
   20.0823   -7.9018  -16.2486 C   0  0  1  0  0  0  0  0  0  0  0  0
   21.5237   -7.7300  -15.8506 C   0  0  0  0  0  0  0  0  0  0  0  0
   22.1280   -8.9416  -15.2973 C   0  0  0  0  0  0  0  0  0  0  0  0
   21.4518  -10.0023  -14.7487 C   0  0  0  0  0  0  0  0  0  0  0  0
   22.3720  -10.9088  -14.3596 N   0  0  0  0  0  0  0  0  0  0  0  0
   23.5996  -10.4501  -14.6465 C   0  0  0  0  0  0  0  0  0  0  0  0
   23.4267   -9.2440  -15.2202 N   0  0  0  0  0  0  0  0  0  0  0  0
   19.4449   -6.5751  -16.5652 C   0  0  0  0  0  0  0  0  0  0  0  0
   19.7237   -6.0131  -17.6561 O   0  0  0  0  0  0  0  0  0  0  0  0
   16.8242   -4.2987  -15.0933 C   0  0  0  0  0  0  0  0  0  0  0  0
   17.9841   -4.6537  -16.0107 C   0  0  2  0  0  0  0  0  0  0  0  0
   18.5417   -5.9402  -15.6742 N   0  0  0  0  0  0  0  0  0  0  0  0
   19.0191   -3.5795  -15.8974 C   0  0  0  0  0  0  0  0  0  0  0  0
   20.0456   -3.7988  -15.2051 O   0  0  0  0  0  0  0  0  0  0  0  0
   18.9035   -2.3510  -16.5186 O   0  0  0  0  0  0  0  0  0  0  0  0
  2  1  1  1
  2  4  1  0
  2  3  1  0
  4  5  2  0
  6  7  1  0
  6  4  1  0
  7  8  1  6
  9  8  1  0
 10  9  2  0
 11 10  1  0
 12 11  1  0
 12 13  2  0
 13  9  1  0
 14 15  2  0
 14  7  1  0
 17 16  1  1
 17 19  1  0
 17 18  1  0
 18 14  1  0
 19 21  1  0
 20 19  2  0
M  END
$$$$
