AHA.pdb
     RDKit          3D

 21 21  0  0  1  0  0  0  0  0999 V2000
   25.2814  -31.2848   -7.1686 C   0  0  0  0  0  0  0  0  0  0  0  0
   25.7122  -32.4444   -8.0385 C   0  0  2  0  0  0  0  0  0  0  0  0
   24.7054  -32.6242   -9.0617 N   0  0  0  0  0  0  0  0  0  0  0  0
   25.8449  -33.7082   -7.2816 C   0  0  0  0  0  0  0  0  0  0  0  0
   24.8338  -34.4245   -7.0967 O   0  0  0  0  0  0  0  0  0  0  0  0
   27.1145  -34.1265   -6.7557 N   0  0  0  0  0  0  0  0  0  0  0  0
   27.2333  -35.3543   -6.0240 C   0  0  1  0  0  0  0  0  0  0  0  0
   28.4162  -36.1840   -6.4457 C   0  0  0  0  0  0  0  0  0  0  0  0
   28.2001  -36.9254   -7.6878 C   0  0  0  0  0  0  0  0  0  0  0  0
   28.7009  -36.5951   -8.9220 C   0  0  0  0  0  0  0  0  0  0  0  0
   28.2713  -37.5301   -9.7944 N   0  0  0  0  0  0  0  0  0  0  0  0
   27.5193  -38.4328   -9.1468 C   0  0  0  0  0  0  0  0  0  0  0  0
   27.4890  -38.0431   -7.8580 N   0  0  0  0  0  0  0  0  0  0  0  0
   27.2512  -35.0980   -4.5405 C   0  0  0  0  0  0  0  0  0  0  0  0
   28.0786  -34.2705   -4.0779 O   0  0  0  0  0  0  0  0  0  0  0  0
   25.3072  -36.1873   -1.4875 C   0  0  0  0  0  0  0  0  0  0  0  0
   26.4200  -35.4721   -2.2379 C   0  0  2  0  0  0  0  0  0  0  0  0
   26.3662  -35.7588   -3.6500 N   0  0  0  0  0  0  0  0  0  0  0  0
   27.7301  -35.9020   -1.6576 C   0  0  0  0  0  0  0  0  0  0  0  0
   28.3747  -36.8171   -2.2305 O   0  0  0  0  0  0  0  0  0  0  0  0
   28.2712  -35.3409   -0.5170 O   0  0  0  0  0  0  0  0  0  0  0  0
  2  1  1  1
  2  4  1  0
  2  3  1  0
  4  5  2  0
  6  7  1  0
  6  4  1  0
  7  8  1  6
  9  8  1  0
 10  9  2  0
 11 10  1  0
 12 11  1  0
 12 13  2  0
 13  9  1  0
 14 15  2  0
 14  7  1  0
 17 16  1  1
 17 19  1  0
 17 18  1  0
 18 14  1  0
 19 21  1  0
 20 19  2  0
M  END
$$$$
