AHA.pdb
     RDKit          3D

 21 21  0  0  1  0  0  0  0  0999 V2000
   21.5298  -12.4784  -18.5506 C   0  0  0  0  0  0  0  0  0  0  0  0
   20.6810  -11.3933  -17.9268 C   0  0  2  0  0  0  0  0  0  0  0  0
   19.8906  -10.7936  -18.9797 N   0  0  0  0  0  0  0  0  0  0  0  0
   21.4889  -10.3345  -17.2836 C   0  0  0  0  0  0  0  0  0  0  0  0
   22.2724  -10.6367  -16.3539 O   0  0  0  0  0  0  0  0  0  0  0  0
   21.3891   -8.9659  -17.7085 N   0  0  0  0  0  0  0  0  0  0  0  0
   22.1587   -7.9426  -17.0625 C   0  0  1  0  0  0  0  0  0  0  0  0
   22.8932   -7.0532  -18.0295 C   0  0  0  0  0  0  0  0  0  0  0  0
   24.0502   -7.6943  -18.6536 C   0  0  0  0  0  0  0  0  0  0  0  0
   25.3598   -7.5427  -18.2722 C   0  0  0  0  0  0  0  0  0  0  0  0
   26.1103   -8.2992  -19.0995 N   0  0  0  0  0  0  0  0  0  0  0  0
   25.3139   -8.9178  -19.9843 C   0  0  0  0  0  0  0  0  0  0  0  0
   24.0566   -8.5331  -19.6930 N   0  0  0  0  0  0  0  0  0  0  0  0
   21.3015   -7.1342  -16.1252 C   0  0  0  0  0  0  0  0  0  0  0  0
   20.2626   -6.5847  -16.5750 O   0  0  0  0  0  0  0  0  0  0  0  0
   20.7564   -6.8734  -12.4709 C   0  0  0  0  0  0  0  0  0  0  0  0
   20.7151   -6.2867  -13.8734 C   0  0  2  0  0  0  0  0  0  0  0  0
   21.6277   -6.9729  -14.7540 N   0  0  0  0  0  0  0  0  0  0  0  0
   21.0542   -4.8323  -13.7848 C   0  0  0  0  0  0  0  0  0  0  0  0
   22.1846   -4.4492  -14.1806 O   0  0  0  0  0  0  0  0  0  0  0  0
   20.1829   -3.8828  -13.2870 O   0  0  0  0  0  0  0  0  0  0  0  0
  2  1  1  6
  2  4  1  0
  2  3  1  0
  4  5  2  0
  6  7  1  0
  6  4  1  0
  7  8  1  6
  9  8  1  0
 10  9  2  0
 11 10  1  0
 12 11  1  0
 12 13  2  0
 13  9  1  0
 14 15  2  0
 14  7  1  0
 17 16  1  1
 17 19  1  0
 17 18  1  0
 18 14  1  0
 19 21  1  0
 20 19  2  0
M  END
$$$$
