GYC.pdb
     RDKit          3D

 23 23  0  0  1  0  0  0  0  0999 V2000
   20.6515  -33.1910  -13.8697 N   0  0  0  0  0  0  0  0  0  0  0  0
   20.4801  -33.2699  -12.4290 C   0  0  0  0  0  0  0  0  0  0  0  0
   21.5681  -32.5115  -11.7228 C   0  0  0  0  0  0  0  0  0  0  0  0
   22.4848  -32.0286  -12.3998 O   0  0  0  0  0  0  0  0  0  0  0  0
   20.1184  -26.5993  -12.5304 O   0  0  0  0  0  0  0  0  0  0  0  0
   20.6050  -27.5420  -11.6199 C   0  0  0  0  0  0  0  0  0  0  0  0
   21.9501  -27.6233  -11.3218 C   0  0  0  0  0  0  0  0  0  0  0  0
   22.4207  -28.5583  -10.4207 C   0  0  0  0  0  0  0  0  0  0  0  0
   21.5768  -29.4436   -9.7847 C   0  0  0  0  0  0  0  0  0  0  0  0
   22.0727  -30.4601   -8.8078 C   0  0  0  0  0  0  0  0  0  0  0  0
   22.5273  -31.6796   -9.5298 C   0  0  2  0  0  0  0  0  0  0  0  0
   21.5486  -32.3506  -10.3135 N   0  0  0  0  0  0  0  0  0  0  0  0
   23.3055  -32.6329   -8.6768 C   0  0  0  0  0  0  0  0  0  0  0  0
   22.7338  -33.6693   -8.2842 O   0  0  0  0  0  0  0  0  0  0  0  0
   20.2363  -29.3562  -10.0875 C   0  0  0  0  0  0  0  0  0  0  0  0
   19.7556  -28.4243  -10.9875 C   0  0  0  0  0  0  0  0  0  0  0  0
   24.6540  -32.3551   -8.3313 N   0  0  0  0  0  0  0  0  0  0  0  0
   25.4045  -33.3416   -7.6132 C   0  0  1  0  0  0  0  0  0  0  0  0
   26.8963  -33.0807   -7.6555 C   0  0  0  0  0  0  0  0  0  0  0  0
   27.3730  -32.9274   -9.3989 S   0  0  0  0  0  0  0  0  0  0  0  0
   25.0128  -33.3332   -6.1808 C   0  0  0  0  0  0  0  0  0  0  0  0
   24.1605  -32.5042   -5.7351 O   0  0  0  0  0  0  0  0  0  0  0  0
   25.6047  -34.2596   -5.3344 O   0  0  0  0  0  0  0  0  0  0  0  0
  2  1  1  0
  3  2  1  0
  3 12  1  0
  4  3  2  0
  6  5  1  0
  6  7  2  0
  8  7  1  0
  9  8  2  0
 10  9  1  0
 11 10  1  1
 11 12  1  0
 13 11  1  0
 13 17  1  0
 14 13  2  0
 15 16  2  0
 15  9  1  0
 16  6  1  0
 17 18  1  0
 18 21  1  0
 19 20  1  0
 18 19  1  1
 21 22  2  0
 21 23  1  0
M  END
$$$$
