GYC.pdb
     RDKit          3D

 23 23  0  0  1  0  0  0  0  0999 V2000
   26.0190  -25.4854  -16.8555 N   0  0  0  0  0  0  0  0  0  0  0  0
   26.1815  -24.3749  -15.9328 C   0  0  0  0  0  0  0  0  0  0  0  0
   24.8495  -23.7679  -15.5930 C   0  0  0  0  0  0  0  0  0  0  0  0
   23.8829  -24.0216  -16.3231 O   0  0  0  0  0  0  0  0  0  0  0  0
   18.3250  -19.4819  -11.6025 O   0  0  0  0  0  0  0  0  0  0  0  0
   19.5575  -20.0928  -11.8522 C   0  0  0  0  0  0  0  0  0  0  0  0
   19.6532  -21.4527  -12.0671 C   0  0  0  0  0  0  0  0  0  0  0  0
   20.8757  -22.0466  -12.3130 C   0  0  0  0  0  0  0  0  0  0  0  0
   22.0437  -21.3153  -12.3545 C   0  0  0  0  0  0  0  0  0  0  0  0
   23.3728  -21.9452  -12.6195 C   0  0  0  0  0  0  0  0  0  0  0  0
   23.5122  -22.2467  -14.0704 C   0  0  2  0  0  0  0  0  0  0  0  0
   24.6996  -22.9237  -14.4630 N   0  0  0  0  0  0  0  0  0  0  0  0
   23.2166  -21.0805  -14.9618 C   0  0  0  0  0  0  0  0  0  0  0  0
   24.1270  -20.2534  -15.1666 O   0  0  0  0  0  0  0  0  0  0  0  0
   21.9397  -19.9592  -12.1391 C   0  0  0  0  0  0  0  0  0  0  0  0
   20.7214  -19.3557  -11.8923 C   0  0  0  0  0  0  0  0  0  0  0  0
   21.9339  -20.9309  -15.5513 N   0  0  0  0  0  0  0  0  0  0  0  0
   21.6990  -19.8260  -16.4325 C   0  0  1  0  0  0  0  0  0  0  0  0
   22.2270  -20.0758  -17.8304 C   0  0  0  0  0  0  0  0  0  0  0  0
   21.7817  -18.6399  -18.8453 S   0  0  0  0  0  0  0  0  0  0  0  0
   20.2397  -19.5859  -16.5667 C   0  0  0  0  0  0  0  0  0  0  0  0
   19.3917  -20.3530  -16.0148 O   0  0  0  0  0  0  0  0  0  0  0  0
   19.8215  -18.4952  -17.3153 O   0  0  0  0  0  0  0  0  0  0  0  0
  2  1  1  0
  3  2  1  0
  3 12  1  0
  4  3  2  0
  6  5  1  0
  6  7  2  0
  8  7  1  0
  9  8  2  0
 10  9  1  0
 11 10  1  1
 11 12  1  0
 13 11  1  0
 13 17  1  0
 14 13  2  0
 15 16  2  0
 15  9  1  0
 16  6  1  0
 17 18  1  0
 18 21  1  0
 19 20  1  0
 18 19  1  6
 21 22  2  0
 21 23  1  0
M  END
$$$$
