GYC.pdb
     RDKit          3D

 23 23  0  0  1  0  0  0  0  0999 V2000
   25.8682  -11.6603  -15.9237 N   0  0  0  0  0  0  0  0  0  0  0  0
   24.9005  -11.1664  -14.9590 C   0  0  0  0  0  0  0  0  0  0  0  0
   23.9621  -10.1855  -15.6033 C   0  0  0  0  0  0  0  0  0  0  0  0
   23.9956  -10.0591  -16.8340 O   0  0  0  0  0  0  0  0  0  0  0  0
   19.5375  -13.8768  -17.6948 O   0  0  0  0  0  0  0  0  0  0  0  0
   19.8095  -12.6596  -17.0631 C   0  0  0  0  0  0  0  0  0  0  0  0
   19.8952  -11.4832  -17.7798 C   0  0  0  0  0  0  0  0  0  0  0  0
   20.1644  -10.2858  -17.1462 C   0  0  0  0  0  0  0  0  0  0  0  0
   20.3576  -10.2123  -15.7831 C   0  0  0  0  0  0  0  0  0  0  0  0
   20.6494   -8.9234  -15.0850 C   0  0  0  0  0  0  0  0  0  0  0  0
   22.0658   -8.5293  -15.3167 C   0  0  2  0  0  0  0  0  0  0  0  0
   23.0577   -9.4206  -14.8227 N   0  0  0  0  0  0  0  0  0  0  0  0
   22.3654   -7.1079  -14.9537 C   0  0  0  0  0  0  0  0  0  0  0  0
   22.7571   -6.8688  -13.7942 O   0  0  0  0  0  0  0  0  0  0  0  0
   20.2704  -11.3903  -15.0753 C   0  0  0  0  0  0  0  0  0  0  0  0
   20.0016  -12.5932  -15.7000 C   0  0  0  0  0  0  0  0  0  0  0  0
   22.2047   -6.0707  -15.9094 N   0  0  0  0  0  0  0  0  0  0  0  0
   22.4534   -4.7165  -15.5135 C   0  0  1  0  0  0  0  0  0  0  0  0
   22.4204   -3.7542  -16.6831 C   0  0  0  0  0  0  0  0  0  0  0  0
   22.7830   -2.0987  -16.0366 S   0  0  0  0  0  0  0  0  0  0  0  0
   21.4050   -4.2655  -14.5633 C   0  0  0  0  0  0  0  0  0  0  0  0
   20.1727   -4.4574  -14.8013 O   0  0  0  0  0  0  0  0  0  0  0  0
   21.8070   -3.6245  -13.4004 O   0  0  0  0  0  0  0  0  0  0  0  0
  2  1  1  0
  3  2  1  0
  3 12  1  0
  4  3  2  0
  6  5  1  0
  6  7  2  0
  8  7  1  0
  9  8  2  0
 10  9  1  0
 11 10  1  1
 11 12  1  0
 13 11  1  0
 13 17  1  0
 14 13  2  0
 15 16  2  0
 15  9  1  0
 16  6  1  0
 17 18  1  0
 18 21  1  0
 19 20  1  0
 18 19  1  6
 21 22  2  0
 21 23  1  0
M  END
$$$$
