GYC.pdb
     RDKit          3D

 23 23  0  0  1  0  0  0  0  0999 V2000
   16.8847  -10.0431  -12.0616 N   0  0  0  0  0  0  0  0  0  0  0  0
   17.4736   -9.0517  -11.1778 C   0  0  0  0  0  0  0  0  0  0  0  0
   16.4402   -8.0546  -10.7353 C   0  0  0  0  0  0  0  0  0  0  0  0
   15.5291   -7.7625  -11.5203 O   0  0  0  0  0  0  0  0  0  0  0  0
    9.7897   -8.8377   -7.8415 O   0  0  0  0  0  0  0  0  0  0  0  0
   11.0903   -8.3292   -7.7736 C   0  0  0  0  0  0  0  0  0  0  0  0
   12.1895   -9.1466   -7.9418 C   0  0  0  0  0  0  0  0  0  0  0  0
   13.4703   -8.6344   -7.8728 C   0  0  0  0  0  0  0  0  0  0  0  0
   13.7063   -7.2970   -7.6353 C   0  0  0  0  0  0  0  0  0  0  0  0
   15.0869   -6.7298   -7.5583 C   0  0  0  0  0  0  0  0  0  0  0  0
   15.6119   -6.4824   -8.9289 C   0  0  2  0  0  0  0  0  0  0  0  0
   16.5040   -7.4601   -9.4489 N   0  0  0  0  0  0  0  0  0  0  0  0
   16.1279   -5.0923   -9.1373 C   0  0  0  0  0  0  0  0  0  0  0  0
   17.2633   -4.8167   -8.7015 O   0  0  0  0  0  0  0  0  0  0  0  0
   12.6044   -6.4881   -7.4686 C   0  0  0  0  0  0  0  0  0  0  0  0
   11.3191   -6.9910   -7.5358 C   0  0  0  0  0  0  0  0  0  0  0  0
   15.3391   -4.1245   -9.8127 N   0  0  0  0  0  0  0  0  0  0  0  0
   15.8594   -2.8007   -9.9834 C   0  0  1  0  0  0  0  0  0  0  0  0
   15.5000   -2.2046  -11.3291 C   0  0  0  0  0  0  0  0  0  0  0  0
   16.2281   -3.2663  -12.6069 S   0  0  0  0  0  0  0  0  0  0  0  0
   15.2904   -1.8954   -8.9529 C   0  0  0  0  0  0  0  0  0  0  0  0
   14.3787   -2.2881   -8.1612 O   0  0  0  0  0  0  0  0  0  0  0  0
   15.7823   -0.6005   -8.8749 O   0  0  0  0  0  0  0  0  0  0  0  0
  2  1  1  0
  3  2  1  0
  3 12  1  0
  4  3  2  0
  6  5  1  0
  6  7  2  0
  8  7  1  0
  9  8  2  0
 10  9  1  0
 11 10  1  1
 11 12  1  0
 13 11  1  0
 13 17  1  0
 14 13  2  0
 15 16  2  0
 15  9  1  0
 16  6  1  0
 17 18  1  0
 18 21  1  0
 19 20  1  0
 18 19  1  6
 21 22  2  0
 21 23  1  0
M  END
$$$$
