GYC.pdb
     RDKit          3D

 23 23  0  0  1  0  0  0  0  0999 V2000
   27.7104  -25.4188  -16.6435 N   0  0  0  0  0  0  0  0  0  0  0  0
   26.6485  -26.4093  -16.6937 C   0  0  0  0  0  0  0  0  0  0  0  0
   26.8644  -27.3613  -17.8360 C   0  0  0  0  0  0  0  0  0  0  0  0
   27.8987  -27.2520  -18.5069 O   0  0  0  0  0  0  0  0  0  0  0  0
   29.1452  -32.8175  -14.7052 O   0  0  0  0  0  0  0  0  0  0  0  0
   28.2742  -32.3098  -15.6737 C   0  0  0  0  0  0  0  0  0  0  0  0
   27.1285  -31.6264  -15.3201 C   0  0  0  0  0  0  0  0  0  0  0  0
   26.2744  -31.1287  -16.2848 C   0  0  0  0  0  0  0  0  0  0  0  0
   26.5251  -31.2906  -17.6308 C   0  0  0  0  0  0  0  0  0  0  0  0
   25.6095  -30.7572  -18.6847 C   0  0  0  0  0  0  0  0  0  0  0  0
   26.0531  -29.3998  -19.1039 C   0  0  2  0  0  0  0  0  0  0  0  0
   25.9076  -28.3631  -18.1414 N   0  0  0  0  0  0  0  0  0  0  0  0
   25.5426  -28.9851  -20.4490 C   0  0  0  0  0  0  0  0  0  0  0  0
   24.3874  -28.5209  -20.5204 O   0  0  0  0  0  0  0  0  0  0  0  0
   27.6701  -31.9736  -17.9753 C   0  0  0  0  0  0  0  0  0  0  0  0
   28.5309  -32.4752  -17.0177 C   0  0  0  0  0  0  0  0  0  0  0  0
   26.3585  -29.1206  -21.6027 N   0  0  0  0  0  0  0  0  0  0  0  0
   25.9143  -28.5487  -22.8388 C   0  0  1  0  0  0  0  0  0  0  0  0
   26.8405  -27.4599  -23.3409 C   0  0  0  0  0  0  0  0  0  0  0  0
   26.5704  -25.9951  -22.3057 S   0  0  0  0  0  0  0  0  0  0  0  0
   25.8743  -29.5920  -23.8949 C   0  0  0  0  0  0  0  0  0  0  0  0
   25.4419  -29.3341  -25.0605 O   0  0  0  0  0  0  0  0  0  0  0  0
   26.3240  -30.8650  -23.5753 O   0  0  0  0  0  0  0  0  0  0  0  0
  2  1  1  0
  3  2  1  0
  3 12  1  0
  4  3  2  0
  6  5  1  0
  6  7  2  0
  8  7  1  0
  9  8  2  0
 10  9  1  0
 11 10  1  1
 11 12  1  0
 13 11  1  0
 13 17  1  0
 14 13  2  0
 15 16  2  0
 15  9  1  0
 16  6  1  0
 17 18  1  0
 18 21  1  0
 19 20  1  0
 18 19  1  6
 21 22  2  0
 21 23  1  0
M  END
$$$$
