GYC.pdb
     RDKit          3D

 23 23  0  0  1  0  0  0  0  0999 V2000
   23.0905  -25.3282  -14.4887 N   0  0  0  0  0  0  0  0  0  0  0  0
   24.4727  -24.9632  -14.2292 C   0  0  0  0  0  0  0  0  0  0  0  0
   24.6985  -23.5048  -14.5120 C   0  0  0  0  0  0  0  0  0  0  0  0
   23.8819  -22.9098  -15.2267 O   0  0  0  0  0  0  0  0  0  0  0  0
   22.5842  -20.6816   -9.0141 O   0  0  0  0  0  0  0  0  0  0  0  0
   23.5829  -20.6867   -9.9925 C   0  0  0  0  0  0  0  0  0  0  0  0
   24.8484  -21.1665   -9.7228 C   0  0  0  0  0  0  0  0  0  0  0  0
   25.8281  -21.1671  -10.6964 C   0  0  0  0  0  0  0  0  0  0  0  0
   25.5885  -20.6932  -11.9687 C   0  0  0  0  0  0  0  0  0  0  0  0
   26.6393  -20.6881  -13.0314 C   0  0  0  0  0  0  0  0  0  0  0  0
   26.1724  -21.4655  -14.2116 C   0  0  2  0  0  0  0  0  0  0  0  0
   25.8200  -22.8226  -13.9741 N   0  0  0  0  0  0  0  0  0  0  0  0
   27.0497  -21.3217  -15.4164 C   0  0  0  0  0  0  0  0  0  0  0  0
   28.2363  -21.6945  -15.3257 O   0  0  0  0  0  0  0  0  0  0  0  0
   24.3234  -20.2162  -12.2297 C   0  0  0  0  0  0  0  0  0  0  0  0
   23.3365  -20.2114  -11.2625 C   0  0  0  0  0  0  0  0  0  0  0  0
   26.5353  -20.7757  -16.6216 N   0  0  0  0  0  0  0  0  0  0  0  0
   27.3794  -20.7272  -17.7781 C   0  0  1  0  0  0  0  0  0  0  0  0
   27.0041  -21.7661  -18.8149 C   0  0  0  0  0  0  0  0  0  0  0  0
   27.4366  -23.3923  -18.1377 S   0  0  0  0  0  0  0  0  0  0  0  0
   27.2568  -19.4035  -18.4401 C   0  0  0  0  0  0  0  0  0  0  0  0
   26.3760  -18.5640  -18.0774 O   0  0  0  0  0  0  0  0  0  0  0  0
   28.1342  -19.1036  -19.4721 O   0  0  0  0  0  0  0  0  0  0  0  0
  2  1  1  0
  3  2  1  0
  3 12  1  0
  4  3  2  0
  6  5  1  0
  6  7  2  0
  8  7  1  0
  9  8  2  0
 10  9  1  0
 11 10  1  1
 11 12  1  0
 13 11  1  0
 13 17  1  0
 14 13  2  0
 15 16  2  0
 15  9  1  0
 16  6  1  0
 17 18  1  0
 18 21  1  0
 19 20  1  0
 18 19  1  6
 21 22  2  0
 21 23  1  0
M  END
$$$$
