GYC.pdb
     RDKit          3D

 23 23  0  0  1  0  0  0  0  0999 V2000
   28.3944  -23.6836  -17.7557 N   0  0  0  0  0  0  0  0  0  0  0  0
   28.3422  -22.3678  -17.1417 C   0  0  0  0  0  0  0  0  0  0  0  0
   27.3108  -22.3324  -16.0495 C   0  0  0  0  0  0  0  0  0  0  0  0
   26.4532  -23.2242  -16.0197 O   0  0  0  0  0  0  0  0  0  0  0  0
   23.0906  -20.7986   -8.5603 O   0  0  0  0  0  0  0  0  0  0  0  0
   24.0118  -20.6950   -9.6069 C   0  0  0  0  0  0  0  0  0  0  0  0
   23.7432  -19.9330  -10.7258 C   0  0  0  0  0  0  0  0  0  0  0  0
   24.6600  -19.8371  -11.7543 C   0  0  0  0  0  0  0  0  0  0  0  0
   25.8727  -20.4915  -11.7102 C   0  0  0  0  0  0  0  0  0  0  0  0
   26.8736  -20.3963  -12.8159 C   0  0  0  0  0  0  0  0  0  0  0  0
   26.3917  -21.1520  -14.0042 C   0  0  2  0  0  0  0  0  0  0  0  0
   27.3167  -21.3026  -15.0739 N   0  0  0  0  0  0  0  0  0  0  0  0
   25.0442  -20.7180  -14.4916 C   0  0  0  0  0  0  0  0  0  0  0  0
   24.9689  -19.6542  -15.1379 O   0  0  0  0  0  0  0  0  0  0  0  0
   26.1331  -21.2496  -10.5905 C   0  0  0  0  0  0  0  0  0  0  0  0
   25.2224  -21.3519   -9.5563 C   0  0  0  0  0  0  0  0  0  0  0  0
   23.8926  -21.5024  -14.2202 N   0  0  0  0  0  0  0  0  0  0  0  0
   22.6198  -21.0590  -14.7057 C   0  0  1  0  0  0  0  0  0  0  0  0
   22.3604  -21.4919  -16.1342 C   0  0  0  0  0  0  0  0  0  0  0  0
   22.7706  -23.2548  -16.2520 S   0  0  0  0  0  0  0  0  0  0  0  0
   21.5313  -21.6426  -13.8813 C   0  0  0  0  0  0  0  0  0  0  0  0
   21.7738  -22.5141  -12.9903 O   0  0  0  0  0  0  0  0  0  0  0  0
   20.2330  -21.2099  -14.1093 O   0  0  0  0  0  0  0  0  0  0  0  0
  2  1  1  0
  3  2  1  0
  3 12  1  0
  4  3  2  0
  6  5  1  0
  6  7  2  0
  8  7  1  0
  9  8  2  0
 10  9  1  0
 11 10  1  1
 11 12  1  0
 13 11  1  0
 13 17  1  0
 14 13  2  0
 15 16  2  0
 15  9  1  0
 16  6  1  0
 17 18  1  0
 18 21  1  0
 19 20  1  0
 18 19  1  6
 21 22  2  0
 21 23  1  0
M  END
$$$$
