GYC.pdb
     RDKit          3D

 23 23  0  0  1  0  0  0  0  0999 V2000
   28.6908  -19.2915  -15.3032 N   0  0  0  0  0  0  0  0  0  0  0  0
   27.5539  -18.9266  -14.4754 C   0  0  0  0  0  0  0  0  0  0  0  0
   26.8658  -20.1539  -13.9479 C   0  0  0  0  0  0  0  0  0  0  0  0
   27.2138  -21.2583  -14.3850 O   0  0  0  0  0  0  0  0  0  0  0  0
   28.9833  -20.6881   -7.4407 O   0  0  0  0  0  0  0  0  0  0  0  0
   27.8979  -20.7486   -8.3198 C   0  0  0  0  0  0  0  0  0  0  0  0
   26.7084  -20.1091   -8.0354 C   0  0  0  0  0  0  0  0  0  0  0  0
   25.6419  -20.1750   -8.9106 C   0  0  0  0  0  0  0  0  0  0  0  0
   25.7166  -20.8754  -10.0958 C   0  0  0  0  0  0  0  0  0  0  0  0
   24.5704  -20.9547  -11.0516 C   0  0  0  0  0  0  0  0  0  0  0  0
   25.0776  -21.1284  -12.4401 C   0  0  2  0  0  0  0  0  0  0  0  0
   25.8412  -20.0532  -12.9721 N   0  0  0  0  0  0  0  0  0  0  0  0
   24.0395  -21.6053  -13.4081 C   0  0  0  0  0  0  0  0  0  0  0  0
   23.3182  -20.7521  -13.9621 O   0  0  0  0  0  0  0  0  0  0  0  0
   26.9067  -21.5106  -10.3721 C   0  0  0  0  0  0  0  0  0  0  0  0
   27.9794  -21.4506   -9.5031 C   0  0  0  0  0  0  0  0  0  0  0  0
   23.8897  -22.9905  -13.6798 N   0  0  0  0  0  0  0  0  0  0  0  0
   22.9873  -23.4020  -14.7135 C   0  0  1  0  0  0  0  0  0  0  0  0
   23.3093  -24.7817  -15.2501 C   0  0  0  0  0  0  0  0  0  0  0  0
   23.4535  -25.8989  -13.8284 S   0  0  0  0  0  0  0  0  0  0  0  0
   21.6023  -23.4663  -14.1816 C   0  0  0  0  0  0  0  0  0  0  0  0
   21.3657  -23.3352  -12.9410 O   0  0  0  0  0  0  0  0  0  0  0  0
   20.5650  -23.6747  -15.0790 O   0  0  0  0  0  0  0  0  0  0  0  0
  2  1  1  0
  3  2  1  0
  3 12  1  0
  4  3  2  0
  6  5  1  0
  6  7  2  0
  8  7  1  0
  9  8  2  0
 10  9  1  0
 11 10  1  1
 11 12  1  0
 13 11  1  0
 13 17  1  0
 14 13  2  0
 15 16  2  0
 15  9  1  0
 16  6  1  0
 17 18  1  0
 18 21  1  0
 19 20  1  0
 18 19  1  1
 21 22  2  0
 21 23  1  0
M  END
$$$$
