GYC.pdb
     RDKit          3D

 23 23  0  0  1  0  0  0  0  0999 V2000
   18.9251  -10.4043  -18.3879 N   0  0  0  0  0  0  0  0  0  0  0  0
   18.5838  -10.7051  -17.0080 C   0  0  0  0  0  0  0  0  0  0  0  0
   19.5238  -10.0087  -16.0650 C   0  0  0  0  0  0  0  0  0  0  0  0
   19.3574  -10.1606  -14.8480 O   0  0  0  0  0  0  0  0  0  0  0  0
   23.6126  -14.5345  -15.7078 O   0  0  0  0  0  0  0  0  0  0  0  0
   23.4530  -13.1480  -15.7892 C   0  0  0  0  0  0  0  0  0  0  0  0
   23.1359  -12.5315  -16.9826 C   0  0  0  0  0  0  0  0  0  0  0  0
   22.9803  -11.1609  -17.0524 C   0  0  0  0  0  0  0  0  0  0  0  0
   23.1332  -10.3548  -15.9445 C   0  0  0  0  0  0  0  0  0  0  0  0
   22.9677   -8.8708  -16.0062 C   0  0  0  0  0  0  0  0  0  0  0  0
   21.5439   -8.5078  -15.7688 C   0  0  2  0  0  0  0  0  0  0  0  0
   20.5781   -9.1954  -16.5542 N   0  0  0  0  0  0  0  0  0  0  0  0
   21.2917   -7.0321  -15.7442 C   0  0  0  0  0  0  0  0  0  0  0  0
   21.1233   -6.4477  -16.8328 O   0  0  0  0  0  0  0  0  0  0  0  0
   23.4495  -10.9775  -14.7577 C   0  0  0  0  0  0  0  0  0  0  0  0
   23.6072  -12.3479  -14.6776 C   0  0  0  0  0  0  0  0  0  0  0  0
   21.2477   -6.3290  -14.5118 N   0  0  0  0  0  0  0  0  0  0  0  0
   20.9869   -4.9204  -14.5247 C   0  0  1  0  0  0  0  0  0  0  0  0
   19.6338   -4.5750  -13.9371 C   0  0  0  0  0  0  0  0  0  0  0  0
   19.5023   -2.7663  -13.8991 S   0  0  0  0  0  0  0  0  0  0  0  0
   21.9998   -4.2096  -13.7036 C   0  0  0  0  0  0  0  0  0  0  0  0
   22.4039   -4.6852  -12.5979 O   0  0  0  0  0  0  0  0  0  0  0  0
   22.4980   -3.0044  -14.1769 O   0  0  0  0  0  0  0  0  0  0  0  0
  2  1  1  0
  3  2  1  0
  3 12  1  0
  4  3  2  0
  6  5  1  0
  6  7  2  0
  8  7  1  0
  9  8  2  0
 10  9  1  0
 11 10  1  6
 11 12  1  0
 13 11  1  0
 13 17  1  0
 14 13  2  0
 15 16  2  0
 15  9  1  0
 16  6  1  0
 17 18  1  0
 18 21  1  0
 19 20  1  0
 18 19  1  1
 21 22  2  0
 21 23  1  0
M  END
$$$$
