GYC.pdb
     RDKit          3D

 23 23  0  0  1  0  0  0  0  0999 V2000
   25.9786  -11.9353  -20.1014 N   0  0  0  0  0  0  0  0  0  0  0  0
   25.2826  -10.6611  -20.1568 C   0  0  0  0  0  0  0  0  0  0  0  0
   24.6154  -10.3633  -18.8438 C   0  0  0  0  0  0  0  0  0  0  0  0
   23.5319  -10.9081  -18.5964 O   0  0  0  0  0  0  0  0  0  0  0  0
   27.4154  -14.8893  -15.6409 O   0  0  0  0  0  0  0  0  0  0  0  0
   26.9802  -13.5614  -15.5967 C   0  0  0  0  0  0  0  0  0  0  0  0
   25.7806  -13.2193  -15.0063 C   0  0  0  0  0  0  0  0  0  0  0  0
   25.3596  -11.9044  -14.9678 C   0  0  0  0  0  0  0  0  0  0  0  0
   26.1110  -10.8846  -15.5118 C   0  0  0  0  0  0  0  0  0  0  0  0
   25.6673   -9.4579  -15.4770 C   0  0  0  0  0  0  0  0  0  0  0  0
   24.7290   -9.1898  -16.6008 C   0  0  2  0  0  0  0  0  0  0  0  0
   25.2101   -9.4793  -17.9073 N   0  0  0  0  0  0  0  0  0  0  0  0
   24.0746   -7.8447  -16.5348 C   0  0  0  0  0  0  0  0  0  0  0  0
   24.6962   -6.8668  -16.9958 O   0  0  0  0  0  0  0  0  0  0  0  0
   27.3065  -11.2341  -16.0990 C   0  0  0  0  0  0  0  0  0  0  0  0
   27.7364  -12.5467  -16.1426 C   0  0  0  0  0  0  0  0  0  0  0  0
   22.7840   -7.6984  -15.9621 N   0  0  0  0  0  0  0  0  0  0  0  0
   22.1449   -6.4171  -16.0079 C   0  0  1  0  0  0  0  0  0  0  0  0
   21.0499   -6.3514  -17.0529 C   0  0  0  0  0  0  0  0  0  0  0  0
   21.8357   -6.5361  -18.6773 S   0  0  0  0  0  0  0  0  0  0  0  0
   21.5026   -6.1238  -14.7015 C   0  0  0  0  0  0  0  0  0  0  0  0
   21.4353   -7.0029  -13.7877 O   0  0  0  0  0  0  0  0  0  0  0  0
   20.9737   -4.8569  -14.5014 O   0  0  0  0  0  0  0  0  0  0  0  0
  2  1  1  0
  3  2  1  0
  3 12  1  0
  4  3  2  0
  6  5  1  0
  6  7  2  0
  8  7  1  0
  9  8  2  0
 10  9  1  0
 11 10  1  1
 11 12  1  0
 13 11  1  0
 13 17  1  0
 14 13  2  0
 15 16  2  0
 15  9  1  0
 16  6  1  0
 17 18  1  0
 18 21  1  0
 19 20  1  0
 18 19  1  6
 21 22  2  0
 21 23  1  0
M  END
$$$$
