GFV.pdb
     RDKit          3D

 23 23  0  0  1  0  0  0  0  0999 V2000
   11.9209  -17.2057   20.3304 N   0  0  0  0  0  0  0  0  0  0  0  0
   10.7957  -17.5957   21.1389 C   0  0  0  0  0  0  0  0  0  0  0  0
   10.4792  -16.5201   22.1449 C   0  0  0  0  0  0  0  0  0  0  0  0
   11.2785  -15.5662   22.2873 O   0  0  0  0  0  0  0  0  0  0  0  0
    9.3022  -16.5661   22.9282 N   0  0  0  0  0  0  0  0  0  0  0  0
    9.0567  -15.4797   23.9079 C   0  0  1  0  0  0  0  0  0  0  0  0
    7.5988  -15.2051   23.9186 C   0  0  0  0  0  0  0  0  0  0  0  0
    7.1080  -14.0915   24.7218 C   0  0  0  0  0  0  0  0  0  0  0  0
    6.2272  -14.3316   25.7866 C   0  0  0  0  0  0  0  0  0  0  0  0
    5.7646  -13.3253   26.6049 C   0  0  0  0  0  0  0  0  0  0  0  0
    6.1665  -12.0247   26.3914 C   0  0  0  0  0  0  0  0  0  0  0  0
    7.0284  -11.7511   25.3581 C   0  0  0  0  0  0  0  0  0  0  0  0
    7.4773  -12.7827   24.5513 C   0  0  0  0  0  0  0  0  0  0  0  0
    9.5433  -15.9570   25.2114 C   0  0  0  0  0  0  0  0  0  0  0  0
    9.7045  -17.2295   25.3794 O   0  0  0  0  0  0  0  0  0  0  0  0
   11.5559  -13.5737   27.7111 C   0  0  0  0  0  0  0  0  0  0  0  0
   10.8633  -14.6896   28.4697 C   0  0  1  0  0  0  0  0  0  0  0  0
    9.5771  -14.2256   29.0876 C   0  0  0  0  0  0  0  0  0  0  0  0
   10.5145  -15.8084   27.4833 C   0  0  2  0  0  0  0  0  0  0  0  0
    9.8787  -15.1898   26.3423 N   0  0  0  0  0  0  0  0  0  0  0  0
    9.6246  -16.7976   28.0940 C   0  0  0  0  0  0  0  0  0  0  0  0
    9.9969  -17.8765   28.8739 O   0  0  0  0  0  0  0  0  0  0  0  0
    8.3502  -16.7053   27.9207 O   0  0  0  0  0  0  0  0  0  0  0  0
  1  2  1  0
  3  4  2  0
  3  2  1  0
  5  3  1  0
  6  5  1  0
  6 14  1  0
  6  7  1  1
  8  7  1  0
  9  8  2  0
 10  9  1  0
 11 12  1  0
 11 10  2  0
 12 13  2  0
 13  8  1  0
 14 20  1  0
 15 14  2  0
 17 19  1  0
 17 16  1  6
 17 18  1  0
 19 21  1  0
 19 20  1  6
 21 23  2  0
 21 22  1  0
M  END
$$$$
