GFV.pdb
     RDKit          3D

 23 23  0  0  1  0  0  0  0  0999 V2000
    4.6747  -19.5053   23.1530 N   0  0  0  0  0  0  0  0  0  0  0  0
    4.9828  -18.1141   23.3569 C   0  0  0  0  0  0  0  0  0  0  0  0
    6.4737  -17.9007   23.3263 C   0  0  0  0  0  0  0  0  0  0  0  0
    7.2297  -18.8976   23.2645 O   0  0  0  0  0  0  0  0  0  0  0  0
    7.0339  -16.6023   23.3659 N   0  0  0  0  0  0  0  0  0  0  0  0
    8.5091  -16.4619   23.3004 C   0  0  1  0  0  0  0  0  0  0  0  0
    8.8630  -16.0801   21.9111 C   0  0  0  0  0  0  0  0  0  0  0  0
    8.2157  -14.9120   21.3259 C   0  0  0  0  0  0  0  0  0  0  0  0
    8.7445  -13.6326   21.5513 C   0  0  0  0  0  0  0  0  0  0  0  0
    8.2009  -12.4984   20.9906 C   0  0  0  0  0  0  0  0  0  0  0  0
    7.0958  -12.5960   20.1734 C   0  0  0  0  0  0  0  0  0  0  0  0
    6.5501  -13.8323   19.9297 C   0  0  0  0  0  0  0  0  0  0  0  0
    7.1174  -14.9554   20.5070 C   0  0  0  0  0  0  0  0  0  0  0  0
    8.8871  -15.4277   24.2758 C   0  0  0  0  0  0  0  0  0  0  0  0
    9.4762  -14.3602   23.8433 O   0  0  0  0  0  0  0  0  0  0  0  0
    9.0103  -12.5898   25.9996 C   0  0  0  0  0  0  0  0  0  0  0  0
    9.1398  -13.5928   27.1299 C   0  0  1  0  0  0  0  0  0  0  0  0
    7.8104  -13.9002   27.7541 C   0  0  0  0  0  0  0  0  0  0  0  0
    9.6867  -14.9049   26.5592 C   0  0  2  0  0  0  0  0  0  0  0  0
    8.6807  -15.4358   25.6677 N   0  0  0  0  0  0  0  0  0  0  0  0
    9.9875  -15.8637   27.6241 C   0  0  0  0  0  0  0  0  0  0  0  0
    9.3315  -17.0541   27.8760 O   0  0  0  0  0  0  0  0  0  0  0  0
   10.9537  -15.6268   28.4444 O   0  0  0  0  0  0  0  0  0  0  0  0
  1  2  1  0
  3  4  2  0
  3  2  1  0
  5  3  1  0
  6  5  1  0
  6 14  1  0
  6  7  1  6
  8  7  1  0
  9  8  2  0
 10  9  1  0
 11 12  1  0
 11 10  2  0
 12 13  2  0
 13  8  1  0
 14 20  1  0
 15 14  2  0
 17 19  1  0
 17 16  1  6
 17 18  1  0
 19 21  1  0
 19 20  1  6
 21 23  2  0
 21 22  1  0
M  END
$$$$
