GFV.pdb
     RDKit          3D

 23 23  0  0  1  0  0  0  0  0999 V2000
    4.4121  -20.3765   23.0972 N   0  0  0  0  0  0  0  0  0  0  0  0
    5.5558  -20.0138   23.8924 C   0  0  0  0  0  0  0  0  0  0  0  0
    5.7405  -18.5188   23.8881 C   0  0  0  0  0  0  0  0  0  0  0  0
    5.2057  -17.8425   22.9795 O   0  0  0  0  0  0  0  0  0  0  0  0
    6.5026  -17.8670   24.8858 N   0  0  0  0  0  0  0  0  0  0  0  0
    6.6508  -16.3927   24.8178 C   0  0  1  0  0  0  0  0  0  0  0  0
    7.0557  -15.9191   26.1643 C   0  0  0  0  0  0  0  0  0  0  0  0
    7.0473  -14.4850   26.4274 C   0  0  0  0  0  0  0  0  0  0  0  0
    8.2527  -13.7680   26.4350 C   0  0  0  0  0  0  0  0  0  0  0  0
    8.3021  -12.4065   26.6355 C   0  0  0  0  0  0  0  0  0  0  0  0
    7.1380  -11.6978   26.8388 C   0  0  0  0  0  0  0  0  0  0  0  0
    5.9383  -12.3659   26.8381 C   0  0  0  0  0  0  0  0  0  0  0  0
    5.9188  -13.7351   26.6341 C   0  0  0  0  0  0  0  0  0  0  0  0
    7.6716  -16.1088   23.7973 C   0  0  0  0  0  0  0  0  0  0  0  0
    8.6690  -16.9244   23.6815 O   0  0  0  0  0  0  0  0  0  0  0  0
    6.7539  -14.1764   20.4011 C   0  0  0  0  0  0  0  0  0  0  0  0
    8.1943  -13.9389   20.8127 C   0  0  1  0  0  0  0  0  0  0  0  0
    8.3542  -12.6421   21.5501 C   0  0  0  0  0  0  0  0  0  0  0  0
    8.6211  -15.0586   21.7670 C   0  0  2  0  0  0  0  0  0  0  0  0
    7.7098  -15.0352   22.8885 N   0  0  0  0  0  0  0  0  0  0  0  0
   10.0004  -14.8731   22.2215 C   0  0  0  0  0  0  0  0  0  0  0  0
   11.1514  -15.1226   21.4977 O   0  0  0  0  0  0  0  0  0  0  0  0
   10.2283  -14.4345   23.4125 O   0  0  0  0  0  0  0  0  0  0  0  0
  1  2  1  0
  3  4  2  0
  3  2  1  0
  5  3  1  0
  6  5  1  0
  6 14  1  0
  6  7  1  1
  8  7  1  0
  9  8  2  0
 10  9  1  0
 11 12  1  0
 11 10  2  0
 12 13  2  0
 13  8  1  0
 14 20  1  0
 15 14  2  0
 17 19  1  0
 17 16  1  1
 17 18  1  0
 19 21  1  0
 19 20  1  1
 21 23  2  0
 21 22  1  0
M  END
$$$$
