GFV.pdb
     RDKit          3D

 23 23  0  0  1  0  0  0  0  0999 V2000
    9.0837  -18.0597   26.3889 N   0  0  0  0  0  0  0  0  0  0  0  0
    7.7115  -18.3916   26.1084 C   0  0  0  0  0  0  0  0  0  0  0  0
    7.0424  -17.2614   25.3708 C   0  0  0  0  0  0  0  0  0  0  0  0
    5.8005  -17.2909   25.2099 O   0  0  0  0  0  0  0  0  0  0  0  0
    7.7860  -16.1724   24.8586 N   0  0  0  0  0  0  0  0  0  0  0  0
    7.0843  -15.1550   24.0384 C   0  0  1  0  0  0  0  0  0  0  0  0
    7.6170  -13.8241   24.4207 C   0  0  0  0  0  0  0  0  0  0  0  0
    7.1871  -13.2418   25.6864 C   0  0  0  0  0  0  0  0  0  0  0  0
    8.1267  -12.9954   26.6982 C   0  0  0  0  0  0  0  0  0  0  0  0
    7.7862  -12.4091   27.8968 C   0  0  0  0  0  0  0  0  0  0  0  0
    6.4803  -12.0410   28.1368 C   0  0  0  0  0  0  0  0  0  0  0  0
    5.5322  -12.2668   27.1695 C   0  0  0  0  0  0  0  0  0  0  0  0
    5.9031  -12.8581   25.9739 C   0  0  0  0  0  0  0  0  0  0  0  0
    7.3526  -15.4784   22.6287 C   0  0  0  0  0  0  0  0  0  0  0  0
    6.5328  -16.2660   22.0114 O   0  0  0  0  0  0  0  0  0  0  0  0
    8.3299  -13.6959   18.3415 C   0  0  0  0  0  0  0  0  0  0  0  0
    8.4783  -13.6673   19.8507 C   0  0  1  0  0  0  0  0  0  0  0  0
    7.4118  -12.8334   20.4976 C   0  0  0  0  0  0  0  0  0  0  0  0
    8.3236  -15.0948   20.3844 C   0  0  2  0  0  0  0  0  0  0  0  0
    8.4150  -15.0249   21.8251 N   0  0  0  0  0  0  0  0  0  0  0  0
    9.3589  -15.9790   19.8459 C   0  0  0  0  0  0  0  0  0  0  0  0
    9.4067  -16.5198   18.5746 O   0  0  0  0  0  0  0  0  0  0  0  0
   10.3545  -16.3252   20.5885 O   0  0  0  0  0  0  0  0  0  0  0  0
  1  2  1  0
  3  4  2  0
  3  2  1  0
  5  3  1  0
  6  5  1  0
  6 14  1  0
  6  7  1  1
  8  7  1  0
  9  8  2  0
 10  9  1  0
 11 12  1  0
 11 10  2  0
 12 13  2  0
 13  8  1  0
 14 20  1  0
 15 14  2  0
 17 19  1  0
 17 16  1  6
 17 18  1  0
 19 21  1  0
 19 20  1  1
 21 23  2  0
 21 22  1  0
M  END
$$$$
