GFV.pdb
     RDKit          3D

 23 23  0  0  1  0  0  0  0  0999 V2000
    4.6428  -20.3998   23.0096 N   0  0  0  0  0  0  0  0  0  0  0  0
    5.5768  -19.9569   24.0113 C   0  0  0  0  0  0  0  0  0  0  0  0
    5.7590  -18.4638   23.9299 C   0  0  0  0  0  0  0  0  0  0  0  0
    5.1476  -17.8238   23.0435 O   0  0  0  0  0  0  0  0  0  0  0  0
    6.6032  -17.7736   24.8310 N   0  0  0  0  0  0  0  0  0  0  0  0
    6.7183  -16.2996   24.7108 C   0  0  1  0  0  0  0  0  0  0  0  0
    7.0469  -15.7634   26.0546 C   0  0  0  0  0  0  0  0  0  0  0  0
    7.0920  -14.3169   26.2328 C   0  0  0  0  0  0  0  0  0  0  0  0
    5.9089  -13.6052   26.4795 C   0  0  0  0  0  0  0  0  0  0  0  0
    5.8956  -12.2455   26.6975 C   0  0  0  0  0  0  0  0  0  0  0  0
    7.0751  -11.5335   26.6780 C   0  0  0  0  0  0  0  0  0  0  0  0
    8.2538  -12.1964   26.4394 C   0  0  0  0  0  0  0  0  0  0  0  0
    8.2371  -13.5638   26.2234 C   0  0  0  0  0  0  0  0  0  0  0  0
    7.7791  -16.0290   23.7283 C   0  0  0  0  0  0  0  0  0  0  0  0
    8.7983  -16.8246   23.6887 O   0  0  0  0  0  0  0  0  0  0  0  0
    6.8046  -14.3394   20.2418 C   0  0  0  0  0  0  0  0  0  0  0  0
    8.2437  -14.0433   20.6182 C   0  0  1  0  0  0  0  0  0  0  0  0
    8.3814  -12.6991   21.2704 C   0  0  0  0  0  0  0  0  0  0  0  0
    8.7085  -15.0903   21.6351 C   0  0  2  0  0  0  0  0  0  0  0  0
    7.8364  -14.9883   22.7830 N   0  0  0  0  0  0  0  0  0  0  0  0
   10.1018  -14.8694   22.0268 C   0  0  0  0  0  0  0  0  0  0  0  0
   11.2282  -15.1658   21.2823 O   0  0  0  0  0  0  0  0  0  0  0  0
   10.3686  -14.3477   23.1754 O   0  0  0  0  0  0  0  0  0  0  0  0
  1  2  1  0
  3  4  2  0
  3  2  1  0
  5  3  1  0
  6  5  1  0
  6 14  1  0
  6  7  1  1
  8  7  1  0
  9  8  2  0
 10  9  1  0
 11 12  1  0
 11 10  2  0
 12 13  2  0
 13  8  1  0
 14 20  1  0
 15 14  2  0
 17 19  1  0
 17 16  1  1
 17 18  1  0
 19 21  1  0
 19 20  1  1
 21 23  2  0
 21 22  1  0
M  END
$$$$
