GFV.pdb
     RDKit          3D

 23 23  0  0  1  0  0  0  0  0999 V2000
   11.8205  -17.0126   20.2857 N   0  0  0  0  0  0  0  0  0  0  0  0
   10.6653  -17.4148   21.0445 C   0  0  0  0  0  0  0  0  0  0  0  0
   10.3614  -16.3949   22.1107 C   0  0  0  0  0  0  0  0  0  0  0  0
   11.1782  -15.4677   22.3159 O   0  0  0  0  0  0  0  0  0  0  0  0
    9.1770  -16.4638   22.8810 N   0  0  0  0  0  0  0  0  0  0  0  0
    8.9517  -15.4418   23.9323 C   0  0  1  0  0  0  0  0  0  0  0  0
    7.4965  -15.1562   23.9770 C   0  0  0  0  0  0  0  0  0  0  0  0
    7.0204  -14.1183   24.8835 C   0  0  0  0  0  0  0  0  0  0  0  0
    7.3601  -12.7773   24.6519 C   0  0  0  0  0  0  0  0  0  0  0  0
    6.9051  -11.7508   25.4492 C   0  0  0  0  0  0  0  0  0  0  0  0
    6.0839  -12.0239   26.5214 C   0  0  0  0  0  0  0  0  0  0  0  0
    5.7298  -13.3253   26.7795 C   0  0  0  0  0  0  0  0  0  0  0  0
    6.2023  -14.3371   25.9612 C   0  0  0  0  0  0  0  0  0  0  0  0
    9.4475  -16.0076   25.1964 C   0  0  0  0  0  0  0  0  0  0  0  0
    9.6310  -17.2861   25.2680 O   0  0  0  0  0  0  0  0  0  0  0  0
   11.3838  -13.7179   27.8689 C   0  0  0  0  0  0  0  0  0  0  0  0
   10.7805  -14.9462   28.5230 C   0  0  1  0  0  0  0  0  0  0  0  0
    9.4732  -14.6343   29.1900 C   0  0  0  0  0  0  0  0  0  0  0  0
   10.4980  -15.9894   27.4375 C   0  0  2  0  0  0  0  0  0  0  0  0
    9.7703  -15.3222   26.3821 N   0  0  0  0  0  0  0  0  0  0  0  0
    9.7212  -17.1116   27.9676 C   0  0  0  0  0  0  0  0  0  0  0  0
   10.2033  -18.1782   28.7029 O   0  0  0  0  0  0  0  0  0  0  0  0
    8.4501  -17.1657   27.7580 O   0  0  0  0  0  0  0  0  0  0  0  0
  1  2  1  0
  3  4  2  0
  3  2  1  0
  5  3  1  0
  6  5  1  0
  6 14  1  0
  6  7  1  1
  8  7  1  0
  9  8  2  0
 10  9  1  0
 11 12  1  0
 11 10  2  0
 12 13  2  0
 13  8  1  0
 14 20  1  0
 15 14  2  0
 17 19  1  0
 17 16  1  6
 17 18  1  0
 19 21  1  0
 19 20  1  6
 21 23  2  0
 21 22  1  0
M  END
$$$$
