GFV.pdb
     RDKit          3D

 23 23  0  0  1  0  0  0  0  0999 V2000
   11.4841  -16.9817   20.1954 N   0  0  0  0  0  0  0  0  0  0  0  0
   10.3111  -17.3128   20.9611 C   0  0  0  0  0  0  0  0  0  0  0  0
   10.1298  -16.3296   22.0878 C   0  0  0  0  0  0  0  0  0  0  0  0
   11.0722  -15.5574   22.3789 O   0  0  0  0  0  0  0  0  0  0  0  0
    8.9214  -16.2618   22.8202 N   0  0  0  0  0  0  0  0  0  0  0  0
    8.7969  -15.2465   23.8945 C   0  0  1  0  0  0  0  0  0  0  0  0
    7.3693  -14.8506   23.9754 C   0  0  0  0  0  0  0  0  0  0  0  0
    6.9971  -13.7786   24.8909 C   0  0  0  0  0  0  0  0  0  0  0  0
    7.3291  -12.4506   24.5853 C   0  0  0  0  0  0  0  0  0  0  0  0
    6.9671  -11.3937   25.3904 C   0  0  0  0  0  0  0  0  0  0  0  0
    6.2514  -11.6217   26.5456 C   0  0  0  0  0  0  0  0  0  0  0  0
    5.9083  -12.9092   26.8778 C   0  0  0  0  0  0  0  0  0  0  0  0
    6.2858  -13.9523   26.0496 C   0  0  0  0  0  0  0  0  0  0  0  0
    9.2723  -15.8738   25.1373 C   0  0  0  0  0  0  0  0  0  0  0  0
    9.2601  -17.1648   25.2184 O   0  0  0  0  0  0  0  0  0  0  0  0
   11.8655  -13.9671   27.6320 C   0  0  0  0  0  0  0  0  0  0  0  0
   10.9987  -14.9957   28.3329 C   0  0  1  0  0  0  0  0  0  0  0  0
    9.7969  -14.3653   28.9727 C   0  0  0  0  0  0  0  0  0  0  0  0
   10.4860  -15.9947   27.2910 C   0  0  2  0  0  0  0  0  0  0  0  0
    9.7655  -15.2387   26.2920 N   0  0  0  0  0  0  0  0  0  0  0  0
    9.6148  -17.0003   27.9021 C   0  0  0  0  0  0  0  0  0  0  0  0
   10.0115  -18.1204   28.6083 O   0  0  0  0  0  0  0  0  0  0  0  0
    8.3345  -16.8827   27.8036 O   0  0  0  0  0  0  0  0  0  0  0  0
  1  2  1  0
  3  4  2  0
  3  2  1  0
  5  3  1  0
  6  5  1  0
  6 14  1  0
  6  7  1  1
  8  7  1  0
  9  8  2  0
 10  9  1  0
 11 12  1  0
 11 10  2  0
 12 13  2  0
 13  8  1  0
 14 20  1  0
 15 14  2  0
 17 19  1  0
 17 16  1  6
 17 18  1  0
 19 21  1  0
 19 20  1  6
 21 23  2  0
 21 22  1  0
M  END
$$$$
