YAD.pdb
     RDKit          3D

 26 26  0  0  1  0  0  0  0  0999 V2000
   29.4832  -18.7122   -3.7485 O   0  0  0  0  0  0  0  0  0  0  0  0
   28.9083  -19.3073   -4.8676 C   0  0  0  0  0  0  0  0  0  0  0  0
   27.6591  -19.8896   -4.8398 C   0  0  0  0  0  0  0  0  0  0  0  0
   27.0968  -20.4768   -5.9522 C   0  0  0  0  0  0  0  0  0  0  0  0
   27.7863  -20.4996   -7.1589 C   0  0  0  0  0  0  0  0  0  0  0  0
   27.2275  -21.1119   -8.3641 C   0  0  0  0  0  0  0  0  0  0  0  0
   26.3931  -20.1429   -9.1739 C   0  0  2  0  0  0  0  0  0  0  0  0
   25.3584  -19.5542   -8.3369 N   0  0  0  0  0  0  0  0  0  0  0  0
   25.7371  -20.8137  -10.3053 C   0  0  0  0  0  0  0  0  0  0  0  0
   26.3809  -21.4713  -11.1633 O   0  0  0  0  0  0  0  0  0  0  0  0
   29.0379  -19.9212   -7.2041 C   0  0  0  0  0  0  0  0  0  0  0  0
   29.5872  -19.3376   -6.0827 C   0  0  0  0  0  0  0  0  0  0  0  0
   22.3420  -21.6595  -11.6269 C   0  0  0  0  0  0  0  0  0  0  0  0
   23.7142  -21.0099  -11.7681 C   0  0  2  0  0  0  0  0  0  0  0  0
   24.3129  -20.7532  -10.4927 N   0  0  0  0  0  0  0  0  0  0  0  0
   23.5889  -19.8036  -12.6064 C   0  0  0  0  0  0  0  0  0  0  0  0
   24.3951  -18.8376  -12.5772 O   0  0  0  0  0  0  0  0  0  0  0  0
   22.4792  -19.7296  -13.5095 N   0  0  0  0  0  0  0  0  0  0  0  0
   22.6229  -19.3212  -14.8805 C   0  0  1  0  0  0  0  0  0  0  0  0
   23.7662  -20.0096  -15.5924 C   0  0  0  0  0  0  0  0  0  0  0  0
   24.8506  -19.0781  -15.9484 C   0  0  0  0  0  0  0  0  0  0  0  0
   24.8296  -17.8366  -15.8035 O   0  0  0  0  0  0  0  0  0  0  0  0
   21.3896  -19.6310  -15.6574 C   0  0  0  0  0  0  0  0  0  0  0  0
   20.7184  -18.6119  -16.3047 O   0  0  0  0  0  0  0  0  0  0  0  0
   26.0232  -19.6068  -16.5017 O   0  0  0  0  0  0  0  0  0  0  0  0
   20.9249  -20.7928  -15.7524 O   0  0  0  0  0  0  0  0  0  0  0  0
  2  3  2  0
  2  1  1  0
  4  3  1  0
  5  4  2  0
  6  5  1  0
  7  6  1  0
  7  9  1  0
  7  8  1  1
  9 15  1  0
  9 10  2  0
 11  5  1  0
 11 12  2  0
 12  2  1  0
 14 13  1  1
 15 14  1  0
 16 14  1  0
 16 17  2  0
 18 16  1  0
 19 18  1  0
 20 21  1  0
 19 20  1  6
 21 22  2  0
 23 19  1  0
 24 23  1  0
 25 21  1  0
 26 23  2  0
M  END
$$$$
