YAD.pdb
     RDKit          3D

 26 26  0  0  1  0  0  0  0  0999 V2000
   19.3077  -14.0528  -17.7850 O   0  0  0  0  0  0  0  0  0  0  0  0
   19.4650  -12.7056  -17.4731 C   0  0  0  0  0  0  0  0  0  0  0  0
   20.5459  -11.9653  -17.9019 C   0  0  0  0  0  0  0  0  0  0  0  0
   20.6944  -10.6318  -17.5887 C   0  0  0  0  0  0  0  0  0  0  0  0
   19.7396   -9.9810  -16.8160 C   0  0  0  0  0  0  0  0  0  0  0  0
   19.8572   -8.5672  -16.4599 C   0  0  0  0  0  0  0  0  0  0  0  0
   21.0482   -8.2905  -15.5677 C   0  0  2  0  0  0  0  0  0  0  0  0
   20.8470   -8.9014  -14.2623 N   0  0  0  0  0  0  0  0  0  0  0  0
   21.2478   -6.8477  -15.3698 C   0  0  0  0  0  0  0  0  0  0  0  0
   20.5485   -6.1750  -14.5688 O   0  0  0  0  0  0  0  0  0  0  0  0
   18.6515  -10.7074  -16.3786 C   0  0  0  0  0  0  0  0  0  0  0  0
   18.5169  -12.0409  -16.7001 C   0  0  0  0  0  0  0  0  0  0  0  0
   23.5388   -4.1664  -16.8163 C   0  0  0  0  0  0  0  0  0  0  0  0
   22.4266   -4.7097  -15.9260 C   0  0  2  0  0  0  0  0  0  0  0  0
   22.2613   -6.1231  -16.0872 N   0  0  0  0  0  0  0  0  0  0  0  0
   21.1919   -3.9457  -16.1823 C   0  0  0  0  0  0  0  0  0  0  0  0
   20.3585   -4.2328  -17.0805 O   0  0  0  0  0  0  0  0  0  0  0  0
   20.9275   -2.8059  -15.3554 N   0  0  0  0  0  0  0  0  0  0  0  0
   19.8075   -1.9321  -15.5770 C   0  0  1  0  0  0  0  0  0  0  0  0
   18.5455   -2.3898  -14.8802 C   0  0  0  0  0  0  0  0  0  0  0  0
   17.4202   -1.4614  -15.0855 C   0  0  0  0  0  0  0  0  0  0  0  0
   17.3787   -0.5306  -15.9189 O   0  0  0  0  0  0  0  0  0  0  0  0
   20.0983   -0.5603  -15.0730 C   0  0  0  0  0  0  0  0  0  0  0  0
   20.9195   -0.3981  -13.9743 O   0  0  0  0  0  0  0  0  0  0  0  0
   16.2807   -1.6143  -14.2863 O   0  0  0  0  0  0  0  0  0  0  0  0
   19.6244    0.4708  -15.6088 O   0  0  0  0  0  0  0  0  0  0  0  0
  2  3  2  0
  2  1  1  0
  4  3  1  0
  5  4  2  0
  6  5  1  0
  7  6  1  0
  7  9  1  0
  7  8  1  1
  9 15  1  0
  9 10  2  0
 11  5  1  0
 11 12  2  0
 12  2  1  0
 14 13  1  6
 15 14  1  0
 16 14  1  0
 16 17  2  0
 18 16  1  0
 19 18  1  0
 20 21  1  0
 19 20  1  1
 21 22  2  0
 23 19  1  0
 24 23  1  0
 25 21  1  0
 26 23  2  0
M  END
$$$$
