YAD.pdb
     RDKit          3D

 26 26  0  0  1  0  0  0  0  0999 V2000
   21.1343  -18.9159  -14.5747 O   0  0  0  0  0  0  0  0  0  0  0  0
   20.6022  -17.6577  -14.8407 C   0  0  0  0  0  0  0  0  0  0  0  0
   19.8960  -16.9365  -13.9020 C   0  0  0  0  0  0  0  0  0  0  0  0
   19.3723  -15.6913  -14.1732 C   0  0  0  0  0  0  0  0  0  0  0  0
   19.5441  -15.1145  -15.4262 C   0  0  0  0  0  0  0  0  0  0  0  0
   19.0055  -13.7954  -15.7572 C   0  0  0  0  0  0  0  0  0  0  0  0
   17.5378  -13.8433  -16.1238 C   0  0  2  0  0  0  0  0  0  0  0  0
   17.3547  -14.5970  -17.3551 N   0  0  0  0  0  0  0  0  0  0  0  0
   16.9909  -12.4945  -16.3297 C   0  0  0  0  0  0  0  0  0  0  0  0
   17.3150  -11.7795  -17.3129 O   0  0  0  0  0  0  0  0  0  0  0  0
   20.2486  -15.8230  -16.3774 C   0  0  0  0  0  0  0  0  0  0  0  0
   20.7665  -17.0678  -16.0910 C   0  0  0  0  0  0  0  0  0  0  0  0
   14.2344  -10.3840  -14.8168 C   0  0  0  0  0  0  0  0  0  0  0  0
   15.5177  -10.6015  -15.6109 C   0  0  2  0  0  0  0  0  0  0  0  0
   16.0488  -11.9164  -15.4103 N   0  0  0  0  0  0  0  0  0  0  0  0
   16.4740   -9.5298  -15.2785 C   0  0  0  0  0  0  0  0  0  0  0  0
   17.6135   -9.7301  -14.7831 O   0  0  0  0  0  0  0  0  0  0  0  0
   16.0784   -8.1773  -15.5366 N   0  0  0  0  0  0  0  0  0  0  0  0
   16.9760   -7.0650  -15.3804 C   0  0  1  0  0  0  0  0  0  0  0  0
   18.1347   -7.0912  -16.3522 C   0  0  0  0  0  0  0  0  0  0  0  0
   18.9334   -5.8540  -16.3102 C   0  0  0  0  0  0  0  0  0  0  0  0
   18.6599   -4.7831  -16.8943 O   0  0  0  0  0  0  0  0  0  0  0  0
   16.2640   -5.7748  -15.6016 C   0  0  0  0  0  0  0  0  0  0  0  0
   15.2305   -5.7152  -16.5161 O   0  0  0  0  0  0  0  0  0  0  0  0
   20.1115   -5.8512  -15.5535 O   0  0  0  0  0  0  0  0  0  0  0  0
   16.5644   -4.7233  -14.9861 O   0  0  0  0  0  0  0  0  0  0  0  0
  2  3  2  0
  2  1  1  0
  4  3  1  0
  5  4  2  0
  6  5  1  0
  7  6  1  0
  7  9  1  0
  7  8  1  6
  9 15  1  0
  9 10  2  0
 11  5  1  0
 11 12  2  0
 12  2  1  0
 14 13  1  1
 15 14  1  0
 16 14  1  0
 16 17  2  0
 18 16  1  0
 19 18  1  0
 20 21  1  0
 19 20  1  6
 21 22  2  0
 23 19  1  0
 24 23  1  0
 25 21  1  0
 26 23  2  0
M  END
$$$$
