YAD.pdb
     RDKit          3D

 26 26  0  0  1  0  0  0  0  0999 V2000
   25.2445  -12.4817  -26.7077 O   0  0  0  0  0  0  0  0  0  0  0  0
   24.6826  -13.3490  -25.7755 C   0  0  0  0  0  0  0  0  0  0  0  0
   24.7802  -14.7198  -25.8834 C   0  0  0  0  0  0  0  0  0  0  0  0
   24.2211  -15.5719  -24.9561 C   0  0  0  0  0  0  0  0  0  0  0  0
   23.5286  -15.0640  -23.8631 C   0  0  0  0  0  0  0  0  0  0  0  0
   22.9195  -15.9315  -22.8550 C   0  0  0  0  0  0  0  0  0  0  0  0
   23.7699  -16.0597  -21.6095 C   0  0  2  0  0  0  0  0  0  0  0  0
   24.9816  -16.8089  -21.9069 N   0  0  0  0  0  0  0  0  0  0  0  0
   23.0508  -16.7632  -20.5378 C   0  0  0  0  0  0  0  0  0  0  0  0
   23.0068  -18.0187  -20.4681 O   0  0  0  0  0  0  0  0  0  0  0  0
   23.4216  -13.6942  -23.7400 C   0  0  0  0  0  0  0  0  0  0  0  0
   23.9864  -12.8546  -24.6760 C   0  0  0  0  0  0  0  0  0  0  0  0
   21.3280  -15.8002  -17.2951 C   0  0  0  0  0  0  0  0  0  0  0  0
   21.6643  -16.7336  -18.4528 C   0  0  2  0  0  0  0  0  0  0  0  0
   22.3538  -16.0474  -19.5039 N   0  0  0  0  0  0  0  0  0  0  0  0
   20.4294  -17.4006  -18.9044 C   0  0  0  0  0  0  0  0  0  0  0  0
   20.0801  -17.4967  -20.1097 O   0  0  0  0  0  0  0  0  0  0  0  0
   19.5761  -17.9738  -17.9065 N   0  0  0  0  0  0  0  0  0  0  0  0
   18.3470  -18.6450  -18.2319 C   0  0  1  0  0  0  0  0  0  0  0  0
   18.5409  -19.8418  -19.1361 C   0  0  0  0  0  0  0  0  0  0  0  0
   17.2718  -20.5187  -19.4547 C   0  0  0  0  0  0  0  0  0  0  0  0
   16.4420  -20.1558  -20.3164 O   0  0  0  0  0  0  0  0  0  0  0  0
   17.6754  -19.1467  -16.9999 C   0  0  0  0  0  0  0  0  0  0  0  0
   16.3002  -19.0706  -16.8947 O   0  0  0  0  0  0  0  0  0  0  0  0
   16.9413  -21.6771  -18.7410 O   0  0  0  0  0  0  0  0  0  0  0  0
   18.3110  -19.6429  -16.0384 O   0  0  0  0  0  0  0  0  0  0  0  0
  2  3  2  0
  2  1  1  0
  4  3  1  0
  5  4  2  0
  6  5  1  0
  7  6  1  0
  7  9  1  0
  7  8  1  6
  9 15  1  0
  9 10  2  0
 11  5  1  0
 11 12  2  0
 12  2  1  0
 14 13  1  1
 15 14  1  0
 16 14  1  0
 16 17  2  0
 18 16  1  0
 19 18  1  0
 20 21  1  0
 19 20  1  6
 21 22  2  0
 23 19  1  0
 24 23  1  0
 25 21  1  0
 26 23  2  0
M  END
$$$$
