YAD.pdb
     RDKit          3D

 26 26  0  0  1  0  0  0  0  0999 V2000
   26.0140  -20.9814   -8.4756 O   0  0  0  0  0  0  0  0  0  0  0  0
   25.4792  -20.7574   -9.7409 C   0  0  0  0  0  0  0  0  0  0  0  0
   24.2646  -20.1349   -9.9342 C   0  0  0  0  0  0  0  0  0  0  0  0
   23.7420  -19.9168  -11.1902 C   0  0  0  0  0  0  0  0  0  0  0  0
   24.4381  -20.3262  -12.3217 C   0  0  0  0  0  0  0  0  0  0  0  0
   23.9209  -20.1150  -13.6735 C   0  0  0  0  0  0  0  0  0  0  0  0
   22.8281  -21.0973  -14.0369 C   0  0  2  0  0  0  0  0  0  0  0  0
   23.3753  -22.4428  -14.1256 N   0  0  0  0  0  0  0  0  0  0  0  0
   22.2179  -20.7672  -15.3327 C   0  0  0  0  0  0  0  0  0  0  0  0
   22.4463  -21.4354  -16.3741 O   0  0  0  0  0  0  0  0  0  0  0  0
   25.6554  -20.9509  -12.1459 C   0  0  0  0  0  0  0  0  0  0  0  0
   26.1651  -21.1620  -10.8828 C   0  0  0  0  0  0  0  0  0  0  0  0
   19.5848  -20.3420  -17.0632 C   0  0  0  0  0  0  0  0  0  0  0  0
   20.6987  -19.3540  -16.7346 C   0  0  2  0  0  0  0  0  0  0  0  0
   21.3201  -19.6539  -15.4796 N   0  0  0  0  0  0  0  0  0  0  0  0
   20.1594  -17.9836  -16.8051 C   0  0  0  0  0  0  0  0  0  0  0  0
   19.6171  -17.3885  -15.8377 O   0  0  0  0  0  0  0  0  0  0  0  0
   20.2607  -17.2889  -18.0540 N   0  0  0  0  0  0  0  0  0  0  0  0
   19.7501  -15.9583  -18.2431 C   0  0  1  0  0  0  0  0  0  0  0  0
   20.1766  -15.3353  -19.5537 C   0  0  0  0  0  0  0  0  0  0  0  0
   19.6060  -13.9914  -19.7507 C   0  0  0  0  0  0  0  0  0  0  0  0
   19.8844  -12.9705  -19.0850 O   0  0  0  0  0  0  0  0  0  0  0  0
   18.2600  -15.9569  -18.2361 C   0  0  0  0  0  0  0  0  0  0  0  0
   17.5826  -14.9153  -17.6326 O   0  0  0  0  0  0  0  0  0  0  0  0
   18.6633  -13.8148  -20.7707 O   0  0  0  0  0  0  0  0  0  0  0  0
   17.5811  -16.8724  -18.7613 O   0  0  0  0  0  0  0  0  0  0  0  0
  2  3  2  0
  2  1  1  0
  4  3  1  0
  5  4  2  0
  6  5  1  0
  7  6  1  0
  7  9  1  0
  7  8  1  6
  9 15  1  0
  9 10  2  0
 11  5  1  0
 11 12  2  0
 12  2  1  0
 14 13  1  1
 15 14  1  0
 16 14  1  0
 16 17  2  0
 18 16  1  0
 19 18  1  0
 20 21  1  0
 19 20  1  6
 21 22  2  0
 23 19  1  0
 24 23  1  0
 25 21  1  0
 26 23  2  0
M  END
$$$$
