YAD.pdb
     RDKit          3D

 26 26  0  0  1  0  0  0  0  0999 V2000
   28.8671  -20.5725   -6.4243 O   0  0  0  0  0  0  0  0  0  0  0  0
   28.1843  -20.4925   -7.6344 C   0  0  0  0  0  0  0  0  0  0  0  0
   26.8207  -20.3039   -7.7066 C   0  0  0  0  0  0  0  0  0  0  0  0
   26.1520  -20.2258   -8.9088 C   0  0  0  0  0  0  0  0  0  0  0  0
   26.8466  -20.3371  -10.1076 C   0  0  0  0  0  0  0  0  0  0  0  0
   26.1773  -20.2601  -11.4060 C   0  0  0  0  0  0  0  0  0  0  0  0
   25.5742  -21.5829  -11.8273 C   0  0  2  0  0  0  0  0  0  0  0  0
   26.5910  -22.4215  -12.4442 N   0  0  0  0  0  0  0  0  0  0  0  0
   24.4886  -21.3931  -12.7999 C   0  0  0  0  0  0  0  0  0  0  0  0
   24.7067  -21.2176  -14.0266 O   0  0  0  0  0  0  0  0  0  0  0  0
   28.2120  -20.5262  -10.0532 C   0  0  0  0  0  0  0  0  0  0  0  0
   28.8669  -20.6023   -8.8428 C   0  0  0  0  0  0  0  0  0  0  0  0
   20.6952  -21.6523  -12.7199 C   0  0  0  0  0  0  0  0  0  0  0  0
   22.0479  -21.3579  -13.3589 C   0  0  2  0  0  0  0  0  0  0  0  0
   23.1084  -21.3981  -12.3972 N   0  0  0  0  0  0  0  0  0  0  0  0
   21.9666  -20.0765  -14.0834 C   0  0  0  0  0  0  0  0  0  0  0  0
   22.1694  -18.9528  -13.5540 O   0  0  0  0  0  0  0  0  0  0  0  0
   21.6358  -20.1164  -15.4768 N   0  0  0  0  0  0  0  0  0  0  0  0
   21.4596  -18.9268  -16.2648 C   0  0  1  0  0  0  0  0  0  0  0  0
   21.8332  -19.1124  -17.7187 C   0  0  0  0  0  0  0  0  0  0  0  0
   21.6562  -17.8808  -18.5075 C   0  0  0  0  0  0  0  0  0  0  0  0
   21.2401  -16.7845  -18.0741 O   0  0  0  0  0  0  0  0  0  0  0  0
   20.0371  -18.4837  -16.2441 C   0  0  0  0  0  0  0  0  0  0  0  0
   19.7344  -17.1806  -15.9000 O   0  0  0  0  0  0  0  0  0  0  0  0
   21.9763  -17.9149  -19.8702 O   0  0  0  0  0  0  0  0  0  0  0  0
   19.0861  -19.2514  -16.5291 O   0  0  0  0  0  0  0  0  0  0  0  0
  2  3  2  0
  2  1  1  0
  4  3  1  0
  5  4  2  0
  6  5  1  0
  7  6  1  0
  7  9  1  0
  7  8  1  6
  9 15  1  0
  9 10  2  0
 11  5  1  0
 11 12  2  0
 12  2  1  0
 14 13  1  1
 15 14  1  0
 16 14  1  0
 16 17  2  0
 18 16  1  0
 19 18  1  0
 20 21  1  0
 19 20  1  6
 21 22  2  0
 23 19  1  0
 24 23  1  0
 25 21  1  0
 26 23  2  0
M  END
$$$$
