YAD.pdb
     RDKit          3D

 26 26  0  0  1  0  0  0  0  0999 V2000
   28.4086  -12.9468  -16.9447 O   0  0  0  0  0  0  0  0  0  0  0  0
   27.7142  -14.0879  -16.5540 C   0  0  0  0  0  0  0  0  0  0  0  0
   27.1403  -14.9545  -17.4595 C   0  0  0  0  0  0  0  0  0  0  0  0
   26.4544  -16.0823  -17.0645 C   0  0  0  0  0  0  0  0  0  0  0  0
   26.3183  -16.3852  -15.7147 C   0  0  0  0  0  0  0  0  0  0  0  0
   25.5988  -17.5714  -15.2510 C   0  0  0  0  0  0  0  0  0  0  0  0
   26.5228  -18.7357  -14.9651 C   0  0  2  0  0  0  0  0  0  0  0  0
   27.1238  -19.2118  -16.2020 N   0  0  0  0  0  0  0  0  0  0  0  0
   25.7994  -19.8571  -14.3489 C   0  0  0  0  0  0  0  0  0  0  0  0
   25.1500  -20.6939  -15.0281 O   0  0  0  0  0  0  0  0  0  0  0  0
   26.8868  -15.5283  -14.7952 C   0  0  0  0  0  0  0  0  0  0  0  0
   27.5700  -14.4038  -15.2058 C   0  0  0  0  0  0  0  0  0  0  0  0
   25.0364  -20.9654  -10.7822 C   0  0  0  0  0  0  0  0  0  0  0  0
   24.8348  -20.9113  -12.2926 C   0  0  2  0  0  0  0  0  0  0  0  0
   25.7958  -20.0586  -12.9254 N   0  0  0  0  0  0  0  0  0  0  0  0
   23.4397  -20.5281  -12.5760 C   0  0  0  0  0  0  0  0  0  0  0  0
   23.0057  -19.3484  -12.5134 O   0  0  0  0  0  0  0  0  0  0  0  0
   22.5234  -21.5657  -12.9454 N   0  0  0  0  0  0  0  0  0  0  0  0
   21.1495  -21.3029  -13.2775 C   0  0  1  0  0  0  0  0  0  0  0  0
   20.7610  -21.8011  -14.6518 C   0  0  0  0  0  0  0  0  0  0  0  0
   19.3282  -21.6099  -14.9361 C   0  0  0  0  0  0  0  0  0  0  0  0
   18.7553  -20.5137  -15.1173 O   0  0  0  0  0  0  0  0  0  0  0  0
   20.2338  -21.9690  -12.3088 C   0  0  0  0  0  0  0  0  0  0  0  0
   20.6976  -23.0252  -11.5488 O   0  0  0  0  0  0  0  0  0  0  0  0
   18.5113  -22.7444  -15.0159 O   0  0  0  0  0  0  0  0  0  0  0  0
   19.0422  -21.6095  -12.1486 O   0  0  0  0  0  0  0  0  0  0  0  0
  2  3  2  0
  2  1  1  0
  4  3  1  0
  5  4  2  0
  6  5  1  0
  7  6  1  0
  7  9  1  0
  7  8  1  6
  9 15  1  0
  9 10  2  0
 11  5  1  0
 11 12  2  0
 12  2  1  0
 14 13  1  1
 15 14  1  0
 16 14  1  0
 16 17  2  0
 18 16  1  0
 19 18  1  0
 20 21  1  0
 19 20  1  6
 21 22  2  0
 23 19  1  0
 24 23  1  0
 25 21  1  0
 26 23  2  0
M  END
$$$$
