YAD.pdb
     RDKit          3D

 26 26  0  0  1  0  0  0  0  0999 V2000
   29.0715  -20.2554   -3.3333 O   0  0  0  0  0  0  0  0  0  0  0  0
   28.4972  -20.1150   -4.5932 C   0  0  0  0  0  0  0  0  0  0  0  0
   28.8447  -19.1001   -5.4588 C   0  0  0  0  0  0  0  0  0  0  0  0
   28.2714  -18.9679   -6.7048 C   0  0  0  0  0  0  0  0  0  0  0  0
   27.3067  -19.8721   -7.1337 C   0  0  0  0  0  0  0  0  0  0  0  0
   26.6723  -19.7696   -8.4477 C   0  0  0  0  0  0  0  0  0  0  0  0
   26.9560  -20.9705   -9.3243 C   0  0  2  0  0  0  0  0  0  0  0  0
   28.3895  -21.1091   -9.5330 N   0  0  0  0  0  0  0  0  0  0  0  0
   26.3146  -20.8388  -10.6403 C   0  0  0  0  0  0  0  0  0  0  0  0
   26.5524  -19.8735  -11.4116 O   0  0  0  0  0  0  0  0  0  0  0  0
   26.9473  -20.8940   -6.2796 C   0  0  0  0  0  0  0  0  0  0  0  0
   27.5299  -21.0130   -5.0361 C   0  0  0  0  0  0  0  0  0  0  0  0
   24.5225  -22.9955  -13.0877 C   0  0  0  0  0  0  0  0  0  0  0  0
   24.7098  -21.6585  -12.3790 C   0  0  2  0  0  0  0  0  0  0  0  0
   25.3736  -21.8144  -11.1196 N   0  0  0  0  0  0  0  0  0  0  0  0
   23.4015  -20.9876  -12.2689 C   0  0  0  0  0  0  0  0  0  0  0  0
   22.6836  -21.0071  -11.2354 O   0  0  0  0  0  0  0  0  0  0  0  0
   22.9204  -20.2695  -13.4115 N   0  0  0  0  0  0  0  0  0  0  0  0
   21.6781  -19.5459  -13.4041 C   0  0  1  0  0  0  0  0  0  0  0  0
   21.5779  -18.5193  -14.5104 C   0  0  0  0  0  0  0  0  0  0  0  0
   20.3132  -17.7650  -14.4662 C   0  0  0  0  0  0  0  0  0  0  0  0
   19.7050  -17.4109  -13.4330 O   0  0  0  0  0  0  0  0  0  0  0  0
   20.5243  -20.4727  -13.5778 C   0  0  0  0  0  0  0  0  0  0  0  0
   19.4167  -20.3418  -12.7628 O   0  0  0  0  0  0  0  0  0  0  0  0
   19.7171  -17.3991  -15.6793 O   0  0  0  0  0  0  0  0  0  0  0  0
   20.5117  -21.3811  -14.4436 O   0  0  0  0  0  0  0  0  0  0  0  0
  2  3  2  0
  2  1  1  0
  4  3  1  0
  5  4  2  0
  6  5  1  0
  7  6  1  0
  7  9  1  0
  7  8  1  6
  9 15  1  0
  9 10  2  0
 11  5  1  0
 11 12  2  0
 12  2  1  0
 14 13  1  1
 15 14  1  0
 16 14  1  0
 16 17  2  0
 18 16  1  0
 19 18  1  0
 20 21  1  0
 19 20  1  6
 21 22  2  0
 23 19  1  0
 24 23  1  0
 25 21  1  0
 26 23  2  0
M  END
$$$$
