YAD.pdb
     RDKit          3D

 26 26  0  0  1  0  0  0  0  0999 V2000
   21.4141  -12.2794  -21.3567 O   0  0  0  0  0  0  0  0  0  0  0  0
   21.0828  -11.2592  -20.4698 C   0  0  0  0  0  0  0  0  0  0  0  0
   22.0298  -10.4421  -19.8905 C   0  0  0  0  0  0  0  0  0  0  0  0
   21.6936   -9.4341  -19.0133 C   0  0  0  0  0  0  0  0  0  0  0  0
   20.3632   -9.2073  -18.6803 C   0  0  0  0  0  0  0  0  0  0  0  0
   19.9615   -8.1490  -17.7539 C   0  0  0  0  0  0  0  0  0  0  0  0
   20.4344   -8.4057  -16.3392 C   0  0  2  0  0  0  0  0  0  0  0  0
   19.7529   -9.5672  -15.7877 N   0  0  0  0  0  0  0  0  0  0  0  0
   20.1590   -7.2575  -15.4638 C   0  0  0  0  0  0  0  0  0  0  0  0
   18.9917   -6.9389  -15.1186 O   0  0  0  0  0  0  0  0  0  0  0  0
   19.4027  -10.0162  -19.2512 C   0  0  0  0  0  0  0  0  0  0  0  0
   19.7547  -11.0206  -20.1271 C   0  0  0  0  0  0  0  0  0  0  0  0
   22.1803   -4.8489  -13.3504 C   0  0  0  0  0  0  0  0  0  0  0  0
   20.9461   -5.2902  -14.1295 C   0  0  2  0  0  0  0  0  0  0  0  0
   21.2180   -6.4310  -14.9514 N   0  0  0  0  0  0  0  0  0  0  0  0
   20.4205   -4.1389  -14.8859 C   0  0  0  0  0  0  0  0  0  0  0  0
   20.7252   -3.8808  -16.0794 O   0  0  0  0  0  0  0  0  0  0  0  0
   19.5061   -3.2615  -14.2177 N   0  0  0  0  0  0  0  0  0  0  0  0
   18.9858   -2.0710  -14.8335 C   0  0  1  0  0  0  0  0  0  0  0  0
   17.6540   -1.6364  -14.2632 C   0  0  0  0  0  0  0  0  0  0  0  0
   16.5588   -2.5510  -14.6297 C   0  0  0  0  0  0  0  0  0  0  0  0
   16.5680   -3.3647  -15.5786 O   0  0  0  0  0  0  0  0  0  0  0  0
   19.9220   -0.9266  -14.6484 C   0  0  0  0  0  0  0  0  0  0  0  0
   21.0273   -1.0756  -13.8335 O   0  0  0  0  0  0  0  0  0  0  0  0
   15.3892   -2.5261  -13.8602 O   0  0  0  0  0  0  0  0  0  0  0  0
   19.7503    0.1838  -15.2072 O   0  0  0  0  0  0  0  0  0  0  0  0
  2  3  2  0
  2  1  1  0
  4  3  1  0
  5  4  2  0
  6  5  1  0
  7  6  1  0
  7  9  1  0
  7  8  1  1
  9 15  1  0
  9 10  2  0
 11  5  1  0
 11 12  2  0
 12  2  1  0
 14 13  1  6
 15 14  1  0
 16 14  1  0
 16 17  2  0
 18 16  1  0
 19 18  1  0
 20 21  1  0
 19 20  1  1
 21 22  2  0
 23 19  1  0
 24 23  1  0
 25 21  1  0
 26 23  2  0
M  END
$$$$
