YAD.pdb
     RDKit          3D

 26 26  0  0  1  0  0  0  0  0999 V2000
   29.4640  -18.7750   -5.4275 O   0  0  0  0  0  0  0  0  0  0  0  0
   28.6526  -19.1670   -6.4881 C   0  0  0  0  0  0  0  0  0  0  0  0
   28.8632  -20.3330   -7.1928 C   0  0  0  0  0  0  0  0  0  0  0  0
   28.0552  -20.7141   -8.2418 C   0  0  0  0  0  0  0  0  0  0  0  0
   26.9829  -19.9182   -8.6278 C   0  0  0  0  0  0  0  0  0  0  0  0
   26.0999  -20.2842   -9.7351 C   0  0  0  0  0  0  0  0  0  0  0  0
   24.6423  -20.3175   -9.3283 C   0  0  2  0  0  0  0  0  0  0  0  0
   24.4395  -21.3029   -8.2769 N   0  0  0  0  0  0  0  0  0  0  0  0
   23.7763  -20.6747  -10.4610 C   0  0  0  0  0  0  0  0  0  0  0  0
   23.8089  -21.8106  -11.0012 O   0  0  0  0  0  0  0  0  0  0  0  0
   26.7581  -18.7479   -7.9330 C   0  0  0  0  0  0  0  0  0  0  0  0
   27.5752  -18.3801   -6.8857 C   0  0  0  0  0  0  0  0  0  0  0  0
   20.6351  -19.2891  -11.9842 C   0  0  0  0  0  0  0  0  0  0  0  0
   21.9117  -20.1211  -12.0381 C   0  0  2  0  0  0  0  0  0  0  0  0
   22.8383  -19.7370  -11.0158 N   0  0  0  0  0  0  0  0  0  0  0  0
   22.4777  -20.0422  -13.3972 C   0  0  0  0  0  0  0  0  0  0  0  0
   23.3174  -19.1788  -13.7624 O   0  0  0  0  0  0  0  0  0  0  0  0
   22.0426  -21.0101  -14.3596 N   0  0  0  0  0  0  0  0  0  0  0  0
   22.5300  -21.0301  -15.7120 C   0  0  1  0  0  0  0  0  0  0  0  0
   22.8095  -22.4249  -16.2259 C   0  0  0  0  0  0  0  0  0  0  0  0
   23.2532  -22.4294  -17.6308 C   0  0  0  0  0  0  0  0  0  0  0  0
   23.2919  -21.4384  -18.3918 O   0  0  0  0  0  0  0  0  0  0  0  0
   21.5355  -20.4251  -16.6423 C   0  0  0  0  0  0  0  0  0  0  0  0
   20.2042  -20.7789  -16.5403 O   0  0  0  0  0  0  0  0  0  0  0  0
   23.6750  -23.6424  -18.1886 O   0  0  0  0  0  0  0  0  0  0  0  0
   21.8563  -19.5961  -17.5281 O   0  0  0  0  0  0  0  0  0  0  0  0
  2  3  2  0
  2  1  1  0
  4  3  1  0
  5  4  2  0
  6  5  1  0
  7  6  1  0
  7  9  1  0
  7  8  1  1
  9 15  1  0
  9 10  2  0
 11  5  1  0
 11 12  2  0
 12  2  1  0
 14 13  1  6
 15 14  1  0
 16 14  1  0
 16 17  2  0
 18 16  1  0
 19 18  1  0
 20 21  1  0
 19 20  1  6
 21 22  2  0
 23 19  1  0
 24 23  1  0
 25 21  1  0
 26 23  2  0
M  END
$$$$
