YAD.pdb
     RDKit          3D

 26 26  0  0  1  0  0  0  0  0999 V2000
   28.7343  -19.8239   -4.5419 O   0  0  0  0  0  0  0  0  0  0  0  0
   28.4124  -19.8228   -5.8960 C   0  0  0  0  0  0  0  0  0  0  0  0
   27.2131  -19.3393   -6.3738 C   0  0  0  0  0  0  0  0  0  0  0  0
   26.9020  -19.3417   -7.7161 C   0  0  0  0  0  0  0  0  0  0  0  0
   27.8061  -19.8417   -8.6460 C   0  0  0  0  0  0  0  0  0  0  0  0
   27.5172  -19.8636  -10.0797 C   0  0  0  0  0  0  0  0  0  0  0  0
   26.2740  -20.6617  -10.4090 C   0  0  2  0  0  0  0  0  0  0  0  0
   26.4956  -22.0716  -10.1245 N   0  0  0  0  0  0  0  0  0  0  0  0
   25.9139  -20.5345  -11.8284 C   0  0  0  0  0  0  0  0  0  0  0  0
   25.6011  -19.4318  -12.3474 O   0  0  0  0  0  0  0  0  0  0  0  0
   29.0111  -20.3295   -8.1845 C   0  0  0  0  0  0  0  0  0  0  0  0
   29.3080  -20.3203   -6.8385 C   0  0  0  0  0  0  0  0  0  0  0  0
   26.2247  -22.5924  -14.9515 C   0  0  0  0  0  0  0  0  0  0  0  0
   25.5255  -21.5524  -14.0831 C   0  0  2  0  0  0  0  0  0  0  0  0
   25.9002  -21.6732  -12.7061 N   0  0  0  0  0  0  0  0  0  0  0  0
   24.0704  -21.6464  -14.3014 C   0  0  0  0  0  0  0  0  0  0  0  0
   23.5152  -21.5096  -15.4226 O   0  0  0  0  0  0  0  0  0  0  0  0
   23.2396  -21.9100  -13.1644 N   0  0  0  0  0  0  0  0  0  0  0  0
   21.8044  -21.9375  -13.2442 C   0  0  1  0  0  0  0  0  0  0  0  0
   21.1475  -22.4985  -12.0026 C   0  0  0  0  0  0  0  0  0  0  0  0
   19.6840  -22.6015  -12.1371 C   0  0  0  0  0  0  0  0  0  0  0  0
   19.0285  -22.4221  -13.1864 O   0  0  0  0  0  0  0  0  0  0  0  0
   21.2580  -20.5638  -13.4311 C   0  0  0  0  0  0  0  0  0  0  0  0
   20.4165  -20.3044  -14.4953 O   0  0  0  0  0  0  0  0  0  0  0  0
   18.9355  -22.9292  -11.0001 O   0  0  0  0  0  0  0  0  0  0  0  0
   21.5311  -19.6166  -12.6545 O   0  0  0  0  0  0  0  0  0  0  0  0
  2  3  2  0
  2  1  1  0
  4  3  1  0
  5  4  2  0
  6  5  1  0
  7  6  1  0
  7  9  1  0
  7  8  1  6
  9 15  1  0
  9 10  2  0
 11  5  1  0
 11 12  2  0
 12  2  1  0
 14 13  1  6
 15 14  1  0
 16 14  1  0
 16 17  2  0
 18 16  1  0
 19 18  1  0
 20 21  1  0
 19 20  1  1
 21 22  2  0
 23 19  1  0
 24 23  1  0
 25 21  1  0
 26 23  2  0
M  END
$$$$
