YAD.pdb
     RDKit          3D

 26 26  0  0  1  0  0  0  0  0999 V2000
   22.0012  -20.2338  -17.9167 O   0  0  0  0  0  0  0  0  0  0  0  0
   22.5549  -19.9529  -16.6711 C   0  0  0  0  0  0  0  0  0  0  0  0
   23.8988  -20.1045  -16.4046 C   0  0  0  0  0  0  0  0  0  0  0  0
   24.4394  -19.8242  -15.1686 C   0  0  0  0  0  0  0  0  0  0  0  0
   23.6292  -19.3712  -14.1338 C   0  0  0  0  0  0  0  0  0  0  0  0
   24.1606  -19.0617  -12.8066 C   0  0  0  0  0  0  0  0  0  0  0  0
   24.8367  -20.2517  -12.1602 C   0  0  2  0  0  0  0  0  0  0  0  0
   23.9020  -21.3623  -12.0575 N   0  0  0  0  0  0  0  0  0  0  0  0
   25.3127  -19.9300  -10.8073 C   0  0  0  0  0  0  0  0  0  0  0  0
   25.8572  -18.8304  -10.5288 O   0  0  0  0  0  0  0  0  0  0  0  0
   22.2817  -19.2140  -14.3837 C   0  0  0  0  0  0  0  0  0  0  0  0
   21.7557  -19.4986  -15.6256 C   0  0  0  0  0  0  0  0  0  0  0  0
   24.9623  -21.3888   -7.3406 C   0  0  0  0  0  0  0  0  0  0  0  0
   25.6646  -20.5578   -8.4088 C   0  0  2  0  0  0  0  0  0  0  0  0
   25.1799  -20.8630   -9.7215 N   0  0  0  0  0  0  0  0  0  0  0  0
   27.1219  -20.7331   -8.2705 C   0  0  0  0  0  0  0  0  0  0  0  0
   27.7186  -21.8298   -8.4290 O   0  0  0  0  0  0  0  0  0  0  0  0
   27.9047  -19.5811   -7.9347 N   0  0  0  0  0  0  0  0  0  0  0  0
   28.4826  -19.3909   -6.6320 C   0  0  1  0  0  0  0  0  0  0  0  0
   27.7076  -18.4186   -5.7707 C   0  0  0  0  0  0  0  0  0  0  0  0
   28.3888  -18.1275   -4.4972 C   0  0  0  0  0  0  0  0  0  0  0  0
   29.5453  -18.4844   -4.1846 O   0  0  0  0  0  0  0  0  0  0  0  0
   28.5329  -20.6775   -5.8820 C   0  0  0  0  0  0  0  0  0  0  0  0
   27.3657  -21.2196   -5.3803 O   0  0  0  0  0  0  0  0  0  0  0  0
   27.6989  -17.3843   -3.5316 O   0  0  0  0  0  0  0  0  0  0  0  0
   29.6031  -21.3014   -5.6818 O   0  0  0  0  0  0  0  0  0  0  0  0
  2  3  2  0
  2  1  1  0
  4  3  1  0
  5  4  2  0
  6  5  1  0
  7  6  1  0
  7  9  1  0
  7  8  1  1
  9 15  1  0
  9 10  2  0
 11  5  1  0
 11 12  2  0
 12  2  1  0
 14 13  1  1
 15 14  1  0
 16 14  1  0
 16 17  2  0
 18 16  1  0
 19 18  1  0
 20 21  1  0
 19 20  1  1
 21 22  2  0
 23 19  1  0
 24 23  1  0
 25 21  1  0
 26 23  2  0
M  END
$$$$
