YAD.pdb
     RDKit          3D

 26 26  0  0  1  0  0  0  0  0999 V2000
   18.1384  -14.8810  -22.2934 O   0  0  0  0  0  0  0  0  0  0  0  0
   18.6321  -13.9574  -21.3768 C   0  0  0  0  0  0  0  0  0  0  0  0
   17.8405  -13.3740  -20.4107 C   0  0  0  0  0  0  0  0  0  0  0  0
   18.3369  -12.4603  -19.5067 C   0  0  0  0  0  0  0  0  0  0  0  0
   19.6771  -12.0929  -19.5432 C   0  0  0  0  0  0  0  0  0  0  0  0
   20.2460  -11.1273  -18.6032 C   0  0  0  0  0  0  0  0  0  0  0  0
   21.1632  -11.7760  -17.5889 C   0  0  2  0  0  0  0  0  0  0  0  0
   20.4026  -12.6678  -16.7262 N   0  0  0  0  0  0  0  0  0  0  0  0
   21.8212  -10.7725  -16.7401 C   0  0  0  0  0  0  0  0  0  0  0  0
   21.1988  -10.1212  -15.8618 O   0  0  0  0  0  0  0  0  0  0  0  0
   20.4832  -12.6675  -20.5038 C   0  0  0  0  0  0  0  0  0  0  0  0
   19.9719  -13.5801  -21.4014 C   0  0  0  0  0  0  0  0  0  0  0  0
   25.3483   -9.6005  -16.0324 C   0  0  0  0  0  0  0  0  0  0  0  0
   23.8376   -9.4186  -16.1305 C   0  0  2  0  0  0  0  0  0  0  0  0
   23.2229  -10.4800  -16.8700 N   0  0  0  0  0  0  0  0  0  0  0  0
   23.5511   -8.0818  -16.6825 C   0  0  0  0  0  0  0  0  0  0  0  0
   23.3909   -7.8444  -17.9080 O   0  0  0  0  0  0  0  0  0  0  0  0
   23.4494   -6.9872  -15.7638 N   0  0  0  0  0  0  0  0  0  0  0  0
   23.1788   -5.6412  -16.1906 C   0  0  1  0  0  0  0  0  0  0  0  0
   22.7509   -4.7308  -15.0611 C   0  0  0  0  0  0  0  0  0  0  0  0
   21.4035   -5.0512  -14.5588 C   0  0  0  0  0  0  0  0  0  0  0  0
   20.5833   -5.8249  -15.0986 O   0  0  0  0  0  0  0  0  0  0  0  0
   24.3915   -5.0244  -16.7984 C   0  0  0  0  0  0  0  0  0  0  0  0
   24.2773   -3.8316  -17.4856 O   0  0  0  0  0  0  0  0  0  0  0  0
   20.9785   -4.4466  -13.3695 O   0  0  0  0  0  0  0  0  0  0  0  0
   25.5295   -5.5463  -16.7137 O   0  0  0  0  0  0  0  0  0  0  0  0
  2  3  2  0
  2  1  1  0
  4  3  1  0
  5  4  2  0
  6  5  1  0
  7  6  1  0
  7  9  1  0
  7  8  1  1
  9 15  1  0
  9 10  2  0
 11  5  1  0
 11 12  2  0
 12  2  1  0
 14 13  1  6
 15 14  1  0
 16 14  1  0
 16 17  2  0
 18 16  1  0
 19 18  1  0
 20 21  1  0
 19 20  1  1
 21 22  2  0
 23 19  1  0
 24 23  1  0
 25 21  1  0
 26 23  2  0
M  END
$$$$
