YAD.pdb
     RDKit          3D

 26 26  0  0  1  0  0  0  0  0999 V2000
   22.3705  -12.6605  -20.0607 O   0  0  0  0  0  0  0  0  0  0  0  0
   21.9287  -11.7259  -19.1288 C   0  0  0  0  0  0  0  0  0  0  0  0
   21.5130  -12.0788  -17.8628 C   0  0  0  0  0  0  0  0  0  0  0  0
   21.0770  -11.1473  -16.9459 C   0  0  0  0  0  0  0  0  0  0  0  0
   21.0427   -9.7978  -17.2774 C   0  0  0  0  0  0  0  0  0  0  0  0
   20.5873   -8.7755  -16.3355 C   0  0  0  0  0  0  0  0  0  0  0  0
   21.6633   -8.3743  -15.3495 C   0  0  2  0  0  0  0  0  0  0  0  0
   22.2167   -9.5562  -14.7057 N   0  0  0  0  0  0  0  0  0  0  0  0
   21.1302   -7.4921  -14.3017 C   0  0  0  0  0  0  0  0  0  0  0  0
   21.0320   -7.8557  -13.1011 O   0  0  0  0  0  0  0  0  0  0  0  0
   21.4553   -9.4275  -18.5405 C   0  0  0  0  0  0  0  0  0  0  0  0
   21.8890  -10.3711  -19.4469 C   0  0  0  0  0  0  0  0  0  0  0  0
   22.7821   -4.9212  -14.2998 C   0  0  0  0  0  0  0  0  0  0  0  0
   21.2947   -5.0144  -13.9780 C   0  0  2  0  0  0  0  0  0  0  0  0
   20.6891   -6.1557  -14.5960 N   0  0  0  0  0  0  0  0  0  0  0  0
   20.6453   -3.7417  -14.3417 C   0  0  0  0  0  0  0  0  0  0  0  0
   20.8787   -2.6432  -13.7735 O   0  0  0  0  0  0  0  0  0  0  0  0
   19.6896   -3.7601  -15.4089 N   0  0  0  0  0  0  0  0  0  0  0  0
   19.6472   -2.7463  -16.4275 C   0  0  1  0  0  0  0  0  0  0  0  0
   20.8953   -2.7041  -17.2809 C   0  0  0  0  0  0  0  0  0  0  0  0
   20.8093   -1.6999  -18.3554 C   0  0  0  0  0  0  0  0  0  0  0  0
   20.3959   -0.5266  -18.2327 O   0  0  0  0  0  0  0  0  0  0  0  0
   18.5043   -2.9757  -17.3557 C   0  0  0  0  0  0  0  0  0  0  0  0
   17.7655   -1.8988  -17.8056 O   0  0  0  0  0  0  0  0  0  0  0  0
   21.2225   -2.0686  -19.6415 O   0  0  0  0  0  0  0  0  0  0  0  0
   18.1766   -4.1197  -17.7540 O   0  0  0  0  0  0  0  0  0  0  0  0
  2  3  2  0
  2  1  1  0
  4  3  1  0
  5  4  2  0
  6  5  1  0
  7  6  1  0
  7  9  1  0
  7  8  1  1
  9 15  1  0
  9 10  2  0
 11  5  1  0
 11 12  2  0
 12  2  1  0
 14 13  1  6
 15 14  1  0
 16 14  1  0
 16 17  2  0
 18 16  1  0
 19 18  1  0
 20 21  1  0
 19 20  1  6
 21 22  2  0
 23 19  1  0
 24 23  1  0
 25 21  1  0
 26 23  2  0
M  END
$$$$
