CSS.pdb
     RDKit          3D

 19 18  0  0  1  0  0  0  0  0999 V2000
   17.3962  -11.5806  -17.0392 N   0  0  0  0  0  0  0  0  0  0  0  0
   18.3212  -10.6572  -17.6280 C   0  0  1  0  0  0  0  0  0  0  0  0
   17.5590   -9.5805  -18.3705 C   0  0  0  0  0  0  0  0  0  0  0  0
   18.6657   -8.3950  -19.1609 S   0  0  0  0  0  0  0  0  0  0  0  0
   19.1375  -10.0344  -16.5629 C   0  0  0  0  0  0  0  0  0  0  0  0
   18.5771   -9.5967  -15.5186 O   0  0  0  0  0  0  0  0  0  0  0  0
   22.8767  -10.9975  -15.0275 O   0  0  0  0  0  0  0  0  0  0  0  0
   22.8069   -9.7834  -15.6986 C   0  0  0  0  0  0  0  0  0  0  0  0
   21.3673   -9.2590  -15.6834 C   0  0  2  0  0  0  0  0  0  0  0  0
   20.5591   -9.9109  -16.6799 N   0  0  0  0  0  0  0  0  0  0  0  0
   21.3407   -7.7863  -15.8036 C   0  0  0  0  0  0  0  0  0  0  0  0
   21.0204   -7.2621  -16.9011 O   0  0  0  0  0  0  0  0  0  0  0  0
   20.2897   -3.5761  -15.2324 O   0  0  0  0  0  0  0  0  0  0  0  0
   20.2481   -4.9803  -15.1701 C   0  0  0  0  0  0  0  0  0  0  0  0
   21.6719   -5.4710  -14.8921 C   0  0  2  0  0  0  0  0  0  0  0  0
   21.6593   -6.9072  -14.7401 N   0  0  0  0  0  0  0  0  0  0  0  0
   22.1443   -4.7716  -13.6945 C   0  0  0  0  0  0  0  0  0  0  0  0
   22.5468   -3.4462  -13.7489 O   0  0  0  0  0  0  0  0  0  0  0  0
   22.1968   -5.3552  -12.5868 O   0  0  0  0  0  0  0  0  0  0  0  0
  2  3  1  0
  2  1  1  1
  3  4  1  0
  5  6  2  0
  5  2  1  0
  7  8  1  0
  9  8  1  6
  9 10  1  0
 10  5  1  0
 11  9  1  0
 11 12  2  0
 13 14  1  0
 15 14  1  1
 15 16  1  0
 16 11  1  0
 17 15  1  0
 18 17  1  0
 19 17  2  0
M  END
$$$$
