CSS.pdb
     RDKit          3D

 19 18  0  0  1  0  0  0  0  0999 V2000
   24.8224  -12.7897  -17.0144 N   0  0  0  0  0  0  0  0  0  0  0  0
   24.8412  -11.6254  -16.1783 C   0  0  1  0  0  0  0  0  0  0  0  0
   26.2007  -10.9647  -16.2602 C   0  0  0  0  0  0  0  0  0  0  0  0
   27.5122  -12.0448  -15.6534 S   0  0  0  0  0  0  0  0  0  0  0  0
   23.8053  -10.6746  -16.6383 C   0  0  0  0  0  0  0  0  0  0  0  0
   23.2594  -10.8394  -17.7657 O   0  0  0  0  0  0  0  0  0  0  0  0
   20.6213  -10.0501  -15.0076 O   0  0  0  0  0  0  0  0  0  0  0  0
   20.9791   -9.5779  -16.2639 C   0  0  0  0  0  0  0  0  0  0  0  0
   22.2596   -8.7426  -16.1639 C   0  0  2  0  0  0  0  0  0  0  0  0
   23.3975   -9.5608  -15.8365 N   0  0  0  0  0  0  0  0  0  0  0  0
   22.0819   -7.6141  -15.2265 C   0  0  0  0  0  0  0  0  0  0  0  0
   22.3504   -7.7751  -14.0084 O   0  0  0  0  0  0  0  0  0  0  0  0
   22.9056   -3.2593  -14.1677 O   0  0  0  0  0  0  0  0  0  0  0  0
   22.9188   -4.3733  -15.0257 C   0  0  0  0  0  0  0  0  0  0  0  0
   21.6542   -5.1887  -14.7406 C   0  0  2  0  0  0  0  0  0  0  0  0
   21.6185   -6.3347  -15.6189 N   0  0  0  0  0  0  0  0  0  0  0  0
   20.5107   -4.2910  -14.9223 C   0  0  0  0  0  0  0  0  0  0  0  0
   19.9731   -3.5879  -13.8553 O   0  0  0  0  0  0  0  0  0  0  0  0
   19.9875   -4.1352  -16.0503 O   0  0  0  0  0  0  0  0  0  0  0  0
  2  3  1  0
  2  1  1  6
  3  4  1  0
  5  6  2  0
  5  2  1  0
  7  8  1  0
  9  8  1  1
  9 10  1  0
 10  5  1  0
 11  9  1  0
 11 12  2  0
 13 14  1  0
 15 14  1  6
 15 16  1  0
 16 11  1  0
 17 15  1  0
 18 17  1  0
 19 17  2  0
M  END
$$$$
