CSS.pdb
     RDKit          3D

 19 18  0  0  1  0  0  0  0  0999 V2000
   25.7415  -35.5369  -12.6233 N   0  0  0  0  0  0  0  0  0  0  0  0
   24.9529  -35.1298  -11.4974 C   0  0  1  0  0  0  0  0  0  0  0  0
   24.0638  -36.2745  -11.0610 C   0  0  0  0  0  0  0  0  0  0  0  0
   22.6203  -36.4511  -12.1287 S   0  0  0  0  0  0  0  0  0  0  0  0
   25.8487  -34.7519  -10.3823 C   0  0  0  0  0  0  0  0  0  0  0  0
   26.9105  -35.4065  -10.1817 O   0  0  0  0  0  0  0  0  0  0  0  0
   24.7375  -31.8210   -7.4834 O   0  0  0  0  0  0  0  0  0  0  0  0
   26.0604  -31.8728   -7.9035 C   0  0  0  0  0  0  0  0  0  0  0  0
   26.3934  -33.2792   -8.4121 C   0  0  2  0  0  0  0  0  0  0  0  0
   25.5464  -33.6548   -9.5134 N   0  0  0  0  0  0  0  0  0  0  0  0
   26.3604  -34.2612   -7.3084 C   0  0  0  0  0  0  0  0  0  0  0  0
   25.2682  -34.7992   -6.9930 O   0  0  0  0  0  0  0  0  0  0  0  0
   28.8033  -36.8999   -4.0344 O   0  0  0  0  0  0  0  0  0  0  0  0
   28.8584  -35.8151   -4.9275 C   0  0  0  0  0  0  0  0  0  0  0  0
   27.4524  -35.6208   -5.5027 C   0  0  2  0  0  0  0  0  0  0  0  0
   27.5037  -34.6447   -6.5660 N   0  0  0  0  0  0  0  0  0  0  0  0
   26.5837  -35.2165   -4.3944 C   0  0  0  0  0  0  0  0  0  0  0  0
   26.1758  -33.9001   -4.2451 O   0  0  0  0  0  0  0  0  0  0  0  0
   26.1859  -36.0528   -3.5502 O   0  0  0  0  0  0  0  0  0  0  0  0
  2  3  1  0
  2  1  1  6
  3  4  1  0
  5  6  2  0
  5  2  1  0
  7  8  1  0
  9  8  1  1
  9 10  1  0
 10  5  1  0
 11  9  1  0
 11 12  2  0
 13 14  1  0
 15 14  1  1
 15 16  1  0
 16 11  1  0
 17 15  1  0
 18 17  1  0
 19 17  2  0
M  END
$$$$
