CSS.pdb
     RDKit          3D

 19 18  0  0  1  0  0  0  0  0999 V2000
   25.3290  -14.0052  -17.3026 N   0  0  0  0  0  0  0  0  0  0  0  0
   26.5614  -14.0482  -18.0335 C   0  0  1  0  0  0  0  0  0  0  0  0
   26.2720  -13.9945  -19.5184 C   0  0  0  0  0  0  0  0  0  0  0  0
   25.6128  -15.5573  -20.1332 S   0  0  0  0  0  0  0  0  0  0  0  0
   27.3972  -12.8879  -17.6544 C   0  0  0  0  0  0  0  0  0  0  0  0
   26.8463  -11.8089  -17.2961 O   0  0  0  0  0  0  0  0  0  0  0  0
   31.8657  -11.2141  -16.6018 O   0  0  0  0  0  0  0  0  0  0  0  0
   31.0914  -12.3018  -16.9846 C   0  0  0  0  0  0  0  0  0  0  0  0
   29.6611  -11.8446  -17.2894 C   0  0  2  0  0  0  0  0  0  0  0  0
   28.8273  -12.9503  -17.6812 N   0  0  0  0  0  0  0  0  0  0  0  0
   29.6572  -10.7496  -18.2817 C   0  0  0  0  0  0  0  0  0  0  0  0
   29.7299  -11.0260  -19.5065 O   0  0  0  0  0  0  0  0  0  0  0  0
   28.9444   -6.0652  -19.2680 O   0  0  0  0  0  0  0  0  0  0  0  0
   29.1866   -7.0038  -18.2493 C   0  0  0  0  0  0  0  0  0  0  0  0
   29.5732   -8.3240  -18.9225 C   0  0  2  0  0  0  0  0  0  0  0  0
   29.5751   -9.3788  -17.9359 N   0  0  0  0  0  0  0  0  0  0  0  0
   30.8819   -8.1227  -19.5496 C   0  0  0  0  0  0  0  0  0  0  0  0
   30.9908   -7.7480  -20.8798 O   0  0  0  0  0  0  0  0  0  0  0  0
   31.9398   -8.2845  -18.8976 O   0  0  0  0  0  0  0  0  0  0  0  0
  2  3  1  0
  2  1  1  1
  3  4  1  0
  5  6  2  0
  5  2  1  0
  7  8  1  0
  9  8  1  6
  9 10  1  0
 10  5  1  0
 11  9  1  0
 11 12  2  0
 13 14  1  0
 15 14  1  1
 15 16  1  0
 16 11  1  0
 17 15  1  0
 18 17  1  0
 19 17  2  0
M  END
$$$$
