CSS.pdb
     RDKit          3D

 19 18  0  0  1  0  0  0  0  0999 V2000
   21.2039  -12.5342  -17.5902 N   0  0  0  0  0  0  0  0  0  0  0  0
   21.0711  -11.2168  -18.1395 C   0  0  1  0  0  0  0  0  0  0  0  0
   19.6039  -10.8700  -18.2756 C   0  0  0  0  0  0  0  0  0  0  0  0
   18.7672  -11.9368  -19.4658 S   0  0  0  0  0  0  0  0  0  0  0  0
   21.7241  -10.2417  -17.2386 C   0  0  0  0  0  0  0  0  0  0  0  0
   21.2682  -10.0611  -16.0742 O   0  0  0  0  0  0  0  0  0  0  0  0
   25.4922   -7.2337  -16.4444 O   0  0  0  0  0  0  0  0  0  0  0  0
   24.9223   -8.1937  -17.2708 C   0  0  0  0  0  0  0  0  0  0  0  0
   23.4948   -8.5024  -16.8075 C   0  0  2  0  0  0  0  0  0  0  0  0
   22.8697   -9.4878  -17.6498 N   0  0  0  0  0  0  0  0  0  0  0  0
   22.6975   -7.2634  -16.6931 C   0  0  0  0  0  0  0  0  0  0  0  0
   22.1503   -6.7844  -17.7192 O   0  0  0  0  0  0  0  0  0  0  0  0
   19.9580   -6.5303  -14.3838 O   0  0  0  0  0  0  0  0  0  0  0  0
   20.2490   -5.6707  -15.4579 C   0  0  0  0  0  0  0  0  0  0  0  0
   21.7430   -5.3408  -15.3917 C   0  0  2  0  0  0  0  0  0  0  0  0
   22.5050   -6.5648  -15.4764 N   0  0  0  0  0  0  0  0  0  0  0  0
   21.9694   -4.6095  -14.1425 C   0  0  0  0  0  0  0  0  0  0  0  0
   22.8209   -5.1026  -13.1660 O   0  0  0  0  0  0  0  0  0  0  0  0
   21.3974   -3.5162  -13.9239 O   0  0  0  0  0  0  0  0  0  0  0  0
  2  3  1  0
  2  1  1  1
  3  4  1  0
  5  6  2  0
  5  2  1  0
  7  8  1  0
  9  8  1  6
  9 10  1  0
 10  5  1  0
 11  9  1  0
 11 12  2  0
 13 14  1  0
 15 14  1  1
 15 16  1  0
 16 11  1  0
 17 15  1  0
 18 17  1  0
 19 17  2  0
M  END
$$$$
