CSS.pdb
     RDKit          3D

 19 18  0  0  1  0  0  0  0  0999 V2000
   25.2669  -11.6276  -17.9342 N   0  0  0  0  0  0  0  0  0  0  0  0
   25.0424  -11.1110  -16.6159 C   0  0  1  0  0  0  0  0  0  0  0  0
   26.3302  -10.5286  -16.0737 C   0  0  0  0  0  0  0  0  0  0  0  0
   27.5761  -11.8011  -15.7854 S   0  0  0  0  0  0  0  0  0  0  0  0
   24.0110  -10.0519  -16.6733 C   0  0  0  0  0  0  0  0  0  0  0  0
   24.0387   -9.1998  -17.6056 O   0  0  0  0  0  0  0  0  0  0  0  0
   21.0795   -9.5819  -13.6061 O   0  0  0  0  0  0  0  0  0  0  0  0
   20.7032   -9.4052  -14.9314 C   0  0  0  0  0  0  0  0  0  0  0  0
   21.9160   -8.9850  -15.7682 C   0  0  2  0  0  0  0  0  0  0  0  0
   22.9705   -9.9615  -15.6939 N   0  0  0  0  0  0  0  0  0  0  0  0
   22.3694   -7.6285  -15.3963 C   0  0  0  0  0  0  0  0  0  0  0  0
   23.2788   -7.4952  -14.5378 O   0  0  0  0  0  0  0  0  0  0  0  0
   22.3906   -2.8702  -16.3057 O   0  0  0  0  0  0  0  0  0  0  0  0
   21.7850   -4.1040  -16.6028 C   0  0  0  0  0  0  0  0  0  0  0  0
   22.3007   -5.1264  -15.5859 C   0  0  2  0  0  0  0  0  0  0  0  0
   21.8351   -6.4425  -15.9560 N   0  0  0  0  0  0  0  0  0  0  0  0
   21.8273   -4.7006  -14.2664 C   0  0  0  0  0  0  0  0  0  0  0  0
   22.6281   -3.9422  -13.4266 O   0  0  0  0  0  0  0  0  0  0  0  0
   20.6829   -5.0119  -13.8617 O   0  0  0  0  0  0  0  0  0  0  0  0
  2  3  1  0
  2  1  1  6
  3  4  1  0
  5  6  2  0
  5  2  1  0
  7  8  1  0
  9  8  1  1
  9 10  1  0
 10  5  1  0
 11  9  1  0
 11 12  2  0
 13 14  1  0
 15 14  1  6
 15 16  1  0
 16 11  1  0
 17 15  1  0
 18 17  1  0
 19 17  2  0
M  END
$$$$
