CSS.pdb
     RDKit          3D

 19 18  0  0  1  0  0  0  0  0999 V2000
   17.0444   -9.3761  -10.3809 N   0  0  0  0  0  0  0  0  0  0  0  0
   17.0233   -9.3509  -11.8141 C   0  0  1  0  0  0  0  0  0  0  0  0
   15.7180   -8.7506  -12.2910 C   0  0  0  0  0  0  0  0  0  0  0  0
   14.3280   -9.8723  -12.0369 S   0  0  0  0  0  0  0  0  0  0  0  0
   18.1502   -8.5288  -12.3068 C   0  0  0  0  0  0  0  0  0  0  0  0
   18.4294   -7.4388  -11.7320 O   0  0  0  0  0  0  0  0  0  0  0  0
   21.7543   -9.8434  -13.9527 O   0  0  0  0  0  0  0  0  0  0  0  0
   20.9996   -9.0104  -14.7686 C   0  0  0  0  0  0  0  0  0  0  0  0
   20.0536   -8.1592  -13.9153 C   0  0  2  0  0  0  0  0  0  0  0  0
   18.9435   -8.9344  -13.4274 N   0  0  0  0  0  0  0  0  0  0  0  0
   19.6245   -6.9504  -14.6491 C   0  0  0  0  0  0  0  0  0  0  0  0
   18.6577   -7.0251  -15.4502 O   0  0  0  0  0  0  0  0  0  0  0  0
   19.3909   -2.1842  -14.9913 O   0  0  0  0  0  0  0  0  0  0  0  0
   19.8381   -3.3045  -14.2685 C   0  0  0  0  0  0  0  0  0  0  0  0
   19.7908   -4.5098  -15.2121 C   0  0  2  0  0  0  0  0  0  0  0  0
   20.2444   -5.6852  -14.5061 N   0  0  0  0  0  0  0  0  0  0  0  0
   20.6212   -4.1823  -16.3739 C   0  0  0  0  0  0  0  0  0  0  0  0
   20.1742   -3.3081  -17.3526 O   0  0  0  0  0  0  0  0  0  0  0  0
   21.7604   -4.6856  -16.5133 O   0  0  0  0  0  0  0  0  0  0  0  0
  2  3  1  0
  2  1  1  1
  3  4  1  0
  5  6  2  0
  5  2  1  0
  7  8  1  0
  9  8  1  6
  9 10  1  0
 10  5  1  0
 11  9  1  0
 11 12  2  0
 13 14  1  0
 15 14  1  1
 15 16  1  0
 16 11  1  0
 17 15  1  0
 18 17  1  0
 19 17  2  0
M  END
$$$$
