CSS.pdb
     RDKit          3D

 19 18  0  0  1  0  0  0  0  0999 V2000
   15.0227   -7.2905   -7.4406 N   0  0  0  0  0  0  0  0  0  0  0  0
   14.9420   -8.2421   -8.5097 C   0  0  1  0  0  0  0  0  0  0  0  0
   13.5750   -8.1642   -9.1552 C   0  0  0  0  0  0  0  0  0  0  0  0
   12.4542   -9.4239   -8.5133 S   0  0  0  0  0  0  0  0  0  0  0  0
   15.9792   -7.9350   -9.5190 C   0  0  0  0  0  0  0  0  0  0  0  0
   16.3229   -6.7359   -9.7197 O   0  0  0  0  0  0  0  0  0  0  0  0
   16.8627  -10.6391  -12.5595 O   0  0  0  0  0  0  0  0  0  0  0  0
   17.9742   -9.9686  -12.0653 C   0  0  0  0  0  0  0  0  0  0  0  0
   17.5369   -8.6856  -11.3512 C   0  0  2  0  0  0  0  0  0  0  0  0
   16.6129   -8.9660  -10.2840 N   0  0  0  0  0  0  0  0  0  0  0  0
   17.0092   -7.6982  -12.3159 C   0  0  0  0  0  0  0  0  0  0  0  0
   15.7989   -7.7511  -12.6539 O   0  0  0  0  0  0  0  0  0  0  0  0
   16.1357   -3.7271  -14.2325 O   0  0  0  0  0  0  0  0  0  0  0  0
   16.5590   -4.6105  -13.2237 C   0  0  0  0  0  0  0  0  0  0  0  0
   17.2828   -5.7751  -13.9058 C   0  0  2  0  0  0  0  0  0  0  0  0
   17.7948   -6.6736  -12.8976 N   0  0  0  0  0  0  0  0  0  0  0  0
   18.3344   -5.1976  -14.7469 C   0  0  0  0  0  0  0  0  0  0  0  0
   18.0245   -4.4020  -15.8389 O   0  0  0  0  0  0  0  0  0  0  0  0
   19.5447   -5.4087  -14.4999 O   0  0  0  0  0  0  0  0  0  0  0  0
  2  3  1  0
  2  1  1  1
  3  4  1  0
  5  6  2  0
  5  2  1  0
  7  8  1  0
  9  8  1  6
  9 10  1  0
 10  5  1  0
 11  9  1  0
 11 12  2  0
 13 14  1  0
 15 14  1  1
 15 16  1  0
 16 11  1  0
 17 15  1  0
 18 17  1  0
 19 17  2  0
M  END
$$$$
