CSS.pdb
     RDKit          3D

 19 18  0  0  1  0  0  0  0  0999 V2000
   25.6410  -16.3121  -16.4454 N   0  0  0  0  0  0  0  0  0  0  0  0
   24.4277  -15.5661  -16.2823 C   0  0  1  0  0  0  0  0  0  0  0  0
   23.5291  -16.2710  -15.2888 C   0  0  0  0  0  0  0  0  0  0  0  0
   22.8731  -17.8154  -15.9517 S   0  0  0  0  0  0  0  0  0  0  0  0
   24.7484  -14.2123  -15.7790 C   0  0  0  0  0  0  0  0  0  0  0  0
   25.8980  -13.9728  -15.3131 O   0  0  0  0  0  0  0  0  0  0  0  0
   24.6874  -11.1022  -17.7390 O   0  0  0  0  0  0  0  0  0  0  0  0
   25.2116  -11.2654  -16.4631 C   0  0  0  0  0  0  0  0  0  0  0  0
   24.1269  -11.7853  -15.5141 C   0  0  2  0  0  0  0  0  0  0  0  0
   23.7855  -13.1531  -15.8039 N   0  0  0  0  0  0  0  0  0  0  0  0
   22.9497  -10.8920  -15.5181 C   0  0  0  0  0  0  0  0  0  0  0  0
   22.0822  -11.0179  -16.4200 O   0  0  0  0  0  0  0  0  0  0  0  0
   20.2269   -7.5750  -13.2767 O   0  0  0  0  0  0  0  0  0  0  0  0
   21.4069   -8.3380  -13.2250 C   0  0  0  0  0  0  0  0  0  0  0  0
   21.5931   -8.9910  -14.5977 C   0  0  2  0  0  0  0  0  0  0  0  0
   22.7297   -9.8809  -14.5513 N   0  0  0  0  0  0  0  0  0  0  0  0
   21.7509   -7.9095  -15.5733 C   0  0  0  0  0  0  0  0  0  0  0  0
   20.6550   -7.2068  -16.0498 O   0  0  0  0  0  0  0  0  0  0  0  0
   22.8839   -7.5908  -16.0035 O   0  0  0  0  0  0  0  0  0  0  0  0
  2  3  1  0
  2  1  1  1
  3  4  1  0
  5  6  2  0
  5  2  1  0
  7  8  1  0
  9  8  1  6
  9 10  1  0
 10  5  1  0
 11  9  1  0
 11 12  2  0
 13 14  1  0
 15 14  1  1
 15 16  1  0
 16 11  1  0
 17 15  1  0
 18 17  1  0
 19 17  2  0
M  END
$$$$
