CSS.pdb
     RDKit          3D

 19 18  0  0  1  0  0  0  0  0999 V2000
   20.3363  -20.2118  -13.4201 N   0  0  0  0  0  0  0  0  0  0  0  0
   21.2898  -21.2037  -13.0176 C   0  0  1  0  0  0  0  0  0  0  0  0
   21.3043  -22.3316  -14.0271 C   0  0  0  0  0  0  0  0  0  0  0  0
   19.6771  -23.0874  -14.2162 S   0  0  0  0  0  0  0  0  0  0  0  0
   22.6346  -20.5912  -12.9471 C   0  0  0  0  0  0  0  0  0  0  0  0
   22.8174  -19.4262  -13.4005 O   0  0  0  0  0  0  0  0  0  0  0  0
   25.4707  -21.3268  -10.0333 O   0  0  0  0  0  0  0  0  0  0  0  0
   25.9600  -21.4777  -11.3245 C   0  0  0  0  0  0  0  0  0  0  0  0
   25.0696  -20.7185  -12.3136 C   0  0  2  0  0  0  0  0  0  0  0  0
   23.7482  -21.2854  -12.3745 N   0  0  0  0  0  0  0  0  0  0  0  0
   25.7122  -20.6296  -13.6414 C   0  0  0  0  0  0  0  0  0  0  0  0
   25.4713  -21.5123  -14.5043 O   0  0  0  0  0  0  0  0  0  0  0  0
   28.6450  -18.2280  -16.6941 O   0  0  0  0  0  0  0  0  0  0  0  0
   28.0501  -18.2455  -15.4201 C   0  0  0  0  0  0  0  0  0  0  0  0
   27.2493  -19.5458  -15.3039 C   0  0  2  0  0  0  0  0  0  0  0  0
   26.6013  -19.5923  -14.0140 N   0  0  0  0  0  0  0  0  0  0  0  0
   28.1870  -20.6515  -15.5150 C   0  0  0  0  0  0  0  0  0  0  0  0
   28.5435  -21.0570  -16.7918 O   0  0  0  0  0  0  0  0  0  0  0  0
   28.6925  -21.2611  -14.5438 O   0  0  0  0  0  0  0  0  0  0  0  0
  2  3  1  0
  2  1  1  6
  3  4  1  0
  5  6  2  0
  5  2  1  0
  7  8  1  0
  9  8  1  1
  9 10  1  0
 10  5  1  0
 11  9  1  0
 11 12  2  0
 13 14  1  0
 15 14  1  1
 15 16  1  0
 16 11  1  0
 17 15  1  0
 18 17  1  0
 19 17  2  0
M  END
$$$$
