CSS.pdb
     RDKit          3D

 19 18  0  0  1  0  0  0  0  0999 V2000
   21.7568  -10.0660  -16.4431 N   0  0  0  0  0  0  0  0  0  0  0  0
   22.6656   -9.1174  -15.8691 C   0  0  1  0  0  0  0  0  0  0  0  0
   23.9679   -9.1325  -16.6406 C   0  0  0  0  0  0  0  0  0  0  0  0
   25.0260  -10.5088  -16.1494 S   0  0  0  0  0  0  0  0  0  0  0  0
   22.0706   -7.7647  -15.9376 C   0  0  0  0  0  0  0  0  0  0  0  0
   21.4196   -7.4174  -16.9633 O   0  0  0  0  0  0  0  0  0  0  0  0
   22.6096   -4.9978  -12.7781 O   0  0  0  0  0  0  0  0  0  0  0  0
   21.4389   -4.9210  -13.5217 C   0  0  0  0  0  0  0  0  0  0  0  0
   21.6710   -5.4933  -14.9239 C   0  0  2  0  0  0  0  0  0  0  0  0
   22.2110   -6.8260  -14.8657 N   0  0  0  0  0  0  0  0  0  0  0  0
   22.4997   -4.5787  -15.7367 C   0  0  0  0  0  0  0  0  0  0  0  0
   23.7477   -4.5729  -15.5804 O   0  0  0  0  0  0  0  0  0  0  0  0
   22.3717   -4.0150  -19.4741 O   0  0  0  0  0  0  0  0  0  0  0  0
   22.2524   -2.7310  -18.9134 C   0  0  0  0  0  0  0  0  0  0  0  0
   22.7970   -2.8008  -17.4837 C   0  0  2  0  0  0  0  0  0  0  0  0
   21.9687   -3.6885  -16.7015 N   0  0  0  0  0  0  0  0  0  0  0  0
   22.8217   -1.4316  -16.9630 C   0  0  0  0  0  0  0  0  0  0  0  0
   23.7344   -0.5006  -17.4340 O   0  0  0  0  0  0  0  0  0  0  0  0
   22.0159   -1.0657  -16.0757 O   0  0  0  0  0  0  0  0  0  0  0  0
  2  3  1  0
  2  1  1  6
  3  4  1  0
  5  6  2  0
  5  2  1  0
  7  8  1  0
  9  8  1  1
  9 10  1  0
 10  5  1  0
 11  9  1  0
 11 12  2  0
 13 14  1  0
 15 14  1  6
 15 16  1  0
 16 11  1  0
 17 15  1  0
 18 17  1  0
 19 17  2  0
M  END
$$$$
