CSS.pdb
     RDKit          3D

 19 18  0  0  1  0  0  0  0  0999 V2000
   19.0154  -12.0316  -15.1634 N   0  0  0  0  0  0  0  0  0  0  0  0
   19.6378  -11.3155  -16.2380 C   0  0  1  0  0  0  0  0  0  0  0  0
   18.5739  -10.6729  -17.1021 C   0  0  0  0  0  0  0  0  0  0  0  0
   17.3430  -11.8697  -17.6565 S   0  0  0  0  0  0  0  0  0  0  0  0
   20.5185  -10.2649  -15.6819 C   0  0  0  0  0  0  0  0  0  0  0  0
   20.1516   -9.6137  -14.6633 O   0  0  0  0  0  0  0  0  0  0  0  0
   24.6128  -10.3867  -15.4006 O   0  0  0  0  0  0  0  0  0  0  0  0
   24.1433   -9.2830  -16.1010 C   0  0  0  0  0  0  0  0  0  0  0  0
   22.6920   -8.9911  -15.7059 C   0  0  2  0  0  0  0  0  0  0  0  0
   21.7883   -9.9596  -16.2687 N   0  0  0  0  0  0  0  0  0  0  0  0
   22.3213   -7.6018  -16.0469 C   0  0  0  0  0  0  0  0  0  0  0  0
   21.9826   -7.3248  -17.2260 O   0  0  0  0  0  0  0  0  0  0  0  0
   20.1033   -5.2553  -14.0071 O   0  0  0  0  0  0  0  0  0  0  0  0
   21.2677   -4.5164  -14.2820 C   0  0  0  0  0  0  0  0  0  0  0  0
   21.9673   -5.1847  -15.4692 C   0  0  2  0  0  0  0  0  0  0  0  0
   22.3227   -6.5382  -15.1119 N   0  0  0  0  0  0  0  0  0  0  0  0
   23.1278   -4.3576  -15.8089 C   0  0  0  0  0  0  0  0  0  0  0  0
   22.9731   -3.0931  -16.3556 O   0  0  0  0  0  0  0  0  0  0  0  0
   24.2938   -4.7730  -15.6133 O   0  0  0  0  0  0  0  0  0  0  0  0
  2  3  1  0
  2  1  1  1
  3  4  1  0
  5  6  2  0
  5  2  1  0
  7  8  1  0
  9  8  1  6
  9 10  1  0
 10  5  1  0
 11  9  1  0
 11 12  2  0
 13 14  1  0
 15 14  1  1
 15 16  1  0
 16 11  1  0
 17 15  1  0
 18 17  1  0
 19 17  2  0
M  END
$$$$
