KDN.pdb
     RDKit          3D

 26 25  0  0  1  0  0  0  0  0999 V2000
   26.5654  -17.7040  -19.0645 N   0  0  0  0  0  0  0  0  0  0  0  0
   25.4532  -16.8000  -19.1868 C   0  0  1  0  0  0  0  0  0  0  0  0
   25.4830  -15.8940  -20.3642 C   0  0  0  0  0  0  0  0  0  0  0  0
   26.7790  -15.5785  -20.9825 C   0  0  0  0  0  0  0  0  0  0  0  0
   27.6334  -14.5540  -20.3306 C   0  0  0  0  0  0  0  0  0  0  0  0
   28.8355  -14.2864  -21.2109 C   0  0  0  0  0  0  0  0  0  0  0  0
   29.6956  -13.3501  -20.5103 N   0  0  0  0  0  0  0  0  0  0  0  0
   24.1323  -17.4479  -18.9825 C   0  0  0  0  0  0  0  0  0  0  0  0
   23.0867  -16.7413  -18.7693 O   0  0  0  0  0  0  0  0  0  0  0  0
   23.8943  -18.8468  -18.9983 N   0  0  0  0  0  0  0  0  0  0  0  0
   22.5614  -19.4006  -18.7594 C   0  0  1  0  0  0  0  0  0  0  0  0
   22.4150  -20.7174  -19.4268 C   0  0  0  0  0  0  0  0  0  0  0  0
   21.0707  -21.3300  -19.2858 C   0  0  0  0  0  0  0  0  0  0  0  0
   20.1270  -20.7247  -18.6814 O   0  0  0  0  0  0  0  0  0  0  0  0
   22.3166  -19.3915  -17.3243 C   0  0  0  0  0  0  0  0  0  0  0  0
   23.2218  -19.7330  -16.5254 O   0  0  0  0  0  0  0  0  0  0  0  0
   20.7376  -22.5801  -19.7861 O   0  0  0  0  0  0  0  0  0  0  0  0
   20.4457  -18.4021  -12.7071 N   0  0  0  0  0  0  0  0  0  0  0  0
   20.2060  -17.3226  -13.5927 C   0  0  0  0  0  0  0  0  0  0  0  0
   19.7578  -16.2428  -13.1477 O   0  0  0  0  0  0  0  0  0  0  0  0
   20.4914  -17.4977  -15.0216 C   0  0  0  0  0  0  0  0  0  0  0  0
   20.8581  -18.9331  -15.3104 C   0  0  2  0  0  0  0  0  0  0  0  0
   21.0764  -19.0076  -16.7463 N   0  0  0  0  0  0  0  0  0  0  0  0
   19.7753  -19.8092  -14.8652 C   0  0  0  0  0  0  0  0  0  0  0  0
   19.5037  -20.2131  -13.5880 O   0  0  0  0  0  0  0  0  0  0  0  0
   18.9860  -20.2550  -15.7698 O   0  0  0  0  0  0  0  0  0  0  0  0
  2  8  1  0
  2  1  1  6
  3  2  1  0
  4  3  1  0
  5  4  1  0
  6  5  1  0
  7  6  1  0
  8  9  2  0
 10 11  1  0
 10  8  1  0
 11 12  1  1
 12 13  1  0
 13 17  1  0
 14 13  2  0
 15 11  1  0
 16 15  2  0
 19 18  1  0
 19 21  1  0
 20 19  2  0
 22 21  1  6
 22 23  1  0
 23 15  1  0
 24 25  1  0
 24 22  1  0
 26 24  2  0
M  END
$$$$
