KDN.pdb
     RDKit          3D

 26 25  0  0  1  0  0  0  0  0999 V2000
   16.9613  -12.7452  -15.8959 N   0  0  0  0  0  0  0  0  0  0  0  0
   16.4716  -11.4073  -16.0944 C   0  0  1  0  0  0  0  0  0  0  0  0
   15.0789  -11.1548  -15.6423 C   0  0  0  0  0  0  0  0  0  0  0  0
   14.0091  -12.0478  -16.1112 C   0  0  0  0  0  0  0  0  0  0  0  0
   13.2229  -12.7905  -15.0939 C   0  0  0  0  0  0  0  0  0  0  0  0
   12.1662  -13.6150  -15.7977 C   0  0  0  0  0  0  0  0  0  0  0  0
   11.3794  -14.2862  -14.7790 N   0  0  0  0  0  0  0  0  0  0  0  0
   17.4250  -10.3528  -15.6637 C   0  0  0  0  0  0  0  0  0  0  0  0
   17.3369   -9.8325  -14.4977 O   0  0  0  0  0  0  0  0  0  0  0  0
   18.4821   -9.8312  -16.4538 N   0  0  0  0  0  0  0  0  0  0  0  0
   19.4048   -8.8233  -15.9312 C   0  0  1  0  0  0  0  0  0  0  0  0
   20.8074   -9.1785  -16.2589 C   0  0  0  0  0  0  0  0  0  0  0  0
   21.8099   -8.1682  -15.8386 C   0  0  0  0  0  0  0  0  0  0  0  0
   22.7260   -8.4528  -15.0007 O   0  0  0  0  0  0  0  0  0  0  0  0
   18.9611   -7.5170  -16.3960 C   0  0  0  0  0  0  0  0  0  0  0  0
   18.5099   -7.3784  -17.5586 O   0  0  0  0  0  0  0  0  0  0  0  0
   21.8328   -6.8636  -16.3093 O   0  0  0  0  0  0  0  0  0  0  0  0
   17.7260   -2.5772  -16.6835 N   0  0  0  0  0  0  0  0  0  0  0  0
   16.7621   -3.4923  -16.1931 C   0  0  0  0  0  0  0  0  0  0  0  0
   15.5632   -3.1450  -16.1090 O   0  0  0  0  0  0  0  0  0  0  0  0
   17.1958   -4.8358  -15.7922 C   0  0  0  0  0  0  0  0  0  0  0  0
   18.6626   -5.0245  -16.0938 C   0  0  2  0  0  0  0  0  0  0  0  0
   19.0060   -6.3457  -15.5925 N   0  0  0  0  0  0  0  0  0  0  0  0
   19.4316   -3.9644  -15.4434 C   0  0  0  0  0  0  0  0  0  0  0  0
   19.5026   -2.6477  -15.8028 O   0  0  0  0  0  0  0  0  0  0  0  0
   20.1222   -4.2997  -14.4183 O   0  0  0  0  0  0  0  0  0  0  0  0
  2  8  1  0
  2  1  1  1
  3  2  1  0
  4  3  1  0
  5  4  1  0
  6  5  1  0
  7  6  1  0
  8  9  2  0
 10 11  1  0
 10  8  1  0
 11 12  1  6
 12 13  1  0
 13 17  1  0
 14 13  2  0
 15 11  1  0
 16 15  2  0
 19 18  1  0
 19 21  1  0
 20 19  2  0
 22 21  1  1
 22 23  1  0
 23 15  1  0
 24 25  1  0
 24 22  1  0
 26 24  2  0
M  END
$$$$
