KDN.pdb
     RDKit          3D

 26 25  0  0  1  0  0  0  0  0999 V2000
   27.0933  -21.7914  -16.7144 N   0  0  0  0  0  0  0  0  0  0  0  0
   27.3584  -20.3839  -16.5815 C   0  0  1  0  0  0  0  0  0  0  0  0
   28.5718  -19.8859  -17.2799 C   0  0  0  0  0  0  0  0  0  0  0  0
   29.0956  -20.6498  -18.4216 C   0  0  0  0  0  0  0  0  0  0  0  0
   30.0375  -21.7635  -18.1441 C   0  0  0  0  0  0  0  0  0  0  0  0
   30.5458  -22.3145  -19.4593 C   0  0  0  0  0  0  0  0  0  0  0  0
   31.3908  -23.4568  -19.1619 N   0  0  0  0  0  0  0  0  0  0  0  0
   26.1648  -19.5282  -16.8036 C   0  0  0  0  0  0  0  0  0  0  0  0
   26.2535  -18.2539  -16.7240 O   0  0  0  0  0  0  0  0  0  0  0  0
   24.8628  -20.0014  -17.1109 N   0  0  0  0  0  0  0  0  0  0  0  0
   23.7434  -19.0835  -17.3226 C   0  0  1  0  0  0  0  0  0  0  0  0
   23.3653  -19.0420  -18.7565 C   0  0  0  0  0  0  0  0  0  0  0  0
   22.3135  -18.0477  -19.0846 C   0  0  0  0  0  0  0  0  0  0  0  0
   22.4434  -16.8192  -18.7744 O   0  0  0  0  0  0  0  0  0  0  0  0
   22.6772  -19.4474  -16.4006 C   0  0  0  0  0  0  0  0  0  0  0  0
   21.4848  -19.1621  -16.6673 O   0  0  0  0  0  0  0  0  0  0  0  0
   21.1317  -18.3639  -19.7384 O   0  0  0  0  0  0  0  0  0  0  0  0
   20.1457  -21.2998  -12.3377 N   0  0  0  0  0  0  0  0  0  0  0  0
   21.1751  -20.4118  -11.9393 C   0  0  0  0  0  0  0  0  0  0  0  0
   21.2318  -20.0202  -10.7525 O   0  0  0  0  0  0  0  0  0  0  0  0
   22.1580  -19.9691  -12.9353 C   0  0  0  0  0  0  0  0  0  0  0  0
   21.8301  -20.5505  -14.2890 C   0  0  2  0  0  0  0  0  0  0  0  0
   22.9041  -20.1292  -15.1745 N   0  0  0  0  0  0  0  0  0  0  0  0
   20.5236  -20.0589  -14.7244 C   0  0  0  0  0  0  0  0  0  0  0  0
   19.3786  -20.7839  -14.9012 O   0  0  0  0  0  0  0  0  0  0  0  0
   20.4329  -18.8057  -14.9719 O   0  0  0  0  0  0  0  0  0  0  0  0
  2  8  1  0
  2  1  1  6
  3  2  1  0
  4  3  1  0
  5  4  1  0
  6  5  1  0
  7  6  1  0
  8  9  2  0
 10 11  1  0
 10  8  1  0
 11 12  1  6
 12 13  1  0
 13 17  1  0
 14 13  2  0
 15 11  1  0
 16 15  2  0
 19 18  1  0
 19 21  1  0
 20 19  2  0
 22 21  1  1
 22 23  1  0
 23 15  1  0
 24 25  1  0
 24 22  1  0
 26 24  2  0
M  END
$$$$
