KDN.pdb
     RDKit          3D

 26 25  0  0  1  0  0  0  0  0999 V2000
   22.1081  -19.3982  -14.2019 N   0  0  0  0  0  0  0  0  0  0  0  0
   22.6796  -18.8020  -15.3796 C   0  0  1  0  0  0  0  0  0  0  0  0
   23.5796  -19.6767  -16.1753 C   0  0  0  0  0  0  0  0  0  0  0  0
   24.5246  -20.5522  -15.4667 C   0  0  0  0  0  0  0  0  0  0  0  0
   23.9747  -21.5405  -14.5047 C   0  0  0  0  0  0  0  0  0  0  0  0
   25.1038  -22.4139  -14.0006 C   0  0  0  0  0  0  0  0  0  0  0  0
   24.5264  -23.4239  -13.1324 N   0  0  0  0  0  0  0  0  0  0  0  0
   21.6954  -18.0653  -16.2132 C   0  0  0  0  0  0  0  0  0  0  0  0
   22.0463  -17.5475  -17.3299 O   0  0  0  0  0  0  0  0  0  0  0  0
   20.3304  -17.8624  -15.8828 N   0  0  0  0  0  0  0  0  0  0  0  0
   19.4449  -17.0687  -16.7350 C   0  0  1  0  0  0  0  0  0  0  0  0
   18.3667  -17.9158  -17.3012 C   0  0  0  0  0  0  0  0  0  0  0  0
   17.3812  -17.1799  -18.1317 C   0  0  0  0  0  0  0  0  0  0  0  0
   16.1594  -17.5364  -18.1814 O   0  0  0  0  0  0  0  0  0  0  0  0
   19.0009  -15.9099  -15.9738 C   0  0  0  0  0  0  0  0  0  0  0  0
   18.6812  -16.0301  -14.7664 O   0  0  0  0  0  0  0  0  0  0  0  0
   17.6989  -16.0721  -18.9035 O   0  0  0  0  0  0  0  0  0  0  0  0
   17.8807  -11.1422  -14.5204 N   0  0  0  0  0  0  0  0  0  0  0  0
   18.7980  -11.0450  -15.5956 C   0  0  0  0  0  0  0  0  0  0  0  0
   19.2560   -9.9274  -15.9213 O   0  0  0  0  0  0  0  0  0  0  0  0
   19.1923  -12.2666  -16.3071 C   0  0  0  0  0  0  0  0  0  0  0  0
   18.4327  -13.4546  -15.7689 C   0  0  2  0  0  0  0  0  0  0  0  0
   18.9019  -14.6042  -16.5260 N   0  0  0  0  0  0  0  0  0  0  0  0
   16.9975  -13.2274  -15.9329 C   0  0  0  0  0  0  0  0  0  0  0  0
   16.2212  -13.5539  -17.0094 O   0  0  0  0  0  0  0  0  0  0  0  0
   16.3899  -12.6561  -14.9611 O   0  0  0  0  0  0  0  0  0  0  0  0
  2  8  1  0
  2  1  1  1
  3  2  1  0
  4  3  1  0
  5  4  1  0
  6  5  1  0
  7  6  1  0
  8  9  2  0
 10 11  1  0
 10  8  1  0
 11 12  1  1
 12 13  1  0
 13 17  1  0
 14 13  2  0
 15 11  1  0
 16 15  2  0
 19 18  1  0
 19 21  1  0
 20 19  2  0
 22 21  1  6
 22 23  1  0
 23 15  1  0
 24 25  1  0
 24 22  1  0
 26 24  2  0
M  END
$$$$
