KDN.pdb
     RDKit          3D

 26 25  0  0  1  0  0  0  0  0999 V2000
   33.2352  -30.0124  -20.4811 N   0  0  0  0  0  0  0  0  0  0  0  0
   32.6477  -29.8350  -19.1802 C   0  0  1  0  0  0  0  0  0  0  0  0
   33.3068  -28.8318  -18.3044 C   0  0  0  0  0  0  0  0  0  0  0  0
   34.5427  -29.2076  -17.6023 C   0  0  0  0  0  0  0  0  0  0  0  0
   35.6876  -29.6925  -18.4139 C   0  0  0  0  0  0  0  0  0  0  0  0
   36.8474  -29.9993  -17.4907 C   0  0  0  0  0  0  0  0  0  0  0  0
   37.8989  -30.6029  -18.2889 N   0  0  0  0  0  0  0  0  0  0  0  0
   31.1683  -29.7044  -19.2063 C   0  0  0  0  0  0  0  0  0  0  0  0
   30.5870  -29.0752  -20.1573 O   0  0  0  0  0  0  0  0  0  0  0  0
   30.2815  -30.2323  -18.2323 N   0  0  0  0  0  0  0  0  0  0  0  0
   28.8336  -30.0486  -18.3337 C   0  0  1  0  0  0  0  0  0  0  0  0
   28.1278  -31.3384  -18.1360 C   0  0  0  0  0  0  0  0  0  0  0  0
   26.6474  -31.2360  -18.1535 C   0  0  0  0  0  0  0  0  0  0  0  0
   26.0069  -31.0820  -19.2436 O   0  0  0  0  0  0  0  0  0  0  0  0
   28.4478  -28.9747  -17.4297 C   0  0  0  0  0  0  0  0  0  0  0  0
   28.5584  -29.1216  -16.1885 O   0  0  0  0  0  0  0  0  0  0  0  0
   25.8575  -31.2971  -17.0149 O   0  0  0  0  0  0  0  0  0  0  0  0
   27.3058  -22.9568  -17.3622 N   0  0  0  0  0  0  0  0  0  0  0  0
   27.2544  -24.2715  -16.8372 C   0  0  0  0  0  0  0  0  0  0  0  0
   27.0123  -24.4454  -15.6222 O   0  0  0  0  0  0  0  0  0  0  0  0
   27.4882  -25.4069  -17.7374 C   0  0  0  0  0  0  0  0  0  0  0  0
   27.4343  -26.7046  -16.9686 C   0  0  2  0  0  0  0  0  0  0  0  0
   27.9360  -27.7257  -17.8744 N   0  0  0  0  0  0  0  0  0  0  0  0
   26.0580  -26.9615  -16.5466 C   0  0  0  0  0  0  0  0  0  0  0  0
   25.1524  -27.8030  -17.1296 O   0  0  0  0  0  0  0  0  0  0  0  0
   25.6446  -26.3285  -15.5130 O   0  0  0  0  0  0  0  0  0  0  0  0
  2  8  1  0
  2  1  1  6
  3  2  1  0
  4  3  1  0
  5  4  1  0
  6  5  1  0
  7  6  1  0
  8  9  2  0
 10 11  1  0
 10  8  1  0
 11 12  1  1
 12 13  1  0
 13 17  1  0
 14 13  2  0
 15 11  1  0
 16 15  2  0
 19 18  1  0
 19 21  1  0
 20 19  2  0
 22 21  1  6
 22 23  1  0
 23 15  1  0
 24 25  1  0
 24 22  1  0
 26 24  2  0
M  END
$$$$
