KDN.pdb
     RDKit          3D

 26 25  0  0  1  0  0  0  0  0999 V2000
   25.8903  -17.1133  -19.2607 N   0  0  0  0  0  0  0  0  0  0  0  0
   26.0504  -16.8140  -17.8628 C   0  0  1  0  0  0  0  0  0  0  0  0
   27.3195  -16.1383  -17.4876 C   0  0  0  0  0  0  0  0  0  0  0  0
   28.5811  -16.6345  -18.0563 C   0  0  0  0  0  0  0  0  0  0  0  0
   28.6699  -16.7895  -19.5304 C   0  0  0  0  0  0  0  0  0  0  0  0
   30.0667  -17.2484  -19.8914 C   0  0  0  0  0  0  0  0  0  0  0  0
   30.1020  -17.4674  -21.3260 N   0  0  0  0  0  0  0  0  0  0  0  0
   24.8523  -16.1900  -17.2451 C   0  0  0  0  0  0  0  0  0  0  0  0
   24.8463  -15.8816  -16.0029 O   0  0  0  0  0  0  0  0  0  0  0  0
   23.6451  -15.8835  -17.9251 N   0  0  0  0  0  0  0  0  0  0  0  0
   22.5201  -15.2461  -17.2408 C   0  0  1  0  0  0  0  0  0  0  0  0
   22.2352  -13.9152  -17.8310 C   0  0  0  0  0  0  0  0  0  0  0  0
   21.0924  -13.2009  -17.2094 C   0  0  0  0  0  0  0  0  0  0  0  0
   19.8932  -13.4242  -17.5760 O   0  0  0  0  0  0  0  0  0  0  0  0
   21.4052  -16.1822  -17.2311 C   0  0  0  0  0  0  0  0  0  0  0  0
   21.1889  -16.9195  -18.2230 O   0  0  0  0  0  0  0  0  0  0  0  0
   21.2301  -12.2547  -16.2045 O   0  0  0  0  0  0  0  0  0  0  0  0
   17.5533  -19.1849  -15.8216 N   0  0  0  0  0  0  0  0  0  0  0  0
   18.4530  -19.0309  -14.7382 C   0  0  0  0  0  0  0  0  0  0  0  0
   18.3772  -19.8002  -13.7547 O   0  0  0  0  0  0  0  0  0  0  0  0
   19.4601  -17.9648  -14.7956 C   0  0  0  0  0  0  0  0  0  0  0  0
   19.4008  -17.2596  -16.1287 C   0  0  2  0  0  0  0  0  0  0  0  0
   20.5130  -16.3225  -16.1338 N   0  0  0  0  0  0  0  0  0  0  0  0
   18.1079  -16.5905  -16.2663 C   0  0  0  0  0  0  0  0  0  0  0  0
   16.9224  -17.1443  -16.6613 O   0  0  0  0  0  0  0  0  0  0  0  0
   18.0732  -15.3410  -15.9876 O   0  0  0  0  0  0  0  0  0  0  0  0
  2  8  1  0
  2  1  1  6
  3  2  1  0
  4  3  1  0
  5  4  1  0
  6  5  1  0
  7  6  1  0
  8  9  2  0
 10 11  1  0
 10  8  1  0
 11 12  1  6
 12 13  1  0
 13 17  1  0
 14 13  2  0
 15 11  1  0
 16 15  2  0
 19 18  1  0
 19 21  1  0
 20 19  2  0
 22 21  1  1
 22 23  1  0
 23 15  1  0
 24 25  1  0
 24 22  1  0
 26 24  2  0
M  END
$$$$
