KDN.pdb
     RDKit          3D

 26 25  0  0  1  0  0  0  0  0999 V2000
   18.5530  -12.9814  -18.1958 N   0  0  0  0  0  0  0  0  0  0  0  0
   18.0809  -12.7727  -16.8531 C   0  0  1  0  0  0  0  0  0  0  0  0
   18.1005  -13.9662  -15.9682 C   0  0  0  0  0  0  0  0  0  0  0  0
   17.8623  -15.2908  -16.5602 C   0  0  0  0  0  0  0  0  0  0  0  0
   17.7036  -16.4477  -15.6430 C   0  0  0  0  0  0  0  0  0  0  0  0
   17.5200  -17.7043  -16.4670 C   0  0  0  0  0  0  0  0  0  0  0  0
   17.3387  -18.8125  -15.5470 N   0  0  0  0  0  0  0  0  0  0  0  0
   18.6392  -11.5577  -16.2064 C   0  0  0  0  0  0  0  0  0  0  0  0
   18.3693  -11.2883  -14.9846 O   0  0  0  0  0  0  0  0  0  0  0  0
   19.4870  -10.6099  -16.8362 N   0  0  0  0  0  0  0  0  0  0  0  0
   20.0455   -9.4739  -16.1027 C   0  0  1  0  0  0  0  0  0  0  0  0
   21.5240   -9.4506  -16.2217 C   0  0  0  0  0  0  0  0  0  0  0  0
   22.1705   -8.2680  -15.6005 C   0  0  0  0  0  0  0  0  0  0  0  0
   22.0065   -7.9950  -14.3673 O   0  0  0  0  0  0  0  0  0  0  0  0
   19.3594   -8.2677  -16.5427 C   0  0  0  0  0  0  0  0  0  0  0  0
   19.1372   -8.0750  -17.7625 O   0  0  0  0  0  0  0  0  0  0  0  0
   22.9852   -7.3836  -16.2919 O   0  0  0  0  0  0  0  0  0  0  0  0
   16.9151   -3.8201  -16.7799 N   0  0  0  0  0  0  0  0  0  0  0  0
   16.3831   -4.5800  -15.7092 C   0  0  0  0  0  0  0  0  0  0  0  0
   15.3555   -4.1825  -15.1168 O   0  0  0  0  0  0  0  0  0  0  0  0
   17.0549   -5.8246  -15.3173 C   0  0  0  0  0  0  0  0  0  0  0  0
   18.3324   -5.9996  -16.1016 C   0  0  2  0  0  0  0  0  0  0  0  0
   18.9076   -7.2572  -15.6514 N   0  0  0  0  0  0  0  0  0  0  0  0
   19.2154   -4.8615  -15.8504 C   0  0  0  0  0  0  0  0  0  0  0  0
   19.3090   -3.7055  -16.5737 O   0  0  0  0  0  0  0  0  0  0  0  0
   19.9953   -4.9496  -14.8384 O   0  0  0  0  0  0  0  0  0  0  0  0
  2  8  1  0
  2  1  1  6
  3  2  1  0
  4  3  1  0
  5  4  1  0
  6  5  1  0
  7  6  1  0
  8  9  2  0
 10 11  1  0
 10  8  1  0
 11 12  1  6
 12 13  1  0
 13 17  1  0
 14 13  2  0
 15 11  1  0
 16 15  2  0
 19 18  1  0
 19 21  1  0
 20 19  2  0
 22 21  1  1
 22 23  1  0
 23 15  1  0
 24 25  1  0
 24 22  1  0
 26 24  2  0
M  END
$$$$
