KDN.pdb
     RDKit          3D

 26 25  0  0  1  0  0  0  0  0999 V2000
   12.6904  -10.8106  -10.0689 N   0  0  0  0  0  0  0  0  0  0  0  0
   14.1224  -10.6753  -10.0832 C   0  0  1  0  0  0  0  0  0  0  0  0
   14.8561  -11.6569  -10.9237 C   0  0  0  0  0  0  0  0  0  0  0  0
   14.4137  -13.0590  -10.9247 C   0  0  0  0  0  0  0  0  0  0  0  0
   15.0709  -13.9983  -11.8683 C   0  0  0  0  0  0  0  0  0  0  0  0
   14.4274  -15.3616  -11.7301 C   0  0  0  0  0  0  0  0  0  0  0  0
   15.1512  -16.2803  -12.5899 N   0  0  0  0  0  0  0  0  0  0  0  0
   14.5880   -9.2782  -10.2770 C   0  0  0  0  0  0  0  0  0  0  0  0
   14.0170   -8.5142  -11.1305 O   0  0  0  0  0  0  0  0  0  0  0  0
   15.6605   -8.6671   -9.5770 N   0  0  0  0  0  0  0  0  0  0  0  0
   16.0366   -7.2735   -9.8154 C   0  0  1  0  0  0  0  0  0  0  0  0
   15.7755   -6.4481   -8.6107 C   0  0  0  0  0  0  0  0  0  0  0  0
   16.1294   -5.0147   -8.7611 C   0  0  0  0  0  0  0  0  0  0  0  0
   16.5297   -4.5447   -9.8752 O   0  0  0  0  0  0  0  0  0  0  0  0
   17.4058   -7.2509  -10.3094 C   0  0  0  0  0  0  0  0  0  0  0  0
   18.2721   -8.0079   -9.8087 O   0  0  0  0  0  0  0  0  0  0  0  0
   16.0568   -4.0909   -7.7290 O   0  0  0  0  0  0  0  0  0  0  0  0
   21.7736   -8.4447  -12.4238 N   0  0  0  0  0  0  0  0  0  0  0  0
   20.6357   -7.9978  -13.1397 C   0  0  0  0  0  0  0  0  0  0  0  0
   20.7362   -7.7237  -14.3561 O   0  0  0  0  0  0  0  0  0  0  0  0
   19.3565   -7.8660  -12.4323 C   0  0  0  0  0  0  0  0  0  0  0  0
   19.1822   -6.4558  -11.9237 C   0  0  2  0  0  0  0  0  0  0  0  0
   17.8432   -6.3983  -11.3590 N   0  0  0  0  0  0  0  0  0  0  0  0
   19.3614   -5.5158  -13.0294 C   0  0  0  0  0  0  0  0  0  0  0  0
   20.5102   -4.8732  -13.3971 O   0  0  0  0  0  0  0  0  0  0  0  0
   18.3276   -5.2584  -13.7400 O   0  0  0  0  0  0  0  0  0  0  0  0
  2  8  1  0
  2  1  1  6
  3  2  1  0
  4  3  1  0
  5  4  1  0
  6  5  1  0
  7  6  1  0
  8  9  2  0
 10 11  1  0
 10  8  1  0
 11 12  1  1
 12 13  1  0
 13 17  1  0
 14 13  2  0
 15 11  1  0
 16 15  2  0
 19 18  1  0
 19 21  1  0
 20 19  2  0
 22 21  1  6
 22 23  1  0
 23 15  1  0
 24 25  1  0
 24 22  1  0
 26 24  2  0
M  END
$$$$
