KDN.pdb
     RDKit          3D

 26 25  0  0  1  0  0  0  0  0999 V2000
   26.2633  -22.3243  -15.4689 N   0  0  0  0  0  0  0  0  0  0  0  0
   24.8368  -22.1824  -15.5874 C   0  0  1  0  0  0  0  0  0  0  0  0
   24.0258  -22.9935  -14.6427 C   0  0  0  0  0  0  0  0  0  0  0  0
   23.5850  -24.3333  -15.0575 C   0  0  0  0  0  0  0  0  0  0  0  0
   24.6059  -25.2715  -15.5888 C   0  0  0  0  0  0  0  0  0  0  0  0
   23.9298  -26.5761  -15.9530 C   0  0  0  0  0  0  0  0  0  0  0  0
   24.9353  -27.4465  -16.5350 N   0  0  0  0  0  0  0  0  0  0  0  0
   24.3833  -20.7712  -15.6828 C   0  0  0  0  0  0  0  0  0  0  0  0
   24.7193  -19.9177  -14.7901 O   0  0  0  0  0  0  0  0  0  0  0  0
   23.5699  -20.2398  -16.7170 N   0  0  0  0  0  0  0  0  0  0  0  0
   23.1724  -18.8319  -16.7331 C   0  0  1  0  0  0  0  0  0  0  0  0
   23.6772  -18.1600  -17.9556 C   0  0  0  0  0  0  0  0  0  0  0  0
   23.9874  -16.7194  -17.7796 C   0  0  0  0  0  0  0  0  0  0  0  0
   24.7577  -16.1044  -18.5862 O   0  0  0  0  0  0  0  0  0  0  0  0
   21.7329  -18.7642  -16.5263 C   0  0  0  0  0  0  0  0  0  0  0  0
   21.0106  -19.7607  -16.7704 O   0  0  0  0  0  0  0  0  0  0  0  0
   23.4789  -15.9422  -16.7493 O   0  0  0  0  0  0  0  0  0  0  0  0
   17.9687  -18.8414  -12.5940 N   0  0  0  0  0  0  0  0  0  0  0  0
   18.2444  -18.7314  -13.9792 C   0  0  0  0  0  0  0  0  0  0  0  0
   17.3079  -18.8018  -14.8057 O   0  0  0  0  0  0  0  0  0  0  0  0
   19.6321  -18.5361  -14.4152 C   0  0  0  0  0  0  0  0  0  0  0  0
   19.6817  -17.6081  -15.6045 C   0  0  2  0  0  0  0  0  0  0  0  0
   21.0664  -17.6033  -16.0489 N   0  0  0  0  0  0  0  0  0  0  0  0
   19.2208  -16.2799  -15.2028 C   0  0  0  0  0  0  0  0  0  0  0  0
   17.9404  -15.8021  -15.2233 O   0  0  0  0  0  0  0  0  0  0  0  0
   20.1132  -15.4629  -14.7829 O   0  0  0  0  0  0  0  0  0  0  0  0
  2  8  1  0
  2  1  1  1
  3  2  1  0
  4  3  1  0
  5  4  1  0
  6  5  1  0
  7  6  1  0
  8  9  2  0
 10 11  1  0
 10  8  1  0
 11 12  1  6
 12 13  1  0
 13 17  1  0
 14 13  2  0
 15 11  1  0
 16 15  2  0
 19 18  1  0
 19 21  1  0
 20 19  2  0
 22 21  1  1
 22 23  1  0
 23 15  1  0
 24 25  1  0
 24 22  1  0
 26 24  2  0
M  END
$$$$
