KDN.pdb
     RDKit          3D

 26 25  0  0  1  0  0  0  0  0999 V2000
   21.7842  -19.8612  -14.3815 N   0  0  0  0  0  0  0  0  0  0  0  0
   22.8987  -18.9539  -14.4422 C   0  0  1  0  0  0  0  0  0  0  0  0
   24.2454  -19.5810  -14.4069 C   0  0  0  0  0  0  0  0  0  0  0  0
   24.3680  -20.9698  -13.9402 C   0  0  0  0  0  0  0  0  0  0  0  0
   25.3794  -21.2691  -12.8951 C   0  0  0  0  0  0  0  0  0  0  0  0
   25.3852  -22.7598  -12.6317 C   0  0  0  0  0  0  0  0  0  0  0  0
   26.4036  -23.0272  -11.6324 N   0  0  0  0  0  0  0  0  0  0  0  0
   22.7662  -17.9155  -15.4959 C   0  0  0  0  0  0  0  0  0  0  0  0
   23.5220  -17.9358  -16.5286 O   0  0  0  0  0  0  0  0  0  0  0  0
   21.8384  -16.8419  -15.4766 N   0  0  0  0  0  0  0  0  0  0  0  0
   21.7601  -15.8763  -16.5729 C   0  0  1  0  0  0  0  0  0  0  0  0
   20.3654  -15.4053  -16.7562 C   0  0  0  0  0  0  0  0  0  0  0  0
   19.3558  -16.4909  -16.8253 C   0  0  0  0  0  0  0  0  0  0  0  0
   19.4988  -17.4790  -17.6162 O   0  0  0  0  0  0  0  0  0  0  0  0
   22.7496  -14.8357  -16.3328 C   0  0  0  0  0  0  0  0  0  0  0  0
   23.1425  -14.5927  -15.1663 O   0  0  0  0  0  0  0  0  0  0  0  0
   18.2021  -16.5201  -16.0558 O   0  0  0  0  0  0  0  0  0  0  0  0
   27.8193  -13.3513  -15.7011 N   0  0  0  0  0  0  0  0  0  0  0  0
   26.6198  -12.8488  -16.2630 C   0  0  0  0  0  0  0  0  0  0  0  0
   26.4959  -11.6204  -16.4642 O   0  0  0  0  0  0  0  0  0  0  0  0
   25.5429  -13.7880  -16.5980 C   0  0  0  0  0  0  0  0  0  0  0  0
   24.3435  -13.0417  -17.1292 C   0  0  2  0  0  0  0  0  0  0  0  0
   23.3214  -14.0482  -17.3685 N   0  0  0  0  0  0  0  0  0  0  0  0
   24.7180  -12.3271  -18.3488 C   0  0  0  0  0  0  0  0  0  0  0  0
   24.5532  -12.7425  -19.6404 O   0  0  0  0  0  0  0  0  0  0  0  0
   25.2653  -11.1790  -18.1988 O   0  0  0  0  0  0  0  0  0  0  0  0
  2  8  1  0
  2  1  1  6
  3  2  1  0
  4  3  1  0
  5  4  1  0
  6  5  1  0
  7  6  1  0
  8  9  2  0
 10 11  1  0
 10  8  1  0
 11 12  1  1
 12 13  1  0
 13 17  1  0
 14 13  2  0
 15 11  1  0
 16 15  2  0
 19 18  1  0
 19 21  1  0
 20 19  2  0
 22 21  1  6
 22 23  1  0
 23 15  1  0
 24 25  1  0
 24 22  1  0
 26 24  2  0
M  END
$$$$
