KDN.pdb
     RDKit          3D

 26 25  0  0  1  0  0  0  0  0999 V2000
   15.3438  -11.9363  -17.8695 N   0  0  0  0  0  0  0  0  0  0  0  0
   16.3068  -12.1550  -16.8236 C   0  0  1  0  0  0  0  0  0  0  0  0
   17.4465  -13.0434  -17.1697 C   0  0  0  0  0  0  0  0  0  0  0  0
   17.1727  -14.4479  -17.5071 C   0  0  0  0  0  0  0  0  0  0  0  0
   18.3286  -15.3657  -17.6694 C   0  0  0  0  0  0  0  0  0  0  0  0
   17.8147  -16.7384  -18.0479 C   0  0  0  0  0  0  0  0  0  0  0  0
   18.1388  -16.9608  -19.4453 N   0  0  0  0  0  0  0  0  0  0  0  0
   16.7267  -10.9108  -16.1293 C   0  0  0  0  0  0  0  0  0  0  0  0
   16.7989   -9.8028  -16.7658 O   0  0  0  0  0  0  0  0  0  0  0  0
   17.0774  -10.8161  -14.7575 N   0  0  0  0  0  0  0  0  0  0  0  0
   17.4198   -9.5347  -14.1403 C   0  0  1  0  0  0  0  0  0  0  0  0
   17.0478   -9.5301  -12.7042 C   0  0  0  0  0  0  0  0  0  0  0  0
   17.4381   -8.2986  -11.9737 C   0  0  0  0  0  0  0  0  0  0  0  0
   17.4324   -8.2535  -10.7009 O   0  0  0  0  0  0  0  0  0  0  0  0
   18.8180   -9.2507  -14.4294 C   0  0  0  0  0  0  0  0  0  0  0  0
   19.6891  -10.1412  -14.2792 O   0  0  0  0  0  0  0  0  0  0  0  0
   17.8307   -7.1241  -12.5987 O   0  0  0  0  0  0  0  0  0  0  0  0
   23.1689   -9.1965  -17.1578 N   0  0  0  0  0  0  0  0  0  0  0  0
   22.2847   -8.0998  -17.0081 C   0  0  0  0  0  0  0  0  0  0  0  0
   22.6862   -6.9410  -17.2552 O   0  0  0  0  0  0  0  0  0  0  0  0
   20.9088   -8.3506  -16.5635 C   0  0  0  0  0  0  0  0  0  0  0  0
   20.6715   -7.7197  -15.2130 C   0  0  2  0  0  0  0  0  0  0  0  0
   19.2796   -7.9869  -14.8871 N   0  0  0  0  0  0  0  0  0  0  0  0
   20.9612   -6.2884  -15.2888 C   0  0  0  0  0  0  0  0  0  0  0  0
   20.0724   -5.2539  -15.2007 O   0  0  0  0  0  0  0  0  0  0  0  0
   22.1865   -5.9568  -15.4583 O   0  0  0  0  0  0  0  0  0  0  0  0
  2  8  1  0
  2  1  1  6
  3  2  1  0
  4  3  1  0
  5  4  1  0
  6  5  1  0
  7  6  1  0
  8  9  2  0
 10 11  1  0
 10  8  1  0
 11 12  1  1
 12 13  1  0
 13 17  1  0
 14 13  2  0
 15 11  1  0
 16 15  2  0
 19 18  1  0
 19 21  1  0
 20 19  2  0
 22 21  1  6
 22 23  1  0
 23 15  1  0
 24 25  1  0
 24 22  1  0
 26 24  2  0
M  END
$$$$
