KDN.pdb
     RDKit          3D

 26 25  0  0  1  0  0  0  0  0999 V2000
   17.5610  -13.5610  -15.4855 N   0  0  0  0  0  0  0  0  0  0  0  0
   17.1391  -12.2470  -15.8910 C   0  0  1  0  0  0  0  0  0  0  0  0
   15.6918  -11.9532  -15.7264 C   0  0  0  0  0  0  0  0  0  0  0  0
   14.7101  -12.9235  -16.2328 C   0  0  0  0  0  0  0  0  0  0  0  0
   13.6979  -13.4531  -15.2843 C   0  0  0  0  0  0  0  0  0  0  0  0
   12.8021  -14.4284  -16.0180 C   0  0  0  0  0  0  0  0  0  0  0  0
   11.8540  -14.9642  -15.0583 N   0  0  0  0  0  0  0  0  0  0  0  0
   18.0161  -11.1577  -15.3905 C   0  0  0  0  0  0  0  0  0  0  0  0
   18.1290  -10.9379  -14.1347 O   0  0  0  0  0  0  0  0  0  0  0  0
   18.7844  -10.2848  -16.2039 N   0  0  0  0  0  0  0  0  0  0  0  0
   19.5822   -9.2027  -15.6269 C   0  0  1  0  0  0  0  0  0  0  0  0
   21.0261   -9.4213  -15.8880 C   0  0  0  0  0  0  0  0  0  0  0  0
   21.9128   -8.3540  -15.3614 C   0  0  0  0  0  0  0  0  0  0  0  0
   21.8138   -7.9437  -14.1597 O   0  0  0  0  0  0  0  0  0  0  0  0
   19.0413   -7.9371  -16.1012 C   0  0  0  0  0  0  0  0  0  0  0  0
   18.7314   -7.7937  -17.3085 O   0  0  0  0  0  0  0  0  0  0  0  0
   22.8970   -7.7296  -16.1133 O   0  0  0  0  0  0  0  0  0  0  0  0
   16.1334   -3.7553  -16.9682 N   0  0  0  0  0  0  0  0  0  0  0  0
   16.5164   -3.9765  -15.6224 C   0  0  0  0  0  0  0  0  0  0  0  0
   16.4275   -3.0460  -14.7910 O   0  0  0  0  0  0  0  0  0  0  0  0
   17.0122   -5.3017  -15.2323 C   0  0  0  0  0  0  0  0  0  0  0  0
   18.4116   -5.5126  -15.7566 C   0  0  2  0  0  0  0  0  0  0  0  0
   18.8326   -6.8123  -15.2580 N   0  0  0  0  0  0  0  0  0  0  0  0
   19.2740   -4.4294  -15.2864 C   0  0  0  0  0  0  0  0  0  0  0  0
   19.4190   -3.1847  -15.8323 O   0  0  0  0  0  0  0  0  0  0  0  0
   19.9793   -4.6656  -14.2439 O   0  0  0  0  0  0  0  0  0  0  0  0
  2  8  1  0
  2  1  1  1
  3  2  1  0
  4  3  1  0
  5  4  1  0
  6  5  1  0
  7  6  1  0
  8  9  2  0
 10 11  1  0
 10  8  1  0
 11 12  1  6
 12 13  1  0
 13 17  1  0
 14 13  2  0
 15 11  1  0
 16 15  2  0
 19 18  1  0
 19 21  1  0
 20 19  2  0
 22 21  1  1
 22 23  1  0
 23 15  1  0
 24 25  1  0
 24 22  1  0
 26 24  2  0
M  END
$$$$
