KDN.pdb
     RDKit          3D

 26 25  0  0  1  0  0  0  0  0999 V2000
   20.6593  -15.7896  -16.9620 N   0  0  0  0  0  0  0  0  0  0  0  0
   19.8239  -14.6317  -17.1366 C   0  0  1  0  0  0  0  0  0  0  0  0
   18.4440  -14.7427  -16.5965 C   0  0  0  0  0  0  0  0  0  0  0  0
   17.7668  -16.0467  -16.6464 C   0  0  0  0  0  0  0  0  0  0  0  0
   16.9488  -16.4544  -15.4762 C   0  0  0  0  0  0  0  0  0  0  0  0
   16.4064  -17.8468  -15.7188 C   0  0  0  0  0  0  0  0  0  0  0  0
   15.6119  -18.2185  -14.5622 N   0  0  0  0  0  0  0  0  0  0  0  0
   20.4908  -13.3546  -16.7751 C   0  0  0  0  0  0  0  0  0  0  0  0
   21.3265  -13.3080  -15.8068 O   0  0  0  0  0  0  0  0  0  0  0  0
   20.2867  -12.1104  -17.4261 N   0  0  0  0  0  0  0  0  0  0  0  0
   21.0681  -10.9242  -17.0757 C   0  0  1  0  0  0  0  0  0  0  0  0
   21.8557  -10.4538  -18.2415 C   0  0  0  0  0  0  0  0  0  0  0  0
   22.6323   -9.2131  -17.9963 C   0  0  0  0  0  0  0  0  0  0  0  0
   22.8293   -8.3611  -18.9223 O   0  0  0  0  0  0  0  0  0  0  0  0
   20.1665   -9.9438  -16.4881 C   0  0  0  0  0  0  0  0  0  0  0  0
   19.1045   -9.6275  -17.0768 O   0  0  0  0  0  0  0  0  0  0  0  0
   23.1946   -8.8858  -16.7713 O   0  0  0  0  0  0  0  0  0  0  0  0
   17.8098   -6.7062  -13.3587 N   0  0  0  0  0  0  0  0  0  0  0  0
   18.3988   -7.7419  -12.5922 C   0  0  0  0  0  0  0  0  0  0  0  0
   18.1651   -7.8155  -11.3655 O   0  0  0  0  0  0  0  0  0  0  0  0
   19.2756   -8.7109  -13.2601 C   0  0  0  0  0  0  0  0  0  0  0  0
   19.5349   -8.2872  -14.6853 C   0  0  2  0  0  0  0  0  0  0  0  0
   20.4170   -9.2976  -15.2474 N   0  0  0  0  0  0  0  0  0  0  0  0
   20.1374   -6.9548  -14.6931 C   0  0  0  0  0  0  0  0  0  0  0  0
   19.4991   -5.7524  -14.5718 O   0  0  0  0  0  0  0  0  0  0  0  0
   21.4095   -6.8986  -14.8298 O   0  0  0  0  0  0  0  0  0  0  0  0
  2  8  1  0
  2  1  1  1
  3  2  1  0
  4  3  1  0
  5  4  1  0
  6  5  1  0
  7  6  1  0
  8  9  2  0
 10 11  1  0
 10  8  1  0
 11 12  1  6
 12 13  1  0
 13 17  1  0
 14 13  2  0
 15 11  1  0
 16 15  2  0
 19 18  1  0
 19 21  1  0
 20 19  2  0
 22 21  1  1
 22 23  1  0
 23 15  1  0
 24 25  1  0
 24 22  1  0
 26 24  2  0
M  END
$$$$
