AHP.pdb
     RDKit          3D

 23 24  0  0  1  0  0  0  0  0999 V2000
   27.9152  -13.2783  -15.3377 C   0  0  0  0  0  0  0  0  0  0  0  0
   26.8538  -13.8480  -16.2328 C   0  0  2  0  0  0  0  0  0  0  0  0
   27.3151  -15.0420  -16.9180 N   0  0  0  0  0  0  0  0  0  0  0  0
   26.3396  -12.8478  -17.2152 C   0  0  0  0  0  0  0  0  0  0  0  0
   26.7174  -12.8265  -18.4147 O   0  0  0  0  0  0  0  0  0  0  0  0
   25.4069  -11.9022  -16.7899 N   0  0  0  0  0  0  0  0  0  0  0  0
   24.8246  -10.8807  -17.7170 C   0  0  1  0  0  0  0  0  0  0  0  0
   23.8960  -11.7815  -18.5504 C   0  0  0  0  0  0  0  0  0  0  0  0
   23.0435  -12.6795  -17.8184 C   0  0  0  0  0  0  0  0  0  0  0  0
   23.0581  -14.0556  -17.8779 C   0  0  0  0  0  0  0  0  0  0  0  0
   22.1064  -14.5849  -17.0669 N   0  0  0  0  0  0  0  0  0  0  0  0
   21.4859  -13.5407  -16.4911 C   0  0  0  0  0  0  0  0  0  0  0  0
   22.0396  -12.3991  -16.9345 N   0  0  0  0  0  0  0  0  0  0  0  0
   24.0832   -9.9552  -16.8435 C   0  0  0  0  0  0  0  0  0  0  0  0
   23.4697  -10.4807  -15.8374 O   0  0  0  0  0  0  0  0  0  0  0  0
   24.0090   -8.5508  -17.0325 N   0  0  0  0  0  0  0  0  0  0  0  0
   24.5508   -7.7972  -18.1212 C   0  0  0  0  0  0  0  0  0  0  0  0
   23.5118   -6.6938  -18.3026 C   0  0  0  0  0  0  0  0  0  0  0  0
   23.3642   -6.2608  -16.8376 C   0  0  0  0  0  0  0  0  0  0  0  0
   23.3779   -7.5821  -16.1459 C   0  0  1  0  0  0  0  0  0  0  0  0
   21.9935   -7.9422  -15.7795 C   0  0  0  0  0  0  0  0  0  0  0  0
   21.3663   -8.7251  -16.5271 O   0  0  0  0  0  0  0  0  0  0  0  0
   21.3733   -7.4489  -14.6503 O   0  0  0  0  0  0  0  0  0  0  0  0
  2  3  1  0
  2  1  1  6
  4  5  2  0
  4  2  1  0
  6  4  1  0
  7  6  1  0
  7 14  1  0
  7  8  1  6
  9  8  1  0
 10  9  2  0
 11 10  1  0
 12 11  1  0
 12 13  2  0
 13  9  1  0
 14 16  1  0
 15 14  2  0
 16 17  1  0
 16 20  1  0
 17 18  1  0
 19 18  1  0
 20 19  1  0
 20 21  1  6
 21 22  2  0
 21 23  1  0
M  END
$$$$
