AHP.pdb
     RDKit          3D

 23 24  0  0  1  0  0  0  0  0999 V2000
   17.2610  -15.0941  -14.8920 C   0  0  0  0  0  0  0  0  0  0  0  0
   16.2812  -14.1808  -15.5690 C   0  0  2  0  0  0  0  0  0  0  0  0
   15.3784  -14.9137  -16.4384 N   0  0  0  0  0  0  0  0  0  0  0  0
   16.9540  -13.0811  -16.3226 C   0  0  0  0  0  0  0  0  0  0  0  0
   17.3144  -13.2084  -17.5208 O   0  0  0  0  0  0  0  0  0  0  0  0
   17.1925  -11.8683  -15.6768 N   0  0  0  0  0  0  0  0  0  0  0  0
   17.8576  -10.7150  -16.3620 C   0  0  1  0  0  0  0  0  0  0  0  0
   16.6347   -9.8123  -16.6035 C   0  0  0  0  0  0  0  0  0  0  0  0
   16.9037   -8.4602  -17.0135 C   0  0  0  0  0  0  0  0  0  0  0  0
   16.6282   -7.3159  -16.2979 C   0  0  0  0  0  0  0  0  0  0  0  0
   16.9999   -6.2099  -16.9923 N   0  0  0  0  0  0  0  0  0  0  0  0
   17.5129   -6.6543  -18.1526 C   0  0  0  0  0  0  0  0  0  0  0  0
   17.4592   -7.9971  -18.1732 N   0  0  0  0  0  0  0  0  0  0  0  0
   18.7827  -10.1607  -15.3590 C   0  0  0  0  0  0  0  0  0  0  0  0
   18.3420  -10.0867  -14.1486 O   0  0  0  0  0  0  0  0  0  0  0  0
   20.1026   -9.7184  -15.6348 N   0  0  0  0  0  0  0  0  0  0  0  0
   20.8263   -9.8742  -16.8589 C   0  0  0  0  0  0  0  0  0  0  0  0
   21.6389   -8.5837  -16.9234 C   0  0  0  0  0  0  0  0  0  0  0  0
   22.1956   -8.5796  -15.4931 C   0  0  0  0  0  0  0  0  0  0  0  0
   21.0012   -9.0268  -14.7200 C   0  0  1  0  0  0  0  0  0  0  0  0
   20.3843   -7.8509  -14.0741 C   0  0  0  0  0  0  0  0  0  0  0  0
   19.4451   -7.2734  -14.6656 O   0  0  0  0  0  0  0  0  0  0  0  0
   20.8047   -7.3713  -12.8509 O   0  0  0  0  0  0  0  0  0  0  0  0
  2  3  1  0
  2  1  1  6
  4  5  2  0
  4  2  1  0
  6  4  1  0
  7  6  1  0
  7 14  1  0
  7  8  1  1
  9  8  1  0
 10  9  2  0
 11 10  1  0
 12 11  1  0
 12 13  2  0
 13  9  1  0
 14 16  1  0
 15 14  2  0
 16 17  1  0
 16 20  1  0
 17 18  1  0
 19 18  1  0
 20 19  1  0
 20 21  1  6
 21 22  2  0
 21 23  1  0
M  END
$$$$
