AHP.pdb
     RDKit          3D

 23 24  0  0  1  0  0  0  0  0999 V2000
   15.3802  -12.3245  -17.3821 C   0  0  0  0  0  0  0  0  0  0  0  0
   16.5426  -12.8218  -18.1909 C   0  0  2  0  0  0  0  0  0  0  0  0
   16.4179  -14.2362  -18.4943 N   0  0  0  0  0  0  0  0  0  0  0  0
   17.8546  -12.5420  -17.5349 C   0  0  0  0  0  0  0  0  0  0  0  0
   18.3747  -13.3318  -16.7058 O   0  0  0  0  0  0  0  0  0  0  0  0
   18.5294  -11.3633  -17.8515 N   0  0  0  0  0  0  0  0  0  0  0  0
   19.8463  -11.0059  -17.2350 C   0  0  1  0  0  0  0  0  0  0  0  0
   20.7607  -11.1562  -18.4638 C   0  0  0  0  0  0  0  0  0  0  0  0
   22.1394  -10.7853  -18.2893 C   0  0  0  0  0  0  0  0  0  0  0  0
   23.0985  -11.4940  -17.5999 C   0  0  0  0  0  0  0  0  0  0  0  0
   24.2903  -10.8438  -17.6229 N   0  0  0  0  0  0  0  0  0  0  0  0
   24.0863   -9.7186  -18.3294 C   0  0  0  0  0  0  0  0  0  0  0  0
   22.8043   -9.6760  -18.7310 N   0  0  0  0  0  0  0  0  0  0  0  0
   19.6966   -9.6046  -16.8072 C   0  0  0  0  0  0  0  0  0  0  0  0
   19.0639   -8.8212  -17.6138 O   0  0  0  0  0  0  0  0  0  0  0  0
   20.1890   -9.0760  -15.5858 N   0  0  0  0  0  0  0  0  0  0  0  0
   20.7298   -9.8107  -14.4838 C   0  0  0  0  0  0  0  0  0  0  0  0
   21.8175   -8.8718  -13.9687 C   0  0  0  0  0  0  0  0  0  0  0  0
   21.0083   -7.5684  -13.9265 C   0  0  0  0  0  0  0  0  0  0  0  0
   20.2306   -7.6732  -15.1947 C   0  0  1  0  0  0  0  0  0  0  0  0
   20.8562   -6.8028  -16.2104 C   0  0  0  0  0  0  0  0  0  0  0  0
   21.6582   -7.3181  -17.0207 O   0  0  0  0  0  0  0  0  0  0  0  0
   20.5889   -5.4521  -16.2953 O   0  0  0  0  0  0  0  0  0  0  0  0
  2  3  1  0
  2  1  1  1
  4  5  2  0
  4  2  1  0
  6  4  1  0
  7  6  1  0
  7 14  1  0
  7  8  1  6
  9  8  1  0
 10  9  2  0
 11 10  1  0
 12 11  1  0
 12 13  2  0
 13  9  1  0
 14 16  1  0
 15 14  2  0
 16 17  1  0
 16 20  1  0
 17 18  1  0
 19 18  1  0
 20 19  1  0
 20 21  1  6
 21 22  2  0
 21 23  1  0
M  END
$$$$
