AHP.pdb
     RDKit          3D

 23 24  0  0  1  0  0  0  0  0999 V2000
   25.9571  -25.6619  -16.1981 C   0  0  0  0  0  0  0  0  0  0  0  0
   26.1645  -24.4148  -17.0068 C   0  0  2  0  0  0  0  0  0  0  0  0
   27.3326  -24.5196  -17.8629 N   0  0  0  0  0  0  0  0  0  0  0  0
   26.2491  -23.1909  -16.1553 C   0  0  0  0  0  0  0  0  0  0  0  0
   27.3479  -22.6823  -15.8149 O   0  0  0  0  0  0  0  0  0  0  0  0
   25.0689  -22.5884  -15.7207 N   0  0  0  0  0  0  0  0  0  0  0  0
   25.0601  -21.2786  -14.9953 C   0  0  1  0  0  0  0  0  0  0  0  0
   24.1683  -20.4587  -15.9445 C   0  0  0  0  0  0  0  0  0  0  0  0
   24.8004  -19.9256  -17.1214 C   0  0  0  0  0  0  0  0  0  0  0  0
   25.6816  -18.8681  -17.1715 C   0  0  0  0  0  0  0  0  0  0  0  0
   26.0708  -18.6228  -18.4491 N   0  0  0  0  0  0  0  0  0  0  0  0
   25.4340  -19.5281  -19.2120 C   0  0  0  0  0  0  0  0  0  0  0  0
   24.6733  -20.3099  -18.4268 N   0  0  0  0  0  0  0  0  0  0  0  0
   24.4060  -21.5634  -13.7069 C   0  0  0  0  0  0  0  0  0  0  0  0
   23.2768  -22.1853  -13.7600 O   0  0  0  0  0  0  0  0  0  0  0  0
   24.9330  -21.2094  -12.4378 N   0  0  0  0  0  0  0  0  0  0  0  0
   26.2166  -20.6397  -12.1653 C   0  0  0  0  0  0  0  0  0  0  0  0
   25.9181  -19.7103  -10.9918 C   0  0  0  0  0  0  0  0  0  0  0  0
   25.1125  -20.6806  -10.1170 C   0  0  0  0  0  0  0  0  0  0  0  0
   24.2798  -21.3687  -11.1452 C   0  0  1  0  0  0  0  0  0  0  0  0
   22.9153  -20.8054  -11.1079 C   0  0  0  0  0  0  0  0  0  0  0  0
   22.6126  -19.9275  -11.9464 O   0  0  0  0  0  0  0  0  0  0  0  0
   21.9709  -21.2108  -10.1877 O   0  0  0  0  0  0  0  0  0  0  0  0
  2  3  1  0
  2  1  1  1
  4  5  2  0
  4  2  1  0
  6  4  1  0
  7  6  1  0
  7 14  1  0
  7  8  1  6
  9  8  1  0
 10  9  2  0
 11 10  1  0
 12 11  1  0
 12 13  2  0
 13  9  1  0
 14 16  1  0
 15 14  2  0
 16 17  1  0
 16 20  1  0
 17 18  1  0
 19 18  1  0
 20 19  1  0
 20 21  1  6
 21 22  2  0
 21 23  1  0
M  END
$$$$
