AHP.pdb
     RDKit          3D

 23 24  0  0  1  0  0  0  0  0999 V2000
   28.0976  -25.7159  -16.0565 C   0  0  0  0  0  0  0  0  0  0  0  0
   27.1262  -24.8527  -16.8072 C   0  0  2  0  0  0  0  0  0  0  0  0
   27.4719  -24.7557  -18.2140 N   0  0  0  0  0  0  0  0  0  0  0  0
   26.9917  -23.4917  -16.2074 C   0  0  0  0  0  0  0  0  0  0  0  0
   27.9118  -22.6362  -16.2662 O   0  0  0  0  0  0  0  0  0  0  0  0
   25.8042  -23.1548  -15.5583 N   0  0  0  0  0  0  0  0  0  0  0  0
   25.5436  -21.7770  -15.0330 C   0  0  1  0  0  0  0  0  0  0  0  0
   24.6815  -21.2180  -16.1788 C   0  0  0  0  0  0  0  0  0  0  0  0
   24.0836  -19.9276  -15.9637 C   0  0  0  0  0  0  0  0  0  0  0  0
   24.6869  -18.7031  -16.1481 C   0  0  0  0  0  0  0  0  0  0  0  0
   23.8358  -17.6924  -15.8352 N   0  0  0  0  0  0  0  0  0  0  0  0
   22.6885  -18.2781  -15.4509 C   0  0  0  0  0  0  0  0  0  0  0  0
   22.8282  -19.6129  -15.5248 N   0  0  0  0  0  0  0  0  0  0  0  0
   24.7753  -21.9833  -13.7935 C   0  0  0  0  0  0  0  0  0  0  0  0
   23.7477  -22.7592  -13.8759 O   0  0  0  0  0  0  0  0  0  0  0  0
   25.0925  -21.3989  -12.5399 N   0  0  0  0  0  0  0  0  0  0  0  0
   26.2731  -20.6636  -12.2051 C   0  0  0  0  0  0  0  0  0  0  0  0
   25.7388  -19.6140  -11.2342 C   0  0  0  0  0  0  0  0  0  0  0  0
   24.9090  -20.5300  -10.3242 C   0  0  0  0  0  0  0  0  0  0  0  0
   24.2862  -21.4414  -11.3272 C   0  0  1  0  0  0  0  0  0  0  0  0
   22.8857  -21.0261  -11.5431 C   0  0  0  0  0  0  0  0  0  0  0  0
   22.6138  -20.3676  -12.5716 O   0  0  0  0  0  0  0  0  0  0  0  0
   21.8753  -21.3368  -10.6567 O   0  0  0  0  0  0  0  0  0  0  0  0
  2  3  1  0
  2  1  1  1
  4  5  2  0
  4  2  1  0
  6  4  1  0
  7  6  1  0
  7 14  1  0
  7  8  1  6
  9  8  1  0
 10  9  2  0
 11 10  1  0
 12 11  1  0
 12 13  2  0
 13  9  1  0
 14 16  1  0
 15 14  2  0
 16 17  1  0
 16 20  1  0
 17 18  1  0
 19 18  1  0
 20 19  1  0
 20 21  1  6
 21 22  2  0
 21 23  1  0
M  END
$$$$
