AHP.pdb
     RDKit          3D

 23 24  0  0  1  0  0  0  0  0999 V2000
   22.9862  -17.7923  -16.2955 C   0  0  0  0  0  0  0  0  0  0  0  0
   23.2762  -19.2521  -16.4888 C   0  0  2  0  0  0  0  0  0  0  0  0
   22.3212  -19.8734  -17.3887 N   0  0  0  0  0  0  0  0  0  0  0  0
   23.3367  -19.9971  -15.1959 C   0  0  0  0  0  0  0  0  0  0  0  0
   22.3306  -20.1434  -14.4556 O   0  0  0  0  0  0  0  0  0  0  0  0
   24.5513  -20.5514  -14.7928 N   0  0  0  0  0  0  0  0  0  0  0  0
   24.6898  -21.3379  -13.5262 C   0  0  1  0  0  0  0  0  0  0  0  0
   25.1854  -22.6766  -14.1014 C   0  0  0  0  0  0  0  0  0  0  0  0
   24.1799  -23.6615  -14.3976 C   0  0  0  0  0  0  0  0  0  0  0  0
   22.8350  -23.5716  -14.1140 C   0  0  0  0  0  0  0  0  0  0  0  0
   22.1795  -24.6898  -14.5183 N   0  0  0  0  0  0  0  0  0  0  0  0
   23.1121  -25.4919  -15.0603 C   0  0  0  0  0  0  0  0  0  0  0  0
   24.3095  -24.8852  -14.9922 N   0  0  0  0  0  0  0  0  0  0  0  0
   25.7273  -20.6332  -12.7542 C   0  0  0  0  0  0  0  0  0  0  0  0
   26.7861  -20.2804  -13.4015 O   0  0  0  0  0  0  0  0  0  0  0  0
   25.6333  -20.3195  -11.3734 N   0  0  0  0  0  0  0  0  0  0  0  0
   24.4650  -20.3887  -10.5508 C   0  0  0  0  0  0  0  0  0  0  0  0
   25.0380  -20.8334   -9.2078 C   0  0  0  0  0  0  0  0  0  0  0  0
   26.2055  -19.8424   -9.1057 C   0  0  0  0  0  0  0  0  0  0  0  0
   26.7070  -19.8454  -10.5102 C   0  0  1  0  0  0  0  0  0  0  0  0
   27.9231  -20.6802  -10.5799 C   0  0  0  0  0  0  0  0  0  0  0  0
   27.8094  -21.8628  -10.9721 O   0  0  0  0  0  0  0  0  0  0  0  0
   29.1698  -20.2045  -10.2301 O   0  0  0  0  0  0  0  0  0  0  0  0
  2  3  1  0
  2  1  1  1
  4  5  2  0
  4  2  1  0
  6  4  1  0
  7  6  1  0
  7 14  1  0
  7  8  1  6
  9  8  1  0
 10  9  2  0
 11 10  1  0
 12 11  1  0
 12 13  2  0
 13  9  1  0
 14 16  1  0
 15 14  2  0
 16 17  1  0
 16 20  1  0
 17 18  1  0
 19 18  1  0
 20 19  1  0
 20 21  1  1
 21 22  2  0
 21 23  1  0
M  END
$$$$
