AHP.pdb
     RDKit          3D

 23 24  0  0  1  0  0  0  0  0999 V2000
   22.3279  -20.1267  -10.5815 C   0  0  0  0  0  0  0  0  0  0  0  0
   23.7532  -20.1492  -11.0510 C   0  0  2  0  0  0  0  0  0  0  0  0
   23.8729  -20.7404  -12.3717 N   0  0  0  0  0  0  0  0  0  0  0  0
   24.6603  -20.8390  -10.0858 C   0  0  0  0  0  0  0  0  0  0  0  0
   24.4284  -21.9973   -9.6540 O   0  0  0  0  0  0  0  0  0  0  0  0
   25.8064  -20.1772   -9.6460 N   0  0  0  0  0  0  0  0  0  0  0  0
   26.8937  -20.8773   -8.8913 C   0  0  1  0  0  0  0  0  0  0  0  0
   27.9885  -20.9041   -9.9726 C   0  0  0  0  0  0  0  0  0  0  0  0
   29.2932  -21.3443   -9.5567 C   0  0  0  0  0  0  0  0  0  0  0  0
   29.6496  -21.7803   -8.2997 C   0  0  0  0  0  0  0  0  0  0  0  0
   30.9677  -22.1036   -8.2555 N   0  0  0  0  0  0  0  0  0  0  0  0
   31.4489  -21.8717   -9.4890 C   0  0  0  0  0  0  0  0  0  0  0  0
   30.4553  -21.4180  -10.2722 N   0  0  0  0  0  0  0  0  0  0  0  0
   27.2213  -19.9748   -7.7744 C   0  0  0  0  0  0  0  0  0  0  0  0
   27.2421  -18.7127   -8.0416 O   0  0  0  0  0  0  0  0  0  0  0  0
   27.5030  -20.3984   -6.4497 N   0  0  0  0  0  0  0  0  0  0  0  0
   27.4394  -21.7332   -5.9390 C   0  0  0  0  0  0  0  0  0  0  0  0
   28.5902  -21.7535   -4.9364 C   0  0  0  0  0  0  0  0  0  0  0  0
   28.2847  -20.4450   -4.1948 C   0  0  0  0  0  0  0  0  0  0  0  0
   27.9005  -19.5562   -5.3292 C   0  0  1  0  0  0  0  0  0  0  0  0
   29.0362  -18.6662   -5.6427 C   0  0  0  0  0  0  0  0  0  0  0  0
   29.6719  -18.8656   -6.7017 O   0  0  0  0  0  0  0  0  0  0  0  0
   29.4173  -17.6308   -4.8145 O   0  0  0  0  0  0  0  0  0  0  0  0
  2  3  1  0
  2  1  1  1
  4  5  2  0
  4  2  1  0
  6  4  1  0
  7  6  1  0
  7 14  1  0
  7  8  1  6
  9  8  1  0
 10  9  2  0
 11 10  1  0
 12 11  1  0
 12 13  2  0
 13  9  1  0
 14 16  1  0
 15 14  2  0
 16 17  1  0
 16 20  1  0
 17 18  1  0
 19 18  1  0
 20 19  1  0
 20 21  1  6
 21 22  2  0
 21 23  1  0
M  END
$$$$
