AHP.pdb
     RDKit          3D

 23 24  0  0  1  0  0  0  0  0999 V2000
   24.0948  -10.2995  -19.5984 C   0  0  0  0  0  0  0  0  0  0  0  0
   23.3721  -10.9237  -18.4406 C   0  0  2  0  0  0  0  0  0  0  0  0
   22.9237  -12.2692  -18.7515 N   0  0  0  0  0  0  0  0  0  0  0  0
   22.2286  -10.0888  -17.9656 C   0  0  0  0  0  0  0  0  0  0  0  0
   21.1869   -9.9220  -18.6502 O   0  0  0  0  0  0  0  0  0  0  0  0
   22.3167   -9.4709  -16.7185 N   0  0  0  0  0  0  0  0  0  0  0  0
   21.2068   -8.6351  -16.1604 C   0  0  1  0  0  0  0  0  0  0  0  0
   20.7217   -9.5624  -15.0320 C   0  0  0  0  0  0  0  0  0  0  0  0
   19.6199  -10.4330  -15.3432 C   0  0  0  0  0  0  0  0  0  0  0  0
   18.8824  -10.4387  -16.5066 C   0  0  0  0  0  0  0  0  0  0  0  0
   17.9066  -11.3817  -16.4561 N   0  0  0  0  0  0  0  0  0  0  0  0
   18.0258  -11.9761  -15.2564 C   0  0  0  0  0  0  0  0  0  0  0  0
   19.0467  -11.4154  -14.5855 N   0  0  0  0  0  0  0  0  0  0  0  0
   21.8661   -7.4201  -15.6524 C   0  0  0  0  0  0  0  0  0  0  0  0
   22.8234   -7.5963  -14.8055 O   0  0  0  0  0  0  0  0  0  0  0  0
   21.5250   -6.0965  -16.0336 N   0  0  0  0  0  0  0  0  0  0  0  0
   20.6677   -5.7024  -17.1089 C   0  0  0  0  0  0  0  0  0  0  0  0
   19.9845   -4.4605  -16.5426 C   0  0  0  0  0  0  0  0  0  0  0  0
   21.2232   -3.7288  -16.0079 C   0  0  0  0  0  0  0  0  0  0  0  0
   21.9918   -4.8619  -15.4167 C   0  0  1  0  0  0  0  0  0  0  0  0
   21.8190   -4.8409  -13.9504 C   0  0  0  0  0  0  0  0  0  0  0  0
   22.3881   -3.9372  -13.2986 O   0  0  0  0  0  0  0  0  0  0  0  0
   21.0579   -5.7761  -13.2802 O   0  0  0  0  0  0  0  0  0  0  0  0
  2  3  1  0
  2  1  1  6
  4  5  2  0
  4  2  1  0
  6  4  1  0
  7  6  1  0
  7 14  1  0
  7  8  1  1
  9  8  1  0
 10  9  2  0
 11 10  1  0
 12 11  1  0
 12 13  2  0
 13  9  1  0
 14 16  1  0
 15 14  2  0
 16 17  1  0
 16 20  1  0
 17 18  1  0
 19 18  1  0
 20 19  1  0
 20 21  1  1
 21 22  2  0
 21 23  1  0
M  END
$$$$
