AHP.pdb
     RDKit          3D

 23 24  0  0  1  0  0  0  0  0999 V2000
   28.9477  -23.8180  -17.3728 C   0  0  0  0  0  0  0  0  0  0  0  0
   27.6148  -23.1857  -17.0971 C   0  0  2  0  0  0  0  0  0  0  0  0
   27.1117  -22.4698  -18.2557 N   0  0  0  0  0  0  0  0  0  0  0  0
   27.6450  -22.2904  -15.9023 C   0  0  0  0  0  0  0  0  0  0  0  0
   28.7006  -22.0644  -15.2569 O   0  0  0  0  0  0  0  0  0  0  0  0
   26.4616  -21.6817  -15.4852 N   0  0  0  0  0  0  0  0  0  0  0  0
   26.4365  -20.6277  -14.4220 C   0  0  1  0  0  0  0  0  0  0  0  0
   26.0008  -19.4155  -15.2643 C   0  0  0  0  0  0  0  0  0  0  0  0
   27.0245  -18.7713  -16.0426 C   0  0  0  0  0  0  0  0  0  0  0  0
   28.3853  -18.8830  -15.8610 C   0  0  0  0  0  0  0  0  0  0  0  0
   29.0578  -18.1257  -16.7654 N   0  0  0  0  0  0  0  0  0  0  0  0
   28.1201  -17.5315  -17.5233 C   0  0  0  0  0  0  0  0  0  0  0  0
   26.9030  -17.9118  -17.0982 N   0  0  0  0  0  0  0  0  0  0  0  0
   25.3947  -21.0666  -13.4780 C   0  0  0  0  0  0  0  0  0  0  0  0
   24.3171  -21.5522  -13.9954 O   0  0  0  0  0  0  0  0  0  0  0  0
   25.5033  -20.9956  -12.0649 N   0  0  0  0  0  0  0  0  0  0  0  0
   26.6708  -20.6703  -11.3049 C   0  0  0  0  0  0  0  0  0  0  0  0
   26.0864  -19.9012  -10.1231 C   0  0  0  0  0  0  0  0  0  0  0  0
   24.9545  -20.8664   -9.7455 C   0  0  0  0  0  0  0  0  0  0  0  0
   24.4492  -21.2562  -11.0935 C   0  0  1  0  0  0  0  0  0  0  0  0
   23.2046  -20.5110  -11.3694 C   0  0  0  0  0  0  0  0  0  0  0  0
   22.1371  -20.9342  -10.8727 O   0  0  0  0  0  0  0  0  0  0  0  0
   23.1790  -19.3738  -12.1498 O   0  0  0  0  0  0  0  0  0  0  0  0
  2  3  1  0
  2  1  1  6
  4  5  2  0
  4  2  1  0
  6  4  1  0
  7  6  1  0
  7 14  1  0
  7  8  1  6
  9  8  1  0
 10  9  2  0
 11 10  1  0
 12 11  1  0
 12 13  2  0
 13  9  1  0
 14 16  1  0
 15 14  2  0
 16 17  1  0
 16 20  1  0
 17 18  1  0
 19 18  1  0
 20 19  1  0
 20 21  1  6
 21 22  2  0
 21 23  1  0
M  END
$$$$
