AHP.pdb
     RDKit          3D

 23 24  0  0  1  0  0  0  0  0999 V2000
   16.8816  -12.1331  -15.5574 C   0  0  0  0  0  0  0  0  0  0  0  0
   16.8941  -10.6988  -15.1155 C   0  0  2  0  0  0  0  0  0  0  0  0
   15.9216   -9.9051  -15.8451 N   0  0  0  0  0  0  0  0  0  0  0  0
   18.2511  -10.0835  -15.2153 C   0  0  0  0  0  0  0  0  0  0  0  0
   19.2756  -10.6308  -14.7330 O   0  0  0  0  0  0  0  0  0  0  0  0
   18.3900   -8.8580  -15.8663 N   0  0  0  0  0  0  0  0  0  0  0  0
   19.7104   -8.1624  -15.9875 C   0  0  1  0  0  0  0  0  0  0  0  0
   19.8494   -8.1281  -17.5198 C   0  0  0  0  0  0  0  0  0  0  0  0
   20.4626   -9.2740  -18.1363 C   0  0  0  0  0  0  0  0  0  0  0  0
   19.8142  -10.3009  -18.7861 C   0  0  0  0  0  0  0  0  0  0  0  0
   20.7010  -11.2268  -19.2332 N   0  0  0  0  0  0  0  0  0  0  0  0
   21.9163  -10.7855  -18.8654 C   0  0  0  0  0  0  0  0  0  0  0  0
   21.7827   -9.6198  -18.2098 N   0  0  0  0  0  0  0  0  0  0  0  0
   19.4895   -6.8267  -15.4078 C   0  0  0  0  0  0  0  0  0  0  0  0
   18.3706   -6.2524  -15.6958 O   0  0  0  0  0  0  0  0  0  0  0  0
   20.4089   -6.1498  -14.5651 N   0  0  0  0  0  0  0  0  0  0  0  0
   21.6048   -6.6832  -13.9889 C   0  0  0  0  0  0  0  0  0  0  0  0
   22.5411   -5.4779  -14.0076 C   0  0  0  0  0  0  0  0  0  0  0  0
   21.5933   -4.4292  -13.4099 C   0  0  0  0  0  0  0  0  0  0  0  0
   20.3157   -4.7728  -14.0984 C   0  0  1  0  0  0  0  0  0  0  0  0
   20.0854   -3.8022  -15.1871 C   0  0  0  0  0  0  0  0  0  0  0  0
   20.3815   -4.1393  -16.3551 O   0  0  0  0  0  0  0  0  0  0  0  0
   19.5594   -2.5469  -14.9623 O   0  0  0  0  0  0  0  0  0  0  0  0
  2  3  1  0
  2  1  1  6
  4  5  2  0
  4  2  1  0
  6  4  1  0
  7  6  1  0
  7 14  1  0
  7  8  1  6
  9  8  1  0
 10  9  2  0
 11 10  1  0
 12 11  1  0
 12 13  2  0
 13  9  1  0
 14 16  1  0
 15 14  2  0
 16 17  1  0
 16 20  1  0
 17 18  1  0
 19 18  1  0
 20 19  1  0
 20 21  1  6
 21 22  2  0
 21 23  1  0
M  END
$$$$
