AHP.pdb
     RDKit          3D

 23 24  0  0  1  0  0  0  0  0999 V2000
   26.1534  -14.2966  -15.1226 C   0  0  0  0  0  0  0  0  0  0  0  0
   24.8688  -14.8878  -15.6253 C   0  0  2  0  0  0  0  0  0  0  0  0
   25.1024  -16.0824  -16.4166 N   0  0  0  0  0  0  0  0  0  0  0  0
   24.0511  -13.9032  -16.3948 C   0  0  0  0  0  0  0  0  0  0  0  0
   24.1328  -13.7912  -17.6448 O   0  0  0  0  0  0  0  0  0  0  0  0
   23.1643  -13.0771  -15.7048 N   0  0  0  0  0  0  0  0  0  0  0  0
   22.2890  -12.0835  -16.4039 C   0  0  1  0  0  0  0  0  0  0  0  0
   20.9443  -12.8296  -16.3429 C   0  0  0  0  0  0  0  0  0  0  0  0
   20.7124  -13.8221  -17.3578 C   0  0  0  0  0  0  0  0  0  0  0  0
   20.3323  -13.5893  -18.6611 C   0  0  0  0  0  0  0  0  0  0  0  0
   20.1877  -14.7569  -19.3388 N   0  0  0  0  0  0  0  0  0  0  0  0
   20.4770  -15.7339  -18.4620 C   0  0  0  0  0  0  0  0  0  0  0  0
   20.7914  -15.1841  -17.2765 N   0  0  0  0  0  0  0  0  0  0  0  0
   22.3134  -10.8871  -15.5453 C   0  0  0  0  0  0  0  0  0  0  0  0
   22.1375  -11.0817  -14.2821 O   0  0  0  0  0  0  0  0  0  0  0  0
   22.5205   -9.5627  -16.0112 N   0  0  0  0  0  0  0  0  0  0  0  0
   22.8546   -9.1590  -17.3423 C   0  0  0  0  0  0  0  0  0  0  0  0
   22.1062   -7.8358  -17.4789 C   0  0  0  0  0  0  0  0  0  0  0  0
   22.5358   -7.1804  -16.1592 C   0  0  0  0  0  0  0  0  0  0  0  0
   22.4514   -8.3389  -15.2237 C   0  0  1  0  0  0  0  0  0  0  0  0
   21.2094   -8.2233  -14.4333 C   0  0  0  0  0  0  0  0  0  0  0  0
   21.2166   -7.4884  -13.4208 O   0  0  0  0  0  0  0  0  0  0  0  0
   20.0512   -8.8925  -14.7705 O   0  0  0  0  0  0  0  0  0  0  0  0
  2  3  1  0
  2  1  1  6
  4  5  2  0
  4  2  1  0
  6  4  1  0
  7  6  1  0
  7 14  1  0
  7  8  1  1
  9  8  1  0
 10  9  2  0
 11 10  1  0
 12 11  1  0
 12 13  2  0
 13  9  1  0
 14 16  1  0
 15 14  2  0
 16 17  1  0
 16 20  1  0
 17 18  1  0
 19 18  1  0
 20 19  1  0
 20 21  1  6
 21 22  2  0
 21 23  1  0
M  END
$$$$
