AHP.pdb
     RDKit          3D

 23 24  0  0  1  0  0  0  0  0999 V2000
   40.4797  -11.4017  -20.2844 C   0  0  0  0  0  0  0  0  0  0  0  0
   39.2286  -11.9431  -19.6565 C   0  0  2  0  0  0  0  0  0  0  0  0
   38.5116  -10.9174  -18.9205 N   0  0  0  0  0  0  0  0  0  0  0  0
   39.4948  -13.1239  -18.7820 C   0  0  0  0  0  0  0  0  0  0  0  0
   39.9481  -13.0084  -17.6145 O   0  0  0  0  0  0  0  0  0  0  0  0
   39.2322  -14.4016  -19.2752 N   0  0  0  0  0  0  0  0  0  0  0  0
   39.4295  -15.6340  -18.4478 C   0  0  1  0  0  0  0  0  0  0  0  0
   37.9829  -16.1577  -18.4078 C   0  0  0  0  0  0  0  0  0  0  0  0
   37.7714  -17.4138  -17.7397 C   0  0  0  0  0  0  0  0  0  0  0  0
   38.6969  -18.1143  -16.9980 C   0  0  0  0  0  0  0  0  0  0  0  0
   38.1628  -19.2692  -16.5240 N   0  0  0  0  0  0  0  0  0  0  0  0
   36.8940  -19.3012  -16.9667 C   0  0  0  0  0  0  0  0  0  0  0  0
   36.6523  -18.1968  -17.6936 N   0  0  0  0  0  0  0  0  0  0  0  0
   40.3208  -16.4897  -19.2494 C   0  0  0  0  0  0  0  0  0  0  0  0
   39.9928  -16.6643  -20.4850 O   0  0  0  0  0  0  0  0  0  0  0  0
   41.4961  -17.1153  -18.7586 N   0  0  0  0  0  0  0  0  0  0  0  0
   42.0795  -16.9586  -17.4619 C   0  0  0  0  0  0  0  0  0  0  0  0
   42.6342  -18.3531  -17.1834 C   0  0  0  0  0  0  0  0  0  0  0  0
   43.3532  -18.5955  -18.5175 C   0  0  0  0  0  0  0  0  0  0  0  0
   42.3626  -18.0365  -19.4821 C   0  0  1  0  0  0  0  0  0  0  0  0
   41.6300  -19.1526  -20.1129 C   0  0  0  0  0  0  0  0  0  0  0  0
   40.4269  -19.3181  -19.8122 O   0  0  0  0  0  0  0  0  0  0  0  0
   42.2221  -20.0122  -21.0149 O   0  0  0  0  0  0  0  0  0  0  0  0
  2  3  1  0
  2  1  1  1
  4  5  2  0
  4  2  1  0
  6  4  1  0
  7  6  1  0
  7 14  1  0
  7  8  1  6
  9  8  1  0
 10  9  2  0
 11 10  1  0
 12 11  1  0
 12 13  2  0
 13  9  1  0
 14 16  1  0
 15 14  2  0
 16 17  1  0
 16 20  1  0
 17 18  1  0
 19 18  1  0
 20 19  1  0
 20 21  1  1
 21 22  2  0
 21 23  1  0
M  END
$$$$
