AHP.pdb
     RDKit          3D

 23 24  0  0  1  0  0  0  0  0999 V2000
   21.7968  -12.3718  -19.3012 C   0  0  0  0  0  0  0  0  0  0  0  0
   22.4121  -11.1341  -18.7165 C   0  0  2  0  0  0  0  0  0  0  0  0
   23.4733  -11.4551  -17.7790 N   0  0  0  0  0  0  0  0  0  0  0  0
   21.4000  -10.2431  -18.0747 C   0  0  0  0  0  0  0  0  0  0  0  0
   20.3820   -9.8302  -18.6869 O   0  0  0  0  0  0  0  0  0  0  0  0
   21.5882   -9.8535  -16.7489 N   0  0  0  0  0  0  0  0  0  0  0  0
   20.6252   -8.9562  -16.0351 C   0  0  1  0  0  0  0  0  0  0  0  0
   20.1204   -9.9234  -14.9496 C   0  0  0  0  0  0  0  0  0  0  0  0
   18.8492  -10.5525  -15.1888 C   0  0  0  0  0  0  0  0  0  0  0  0
   17.9816  -10.2812  -16.2237 C   0  0  0  0  0  0  0  0  0  0  0  0
   16.8661  -11.0501  -16.1339 N   0  0  0  0  0  0  0  0  0  0  0  0
   17.0269  -11.8118  -15.0381 C   0  0  0  0  0  0  0  0  0  0  0  0
   18.2086  -11.5208  -14.4679 N   0  0  0  0  0  0  0  0  0  0  0  0
   21.4549   -7.8703  -15.4861 C   0  0  0  0  0  0  0  0  0  0  0  0
   22.4902   -8.2262  -14.8033 O   0  0  0  0  0  0  0  0  0  0  0  0
   21.1949   -6.4865  -15.6634 N   0  0  0  0  0  0  0  0  0  0  0  0
   20.2108   -5.8964  -16.5176 C   0  0  0  0  0  0  0  0  0  0  0  0
   19.7716   -4.6754  -15.7137 C   0  0  0  0  0  0  0  0  0  0  0  0
   21.1547   -4.1212  -15.3455 C   0  0  0  0  0  0  0  0  0  0  0  0
   21.8898   -5.3780  -15.0224 C   0  0  1  0  0  0  0  0  0  0  0  0
   21.9770   -5.5148  -13.5547 C   0  0  0  0  0  0  0  0  0  0  0  0
   21.2180   -6.3327  -12.9888 O   0  0  0  0  0  0  0  0  0  0  0  0
   22.8595   -4.7776  -12.7926 O   0  0  0  0  0  0  0  0  0  0  0  0
  2  3  1  0
  2  1  1  1
  4  5  2  0
  4  2  1  0
  6  4  1  0
  7  6  1  0
  7 14  1  0
  7  8  1  1
  9  8  1  0
 10  9  2  0
 11 10  1  0
 12 11  1  0
 12 13  2  0
 13  9  1  0
 14 16  1  0
 15 14  2  0
 16 17  1  0
 16 20  1  0
 17 18  1  0
 19 18  1  0
 20 19  1  0
 20 21  1  1
 21 22  2  0
 21 23  1  0
M  END
$$$$
