QVM.pdb
     RDKit          3D

 25 24  0  0  1  0  0  0  0  0999 V2000
   16.6790  -23.8788  -15.5724 N   0  0  0  0  0  0  0  0  0  0  0  0
   16.9105  -22.4966  -15.3603 C   0  0  0  0  0  0  0  0  0  0  0  0
   15.9409  -21.7220  -15.0468 O   0  0  0  0  0  0  0  0  0  0  0  0
   18.2542  -21.9101  -15.4836 C   0  0  0  0  0  0  0  0  0  0  0  0
   18.7522  -21.2021  -14.2851 C   0  0  0  0  0  0  0  0  0  0  0  0
   20.1486  -21.4646  -13.8996 C   0  0  2  0  0  0  0  0  0  0  0  0
   20.6759  -22.4294  -14.9010 N   0  0  0  0  0  0  0  0  0  0  0  0
   20.4021  -21.9653  -12.5500 C   0  0  0  0  0  0  0  0  0  0  0  0
   20.4956  -23.2083  -12.3641 O   0  0  0  0  0  0  0  0  0  0  0  0
   20.7374  -19.4755   -9.0305 C   0  0  0  0  0  0  0  0  0  0  0  0
   21.5545  -20.7528   -9.1889 C   0  0  1  0  0  0  0  0  0  0  0  0
   21.7972  -21.3978   -7.8372 C   0  0  0  0  0  0  0  0  0  0  0  0
   20.8882  -21.7218  -10.1454 C   0  0  2  0  0  0  0  0  0  0  0  0
   20.5497  -21.1193  -11.4117 N   0  0  0  0  0  0  0  0  0  0  0  0
   19.6201  -22.1418   -9.4797 C   0  0  0  0  0  0  0  0  0  0  0  0
   18.6308  -21.3884   -9.6028 O   0  0  0  0  0  0  0  0  0  0  0  0
   15.6901  -26.3961  -12.2362 C   0  0  0  0  0  0  0  0  0  0  0  0
   16.5370  -26.4903  -10.6684 S   0  0  0  0  0  0  0  0  0  0  0  0
   17.0703  -24.9468   -9.9638 C   0  0  0  0  0  0  0  0  0  0  0  0
   17.7740  -25.0416   -8.6521 C   0  0  0  0  0  0  0  0  0  0  0  0
   18.2830  -23.7644   -8.0786 C   0  0  2  0  0  0  0  0  0  0  0  0
   19.5288  -23.3484   -8.7356 N   0  0  0  0  0  0  0  0  0  0  0  0
   18.6616  -23.9468   -6.6361 C   0  0  0  0  0  0  0  0  0  0  0  0
   17.6872  -23.9567   -5.6367 O   0  0  0  0  0  0  0  0  0  0  0  0
   19.8576  -24.0964   -6.2676 O   0  0  0  0  0  0  0  0  0  0  0  0
  1  2  1  0
  2  3  2  0
  4  5  1  0
  4  2  1  0
  5  6  1  0
  6  8  1  0
  6  7  1  6
  8  9  2  0
 11 10  1  1
 11 12  1  0
 11 13  1  0
 13 14  1  6
 14  8  1  0
 15 13  1  0
 15 16  2  0
 17 18  1  0
 19 20  1  0
 19 18  1  0
 21 20  1  6
 21 22  1  0
 21 23  1  0
 22 15  1  0
 23 25  2  0
 23 24  1  0
M  END
$$$$
