QVM.pdb
     RDKit          3D

 25 24  0  0  1  0  0  0  0  0999 V2000
   22.3872  -12.0977  -19.7146 N   0  0  0  0  0  0  0  0  0  0  0  0
   23.6266  -12.7854  -19.7246 C   0  0  0  0  0  0  0  0  0  0  0  0
   23.8415  -13.7130  -20.5800 O   0  0  0  0  0  0  0  0  0  0  0  0
   24.6992  -12.4594  -18.7716 C   0  0  0  0  0  0  0  0  0  0  0  0
   24.3900  -11.3797  -17.8101 C   0  0  0  0  0  0  0  0  0  0  0  0
   24.4109  -10.0050  -18.3366 C   0  0  2  0  0  0  0  0  0  0  0  0
   25.8447   -9.6640  -18.5355 N   0  0  0  0  0  0  0  0  0  0  0  0
   23.7598   -8.9611  -17.5474 C   0  0  0  0  0  0  0  0  0  0  0  0
   24.3570   -8.4885  -16.5433 O   0  0  0  0  0  0  0  0  0  0  0  0
   23.6090   -5.5806  -17.6227 C   0  0  0  0  0  0  0  0  0  0  0  0
   22.1439   -6.0012  -17.6485 C   0  0  1  0  0  0  0  0  0  0  0  0
   21.6060   -5.9617  -19.0666 C   0  0  0  0  0  0  0  0  0  0  0  0
   21.9494   -7.3705  -17.0279 C   0  0  2  0  0  0  0  0  0  0  0  0
   22.4676   -8.4385  -17.8476 N   0  0  0  0  0  0  0  0  0  0  0  0
   20.4733   -7.5553  -16.9068 C   0  0  0  0  0  0  0  0  0  0  0  0
   19.8464   -7.8601  -17.9440 O   0  0  0  0  0  0  0  0  0  0  0  0
   14.2894  -10.9692  -13.9597 C   0  0  0  0  0  0  0  0  0  0  0  0
   16.0370  -10.6307  -14.0840 S   0  0  0  0  0  0  0  0  0  0  0  0
   16.4896   -9.0350  -14.7260 C   0  0  0  0  0  0  0  0  0  0  0  0
   17.9488   -8.8127  -14.9410 C   0  0  0  0  0  0  0  0  0  0  0  0
   18.3380   -7.5133  -15.5569 C   0  0  2  0  0  0  0  0  0  0  0  0
   19.7977   -7.3960  -15.6675 N   0  0  0  0  0  0  0  0  0  0  0  0
   17.9349   -6.3676  -14.6724 C   0  0  0  0  0  0  0  0  0  0  0  0
   16.6770   -5.7756  -14.7977 O   0  0  0  0  0  0  0  0  0  0  0  0
   18.7018   -5.8954  -13.7907 O   0  0  0  0  0  0  0  0  0  0  0  0
  1  2  1  0
  2  3  2  0
  4  5  1  0
  4  2  1  0
  5  6  1  0
  6  8  1  0
  6  7  1  1
  8  9  2  0
 11 10  1  6
 11 12  1  0
 11 13  1  0
 13 14  1  6
 14  8  1  0
 15 13  1  0
 15 16  2  0
 17 18  1  0
 19 20  1  0
 19 18  1  0
 21 20  1  1
 21 22  1  0
 21 23  1  0
 22 15  1  0
 23 25  2  0
 23 24  1  0
M  END
$$$$
