QVM.pdb
     RDKit          3D

 25 24  0  0  1  0  0  0  0  0999 V2000
   27.6198  -22.7194  -15.7737 N   0  0  0  0  0  0  0  0  0  0  0  0
   28.7261  -22.1545  -16.4564 C   0  0  0  0  0  0  0  0  0  0  0  0
   29.4315  -22.8742  -17.2456 O   0  0  0  0  0  0  0  0  0  0  0  0
   29.0955  -20.7399  -16.2920 C   0  0  0  0  0  0  0  0  0  0  0  0
   28.2505  -19.9657  -15.3581 C   0  0  0  0  0  0  0  0  0  0  0  0
   26.8019  -20.2216  -15.4164 C   0  0  2  0  0  0  0  0  0  0  0  0
   26.3011  -19.4751  -16.6012 N   0  0  0  0  0  0  0  0  0  0  0  0
   26.0000  -19.8807  -14.2428 C   0  0  0  0  0  0  0  0  0  0  0  0
   25.7575  -18.6688  -13.9961 O   0  0  0  0  0  0  0  0  0  0  0  0
   22.4280  -20.3536  -11.1084 C   0  0  0  0  0  0  0  0  0  0  0  0
   23.2212  -20.8065  -12.3290 C   0  0  1  0  0  0  0  0  0  0  0  0
   22.5891  -20.2715  -13.6003 C   0  0  0  0  0  0  0  0  0  0  0  0
   24.6769  -20.3959  -12.2275 C   0  0  2  0  0  0  0  0  0  0  0  0
   25.4692  -20.8517  -13.3435 N   0  0  0  0  0  0  0  0  0  0  0  0
   25.1983  -21.0516  -10.9922 C   0  0  0  0  0  0  0  0  0  0  0  0
   25.1281  -22.2978  -10.9310 O   0  0  0  0  0  0  0  0  0  0  0  0
   29.6343  -18.4536   -6.6145 C   0  0  0  0  0  0  0  0  0  0  0  0
   28.5599  -19.4690   -5.6150 S   0  0  0  0  0  0  0  0  0  0  0  0
   27.3920  -20.4849   -6.4909 C   0  0  0  0  0  0  0  0  0  0  0  0
   27.0441  -20.0320   -7.8688 C   0  0  0  0  0  0  0  0  0  0  0  0
   26.1476  -20.9258   -8.6541 C   0  0  2  0  0  0  0  0  0  0  0  0
   25.7562  -20.3000   -9.9238 N   0  0  0  0  0  0  0  0  0  0  0  0
   24.8509  -21.1442   -7.9273 C   0  0  0  0  0  0  0  0  0  0  0  0
   24.6993  -22.2110   -7.0400 O   0  0  0  0  0  0  0  0  0  0  0  0
   23.8558  -20.3866   -8.0830 O   0  0  0  0  0  0  0  0  0  0  0  0
  1  2  1  0
  2  3  2  0
  4  5  1  0
  4  2  1  0
  5  6  1  0
  6  8  1  0
  6  7  1  6
  8  9  2  0
 11 10  1  1
 11 12  1  0
 11 13  1  0
 13 14  1  6
 14  8  1  0
 15 13  1  0
 15 16  2  0
 17 18  1  0
 19 20  1  0
 19 18  1  0
 21 20  1  1
 21 22  1  0
 21 23  1  0
 22 15  1  0
 23 25  2  0
 23 24  1  0
M  END
$$$$
