QVM.pdb
     RDKit          3D

 25 24  0  0  1  0  0  0  0  0999 V2000
   19.6428  -23.6713   -7.7773 N   0  0  0  0  0  0  0  0  0  0  0  0
   18.3218  -24.0629   -8.1096 C   0  0  0  0  0  0  0  0  0  0  0  0
   17.4162  -24.1058   -7.2060 O   0  0  0  0  0  0  0  0  0  0  0  0
   17.9453  -24.4225   -9.4858 C   0  0  0  0  0  0  0  0  0  0  0  0
   18.9978  -24.2271  -10.5054 C   0  0  0  0  0  0  0  0  0  0  0  0
   18.8593  -23.0474  -11.3752 C   0  0  2  0  0  0  0  0  0  0  0  0
   17.6486  -23.2892  -12.2043 N   0  0  0  0  0  0  0  0  0  0  0  0
   19.9867  -22.6981  -12.2374 C   0  0  0  0  0  0  0  0  0  0  0  0
   20.4257  -23.5548  -13.0509 O   0  0  0  0  0  0  0  0  0  0  0  0
   22.5169  -19.6833  -15.0161 C   0  0  0  0  0  0  0  0  0  0  0  0
   21.3208  -20.0713  -14.1541 C   0  0  1  0  0  0  0  0  0  0  0  0
   20.1493  -20.4809  -15.0268 C   0  0  0  0  0  0  0  0  0  0  0  0
   21.6791  -21.1674  -13.1701 C   0  0  2  0  0  0  0  0  0  0  0  0
   20.6327  -21.4272  -12.2117 N   0  0  0  0  0  0  0  0  0  0  0  0
   22.8740  -20.6703  -12.4264 C   0  0  0  0  0  0  0  0  0  0  0  0
   22.7435  -19.6139  -11.7717 O   0  0  0  0  0  0  0  0  0  0  0  0
   26.2460  -18.6396   -7.9187 C   0  0  0  0  0  0  0  0  0  0  0  0
   26.8125  -20.3054   -8.2161 S   0  0  0  0  0  0  0  0  0  0  0  0
   26.9027  -20.8181   -9.9168 C   0  0  0  0  0  0  0  0  0  0  0  0
   25.6153  -21.2521  -10.5323 C   0  0  0  0  0  0  0  0  0  0  0  0
   25.3465  -20.7712  -11.9164 C   0  0  2  0  0  0  0  0  0  0  0  0
   24.1139  -21.3629  -12.4525 N   0  0  0  0  0  0  0  0  0  0  0  0
   26.4246  -21.2338  -12.8551 C   0  0  0  0  0  0  0  0  0  0  0  0
   27.6500  -20.5686  -12.9202 O   0  0  0  0  0  0  0  0  0  0  0  0
   26.2745  -22.2278  -13.6154 O   0  0  0  0  0  0  0  0  0  0  0  0
  1  2  1  0
  2  3  2  0
  4  5  1  0
  4  2  1  0
  5  6  1  0
  6  8  1  0
  6  7  1  6
  8  9  2  0
 11 10  1  6
 11 12  1  0
 11 13  1  0
 13 14  1  1
 14  8  1  0
 15 13  1  0
 15 16  2  0
 17 18  1  0
 19 20  1  0
 19 18  1  0
 21 20  1  1
 21 22  1  0
 21 23  1  0
 22 15  1  0
 23 25  2  0
 23 24  1  0
M  END
$$$$
