QVM.pdb
     RDKit          3D

 25 24  0  0  1  0  0  0  0  0999 V2000
   28.5640  -23.4972  -16.2717 N   0  0  0  0  0  0  0  0  0  0  0  0
   29.1492  -22.8035  -17.3604 C   0  0  0  0  0  0  0  0  0  0  0  0
   29.2419  -23.3652  -18.5068 O   0  0  0  0  0  0  0  0  0  0  0  0
   29.6579  -21.4303  -17.2182 C   0  0  0  0  0  0  0  0  0  0  0  0
   28.9007  -20.5638  -16.2900 C   0  0  0  0  0  0  0  0  0  0  0  0
   27.5177  -20.2382  -16.6755 C   0  0  2  0  0  0  0  0  0  0  0  0
   27.6210  -19.1987  -17.7341 N   0  0  0  0  0  0  0  0  0  0  0  0
   26.6045  -19.7866  -15.6273 C   0  0  0  0  0  0  0  0  0  0  0  0
   26.6816  -18.5976  -15.2166 O   0  0  0  0  0  0  0  0  0  0  0  0
   22.4312  -19.8823  -13.0929 C   0  0  0  0  0  0  0  0  0  0  0  0
   23.2893  -20.2957  -14.2833 C   0  0  1  0  0  0  0  0  0  0  0  0
   22.8414  -19.5686  -15.5374 C   0  0  0  0  0  0  0  0  0  0  0  0
   24.7623  -20.0620  -14.0124 C   0  0  2  0  0  0  0  0  0  0  0  0
   25.6175  -20.6240  -15.0292 N   0  0  0  0  0  0  0  0  0  0  0  0
   25.0540  -20.7599  -12.7257 C   0  0  0  0  0  0  0  0  0  0  0  0
   25.0212  -22.0091  -12.7304 O   0  0  0  0  0  0  0  0  0  0  0  0
   29.3742  -19.7394   -7.0446 C   0  0  0  0  0  0  0  0  0  0  0  0
   27.6227  -19.4345   -6.8918 S   0  0  0  0  0  0  0  0  0  0  0  0
   26.5581  -20.3952   -7.9439 C   0  0  0  0  0  0  0  0  0  0  0  0
   26.4394  -19.9208   -9.3530 C   0  0  0  0  0  0  0  0  0  0  0  0
   25.5611  -20.7218  -10.2508 C   0  0  2  0  0  0  0  0  0  0  0  0
   25.3600  -20.0436  -11.5378 N   0  0  0  0  0  0  0  0  0  0  0  0
   24.1807  -20.8420   -9.6697 C   0  0  0  0  0  0  0  0  0  0  0  0
   23.8672  -21.8688   -8.7776 O   0  0  0  0  0  0  0  0  0  0  0  0
   23.2566  -20.0344   -9.9567 O   0  0  0  0  0  0  0  0  0  0  0  0
  1  2  1  0
  2  3  2  0
  4  5  1  0
  4  2  1  0
  5  6  1  0
  6  8  1  0
  6  7  1  6
  8  9  2  0
 11 10  1  1
 11 12  1  0
 11 13  1  0
 13 14  1  6
 14  8  1  0
 15 13  1  0
 15 16  2  0
 17 18  1  0
 19 20  1  0
 19 18  1  0
 21 20  1  1
 21 22  1  0
 21 23  1  0
 22 15  1  0
 23 25  2  0
 23 24  1  0
M  END
$$$$
