QVM.pdb
     RDKit          3D

 25 24  0  0  1  0  0  0  0  0999 V2000
   27.3661  -21.4220  -19.0418 N   0  0  0  0  0  0  0  0  0  0  0  0
   28.2349  -20.3814  -18.6278 C   0  0  0  0  0  0  0  0  0  0  0  0
   29.1285  -19.9325  -19.4268 O   0  0  0  0  0  0  0  0  0  0  0  0
   28.1395  -19.7821  -17.2875 C   0  0  0  0  0  0  0  0  0  0  0  0
   27.0541  -20.3064  -16.4315 C   0  0  0  0  0  0  0  0  0  0  0  0
   27.4660  -21.0308  -15.2179 C   0  0  2  0  0  0  0  0  0  0  0  0
   28.1215  -22.2800  -15.6886 N   0  0  0  0  0  0  0  0  0  0  0  0
   26.4358  -21.3546  -14.2328 C   0  0  0  0  0  0  0  0  0  0  0  0
   25.6948  -22.3556  -14.4261 O   0  0  0  0  0  0  0  0  0  0  0  0
   24.2723  -20.9677   -9.7954 C   0  0  0  0  0  0  0  0  0  0  0  0
   25.4297  -20.5805  -10.7092 C   0  0  1  0  0  0  0  0  0  0  0  0
   26.7343  -21.1469  -10.1809 C   0  0  0  0  0  0  0  0  0  0  0  0
   25.1800  -21.0230  -12.1374 C   0  0  2  0  0  0  0  0  0  0  0  0
   26.2125  -20.5927  -13.0484 N   0  0  0  0  0  0  0  0  0  0  0  0
   23.9014  -20.3707  -12.5467 C   0  0  0  0  0  0  0  0  0  0  0  0
   23.8834  -19.1220  -12.5923 O   0  0  0  0  0  0  0  0  0  0  0  0
   20.8955  -22.3667  -17.4036 C   0  0  0  0  0  0  0  0  0  0  0  0
   21.7404  -20.7997  -17.2820 S   0  0  0  0  0  0  0  0  0  0  0  0
   21.8986  -20.1113  -15.6496 C   0  0  0  0  0  0  0  0  0  0  0  0
   21.0567  -20.7456  -14.5942 C   0  0  0  0  0  0  0  0  0  0  0  0
   21.4592  -20.4906  -13.1827 C   0  0  2  0  0  0  0  0  0  0  0  0
   22.7459  -21.1285  -12.8756 N   0  0  0  0  0  0  0  0  0  0  0  0
   20.4866  -21.1298  -12.2324 C   0  0  0  0  0  0  0  0  0  0  0  0
   19.3302  -20.4576  -11.8331 O   0  0  0  0  0  0  0  0  0  0  0  0
   20.6673  -22.2838  -11.7590 O   0  0  0  0  0  0  0  0  0  0  0  0
  1  2  1  0
  2  3  2  0
  4  5  1  0
  4  2  1  0
  5  6  1  0
  6  8  1  0
  6  7  1  6
  8  9  2  0
 11 10  1  1
 11 12  1  0
 11 13  1  0
 13 14  1  6
 14  8  1  0
 15 13  1  0
 15 16  2  0
 17 18  1  0
 19 20  1  0
 19 18  1  0
 21 20  1  6
 21 22  1  0
 21 23  1  0
 22 15  1  0
 23 25  2  0
 23 24  1  0
M  END
$$$$
