QVM.pdb
     RDKit          3D

 25 24  0  0  1  0  0  0  0  0999 V2000
   13.8426  -10.8078  -15.2081 N   0  0  0  0  0  0  0  0  0  0  0  0
   14.1073  -11.1564  -16.5562 C   0  0  0  0  0  0  0  0  0  0  0  0
   13.1545  -11.5350  -17.3225 O   0  0  0  0  0  0  0  0  0  0  0  0
   15.4651  -11.0907  -17.1193 C   0  0  0  0  0  0  0  0  0  0  0  0
   16.5062  -10.5652  -16.2107 C   0  0  0  0  0  0  0  0  0  0  0  0
   17.7680  -11.3213  -16.1501 C   0  0  2  0  0  0  0  0  0  0  0  0
   17.4383  -12.6176  -15.5000 N   0  0  0  0  0  0  0  0  0  0  0  0
   18.9035  -10.7020  -15.4692 C   0  0  0  0  0  0  0  0  0  0  0  0
   18.8877  -10.6060  -14.2127 O   0  0  0  0  0  0  0  0  0  0  0  0
   23.6171   -9.7248  -14.9199 C   0  0  0  0  0  0  0  0  0  0  0  0
   22.4659  -10.3466  -15.7025 C   0  0  1  0  0  0  0  0  0  0  0  0
   22.4037  -11.8422  -15.4551 C   0  0  0  0  0  0  0  0  0  0  0  0
   21.1454   -9.6816  -15.3679 C   0  0  2  0  0  0  0  0  0  0  0  0
   20.0456  -10.1887  -16.1515 N   0  0  0  0  0  0  0  0  0  0  0  0
   21.3226   -8.2374  -15.7004 C   0  0  0  0  0  0  0  0  0  0  0  0
   21.3286   -7.9238  -16.9100 O   0  0  0  0  0  0  0  0  0  0  0  0
   18.7974   -1.2122  -16.2402 C   0  0  0  0  0  0  0  0  0  0  0  0
   18.7846   -2.9622  -15.8916 S   0  0  0  0  0  0  0  0  0  0  0  0
   20.3629   -3.7154  -15.5675 C   0  0  0  0  0  0  0  0  0  0  0  0
   20.3442   -5.1903  -15.3456 C   0  0  0  0  0  0  0  0  0  0  0  0
   21.6492   -5.8278  -15.0144 C   0  0  2  0  0  0  0  0  0  0  0  0
   21.4768   -7.2499  -14.6910 N   0  0  0  0  0  0  0  0  0  0  0  0
   22.2292   -5.2261  -13.7658 C   0  0  0  0  0  0  0  0  0  0  0  0
   22.8844   -3.9941  -13.8032 O   0  0  0  0  0  0  0  0  0  0  0  0
   22.1526   -5.7971  -12.6447 O   0  0  0  0  0  0  0  0  0  0  0  0
  1  2  1  0
  2  3  2  0
  4  5  1  0
  4  2  1  0
  5  6  1  0
  6  8  1  0
  6  7  1  1
  8  9  2  0
 11 10  1  1
 11 12  1  0
 11 13  1  0
 13 14  1  6
 14  8  1  0
 15 13  1  0
 15 16  2  0
 17 18  1  0
 19 20  1  0
 19 18  1  0
 21 20  1  1
 21 22  1  0
 21 23  1  0
 22 15  1  0
 23 25  2  0
 23 24  1  0
M  END
$$$$
