QVM.pdb
     RDKit          3D

 25 24  0  0  1  0  0  0  0  0999 V2000
   20.1915  -11.0726  -20.9797 N   0  0  0  0  0  0  0  0  0  0  0  0
   19.2379  -12.0272  -20.5454 C   0  0  0  0  0  0  0  0  0  0  0  0
   18.5448  -12.6802  -21.4007 O   0  0  0  0  0  0  0  0  0  0  0  0
   19.0171  -12.3045  -19.1174 C   0  0  0  0  0  0  0  0  0  0  0  0
   19.7676  -11.4440  -18.1783 C   0  0  0  0  0  0  0  0  0  0  0  0
   20.9166  -12.0618  -17.4960 C   0  0  2  0  0  0  0  0  0  0  0  0
   20.3630  -13.1895  -16.7001 N   0  0  0  0  0  0  0  0  0  0  0  0
   21.7411  -11.2109  -16.6399 C   0  0  0  0  0  0  0  0  0  0  0  0
   21.3546  -10.9630  -15.4663 O   0  0  0  0  0  0  0  0  0  0  0  0
   25.9937   -9.2269  -15.2156 C   0  0  0  0  0  0  0  0  0  0  0  0
   25.2216  -10.1216  -16.1787 C   0  0  1  0  0  0  0  0  0  0  0  0
   25.5312  -11.5822  -15.9089 C   0  0  0  0  0  0  0  0  0  0  0  0
   23.7308   -9.8565  -16.1072 C   0  0  2  0  0  0  0  0  0  0  0  0
   22.9749  -10.6325  -17.0597 N   0  0  0  0  0  0  0  0  0  0  0  0
   23.5586   -8.4132  -16.4464 C   0  0  0  0  0  0  0  0  0  0  0  0
   23.8617   -8.0562  -17.6050 O   0  0  0  0  0  0  0  0  0  0  0  0
   19.4423   -2.4825  -18.3166 C   0  0  0  0  0  0  0  0  0  0  0  0
   19.7488   -4.1365  -17.7212 S   0  0  0  0  0  0  0  0  0  0  0  0
   21.2906   -4.3989  -16.8743 C   0  0  0  0  0  0  0  0  0  0  0  0
   21.6228   -5.8180  -16.5572 C   0  0  0  0  0  0  0  0  0  0  0  0
   22.9008   -6.0532  -15.8288 C   0  0  2  0  0  0  0  0  0  0  0  0
   23.0687   -7.4745  -15.4995 N   0  0  0  0  0  0  0  0  0  0  0  0
   22.8854   -5.3581  -14.4969 C   0  0  0  0  0  0  0  0  0  0  0  0
   23.2022   -4.0025  -14.3940 O   0  0  0  0  0  0  0  0  0  0  0  0
   22.5909   -5.9574  -13.4279 O   0  0  0  0  0  0  0  0  0  0  0  0
  1  2  1  0
  2  3  2  0
  4  5  1  0
  4  2  1  0
  5  6  1  0
  6  8  1  0
  6  7  1  1
  8  9  2  0
 11 10  1  1
 11 12  1  0
 11 13  1  0
 13 14  1  6
 14  8  1  0
 15 13  1  0
 15 16  2  0
 17 18  1  0
 19 20  1  0
 19 18  1  0
 21 20  1  1
 21 22  1  0
 21 23  1  0
 22 15  1  0
 23 25  2  0
 23 24  1  0
M  END
$$$$
