QVM.pdb
     RDKit          3D

 25 24  0  0  1  0  0  0  0  0999 V2000
   18.6341  -17.9078  -15.7765 N   0  0  0  0  0  0  0  0  0  0  0  0
   19.1358  -18.1552  -14.4742 C   0  0  0  0  0  0  0  0  0  0  0  0
   18.4030  -17.9319  -13.4487 O   0  0  0  0  0  0  0  0  0  0  0  0
   20.4941  -18.6766  -14.2553 C   0  0  0  0  0  0  0  0  0  0  0  0
   21.2938  -18.9030  -15.4779 C   0  0  0  0  0  0  0  0  0  0  0  0
   22.3887  -17.9523  -15.7325 C   0  0  2  0  0  0  0  0  0  0  0  0
   22.0636  -17.2886  -17.0230 N   0  0  0  0  0  0  0  0  0  0  0  0
   23.7524  -18.4767  -15.7764 C   0  0  0  0  0  0  0  0  0  0  0  0
   23.9854  -19.5262  -16.4342 O   0  0  0  0  0  0  0  0  0  0  0  0
   26.9363  -16.8853  -17.1376 C   0  0  0  0  0  0  0  0  0  0  0  0
   27.1927  -17.3800  -15.7185 C   0  0  1  0  0  0  0  0  0  0  0  0
   27.2175  -16.2146  -14.7473 C   0  0  0  0  0  0  0  0  0  0  0  0
   26.1705  -18.4185  -15.3005 C   0  0  2  0  0  0  0  0  0  0  0  0
   24.8526  -17.8647  -15.1070 N   0  0  0  0  0  0  0  0  0  0  0  0
   26.6454  -18.9505  -13.9893 C   0  0  0  0  0  0  0  0  0  0  0  0
   27.5041  -18.2813  -13.3758 O   0  0  0  0  0  0  0  0  0  0  0  0
   24.6015  -21.3836   -7.4642 C   0  0  0  0  0  0  0  0  0  0  0  0
   25.9173  -20.9404   -8.5852 S   0  0  0  0  0  0  0  0  0  0  0  0
   25.4283  -20.1838  -10.1186 C   0  0  0  0  0  0  0  0  0  0  0  0
   26.5363  -19.8537  -11.0611 C   0  0  0  0  0  0  0  0  0  0  0  0
   26.7061  -20.7623  -12.2294 C   0  0  2  0  0  0  0  0  0  0  0  0
   26.1468  -20.1661  -13.4494 N   0  0  0  0  0  0  0  0  0  0  0  0
   25.9187  -22.0269  -12.0339 C   0  0  0  0  0  0  0  0  0  0  0  0
   24.7621  -22.2712  -12.7764 O   0  0  0  0  0  0  0  0  0  0  0  0
   26.2603  -22.9113  -11.2034 O   0  0  0  0  0  0  0  0  0  0  0  0
  1  2  1  0
  2  3  2  0
  4  5  1  0
  4  2  1  0
  5  6  1  0
  6  8  1  0
  6  7  1  6
  8  9  2  0
 11 10  1  6
 11 12  1  0
 11 13  1  0
 13 14  1  1
 14  8  1  0
 15 13  1  0
 15 16  2  0
 17 18  1  0
 19 20  1  0
 19 18  1  0
 21 20  1  1
 21 22  1  0
 21 23  1  0
 22 15  1  0
 23 25  2  0
 23 24  1  0
M  END
$$$$
