QVM.pdb
     RDKit          3D

 25 24  0  0  1  0  0  0  0  0999 V2000
   24.4048  -16.6786  -17.1381 N   0  0  0  0  0  0  0  0  0  0  0  0
   23.1874  -16.9183  -17.8233 C   0  0  0  0  0  0  0  0  0  0  0  0
   22.7515  -16.0706  -18.6776 O   0  0  0  0  0  0  0  0  0  0  0  0
   22.3944  -18.1351  -17.5876 C   0  0  0  0  0  0  0  0  0  0  0  0
   22.9721  -19.0943  -16.6223 C   0  0  0  0  0  0  0  0  0  0  0  0
   24.3284  -19.5859  -16.9160 C   0  0  2  0  0  0  0  0  0  0  0  0
   24.1707  -20.6132  -17.9797 N   0  0  0  0  0  0  0  0  0  0  0  0
   25.1101  -20.1358  -15.8101 C   0  0  0  0  0  0  0  0  0  0  0  0
   24.9435  -21.3407  -15.4803 O   0  0  0  0  0  0  0  0  0  0  0  0
   29.0433  -20.3666  -12.9180 C   0  0  0  0  0  0  0  0  0  0  0  0
   28.3022  -19.7651  -14.1068 C   0  0  1  0  0  0  0  0  0  0  0  0
   28.8889  -20.2744  -15.4100 C   0  0  0  0  0  0  0  0  0  0  0  0
   26.8141  -20.0442  -14.0310 C   0  0  2  0  0  0  0  0  0  0  0  0
   26.0634  -19.3787  -15.0676 N   0  0  0  0  0  0  0  0  0  0  0  0
   26.3660  -19.5014  -12.7148 C   0  0  0  0  0  0  0  0  0  0  0  0
   26.0694  -18.2885  -12.6655 O   0  0  0  0  0  0  0  0  0  0  0  0
   20.8614  -20.0112  -12.4103 C   0  0  0  0  0  0  0  0  0  0  0  0
   21.1403  -20.4225  -10.6964 S   0  0  0  0  0  0  0  0  0  0  0  0
   22.7746  -20.1153  -10.0655 C   0  0  0  0  0  0  0  0  0  0  0  0
   23.8907  -20.3040  -11.0369 C   0  0  0  0  0  0  0  0  0  0  0  0
   25.2685  -20.0843  -10.5149 C   0  0  2  0  0  0  0  0  0  0  0  0
   26.2742  -20.3215  -11.5586 N   0  0  0  0  0  0  0  0  0  0  0  0
   25.5941  -21.0872   -9.4446 C   0  0  0  0  0  0  0  0  0  0  0  0
   25.4712  -20.7570   -8.0939 O   0  0  0  0  0  0  0  0  0  0  0  0
   25.9873  -22.2543   -9.7125 O   0  0  0  0  0  0  0  0  0  0  0  0
  1  2  1  0
  2  3  2  0
  4  5  1  0
  4  2  1  0
  5  6  1  0
  6  8  1  0
  6  7  1  6
  8  9  2  0
 11 10  1  1
 11 12  1  0
 11 13  1  0
 13 14  1  6
 14  8  1  0
 15 13  1  0
 15 16  2  0
 17 18  1  0
 19 20  1  0
 19 18  1  0
 21 20  1  6
 21 22  1  0
 21 23  1  0
 22 15  1  0
 23 25  2  0
 23 24  1  0
M  END
$$$$
