QCA.pdb
     RDKit          3D

 21 20  0  0  1  0  0  0  0  0999 V2000
    9.8000  -12.5340   18.6978 N   0  0  0  0  0  0  0  0  0  0  0  0
    8.8353  -13.4568   18.2253 C   0  0  0  0  0  0  0  0  0  0  0  0
    9.0272  -14.0777   17.1578 O   0  0  0  0  0  0  0  0  0  0  0  0
    7.5718  -13.7273   18.9609 C   0  0  0  0  0  0  0  0  0  0  0  0
    7.5729  -13.1300   20.3247 C   0  0  0  0  0  0  0  0  0  0  0  0
    8.3153  -14.0356   21.2851 C   0  0  2  0  0  0  0  0  0  0  0  0
    7.8072  -15.3838   21.2294 N   0  0  0  0  0  0  0  0  0  0  0  0
    8.2867  -13.5511   22.6759 C   0  0  0  0  0  0  0  0  0  0  0  0
    8.6239  -12.3694   22.9274 O   0  0  0  0  0  0  0  0  0  0  0  0
    7.8862  -14.4038   23.7184 N   0  0  0  0  0  0  0  0  0  0  0  0
    7.8440  -14.0069   25.1143 C   0  0  1  0  0  0  0  0  0  0  0  0
    6.4855  -14.3943   25.6557 C   0  0  0  0  0  0  0  0  0  0  0  0
    6.0790  -13.4493   27.1398 S   0  0  0  0  0  0  0  0  0  0  0  0
    8.9378  -14.6850   25.8264 C   0  0  0  0  0  0  0  0  0  0  0  0
    9.3787  -15.7841   25.4174 O   0  0  0  0  0  0  0  0  0  0  0  0
   11.0255  -13.8665   28.8259 C   0  0  0  0  0  0  0  0  0  0  0  0
   10.5466  -14.7923   27.7211 C   0  0  2  0  0  0  0  0  0  0  0  0
    9.5071  -14.1052   26.9835 N   0  0  0  0  0  0  0  0  0  0  0  0
   10.0031  -16.0254   28.3338 C   0  0  0  0  0  0  0  0  0  0  0  0
    8.7697  -16.1705   28.4568 O   0  0  0  0  0  0  0  0  0  0  0  0
   10.8423  -17.0286   28.7766 O   0  0  0  0  0  0  0  0  0  0  0  0
  2  1  1  0
  2  3  2  0
  4  5  1  0
  4  2  1  0
  6  8  1  0
  6  5  1  0
  6  7  1  1
  8 10  1  0
  9  8  2  0
 10 11  1  0
 11 14  1  0
 12 13  1  0
 11 12  1  1
 14 15  2  0
 14 18  1  0
 17 16  1  1
 17 19  1  0
 18 17  1  0
 19 21  1  0
 20 19  2  0
M  END
$$$$
