QCA.pdb
     RDKit          3D

 21 20  0  0  1  0  0  0  0  0999 V2000
    5.2917  -12.2513   26.1339 N   0  0  0  0  0  0  0  0  0  0  0  0
    6.4271  -12.3080   26.9783 C   0  0  0  0  0  0  0  0  0  0  0  0
    6.9139  -11.2584   27.4509 O   0  0  0  0  0  0  0  0  0  0  0  0
    7.0832  -13.5931   27.3374 C   0  0  0  0  0  0  0  0  0  0  0  0
    6.3459  -14.7719   26.8052 C   0  0  0  0  0  0  0  0  0  0  0  0
    7.3231  -15.7777   26.2333 C   0  0  2  0  0  0  0  0  0  0  0  0
    8.6730  -15.4884   26.6491 N   0  0  0  0  0  0  0  0  0  0  0  0
    7.2649  -15.8698   24.7642 C   0  0  0  0  0  0  0  0  0  0  0  0
    6.1904  -16.1974   24.2061 O   0  0  0  0  0  0  0  0  0  0  0  0
    8.4035  -15.5947   23.9883 N   0  0  0  0  0  0  0  0  0  0  0  0
    8.4363  -15.6939   22.5402 C   0  0  1  0  0  0  0  0  0  0  0  0
    8.3115  -14.2917   21.9861 C   0  0  0  0  0  0  0  0  0  0  0  0
    8.3696  -14.2940   20.1813 S   0  0  0  0  0  0  0  0  0  0  0  0
    9.6991  -16.3354   22.1441 C   0  0  0  0  0  0  0  0  0  0  0  0
   10.7843  -15.9750   22.6559 O   0  0  0  0  0  0  0  0  0  0  0  0
   10.6309  -19.4724   20.4892 C   0  0  0  0  0  0  0  0  0  0  0  0
   10.9424  -18.0181   20.7978 C   0  0  2  0  0  0  0  0  0  0  0  0
    9.7056  -17.3689   21.1791 N   0  0  0  0  0  0  0  0  0  0  0  0
   11.4962  -17.3803   19.5822 C   0  0  0  0  0  0  0  0  0  0  0  0
   10.7651  -16.6720   18.8602 O   0  0  0  0  0  0  0  0  0  0  0  0
   12.8192  -17.5552   19.2276 O   0  0  0  0  0  0  0  0  0  0  0  0
  2  1  1  0
  2  3  2  0
  4  5  1  0
  4  2  1  0
  6  8  1  0
  6  5  1  0
  6  7  1  6
  8 10  1  0
  9  8  2  0
 10 11  1  0
 11 14  1  0
 12 13  1  0
 11 12  1  6
 14 15  2  0
 14 18  1  0
 17 16  1  6
 17 19  1  0
 18 17  1  0
 19 21  1  0
 20 19  2  0
M  END
$$$$
