QCA.pdb
     RDKit          3D

 21 20  0  0  1  0  0  0  0  0999 V2000
   12.6997  -21.2834   16.2597 N   0  0  0  0  0  0  0  0  0  0  0  0
   11.8992  -21.0841   15.1087 C   0  0  0  0  0  0  0  0  0  0  0  0
   12.1872  -21.6543   14.0344 O   0  0  0  0  0  0  0  0  0  0  0  0
   10.7005  -20.2044   15.1207 C   0  0  0  0  0  0  0  0  0  0  0  0
   10.4395  -19.6235   16.4664 C   0  0  0  0  0  0  0  0  0  0  0  0
    9.1903  -18.7681   16.4268 C   0  0  2  0  0  0  0  0  0  0  0  0
    8.9628  -18.2377   15.1056 N   0  0  0  0  0  0  0  0  0  0  0  0
    9.2111  -17.6684   17.4067 C   0  0  0  0  0  0  0  0  0  0  0  0
    8.8392  -16.5220   17.0594 O   0  0  0  0  0  0  0  0  0  0  0  0
    9.6451  -17.8968   18.7234 N   0  0  0  0  0  0  0  0  0  0  0  0
    9.0416  -17.2790   19.8905 C   0  0  1  0  0  0  0  0  0  0  0  0
    7.5648  -17.6066   19.8651 C   0  0  0  0  0  0  0  0  0  0  0  0
    6.7522  -17.0817   21.3898 S   0  0  0  0  0  0  0  0  0  0  0  0
    9.7048  -17.8048   21.0933 C   0  0  0  0  0  0  0  0  0  0  0  0
    9.6142  -19.0183   21.3913 O   0  0  0  0  0  0  0  0  0  0  0  0
   12.1942  -16.3591   23.4751 C   0  0  0  0  0  0  0  0  0  0  0  0
   11.3131  -17.4861   22.9646 C   0  0  2  0  0  0  0  0  0  0  0  0
   10.4545  -16.9470   21.9308 N   0  0  0  0  0  0  0  0  0  0  0  0
   10.4951  -17.9983   24.0871 C   0  0  0  0  0  0  0  0  0  0  0  0
    9.2776  -17.7307   24.1456 O   0  0  0  0  0  0  0  0  0  0  0  0
   11.0582  -18.7742   25.0808 O   0  0  0  0  0  0  0  0  0  0  0  0
  2  1  1  0
  2  3  2  0
  4  5  1  0
  4  2  1  0
  6  8  1  0
  6  5  1  0
  6  7  1  6
  8 10  1  0
  9  8  2  0
 10 11  1  0
 11 14  1  0
 12 13  1  0
 11 12  1  1
 14 15  2  0
 14 18  1  0
 17 16  1  1
 17 19  1  0
 18 17  1  0
 19 21  1  0
 20 19  2  0
M  END
$$$$
