QCA.pdb
     RDKit          3D

 21 20  0  0  1  0  0  0  0  0999 V2000
    7.7625  -17.7209   23.9781 N   0  0  0  0  0  0  0  0  0  0  0  0
    6.4993  -17.6660   23.3404 C   0  0  0  0  0  0  0  0  0  0  0  0
    5.5487  -18.3576   23.7648 O   0  0  0  0  0  0  0  0  0  0  0  0
    6.2462  -16.8005   22.1582 C   0  0  0  0  0  0  0  0  0  0  0  0
    7.4565  -16.0369   21.7476 C   0  0  0  0  0  0  0  0  0  0  0  0
    7.2747  -14.5681   22.0688 C   0  0  2  0  0  0  0  0  0  0  0  0
    7.6843  -13.7377   20.9637 N   0  0  0  0  0  0  0  0  0  0  0  0
    7.9823  -14.1517   23.2919 C   0  0  0  0  0  0  0  0  0  0  0  0
    9.1861  -13.8060   23.2240 O   0  0  0  0  0  0  0  0  0  0  0  0
    7.3177  -14.1413   24.5298 N   0  0  0  0  0  0  0  0  0  0  0  0
    7.9392  -13.7297   25.7757 C   0  0  1  0  0  0  0  0  0  0  0  0
    6.8691  -13.0769   26.6229 C   0  0  0  0  0  0  0  0  0  0  0  0
    6.3689  -11.4850   25.9327 S   0  0  0  0  0  0  0  0  0  0  0  0
    8.5129  -14.9173   26.4267 C   0  0  0  0  0  0  0  0  0  0  0  0
    7.8061  -15.9290   26.6422 O   0  0  0  0  0  0  0  0  0  0  0  0
   11.9406  -16.1313   27.0181 C   0  0  0  0  0  0  0  0  0  0  0  0
   10.4656  -16.1279   27.3810 C   0  0  2  0  0  0  0  0  0  0  0  0
    9.8713  -14.9333   26.8187 N   0  0  0  0  0  0  0  0  0  0  0  0
   10.3370  -16.1124   28.8557 C   0  0  0  0  0  0  0  0  0  0  0  0
    9.8748  -15.1064   29.4317 O   0  0  0  0  0  0  0  0  0  0  0  0
   10.7221  -17.2000   29.6142 O   0  0  0  0  0  0  0  0  0  0  0  0
  2  1  1  0
  2  3  2  0
  4  5  1  0
  4  2  1  0
  6  8  1  0
  6  5  1  0
  6  7  1  6
  8 10  1  0
  9  8  2  0
 10 11  1  0
 11 14  1  0
 12 13  1  0
 11 12  1  1
 14 15  2  0
 14 18  1  0
 17 16  1  1
 17 19  1  0
 18 17  1  0
 19 21  1  0
 20 19  2  0
M  END
$$$$
