QCA.pdb
     RDKit          3D

 21 20  0  0  1  0  0  0  0  0999 V2000
    9.7457  -24.5736   15.6035 N   0  0  0  0  0  0  0  0  0  0  0  0
   10.5299  -23.5395   15.0371 C   0  0  0  0  0  0  0  0  0  0  0  0
   11.5077  -23.8166   14.3097 O   0  0  0  0  0  0  0  0  0  0  0  0
   10.2350  -22.1017   15.2749 C   0  0  0  0  0  0  0  0  0  0  0  0
    9.0692  -21.9061   16.1800 C   0  0  0  0  0  0  0  0  0  0  0  0
    8.7602  -20.4296   16.3134 C   0  0  2  0  0  0  0  0  0  0  0  0
    9.2765  -19.6851   15.1919 N   0  0  0  0  0  0  0  0  0  0  0  0
    9.2600  -19.8453   17.5699 C   0  0  0  0  0  0  0  0  0  0  0  0
   10.4448  -19.4386   17.6359 O   0  0  0  0  0  0  0  0  0  0  0  0
    8.4192  -19.7429   18.6909 N   0  0  0  0  0  0  0  0  0  0  0  0
    8.8306  -19.1654   19.9579 C   0  0  1  0  0  0  0  0  0  0  0  0
    7.5769  -18.7493   20.6956 C   0  0  0  0  0  0  0  0  0  0  0  0
    6.6399  -17.5257   19.7546 S   0  0  0  0  0  0  0  0  0  0  0  0
    9.6025  -20.1722   20.7020 C   0  0  0  0  0  0  0  0  0  0  0  0
    9.2858  -21.3832   20.6503 O   0  0  0  0  0  0  0  0  0  0  0  0
   12.9471  -20.4353   22.0766 C   0  0  0  0  0  0  0  0  0  0  0  0
   11.4735  -20.7710   22.2285 C   0  0  2  0  0  0  0  0  0  0  0  0
   10.7137  -19.7866   21.4867 N   0  0  0  0  0  0  0  0  0  0  0  0
   11.1159  -20.7115   23.6637 C   0  0  0  0  0  0  0  0  0  0  0  0
   10.4211  -19.7691   24.0957 O   0  0  0  0  0  0  0  0  0  0  0  0
   11.5401  -21.6879   24.5430 O   0  0  0  0  0  0  0  0  0  0  0  0
  2  1  1  0
  2  3  2  0
  4  5  1  0
  4  2  1  0
  6  8  1  0
  6  5  1  0
  6  7  1  6
  8 10  1  0
  9  8  2  0
 10 11  1  0
 11 14  1  0
 12 13  1  0
 11 12  1  1
 14 15  2  0
 14 18  1  0
 17 16  1  1
 17 19  1  0
 18 17  1  0
 19 21  1  0
 20 19  2  0
M  END
$$$$
