QCA.pdb
     RDKit          3D

 21 20  0  0  1  0  0  0  0  0999 V2000
    9.2661  -12.4602   18.0343 N   0  0  0  0  0  0  0  0  0  0  0  0
    8.1878  -13.3210   17.7154 C   0  0  0  0  0  0  0  0  0  0  0  0
    7.9305  -13.5936   16.5231 O   0  0  0  0  0  0  0  0  0  0  0  0
    7.3256  -13.9310   18.7620 C   0  0  0  0  0  0  0  0  0  0  0  0
    7.7595  -13.5616   20.1374 C   0  0  0  0  0  0  0  0  0  0  0  0
    7.9513  -14.8107   20.9719 C   0  0  2  0  0  0  0  0  0  0  0  0
    6.7058  -15.5140   21.1525 N   0  0  0  0  0  0  0  0  0  0  0  0
    8.5642  -14.5411   22.2841 C   0  0  0  0  0  0  0  0  0  0  0  0
    9.6833  -13.9774   22.3411 O   0  0  0  0  0  0  0  0  0  0  0  0
    7.9041  -14.9122   23.4675 N   0  0  0  0  0  0  0  0  0  0  0  0
    8.4792  -14.7646   24.7925 C   0  0  1  0  0  0  0  0  0  0  0  0
    7.5681  -13.8522   25.5839 C   0  0  0  0  0  0  0  0  0  0  0  0
    6.0557  -14.7062   26.0779 S   0  0  0  0  0  0  0  0  0  0  0  0
    8.5942  -16.0976   25.4033 C   0  0  0  0  0  0  0  0  0  0  0  0
    7.6148  -16.8787   25.4162 O   0  0  0  0  0  0  0  0  0  0  0  0
   11.1037  -18.5380   25.9270 C   0  0  0  0  0  0  0  0  0  0  0  0
    9.9344  -17.8275   26.5868 C   0  0  2  0  0  0  0  0  0  0  0  0
    9.8130  -16.5162   25.9852 N   0  0  0  0  0  0  0  0  0  0  0  0
   10.2109  -17.6974   28.0352 C   0  0  0  0  0  0  0  0  0  0  0  0
   10.4030  -16.5704   28.5356 O   0  0  0  0  0  0  0  0  0  0  0  0
   10.2609  -18.8095   28.8521 O   0  0  0  0  0  0  0  0  0  0  0  0
  2  1  1  0
  2  3  2  0
  4  5  1  0
  4  2  1  0
  6  8  1  0
  6  5  1  0
  6  7  1  1
  8 10  1  0
  9  8  2  0
 10 11  1  0
 11 14  1  0
 12 13  1  0
 11 12  1  1
 14 15  2  0
 14 18  1  0
 17 16  1  6
 17 19  1  0
 18 17  1  0
 19 21  1  0
 20 19  2  0
M  END
$$$$
