QCA.pdb
     RDKit          3D

 21 20  0  0  1  0  0  0  0  0999 V2000
    6.8497  -18.6677   20.3326 N   0  0  0  0  0  0  0  0  0  0  0  0
    6.5999  -17.6918   19.3374 C   0  0  0  0  0  0  0  0  0  0  0  0
    6.2167  -18.0366   18.1988 O   0  0  0  0  0  0  0  0  0  0  0  0
    6.7775  -16.2377   19.5923 C   0  0  0  0  0  0  0  0  0  0  0  0
    7.1543  -15.9535   21.0043 C   0  0  0  0  0  0  0  0  0  0  0  0
    7.2363  -14.4577   21.2264 C   0  0  2  0  0  0  0  0  0  0  0  0
    7.8495  -13.7960   20.1019 N   0  0  0  0  0  0  0  0  0  0  0  0
    7.9474  -14.0950   22.4645 C   0  0  0  0  0  0  0  0  0  0  0  0
    9.1973  -13.9896   22.4529 O   0  0  0  0  0  0  0  0  0  0  0  0
    7.2350  -13.8686   23.6541 N   0  0  0  0  0  0  0  0  0  0  0  0
    7.8650  -13.6794   24.9484 C   0  0  1  0  0  0  0  0  0  0  0  0
    6.9044  -12.8895   25.8099 C   0  0  0  0  0  0  0  0  0  0  0  0
    7.5068  -12.7550   27.5069 S   0  0  0  0  0  0  0  0  0  0  0  0
    8.1635  -15.0010   25.5207 C   0  0  0  0  0  0  0  0  0  0  0  0
    7.2534  -15.8477   25.6763 O   0  0  0  0  0  0  0  0  0  0  0  0
   11.0918  -17.1140   25.8584 C   0  0  0  0  0  0  0  0  0  0  0  0
    9.7851  -16.6338   26.4661 C   0  0  2  0  0  0  0  0  0  0  0  0
    9.4832  -15.3343   25.9035 N   0  0  0  0  0  0  0  0  0  0  0  0
    9.9525  -16.5250   27.9329 C   0  0  0  0  0  0  0  0  0  0  0  0
    9.8001  -15.4232   28.4988 O   0  0  0  0  0  0  0  0  0  0  0  0
   10.2772  -17.6295   28.6952 O   0  0  0  0  0  0  0  0  0  0  0  0
  2  1  1  0
  2  3  2  0
  4  5  1  0
  4  2  1  0
  6  8  1  0
  6  5  1  0
  6  7  1  6
  8 10  1  0
  9  8  2  0
 10 11  1  0
 11 14  1  0
 12 13  1  0
 11 12  1  1
 14 15  2  0
 14 18  1  0
 17 16  1  6
 17 19  1  0
 18 17  1  0
 19 21  1  0
 20 19  2  0
M  END
$$$$
