QCA.pdb
     RDKit          3D

 21 20  0  0  1  0  0  0  0  0999 V2000
    3.8896  -22.7517   24.7242 N   0  0  0  0  0  0  0  0  0  0  0  0
    4.7887  -23.0320   23.6667 C   0  0  0  0  0  0  0  0  0  0  0  0
    5.2101  -24.1952   23.4894 O   0  0  0  0  0  0  0  0  0  0  0  0
    5.2665  -21.9776   22.7335 C   0  0  0  0  0  0  0  0  0  0  0  0
    4.6410  -20.6547   23.0077 C   0  0  0  0  0  0  0  0  0  0  0  0
    5.2291  -19.6044   22.0887 C   0  0  2  0  0  0  0  0  0  0  0  0
    5.3484  -20.0991   20.7397 N   0  0  0  0  0  0  0  0  0  0  0  0
    6.5336  -19.0980   22.5492 C   0  0  0  0  0  0  0  0  0  0  0  0
    7.4147  -18.8000   21.7076 O   0  0  0  0  0  0  0  0  0  0  0  0
    6.7948  -18.9490   23.9216 N   0  0  0  0  0  0  0  0  0  0  0  0
    8.0234  -18.3865   24.4527 C   0  0  1  0  0  0  0  0  0  0  0  0
    7.7666  -16.9232   24.7385 C   0  0  0  0  0  0  0  0  0  0  0  0
    6.3301  -16.7085   25.8113 S   0  0  0  0  0  0  0  0  0  0  0  0
    8.3922  -19.1312   25.6662 C   0  0  0  0  0  0  0  0  0  0  0  0
    7.5170  -19.4692   26.4964 O   0  0  0  0  0  0  0  0  0  0  0  0
   11.4559  -20.9051   26.7927 C   0  0  0  0  0  0  0  0  0  0  0  0
   10.1028  -20.2719   27.0671 C   0  0  2  0  0  0  0  0  0  0  0  0
    9.7411  -19.4761   25.9128 N   0  0  0  0  0  0  0  0  0  0  0  0
   10.2140  -19.4081   28.2641 C   0  0  0  0  0  0  0  0  0  0  0  0
   10.1266  -18.1684   28.1499 O   0  0  0  0  0  0  0  0  0  0  0  0
   10.4145  -19.9521   29.5172 O   0  0  0  0  0  0  0  0  0  0  0  0
  2  1  1  0
  2  3  2  0
  4  5  1  0
  4  2  1  0
  6  8  1  0
  6  5  1  0
  6  7  1  6
  8 10  1  0
  9  8  2  0
 10 11  1  0
 11 14  1  0
 12 13  1  0
 11 12  1  1
 14 15  2  0
 14 18  1  0
 17 16  1  6
 17 19  1  0
 18 17  1  0
 19 21  1  0
 20 19  2  0
M  END
$$$$
