QCA.pdb
     RDKit          3D

 21 20  0  0  1  0  0  0  0  0999 V2000
    8.3360  -20.0982   20.0045 N   0  0  0  0  0  0  0  0  0  0  0  0
    8.6787  -20.3501   18.6538 C   0  0  0  0  0  0  0  0  0  0  0  0
    8.7719  -21.5243   18.2358 O   0  0  0  0  0  0  0  0  0  0  0  0
    8.9395  -19.2525   17.6853 C   0  0  0  0  0  0  0  0  0  0  0  0
    7.7263  -18.4304   17.4228 C   0  0  0  0  0  0  0  0  0  0  0  0
    8.1282  -17.0128   17.0729 C   0  0  2  0  0  0  0  0  0  0  0  0
    8.9686  -16.9826   15.9018 N   0  0  0  0  0  0  0  0  0  0  0  0
    8.7966  -16.3108   18.1822 C   0  0  0  0  0  0  0  0  0  0  0  0
   10.0479  -16.3352   18.2664 O   0  0  0  0  0  0  0  0  0  0  0  0
    8.0418  -15.6175   19.1432 N   0  0  0  0  0  0  0  0  0  0  0  0
    8.6258  -14.8753   20.2460 C   0  0  1  0  0  0  0  0  0  0  0  0
    7.5603  -13.9442   20.7813 C   0  0  0  0  0  0  0  0  0  0  0  0
    7.8191  -12.2531   20.2034 S   0  0  0  0  0  0  0  0  0  0  0  0
    9.0855  -15.8334   21.2629 C   0  0  0  0  0  0  0  0  0  0  0  0
    8.3820  -16.8239   21.5686 O   0  0  0  0  0  0  0  0  0  0  0  0
   12.3006  -16.3759   23.0688 C   0  0  0  0  0  0  0  0  0  0  0  0
   10.8140  -16.6176   22.8713 C   0  0  2  0  0  0  0  0  0  0  0  0
   10.3291  -15.6494   21.9101 N   0  0  0  0  0  0  0  0  0  0  0  0
   10.1242  -16.4340   24.1681 C   0  0  0  0  0  0  0  0  0  0  0  0
    9.3281  -15.4855   24.3233 O   0  0  0  0  0  0  0  0  0  0  0  0
   10.3463  -17.3001   25.2203 O   0  0  0  0  0  0  0  0  0  0  0  0
  2  1  1  0
  2  3  2  0
  4  5  1  0
  4  2  1  0
  6  8  1  0
  6  5  1  0
  6  7  1  6
  8 10  1  0
  9  8  2  0
 10 11  1  0
 11 14  1  0
 12 13  1  0
 11 12  1  1
 14 15  2  0
 14 18  1  0
 17 16  1  1
 17 19  1  0
 18 17  1  0
 19 21  1  0
 20 19  2  0
M  END
$$$$
