QCA.pdb
     RDKit          3D

 21 20  0  0  1  0  0  0  0  0999 V2000
    8.3663  -17.9114   17.7797 N   0  0  0  0  0  0  0  0  0  0  0  0
    9.0932  -16.8118   18.2972 C   0  0  0  0  0  0  0  0  0  0  0  0
    8.9063  -15.6628   17.8424 O   0  0  0  0  0  0  0  0  0  0  0  0
   10.0945  -16.9664   19.3854 C   0  0  0  0  0  0  0  0  0  0  0  0
   10.0044  -15.8763   20.3953 C   0  0  0  0  0  0  0  0  0  0  0  0
    9.5969  -16.4473   21.7375 C   0  0  2  0  0  0  0  0  0  0  0  0
    8.3234  -17.1179   21.6543 N   0  0  0  0  0  0  0  0  0  0  0  0
    9.5569  -15.4362   22.8081 C   0  0  0  0  0  0  0  0  0  0  0  0
   10.5491  -14.6918   22.9947 O   0  0  0  0  0  0  0  0  0  0  0  0
    8.4172  -15.3030   23.6188 N   0  0  0  0  0  0  0  0  0  0  0  0
    8.3156  -14.3620   24.7197 C   0  0  1  0  0  0  0  0  0  0  0  0
    6.8465  -14.1939   25.0394 C   0  0  0  0  0  0  0  0  0  0  0  0
    6.6083  -13.1419   26.4875 S   0  0  0  0  0  0  0  0  0  0  0  0
    9.0733  -14.8952   25.8620 C   0  0  0  0  0  0  0  0  0  0  0  0
    9.1811  -16.1316   26.0330 O   0  0  0  0  0  0  0  0  0  0  0  0
   10.9284  -13.3761   28.7364 C   0  0  0  0  0  0  0  0  0  0  0  0
   10.5745  -14.5281   27.8117 C   0  0  2  0  0  0  0  0  0  0  0  0
    9.6911  -14.0188   26.7837 N   0  0  0  0  0  0  0  0  0  0  0  0
    9.8866  -15.5770   28.5976 C   0  0  0  0  0  0  0  0  0  0  0  0
    8.6404  -15.6429   28.5952 O   0  0  0  0  0  0  0  0  0  0  0  0
   10.6036  -16.4934   29.3410 O   0  0  0  0  0  0  0  0  0  0  0  0
  2  1  1  0
  2  3  2  0
  4  5  1  0
  4  2  1  0
  6  8  1  0
  6  5  1  0
  6  7  1  6
  8 10  1  0
  9  8  2  0
 10 11  1  0
 11 14  1  0
 12 13  1  0
 11 12  1  1
 14 15  2  0
 14 18  1  0
 17 16  1  1
 17 19  1  0
 18 17  1  0
 19 21  1  0
 20 19  2  0
M  END
$$$$
