QCA.pdb
     RDKit          3D

 21 20  0  0  1  0  0  0  0  0999 V2000
    8.5218  -13.0196   17.8329 N   0  0  0  0  0  0  0  0  0  0  0  0
    8.1578  -13.9753   16.8534 C   0  0  0  0  0  0  0  0  0  0  0  0
    7.2928  -13.6991   15.9945 O   0  0  0  0  0  0  0  0  0  0  0  0
    8.7739  -15.3274   16.7992 C   0  0  0  0  0  0  0  0  0  0  0  0
    9.9672  -15.4403   17.6823 C   0  0  0  0  0  0  0  0  0  0  0  0
    9.6446  -16.3115   18.8783 C   0  0  2  0  0  0  0  0  0  0  0  0
    8.2603  -16.7147   18.8720 N   0  0  0  0  0  0  0  0  0  0  0  0
    9.9695  -15.6712   20.1646 C   0  0  0  0  0  0  0  0  0  0  0  0
   11.1225  -15.2160   20.3563 O   0  0  0  0  0  0  0  0  0  0  0  0
    8.9978  -15.5695   21.1743 N   0  0  0  0  0  0  0  0  0  0  0  0
    9.2932  -15.1836   22.5425 C   0  0  1  0  0  0  0  0  0  0  0  0
    8.1122  -14.3891   23.0553 C   0  0  0  0  0  0  0  0  0  0  0  0
    6.6312  -15.4162   23.1656 S   0  0  0  0  0  0  0  0  0  0  0  0
    9.5254  -16.4024   23.3322 C   0  0  0  0  0  0  0  0  0  0  0  0
    9.0004  -17.4889   22.9954 O   0  0  0  0  0  0  0  0  0  0  0  0
   11.9687  -18.0178   25.1064 C   0  0  0  0  0  0  0  0  0  0  0  0
   10.5366  -17.5480   25.2955 C   0  0  2  0  0  0  0  0  0  0  0  0
   10.3451  -16.3645   24.4837 N   0  0  0  0  0  0  0  0  0  0  0  0
   10.3258  -17.2227   26.7242 C   0  0  0  0  0  0  0  0  0  0  0  0
   10.0762  -16.0490   27.0671 O   0  0  0  0  0  0  0  0  0  0  0  0
   10.4006  -18.2018   27.6948 O   0  0  0  0  0  0  0  0  0  0  0  0
  2  1  1  0
  2  3  2  0
  4  5  1  0
  4  2  1  0
  6  8  1  0
  6  5  1  0
  6  7  1  1
  8 10  1  0
  9  8  2  0
 10 11  1  0
 11 14  1  0
 12 13  1  0
 11 12  1  1
 14 15  2  0
 14 18  1  0
 17 16  1  1
 17 19  1  0
 18 17  1  0
 19 21  1  0
 20 19  2  0
M  END
$$$$
