RGI.pdb
     RDKit          3D

 24 23  0  0  1  0  0  0  0  0999 V2000
   24.3622  -24.8733  -13.8171 N   0  0  0  0  0  0  0  0  0  0  0  0
   23.0183  -24.9773  -13.4023 C   0  0  0  0  0  0  0  0  0  0  0  0
   22.3379  -26.0643  -13.4831 N   0  0  0  0  0  0  0  0  0  0  0  0
   22.3821  -23.8165  -12.8660 N   0  0  0  0  0  0  0  0  0  0  0  0
   22.9855  -22.5038  -12.9869 C   0  0  0  0  0  0  0  0  0  0  0  0
   22.7324  -21.9489  -14.3954 C   0  0  0  0  0  0  0  0  0  0  0  0
   23.3419  -20.5953  -14.4519 C   0  0  0  0  0  0  0  0  0  0  0  0
   24.7672  -20.6464  -14.8949 C   0  0  2  0  0  0  0  0  0  0  0  0
   25.1571  -22.0343  -15.1899 N   0  0  0  0  0  0  0  0  0  0  0  0
   25.6559  -20.2019  -13.8075 C   0  0  0  0  0  0  0  0  0  0  0  0
   25.5324  -19.0750  -13.2765 O   0  0  0  0  0  0  0  0  0  0  0  0
   21.3703  -26.1132  -13.1221 N   0  0  0  0  0  0  0  0  0  0  0  0
   26.7115  -21.0329  -13.2952 C   0  0  0  0  0  0  0  0  0  0  0  0
   27.5182  -20.5321  -12.2205 C   0  0  0  0  0  0  0  0  0  0  0  0
   27.0110  -21.0925  -10.9453 O   0  0  0  0  0  0  0  0  0  0  0  0
   26.5807  -22.2767  -10.8943 C   0  0  0  0  0  0  0  0  0  0  0  0
   27.6141  -20.1815   -4.8881 C   0  0  0  0  0  0  0  0  0  0  0  0
   26.9817  -20.9088   -6.0413 C   0  0  2  0  0  0  0  0  0  0  0  0
   27.2180  -20.1972   -7.3577 C   0  0  0  0  0  0  0  0  0  0  0  0
   26.6138  -18.8225   -7.2921 C   0  0  2  0  0  0  0  0  0  0  0  0
   26.6253  -20.9759   -8.5173 N   0  0  0  0  0  0  0  0  0  0  0  0
   26.9952  -20.3172   -9.7545 C   0  0  0  0  0  0  0  0  0  0  0  0
   25.1543  -20.8847   -8.3712 O   0  0  0  0  0  0  0  0  0  0  0  0
   24.4041  -21.6868   -7.5242 O   0  0  0  0  0  0  0  0  0  0  0  0
  2  3  2  0
  2  1  1  0
  4  2  1  0
  5  4  1  0
  6  5  1  0
  7  6  1  0
  8  7  1  0
  8  9  1  1
 10 12  1  0
 10  8  1  0
 11 10  2  0
 13 12  1  0
 14 13  1  0
 14 21  1  0
 15 14  2  0
 16 17  1  0
 17 18  1  0
 18 20  1  0
 18 19  1  6
 20 21  1  6
 20 22  1  0
 22 24  2  0
 22 23  1  0
M  END
$$$$
