RGI.pdb
     RDKit          3D

 24 23  0  0  1  0  0  0  0  0999 V2000
   19.9375  -23.2483  -12.7743 N   0  0  0  0  0  0  0  0  0  0  0  0
   20.2148  -23.4169  -14.1468 C   0  0  0  0  0  0  0  0  0  0  0  0
   19.4061  -23.9909  -14.9639 N   0  0  0  0  0  0  0  0  0  0  0  0
   21.4563  -22.9252  -14.6535 N   0  0  0  0  0  0  0  0  0  0  0  0
   22.6609  -22.9496  -13.8472 C   0  0  0  0  0  0  0  0  0  0  0  0
   22.9646  -21.5357  -13.3328 C   0  0  0  0  0  0  0  0  0  0  0  0
   23.9895  -20.9494  -14.2343 C   0  0  0  0  0  0  0  0  0  0  0  0
   25.3606  -21.0399  -13.6490 C   0  0  2  0  0  0  0  0  0  0  0  0
   25.6318  -22.4158  -13.2031 N   0  0  0  0  0  0  0  0  0  0  0  0
   25.4569  -20.2002  -12.4426 C   0  0  0  0  0  0  0  0  0  0  0  0
   25.1483  -18.9871  -12.4593 O   0  0  0  0  0  0  0  0  0  0  0  0
   19.6554  -24.1132  -15.9598 N   0  0  0  0  0  0  0  0  0  0  0  0
   25.9085  -20.7230  -11.1815 C   0  0  0  0  0  0  0  0  0  0  0  0
   25.9652  -19.8393  -10.0536 C   0  0  0  0  0  0  0  0  0  0  0  0
   26.3695  -20.6191   -8.8595 O   0  0  0  0  0  0  0  0  0  0  0  0
   26.6290  -21.8492   -8.9576 C   0  0  0  0  0  0  0  0  0  0  0  0
   29.5162  -18.3316   -5.1071 C   0  0  0  0  0  0  0  0  0  0  0  0
   28.8466  -19.2704   -6.0709 C   0  0  2  0  0  0  0  0  0  0  0  0
   27.6239  -19.9277   -5.4642 C   0  0  0  0  0  0  0  0  0  0  0  0
   28.0378  -20.7248   -4.2590 C   0  0  2  0  0  0  0  0  0  0  0  0
   26.9251  -20.8230   -6.4705 N   0  0  0  0  0  0  0  0  0  0  0  0
   26.4746  -20.0075   -7.5811 C   0  0  0  0  0  0  0  0  0  0  0  0
   25.7295  -21.3654   -5.7852 O   0  0  0  0  0  0  0  0  0  0  0  0
   25.7149  -22.5504   -5.0645 O   0  0  0  0  0  0  0  0  0  0  0  0
  2  3  2  0
  2  1  1  0
  4  2  1  0
  5  4  1  0
  6  5  1  0
  7  6  1  0
  8  7  1  0
  8  9  1  1
 10 12  1  0
 10  8  1  0
 11 10  2  0
 13 12  1  0
 14 13  1  0
 14 21  1  0
 15 14  2  0
 16 17  1  0
 17 18  1  0
 18 20  1  0
 18 19  1  1
 20 21  1  6
 20 22  1  0
 22 24  2  0
 22 23  1  0
M  END
$$$$
