RGI.pdb
     RDKit          3D

 24 23  0  0  1  0  0  0  0  0999 V2000
   20.4498  -21.3620   -8.5976 N   0  0  0  0  0  0  0  0  0  0  0  0
   20.8251  -21.8125   -7.3149 C   0  0  0  0  0  0  0  0  0  0  0  0
   20.1567  -22.6866   -6.6515 N   0  0  0  0  0  0  0  0  0  0  0  0
   22.0068  -21.2698   -6.7241 N   0  0  0  0  0  0  0  0  0  0  0  0
   23.2923  -21.3657   -7.3876 C   0  0  0  0  0  0  0  0  0  0  0  0
   23.3976  -20.2777   -8.4651 C   0  0  0  0  0  0  0  0  0  0  0  0
   24.6924  -20.4757   -9.1660 C   0  0  0  0  0  0  0  0  0  0  0  0
   24.4987  -20.7661  -10.6182 C   0  0  2  0  0  0  0  0  0  0  0  0
   24.1220  -22.1760  -10.8074 N   0  0  0  0  0  0  0  0  0  0  0  0
   25.7658  -20.5874  -11.3478 C   0  0  0  0  0  0  0  0  0  0  0  0
   26.3039  -19.4632  -11.4656 O   0  0  0  0  0  0  0  0  0  0  0  0
   20.5086  -23.0528   -5.7509 N   0  0  0  0  0  0  0  0  0  0  0  0
   26.4550  -21.6888  -11.9637 C   0  0  0  0  0  0  0  0  0  0  0  0
   27.6623  -21.4222  -12.6901 C   0  0  0  0  0  0  0  0  0  0  0  0
   27.3627  -21.4659  -14.1413 O   0  0  0  0  0  0  0  0  0  0  0  0
   28.2936  -21.3883  -14.9884 C   0  0  0  0  0  0  0  0  0  0  0  0
   26.6041  -24.5909  -16.6883 C   0  0  0  0  0  0  0  0  0  0  0  0
   25.4324  -24.1636  -15.8498 C   0  0  1  0  0  0  0  0  0  0  0  0
   24.8573  -22.8406  -16.3126 C   0  0  0  0  0  0  0  0  0  0  0  0
   24.5446  -22.9238  -17.7803 C   0  0  2  0  0  0  0  0  0  0  0  0
   25.8208  -21.6992  -16.0453 N   0  0  0  0  0  0  0  0  0  0  0  0
   26.0290  -21.5946  -14.6145 C   0  0  0  0  0  0  0  0  0  0  0  0
   25.1406  -20.4651  -16.5012 O   0  0  0  0  0  0  0  0  0  0  0  0
   25.4937  -19.7559  -17.6397 O   0  0  0  0  0  0  0  0  0  0  0  0
  2  3  2  0
  2  1  1  0
  4  2  1  0
  5  4  1  0
  6  5  1  0
  7  6  1  0
  8  7  1  0
  8  9  1  1
 10 12  1  0
 10  8  1  0
 11 10  2  0
 13 12  1  0
 14 13  1  0
 14 21  1  0
 15 14  2  0
 16 17  1  0
 17 18  1  0
 18 20  1  0
 18 19  1  6
 20 21  1  6
 20 22  1  0
 22 24  2  0
 22 23  1  0
M  END
$$$$
