RGI.pdb
     RDKit          3D

 24 23  0  0  1  0  0  0  0  0999 V2000
   18.0052  -22.7552  -15.7538 N   0  0  0  0  0  0  0  0  0  0  0  0
   17.7662  -22.4998  -17.1201 C   0  0  0  0  0  0  0  0  0  0  0  0
   17.7128  -23.4241  -18.0110 N   0  0  0  0  0  0  0  0  0  0  0  0
   17.5743  -21.1463  -17.5338 N   0  0  0  0  0  0  0  0  0  0  0  0
   17.4821  -20.0697  -16.5672 C   0  0  0  0  0  0  0  0  0  0  0  0
   17.1934  -18.7490  -17.2940 C   0  0  0  0  0  0  0  0  0  0  0  0
   16.9608  -17.7149  -16.2531 C   0  0  0  0  0  0  0  0  0  0  0  0
   15.5049  -17.4548  -16.0447 C   0  0  2  0  0  0  0  0  0  0  0  0
   15.1505  -16.1200  -16.5527 N   0  0  0  0  0  0  0  0  0  0  0  0
   15.1912  -17.4334  -14.6056 C   0  0  0  0  0  0  0  0  0  0  0  0
   15.2842  -16.3850  -13.9279 O   0  0  0  0  0  0  0  0  0  0  0  0
   17.4766  -23.2023  -18.9929 N   0  0  0  0  0  0  0  0  0  0  0  0
   14.7616  -18.6100  -13.8994 C   0  0  0  0  0  0  0  0  0  0  0  0
   14.3559  -18.4780  -12.5304 C   0  0  0  0  0  0  0  0  0  0  0  0
   13.9664  -19.8142  -12.0199 O   0  0  0  0  0  0  0  0  0  0  0  0
   13.9531  -20.8130  -12.7895 C   0  0  0  0  0  0  0  0  0  0  0  0
   14.3033  -23.4175   -7.5310 C   0  0  0  0  0  0  0  0  0  0  0  0
   13.1011  -22.7807   -8.1696 C   0  0  2  0  0  0  0  0  0  0  0  0
   13.4091  -21.3959   -8.7013 C   0  0  0  0  0  0  0  0  0  0  0  0
   12.4529  -20.4087   -8.0927 C   0  0  2  0  0  0  0  0  0  0  0  0
   13.3129  -21.3546  -10.2150 N   0  0  0  0  0  0  0  0  0  0  0  0
   13.5995  -20.0051  -10.6604 C   0  0  0  0  0  0  0  0  0  0  0  0
   11.9030  -21.6587  -10.5510 O   0  0  0  0  0  0  0  0  0  0  0  0
   11.4087  -22.9388  -10.7533 O   0  0  0  0  0  0  0  0  0  0  0  0
  2  3  2  0
  2  1  1  0
  4  2  1  0
  5  4  1  0
  6  5  1  0
  7  6  1  0
  8  7  1  0
  8  9  1  1
 10 12  1  0
 10  8  1  0
 11 10  2  0
 13 12  1  0
 14 13  1  0
 14 21  1  0
 15 14  2  0
 16 17  1  0
 17 18  1  0
 18 20  1  0
 18 19  1  6
 20 21  1  6
 20 22  1  0
 22 24  2  0
 22 23  1  0
M  END
$$$$
