RGI.pdb
     RDKit          3D

 24 23  0  0  1  0  0  0  0  0999 V2000
   24.6658  -25.4682  -14.9651 N   0  0  0  0  0  0  0  0  0  0  0  0
   24.0907  -25.3243  -16.2448 C   0  0  0  0  0  0  0  0  0  0  0  0
   23.4479  -26.2653  -16.8384 N   0  0  0  0  0  0  0  0  0  0  0  0
   24.2299  -24.0703  -16.9140 N   0  0  0  0  0  0  0  0  0  0  0  0
   24.9333  -22.9623  -16.2979 C   0  0  0  0  0  0  0  0  0  0  0  0
   23.9474  -22.1191  -15.4776 C   0  0  0  0  0  0  0  0  0  0  0  0
   24.7174  -20.9980  -14.8801 C   0  0  0  0  0  0  0  0  0  0  0  0
   25.6768  -21.4757  -13.8400 C   0  0  2  0  0  0  0  0  0  0  0  0
   25.2092  -22.7467  -13.2644 N   0  0  0  0  0  0  0  0  0  0  0  0
   25.7302  -20.5222  -12.7185 C   0  0  0  0  0  0  0  0  0  0  0  0
   25.5474  -19.2955  -12.8890 O   0  0  0  0  0  0  0  0  0  0  0  0
   23.0621  -26.1280  -17.7878 N   0  0  0  0  0  0  0  0  0  0  0  0
   25.9936  -20.9434  -11.3692 C   0  0  0  0  0  0  0  0  0  0  0  0
   26.1137  -19.9422  -10.3495 C   0  0  0  0  0  0  0  0  0  0  0  0
   26.4293  -20.6095   -9.0639 O   0  0  0  0  0  0  0  0  0  0  0  0
   26.3784  -21.8658   -8.9670 C   0  0  0  0  0  0  0  0  0  0  0  0
   29.3257  -17.8817   -5.3747 C   0  0  0  0  0  0  0  0  0  0  0  0
   28.8919  -19.1104   -6.1235 C   0  0  2  0  0  0  0  0  0  0  0  0
   27.5525  -19.6259   -5.6383 C   0  0  0  0  0  0  0  0  0  0  0  0
   27.7411  -20.3335   -4.3257 C   0  0  2  0  0  0  0  0  0  0  0  0
   26.9237  -20.5621   -6.6534 N   0  0  0  0  0  0  0  0  0  0  0  0
   26.7943  -19.8585   -7.9142 C   0  0  0  0  0  0  0  0  0  0  0  0
   25.5621  -20.8632   -6.1544 O   0  0  0  0  0  0  0  0  0  0  0  0
   24.3959  -20.3951   -6.7413 O   0  0  0  0  0  0  0  0  0  0  0  0
  2  3  2  0
  2  1  1  0
  4  2  1  0
  5  4  1  0
  6  5  1  0
  7  6  1  0
  8  7  1  0
  8  9  1  1
 10 12  1  0
 10  8  1  0
 11 10  2  0
 13 12  1  0
 14 13  1  0
 14 21  1  0
 15 14  2  0
 16 17  1  0
 17 18  1  0
 18 20  1  0
 18 19  1  6
 20 21  1  6
 20 22  1  0
 22 24  2  0
 22 23  1  0
M  END
$$$$
