RGI.pdb
     RDKit          3D

 24 23  0  0  1  0  0  0  0  0999 V2000
   22.6124  -24.9156  -15.5988 N   0  0  0  0  0  0  0  0  0  0  0  0
   22.3748  -24.9993  -14.2112 C   0  0  0  0  0  0  0  0  0  0  0  0
   22.3609  -26.1094  -13.5643 N   0  0  0  0  0  0  0  0  0  0  0  0
   22.1379  -23.7899  -13.4893 N   0  0  0  0  0  0  0  0  0  0  0  0
   22.1285  -22.5036  -14.1581 C   0  0  0  0  0  0  0  0  0  0  0  0
   23.5704  -22.0164  -14.3568 C   0  0  0  0  0  0  0  0  0  0  0  0
   23.6631  -20.6593  -13.7598 C   0  0  0  0  0  0  0  0  0  0  0  0
   24.9480  -20.4631  -13.0240 C   0  0  2  0  0  0  0  0  0  0  0  0
   25.7685  -21.6821  -13.1025 N   0  0  0  0  0  0  0  0  0  0  0  0
   24.6873  -20.2458  -11.5907 C   0  0  0  0  0  0  0  0  0  0  0  0
   24.0895  -19.2262  -11.1782 O   0  0  0  0  0  0  0  0  0  0  0  0
   22.3151  -26.1216  -12.5314 N   0  0  0  0  0  0  0  0  0  0  0  0
   25.1019  -21.1882  -10.5870 C   0  0  0  0  0  0  0  0  0  0  0  0
   24.9983  -20.8107   -9.2074 C   0  0  0  0  0  0  0  0  0  0  0  0
   26.3081  -20.2787   -8.7612 O   0  0  0  0  0  0  0  0  0  0  0  0
   27.0319  -19.6165   -9.5535 C   0  0  0  0  0  0  0  0  0  0  0  0
   27.4520  -19.5876   -3.3972 C   0  0  0  0  0  0  0  0  0  0  0  0
   27.4763  -19.2801   -4.8681 C   0  0  2  0  0  0  0  0  0  0  0  0
   28.3575  -20.2456   -5.6341 C   0  0  0  0  0  0  0  0  0  0  0  0
   29.7964  -19.9820   -5.2890 C   0  0  2  0  0  0  0  0  0  0  0  0
   28.1444  -20.1149   -7.1307 N   0  0  0  0  0  0  0  0  0  0  0  0
   26.7810  -20.4988   -7.4394 C   0  0  0  0  0  0  0  0  0  0  0  0
   29.0525  -21.0962   -7.7677 O   0  0  0  0  0  0  0  0  0  0  0  0
   28.7002  -22.4038   -8.0674 O   0  0  0  0  0  0  0  0  0  0  0  0
  2  3  2  0
  2  1  1  0
  4  2  1  0
  5  4  1  0
  6  5  1  0
  7  6  1  0
  8  7  1  0
  8  9  1  1
 10 12  1  0
 10  8  1  0
 11 10  2  0
 13 12  1  0
 14 13  1  0
 14 21  1  0
 15 14  2  0
 16 17  1  0
 17 18  1  0
 18 20  1  0
 18 19  1  6
 20 21  1  6
 20 22  1  0
 22 24  2  0
 22 23  1  0
M  END
$$$$
