RGI.pdb
     RDKit          3D

 24 23  0  0  1  0  0  0  0  0999 V2000
   20.4453  -20.4034  -14.0076 N   0  0  0  0  0  0  0  0  0  0  0  0
   20.4570  -21.8126  -13.9514 C   0  0  0  0  0  0  0  0  0  0  0  0
   19.5261  -22.5035  -13.3974 N   0  0  0  0  0  0  0  0  0  0  0  0
   21.5586  -22.5057  -14.5395 N   0  0  0  0  0  0  0  0  0  0  0  0
   22.7109  -21.7907  -15.0521 C   0  0  0  0  0  0  0  0  0  0  0  0
   23.3482  -20.9664  -13.9250 C   0  0  0  0  0  0  0  0  0  0  0  0
   24.4718  -20.1991  -14.5214 C   0  0  0  0  0  0  0  0  0  0  0  0
   25.7665  -20.9356  -14.4121 C   0  0  2  0  0  0  0  0  0  0  0  0
   25.5229  -22.3354  -14.0291 N   0  0  0  0  0  0  0  0  0  0  0  0
   26.5907  -20.3617  -13.3345 C   0  0  0  0  0  0  0  0  0  0  0  0
   26.8290  -19.1344  -13.2715 O   0  0  0  0  0  0  0  0  0  0  0  0
   19.5831  -23.5351  -13.3567 N   0  0  0  0  0  0  0  0  0  0  0  0
   27.1660  -21.1743  -12.2971 C   0  0  0  0  0  0  0  0  0  0  0  0
   27.9163  -20.5303  -11.2584 C   0  0  0  0  0  0  0  0  0  0  0  0
   27.3958  -20.9831   -9.9463 O   0  0  0  0  0  0  0  0  0  0  0  0
   26.7931  -22.0861   -9.8444 C   0  0  0  0  0  0  0  0  0  0  0  0
   29.6921  -19.0407   -5.2577 C   0  0  0  0  0  0  0  0  0  0  0  0
   29.1378  -19.8996   -6.3594 C   0  0  2  0  0  0  0  0  0  0  0  0
   27.6232  -19.8761   -6.3881 C   0  0  0  0  0  0  0  0  0  0  0  0
   27.0960  -20.3644   -5.0680 C   0  0  2  0  0  0  0  0  0  0  0  0
   27.0819  -20.7319   -7.5182 N   0  0  0  0  0  0  0  0  0  0  0  0
   27.5595  -20.1932   -8.7764 C   0  0  0  0  0  0  0  0  0  0  0  0
   25.6088  -20.5820   -7.4849 O   0  0  0  0  0  0  0  0  0  0  0  0
   24.7467  -21.4884   -6.8858 O   0  0  0  0  0  0  0  0  0  0  0  0
  2  3  2  0
  2  1  1  0
  4  2  1  0
  5  4  1  0
  6  5  1  0
  7  6  1  0
  8  7  1  0
  8  9  1  1
 10 12  1  0
 10  8  1  0
 11 10  2  0
 13 12  1  0
 14 13  1  0
 14 21  1  0
 15 14  2  0
 16 17  1  0
 17 18  1  0
 18 20  1  0
 18 19  1  6
 20 21  1  6
 20 22  1  0
 22 24  2  0
 22 23  1  0
M  END
$$$$
