RGI.pdb
     RDKit          3D

 24 23  0  0  1  0  0  0  0  0999 V2000
   21.0748  -20.3886  -12.8890 N   0  0  0  0  0  0  0  0  0  0  0  0
   21.1259  -20.9756  -14.1703 C   0  0  0  0  0  0  0  0  0  0  0  0
   21.8644  -20.5278  -15.1217 N   0  0  0  0  0  0  0  0  0  0  0  0
   20.3164  -22.1248  -14.4228 N   0  0  0  0  0  0  0  0  0  0  0  0
   19.8137  -22.9445  -13.3379 C   0  0  0  0  0  0  0  0  0  0  0  0
   18.8961  -22.1034  -12.4398 C   0  0  0  0  0  0  0  0  0  0  0  0
   18.3445  -23.0104  -11.4007 C   0  0  0  0  0  0  0  0  0  0  0  0
   19.4249  -23.6516  -10.5932 C   0  0  2  0  0  0  0  0  0  0  0  0
   19.4600  -25.0997  -10.8523 N   0  0  0  0  0  0  0  0  0  0  0  0
   19.1410  -23.5075   -9.1550 C   0  0  0  0  0  0  0  0  0  0  0  0
   19.2036  -22.3970   -8.5804 O   0  0  0  0  0  0  0  0  0  0  0  0
   21.8866  -20.9972  -16.0427 N   0  0  0  0  0  0  0  0  0  0  0  0
   18.7768  -24.6287   -8.3318 C   0  0  0  0  0  0  0  0  0  0  0  0
   18.6124  -24.4199   -6.9226 C   0  0  0  0  0  0  0  0  0  0  0  0
   18.0350  -25.6476   -6.3250 O   0  0  0  0  0  0  0  0  0  0  0  0
   17.7054  -26.6201   -7.0569 C   0  0  0  0  0  0  0  0  0  0  0  0
   19.4551  -27.3473   -1.3011 C   0  0  0  0  0  0  0  0  0  0  0  0
   19.0823  -27.2557   -2.7542 C   0  0  2  0  0  0  0  0  0  0  0  0
   17.5859  -27.1198   -2.9474 C   0  0  0  0  0  0  0  0  0  0  0  0
   16.9005  -28.3224   -2.3619 C   0  0  2  0  0  0  0  0  0  0  0  0
   17.2322  -26.9776   -4.4161 N   0  0  0  0  0  0  0  0  0  0  0  0
   17.8376  -25.7616   -4.9224 C   0  0  0  0  0  0  0  0  0  0  0  0
   15.7612  -26.8171   -4.4764 O   0  0  0  0  0  0  0  0  0  0  0  0
   14.8827  -27.8203   -4.8577 O   0  0  0  0  0  0  0  0  0  0  0  0
  2  3  2  0
  2  1  1  0
  4  2  1  0
  5  4  1  0
  6  5  1  0
  7  6  1  0
  8  7  1  0
  8  9  1  6
 10 12  1  0
 10  8  1  0
 11 10  2  0
 13 12  1  0
 14 13  1  0
 14 21  1  0
 15 14  2  0
 16 17  1  0
 17 18  1  0
 18 20  1  0
 18 19  1  1
 20 21  1  6
 20 22  1  0
 22 24  2  0
 22 23  1  0
M  END
$$$$
