RGI.pdb
     RDKit          3D

 24 23  0  0  1  0  0  0  0  0999 V2000
   22.5833  -23.2341  -18.2476 N   0  0  0  0  0  0  0  0  0  0  0  0
   23.5063  -23.1392  -19.3096 C   0  0  0  0  0  0  0  0  0  0  0  0
   23.1620  -22.8917  -20.5225 N   0  0  0  0  0  0  0  0  0  0  0  0
   24.8926  -23.3279  -19.0225 N   0  0  0  0  0  0  0  0  0  0  0  0
   25.4589  -22.9277  -17.7493 C   0  0  0  0  0  0  0  0  0  0  0  0
   25.5641  -21.3975  -17.6911 C   0  0  0  0  0  0  0  0  0  0  0  0
   26.6648  -21.0670  -16.7498 C   0  0  0  0  0  0  0  0  0  0  0  0
   26.5750  -21.8629  -15.4892 C   0  0  2  0  0  0  0  0  0  0  0  0
   25.1674  -22.1487  -15.1692 N   0  0  0  0  0  0  0  0  0  0  0  0
   27.0945  -21.0811  -14.3540 C   0  0  0  0  0  0  0  0  0  0  0  0
   28.2851  -20.6968  -14.3103 O   0  0  0  0  0  0  0  0  0  0  0  0
   23.8661  -22.8634  -21.2792 N   0  0  0  0  0  0  0  0  0  0  0  0
   26.2678  -20.7155  -13.2358 C   0  0  0  0  0  0  0  0  0  0  0  0
   26.8524  -19.9531  -12.1712 C   0  0  0  0  0  0  0  0  0  0  0  0
   26.5449  -20.6215  -10.8843 O   0  0  0  0  0  0  0  0  0  0  0  0
   25.9835  -21.7505  -10.8691 C   0  0  0  0  0  0  0  0  0  0  0  0
   29.0360  -18.5369   -7.2211 C   0  0  0  0  0  0  0  0  0  0  0  0
   28.4200  -19.9021   -7.0968 C   0  0  2  0  0  0  0  0  0  0  0  0
   26.9121  -19.8579   -7.2372 C   0  0  0  0  0  0  0  0  0  0  0  0
   26.2825  -20.3713   -5.9727 C   0  0  2  0  0  0  0  0  0  0  0  0
   26.4468  -20.6785   -8.4257 N   0  0  0  0  0  0  0  0  0  0  0  0
   26.8708  -20.0133   -9.6420 C   0  0  0  0  0  0  0  0  0  0  0  0
   24.9663  -20.6642   -8.3873 O   0  0  0  0  0  0  0  0  0  0  0  0
   24.1956  -21.5909   -7.7012 O   0  0  0  0  0  0  0  0  0  0  0  0
  2  3  2  0
  2  1  1  0
  4  2  1  0
  5  4  1  0
  6  5  1  0
  7  6  1  0
  8  7  1  0
  8  9  1  1
 10 12  1  0
 10  8  1  0
 11 10  2  0
 13 12  1  0
 14 13  1  0
 14 21  1  0
 15 14  2  0
 16 17  1  0
 17 18  1  0
 18 20  1  0
 18 19  1  6
 20 21  1  6
 20 22  1  0
 22 24  2  0
 22 23  1  0
M  END
$$$$
