RGI.pdb
     RDKit          3D

 24 23  0  0  1  0  0  0  0  0999 V2000
   22.7793  -17.9830  -17.4767 N   0  0  0  0  0  0  0  0  0  0  0  0
   21.9450  -19.1166  -17.3873 C   0  0  0  0  0  0  0  0  0  0  0  0
   21.6743  -19.8732  -18.3899 N   0  0  0  0  0  0  0  0  0  0  0  0
   21.3727  -19.4393  -16.1192 N   0  0  0  0  0  0  0  0  0  0  0  0
   21.6353  -18.6283  -14.9465 C   0  0  0  0  0  0  0  0  0  0  0  0
   22.9833  -19.0317  -14.3333 C   0  0  0  0  0  0  0  0  0  0  0  0
   22.6923  -19.7894  -13.0890 C   0  0  0  0  0  0  0  0  0  0  0  0
   23.8934  -20.5262  -12.5940 C   0  0  2  0  0  0  0  0  0  0  0  0
   23.7495  -21.9665  -12.8590 N   0  0  0  0  0  0  0  0  0  0  0  0
   24.0049  -20.3960  -11.1310 C   0  0  0  0  0  0  0  0  0  0  0  0
   22.9928  -20.3544  -10.3955 O   0  0  0  0  0  0  0  0  0  0  0  0
   21.0467  -20.6883  -18.2859 N   0  0  0  0  0  0  0  0  0  0  0  0
   25.2769  -20.3100  -10.4661 C   0  0  0  0  0  0  0  0  0  0  0  0
   25.2973  -20.0505   -9.0559 C   0  0  0  0  0  0  0  0  0  0  0  0
   26.7081  -19.9476   -8.6126 O   0  0  0  0  0  0  0  0  0  0  0  0
   27.6445  -19.9442   -9.4572 C   0  0  0  0  0  0  0  0  0  0  0  0
   27.7810  -18.1201   -3.4949 C   0  0  0  0  0  0  0  0  0  0  0  0
   27.9295  -18.2478   -4.9850 C   0  0  2  0  0  0  0  0  0  0  0  0
   28.5558  -19.5694   -5.3805 C   0  0  0  0  0  0  0  0  0  0  0  0
   29.9981  -19.5792   -4.9577 C   0  0  2  0  0  0  0  0  0  0  0  0
   28.4459  -19.8038   -6.8757 N   0  0  0  0  0  0  0  0  0  0  0  0
   27.0422  -19.8512   -7.2348 C   0  0  0  0  0  0  0  0  0  0  0  0
   29.0300  -21.1405   -7.1314 O   0  0  0  0  0  0  0  0  0  0  0  0
   30.3586  -21.3597   -7.4640 O   0  0  0  0  0  0  0  0  0  0  0  0
  2  3  2  0
  2  1  1  0
  4  2  1  0
  5  4  1  0
  6  5  1  0
  7  6  1  0
  8  7  1  0
  8  9  1  1
 10 12  1  0
 10  8  1  0
 11 10  2  0
 13 12  1  0
 14 13  1  0
 14 21  1  0
 15 14  2  0
 16 17  1  0
 17 18  1  0
 18 20  1  0
 18 19  1  1
 20 21  1  6
 20 22  1  0
 22 24  2  0
 22 23  1  0
M  END
$$$$
