RGI.pdb
     RDKit          3D

 24 23  0  0  1  0  0  0  0  0999 V2000
   19.4412  -21.8358  -14.8624 N   0  0  0  0  0  0  0  0  0  0  0  0
   20.0673  -20.6786  -14.3546 C   0  0  0  0  0  0  0  0  0  0  0  0
   19.4489  -19.5683  -14.1651 N   0  0  0  0  0  0  0  0  0  0  0  0
   21.4578  -20.7443  -14.0353 N   0  0  0  0  0  0  0  0  0  0  0  0
   22.2374  -21.9357  -14.3086 C   0  0  0  0  0  0  0  0  0  0  0  0
   23.7069  -21.6840  -13.9437 C   0  0  0  0  0  0  0  0  0  0  0  0
   23.7409  -21.2566  -12.5214 C   0  0  0  0  0  0  0  0  0  0  0  0
   25.1264  -20.9227  -12.0750 C   0  0  2  0  0  0  0  0  0  0  0  0
   26.0076  -22.0895  -12.2408 N   0  0  0  0  0  0  0  0  0  0  0  0
   25.1378  -20.6120  -10.6352 C   0  0  0  0  0  0  0  0  0  0  0  0
   24.4895  -21.2947   -9.8100 O   0  0  0  0  0  0  0  0  0  0  0  0
   19.9348  -18.7534  -13.7541 N   0  0  0  0  0  0  0  0  0  0  0  0
   25.8911  -19.5120  -10.0965 C   0  0  0  0  0  0  0  0  0  0  0  0
   25.7682  -19.2161   -8.6988 C   0  0  0  0  0  0  0  0  0  0  0  0
   26.8397  -19.9320   -7.9660 O   0  0  0  0  0  0  0  0  0  0  0  0
   27.5426  -20.8007   -8.5504 C   0  0  0  0  0  0  0  0  0  0  0  0
   29.2424  -17.1406   -4.1302 C   0  0  0  0  0  0  0  0  0  0  0  0
   29.1369  -18.1107   -5.2732 C   0  0  2  0  0  0  0  0  0  0  0  0
   28.7103  -19.4884   -4.8092 C   0  0  0  0  0  0  0  0  0  0  0  0
   29.8680  -20.1603   -4.1255 C   0  0  2  0  0  0  0  0  0  0  0  0
   28.2251  -20.3339   -5.9719 N   0  0  0  0  0  0  0  0  0  0  0  0
   27.1021  -19.6622   -6.5957 C   0  0  0  0  0  0  0  0  0  0  0  0
   27.7334  -21.6027   -5.3872 O   0  0  0  0  0  0  0  0  0  0  0  0
   28.5492  -22.6714   -5.0465 O   0  0  0  0  0  0  0  0  0  0  0  0
  2  3  2  0
  2  1  1  0
  4  2  1  0
  5  4  1  0
  6  5  1  0
  7  6  1  0
  8  7  1  0
  8  9  1  1
 10 12  1  0
 10  8  1  0
 11 10  2  0
 13 12  1  0
 14 13  1  0
 14 21  1  0
 15 14  2  0
 16 17  1  0
 17 18  1  0
 18 20  1  0
 18 19  1  1
 20 21  1  6
 20 22  1  0
 22 24  2  0
 22 23  1  0
M  END
$$$$
