FAC.pdb
     RDKit          3D

 23 23  0  0  1  0  0  0  0  0999 V2000
    8.5107  -16.6655   26.7291 N   0  0  0  0  0  0  0  0  0  0  0  0
    7.5802  -16.3977   25.6819 C   0  0  1  0  0  0  0  0  0  0  0  0
    7.9657  -15.0506   25.0570 C   0  0  0  0  0  0  0  0  0  0  0  0
    7.5048  -13.9949   25.9954 C   0  0  0  0  0  0  0  0  0  0  0  0
    6.1473  -13.8470   26.2934 C   0  0  0  0  0  0  0  0  0  0  0  0
    5.6939  -12.8834   27.1543 C   0  0  0  0  0  0  0  0  0  0  0  0
    6.5844  -12.0249   27.7546 C   0  0  0  0  0  0  0  0  0  0  0  0
    7.9396  -12.1320   27.4909 C   0  0  0  0  0  0  0  0  0  0  0  0
    8.3735  -13.1191   26.6130 C   0  0  0  0  0  0  0  0  0  0  0  0
    7.6228  -17.4615   24.6159 C   0  0  0  0  0  0  0  0  0  0  0  0
    8.6120  -18.1837   24.4348 O   0  0  0  0  0  0  0  0  0  0  0  0
    5.0564  -18.7843   22.2631 C   0  0  0  0  0  0  0  0  0  0  0  0
    6.4942  -18.5210   22.6771 C   0  0  2  0  0  0  0  0  0  0  0  0
    6.4886  -17.6325   23.7997 N   0  0  0  0  0  0  0  0  0  0  0  0
    7.2095  -17.9676   21.4966 C   0  0  0  0  0  0  0  0  0  0  0  0
    7.3505  -18.5819   20.4208 O   0  0  0  0  0  0  0  0  0  0  0  0
    7.7557  -16.6707   21.6147 N   0  0  0  0  0  0  0  0  0  0  0  0
    8.5411  -16.0255   20.5858 C   0  0  1  0  0  0  0  0  0  0  0  0
    7.9981  -14.6305   20.3578 C   0  0  0  0  0  0  0  0  0  0  0  0
    7.7008  -13.7524   21.8921 S   0  0  0  0  0  0  0  0  0  0  0  0
    9.9428  -15.9538   21.0466 C   0  0  0  0  0  0  0  0  0  0  0  0
   10.2769  -16.3749   22.3167 O   0  0  0  0  0  0  0  0  0  0  0  0
   10.8358  -15.5118   20.2906 O   0  0  0  0  0  0  0  0  0  0  0  0
  2  1  1  1
  2 10  1  0
  3  2  1  0
  4  3  1  0
  5  4  2  0
  6  5  1  0
  7  8  1  0
  7  6  2  0
  8  9  2  0
  9  4  1  0
 10 14  1  0
 10 11  2  0
 13 12  1  6
 14 13  1  0
 15 13  1  0
 15 17  1  0
 16 15  2  0
 18 17  1  0
 18 21  1  0
 18 19  1  1
 19 20  1  0
 21 22  1  0
 23 21  2  0
M  END
$$$$
