FAC.pdb
     RDKit          3D

 23 23  0  0  1  0  0  0  0  0999 V2000
    6.0141  -17.2315   24.3572 N   0  0  0  0  0  0  0  0  0  0  0  0
    7.0744  -16.2950   24.5392 C   0  0  1  0  0  0  0  0  0  0  0  0
    6.9410  -15.7182   25.9546 C   0  0  0  0  0  0  0  0  0  0  0  0
    6.6764  -14.2641   25.8018 C   0  0  0  0  0  0  0  0  0  0  0  0
    7.6256  -13.4231   25.2143 C   0  0  0  0  0  0  0  0  0  0  0  0
    7.4090  -12.0797   25.0605 C   0  0  0  0  0  0  0  0  0  0  0  0
    6.2286  -11.5209   25.4902 C   0  0  0  0  0  0  0  0  0  0  0  0
    5.2573  -12.3134   26.0786 C   0  0  0  0  0  0  0  0  0  0  0  0
    5.5024  -13.6744   26.2228 C   0  0  0  0  0  0  0  0  0  0  0  0
    8.4239  -16.9511   24.4037 C   0  0  0  0  0  0  0  0  0  0  0  0
    8.6459  -18.1048   24.7944 O   0  0  0  0  0  0  0  0  0  0  0  0
   11.5130  -15.9765   22.5873 C   0  0  0  0  0  0  0  0  0  0  0  0
   10.7867  -16.7503   23.6745 C   0  0  2  0  0  0  0  0  0  0  0  0
    9.4657  -16.2150   23.8083 N   0  0  0  0  0  0  0  0  0  0  0  0
   11.5912  -16.6408   24.9204 C   0  0  0  0  0  0  0  0  0  0  0  0
   12.7784  -17.0101   25.0137 O   0  0  0  0  0  0  0  0  0  0  0  0
   10.9618  -16.0847   26.0557 N   0  0  0  0  0  0  0  0  0  0  0  0
   11.6306  -15.8398   27.3143 C   0  0  1  0  0  0  0  0  0  0  0  0
   11.0605  -14.5819   27.9352 C   0  0  0  0  0  0  0  0  0  0  0  0
    9.2735  -14.6332   28.0676 S   0  0  0  0  0  0  0  0  0  0  0  0
   11.3901  -16.9959   28.2019 C   0  0  0  0  0  0  0  0  0  0  0  0
   12.0393  -17.0845   29.4154 O   0  0  0  0  0  0  0  0  0  0  0  0
   10.5976  -17.9016   27.8610 O   0  0  0  0  0  0  0  0  0  0  0  0
  2  1  1  1
  2 10  1  0
  3  2  1  0
  4  3  1  0
  5  4  2  0
  6  5  1  0
  7  8  1  0
  7  6  2  0
  8  9  2  0
  9  4  1  0
 10 14  1  0
 10 11  2  0
 13 12  1  6
 14 13  1  0
 15 13  1  0
 15 17  1  0
 16 15  2  0
 18 17  1  0
 18 21  1  0
 18 19  1  1
 19 20  1  0
 21 22  1  0
 23 21  2  0
M  END
$$$$
