FAC.pdb
     RDKit          3D

 23 23  0  0  1  0  0  0  0  0999 V2000
    9.3542  -16.6423   21.3249 N   0  0  0  0  0  0  0  0  0  0  0  0
    9.0512  -15.7427   22.3895 C   0  0  1  0  0  0  0  0  0  0  0  0
    7.5802  -15.3330   22.2414 C   0  0  0  0  0  0  0  0  0  0  0  0
    7.5339  -14.2680   21.2064 C   0  0  0  0  0  0  0  0  0  0  0  0
    7.0732  -14.5450   19.9162 C   0  0  0  0  0  0  0  0  0  0  0  0
    7.0195  -13.5836   18.9426 C   0  0  0  0  0  0  0  0  0  0  0  0
    7.4263  -12.3003   19.2217 C   0  0  0  0  0  0  0  0  0  0  0  0
    7.8906  -11.9769   20.4856 C   0  0  0  0  0  0  0  0  0  0  0  0
    7.9349  -12.9718   21.4559 C   0  0  0  0  0  0  0  0  0  0  0  0
    9.2454  -16.3906   23.7358 C   0  0  0  0  0  0  0  0  0  0  0  0
    8.8242  -15.8856   24.7848 O   0  0  0  0  0  0  0  0  0  0  0  0
   11.2247  -19.3933   24.7501 C   0  0  0  0  0  0  0  0  0  0  0  0
   10.3094  -18.2152   25.0372 C   0  0  2  0  0  0  0  0  0  0  0  0
    9.9336  -17.6173   23.7918 N   0  0  0  0  0  0  0  0  0  0  0  0
   11.0413  -17.2836   25.9360 C   0  0  0  0  0  0  0  0  0  0  0  0
   11.8315  -16.4079   25.5318 O   0  0  0  0  0  0  0  0  0  0  0  0
   10.8194  -17.4091   27.3249 N   0  0  0  0  0  0  0  0  0  0  0  0
   11.0121  -16.3370   28.2763 C   0  0  1  0  0  0  0  0  0  0  0  0
    9.9823  -15.2583   28.0138 C   0  0  0  0  0  0  0  0  0  0  0  0
   10.5170  -13.6469   28.5891 S   0  0  0  0  0  0  0  0  0  0  0  0
   10.8354  -16.8848   29.6369 C   0  0  0  0  0  0  0  0  0  0  0  0
   10.2897  -18.1390   29.8131 O   0  0  0  0  0  0  0  0  0  0  0  0
   11.1783  -16.2173   30.6375 O   0  0  0  0  0  0  0  0  0  0  0  0
  2  1  1  6
  2 10  1  0
  3  2  1  0
  4  3  1  0
  5  4  2  0
  6  5  1  0
  7  8  1  0
  7  6  2  0
  8  9  2  0
  9  4  1  0
 10 14  1  0
 10 11  2  0
 13 12  1  6
 14 13  1  0
 15 13  1  0
 15 17  1  0
 16 15  2  0
 18 17  1  0
 18 21  1  0
 18 19  1  6
 19 20  1  0
 21 22  1  0
 23 21  2  0
M  END
$$$$
