FAC.pdb
     RDKit          3D

 23 23  0  0  1  0  0  0  0  0999 V2000
    6.1825  -17.6055   25.6165 N   0  0  0  0  0  0  0  0  0  0  0  0
    6.5688  -16.3321   25.1033 C   0  0  1  0  0  0  0  0  0  0  0  0
    7.5701  -15.7216   26.0924 C   0  0  0  0  0  0  0  0  0  0  0  0
    7.1485  -14.3144   26.3157 C   0  0  0  0  0  0  0  0  0  0  0  0
    5.8180  -14.0056   26.6116 C   0  0  0  0  0  0  0  0  0  0  0  0
    5.4011  -12.7183   26.8221 C   0  0  0  0  0  0  0  0  0  0  0  0
    6.3027  -11.6832   26.7446 C   0  0  0  0  0  0  0  0  0  0  0  0
    7.6323  -11.9390   26.4541 C   0  0  0  0  0  0  0  0  0  0  0  0
    8.0293  -13.2550   26.2447 C   0  0  0  0  0  0  0  0  0  0  0  0
    7.2271  -16.4540   23.7536 C   0  0  0  0  0  0  0  0  0  0  0  0
    7.7910  -17.4906   23.3788 O   0  0  0  0  0  0  0  0  0  0  0  0
    7.3827  -14.0873   20.8601 C   0  0  0  0  0  0  0  0  0  0  0  0
    7.6515  -15.4196   21.5388 C   0  0  2  0  0  0  0  0  0  0  0  0
    7.1939  -15.3404   22.8931 N   0  0  0  0  0  0  0  0  0  0  0  0
    9.1086  -15.6962   21.4290 C   0  0  0  0  0  0  0  0  0  0  0  0
    9.8511  -15.1725   20.5751 O   0  0  0  0  0  0  0  0  0  0  0  0
    9.6705  -16.6061   22.3511 N   0  0  0  0  0  0  0  0  0  0  0  0
   11.0919  -16.7965   22.5379 C   0  0  1  0  0  0  0  0  0  0  0  0
   11.7148  -15.4749   22.9358 C   0  0  0  0  0  0  0  0  0  0  0  0
   13.4364  -15.6437   23.4062 S   0  0  0  0  0  0  0  0  0  0  0  0
   11.2911  -17.7929   23.6102 C   0  0  0  0  0  0  0  0  0  0  0  0
   12.4567  -18.5281   23.6648 O   0  0  0  0  0  0  0  0  0  0  0  0
   10.4066  -17.9775   24.4751 O   0  0  0  0  0  0  0  0  0  0  0  0
  2  1  1  1
  2 10  1  0
  3  2  1  0
  4  3  1  0
  5  4  2  0
  6  5  1  0
  7  8  1  0
  7  6  2  0
  8  9  2  0
  9  4  1  0
 10 14  1  0
 10 11  2  0
 13 12  1  1
 14 13  1  0
 15 13  1  0
 15 17  1  0
 16 15  2  0
 18 17  1  0
 18 21  1  0
 18 19  1  1
 19 20  1  0
 21 22  1  0
 23 21  2  0
M  END
$$$$
