FAC.pdb
     RDKit          3D

 23 23  0  0  1  0  0  0  0  0999 V2000
    6.9288  -16.2007   24.6687 N   0  0  0  0  0  0  0  0  0  0  0  0
    7.0873  -15.0432   23.8506 C   0  0  1  0  0  0  0  0  0  0  0  0
    8.2147  -14.1997   24.4600 C   0  0  0  0  0  0  0  0  0  0  0  0
    7.6322  -13.4817   25.6231 C   0  0  0  0  0  0  0  0  0  0  0  0
    6.5056  -12.6688   25.4698 C   0  0  0  0  0  0  0  0  0  0  0  0
    5.9476  -11.9954   26.5235 C   0  0  0  0  0  0  0  0  0  0  0  0
    6.4966  -12.1086   27.7789 C   0  0  0  0  0  0  0  0  0  0  0  0
    7.6132  -12.9023   27.9810 C   0  0  0  0  0  0  0  0  0  0  0  0
    8.1602  -13.5752   26.8942 C   0  0  0  0  0  0  0  0  0  0  0  0
    7.4595  -15.4092   22.4373 C   0  0  0  0  0  0  0  0  0  0  0  0
    7.7515  -16.5651   22.1034 O   0  0  0  0  0  0  0  0  0  0  0  0
    7.4846  -13.3893   19.2898 C   0  0  0  0  0  0  0  0  0  0  0  0
    7.6847  -14.6719   20.0791 C   0  0  2  0  0  0  0  0  0  0  0  0
    7.4726  -14.3897   21.4666 N   0  0  0  0  0  0  0  0  0  0  0  0
    9.0541  -15.1727   19.7867 C   0  0  0  0  0  0  0  0  0  0  0  0
    9.4084  -15.6135   18.6755 O   0  0  0  0  0  0  0  0  0  0  0  0
    9.9974  -15.1415   20.8371 N   0  0  0  0  0  0  0  0  0  0  0  0
   11.3160  -15.7305   20.7597 C   0  0  1  0  0  0  0  0  0  0  0  0
   12.3448  -14.6213   20.6951 C   0  0  0  0  0  0  0  0  0  0  0  0
   12.4901  -13.9172   19.0530 S   0  0  0  0  0  0  0  0  0  0  0  0
   11.5312  -16.5504   21.9696 C   0  0  0  0  0  0  0  0  0  0  0  0
   12.6859  -17.2916   22.1076 O   0  0  0  0  0  0  0  0  0  0  0  0
   10.6702  -16.5789   22.8764 O   0  0  0  0  0  0  0  0  0  0  0  0
  2  1  1  1
  2 10  1  0
  3  2  1  0
  4  3  1  0
  5  4  2  0
  6  5  1  0
  7  8  1  0
  7  6  2  0
  8  9  2  0
  9  4  1  0
 10 14  1  0
 10 11  2  0
 13 12  1  6
 14 13  1  0
 15 13  1  0
 15 17  1  0
 16 15  2  0
 18 17  1  0
 18 21  1  0
 18 19  1  1
 19 20  1  0
 21 22  1  0
 23 21  2  0
M  END
$$$$
