FAC.pdb
     RDKit          3D

 23 23  0  0  1  0  0  0  0  0999 V2000
    5.8040  -18.1240   22.0551 N   0  0  0  0  0  0  0  0  0  0  0  0
    6.7390  -17.0471   22.0710 C   0  0  1  0  0  0  0  0  0  0  0  0
    5.9431  -15.7493   22.2604 C   0  0  0  0  0  0  0  0  0  0  0  0
    6.8400  -14.6341   21.8610 C   0  0  0  0  0  0  0  0  0  0  0  0
    7.2410  -14.4810   20.5308 C   0  0  0  0  0  0  0  0  0  0  0  0
    8.0666  -13.4632   20.1341 C   0  0  0  0  0  0  0  0  0  0  0  0
    8.5267  -12.5531   21.0563 C   0  0  0  0  0  0  0  0  0  0  0  0
    8.1571  -12.6630   22.3863 C   0  0  0  0  0  0  0  0  0  0  0  0
    7.3178  -13.7057   22.7627 C   0  0  0  0  0  0  0  0  0  0  0  0
    7.7256  -17.1851   23.2012 C   0  0  0  0  0  0  0  0  0  0  0  0
    7.3729  -17.3246   24.3798 O   0  0  0  0  0  0  0  0  0  0  0  0
   11.4361  -17.5198   23.2726 C   0  0  0  0  0  0  0  0  0  0  0  0
   10.1013  -17.1846   23.9162 C   0  0  2  0  0  0  0  0  0  0  0  0
    9.0991  -17.1530   22.8943 N   0  0  0  0  0  0  0  0  0  0  0  0
   10.2554  -15.8862   24.6247 C   0  0  0  0  0  0  0  0  0  0  0  0
   10.7923  -14.8805   24.1199 O   0  0  0  0  0  0  0  0  0  0  0  0
    9.7607  -15.8015   25.9446 N   0  0  0  0  0  0  0  0  0  0  0  0
    9.9662  -14.6653   26.8156 C   0  0  1  0  0  0  0  0  0  0  0  0
    8.6785  -13.8729   26.8988 C   0  0  0  0  0  0  0  0  0  0  0  0
    8.6486  -12.4932   25.7546 S   0  0  0  0  0  0  0  0  0  0  0  0
   10.3392  -15.1665   28.1542 C   0  0  0  0  0  0  0  0  0  0  0  0
   10.7615  -14.2880   29.1299 O   0  0  0  0  0  0  0  0  0  0  0  0
   10.2753  -16.3885   28.4131 O   0  0  0  0  0  0  0  0  0  0  0  0
  2  1  1  1
  2 10  1  0
  3  2  1  0
  4  3  1  0
  5  4  2  0
  6  5  1  0
  7  8  1  0
  7  6  2  0
  8  9  2  0
  9  4  1  0
 10 14  1  0
 10 11  2  0
 13 12  1  6
 14 13  1  0
 15 13  1  0
 15 17  1  0
 16 15  2  0
 18 17  1  0
 18 21  1  0
 18 19  1  1
 19 20  1  0
 21 22  1  0
 23 21  2  0
M  END
$$$$
