FAC.pdb
     RDKit          3D

 23 23  0  0  1  0  0  0  0  0999 V2000
    5.5596  -18.1920   19.9892 N   0  0  0  0  0  0  0  0  0  0  0  0
    6.4840  -17.1091   20.0738 C   0  0  1  0  0  0  0  0  0  0  0  0
    5.8249  -16.0057   20.9116 C   0  0  0  0  0  0  0  0  0  0  0  0
    6.7698  -14.8593   20.9303 C   0  0  0  0  0  0  0  0  0  0  0  0
    7.3527  -14.4332   22.1270 C   0  0  0  0  0  0  0  0  0  0  0  0
    8.2267  -13.3800   22.1741 C   0  0  0  0  0  0  0  0  0  0  0  0
    8.5542  -12.7074   21.0206 C   0  0  0  0  0  0  0  0  0  0  0  0
    8.0025  -13.0923   19.8102 C   0  0  0  0  0  0  0  0  0  0  0  0
    7.1179  -14.1649   19.7901 C   0  0  0  0  0  0  0  0  0  0  0  0
    7.7692  -17.5271   20.7398 C   0  0  0  0  0  0  0  0  0  0  0  0
    7.8206  -17.8816   21.9250 O   0  0  0  0  0  0  0  0  0  0  0  0
   11.1724  -18.2078   19.4102 C   0  0  0  0  0  0  0  0  0  0  0  0
   10.2198  -17.8591   20.5410 C   0  0  2  0  0  0  0  0  0  0  0  0
    8.9515  -17.5102   19.9759 N   0  0  0  0  0  0  0  0  0  0  0  0
   10.8346  -16.7547   21.3246 C   0  0  0  0  0  0  0  0  0  0  0  0
   11.0270  -15.6084   20.8736 O   0  0  0  0  0  0  0  0  0  0  0  0
   11.2179  -17.0343   22.6547 N   0  0  0  0  0  0  0  0  0  0  0  0
   11.8631  -16.0804   23.5295 C   0  0  1  0  0  0  0  0  0  0  0  0
   11.1904  -16.1265   24.8854 C   0  0  0  0  0  0  0  0  0  0  0  0
    9.5679  -15.3643   24.8708 S   0  0  0  0  0  0  0  0  0  0  0  0
   13.2863  -16.4551   23.6579 C   0  0  0  0  0  0  0  0  0  0  0  0
   14.2124  -15.5241   24.0791 O   0  0  0  0  0  0  0  0  0  0  0  0
   13.6620  -17.6168   23.3863 O   0  0  0  0  0  0  0  0  0  0  0  0
  2  1  1  1
  2 10  1  0
  3  2  1  0
  4  3  1  0
  5  4  2  0
  6  5  1  0
  7  8  1  0
  7  6  2  0
  8  9  2  0
  9  4  1  0
 10 14  1  0
 10 11  2  0
 13 12  1  6
 14 13  1  0
 15 13  1  0
 15 17  1  0
 16 15  2  0
 18 17  1  0
 18 21  1  0
 18 19  1  1
 19 20  1  0
 21 22  1  0
 23 21  2  0
M  END
$$$$
