FAC.pdb
     RDKit          3D

 23 23  0  0  1  0  0  0  0  0999 V2000
    6.4806  -17.0605   25.8473 N   0  0  0  0  0  0  0  0  0  0  0  0
    6.7885  -15.9220   25.0452 C   0  0  1  0  0  0  0  0  0  0  0  0
    8.0143  -15.2395   25.6659 C   0  0  0  0  0  0  0  0  0  0  0  0
    7.5359  -13.9728   26.2778 C   0  0  0  0  0  0  0  0  0  0  0  0
    6.2406  -13.5071   26.0358 C   0  0  0  0  0  0  0  0  0  0  0  0
    5.7729  -12.3437   26.5861 C   0  0  0  0  0  0  0  0  0  0  0  0
    6.5860  -11.5956   27.4043 C   0  0  0  0  0  0  0  0  0  0  0  0
    7.8777  -12.0158   27.6739 C   0  0  0  0  0  0  0  0  0  0  0  0
    8.3278  -13.2008   27.1025 C   0  0  0  0  0  0  0  0  0  0  0  0
    7.1124  -16.3134   23.6269 C   0  0  0  0  0  0  0  0  0  0  0  0
    7.2770  -17.4911   23.2820 O   0  0  0  0  0  0  0  0  0  0  0  0
    7.2653  -14.3648   20.4562 C   0  0  0  0  0  0  0  0  0  0  0  0
    7.6107  -15.5711   21.3126 C   0  0  2  0  0  0  0  0  0  0  0  0
    7.2303  -15.2928   22.6644 N   0  0  0  0  0  0  0  0  0  0  0  0
    9.0662  -15.8333   21.1567 C   0  0  0  0  0  0  0  0  0  0  0  0
    9.6064  -16.1198   20.0701 O   0  0  0  0  0  0  0  0  0  0  0  0
    9.8710  -15.7497   22.3140 N   0  0  0  0  0  0  0  0  0  0  0  0
   11.2881  -16.0375   22.3379 C   0  0  1  0  0  0  0  0  0  0  0  0
   11.9936  -14.9586   23.1324 C   0  0  0  0  0  0  0  0  0  0  0  0
   13.6859  -15.3967   23.5294 S   0  0  0  0  0  0  0  0  0  0  0  0
   11.4853  -17.3517   22.9832 C   0  0  0  0  0  0  0  0  0  0  0  0
   12.5893  -18.1175   22.6720 O   0  0  0  0  0  0  0  0  0  0  0  0
   10.6549  -17.7795   23.8149 O   0  0  0  0  0  0  0  0  0  0  0  0
  2  1  1  1
  2 10  1  0
  3  2  1  0
  4  3  1  0
  5  4  2  0
  6  5  1  0
  7  8  1  0
  7  6  2  0
  8  9  2  0
  9  4  1  0
 10 14  1  0
 10 11  2  0
 13 12  1  6
 14 13  1  0
 15 13  1  0
 15 17  1  0
 16 15  2  0
 18 17  1  0
 18 21  1  0
 18 19  1  1
 19 20  1  0
 21 22  1  0
 23 21  2  0
M  END
$$$$
