FAC.pdb
     RDKit          3D

 23 23  0  0  1  0  0  0  0  0999 V2000
    9.6249  -16.1802   20.5869 N   0  0  0  0  0  0  0  0  0  0  0  0
    8.7404  -16.5270   21.6507 C   0  0  1  0  0  0  0  0  0  0  0  0
    7.3317  -16.0757   21.2436 C   0  0  0  0  0  0  0  0  0  0  0  0
    7.4085  -14.6152   20.9810 C   0  0  0  0  0  0  0  0  0  0  0  0
    7.3460  -14.1198   19.6756 C   0  0  0  0  0  0  0  0  0  0  0  0
    7.4143  -12.7794   19.4039 C   0  0  0  0  0  0  0  0  0  0  0  0
    7.5484  -11.8763   20.4319 C   0  0  0  0  0  0  0  0  0  0  0  0
    7.6148  -12.3188   21.7424 C   0  0  0  0  0  0  0  0  0  0  0  0
    7.5431  -13.6850   21.9908 C   0  0  0  0  0  0  0  0  0  0  0  0
    8.7254  -18.0131   21.8981 C   0  0  0  0  0  0  0  0  0  0  0  0
    7.9311  -18.5498   22.6817 O   0  0  0  0  0  0  0  0  0  0  0  0
   10.2026  -20.9422   20.2552 C   0  0  0  0  0  0  0  0  0  0  0  0
    9.8484  -20.1943   21.5292 C   0  0  2  0  0  0  0  0  0  0  0  0
    9.6547  -18.8130   21.2066 N   0  0  0  0  0  0  0  0  0  0  0  0
   10.9483  -20.4185   22.5047 C   0  0  0  0  0  0  0  0  0  0  0  0
   11.3905  -21.5452   22.8039 O   0  0  0  0  0  0  0  0  0  0  0  0
   11.5154  -19.2810   23.1200 N   0  0  0  0  0  0  0  0  0  0  0  0
   12.6136  -19.3311   24.0598 C   0  0  1  0  0  0  0  0  0  0  0  0
   13.3708  -18.0212   23.9982 C   0  0  0  0  0  0  0  0  0  0  0  0
   12.3274  -16.6096   24.3614 S   0  0  0  0  0  0  0  0  0  0  0  0
   12.0585  -19.5314   25.4141 C   0  0  0  0  0  0  0  0  0  0  0  0
   12.8899  -19.8746   26.4596 O   0  0  0  0  0  0  0  0  0  0  0  0
   10.8333  -19.3918   25.6230 O   0  0  0  0  0  0  0  0  0  0  0  0
  2  1  1  6
  2 10  1  0
  3  2  1  0
  4  3  1  0
  5  4  2  0
  6  5  1  0
  7  8  1  0
  7  6  2  0
  8  9  2  0
  9  4  1  0
 10 14  1  0
 10 11  2  0
 13 12  1  6
 14 13  1  0
 15 13  1  0
 15 17  1  0
 16 15  2  0
 18 17  1  0
 18 21  1  0
 18 19  1  1
 19 20  1  0
 21 22  1  0
 23 21  2  0
M  END
$$$$
