FAC.pdb
     RDKit          3D

 23 23  0  0  1  0  0  0  0  0999 V2000
    6.4648  -16.6124   22.1724 N   0  0  0  0  0  0  0  0  0  0  0  0
    7.3633  -16.0268   23.1125 C   0  0  1  0  0  0  0  0  0  0  0  0
    6.6405  -15.9670   24.4644 C   0  0  0  0  0  0  0  0  0  0  0  0
    6.7047  -14.5551   24.9228 C   0  0  0  0  0  0  0  0  0  0  0  0
    7.4047  -13.5957   24.1859 C   0  0  0  0  0  0  0  0  0  0  0  0
    7.4807  -12.2878   24.5841 C   0  0  0  0  0  0  0  0  0  0  0  0
    6.8566  -11.8848   25.7410 C   0  0  0  0  0  0  0  0  0  0  0  0
    6.1507  -12.7987   26.5053 C   0  0  0  0  0  0  0  0  0  0  0  0
    6.0892  -14.1206   26.0785 C   0  0  0  0  0  0  0  0  0  0  0  0
    8.6187  -16.8457   23.2649 C   0  0  0  0  0  0  0  0  0  0  0  0
    8.8697  -17.8206   22.5441 O   0  0  0  0  0  0  0  0  0  0  0  0
   11.5391  -16.2993   22.9685 C   0  0  0  0  0  0  0  0  0  0  0  0
   10.9078  -16.8835   24.2208 C   0  0  2  0  0  0  0  0  0  0  0  0
    9.5351  -16.4797   24.2689 N   0  0  0  0  0  0  0  0  0  0  0  0
   11.6982  -16.4093   25.3879 C   0  0  0  0  0  0  0  0  0  0  0  0
   12.9173  -16.6264   25.5338 O   0  0  0  0  0  0  0  0  0  0  0  0
   11.0163  -15.6718   26.3804 N   0  0  0  0  0  0  0  0  0  0  0  0
   11.5421  -15.4138   27.7027 C   0  0  1  0  0  0  0  0  0  0  0  0
   10.9605  -14.1132   28.2158 C   0  0  0  0  0  0  0  0  0  0  0  0
    9.2016  -13.9772   27.8977 S   0  0  0  0  0  0  0  0  0  0  0  0
   11.1458  -16.5289   28.5870 C   0  0  0  0  0  0  0  0  0  0  0  0
   11.7199  -16.6618   29.8339 O   0  0  0  0  0  0  0  0  0  0  0  0
   10.2885  -17.3593   28.2130 O   0  0  0  0  0  0  0  0  0  0  0  0
  2  1  1  6
  2 10  1  0
  3  2  1  0
  4  3  1  0
  5  4  2  0
  6  5  1  0
  7  8  1  0
  7  6  2  0
  8  9  2  0
  9  4  1  0
 10 14  1  0
 10 11  2  0
 13 12  1  6
 14 13  1  0
 15 13  1  0
 15 17  1  0
 16 15  2  0
 18 17  1  0
 18 21  1  0
 18 19  1  1
 19 20  1  0
 21 22  1  0
 23 21  2  0
M  END
$$$$
