FAC.pdb
     RDKit          3D

 23 23  0  0  1  0  0  0  0  0999 V2000
    6.0653  -17.6463   23.2560 N   0  0  0  0  0  0  0  0  0  0  0  0
    6.8370  -16.6033   23.8482 C   0  0  1  0  0  0  0  0  0  0  0  0
    6.1497  -16.2117   25.1627 C   0  0  0  0  0  0  0  0  0  0  0  0
    6.8263  -14.9821   25.6506 C   0  0  0  0  0  0  0  0  0  0  0  0
    7.1303  -13.9377   24.7729 C   0  0  0  0  0  0  0  0  0  0  0  0
    7.7531  -12.7934   25.1944 C   0  0  0  0  0  0  0  0  0  0  0  0
    8.0987  -12.6469   26.5171 C   0  0  0  0  0  0  0  0  0  0  0  0
    7.8183  -13.6542   27.4250 C   0  0  0  0  0  0  0  0  0  0  0  0
    7.1852  -14.8059   26.9710 C   0  0  0  0  0  0  0  0  0  0  0  0
    8.2432  -17.0543   24.1470 C   0  0  0  0  0  0  0  0  0  0  0  0
    8.4917  -18.0083   24.8960 O   0  0  0  0  0  0  0  0  0  0  0  0
   11.4981  -16.3471   22.5747 C   0  0  0  0  0  0  0  0  0  0  0  0
   10.6744  -16.7012   23.8011 C   0  0  2  0  0  0  0  0  0  0  0  0
    9.3083  -16.3570   23.5462 N   0  0  0  0  0  0  0  0  0  0  0  0
   11.2547  -15.9723   24.9602 C   0  0  0  0  0  0  0  0  0  0  0  0
   11.8274  -14.8685   24.8688 O   0  0  0  0  0  0  0  0  0  0  0  0
   11.1438  -16.5765   26.2317 N   0  0  0  0  0  0  0  0  0  0  0  0
   11.6997  -16.0192   27.4449 C   0  0  1  0  0  0  0  0  0  0  0  0
   11.0473  -14.6790   27.7119 C   0  0  0  0  0  0  0  0  0  0  0  0
    9.4050  -14.8443   28.4111 S   0  0  0  0  0  0  0  0  0  0  0  0
   11.4171  -16.9499   28.5568 C   0  0  0  0  0  0  0  0  0  0  0  0
   11.9667  -16.7284   29.8022 O   0  0  0  0  0  0  0  0  0  0  0  0
   10.6790  -17.9437   28.3784 O   0  0  0  0  0  0  0  0  0  0  0  0
  2  1  1  1
  2 10  1  0
  3  2  1  0
  4  3  1  0
  5  4  2  0
  6  5  1  0
  7  8  1  0
  7  6  2  0
  8  9  2  0
  9  4  1  0
 10 14  1  0
 10 11  2  0
 13 12  1  6
 14 13  1  0
 15 13  1  0
 15 17  1  0
 16 15  2  0
 18 17  1  0
 18 21  1  0
 18 19  1  1
 19 20  1  0
 21 22  1  0
 23 21  2  0
M  END
$$$$
