FAC.pdb
     RDKit          3D

 23 23  0  0  1  0  0  0  0  0999 V2000
    5.7088  -17.8424   25.2993 N   0  0  0  0  0  0  0  0  0  0  0  0
    6.2792  -16.5615   25.0381 C   0  0  1  0  0  0  0  0  0  0  0  0
    7.2859  -16.2689   26.1582 C   0  0  0  0  0  0  0  0  0  0  0  0
    7.2620  -14.8004   26.3833 C   0  0  0  0  0  0  0  0  0  0  0  0
    6.0517  -14.1247   26.5626 C   0  0  0  0  0  0  0  0  0  0  0  0
    5.9995  -12.7724   26.7718 C   0  0  0  0  0  0  0  0  0  0  0  0
    7.1612  -12.0381   26.8102 C   0  0  0  0  0  0  0  0  0  0  0  0
    8.3850  -12.6627   26.6378 C   0  0  0  0  0  0  0  0  0  0  0  0
    8.4101  -14.0368   26.4270 C   0  0  0  0  0  0  0  0  0  0  0  0
    6.9984  -16.5336   23.7145 C   0  0  0  0  0  0  0  0  0  0  0  0
    7.5357  -17.5369   23.2271 O   0  0  0  0  0  0  0  0  0  0  0  0
    7.4523  -13.7997   21.1999 C   0  0  0  0  0  0  0  0  0  0  0  0
    7.6046  -15.2283   21.6936 C   0  0  2  0  0  0  0  0  0  0  0  0
    7.0557  -15.3144   23.0130 N   0  0  0  0  0  0  0  0  0  0  0  0
    9.0501  -15.5733   21.6378 C   0  0  0  0  0  0  0  0  0  0  0  0
    9.7886  -15.3104   20.6681 O   0  0  0  0  0  0  0  0  0  0  0  0
    9.6053  -16.2366   22.7540 N   0  0  0  0  0  0  0  0  0  0  0  0
   11.0161  -16.5120   22.9137 C   0  0  1  0  0  0  0  0  0  0  0  0
   11.7733  -15.2006   22.9203 C   0  0  0  0  0  0  0  0  0  0  0  0
   13.5131  -15.4167   23.2942 S   0  0  0  0  0  0  0  0  0  0  0  0
   11.2106  -17.2150   24.1983 C   0  0  0  0  0  0  0  0  0  0  0  0
   12.3169  -18.0160   24.3890 O   0  0  0  0  0  0  0  0  0  0  0  0
   10.3756  -17.0898   25.1212 O   0  0  0  0  0  0  0  0  0  0  0  0
  2  1  1  1
  2 10  1  0
  3  2  1  0
  4  3  1  0
  5  4  2  0
  6  5  1  0
  7  8  1  0
  7  6  2  0
  8  9  2  0
  9  4  1  0
 10 14  1  0
 10 11  2  0
 13 12  1  1
 14 13  1  0
 15 13  1  0
 15 17  1  0
 16 15  2  0
 18 17  1  0
 18 21  1  0
 18 19  1  1
 19 20  1  0
 21 22  1  0
 23 21  2  0
M  END
$$$$
