FAC.pdb
     RDKit          3D

 23 23  0  0  1  0  0  0  0  0999 V2000
    5.6619  -17.6729   25.1027 N   0  0  0  0  0  0  0  0  0  0  0  0
    6.2413  -16.4000   24.8230 C   0  0  1  0  0  0  0  0  0  0  0  0
    7.0943  -16.0060   26.0358 C   0  0  0  0  0  0  0  0  0  0  0  0
    6.9162  -14.5435   26.2284 C   0  0  0  0  0  0  0  0  0  0  0  0
    5.6380  -13.9850   26.3173 C   0  0  0  0  0  0  0  0  0  0  0  0
    5.4439  -12.6411   26.4947 C   0  0  0  0  0  0  0  0  0  0  0  0
    6.5255  -11.7978   26.5906 C   0  0  0  0  0  0  0  0  0  0  0  0
    7.8118  -12.3040   26.5084 C   0  0  0  0  0  0  0  0  0  0  0  0
    7.9812  -13.6723   26.3282 C   0  0  0  0  0  0  0  0  0  0  0  0
    7.1210  -16.4469   23.6008 C   0  0  0  0  0  0  0  0  0  0  0  0
    7.7365  -17.4663   23.2620 O   0  0  0  0  0  0  0  0  0  0  0  0
    7.6359  -13.9824   20.8470 C   0  0  0  0  0  0  0  0  0  0  0  0
    7.9574  -15.2728   21.5816 C   0  0  2  0  0  0  0  0  0  0  0  0
    7.2409  -15.2810   22.8211 N   0  0  0  0  0  0  0  0  0  0  0  0
    9.4326  -15.3359   21.7585 C   0  0  0  0  0  0  0  0  0  0  0  0
   10.2467  -15.2820   20.8156 O   0  0  0  0  0  0  0  0  0  0  0  0
    9.9262  -15.4642   23.0753 N   0  0  0  0  0  0  0  0  0  0  0  0
   11.3257  -15.6218   23.4043 C   0  0  1  0  0  0  0  0  0  0  0  0
   11.4942  -15.4896   24.9033 C   0  0  0  0  0  0  0  0  0  0  0  0
   10.2053  -14.4937   25.6519 S   0  0  0  0  0  0  0  0  0  0  0  0
   11.7593  -16.9632   22.9628 C   0  0  0  0  0  0  0  0  0  0  0  0
   13.0697  -17.3583   23.1326 O   0  0  0  0  0  0  0  0  0  0  0  0
   10.9438  -17.7496   22.4328 O   0  0  0  0  0  0  0  0  0  0  0  0
  2  1  1  1
  2 10  1  0
  3  2  1  0
  4  3  1  0
  5  4  2  0
  6  5  1  0
  7  8  1  0
  7  6  2  0
  8  9  2  0
  9  4  1  0
 10 14  1  0
 10 11  2  0
 13 12  1  1
 14 13  1  0
 15 13  1  0
 15 17  1  0
 16 15  2  0
 18 17  1  0
 18 21  1  0
 18 19  1  1
 19 20  1  0
 21 22  1  0
 23 21  2  0
M  END
$$$$
