RNG.pdb
     RDKit          3D

 24 23  0  0  1  0  0  0  0  0999 V2000
   24.5236  -21.1277   -7.2894 N   0  0  0  0  0  0  0  0  0  0  0  0
   23.2873  -21.3228   -7.9999 C   0  0  0  0  0  0  0  0  0  0  0  0
   22.2226  -21.5330   -7.3123 N   0  0  0  0  0  0  0  0  0  0  0  0
   23.2058  -21.2916   -9.3997 N   0  0  0  0  0  0  0  0  0  0  0  0
   24.0638  -20.4569  -10.2233 C   0  0  0  0  0  0  0  0  0  0  0  0
   23.7341  -20.6054  -11.6900 C   0  0  0  0  0  0  0  0  0  0  0  0
   24.4902  -21.7578  -12.3158 C   0  0  0  0  0  0  0  0  0  0  0  0
   25.8053  -21.3376  -12.8860 C   0  0  2  0  0  0  0  0  0  0  0  0
   26.8381  -21.1583  -11.9041 N   0  0  0  0  0  0  0  0  0  0  0  0
   25.6644  -20.1469  -13.7729 C   0  0  0  0  0  0  0  0  0  0  0  0
   25.5719  -19.0280  -13.2506 O   0  0  0  0  0  0  0  0  0  0  0  0
   21.2822  -21.5838   -7.7328 N   0  0  0  0  0  0  0  0  0  0  0  0
   28.3315  -18.9408  -15.4919 C   0  0  0  0  0  0  0  0  0  0  0  0
   27.8816  -19.1411  -16.8170 O   0  0  0  0  0  0  0  0  0  0  0  0
   28.8140  -19.2445  -17.6908 C   0  0  0  0  0  0  0  0  0  0  0  0
   26.4658  -19.2311  -17.2166 C   0  0  2  0  0  0  0  0  0  0  0  0
   25.4955  -19.1664  -16.0754 N   0  0  0  0  0  0  0  0  0  0  0  0
   25.6350  -20.2785  -15.1968 C   0  0  0  0  0  0  0  0  0  0  0  0
   24.1057  -18.8839  -16.5089 O   0  0  0  0  0  0  0  0  0  0  0  0
   23.3294  -19.8485  -16.7271 N   0  0  0  0  0  0  0  0  0  0  0  0
   23.6156  -17.5667  -16.6891 C   0  0  0  0  0  0  0  0  0  0  0  0
   22.2431  -17.2556  -17.0199 C   0  0  0  0  0  0  0  0  0  0  0  0
   21.7146  -17.9961  -18.1701 O   0  0  0  0  0  0  0  0  0  0  0  0
   20.5323  -17.8870  -18.5418 O   0  0  0  0  0  0  0  0  0  0  0  0
  1  2  1  0
  2  3  2  0
  4  2  1  0
  5  4  1  0
  6  5  1  0
  7  6  1  0
  7  8  1  0
  8  9  1  1
  8 10  1  0
 10 11  2  0
 13 12  1  0
 13 15  1  0
 14 13  2  0
 16 15  1  1
 17 10  1  0
 17 16  1  0
 18 16  1  0
 18 20  1  0
 19 18  2  0
 21 20  1  0
 22 21  1  0
 22 24  1  0
 23 22  2  0
M  END
$$$$
