RNG.pdb
     RDKit          3D

 24 23  0  0  1  0  0  0  0  0999 V2000
   19.3920  -23.3181  -17.4291 N   0  0  0  0  0  0  0  0  0  0  0  0
   19.5826  -23.7285  -16.0629 C   0  0  0  0  0  0  0  0  0  0  0  0
   18.8114  -24.6428  -15.5941 N   0  0  0  0  0  0  0  0  0  0  0  0
   20.5690  -23.1715  -15.2361 N   0  0  0  0  0  0  0  0  0  0  0  0
   21.7509  -22.5040  -15.7545 C   0  0  0  0  0  0  0  0  0  0  0  0
   22.6462  -22.0215  -14.6375 C   0  0  0  0  0  0  0  0  0  0  0  0
   21.9231  -21.0558  -13.7233 C   0  0  0  0  0  0  0  0  0  0  0  0
   22.5938  -19.7230  -13.6523 C   0  0  2  0  0  0  0  0  0  0  0  0
   23.0555  -19.2323  -14.9209 N   0  0  0  0  0  0  0  0  0  0  0  0
   23.6702  -19.7038  -12.6202 C   0  0  0  0  0  0  0  0  0  0  0  0
   23.3585  -19.8927  -11.4369 O   0  0  0  0  0  0  0  0  0  0  0  0
   18.8845  -25.0002  -14.6294 N   0  0  0  0  0  0  0  0  0  0  0  0
   26.4171  -20.5413   -9.4986 C   0  0  0  0  0  0  0  0  0  0  0  0
   25.4799  -21.2473  -10.2872 O   0  0  0  0  0  0  0  0  0  0  0  0
   24.4672  -21.6978   -9.6430 C   0  0  0  0  0  0  0  0  0  0  0  0
   25.6087  -21.4761  -11.7374 C   0  0  2  0  0  0  0  0  0  0  0  0
   26.1063  -20.2908  -12.5091 N   0  0  0  0  0  0  0  0  0  0  0  0
   25.0368  -19.4735  -12.9741 C   0  0  0  0  0  0  0  0  0  0  0  0
   27.1124  -20.6476  -13.5386 O   0  0  0  0  0  0  0  0  0  0  0  0
   27.6389  -21.7888  -13.5037 N   0  0  0  0  0  0  0  0  0  0  0  0
   27.5070  -19.7513  -14.5626 C   0  0  0  0  0  0  0  0  0  0  0  0
   26.6885  -19.4272  -15.7094 C   0  0  0  0  0  0  0  0  0  0  0  0
   27.1993  -19.9439  -16.9833 O   0  0  0  0  0  0  0  0  0  0  0  0
   28.3610  -20.3719  -17.1065 O   0  0  0  0  0  0  0  0  0  0  0  0
  1  2  1  0
  2  3  2  0
  4  2  1  0
  5  4  1  0
  6  5  1  0
  7  6  1  0
  7  8  1  0
  8  9  1  6
  8 10  1  0
 10 11  2  0
 13 12  1  0
 13 15  1  0
 14 13  2  0
 16 15  1  1
 17 10  1  0
 17 16  1  0
 18 16  1  0
 18 20  1  0
 19 18  2  0
 21 20  1  0
 22 21  1  0
 22 24  1  0
 23 22  2  0
M  END
$$$$
