RNG.pdb
     RDKit          3D

 24 23  0  0  1  0  0  0  0  0999 V2000
   22.9164  -10.7518    7.1483 N   0  0  0  0  0  0  0  0  0  0  0  0
   21.6536  -10.1482    7.4832 C   0  0  0  0  0  0  0  0  0  0  0  0
   21.6669   -9.0561    8.1596 N   0  0  0  0  0  0  0  0  0  0  0  0
   20.4241  -10.7044    7.1012 N   0  0  0  0  0  0  0  0  0  0  0  0
   19.9071  -11.9410    7.6623 C   0  0  0  0  0  0  0  0  0  0  0  0
   18.5562  -12.2875    7.0818 C   0  0  0  0  0  0  0  0  0  0  0  0
   18.0167  -13.5778    7.6611 C   0  0  0  0  0  0  0  0  0  0  0  0
   17.8739  -14.6517    6.6327 C   0  0  2  0  0  0  0  0  0  0  0  0
   16.6388  -14.6005    5.9013 N   0  0  0  0  0  0  0  0  0  0  0  0
   18.1253  -16.0032    7.2112 C   0  0  0  0  0  0  0  0  0  0  0  0
   17.1955  -16.8205    7.2307 O   0  0  0  0  0  0  0  0  0  0  0  0
   20.8140   -8.5185    8.3771 N   0  0  0  0  0  0  0  0  0  0  0  0
   22.1564  -16.3584    9.1635 C   0  0  0  0  0  0  0  0  0  0  0  0
   22.1625  -17.5126    8.3472 O   0  0  0  0  0  0  0  0  0  0  0  0
   23.3285  -17.9290    8.0148 C   0  0  0  0  0  0  0  0  0  0  0  0
   20.9541  -18.2193    7.8863 C   0  0  1  0  0  0  0  0  0  0  0  0
   19.6659  -17.6155    8.3595 N   0  0  0  0  0  0  0  0  0  0  0  0
   19.4068  -16.3618    7.7356 C   0  0  0  0  0  0  0  0  0  0  0  0
   19.5304  -17.6175    9.8364 O   0  0  0  0  0  0  0  0  0  0  0  0
   19.8419  -16.5812   10.4764 N   0  0  0  0  0  0  0  0  0  0  0  0
   19.0639  -18.7440   10.5581 C   0  0  0  0  0  0  0  0  0  0  0  0
   18.9839  -18.8005   12.0005 C   0  0  0  0  0  0  0  0  0  0  0  0
   19.9630  -19.6950   12.6267 O   0  0  0  0  0  0  0  0  0  0  0  0
   20.8028  -20.3275   11.9615 O   0  0  0  0  0  0  0  0  0  0  0  0
  1  2  1  0
  2  3  2  0
  4  2  1  0
  5  4  1  0
  6  5  1  0
  7  6  1  0
  7  8  1  0
  8  9  1  1
  8 10  1  0
 10 11  2  0
 13 12  1  0
 13 15  1  0
 14 13  2  0
 16 15  1  6
 17 10  1  0
 17 16  1  0
 18 16  1  0
 18 20  1  0
 19 18  2  0
 21 20  1  0
 22 21  1  0
 22 24  1  0
 23 22  2  0
M  END
$$$$
