RNG.pdb
     RDKit          3D

 24 23  0  0  1  0  0  0  0  0999 V2000
   26.8731  -20.0484   -8.7822 N   0  0  0  0  0  0  0  0  0  0  0  0
   25.6018  -20.5722   -9.2072 C   0  0  0  0  0  0  0  0  0  0  0  0
   24.5786  -20.3522   -8.4622 N   0  0  0  0  0  0  0  0  0  0  0  0
   25.4436  -21.3055  -10.3922 N   0  0  0  0  0  0  0  0  0  0  0  0
   26.5368  -21.5655  -11.3133 C   0  0  0  0  0  0  0  0  0  0  0  0
   27.0611  -20.2862  -11.9220 C   0  0  0  0  0  0  0  0  0  0  0  0
   26.1381  -19.7660  -13.0032 C   0  0  0  0  0  0  0  0  0  0  0  0
   26.4805  -20.3013  -14.3550 C   0  0  2  0  0  0  0  0  0  0  0  0
   27.3878  -19.4733  -15.0993 N   0  0  0  0  0  0  0  0  0  0  0  0
   25.2570  -20.6356  -15.1396 C   0  0  0  0  0  0  0  0  0  0  0  0
   24.8014  -19.7852  -15.9157 O   0  0  0  0  0  0  0  0  0  0  0  0
   23.6275  -20.6688   -8.7047 N   0  0  0  0  0  0  0  0  0  0  0  0
   25.1497  -25.4408  -16.0110 C   0  0  0  0  0  0  0  0  0  0  0  0
   24.4359  -24.3424  -16.5426 O   0  0  0  0  0  0  0  0  0  0  0  0
   24.8800  -23.9049  -17.6629 C   0  0  0  0  0  0  0  0  0  0  0  0
   23.2682  -23.7124  -15.9011 C   0  0  2  0  0  0  0  0  0  0  0  0
   23.4033  -22.2349  -15.6848 N   0  0  0  0  0  0  0  0  0  0  0  0
   24.6130  -21.9060  -15.0091 C   0  0  0  0  0  0  0  0  0  0  0  0
   22.1819  -21.6164  -15.1145 O   0  0  0  0  0  0  0  0  0  0  0  0
   21.9718  -21.7139  -13.8787 N   0  0  0  0  0  0  0  0  0  0  0  0
   21.2381  -20.9189  -15.9085 C   0  0  0  0  0  0  0  0  0  0  0  0
   20.0354  -20.3120  -15.3839 C   0  0  0  0  0  0  0  0  0  0  0  0
   19.1785  -19.6902  -16.3988 O   0  0  0  0  0  0  0  0  0  0  0  0
   18.4541  -20.3613  -17.1555 O   0  0  0  0  0  0  0  0  0  0  0  0
  1  2  1  0
  2  3  2  0
  4  2  1  0
  5  4  1  0
  6  5  1  0
  7  6  1  0
  7  8  1  0
  8  9  1  6
  8 10  1  0
 10 11  2  0
 13 12  1  0
 13 15  1  0
 14 13  2  0
 16 15  1  6
 17 10  1  0
 17 16  1  0
 18 16  1  0
 18 20  1  0
 19 18  2  0
 21 20  1  0
 22 21  1  0
 22 24  1  0
 23 22  2  0
M  END
$$$$
