RNG.pdb
     RDKit          3D

 24 23  0  0  1  0  0  0  0  0999 V2000
   30.9842  -24.7247  -16.2473 N   0  0  0  0  0  0  0  0  0  0  0  0
   29.5885  -25.0433  -16.3946 C   0  0  0  0  0  0  0  0  0  0  0  0
   29.2653  -26.2744  -16.5687 N   0  0  0  0  0  0  0  0  0  0  0  0
   28.5815  -24.0679  -16.3551 N   0  0  0  0  0  0  0  0  0  0  0  0
   28.8364  -22.6819  -16.0012 C   0  0  0  0  0  0  0  0  0  0  0  0
   28.7151  -21.7746  -17.2029 C   0  0  0  0  0  0  0  0  0  0  0  0
   27.2744  -21.3928  -17.4679 C   0  0  0  0  0  0  0  0  0  0  0  0
   26.7934  -20.3077  -16.5611 C   0  0  2  0  0  0  0  0  0  0  0  0
   27.4205  -20.3044  -15.2689 N   0  0  0  0  0  0  0  0  0  0  0  0
   25.3055  -20.2952  -16.4604 C   0  0  0  0  0  0  0  0  0  0  0  0
   24.6422  -20.2575  -17.5052 O   0  0  0  0  0  0  0  0  0  0  0  0
   29.9514  -27.0443  -16.5498 N   0  0  0  0  0  0  0  0  0  0  0  0
   20.3865  -20.9109  -14.8135 C   0  0  0  0  0  0  0  0  0  0  0  0
   21.3209  -21.5292  -13.9514 O   0  0  0  0  0  0  0  0  0  0  0  0
   20.8045  -22.2804  -13.0500 C   0  0  0  0  0  0  0  0  0  0  0  0
   22.7821  -21.3574  -14.0380 C   0  0  2  0  0  0  0  0  0  0  0  0
   23.2276  -20.3515  -15.0566 N   0  0  0  0  0  0  0  0  0  0  0  0
   24.6450  -20.3256  -15.1920 C   0  0  0  0  0  0  0  0  0  0  0  0
   22.5932  -19.0229  -14.8782 O   0  0  0  0  0  0  0  0  0  0  0  0
   22.6460  -18.4710  -13.7498 N   0  0  0  0  0  0  0  0  0  0  0  0
   21.9265  -18.3483  -15.9309 C   0  0  0  0  0  0  0  0  0  0  0  0
   21.3777  -17.0159  -15.8143 C   0  0  0  0  0  0  0  0  0  0  0  0
   20.0187  -16.9666  -15.2654 O   0  0  0  0  0  0  0  0  0  0  0  0
   19.4427  -17.9802  -14.8310 O   0  0  0  0  0  0  0  0  0  0  0  0
  1  2  1  0
  2  3  2  0
  4  2  1  0
  5  4  1  0
  6  5  1  0
  7  6  1  0
  7  8  1  0
  8  9  1  1
  8 10  1  0
 10 11  2  0
 13 12  1  0
 13 15  1  0
 14 13  2  0
 16 15  1  6
 17 10  1  0
 17 16  1  0
 18 16  1  0
 18 20  1  0
 19 18  2  0
 21 20  1  0
 22 21  1  0
 22 24  1  0
 23 22  2  0
M  END
$$$$
