RNG.pdb
     RDKit          3D

 24 23  0  0  1  0  0  0  0  0999 V2000
   16.3684  -15.4112  -15.8355 N   0  0  0  0  0  0  0  0  0  0  0  0
   17.6457  -15.9136  -16.2682 C   0  0  0  0  0  0  0  0  0  0  0  0
   17.6623  -16.9643  -17.0073 N   0  0  0  0  0  0  0  0  0  0  0  0
   18.8580  -15.3031  -15.9151 N   0  0  0  0  0  0  0  0  0  0  0  0
   19.0077  -13.8646  -15.7750 C   0  0  0  0  0  0  0  0  0  0  0  0
   20.2145  -13.3596  -16.5304 C   0  0  0  0  0  0  0  0  0  0  0  0
   20.3535  -11.8567  -16.4150 C   0  0  0  0  0  0  0  0  0  0  0  0
   19.3633  -11.1234  -17.2593 C   0  0  2  0  0  0  0  0  0  0  0  0
   19.2796  -11.6015  -18.6111 N   0  0  0  0  0  0  0  0  0  0  0  0
   19.5764   -9.6485  -17.2002 C   0  0  0  0  0  0  0  0  0  0  0  0
   20.1884   -9.1017  -18.1273 O   0  0  0  0  0  0  0  0  0  0  0  0
   18.5321  -17.3830  -17.3704 N   0  0  0  0  0  0  0  0  0  0  0  0
   17.0290   -5.9385  -18.1505 C   0  0  0  0  0  0  0  0  0  0  0  0
   17.0968   -6.8708  -17.0899 O   0  0  0  0  0  0  0  0  0  0  0  0
   16.3263   -7.8873  -17.2185 C   0  0  0  0  0  0  0  0  0  0  0  0
   17.9660   -6.7332  -15.9077 C   0  0  2  0  0  0  0  0  0  0  0  0
   19.2731   -7.4601  -16.0127 N   0  0  0  0  0  0  0  0  0  0  0  0
   19.0906   -8.8695  -16.1034 C   0  0  0  0  0  0  0  0  0  0  0  0
   20.2648   -7.0229  -15.0003 O   0  0  0  0  0  0  0  0  0  0  0  0
   20.1245   -7.4014  -13.8095 N   0  0  0  0  0  0  0  0  0  0  0  0
   21.3668   -6.1921  -15.3210 C   0  0  0  0  0  0  0  0  0  0  0  0
   22.3554   -5.7579  -14.3596 C   0  0  0  0  0  0  0  0  0  0  0  0
   21.8675   -4.7666  -13.3951 O   0  0  0  0  0  0  0  0  0  0  0  0
   20.6982   -4.3425  -13.4153 O   0  0  0  0  0  0  0  0  0  0  0  0
  1  2  1  0
  2  3  2  0
  4  2  1  0
  5  4  1  0
  6  5  1  0
  7  6  1  0
  7  8  1  0
  8  9  1  6
  8 10  1  0
 10 11  2  0
 13 12  1  0
 13 15  1  0
 14 13  2  0
 16 15  1  6
 17 10  1  0
 17 16  1  0
 18 16  1  0
 18 20  1  0
 19 18  2  0
 21 20  1  0
 22 21  1  0
 22 24  1  0
 23 22  2  0
M  END
$$$$
