RNG.pdb
     RDKit          3D

 24 23  0  0  1  0  0  0  0  0999 V2000
   25.5176  -24.2982  -15.0321 N   0  0  0  0  0  0  0  0  0  0  0  0
   24.6512  -25.2264  -15.7096 C   0  0  0  0  0  0  0  0  0  0  0  0
   25.0359  -26.4481  -15.8102 N   0  0  0  0  0  0  0  0  0  0  0  0
   23.4166  -24.8479  -16.2568 N   0  0  0  0  0  0  0  0  0  0  0  0
   22.8286  -23.5356  -16.0492 C   0  0  0  0  0  0  0  0  0  0  0  0
   22.3119  -23.3798  -14.6382 C   0  0  0  0  0  0  0  0  0  0  0  0
   21.6056  -22.0545  -14.4481 C   0  0  0  0  0  0  0  0  0  0  0  0
   20.2328  -22.0475  -15.0367 C   0  0  2  0  0  0  0  0  0  0  0  0
   20.1048  -21.2326  -16.2126 N   0  0  0  0  0  0  0  0  0  0  0  0
   19.1982  -21.7194  -14.0139 C   0  0  0  0  0  0  0  0  0  0  0  0
   19.1052  -20.5489  -13.6209 O   0  0  0  0  0  0  0  0  0  0  0  0
   24.4983  -27.1672  -16.3176 N   0  0  0  0  0  0  0  0  0  0  0  0
   14.1940  -21.8312  -14.2932 C   0  0  0  0  0  0  0  0  0  0  0  0
   15.5975  -21.6617  -14.2835 O   0  0  0  0  0  0  0  0  0  0  0  0
   16.1665  -21.8289  -15.4201 C   0  0  0  0  0  0  0  0  0  0  0  0
   16.3920  -21.3204  -13.0900 C   0  0  1  0  0  0  0  0  0  0  0  0
   17.2625  -22.4328  -12.5872 N   0  0  0  0  0  0  0  0  0  0  0  0
   18.3254  -22.7238  -13.4891 C   0  0  0  0  0  0  0  0  0  0  0  0
   16.4908  -23.6139  -12.1300 O   0  0  0  0  0  0  0  0  0  0  0  0
   15.5638  -23.4486  -11.2969 N   0  0  0  0  0  0  0  0  0  0  0  0
   16.7575  -24.9257  -12.5943 C   0  0  0  0  0  0  0  0  0  0  0  0
   16.9359  -26.0675  -11.7255 C   0  0  0  0  0  0  0  0  0  0  0  0
   18.3232  -26.3028  -11.3120 O   0  0  0  0  0  0  0  0  0  0  0  0
   19.2388  -25.5043  -11.5800 O   0  0  0  0  0  0  0  0  0  0  0  0
  1  2  1  0
  2  3  2  0
  4  2  1  0
  5  4  1  0
  6  5  1  0
  7  6  1  0
  7  8  1  0
  8  9  1  6
  8 10  1  0
 10 11  2  0
 13 12  1  0
 13 15  1  0
 14 13  2  0
 16 15  1  1
 17 10  1  0
 17 16  1  0
 18 16  1  0
 18 20  1  0
 19 18  2  0
 21 20  1  0
 22 21  1  0
 22 24  1  0
 23 22  2  0
M  END
$$$$
