RNG.pdb
     RDKit          3D

 24 23  0  0  1  0  0  0  0  0999 V2000
   22.4480  -22.8136   -7.6283 N   0  0  0  0  0  0  0  0  0  0  0  0
   23.0334  -21.7104   -6.9132 C   0  0  0  0  0  0  0  0  0  0  0  0
   22.4704  -21.3312   -5.8224 N   0  0  0  0  0  0  0  0  0  0  0  0
   24.1831  -21.0433   -7.3605 N   0  0  0  0  0  0  0  0  0  0  0  0
   24.9481  -21.4753   -8.5178 C   0  0  0  0  0  0  0  0  0  0  0  0
   24.1524  -21.3233   -9.7929 C   0  0  0  0  0  0  0  0  0  0  0  0
   24.8087  -20.3460  -10.7445 C   0  0  0  0  0  0  0  0  0  0  0  0
   25.6769  -21.0241  -11.7532 C   0  0  2  0  0  0  0  0  0  0  0  0
   26.8030  -21.7128  -11.1871 N   0  0  0  0  0  0  0  0  0  0  0  0
   26.0827  -20.0917  -12.8443 C   0  0  0  0  0  0  0  0  0  0  0  0
   27.0944  -19.3966  -12.6824 O   0  0  0  0  0  0  0  0  0  0  0  0
   22.8059  -20.5311   -5.2647 N   0  0  0  0  0  0  0  0  0  0  0  0
   26.9453  -17.7943  -17.4096 C   0  0  0  0  0  0  0  0  0  0  0  0
   27.7100  -18.7135  -16.6553 O   0  0  0  0  0  0  0  0  0  0  0  0
   28.9363  -18.8144  -17.0151 C   0  0  0  0  0  0  0  0  0  0  0  0
   27.1883  -19.5171  -15.5353 C   0  0  2  0  0  0  0  0  0  0  0  0
   25.7621  -19.2257  -15.1763 N   0  0  0  0  0  0  0  0  0  0  0  0
   25.3298  -19.9917  -14.0563 C   0  0  0  0  0  0  0  0  0  0  0  0
   24.8496  -19.2590  -16.3449 O   0  0  0  0  0  0  0  0  0  0  0  0
   24.6794  -20.3468  -16.9520 N   0  0  0  0  0  0  0  0  0  0  0  0
   24.1605  -18.1107  -16.8077 C   0  0  0  0  0  0  0  0  0  0  0  0
   22.9793  -17.5695  -16.1737 C   0  0  0  0  0  0  0  0  0  0  0  0
   22.4041  -16.4064  -16.8572 O   0  0  0  0  0  0  0  0  0  0  0  0
   22.9872  -15.8343  -17.7955 O   0  0  0  0  0  0  0  0  0  0  0  0
  1  2  1  0
  2  3  2  0
  4  2  1  0
  5  4  1  0
  6  5  1  0
  7  6  1  0
  7  8  1  0
  8  9  1  1
  8 10  1  0
 10 11  2  0
 13 12  1  0
 13 15  1  0
 14 13  2  0
 16 15  1  1
 17 10  1  0
 17 16  1  0
 18 16  1  0
 18 20  1  0
 19 18  2  0
 21 20  1  0
 22 21  1  0
 22 24  1  0
 23 22  2  0
M  END
$$$$
