RNG.pdb
     RDKit          3D

 24 23  0  0  1  0  0  0  0  0999 V2000
   31.3931  -22.4337  -12.6081 N   0  0  0  0  0  0  0  0  0  0  0  0
   31.8356  -22.3981  -11.2391 C   0  0  0  0  0  0  0  0  0  0  0  0
   32.8405  -23.1278  -10.9102 N   0  0  0  0  0  0  0  0  0  0  0  0
   31.2152  -21.6039  -10.2638 N   0  0  0  0  0  0  0  0  0  0  0  0
   30.1299  -20.6859  -10.5645 C   0  0  0  0  0  0  0  0  0  0  0  0
   28.7935  -21.3901  -10.5557 C   0  0  0  0  0  0  0  0  0  0  0  0
   27.6576  -20.4303  -10.8387 C   0  0  0  0  0  0  0  0  0  0  0  0
   26.3230  -21.1009  -10.8199 C   0  0  2  0  0  0  0  0  0  0  0  0
   26.3861  -22.5321  -10.9242 N   0  0  0  0  0  0  0  0  0  0  0  0
   25.3958  -20.5075  -11.8261 C   0  0  0  0  0  0  0  0  0  0  0  0
   25.2858  -19.2752  -11.8746 O   0  0  0  0  0  0  0  0  0  0  0  0
   33.1961  -23.1934   -9.9444 N   0  0  0  0  0  0  0  0  0  0  0  0
   26.0897  -20.1291  -15.1821 C   0  0  0  0  0  0  0  0  0  0  0  0
   25.1616  -21.0788  -15.6673 O   0  0  0  0  0  0  0  0  0  0  0  0
   25.5127  -21.6678  -16.7505 C   0  0  0  0  0  0  0  0  0  0  0  0
   23.8786  -21.4036  -15.0188 C   0  0  2  0  0  0  0  0  0  0  0  0
   23.7055  -20.8047  -13.6552 N   0  0  0  0  0  0  0  0  0  0  0  0
   24.6434  -21.3307  -12.7217 C   0  0  0  0  0  0  0  0  0  0  0  0
   22.2962  -20.8079  -13.1932 O   0  0  0  0  0  0  0  0  0  0  0  0
   21.8639  -21.8097  -12.5685 N   0  0  0  0  0  0  0  0  0  0  0  0
   21.4136  -19.7248  -13.4291 C   0  0  0  0  0  0  0  0  0  0  0  0
   20.0179  -19.7257  -13.0520 C   0  0  0  0  0  0  0  0  0  0  0  0
   19.2166  -20.7700  -13.6988 O   0  0  0  0  0  0  0  0  0  0  0  0
   19.6092  -21.3730  -14.7137 O   0  0  0  0  0  0  0  0  0  0  0  0
  1  2  1  0
  2  3  2  0
  4  2  1  0
  5  4  1  0
  6  5  1  0
  7  6  1  0
  7  8  1  0
  8  9  1  6
  8 10  1  0
 10 11  2  0
 13 12  1  0
 13 15  1  0
 14 13  2  0
 16 15  1  6
 17 10  1  0
 17 16  1  0
 18 16  1  0
 18 20  1  0
 19 18  2  0
 21 20  1  0
 22 21  1  0
 22 24  1  0
 23 22  2  0
M  END
$$$$
