RNG.pdb
     RDKit          3D

 24 23  0  0  1  0  0  0  0  0999 V2000
   28.5201  -27.1155  -16.6939 N   0  0  0  0  0  0  0  0  0  0  0  0
   29.7345  -26.6579  -17.3161 C   0  0  0  0  0  0  0  0  0  0  0  0
   30.6758  -27.5119  -17.5034 N   0  0  0  0  0  0  0  0  0  0  0  0
   29.9233  -25.3281  -17.7199 N   0  0  0  0  0  0  0  0  0  0  0  0
   28.9130  -24.2982  -17.5472 C   0  0  0  0  0  0  0  0  0  0  0  0
   28.7998  -23.8737  -16.1019 C   0  0  0  0  0  0  0  0  0  0  0  0
   27.4262  -24.1732  -15.5406 C   0  0  0  0  0  0  0  0  0  0  0  0
   26.4047  -23.1667  -15.9585 C   0  0  2  0  0  0  0  0  0  0  0  0
   26.9433  -21.8613  -16.2211 N   0  0  0  0  0  0  0  0  0  0  0  0
   25.2596  -23.1173  -15.0042 C   0  0  0  0  0  0  0  0  0  0  0  0
   24.6389  -24.1629  -14.7706 O   0  0  0  0  0  0  0  0  0  0  0  0
   31.5447  -27.2889  -18.0123 N   0  0  0  0  0  0  0  0  0  0  0  0
   25.6717  -22.9485  -11.6606 C   0  0  0  0  0  0  0  0  0  0  0  0
   25.0783  -21.6938  -11.3918 O   0  0  0  0  0  0  0  0  0  0  0  0
   25.4844  -21.1273  -10.3159 C   0  0  0  0  0  0  0  0  0  0  0  0
   24.0686  -21.0441  -12.2466 C   0  0  2  0  0  0  0  0  0  0  0  0
   23.7460  -21.7953  -13.5034 N   0  0  0  0  0  0  0  0  0  0  0  0
   24.8750  -21.8967  -14.3655 C   0  0  0  0  0  0  0  0  0  0  0  0
   22.5008  -21.3260  -14.1581 O   0  0  0  0  0  0  0  0  0  0  0  0
   22.5657  -20.3707  -14.9729 N   0  0  0  0  0  0  0  0  0  0  0  0
   21.2364  -21.9115  -13.9010 C   0  0  0  0  0  0  0  0  0  0  0  0
   20.0093  -21.4929  -14.5408 C   0  0  0  0  0  0  0  0  0  0  0  0
   19.4018  -20.2919  -13.9582 O   0  0  0  0  0  0  0  0  0  0  0  0
   19.9453  -19.6542  -13.0386 O   0  0  0  0  0  0  0  0  0  0  0  0
  1  2  1  0
  2  3  2  0
  4  2  1  0
  5  4  1  0
  6  5  1  0
  7  6  1  0
  7  8  1  0
  8  9  1  1
  8 10  1  0
 10 11  2  0
 13 12  1  0
 13 15  1  0
 14 13  2  0
 16 15  1  1
 17 10  1  0
 17 16  1  0
 18 16  1  0
 18 20  1  0
 19 18  2  0
 21 20  1  0
 22 21  1  0
 22 24  1  0
 23 22  2  0
M  END
$$$$
