RNG.pdb
     RDKit          3D

 24 23  0  0  1  0  0  0  0  0999 V2000
   23.8770  -20.6710   -8.2190 N   0  0  0  0  0  0  0  0  0  0  0  0
   22.8150  -20.7546   -9.1866 C   0  0  0  0  0  0  0  0  0  0  0  0
   21.7217  -20.1271   -8.9387 N   0  0  0  0  0  0  0  0  0  0  0  0
   22.9311  -21.4883  -10.3762 N   0  0  0  0  0  0  0  0  0  0  0  0
   24.1960  -21.6858  -11.0633 C   0  0  0  0  0  0  0  0  0  0  0  0
   25.0845  -20.4700  -10.9431 C   0  0  0  0  0  0  0  0  0  0  0  0
   26.3788  -20.6497  -11.7073 C   0  0  0  0  0  0  0  0  0  0  0  0
   26.1673  -21.2484  -13.0593 C   0  0  2  0  0  0  0  0  0  0  0  0
   26.5232  -22.6372  -13.1461 N   0  0  0  0  0  0  0  0  0  0  0  0
   26.8184  -20.4366  -14.1276 C   0  0  0  0  0  0  0  0  0  0  0  0
   28.0372  -20.2310  -14.0543 O   0  0  0  0  0  0  0  0  0  0  0  0
   20.9125  -20.1325   -9.5781 N   0  0  0  0  0  0  0  0  0  0  0  0
   28.9911  -21.2352  -15.8093 C   0  0  0  0  0  0  0  0  0  0  0  0
   28.0059  -22.0175  -16.4540 O   0  0  0  0  0  0  0  0  0  0  0  0
   28.3237  -23.2478  -16.6242 C   0  0  0  0  0  0  0  0  0  0  0  0
   26.7013  -21.5093  -16.9143 C   0  0  2  0  0  0  0  0  0  0  0  0
   26.4452  -20.0701  -16.5807 N   0  0  0  0  0  0  0  0  0  0  0  0
   26.0649  -19.9007  -15.2189 C   0  0  0  0  0  0  0  0  0  0  0  0
   25.5649  -19.3929  -17.5636 O   0  0  0  0  0  0  0  0  0  0  0  0
   24.3214  -19.5589  -17.4808 N   0  0  0  0  0  0  0  0  0  0  0  0
   26.0699  -18.5648  -18.5964 C   0  0  0  0  0  0  0  0  0  0  0  0
   25.5110  -17.2773  -18.9430 C   0  0  0  0  0  0  0  0  0  0  0  0
   26.2214  -16.5786  -20.0191 O   0  0  0  0  0  0  0  0  0  0  0  0
   25.8532  -15.4689  -20.4443 O   0  0  0  0  0  0  0  0  0  0  0  0
  1  2  1  0
  2  3  2  0
  4  2  1  0
  5  4  1  0
  6  5  1  0
  7  6  1  0
  7  8  1  0
  8  9  1  1
  8 10  1  0
 10 11  2  0
 13 12  1  0
 13 15  1  0
 14 13  2  0
 16 15  1  1
 17 10  1  0
 17 16  1  0
 18 16  1  0
 18 20  1  0
 19 18  2  0
 21 20  1  0
 22 21  1  0
 22 24  1  0
 23 22  2  0
M  END
$$$$
