RNG.pdb
     RDKit          3D

 24 23  0  0  1  0  0  0  0  0999 V2000
   23.5278  -19.6233  -20.1318 N   0  0  0  0  0  0  0  0  0  0  0  0
   24.2000  -20.0752  -18.9422 C   0  0  0  0  0  0  0  0  0  0  0  0
   25.4829  -20.0141  -18.9136 N   0  0  0  0  0  0  0  0  0  0  0  0
   23.5112  -20.5738  -17.8269 N   0  0  0  0  0  0  0  0  0  0  0  0
   22.0627  -20.5492  -17.7161 C   0  0  0  0  0  0  0  0  0  0  0  0
   21.5526  -19.1500  -17.4627 C   0  0  0  0  0  0  0  0  0  0  0  0
   21.4215  -18.8659  -15.9816 C   0  0  0  0  0  0  0  0  0  0  0  0
   22.7386  -18.8779  -15.2773 C   0  0  2  0  0  0  0  0  0  0  0  0
   23.6185  -19.9313  -15.7004 N   0  0  0  0  0  0  0  0  0  0  0  0
   22.5696  -18.8520  -13.7957 C   0  0  0  0  0  0  0  0  0  0  0  0
   21.9254  -17.9234  -13.2900 O   0  0  0  0  0  0  0  0  0  0  0  0
   26.0444  -20.3478  -18.1154 N   0  0  0  0  0  0  0  0  0  0  0  0
   20.2398  -19.5074  -10.4756 C   0  0  0  0  0  0  0  0  0  0  0  0
   20.8573  -20.6956  -10.9289 O   0  0  0  0  0  0  0  0  0  0  0  0
   20.0461  -21.5986  -11.3415 C   0  0  0  0  0  0  0  0  0  0  0  0
   22.3123  -20.9295  -10.9468 C   0  0  2  0  0  0  0  0  0  0  0  0
   23.1118  -19.8093  -11.5417 N   0  0  0  0  0  0  0  0  0  0  0  0
   23.1334  -19.8702  -12.9643 C   0  0  0  0  0  0  0  0  0  0  0  0
   24.4400  -19.6401  -10.9039 O   0  0  0  0  0  0  0  0  0  0  0  0
   24.5347  -19.7622   -9.6561 N   0  0  0  0  0  0  0  0  0  0  0  0
   25.6103  -19.3440  -11.6457 C   0  0  0  0  0  0  0  0  0  0  0  0
   26.9454  -19.7009  -11.2212 C   0  0  0  0  0  0  0  0  0  0  0  0
   27.4627  -20.9342  -11.8229 O   0  0  0  0  0  0  0  0  0  0  0  0
   26.7566  -21.6708  -12.5348 O   0  0  0  0  0  0  0  0  0  0  0  0
  1  2  1  0
  2  3  2  0
  4  2  1  0
  5  4  1  0
  6  5  1  0
  7  6  1  0
  7  8  1  0
  8  9  1  1
  8 10  1  0
 10 11  2  0
 13 12  1  0
 13 15  1  0
 14 13  2  0
 16 15  1  6
 17 10  1  0
 17 16  1  0
 18 16  1  0
 18 20  1  0
 19 18  2  0
 21 20  1  0
 22 21  1  0
 22 24  1  0
 23 22  2  0
M  END
$$$$
