RNG.pdb
     RDKit          3D

 24 23  0  0  1  0  0  0  0  0999 V2000
   25.3917  -15.4497  -17.7605 N   0  0  0  0  0  0  0  0  0  0  0  0
   26.2547  -16.5177  -18.1915 C   0  0  0  0  0  0  0  0  0  0  0  0
   26.0483  -17.0300  -19.3515 N   0  0  0  0  0  0  0  0  0  0  0  0
   27.3005  -17.0124  -17.3986 N   0  0  0  0  0  0  0  0  0  0  0  0
   27.0928  -17.9608  -16.3177 C   0  0  0  0  0  0  0  0  0  0  0  0
   26.8895  -17.2561  -14.9971 C   0  0  0  0  0  0  0  0  0  0  0  0
   26.0532  -18.0863  -14.0470 C   0  0  0  0  0  0  0  0  0  0  0  0
   24.9134  -18.7666  -14.7320 C   0  0  2  0  0  0  0  0  0  0  0  0
   23.8245  -17.8910  -15.0649 N   0  0  0  0  0  0  0  0  0  0  0  0
   24.4544  -19.9666  -13.9747 C   0  0  0  0  0  0  0  0  0  0  0  0
   24.8920  -20.1471  -12.8306 O   0  0  0  0  0  0  0  0  0  0  0  0
   26.6718  -17.7341  -19.7746 N   0  0  0  0  0  0  0  0  0  0  0  0
   19.8362  -20.1234  -13.8520 C   0  0  0  0  0  0  0  0  0  0  0  0
   20.8279  -20.9246  -13.2411 O   0  0  0  0  0  0  0  0  0  0  0  0
   21.1173  -20.5952  -12.0364 C   0  0  0  0  0  0  0  0  0  0  0  0
   21.5067  -22.0592  -13.8922 C   0  0  2  0  0  0  0  0  0  0  0  0
   23.0035  -22.0070  -13.8231 N   0  0  0  0  0  0  0  0  0  0  0  0
   23.5296  -20.8973  -14.5442 C   0  0  0  0  0  0  0  0  0  0  0  0
   23.6456  -23.3092  -14.1260 O   0  0  0  0  0  0  0  0  0  0  0  0
   23.2137  -24.3456  -13.5602 N   0  0  0  0  0  0  0  0  0  0  0  0
   24.7304  -23.4332  -15.0290 C   0  0  0  0  0  0  0  0  0  0  0  0
   25.3144  -24.6971  -15.4184 C   0  0  0  0  0  0  0  0  0  0  0  0
   26.3878  -24.5876  -16.4117 O   0  0  0  0  0  0  0  0  0  0  0  0
   26.7449  -23.4932  -16.8833 O   0  0  0  0  0  0  0  0  0  0  0  0
  1  2  1  0
  2  3  2  0
  4  2  1  0
  5  4  1  0
  6  5  1  0
  7  6  1  0
  7  8  1  0
  8  9  1  1
  8 10  1  0
 10 11  2  0
 13 12  1  0
 13 15  1  0
 14 13  2  0
 16 15  1  1
 17 10  1  0
 17 16  1  0
 18 16  1  0
 18 20  1  0
 19 18  2  0
 21 20  1  0
 22 21  1  0
 22 24  1  0
 23 22  2  0
M  END
$$$$
