NAV.pdb
     RDKit          3D

 21 20  0  0  1  0  0  0  0  0999 V2000
    8.7421  -18.0326   18.0350 N   0  0  0  0  0  0  0  0  0  0  0  0
    8.4761  -16.6609   18.2471 C   0  0  0  0  0  0  0  0  0  0  0  0
    8.8631  -15.8324   17.4025 O   0  0  0  0  0  0  0  0  0  0  0  0
    7.7430  -16.2772   19.4766 C   0  0  0  0  0  0  0  0  0  0  0  0
    7.3529  -17.4855   20.3004 C   0  0  2  0  0  0  0  0  0  0  0  0
    6.3118  -18.1873   19.6149 N   0  0  0  0  0  0  0  0  0  0  0  0
    6.9332  -16.9966   21.6390 C   0  0  0  0  0  0  0  0  0  0  0  0
    6.0977  -16.0578   21.6942 O   0  0  0  0  0  0  0  0  0  0  0  0
    7.1681  -18.2094   25.1201 C   0  0  0  0  0  0  0  0  0  0  0  0
    6.9404  -17.0736   24.1135 C   0  0  2  0  0  0  0  0  0  0  0  0
    7.4336  -17.5426   22.8518 N   0  0  0  0  0  0  0  0  0  0  0  0
    7.6876  -15.9089   24.6318 C   0  0  0  0  0  0  0  0  0  0  0  0
    8.9028  -15.8007   24.3318 O   0  0  0  0  0  0  0  0  0  0  0  0
    5.7686  -12.9837   27.1157 C   0  0  0  0  0  0  0  0  0  0  0  0
    6.8895  -12.5953   26.1764 C   0  0  1  0  0  0  0  0  0  0  0  0
    7.6352  -11.3815   26.7081 C   0  0  0  0  0  0  0  0  0  0  0  0
    7.8319  -13.7537   25.9315 C   0  0  2  0  0  0  0  0  0  0  0  0
    7.1028  -14.9093   25.4493 N   0  0  0  0  0  0  0  0  0  0  0  0
    8.5012  -14.0579   27.2259 C   0  0  0  0  0  0  0  0  0  0  0  0
    8.1659  -15.0759   27.8832 O   0  0  0  0  0  0  0  0  0  0  0  0
    9.4987  -13.2485   27.7465 O   0  0  0  0  0  0  0  0  0  0  0  0
  1  2  1  0
  2  3  2  0
  4  2  1  0
  5  4  1  0
  5  6  1  6
  7  5  1  0
  7 11  1  0
  8  7  2  0
 10 12  1  0
 10 11  1  0
 10  9  1  1
 12 18  1  0
 13 12  2  0
 15 16  1  1
 15 14  1  0
 17 15  1  0
 17 18  1  1
 19 21  1  0
 19 17  1  0
 20 19  2  0
M  END
$$$$
