NAV.pdb
     RDKit          3D

 21 20  0  0  1  0  0  0  0  0999 V2000
   11.4714  -18.5605   16.9258 N   0  0  0  0  0  0  0  0  0  0  0  0
   11.6818  -18.4542   18.3193 C   0  0  0  0  0  0  0  0  0  0  0  0
   12.1843  -19.4155   18.9300 O   0  0  0  0  0  0  0  0  0  0  0  0
   11.2891  -17.1908   18.9870 C   0  0  0  0  0  0  0  0  0  0  0  0
   10.4283  -17.4417   20.2065 C   0  0  2  0  0  0  0  0  0  0  0  0
    9.2653  -18.1693   19.8013 N   0  0  0  0  0  0  0  0  0  0  0  0
   10.1025  -16.1205   20.8024 C   0  0  0  0  0  0  0  0  0  0  0  0
   11.0504  -15.4049   21.2168 O   0  0  0  0  0  0  0  0  0  0  0  0
    7.1135  -13.9382   21.0953 C   0  0  0  0  0  0  0  0  0  0  0  0
    8.5189  -14.3660   21.5395 C   0  0  2  0  0  0  0  0  0  0  0  0
    8.7723  -15.6351   20.9228 N   0  0  0  0  0  0  0  0  0  0  0  0
    8.4804  -14.4353   23.0150 C   0  0  0  0  0  0  0  0  0  0  0  0
    8.2388  -13.3808   23.6536 O   0  0  0  0  0  0  0  0  0  0  0  0
    6.2001  -15.8817   25.3452 C   0  0  0  0  0  0  0  0  0  0  0  0
    7.5270  -16.5276   25.6793 C   0  0  1  0  0  0  0  0  0  0  0  0
    7.5916  -17.9380   25.1146 C   0  0  0  0  0  0  0  0  0  0  0  0
    8.6884  -15.6885   25.1924 C   0  0  2  0  0  0  0  0  0  0  0  0
    8.7021  -15.6303   23.7447 N   0  0  0  0  0  0  0  0  0  0  0  0
    9.9343  -16.3225   25.7040 C   0  0  0  0  0  0  0  0  0  0  0  0
   10.7469  -16.8492   24.9021 O   0  0  0  0  0  0  0  0  0  0  0  0
   10.2412  -16.3565   27.0553 O   0  0  0  0  0  0  0  0  0  0  0  0
  1  2  1  0
  2  3  2  0
  4  2  1  0
  5  4  1  0
  5  6  1  6
  7  5  1  0
  7 11  1  0
  8  7  2  0
 10 12  1  0
 10 11  1  0
 10  9  1  6
 12 18  1  0
 13 12  2  0
 15 16  1  6
 15 14  1  0
 17 15  1  0
 17 18  1  6
 19 21  1  0
 19 17  1  0
 20 19  2  0
M  END
$$$$
