NAV.pdb
     RDKit          3D

 21 20  0  0  1  0  0  0  0  0999 V2000
   13.5851  -14.0245   19.0717 N   0  0  0  0  0  0  0  0  0  0  0  0
   12.8501  -14.9237   19.8773 C   0  0  0  0  0  0  0  0  0  0  0  0
   13.2850  -16.0776   20.0466 O   0  0  0  0  0  0  0  0  0  0  0  0
   11.5875  -14.4402   20.4841 C   0  0  0  0  0  0  0  0  0  0  0  0
   10.3978  -15.2650   20.0422 C   0  0  2  0  0  0  0  0  0  0  0  0
    9.9958  -14.8246   18.7420 N   0  0  0  0  0  0  0  0  0  0  0  0
    9.3322  -15.0943   21.0631 C   0  0  0  0  0  0  0  0  0  0  0  0
    8.7560  -13.9787   21.1405 O   0  0  0  0  0  0  0  0  0  0  0  0
    7.4356  -17.2955   23.3807 C   0  0  0  0  0  0  0  0  0  0  0  0
    7.8959  -15.9101   22.9073 C   0  0  2  0  0  0  0  0  0  0  0  0
    8.9398  -16.1328   21.9502 N   0  0  0  0  0  0  0  0  0  0  0  0
    8.3590  -15.1958   24.1150 C   0  0  0  0  0  0  0  0  0  0  0  0
    9.5827  -15.2350   24.3965 O   0  0  0  0  0  0  0  0  0  0  0  0
    6.8235  -11.6478   25.4165 C   0  0  0  0  0  0  0  0  0  0  0  0
    6.9731  -12.6680   26.5239 C   0  0  1  0  0  0  0  0  0  0  0  0
    5.6201  -13.2521   26.8982 C   0  0  0  0  0  0  0  0  0  0  0  0
    7.9539  -13.7561   26.1444 C   0  0  2  0  0  0  0  0  0  0  0  0
    7.4928  -14.4696   24.9706 N   0  0  0  0  0  0  0  0  0  0  0  0
    8.0625  -14.6766   27.3092 C   0  0  0  0  0  0  0  0  0  0  0  0
    7.5630  -15.8288   27.2488 O   0  0  0  0  0  0  0  0  0  0  0  0
    8.7045  -14.3079   28.4810 O   0  0  0  0  0  0  0  0  0  0  0  0
  1  2  1  0
  2  3  2  0
  4  2  1  0
  5  4  1  0
  5  6  1  6
  7  5  1  0
  7 11  1  0
  8  7  2  0
 10 12  1  0
 10 11  1  0
 10  9  1  1
 12 18  1  0
 13 12  2  0
 15 16  1  6
 15 14  1  0
 17 15  1  0
 17 18  1  6
 19 21  1  0
 19 17  1  0
 20 19  2  0
M  END
$$$$
