NAV.pdb
     RDKit          3D

 21 20  0  0  1  0  0  0  0  0999 V2000
    7.7175  -12.5817   17.1444 N   0  0  0  0  0  0  0  0  0  0  0  0
    8.4934  -13.2884   18.0909 C   0  0  0  0  0  0  0  0  0  0  0  0
    9.6769  -13.5621   17.8190 O   0  0  0  0  0  0  0  0  0  0  0  0
    7.8506  -13.6701   19.3705 C   0  0  0  0  0  0  0  0  0  0  0  0
    8.1415  -15.1088   19.7401 C   0  0  2  0  0  0  0  0  0  0  0  0
    7.4974  -15.9624   18.7901 N   0  0  0  0  0  0  0  0  0  0  0  0
    7.6545  -15.3204   21.1276 C   0  0  0  0  0  0  0  0  0  0  0  0
    6.5427  -14.8276   21.4493 O   0  0  0  0  0  0  0  0  0  0  0  0
    8.3001  -17.6035   23.9015 C   0  0  0  0  0  0  0  0  0  0  0  0
    7.8731  -16.2073   23.4287 C   0  0  2  0  0  0  0  0  0  0  0  0
    8.3885  -16.0520   22.0999 N   0  0  0  0  0  0  0  0  0  0  0  0
    8.4559  -15.2508   24.3924 C   0  0  0  0  0  0  0  0  0  0  0  0
    9.6679  -14.9448   24.2674 O   0  0  0  0  0  0  0  0  0  0  0  0
    6.8428  -11.8083   25.6415 C   0  0  0  0  0  0  0  0  0  0  0  0
    7.2512  -12.6909   26.8007 C   0  0  1  0  0  0  0  0  0  0  0  0
    6.0336  -13.3639   27.4142 C   0  0  0  0  0  0  0  0  0  0  0  0
    8.2877  -13.7104   26.3809 C   0  0  2  0  0  0  0  0  0  0  0  0
    7.7168  -14.6620   25.4492 N   0  0  0  0  0  0  0  0  0  0  0  0
    8.7529  -14.3993   27.6158 C   0  0  0  0  0  0  0  0  0  0  0  0
    8.4384  -15.5989   27.8230 O   0  0  0  0  0  0  0  0  0  0  0  0
    9.5340  -13.7595   28.5653 O   0  0  0  0  0  0  0  0  0  0  0  0
  1  2  1  0
  2  3  2  0
  4  2  1  0
  5  4  1  0
  5  6  1  6
  7  5  1  0
  7 11  1  0
  8  7  2  0
 10 12  1  0
 10 11  1  0
 10  9  1  1
 12 18  1  0
 13 12  2  0
 15 16  1  6
 15 14  1  0
 17 15  1  0
 17 18  1  6
 19 21  1  0
 19 17  1  0
 20 19  2  0
M  END
$$$$
