NAV.pdb
     RDKit          3D

 21 20  0  0  1  0  0  0  0  0999 V2000
   12.9923  -15.7232   18.6950 N   0  0  0  0  0  0  0  0  0  0  0  0
   12.8855  -14.5501   19.4758 C   0  0  0  0  0  0  0  0  0  0  0  0
   13.8900  -13.8307   19.6266 O   0  0  0  0  0  0  0  0  0  0  0  0
   11.5694  -14.2351   20.0801 C   0  0  0  0  0  0  0  0  0  0  0  0
   10.5381  -15.2989   19.7709 C   0  0  2  0  0  0  0  0  0  0  0  0
    9.9162  -14.9813   18.5226 N   0  0  0  0  0  0  0  0  0  0  0  0
    9.5759  -15.3300   20.9023 C   0  0  0  0  0  0  0  0  0  0  0  0
    8.7040  -14.4255   20.9665 O   0  0  0  0  0  0  0  0  0  0  0  0
    8.5644  -17.8135   23.4569 C   0  0  0  0  0  0  0  0  0  0  0  0
    8.5720  -16.3808   22.9067 C   0  0  2  0  0  0  0  0  0  0  0  0
    9.5999  -16.3333   21.9084 N   0  0  0  0  0  0  0  0  0  0  0  0
    8.8427  -15.4986   24.0607 C   0  0  0  0  0  0  0  0  0  0  0  0
   10.0396  -15.2726   24.3683 O   0  0  0  0  0  0  0  0  0  0  0  0
    7.0988  -12.2445   27.4297 C   0  0  0  0  0  0  0  0  0  0  0  0
    6.8529  -13.1756   26.2627 C   0  0  1  0  0  0  0  0  0  0  0  0
    6.3558  -12.3977   25.0545 C   0  0  0  0  0  0  0  0  0  0  0  0
    8.0905  -13.9789   25.9261 C   0  0  2  0  0  0  0  0  0  0  0  0
    7.8211  -14.8955   24.8367 N   0  0  0  0  0  0  0  0  0  0  0  0
    8.4794  -14.7238   27.1548 C   0  0  0  0  0  0  0  0  0  0  0  0
    8.0877  -15.9066   27.3235 O   0  0  0  0  0  0  0  0  0  0  0  0
    9.2715  -14.1554   28.1400 O   0  0  0  0  0  0  0  0  0  0  0  0
  1  2  1  0
  2  3  2  0
  4  2  1  0
  5  4  1  0
  5  6  1  6
  7  5  1  0
  7 11  1  0
  8  7  2  0
 10 12  1  0
 10 11  1  0
 10  9  1  1
 12 18  1  0
 13 12  2  0
 15 16  1  6
 15 14  1  0
 17 15  1  0
 17 18  1  6
 19 21  1  0
 19 17  1  0
 20 19  2  0
M  END
$$$$
