NAV.pdb
     RDKit          3D

 21 20  0  0  1  0  0  0  0  0999 V2000
    6.1219  -22.1261   17.4871 N   0  0  0  0  0  0  0  0  0  0  0  0
    7.1075  -21.8096   18.4494 C   0  0  0  0  0  0  0  0  0  0  0  0
    7.9725  -22.6593   18.7309 O   0  0  0  0  0  0  0  0  0  0  0  0
    7.0586  -20.4689   19.0791 C   0  0  0  0  0  0  0  0  0  0  0  0
    5.8743  -19.6611   18.5935 C   0  0  2  0  0  0  0  0  0  0  0  0
    6.3279  -18.7425   17.5952 N   0  0  0  0  0  0  0  0  0  0  0  0
    5.2828  -18.9819   19.7749 C   0  0  0  0  0  0  0  0  0  0  0  0
    5.8275  -17.9261   20.1886 O   0  0  0  0  0  0  0  0  0  0  0  0
    2.1893  -19.3144   21.8139 C   0  0  0  0  0  0  0  0  0  0  0  0
    3.6041  -18.7666   21.5818 C   0  0  2  0  0  0  0  0  0  0  0  0
    4.1341  -19.4728   20.4524 N   0  0  0  0  0  0  0  0  0  0  0  0
    4.3535  -19.0216   22.8295 C   0  0  0  0  0  0  0  0  0  0  0  0
    4.0201  -18.3899   23.8630 O   0  0  0  0  0  0  0  0  0  0  0  0
    5.5108  -22.5850   24.0664 C   0  0  0  0  0  0  0  0  0  0  0  0
    6.6574  -21.6070   24.2010 C   0  0  1  0  0  0  0  0  0  0  0  0
    7.7158  -21.8762   23.1430 C   0  0  0  0  0  0  0  0  0  0  0  0
    6.1726  -20.1748   24.1394 C   0  0  2  0  0  0  0  0  0  0  0  0
    5.4280  -19.9420   22.9184 N   0  0  0  0  0  0  0  0  0  0  0  0
    7.3758  -19.3001   24.1953 C   0  0  0  0  0  0  0  0  0  0  0  0
    7.7282  -18.6497   23.1787 O   0  0  0  0  0  0  0  0  0  0  0  0
    8.1386  -19.1708   25.3454 O   0  0  0  0  0  0  0  0  0  0  0  0
  1  2  1  0
  2  3  2  0
  4  2  1  0
  5  4  1  0
  5  6  1  6
  7  5  1  0
  7 11  1  0
  8  7  2  0
 10 12  1  0
 10 11  1  0
 10  9  1  1
 12 18  1  0
 13 12  2  0
 15 16  1  6
 15 14  1  0
 17 15  1  0
 17 18  1  6
 19 21  1  0
 19 17  1  0
 20 19  2  0
M  END
$$$$
