NAV.pdb
     RDKit          3D

 21 20  0  0  1  0  0  0  0  0999 V2000
    8.9274  -12.3769   18.0049 N   0  0  0  0  0  0  0  0  0  0  0  0
    8.1889  -13.5650   17.8036 C   0  0  0  0  0  0  0  0  0  0  0  0
    8.0889  -14.0269   16.6520 O   0  0  0  0  0  0  0  0  0  0  0  0
    7.5660  -14.2048   18.9864 C   0  0  0  0  0  0  0  0  0  0  0  0
    8.3602  -15.4019   19.4632 C   0  0  2  0  0  0  0  0  0  0  0  0
    8.0831  -16.5065   18.5977 N   0  0  0  0  0  0  0  0  0  0  0  0
    7.9710  -15.6630   20.8729 C   0  0  0  0  0  0  0  0  0  0  0  0
    6.7746  -15.9687   21.1127 O   0  0  0  0  0  0  0  0  0  0  0  0
    9.2672  -17.2851   23.5726 C   0  0  0  0  0  0  0  0  0  0  0  0
    8.4946  -15.9940   23.2699 C   0  0  2  0  0  0  0  0  0  0  0  0
    8.8891  -15.5822   21.9546 N   0  0  0  0  0  0  0  0  0  0  0  0
    8.8797  -15.0286   24.3201 C   0  0  0  0  0  0  0  0  0  0  0  0
   10.0710  -14.6312   24.3544 O   0  0  0  0  0  0  0  0  0  0  0  0
    7.0536  -11.6892   25.3863 C   0  0  0  0  0  0  0  0  0  0  0  0
    7.2588  -12.5935   26.5819 C   0  0  1  0  0  0  0  0  0  0  0  0
    5.9576  -13.2842   26.9586 C   0  0  0  0  0  0  0  0  0  0  0  0
    8.3609  -13.5997   26.3312 C   0  0  2  0  0  0  0  0  0  0  0  0
    7.9736  -14.5292   25.2893 N   0  0  0  0  0  0  0  0  0  0  0  0
    8.6009  -14.3181   27.6127 C   0  0  0  0  0  0  0  0  0  0  0  0
    8.2882  -15.5310   27.7218 O   0  0  0  0  0  0  0  0  0  0  0  0
    9.1663  -13.6919   28.7124 O   0  0  0  0  0  0  0  0  0  0  0  0
  1  2  1  0
  2  3  2  0
  4  2  1  0
  5  4  1  0
  5  6  1  6
  7  5  1  0
  7 11  1  0
  8  7  2  0
 10 12  1  0
 10 11  1  0
 10  9  1  1
 12 18  1  0
 13 12  2  0
 15 16  1  6
 15 14  1  0
 17 15  1  0
 17 18  1  6
 19 21  1  0
 19 17  1  0
 20 19  2  0
M  END
$$$$
