NAV.pdb
     RDKit          3D

 21 20  0  0  1  0  0  0  0  0999 V2000
    7.6453  -16.0574   17.2371 N   0  0  0  0  0  0  0  0  0  0  0  0
    7.4760  -17.1253   18.1472 C   0  0  0  0  0  0  0  0  0  0  0  0
    7.7590  -18.2812   17.7824 O   0  0  0  0  0  0  0  0  0  0  0  0
    6.9651  -16.8092   19.5020 C   0  0  0  0  0  0  0  0  0  0  0  0
    8.0634  -16.8518   20.5426 C   0  0  2  0  0  0  0  0  0  0  0  0
    8.6088  -18.1737   20.5755 N   0  0  0  0  0  0  0  0  0  0  0  0
    7.4656  -16.4429   21.8396 C   0  0  0  0  0  0  0  0  0  0  0  0
    6.9195  -15.3121   21.9127 O   0  0  0  0  0  0  0  0  0  0  0  0
    6.9841  -17.9732   25.2114 C   0  0  0  0  0  0  0  0  0  0  0  0
    6.9853  -16.7812   24.2447 C   0  0  2  0  0  0  0  0  0  0  0  0
    7.4852  -17.2718   22.9938 N   0  0  0  0  0  0  0  0  0  0  0  0
    7.8572  -15.7569   24.8563 C   0  0  0  0  0  0  0  0  0  0  0  0
    9.0969  -15.8448   24.6728 O   0  0  0  0  0  0  0  0  0  0  0  0
    6.8770  -11.8308   25.1273 C   0  0  0  0  0  0  0  0  0  0  0  0
    7.4341  -12.3778   26.4234 C   0  0  1  0  0  0  0  0  0  0  0  0
    6.3195  -12.5925   27.4352 C   0  0  0  0  0  0  0  0  0  0  0  0
    8.2190  -13.6511   26.1941 C   0  0  2  0  0  0  0  0  0  0  0  0
    7.3654  -14.6816   25.6384 N   0  0  0  0  0  0  0  0  0  0  0  0
    8.7641  -14.0756   27.5127 C   0  0  0  0  0  0  0  0  0  0  0  0
    8.3143  -15.1052   28.0770 O   0  0  0  0  0  0  0  0  0  0  0  0
    9.7672  -13.3681   28.1564 O   0  0  0  0  0  0  0  0  0  0  0  0
  1  2  1  0
  2  3  2  0
  4  2  1  0
  5  4  1  0
  5  6  1  1
  7  5  1  0
  7 11  1  0
  8  7  2  0
 10 12  1  0
 10 11  1  0
 10  9  1  1
 12 18  1  0
 13 12  2  0
 15 16  1  1
 15 14  1  0
 17 15  1  0
 17 18  1  1
 19 21  1  0
 19 17  1  0
 20 19  2  0
M  END
$$$$
