NAV.pdb
     RDKit          3D

 21 20  0  0  1  0  0  0  0  0999 V2000
    6.3790  -20.5766   21.8771 N   0  0  0  0  0  0  0  0  0  0  0  0
    5.8517  -19.2659   21.8370 C   0  0  0  0  0  0  0  0  0  0  0  0
    4.6177  -19.1122   21.7809 O   0  0  0  0  0  0  0  0  0  0  0  0
    6.8055  -18.1320   21.8642 C   0  0  0  0  0  0  0  0  0  0  0  0
    6.7764  -17.3401   20.5746 C   0  0  2  0  0  0  0  0  0  0  0  0
    7.1421  -18.2085   19.4984 N   0  0  0  0  0  0  0  0  0  0  0  0
    7.7092  -16.1948   20.7330 C   0  0  0  0  0  0  0  0  0  0  0  0
    8.9305  -16.4420   20.9058 O   0  0  0  0  0  0  0  0  0  0  0  0
    7.5149  -12.4875   20.4311 C   0  0  0  0  0  0  0  0  0  0  0  0
    8.2308  -13.7776   20.8534 C   0  0  2  0  0  0  0  0  0  0  0  0
    7.2812  -14.8402   20.6974 N   0  0  0  0  0  0  0  0  0  0  0  0
    8.6496  -13.5752   22.2559 C   0  0  0  0  0  0  0  0  0  0  0  0
    9.5834  -12.7671   22.4868 O   0  0  0  0  0  0  0  0  0  0  0  0
    7.4355  -12.0482   25.3236 C   0  0  0  0  0  0  0  0  0  0  0  0
    7.5808  -13.5230   25.6290 C   0  0  1  0  0  0  0  0  0  0  0  0
    6.2287  -14.2162   25.5701 C   0  0  0  0  0  0  0  0  0  0  0  0
    8.5766  -14.1842   24.7011 C   0  0  2  0  0  0  0  0  0  0  0  0
    8.0514  -14.2461   23.3521 N   0  0  0  0  0  0  0  0  0  0  0  0
    8.8290  -15.5528   25.2294 C   0  0  0  0  0  0  0  0  0  0  0  0
    8.4413  -16.5582   24.5817 O   0  0  0  0  0  0  0  0  0  0  0  0
    9.4871  -15.7681   26.4301 O   0  0  0  0  0  0  0  0  0  0  0  0
  1  2  1  0
  2  3  2  0
  4  2  1  0
  5  4  1  0
  5  6  1  6
  7  5  1  0
  7 11  1  0
  8  7  2  0
 10 12  1  0
 10 11  1  0
 10  9  1  1
 12 18  1  0
 13 12  2  0
 15 16  1  6
 15 14  1  0
 17 15  1  0
 17 18  1  6
 19 21  1  0
 19 17  1  0
 20 19  2  0
M  END
$$$$
