NAV.pdb
     RDKit          3D

 21 20  0  0  1  0  0  0  0  0999 V2000
    9.4655  -13.8560   17.4252 N   0  0  0  0  0  0  0  0  0  0  0  0
    8.0902  -13.5920   17.6158 C   0  0  0  0  0  0  0  0  0  0  0  0
    7.4324  -13.1051   16.6778 O   0  0  0  0  0  0  0  0  0  0  0  0
    7.4975  -13.9121   18.9359 C   0  0  0  0  0  0  0  0  0  0  0  0
    8.5209  -14.4950   19.8866 C   0  0  2  0  0  0  0  0  0  0  0  0
    8.9673  -15.7489   19.3626 N   0  0  0  0  0  0  0  0  0  0  0  0
    7.8717  -14.6250   21.2165 C   0  0  0  0  0  0  0  0  0  0  0  0
    7.3791  -13.5933   21.7412 O   0  0  0  0  0  0  0  0  0  0  0  0
    7.3247  -17.3638   23.7002 C   0  0  0  0  0  0  0  0  0  0  0  0
    7.2204  -15.9058   23.2326 C   0  0  2  0  0  0  0  0  0  0  0  0
    7.7849  -15.8591   21.9156 N   0  0  0  0  0  0  0  0  0  0  0  0
    7.9764  -15.1034   24.2165 C   0  0  0  0  0  0  0  0  0  0  0  0
    9.2066  -14.9343   24.0263 O   0  0  0  0  0  0  0  0  0  0  0  0
    6.7253  -11.6342   25.6302 C   0  0  0  0  0  0  0  0  0  0  0  0
    7.1844  -12.5312   26.7589 C   0  0  1  0  0  0  0  0  0  0  0  0
    5.9899  -13.1075   27.5026 C   0  0  0  0  0  0  0  0  0  0  0  0
    8.0985  -13.6277   26.2567 C   0  0  2  0  0  0  0  0  0  0  0  0
    7.3837  -14.5159   25.3625 N   0  0  0  0  0  0  0  0  0  0  0  0
    8.5925  -14.3694   27.4491 C   0  0  0  0  0  0  0  0  0  0  0  0
    9.3381  -13.7949   28.2826 O   0  0  0  0  0  0  0  0  0  0  0  0
    8.2573  -15.6940   27.6825 O   0  0  0  0  0  0  0  0  0  0  0  0
  1  2  1  0
  2  3  2  0
  4  2  1  0
  5  4  1  0
  5  6  1  6
  7  5  1  0
  7 11  1  0
  8  7  2  0
 10 12  1  0
 10 11  1  0
 10  9  1  1
 12 18  1  0
 13 12  2  0
 15 16  1  6
 15 14  1  0
 17 15  1  0
 17 18  1  6
 19 21  1  0
 19 17  1  0
 20 19  2  0
M  END
$$$$
