NAV.pdb
     RDKit          3D

 21 20  0  0  1  0  0  0  0  0999 V2000
    8.3194  -18.6347   17.1078 N   0  0  0  0  0  0  0  0  0  0  0  0
    7.9044  -18.0678   18.3341 C   0  0  0  0  0  0  0  0  0  0  0  0
    7.5532  -18.8215   19.2605 O   0  0  0  0  0  0  0  0  0  0  0  0
    7.9093  -16.5907   18.4538 C   0  0  0  0  0  0  0  0  0  0  0  0
    8.8952  -16.1132   19.4983 C   0  0  2  0  0  0  0  0  0  0  0  0
    9.9698  -17.0542   19.5744 N   0  0  0  0  0  0  0  0  0  0  0  0
    8.1566  -15.9776   20.7802 C   0  0  0  0  0  0  0  0  0  0  0  0
    7.2597  -15.0992   20.8598 O   0  0  0  0  0  0  0  0  0  0  0  0
    7.8469  -17.9085   23.9354 C   0  0  0  0  0  0  0  0  0  0  0  0
    7.6675  -16.6204   23.1205 C   0  0  2  0  0  0  0  0  0  0  0  0
    8.4202  -16.7944   21.9128 N   0  0  0  0  0  0  0  0  0  0  0  0
    8.1769  -15.5230   23.9686 C   0  0  0  0  0  0  0  0  0  0  0  0
    9.3810  -15.1862   23.8455 O   0  0  0  0  0  0  0  0  0  0  0  0
    5.5429  -13.2399   26.5053 C   0  0  0  0  0  0  0  0  0  0  0  0
    6.7774  -12.6645   25.8462 C   0  0  1  0  0  0  0  0  0  0  0  0
    7.2835  -11.4582   26.6213 C   0  0  0  0  0  0  0  0  0  0  0  0
    7.8601  -13.7105   25.6919 C   0  0  2  0  0  0  0  0  0  0  0  0
    7.3762  -14.8322   24.9128 N   0  0  0  0  0  0  0  0  0  0  0  0
    8.2461  -14.1497   27.0608 C   0  0  0  0  0  0  0  0  0  0  0  0
    7.8407  -15.2542   27.5045 O   0  0  0  0  0  0  0  0  0  0  0  0
    9.0500  -13.3755   27.8826 O   0  0  0  0  0  0  0  0  0  0  0  0
  1  2  1  0
  2  3  2  0
  4  2  1  0
  5  4  1  0
  5  6  1  1
  7  5  1  0
  7 11  1  0
  8  7  2  0
 10 12  1  0
 10 11  1  0
 10  9  1  1
 12 18  1  0
 13 12  2  0
 15 16  1  1
 15 14  1  0
 17 15  1  0
 17 18  1  6
 19 21  1  0
 19 17  1  0
 20 19  2  0
M  END
$$$$
