NAV.pdb
     RDKit          3D

 21 20  0  0  1  0  0  0  0  0999 V2000
   10.9995  -14.4933   17.5925 N   0  0  0  0  0  0  0  0  0  0  0  0
   11.5077  -13.9303   18.7851 C   0  0  0  0  0  0  0  0  0  0  0  0
   12.7284  -13.7039   18.8746 O   0  0  0  0  0  0  0  0  0  0  0  0
   10.5504  -13.6363   19.8776 C   0  0  0  0  0  0  0  0  0  0  0  0
    9.1515  -14.1074   19.5431 C   0  0  2  0  0  0  0  0  0  0  0  0
    8.5677  -13.1828   18.6209 N   0  0  0  0  0  0  0  0  0  0  0  0
    8.3958  -14.2032   20.8186 C   0  0  0  0  0  0  0  0  0  0  0  0
    7.9723  -13.1398   21.3402 O   0  0  0  0  0  0  0  0  0  0  0  0
    6.9641  -16.9569   22.8797 C   0  0  0  0  0  0  0  0  0  0  0  0
    7.3008  -15.4796   22.6355 C   0  0  2  0  0  0  0  0  0  0  0  0
    8.1335  -15.4390   21.4692 N   0  0  0  0  0  0  0  0  0  0  0  0
    7.9876  -15.0073   23.8555 C   0  0  0  0  0  0  0  0  0  0  0  0
    9.2391  -15.1031   23.9081 O   0  0  0  0  0  0  0  0  0  0  0  0
    7.0352  -11.6204   25.8117 C   0  0  0  0  0  0  0  0  0  0  0  0
    7.1739  -12.7989   26.7503 C   0  0  1  0  0  0  0  0  0  0  0  0
    5.8055  -13.2977   27.1870 C   0  0  0  0  0  0  0  0  0  0  0  0
    7.9886  -13.9105   26.1254 C   0  0  2  0  0  0  0  0  0  0  0  0
    7.3060  -14.4523   24.9678 N   0  0  0  0  0  0  0  0  0  0  0  0
    8.1723  -14.9597   27.1652 C   0  0  0  0  0  0  0  0  0  0  0  0
    7.5802  -16.0635   27.0562 O   0  0  0  0  0  0  0  0  0  0  0  0
    8.9855  -14.7656   28.2707 O   0  0  0  0  0  0  0  0  0  0  0  0
  1  2  1  0
  2  3  2  0
  4  2  1  0
  5  4  1  0
  5  6  1  6
  7  5  1  0
  7 11  1  0
  8  7  2  0
 10 12  1  0
 10 11  1  0
 10  9  1  1
 12 18  1  0
 13 12  2  0
 15 16  1  6
 15 14  1  0
 17 15  1  0
 17 18  1  6
 19 21  1  0
 19 17  1  0
 20 19  2  0
M  END
$$$$
