NAV.pdb
     RDKit          3D

 21 20  0  0  1  0  0  0  0  0999 V2000
    7.8872  -12.8345   16.9223 N   0  0  0  0  0  0  0  0  0  0  0  0
    8.5221  -13.6734   17.8661 C   0  0  0  0  0  0  0  0  0  0  0  0
    9.6360  -14.1568   17.5924 O   0  0  0  0  0  0  0  0  0  0  0  0
    7.8209  -13.9359   19.1450 C   0  0  0  0  0  0  0  0  0  0  0  0
    8.0557  -15.3479   19.6370 C   0  0  2  0  0  0  0  0  0  0  0  0
    7.3917  -16.2549   18.7524 N   0  0  0  0  0  0  0  0  0  0  0  0
    7.5464  -15.4257   21.0303 C   0  0  0  0  0  0  0  0  0  0  0  0
    6.3853  -15.0016   21.2636 O   0  0  0  0  0  0  0  0  0  0  0  0
    8.0593  -17.4788   23.9141 C   0  0  0  0  0  0  0  0  0  0  0  0
    7.7424  -16.0626   23.4147 C   0  0  2  0  0  0  0  0  0  0  0  0
    8.3121  -15.9562   22.1034 N   0  0  0  0  0  0  0  0  0  0  0  0
    8.3541  -15.1363   24.3899 C   0  0  0  0  0  0  0  0  0  0  0  0
    9.5643  -14.8326   24.2432 O   0  0  0  0  0  0  0  0  0  0  0  0
    6.9552  -11.6847   25.6716 C   0  0  0  0  0  0  0  0  0  0  0  0
    7.2817  -12.5874   26.8411 C   0  0  1  0  0  0  0  0  0  0  0  0
    6.0102  -13.1721   27.4355 C   0  0  0  0  0  0  0  0  0  0  0  0
    8.2528  -13.6778   26.4436 C   0  0  2  0  0  0  0  0  0  0  0  0
    7.6448  -14.5740   25.4810 N   0  0  0  0  0  0  0  0  0  0  0  0
    8.6218  -14.4124   27.6846 C   0  0  0  0  0  0  0  0  0  0  0  0
    8.2181  -15.5898   27.8619 O   0  0  0  0  0  0  0  0  0  0  0  0
    9.4080  -13.8399   28.6722 O   0  0  0  0  0  0  0  0  0  0  0  0
  1  2  1  0
  2  3  2  0
  4  2  1  0
  5  4  1  0
  5  6  1  6
  7  5  1  0
  7 11  1  0
  8  7  2  0
 10 12  1  0
 10 11  1  0
 10  9  1  1
 12 18  1  0
 13 12  2  0
 15 16  1  6
 15 14  1  0
 17 15  1  0
 17 18  1  6
 19 21  1  0
 19 17  1  0
 20 19  2  0
M  END
$$$$
