NAV.pdb
     RDKit          3D

 21 20  0  0  1  0  0  0  0  0999 V2000
   11.2961  -14.9173   18.8679 N   0  0  0  0  0  0  0  0  0  0  0  0
   11.4343  -13.8629   19.7989 C   0  0  0  0  0  0  0  0  0  0  0  0
   12.5757  -13.5143   20.1525 O   0  0  0  0  0  0  0  0  0  0  0  0
   10.2001  -13.2214   20.3103 C   0  0  0  0  0  0  0  0  0  0  0  0
    8.9533  -13.9138   19.8033 C   0  0  2  0  0  0  0  0  0  0  0  0
    8.3634  -13.1014   18.7844 N   0  0  0  0  0  0  0  0  0  0  0  0
    8.0536  -14.1216   20.9670 C   0  0  0  0  0  0  0  0  0  0  0  0
    7.0636  -13.3566   21.0974 O   0  0  0  0  0  0  0  0  0  0  0  0
    7.2988  -17.0603   22.9582 C   0  0  0  0  0  0  0  0  0  0  0  0
    7.2029  -15.5355   22.8128 C   0  0  2  0  0  0  0  0  0  0  0  0
    8.2642  -15.1428   21.9326 N   0  0  0  0  0  0  0  0  0  0  0  0
    7.3449  -14.9827   24.1757 C   0  0  0  0  0  0  0  0  0  0  0  0
    6.5431  -15.3712   25.0614 O   0  0  0  0  0  0  0  0  0  0  0  0
    6.9077  -11.8938   25.3152 C   0  0  0  0  0  0  0  0  0  0  0  0
    7.4854  -12.7539   26.4179 C   0  0  1  0  0  0  0  0  0  0  0  0
    6.3919  -13.5743   27.0836 C   0  0  0  0  0  0  0  0  0  0  0  0
    8.5984  -13.6400   25.9022 C   0  0  2  0  0  0  0  0  0  0  0  0
    8.3391  -14.0375   24.5332 N   0  0  0  0  0  0  0  0  0  0  0  0
    8.6604  -14.8317   26.7921 C   0  0  0  0  0  0  0  0  0  0  0  0
    8.3315  -15.9627   26.3522 O   0  0  0  0  0  0  0  0  0  0  0  0
    9.0741  -14.7436   28.1120 O   0  0  0  0  0  0  0  0  0  0  0  0
  1  2  1  0
  2  3  2  0
  4  2  1  0
  5  4  1  0
  5  6  1  6
  7  5  1  0
  7 11  1  0
  8  7  2  0
 10 12  1  0
 10 11  1  0
 10  9  1  1
 12 18  1  0
 13 12  2  0
 15 16  1  6
 15 14  1  0
 17 15  1  0
 17 18  1  6
 19 21  1  0
 19 17  1  0
 20 19  2  0
M  END
$$$$
