NAV.pdb
     RDKit          3D

 21 20  0  0  1  0  0  0  0  0999 V2000
    9.6336  -20.3356   17.9516 N   0  0  0  0  0  0  0  0  0  0  0  0
   10.2459  -20.2149   19.2196 C   0  0  0  0  0  0  0  0  0  0  0  0
   10.8929  -21.1770   19.6726 O   0  0  0  0  0  0  0  0  0  0  0  0
   10.0837  -18.9360   19.9506 C   0  0  0  0  0  0  0  0  0  0  0  0
    9.2320  -17.9504   19.1798 C   0  0  2  0  0  0  0  0  0  0  0  0
   10.0764  -17.2207   18.2851 N   0  0  0  0  0  0  0  0  0  0  0  0
    8.5521  -17.0772   20.1709 C   0  0  0  0  0  0  0  0  0  0  0  0
    9.1191  -16.0059   20.5075 O   0  0  0  0  0  0  0  0  0  0  0  0
    5.2348  -17.0388   21.8834 C   0  0  0  0  0  0  0  0  0  0  0  0
    6.6261  -16.4573   21.5976 C   0  0  2  0  0  0  0  0  0  0  0  0
    7.2956  -17.4005   20.7506 N   0  0  0  0  0  0  0  0  0  0  0  0
    7.2803  -16.2915   22.9121 C   0  0  0  0  0  0  0  0  0  0  0  0
    8.0751  -17.1848   23.2975 O   0  0  0  0  0  0  0  0  0  0  0  0
    7.5217  -12.5082   24.6996 C   0  0  0  0  0  0  0  0  0  0  0  0
    7.3444  -13.6715   25.6507 C   0  0  1  0  0  0  0  0  0  0  0  0
    5.9110  -13.7360   26.1541 C   0  0  0  0  0  0  0  0  0  0  0  0
    7.7595  -14.9779   25.0097 C   0  0  2  0  0  0  0  0  0  0  0  0
    7.0562  -15.1766   23.7586 N   0  0  0  0  0  0  0  0  0  0  0  0
    7.4332  -16.0644   25.9736 C   0  0  0  0  0  0  0  0  0  0  0  0
    6.3924  -16.7522   25.8171 O   0  0  0  0  0  0  0  0  0  0  0  0
    8.2462  -16.3545   27.0580 O   0  0  0  0  0  0  0  0  0  0  0  0
  1  2  1  0
  2  3  2  0
  4  2  1  0
  5  4  1  0
  5  6  1  6
  7  5  1  0
  7 11  1  0
  8  7  2  0
 10 12  1  0
 10 11  1  0
 10  9  1  1
 12 18  1  0
 13 12  2  0
 15 16  1  6
 15 14  1  0
 17 15  1  0
 17 18  1  6
 19 21  1  0
 19 17  1  0
 20 19  2  0
M  END
$$$$
