MPP.pdb
     RDKit          3D

 23 24  0  0  1  0  0  0  0  0999 V2000
   20.8405  -22.4528  -11.7305 C   0  0  0  0  0  0  0  0  0  0  0  0
   20.8354  -20.9270  -12.6823 S   0  0  0  0  0  0  0  0  0  0  0  0
   22.4985  -20.2233  -12.8207 C   0  0  0  0  0  0  0  0  0  0  0  0
   23.3667  -20.6995  -11.6697 C   0  0  0  0  0  0  0  0  0  0  0  0
   24.6748  -21.2549  -12.2030 C   0  0  2  0  0  0  0  0  0  0  0  0
   24.3527  -22.3768  -13.0215 N   0  0  0  0  0  0  0  0  0  0  0  0
   25.6691  -21.4637  -11.1578 C   0  0  0  0  0  0  0  0  0  0  0  0
   25.5423  -22.5353  -10.4624 O   0  0  0  0  0  0  0  0  0  0  0  0
   26.7609  -20.6234  -10.8168 N   0  0  0  0  0  0  0  0  0  0  0  0
   27.2500  -19.3985  -11.4122 C   0  0  0  0  0  0  0  0  0  0  0  0
   28.7216  -19.7642  -11.5963 C   0  0  0  0  0  0  0  0  0  0  0  0
   29.0069  -20.3908  -10.2529 C   0  0  0  0  0  0  0  0  0  0  0  0
   27.6614  -20.8897   -9.7264 C   0  0  1  0  0  0  0  0  0  0  0  0
   27.3358  -20.3152   -8.4259 C   0  0  0  0  0  0  0  0  0  0  0  0
   26.4826  -19.3399   -8.4405 O   0  0  0  0  0  0  0  0  0  0  0  0
   27.8264  -20.6715   -7.1318 N   0  0  0  0  0  0  0  0  0  0  0  0
   28.7646  -21.7111   -6.8243 C   0  0  0  0  0  0  0  0  0  0  0  0
   28.6559  -21.9275   -5.3074 C   0  0  0  0  0  0  0  0  0  0  0  0
   28.3276  -20.5456   -4.8342 C   0  0  0  0  0  0  0  0  0  0  0  0
   27.4384  -19.9998   -5.9047 C   0  0  1  0  0  0  0  0  0  0  0  0
   27.5965  -18.5182   -5.9959 C   0  0  0  0  0  0  0  0  0  0  0  0
   27.0492  -17.6893   -5.0584 O   0  0  0  0  0  0  0  0  0  0  0  0
   28.2425  -18.0500   -6.9538 O   0  0  0  0  0  0  0  0  0  0  0  0
  2  1  1  0
  3  2  1  0
  4  3  1  0
  5  7  1  0
  5  4  1  0
  5  6  1  1
  7  9  1  0
  8  7  2  0
  9 10  1  0
  9 13  1  0
 10 11  1  0
 11 12  1  0
 13 12  1  0
 14 16  1  0
 13 14  1  1
 15 14  2  0
 16 17  1  0
 18 17  1  0
 19 18  1  0
 20 21  1  6
 20 16  1  0
 20 19  1  0
 21 22  1  0
 23 21  2  0
M  END
$$$$
