MPP.pdb
     RDKit          3D

 23 24  0  0  1  0  0  0  0  0999 V2000
   22.0741  -20.3843  -14.2482 C   0  0  0  0  0  0  0  0  0  0  0  0
   21.0099  -20.3978  -15.6977 S   0  0  0  0  0  0  0  0  0  0  0  0
   21.9675  -20.5743  -17.2249 C   0  0  0  0  0  0  0  0  0  0  0  0
   22.8887  -19.3810  -17.4069 C   0  0  0  0  0  0  0  0  0  0  0  0
   24.2811  -19.8543  -17.7826 C   0  0  2  0  0  0  0  0  0  0  0  0
   24.1248  -20.9382  -18.6952 N   0  0  0  0  0  0  0  0  0  0  0  0
   25.1326  -20.0852  -16.6223 C   0  0  0  0  0  0  0  0  0  0  0  0
   25.5423  -21.2899  -16.4522 O   0  0  0  0  0  0  0  0  0  0  0  0
   25.5630  -19.1371  -15.6578 N   0  0  0  0  0  0  0  0  0  0  0  0
   25.2277  -17.7422  -15.4692 C   0  0  0  0  0  0  0  0  0  0  0  0
   26.6302  -17.1404  -15.4043 C   0  0  0  0  0  0  0  0  0  0  0  0
   27.2978  -18.1287  -14.4788 C   0  0  0  0  0  0  0  0  0  0  0  0
   26.5130  -19.4329  -14.6181 C   0  0  1  0  0  0  0  0  0  0  0  0
   25.9904  -19.8964  -13.3377 C   0  0  0  0  0  0  0  0  0  0  0  0
   24.7640  -19.5674  -13.0794 O   0  0  0  0  0  0  0  0  0  0  0  0
   26.6395  -20.6616  -12.3201 N   0  0  0  0  0  0  0  0  0  0  0  0
   27.9987  -21.1178  -12.3227 C   0  0  0  0  0  0  0  0  0  0  0  0
   28.0749  -22.1891  -11.2244 C   0  0  0  0  0  0  0  0  0  0  0  0
   27.0732  -21.6738  -10.2384 C   0  0  0  0  0  0  0  0  0  0  0  0
   25.9940  -21.0903  -11.0925 C   0  0  1  0  0  0  0  0  0  0  0  0
   25.3298  -19.9605  -10.3777 C   0  0  0  0  0  0  0  0  0  0  0  0
   24.3025  -20.1817   -9.5052 O   0  0  0  0  0  0  0  0  0  0  0  0
   25.7348  -18.8021  -10.5968 O   0  0  0  0  0  0  0  0  0  0  0  0
  2  1  1  0
  3  2  1  0
  4  3  1  0
  5  7  1  0
  5  4  1  0
  5  6  1  1
  7  9  1  0
  8  7  2  0
  9 10  1  0
  9 13  1  0
 10 11  1  0
 11 12  1  0
 13 12  1  0
 14 16  1  0
 13 14  1  1
 15 14  2  0
 16 17  1  0
 18 17  1  0
 19 18  1  0
 20 21  1  1
 20 16  1  0
 20 19  1  0
 21 22  1  0
 23 21  2  0
M  END
$$$$
