MPP.pdb
     RDKit          3D

 23 24  0  0  1  0  0  0  0  0999 V2000
   29.8280  -21.1249  -14.0286 C   0  0  0  0  0  0  0  0  0  0  0  0
   28.4403  -21.8161  -14.9399 S   0  0  0  0  0  0  0  0  0  0  0  0
   26.9665  -21.9633  -13.8975 C   0  0  0  0  0  0  0  0  0  0  0  0
   27.2688  -21.4779  -12.4909 C   0  0  0  0  0  0  0  0  0  0  0  0
   26.2972  -20.3783  -12.1025 C   0  0  2  0  0  0  0  0  0  0  0  0
   26.3796  -19.3702  -13.1071 N   0  0  0  0  0  0  0  0  0  0  0  0
   26.4545  -19.9467  -10.7192 C   0  0  0  0  0  0  0  0  0  0  0  0
   27.1616  -18.8916  -10.5328 O   0  0  0  0  0  0  0  0  0  0  0  0
   25.9193  -20.5538   -9.5533 N   0  0  0  0  0  0  0  0  0  0  0  0
   25.1524  -21.7673   -9.3706 C   0  0  0  0  0  0  0  0  0  0  0  0
   23.9780  -21.2179   -8.5629 C   0  0  0  0  0  0  0  0  0  0  0  0
   24.7217  -20.3612   -7.5670 C   0  0  0  0  0  0  0  0  0  0  0  0
   26.0478  -19.9955   -8.2333 C   0  0  1  0  0  0  0  0  0  0  0  0
   27.1947  -20.4103   -7.4332 C   0  0  0  0  0  0  0  0  0  0  0  0
   27.5173  -21.6622   -7.5211 O   0  0  0  0  0  0  0  0  0  0  0  0
   28.0161  -19.6329   -6.5595 N   0  0  0  0  0  0  0  0  0  0  0  0
   28.0463  -18.2034   -6.4535 C   0  0  0  0  0  0  0  0  0  0  0  0
   29.3327  -17.8756   -5.6805 C   0  0  0  0  0  0  0  0  0  0  0  0
   29.4456  -19.0637   -4.7766 C   0  0  0  0  0  0  0  0  0  0  0  0
   28.9606  -20.2021   -5.6154 C   0  0  1  0  0  0  0  0  0  0  0  0
   28.3367  -21.2464   -4.7502 C   0  0  0  0  0  0  0  0  0  0  0  0
   29.1006  -22.0729   -3.9763 O   0  0  0  0  0  0  0  0  0  0  0  0
   27.0944  -21.3498   -4.7501 O   0  0  0  0  0  0  0  0  0  0  0  0
  2  1  1  0
  3  2  1  0
  4  3  1  0
  5  7  1  0
  5  4  1  0
  5  6  1  6
  7  9  1  0
  8  7  2  0
  9 10  1  0
  9 13  1  0
 10 11  1  0
 11 12  1  0
 13 12  1  0
 14 16  1  0
 13 14  1  1
 15 14  2  0
 16 17  1  0
 18 17  1  0
 19 18  1  0
 20 21  1  1
 20 16  1  0
 20 19  1  0
 21 22  1  0
 23 21  2  0
M  END
$$$$
