MPP.pdb
     RDKit          3D

 23 24  0  0  1  0  0  0  0  0999 V2000
   21.1578  -15.6102  -16.5896 C   0  0  0  0  0  0  0  0  0  0  0  0
   22.4140  -15.7045  -15.3063 S   0  0  0  0  0  0  0  0  0  0  0  0
   23.7457  -16.8447  -15.7610 C   0  0  0  0  0  0  0  0  0  0  0  0
   23.2434  -17.8615  -16.7706 C   0  0  0  0  0  0  0  0  0  0  0  0
   24.3571  -18.8281  -17.1300 C   0  0  2  0  0  0  0  0  0  0  0  0
   23.8703  -19.6581  -18.1818 N   0  0  0  0  0  0  0  0  0  0  0  0
   24.9213  -19.4997  -15.9659 C   0  0  0  0  0  0  0  0  0  0  0  0
   24.3433  -20.5877  -15.6052 O   0  0  0  0  0  0  0  0  0  0  0  0
   26.0337  -19.0942  -15.1831 N   0  0  0  0  0  0  0  0  0  0  0  0
   26.8543  -17.9032  -15.2284 C   0  0  0  0  0  0  0  0  0  0  0  0
   28.2411  -18.5408  -15.2890 C   0  0  0  0  0  0  0  0  0  0  0  0
   28.0921  -19.5963  -14.2201 C   0  0  0  0  0  0  0  0  0  0  0  0
   26.5952  -19.8900  -14.1237 C   0  0  1  0  0  0  0  0  0  0  0  0
   26.0819  -19.6781  -12.7751 C   0  0  0  0  0  0  0  0  0  0  0  0
   25.6288  -18.4897  -12.5270 O   0  0  0  0  0  0  0  0  0  0  0  0
   26.0091  -20.5947  -11.6810 N   0  0  0  0  0  0  0  0  0  0  0  0
   26.4057  -21.9725  -11.6860 C   0  0  0  0  0  0  0  0  0  0  0  0
   25.7775  -22.5857  -10.4255 C   0  0  0  0  0  0  0  0  0  0  0  0
   25.8035  -21.4209   -9.4853 C   0  0  0  0  0  0  0  0  0  0  0  0
   25.5162  -20.2442  -10.3613 C   0  0  1  0  0  0  0  0  0  0  0  0
   26.1805  -19.0243   -9.8145 C   0  0  0  0  0  0  0  0  0  0  0  0
   25.6139  -18.3041   -8.8017 O   0  0  0  0  0  0  0  0  0  0  0  0
   27.2708  -18.6735  -10.3065 O   0  0  0  0  0  0  0  0  0  0  0  0
  2  1  1  0
  3  2  1  0
  4  3  1  0
  5  7  1  0
  5  4  1  0
  5  6  1  6
  7  9  1  0
  8  7  2  0
  9 10  1  0
  9 13  1  0
 10 11  1  0
 11 12  1  0
 13 12  1  0
 14 16  1  0
 13 14  1  1
 15 14  2  0
 16 17  1  0
 18 17  1  0
 19 18  1  0
 20 21  1  1
 20 16  1  0
 20 19  1  0
 21 22  1  0
 23 21  2  0
M  END
$$$$
