MPP.pdb
     RDKit          3D

 23 24  0  0  1  0  0  0  0  0999 V2000
   33.1857  -22.9152  -10.0106 C   0  0  0  0  0  0  0  0  0  0  0  0
   32.7189  -23.3944  -11.6798 S   0  0  0  0  0  0  0  0  0  0  0  0
   31.1709  -22.6050  -12.1906 C   0  0  0  0  0  0  0  0  0  0  0  0
   30.4884  -21.9665  -10.9939 C   0  0  0  0  0  0  0  0  0  0  0  0
   29.2663  -21.1894  -11.4485 C   0  0  2  0  0  0  0  0  0  0  0  0
   29.6415  -20.4602  -12.6145 N   0  0  0  0  0  0  0  0  0  0  0  0
   28.6423  -20.4340  -10.3694 C   0  0  0  0  0  0  0  0  0  0  0  0
   29.1629  -19.2909  -10.1045 O   0  0  0  0  0  0  0  0  0  0  0  0
   27.5276  -20.8115   -9.5760 N   0  0  0  0  0  0  0  0  0  0  0  0
   26.5777  -21.8947   -9.7117 C   0  0  0  0  0  0  0  0  0  0  0  0
   25.2696  -21.1114   -9.6180 C   0  0  0  0  0  0  0  0  0  0  0  0
   25.5832  -20.2151   -8.4445 C   0  0  0  0  0  0  0  0  0  0  0  0
   27.1064  -20.0954   -8.4011 C   0  0  1  0  0  0  0  0  0  0  0  0
   27.6524  -20.5226   -7.1178 C   0  0  0  0  0  0  0  0  0  0  0  0
   27.5774  -21.7924   -6.8704 O   0  0  0  0  0  0  0  0  0  0  0  0
   28.2579  -19.7393   -6.0871 N   0  0  0  0  0  0  0  0  0  0  0  0
   28.5570  -18.3380   -6.1358 C   0  0  0  0  0  0  0  0  0  0  0  0
   29.5240  -18.0833   -4.9696 C   0  0  0  0  0  0  0  0  0  0  0  0
   29.0493  -19.0884   -3.9668 C   0  0  0  0  0  0  0  0  0  0  0  0
   28.6594  -20.2691   -4.7966 C   0  0  1  0  0  0  0  0  0  0  0  0
   27.5592  -21.0244   -4.1275 C   0  0  0  0  0  0  0  0  0  0  0  0
   27.8221  -21.9320   -3.1413 O   0  0  0  0  0  0  0  0  0  0  0  0
   26.3868  -20.8085   -4.4919 O   0  0  0  0  0  0  0  0  0  0  0  0
  2  1  1  0
  3  2  1  0
  4  3  1  0
  5  7  1  0
  5  4  1  0
  5  6  1  6
  7  9  1  0
  8  7  2  0
  9 10  1  0
  9 13  1  0
 10 11  1  0
 11 12  1  0
 13 12  1  0
 14 16  1  0
 13 14  1  1
 15 14  2  0
 16 17  1  0
 18 17  1  0
 19 18  1  0
 20 21  1  1
 20 16  1  0
 20 19  1  0
 21 22  1  0
 23 21  2  0
M  END
$$$$
