MPP.pdb
     RDKit          3D

 23 24  0  0  1  0  0  0  0  0999 V2000
   23.8859  -16.0037  -14.9663 C   0  0  0  0  0  0  0  0  0  0  0  0
   22.3197  -16.8863  -14.9209 S   0  0  0  0  0  0  0  0  0  0  0  0
   22.5645  -18.6646  -14.6798 C   0  0  0  0  0  0  0  0  0  0  0  0
   23.8233  -19.1221  -15.3950 C   0  0  0  0  0  0  0  0  0  0  0  0
   24.0117  -20.6164  -15.2069 C   0  0  2  0  0  0  0  0  0  0  0  0
   22.7987  -21.2473  -15.6105 N   0  0  0  0  0  0  0  0  0  0  0  0
   24.5278  -20.9602  -13.8877 C   0  0  0  0  0  0  0  0  0  0  0  0
   23.7062  -21.5456  -13.0938 O   0  0  0  0  0  0  0  0  0  0  0  0
   25.8305  -20.7247  -13.3759 N   0  0  0  0  0  0  0  0  0  0  0  0
   26.9582  -20.0006  -13.9217 C   0  0  0  0  0  0  0  0  0  0  0  0
   28.0459  -21.0644  -13.7845 C   0  0  0  0  0  0  0  0  0  0  0  0
   27.7678  -21.5451  -12.3808 C   0  0  0  0  0  0  0  0  0  0  0  0
   26.2951  -21.2354  -12.1134 C   0  0  1  0  0  0  0  0  0  0  0  0
   26.1185  -20.3912  -10.9371 C   0  0  0  0  0  0  0  0  0  0  0  0
   26.2504  -19.1174  -11.1352 O   0  0  0  0  0  0  0  0  0  0  0  0
   25.8230  -20.7674   -9.5904 N   0  0  0  0  0  0  0  0  0  0  0  0
   25.5189  -22.0846   -9.1128 C   0  0  0  0  0  0  0  0  0  0  0  0
   24.9155  -21.8856   -7.7142 C   0  0  0  0  0  0  0  0  0  0  0  0
   25.6538  -20.6712   -7.2435 C   0  0  0  0  0  0  0  0  0  0  0  0
   25.7993  -19.8377   -8.4758 C   0  0  1  0  0  0  0  0  0  0  0  0
   27.0444  -19.0180   -8.3956 C   0  0  0  0  0  0  0  0  0  0  0  0
   27.0771  -17.8481   -7.6915 O   0  0  0  0  0  0  0  0  0  0  0  0
   28.0608  -19.4264   -8.9906 O   0  0  0  0  0  0  0  0  0  0  0  0
  2  1  1  0
  3  2  1  0
  4  3  1  0
  5  7  1  0
  5  4  1  0
  5  6  1  1
  7  9  1  0
  8  7  2  0
  9 10  1  0
  9 13  1  0
 10 11  1  0
 11 12  1  0
 13 12  1  0
 14 16  1  0
 13 14  1  1
 15 14  2  0
 16 17  1  0
 18 17  1  0
 19 18  1  0
 20 21  1  1
 20 16  1  0
 20 19  1  0
 21 22  1  0
 23 21  2  0
M  END
$$$$
