MPP.pdb
     RDKit          3D

 23 24  0  0  1  0  0  0  0  0999 V2000
   11.6070  -10.0659  -15.9052 C   0  0  0  0  0  0  0  0  0  0  0  0
   11.9828  -11.7296  -16.4749 S   0  0  0  0  0  0  0  0  0  0  0  0
   13.6002  -12.2873  -15.8805 C   0  0  0  0  0  0  0  0  0  0  0  0
   13.9863  -11.5294  -14.6227 C   0  0  0  0  0  0  0  0  0  0  0  0
   15.3200  -12.0342  -14.1028 C   0  0  2  0  0  0  0  0  0  0  0  0
   15.1521  -13.4134  -13.7837 N   0  0  0  0  0  0  0  0  0  0  0  0
   15.8828  -11.1798  -13.0646 C   0  0  0  0  0  0  0  0  0  0  0  0
   15.6465  -11.5316  -11.8528 O   0  0  0  0  0  0  0  0  0  0  0  0
   16.6609  -10.0048  -13.2334 N   0  0  0  0  0  0  0  0  0  0  0  0
   17.2052   -9.3780  -14.4185 C   0  0  0  0  0  0  0  0  0  0  0  0
   18.6647   -9.2306  -13.9920 C   0  0  0  0  0  0  0  0  0  0  0  0
   18.4769   -8.6984  -12.5919 C   0  0  0  0  0  0  0  0  0  0  0  0
   17.0953   -9.1731  -12.1424 C   0  0  1  0  0  0  0  0  0  0  0  0
   16.2338   -8.0613  -11.7561 C   0  0  0  0  0  0  0  0  0  0  0  0
   15.6386   -7.4475  -12.7298 O   0  0  0  0  0  0  0  0  0  0  0  0
   15.9524   -7.5461  -10.4531 N   0  0  0  0  0  0  0  0  0  0  0  0
   16.3924   -8.0882   -9.2008 C   0  0  0  0  0  0  0  0  0  0  0  0
   15.5211   -7.4123   -8.1314 C   0  0  0  0  0  0  0  0  0  0  0  0
   15.2907   -6.0662   -8.7449 C   0  0  0  0  0  0  0  0  0  0  0  0
   15.1627   -6.3533  -10.2063 C   0  0  1  0  0  0  0  0  0  0  0  0
   15.6400   -5.1837  -11.0018 C   0  0  0  0  0  0  0  0  0  0  0  0
   14.8723   -4.0628  -11.1419 O   0  0  0  0  0  0  0  0  0  0  0  0
   16.7619   -5.2530  -11.5407 O   0  0  0  0  0  0  0  0  0  0  0  0
  2  1  1  0
  3  2  1  0
  4  3  1  0
  5  7  1  0
  5  4  1  0
  5  6  1  1
  7  9  1  0
  8  7  2  0
  9 10  1  0
  9 13  1  0
 10 11  1  0
 11 12  1  0
 13 12  1  0
 14 16  1  0
 13 14  1  6
 15 14  2  0
 16 17  1  0
 18 17  1  0
 19 18  1  0
 20 21  1  6
 20 16  1  0
 20 19  1  0
 21 22  1  0
 23 21  2  0
M  END
$$$$
