MPP.pdb
     RDKit          3D

 23 24  0  0  1  0  0  0  0  0999 V2000
   21.4181  -19.7268  -11.3306 C   0  0  0  0  0  0  0  0  0  0  0  0
   22.1293  -19.5934  -12.9769 S   0  0  0  0  0  0  0  0  0  0  0  0
   23.9341  -19.4561  -12.9133 C   0  0  0  0  0  0  0  0  0  0  0  0
   24.4416  -19.8505  -11.5377 C   0  0  0  0  0  0  0  0  0  0  0  0
   25.2731  -21.1166  -11.6358 C   0  0  2  0  0  0  0  0  0  0  0  0
   24.4046  -22.1567  -12.0787 N   0  0  0  0  0  0  0  0  0  0  0  0
   26.0539  -21.3756  -10.4326 C   0  0  0  0  0  0  0  0  0  0  0  0
   25.4865  -22.0961   -9.5343 O   0  0  0  0  0  0  0  0  0  0  0  0
   27.3670  -20.9261  -10.1353 N   0  0  0  0  0  0  0  0  0  0  0  0
   28.3020  -20.1271  -10.8977 C   0  0  0  0  0  0  0  0  0  0  0  0
   29.5354  -21.0255  -10.8268 C   0  0  0  0  0  0  0  0  0  0  0  0
   29.5128  -21.3880   -9.3616 C   0  0  0  0  0  0  0  0  0  0  0  0
   28.0591  -21.2395   -8.9132 C   0  0  1  0  0  0  0  0  0  0  0  0
   27.9223  -20.3059   -7.8010 C   0  0  0  0  0  0  0  0  0  0  0  0
   27.6207  -19.0878   -8.1242 O   0  0  0  0  0  0  0  0  0  0  0  0
   28.0769  -20.5402   -6.3997 N   0  0  0  0  0  0  0  0  0  0  0  0
   28.3910  -21.7874   -5.7662 C   0  0  0  0  0  0  0  0  0  0  0  0
   28.0643  -21.5867   -4.2787 C   0  0  0  0  0  0  0  0  0  0  0  0
   28.3797  -20.1341   -4.0999 C   0  0  0  0  0  0  0  0  0  0  0  0
   27.9436  -19.5096   -5.3861 C   0  0  1  0  0  0  0  0  0  0  0  0
   28.7821  -18.3110   -5.6836 C   0  0  0  0  0  0  0  0  0  0  0  0
   28.6537  -17.1602   -4.9593 O   0  0  0  0  0  0  0  0  0  0  0  0
   29.6073  -18.3828   -6.6153 O   0  0  0  0  0  0  0  0  0  0  0  0
  2  1  1  0
  3  2  1  0
  4  3  1  0
  5  7  1  0
  5  4  1  0
  5  6  1  1
  7  9  1  0
  8  7  2  0
  9 10  1  0
  9 13  1  0
 10 11  1  0
 11 12  1  0
 13 12  1  0
 14 16  1  0
 13 14  1  1
 15 14  2  0
 16 17  1  0
 18 17  1  0
 19 18  1  0
 20 21  1  6
 20 16  1  0
 20 19  1  0
 21 22  1  0
 23 21  2  0
M  END
$$$$
