MPP.pdb
     RDKit          3D

 23 24  0  0  1  0  0  0  0  0999 V2000
   11.3499  -19.9294    4.9026 C   0  0  0  0  0  0  0  0  0  0  0  0
   11.5191  -21.0112    3.4761 S   0  0  0  0  0  0  0  0  0  0  0  0
   12.7791  -20.4038    2.3257 C   0  0  0  0  0  0  0  0  0  0  0  0
   14.0790  -20.1384    3.0642 C   0  0  0  0  0  0  0  0  0  0  0  0
   15.2500  -20.2376    2.1036 C   0  0  2  0  0  0  0  0  0  0  0  0
   15.2320  -21.5524    1.5531 N   0  0  0  0  0  0  0  0  0  0  0  0
   16.5045  -19.7849    2.6918 C   0  0  0  0  0  0  0  0  0  0  0  0
   17.4401  -20.6603    2.7719 O   0  0  0  0  0  0  0  0  0  0  0  0
   16.8153  -18.4916    3.1870 N   0  0  0  0  0  0  0  0  0  0  0  0
   16.0382  -17.2719    3.2358 C   0  0  0  0  0  0  0  0  0  0  0  0
   17.0254  -16.3041    2.5861 C   0  0  0  0  0  0  0  0  0  0  0  0
   18.2920  -16.6968    3.3076 C   0  0  0  0  0  0  0  0  0  0  0  0
   18.0880  -18.1423    3.7605 C   0  0  1  0  0  0  0  0  0  0  0  0
   18.2421  -18.2904    5.2033 C   0  0  0  0  0  0  0  0  0  0  0  0
   17.1616  -18.1371    5.9021 O   0  0  0  0  0  0  0  0  0  0  0  0
   19.4185  -18.5782    5.9620 N   0  0  0  0  0  0  0  0  0  0  0  0
   20.7414  -18.7879    5.4506 C   0  0  0  0  0  0  0  0  0  0  0  0
   21.5308  -19.4277    6.6026 C   0  0  0  0  0  0  0  0  0  0  0  0
   20.8831  -18.7928    7.7937 C   0  0  0  0  0  0  0  0  0  0  0  0
   19.4421  -18.6917    7.4091 C   0  0  1  0  0  0  0  0  0  0  0  0
   18.8145  -17.5149    8.0796 C   0  0  0  0  0  0  0  0  0  0  0  0
   18.4338  -17.5672    9.3903 O   0  0  0  0  0  0  0  0  0  0  0  0
   18.6426  -16.4760    7.4124 O   0  0  0  0  0  0  0  0  0  0  0  0
  2  1  1  0
  3  2  1  0
  4  3  1  0
  5  7  1  0
  5  4  1  0
  5  6  1  1
  7  9  1  0
  8  7  2  0
  9 10  1  0
  9 13  1  0
 10 11  1  0
 11 12  1  0
 13 12  1  0
 14 16  1  0
 13 14  1  1
 15 14  2  0
 16 17  1  0
 18 17  1  0
 19 18  1  0
 20 21  1  1
 20 16  1  0
 20 19  1  0
 21 22  1  0
 23 21  2  0
M  END
$$$$
