MPP.pdb
     RDKit          3D

 23 24  0  0  1  0  0  0  0  0999 V2000
   22.3277  -18.2446  -12.2379 C   0  0  0  0  0  0  0  0  0  0  0  0
   22.5561  -18.8745  -10.5691 S   0  0  0  0  0  0  0  0  0  0  0  0
   23.6625  -20.3083  -10.5445 C   0  0  0  0  0  0  0  0  0  0  0  0
   24.7045  -20.1852  -11.6420 C   0  0  0  0  0  0  0  0  0  0  0  0
   25.6278  -21.3897  -11.6169 C   0  0  2  0  0  0  0  0  0  0  0  0
   24.8600  -22.5168  -12.0323 N   0  0  0  0  0  0  0  0  0  0  0  0
   26.3602  -21.5154  -10.3630 C   0  0  0  0  0  0  0  0  0  0  0  0
   25.7873  -22.1983   -9.4392 O   0  0  0  0  0  0  0  0  0  0  0  0
   27.6316  -20.9726  -10.0412 N   0  0  0  0  0  0  0  0  0  0  0  0
   28.5113  -20.0906  -10.7774 C   0  0  0  0  0  0  0  0  0  0  0  0
   29.8089  -20.8935  -10.7068 C   0  0  0  0  0  0  0  0  0  0  0  0
   29.7975  -21.2838   -9.2485 C   0  0  0  0  0  0  0  0  0  0  0  0
   28.3318  -21.2550   -8.8161 C   0  0  1  0  0  0  0  0  0  0  0  0
   28.1114  -20.3553   -7.6895 C   0  0  0  0  0  0  0  0  0  0  0  0
   27.6495  -19.1823   -7.9895 O   0  0  0  0  0  0  0  0  0  0  0  0
   28.3353  -20.5798   -6.2960 N   0  0  0  0  0  0  0  0  0  0  0  0
   28.7960  -21.7916   -5.6836 C   0  0  0  0  0  0  0  0  0  0  0  0
   28.4999  -21.6331   -4.1846 C   0  0  0  0  0  0  0  0  0  0  0  0
   28.6712  -20.1568   -4.0037 C   0  0  0  0  0  0  0  0  0  0  0  0
   28.1312  -19.5735   -5.2698 C   0  0  1  0  0  0  0  0  0  0  0  0
   28.8328  -18.2939   -5.5841 C   0  0  0  0  0  0  0  0  0  0  0  0
   28.6428  -17.1771   -4.8212 O   0  0  0  0  0  0  0  0  0  0  0  0
   29.6003  -18.2658   -6.5660 O   0  0  0  0  0  0  0  0  0  0  0  0
  2  1  1  0
  3  2  1  0
  4  3  1  0
  5  7  1  0
  5  4  1  0
  5  6  1  1
  7  9  1  0
  8  7  2  0
  9 10  1  0
  9 13  1  0
 10 11  1  0
 11 12  1  0
 13 12  1  0
 14 16  1  0
 13 14  1  1
 15 14  2  0
 16 17  1  0
 18 17  1  0
 19 18  1  0
 20 21  1  6
 20 16  1  0
 20 19  1  0
 21 22  1  0
 23 21  2  0
M  END
$$$$
