MPP.pdb
     RDKit          3D

 23 24  0  0  1  0  0  0  0  0999 V2000
   22.8755  -18.7929  -14.9331 C   0  0  0  0  0  0  0  0  0  0  0  0
   23.0840  -19.6306  -13.3556 S   0  0  0  0  0  0  0  0  0  0  0  0
   24.6725  -19.2200  -12.5886 C   0  0  0  0  0  0  0  0  0  0  0  0
   24.8005  -19.9142  -11.2443 C   0  0  0  0  0  0  0  0  0  0  0  0
   25.7240  -21.1126  -11.3662 C   0  0  2  0  0  0  0  0  0  0  0  0
   24.9585  -22.1784  -11.9234 N   0  0  0  0  0  0  0  0  0  0  0  0
   26.4505  -21.3949  -10.1345 C   0  0  0  0  0  0  0  0  0  0  0  0
   25.8059  -22.0436   -9.2336 O   0  0  0  0  0  0  0  0  0  0  0  0
   27.7858  -21.0380   -9.8120 N   0  0  0  0  0  0  0  0  0  0  0  0
   28.8060  -20.3532  -10.5764 C   0  0  0  0  0  0  0  0  0  0  0  0
   29.9595  -21.3428  -10.4224 C   0  0  0  0  0  0  0  0  0  0  0  0
   29.8619  -21.6323   -8.9440 C   0  0  0  0  0  0  0  0  0  0  0  0
   28.4118  -21.3472   -8.5538 C   0  0  1  0  0  0  0  0  0  0  0  0
   28.3168  -20.3539   -7.4900 C   0  0  0  0  0  0  0  0  0  0  0  0
   28.1887  -19.1246   -7.8793 O   0  0  0  0  0  0  0  0  0  0  0  0
   28.3481  -20.5405   -6.0734 N   0  0  0  0  0  0  0  0  0  0  0  0
   28.4732  -21.7852   -5.3728 C   0  0  0  0  0  0  0  0  0  0  0  0
   28.0716  -21.4821   -3.9214 C   0  0  0  0  0  0  0  0  0  0  0  0
   28.5390  -20.0674   -3.7743 C   0  0  0  0  0  0  0  0  0  0  0  0
   28.2656  -19.4568   -5.1111 C   0  0  1  0  0  0  0  0  0  0  0  0
   29.2546  -18.3742   -5.3915 C   0  0  0  0  0  0  0  0  0  0  0  0
   29.2336  -17.1992   -4.6955 O   0  0  0  0  0  0  0  0  0  0  0  0
   30.1054  -18.5664   -6.2820 O   0  0  0  0  0  0  0  0  0  0  0  0
  2  1  1  0
  3  2  1  0
  4  3  1  0
  5  7  1  0
  5  4  1  0
  5  6  1  1
  7  9  1  0
  8  7  2  0
  9 10  1  0
  9 13  1  0
 10 11  1  0
 11 12  1  0
 13 12  1  0
 14 16  1  0
 13 14  1  1
 15 14  2  0
 16 17  1  0
 18 17  1  0
 19 18  1  0
 20 21  1  6
 20 16  1  0
 20 19  1  0
 21 22  1  0
 23 21  2  0
M  END
$$$$
