MPP.pdb
     RDKit          3D

 23 24  0  0  1  0  0  0  0  0999 V2000
   21.3454  -19.6280  -10.1575 C   0  0  0  0  0  0  0  0  0  0  0  0
   21.9683  -18.9100  -11.6840 S   0  0  0  0  0  0  0  0  0  0  0  0
   23.5240  -19.6826  -12.1969 C   0  0  0  0  0  0  0  0  0  0  0  0
   23.9353  -20.7476  -11.1958 C   0  0  0  0  0  0  0  0  0  0  0  0
   25.2605  -21.3620  -11.6085 C   0  0  2  0  0  0  0  0  0  0  0  0
   24.9638  -22.4937  -12.4229 N   0  0  0  0  0  0  0  0  0  0  0  0
   26.1601  -21.5765  -10.4818 C   0  0  0  0  0  0  0  0  0  0  0  0
   25.7975  -22.4658   -9.6299 O   0  0  0  0  0  0  0  0  0  0  0  0
   27.3892  -20.9194  -10.2139 N   0  0  0  0  0  0  0  0  0  0  0  0
   28.1336  -19.9343  -10.9684 C   0  0  0  0  0  0  0  0  0  0  0  0
   29.5053  -20.6060  -10.9977 C   0  0  0  0  0  0  0  0  0  0  0  0
   29.6184  -21.0359   -9.5551 C   0  0  0  0  0  0  0  0  0  0  0  0
   28.1849  -21.1648   -9.0403 C   0  0  1  0  0  0  0  0  0  0  0  0
   27.9450  -20.3232   -7.8735 C   0  0  0  0  0  0  0  0  0  0  0  0
   27.4251  -19.1614   -8.1165 O   0  0  0  0  0  0  0  0  0  0  0  0
   28.2046  -20.5942   -6.4945 N   0  0  0  0  0  0  0  0  0  0  0  0
   28.7700  -21.7919   -5.9454 C   0  0  0  0  0  0  0  0  0  0  0  0
   28.4816  -21.7288   -4.4378 C   0  0  0  0  0  0  0  0  0  0  0  0
   28.5350  -20.2537   -4.1878 C   0  0  0  0  0  0  0  0  0  0  0  0
   27.9330  -19.6574   -5.4193 C   0  0  1  0  0  0  0  0  0  0  0  0
   28.5243  -18.3114   -5.6782 C   0  0  0  0  0  0  0  0  0  0  0  0
   28.2211  -17.2412   -4.8856 O   0  0  0  0  0  0  0  0  0  0  0  0
   29.3054  -18.1837   -6.6413 O   0  0  0  0  0  0  0  0  0  0  0  0
  2  1  1  0
  3  2  1  0
  4  3  1  0
  5  7  1  0
  5  4  1  0
  5  6  1  1
  7  9  1  0
  8  7  2  0
  9 10  1  0
  9 13  1  0
 10 11  1  0
 11 12  1  0
 13 12  1  0
 14 16  1  0
 13 14  1  1
 15 14  2  0
 16 17  1  0
 18 17  1  0
 19 18  1  0
 20 21  1  6
 20 16  1  0
 20 19  1  0
 21 22  1  0
 23 21  2  0
M  END
$$$$
