MPP.pdb
     RDKit          3D

 23 24  0  0  1  0  0  0  0  0999 V2000
   21.5033  -18.6475  -13.3989 C   0  0  0  0  0  0  0  0  0  0  0  0
   22.9496  -19.2364  -14.2907 S   0  0  0  0  0  0  0  0  0  0  0  0
   24.4296  -19.2150  -13.2469 C   0  0  0  0  0  0  0  0  0  0  0  0
   24.0534  -19.4730  -11.7987 C   0  0  0  0  0  0  0  0  0  0  0  0
   24.2658  -20.9376  -11.4615 C   0  0  2  0  0  0  0  0  0  0  0  0
   22.9847  -21.5627  -11.4770 N   0  0  0  0  0  0  0  0  0  0  0  0
   25.0809  -21.1313  -10.2687 C   0  0  0  0  0  0  0  0  0  0  0  0
   24.4627  -21.5441   -9.2220 O   0  0  0  0  0  0  0  0  0  0  0  0
   26.4768  -20.9178  -10.1260 N   0  0  0  0  0  0  0  0  0  0  0  0
   27.4555  -20.3449  -11.0249 C   0  0  0  0  0  0  0  0  0  0  0  0
   28.5088  -21.4511  -11.0074 C   0  0  0  0  0  0  0  0  0  0  0  0
   28.5738  -21.7288   -9.5250 C   0  0  0  0  0  0  0  0  0  0  0  0
   27.2246  -21.2918   -8.9549 C   0  0  1  0  0  0  0  0  0  0  0  0
   27.3733  -20.2941   -7.9014 C   0  0  0  0  0  0  0  0  0  0  0  0
   27.2832  -19.0585   -8.2813 O   0  0  0  0  0  0  0  0  0  0  0  0
   27.6084  -20.4826   -6.5044 N   0  0  0  0  0  0  0  0  0  0  0  0
   27.7074  -21.7333   -5.8104 C   0  0  0  0  0  0  0  0  0  0  0  0
   27.5764  -21.3875   -4.3194 C   0  0  0  0  0  0  0  0  0  0  0  0
   28.2118  -20.0327   -4.2729 C   0  0  0  0  0  0  0  0  0  0  0  0
   27.7978  -19.3961   -5.5604 C   0  0  1  0  0  0  0  0  0  0  0  0
   28.8412  -18.4289   -6.0123 C   0  0  0  0  0  0  0  0  0  0  0  0
   29.0109  -17.2273   -5.3856 O   0  0  0  0  0  0  0  0  0  0  0  0
   29.5588  -18.7431   -6.9820 O   0  0  0  0  0  0  0  0  0  0  0  0
  2  1  1  0
  3  2  1  0
  4  3  1  0
  5  7  1  0
  5  4  1  0
  5  6  1  1
  7  9  1  0
  8  7  2  0
  9 10  1  0
  9 13  1  0
 10 11  1  0
 11 12  1  0
 13 12  1  0
 14 16  1  0
 13 14  1  1
 15 14  2  0
 16 17  1  0
 18 17  1  0
 19 18  1  0
 20 21  1  6
 20 16  1  0
 20 19  1  0
 21 22  1  0
 23 21  2  0
M  END
$$$$
