MPP.pdb
     RDKit          3D

 23 24  0  0  1  0  0  0  0  0999 V2000
   19.4962  -21.8929  -16.8699 C   0  0  0  0  0  0  0  0  0  0  0  0
   18.9146  -22.2671  -15.2099 S   0  0  0  0  0  0  0  0  0  0  0  0
   20.2919  -22.4606  -14.0498 C   0  0  0  0  0  0  0  0  0  0  0  0
   21.4719  -21.6131  -14.4910 C   0  0  0  0  0  0  0  0  0  0  0  0
   21.7061  -20.4925  -13.4944 C   0  0  2  0  0  0  0  0  0  0  0  0
   20.6907  -19.5160  -13.7132 N   0  0  0  0  0  0  0  0  0  0  0  0
   23.0853  -20.0209  -13.4867 C   0  0  0  0  0  0  0  0  0  0  0  0
   23.2966  -18.8814  -14.0390 O   0  0  0  0  0  0  0  0  0  0  0  0
   24.2230  -20.6713  -12.9416 N   0  0  0  0  0  0  0  0  0  0  0  0
   24.3535  -21.8907  -12.1736 C   0  0  0  0  0  0  0  0  0  0  0  0
   25.1710  -21.3720  -10.9921 C   0  0  0  0  0  0  0  0  0  0  0  0
   26.2047  -20.5532  -11.7269 C   0  0  0  0  0  0  0  0  0  0  0  0
   25.5640  -20.1628  -13.0586 C   0  0  1  0  0  0  0  0  0  0  0  0
   26.3578  -20.6073  -14.1987 C   0  0  0  0  0  0  0  0  0  0  0  0
   26.2347  -21.8578  -14.5153 O   0  0  0  0  0  0  0  0  0  0  0  0
   27.2588  -19.8606  -15.0191 N   0  0  0  0  0  0  0  0  0  0  0  0
   27.6533  -18.4940  -14.8396 C   0  0  0  0  0  0  0  0  0  0  0  0
   28.3031  -18.0759  -16.1673 C   0  0  0  0  0  0  0  0  0  0  0  0
   28.9191  -19.3652  -16.6141 C   0  0  0  0  0  0  0  0  0  0  0  0
   27.9335  -20.4036  -16.1842 C   0  0  1  0  0  0  0  0  0  0  0  0
   28.6377  -21.6852  -15.8846 C   0  0  0  0  0  0  0  0  0  0  0  0
   28.8913  -22.5995  -16.8670 O   0  0  0  0  0  0  0  0  0  0  0  0
   28.9908  -21.9055  -14.7096 O   0  0  0  0  0  0  0  0  0  0  0  0
  2  1  1  0
  3  2  1  0
  4  3  1  0
  5  7  1  0
  5  4  1  0
  5  6  1  6
  7  9  1  0
  8  7  2  0
  9 10  1  0
  9 13  1  0
 10 11  1  0
 11 12  1  0
 13 12  1  0
 14 16  1  0
 13 14  1  6
 15 14  2  0
 16 17  1  0
 18 17  1  0
 19 18  1  0
 20 21  1  1
 20 16  1  0
 20 19  1  0
 21 22  1  0
 23 21  2  0
M  END
$$$$
