MPP.pdb
     RDKit          3D

 23 24  0  0  1  0  0  0  0  0999 V2000
   24.4721  -19.8939   -7.8616 C   0  0  0  0  0  0  0  0  0  0  0  0
   24.9536  -21.4572   -8.6086 S   0  0  0  0  0  0  0  0  0  0  0  0
   26.3587  -21.2530   -9.7329 C   0  0  0  0  0  0  0  0  0  0  0  0
   25.9421  -21.5768  -11.1567 C   0  0  0  0  0  0  0  0  0  0  0  0
   25.1989  -20.3986  -11.7595 C   0  0  2  0  0  0  0  0  0  0  0  0
   23.8346  -20.5145  -11.3626 N   0  0  0  0  0  0  0  0  0  0  0  0
   25.4607  -20.2330  -13.1838 C   0  0  0  0  0  0  0  0  0  0  0  0
   24.4411  -20.3150  -13.9596 O   0  0  0  0  0  0  0  0  0  0  0  0
   26.7085  -19.9920  -13.8157 N   0  0  0  0  0  0  0  0  0  0  0  0
   28.0606  -19.9966  -13.3000 C   0  0  0  0  0  0  0  0  0  0  0  0
   28.5368  -18.6328  -13.7967 C   0  0  0  0  0  0  0  0  0  0  0  0
   28.0214  -18.6749  -15.2150 C   0  0  0  0  0  0  0  0  0  0  0  0
   26.8446  -19.6503  -15.2069 C   0  0  1  0  0  0  0  0  0  0  0  0
   27.0325  -20.7423  -16.1553 C   0  0  0  0  0  0  0  0  0  0  0  0
   27.7736  -21.7223  -15.7437 O   0  0  0  0  0  0  0  0  0  0  0  0
   26.5181  -20.8871  -17.4808 N   0  0  0  0  0  0  0  0  0  0  0  0
   25.6685  -19.9668  -18.1785 C   0  0  0  0  0  0  0  0  0  0  0  0
   25.1066  -20.7513  -19.3737 C   0  0  0  0  0  0  0  0  0  0  0  0
   26.2444  -21.6736  -19.6836 C   0  0  0  0  0  0  0  0  0  0  0  0
   26.8024  -22.0213  -18.3411 C   0  0  1  0  0  0  0  0  0  0  0  0
   28.2656  -22.2964  -18.4503 C   0  0  0  0  0  0  0  0  0  0  0  0
   29.1876  -21.3066  -18.2608 O   0  0  0  0  0  0  0  0  0  0  0  0
   28.6307  -23.4570  -18.7214 O   0  0  0  0  0  0  0  0  0  0  0  0
  2  1  1  0
  3  2  1  0
  4  3  1  0
  5  7  1  0
  5  4  1  0
  5  6  1  6
  7  9  1  0
  8  7  2  0
  9 10  1  0
  9 13  1  0
 10 11  1  0
 11 12  1  0
 13 12  1  0
 14 16  1  0
 13 14  1  6
 15 14  2  0
 16 17  1  0
 18 17  1  0
 19 18  1  0
 20 21  1  6
 20 16  1  0
 20 19  1  0
 21 22  1  0
 23 21  2  0
M  END
$$$$
