MPP.pdb
     RDKit          3D

 23 24  0  0  1  0  0  0  0  0999 V2000
   21.4529  -19.2858  -11.0322 C   0  0  0  0  0  0  0  0  0  0  0  0
   22.4003  -18.8120  -12.4854 S   0  0  0  0  0  0  0  0  0  0  0  0
   23.8149  -19.9126  -12.7457 C   0  0  0  0  0  0  0  0  0  0  0  0
   24.4524  -20.2705  -11.4149 C   0  0  0  0  0  0  0  0  0  0  0  0
   25.5305  -21.3187  -11.6223 C   0  0  2  0  0  0  0  0  0  0  0  0
   24.9037  -22.4557  -12.2111 N   0  0  0  0  0  0  0  0  0  0  0  0
   26.3314  -21.5512  -10.4268 C   0  0  0  0  0  0  0  0  0  0  0  0
   25.8181  -22.3300   -9.5448 O   0  0  0  0  0  0  0  0  0  0  0  0
   27.6111  -21.0190  -10.1212 N   0  0  0  0  0  0  0  0  0  0  0  0
   28.4922  -20.1507  -10.8721 C   0  0  0  0  0  0  0  0  0  0  0  0
   29.7824  -20.9660  -10.8089 C   0  0  0  0  0  0  0  0  0  0  0  0
   29.7817  -21.3465   -9.3480 C   0  0  0  0  0  0  0  0  0  0  0  0
   28.3207  -21.3002   -8.9013 C   0  0  1  0  0  0  0  0  0  0  0  0
   28.1205  -20.3909   -7.7786 C   0  0  0  0  0  0  0  0  0  0  0  0
   27.6925  -19.2067   -8.0845 O   0  0  0  0  0  0  0  0  0  0  0  0
   28.3322  -20.6168   -6.3834 N   0  0  0  0  0  0  0  0  0  0  0  0
   28.7959  -21.8264   -5.7691 C   0  0  0  0  0  0  0  0  0  0  0  0
   28.4837  -21.6734   -4.2728 C   0  0  0  0  0  0  0  0  0  0  0  0
   28.6419  -20.1963   -4.0871 C   0  0  0  0  0  0  0  0  0  0  0  0
   28.1102  -19.6144   -5.3572 C   0  0  1  0  0  0  0  0  0  0  0  0
   28.8050  -18.3287   -5.6618 C   0  0  0  0  0  0  0  0  0  0  0  0
   28.5403  -17.1950   -4.9476 O   0  0  0  0  0  0  0  0  0  0  0  0
   29.6372  -18.3115   -6.5897 O   0  0  0  0  0  0  0  0  0  0  0  0
  2  1  1  0
  3  2  1  0
  4  3  1  0
  5  7  1  0
  5  4  1  0
  5  6  1  1
  7  9  1  0
  8  7  2  0
  9 10  1  0
  9 13  1  0
 10 11  1  0
 11 12  1  0
 13 12  1  0
 14 16  1  0
 13 14  1  1
 15 14  2  0
 16 17  1  0
 18 17  1  0
 19 18  1  0
 20 21  1  6
 20 16  1  0
 20 19  1  0
 21 22  1  0
 23 21  2  0
M  END
$$$$
