MPP.pdb
     RDKit          3D

 23 24  0  0  1  0  0  0  0  0999 V2000
   27.5461  -15.6631  -15.6602 C   0  0  0  0  0  0  0  0  0  0  0  0
   25.8757  -15.3066  -15.0979 S   0  0  0  0  0  0  0  0  0  0  0  0
   24.8170  -16.7736  -15.1837 C   0  0  0  0  0  0  0  0  0  0  0  0
   25.2163  -17.6398  -16.3651 C   0  0  0  0  0  0  0  0  0  0  0  0
   24.5120  -18.9819  -16.2848 C   0  0  2  0  0  0  0  0  0  0  0  0
   23.1736  -18.7820  -16.7332 N   0  0  0  0  0  0  0  0  0  0  0  0
   24.6853  -19.6357  -14.9935 C   0  0  0  0  0  0  0  0  0  0  0  0
   23.6259  -19.7703  -14.2810 O   0  0  0  0  0  0  0  0  0  0  0  0
   25.8857  -20.1411  -14.4296 N   0  0  0  0  0  0  0  0  0  0  0  0
   27.2646  -20.0315  -14.8546 C   0  0  0  0  0  0  0  0  0  0  0  0
   27.6645  -21.5057  -14.8341 C   0  0  0  0  0  0  0  0  0  0  0  0
   27.0701  -21.9211  -13.5101 C   0  0  0  0  0  0  0  0  0  0  0  0
   25.9296  -20.9414  -13.2345 C   0  0  1  0  0  0  0  0  0  0  0  0
   26.0997  -20.2477  -11.9629 C   0  0  0  0  0  0  0  0  0  0  0  0
   26.7690  -19.1392  -12.0131 O   0  0  0  0  0  0  0  0  0  0  0  0
   25.6359  -20.6168  -10.6625 N   0  0  0  0  0  0  0  0  0  0  0  0
   24.8559  -21.7711  -10.3236 C   0  0  0  0  0  0  0  0  0  0  0  0
   24.3123  -21.5001   -8.9126 C   0  0  0  0  0  0  0  0  0  0  0  0
   25.4224  -20.6903   -8.3183 C   0  0  0  0  0  0  0  0  0  0  0  0
   25.9082  -19.8537   -9.4579 C   0  0  1  0  0  0  0  0  0  0  0  0
   27.3618  -19.5571   -9.2922 C   0  0  0  0  0  0  0  0  0  0  0  0
   27.7917  -18.5777   -8.4428 O   0  0  0  0  0  0  0  0  0  0  0  0
   28.1811  -20.2263   -9.9516 O   0  0  0  0  0  0  0  0  0  0  0  0
  2  1  1  0
  3  2  1  0
  4  3  1  0
  5  7  1  0
  5  4  1  0
  5  6  1  1
  7  9  1  0
  8  7  2  0
  9 10  1  0
  9 13  1  0
 10 11  1  0
 11 12  1  0
 13 12  1  0
 14 16  1  0
 13 14  1  1
 15 14  2  0
 16 17  1  0
 18 17  1  0
 19 18  1  0
 20 21  1  1
 20 16  1  0
 20 19  1  0
 21 22  1  0
 23 21  2  0
M  END
$$$$
