MPP.pdb
     RDKit          3D

 23 24  0  0  1  0  0  0  0  0999 V2000
   21.8105  -19.4005  -11.4004 C   0  0  0  0  0  0  0  0  0  0  0  0
   22.4786  -19.2009  -13.0580 S   0  0  0  0  0  0  0  0  0  0  0  0
   24.2447  -19.5980  -13.1161 C   0  0  0  0  0  0  0  0  0  0  0  0
   24.7610  -19.8966  -11.7198 C   0  0  0  0  0  0  0  0  0  0  0  0
   25.6566  -21.1218  -11.7498 C   0  0  2  0  0  0  0  0  0  0  0  0
   24.8814  -22.1965  -12.2755 N   0  0  0  0  0  0  0  0  0  0  0  0
   26.3373  -21.3564  -10.4824 C   0  0  0  0  0  0  0  0  0  0  0  0
   25.6585  -21.9679   -9.5806 O   0  0  0  0  0  0  0  0  0  0  0  0
   27.6612  -20.9894  -10.1261 N   0  0  0  0  0  0  0  0  0  0  0  0
   28.6995  -20.3079  -10.8687 C   0  0  0  0  0  0  0  0  0  0  0  0
   29.8527  -21.2899  -10.6712 C   0  0  0  0  0  0  0  0  0  0  0  0
   29.7145  -21.5640   -9.1932 C   0  0  0  0  0  0  0  0  0  0  0  0
   28.2526  -21.2820   -8.8473 C   0  0  1  0  0  0  0  0  0  0  0  0
   28.1228  -20.2777   -7.7976 C   0  0  0  0  0  0  0  0  0  0  0  0
   27.9654  -19.0574   -8.2042 O   0  0  0  0  0  0  0  0  0  0  0  0
   28.1475  -20.4449   -6.3784 N   0  0  0  0  0  0  0  0  0  0  0  0
   28.1906  -21.6846   -5.6595 C   0  0  0  0  0  0  0  0  0  0  0  0
   27.8171  -21.3332   -4.2115 C   0  0  0  0  0  0  0  0  0  0  0  0
   28.3805  -19.9517   -4.0875 C   0  0  0  0  0  0  0  0  0  0  0  0
   28.1436  -19.3438   -5.4324 C   0  0  1  0  0  0  0  0  0  0  0  0
   29.2028  -18.3357   -5.7326 C   0  0  0  0  0  0  0  0  0  0  0  0
   29.2099  -17.1139   -5.1221 O   0  0  0  0  0  0  0  0  0  0  0  0
   30.0865  -18.6344   -6.5595 O   0  0  0  0  0  0  0  0  0  0  0  0
  2  1  1  0
  3  2  1  0
  4  3  1  0
  5  7  1  0
  5  4  1  0
  5  6  1  1
  7  9  1  0
  8  7  2  0
  9 10  1  0
  9 13  1  0
 10 11  1  0
 11 12  1  0
 13 12  1  0
 14 16  1  0
 13 14  1  1
 15 14  2  0
 16 17  1  0
 18 17  1  0
 19 18  1  0
 20 21  1  6
 20 16  1  0
 20 19  1  0
 21 22  1  0
 23 21  2  0
M  END
$$$$
