NDW.pdb
     RDKit          3D

 31 32  0  0  1  0  0  0  0  0999 V2000
    8.5603  -15.7506   16.8435 N   0  0  0  0  0  0  0  0  0  0  0  0
    8.8879  -14.8972   17.9162 C   0  0  0  0  0  0  0  0  0  0  0  0
    9.0351  -13.6591   17.6442 O   0  0  0  0  0  0  0  0  0  0  0  0
    9.0756  -15.2788   19.3133 C   0  0  0  0  0  0  0  0  0  0  0  0
    8.8980  -16.7306   19.6228 C   0  0  2  0  0  0  0  0  0  0  0  0
    7.6397  -17.2906   19.2511 N   0  0  0  0  0  0  0  0  0  0  0  0
    9.2759  -17.1067   21.0104 C   0  0  0  0  0  0  0  0  0  0  0  0
    8.4763  -17.5867   21.8333 O   0  0  0  0  0  0  0  0  0  0  0  0
   10.6308  -16.8998   21.4079 N   0  0  0  0  0  0  0  0  0  0  0  0
   11.3982  -17.8473   22.1957 C   0  0  1  0  0  0  0  0  0  0  0  0
   12.8462  -17.9003   21.8287 C   0  0  0  0  0  0  0  0  0  0  0  0
   13.5729  -18.8672   22.6838 C   0  0  0  0  0  0  0  0  0  0  0  0
   13.0413  -19.9253   23.0392 O   0  0  0  0  0  0  0  0  0  0  0  0
   11.2600  -17.4571   23.6297 C   0  0  0  0  0  0  0  0  0  0  0  0
   11.7839  -18.1615   24.5138 O   0  0  0  0  0  0  0  0  0  0  0  0
   14.8736  -18.6300   23.1243 O   0  0  0  0  0  0  0  0  0  0  0  0
   10.5457  -16.3003   24.0021 N   0  0  0  0  0  0  0  0  0  0  0  0
   10.4066  -16.0194   25.4510 C   0  0  1  0  0  0  0  0  0  0  0  0
    9.6186  -14.7406   25.4998 C   0  0  0  0  0  0  0  0  0  0  0  0
    8.3343  -14.7507   24.7965 C   0  0  0  0  0  0  0  0  0  0  0  0
    7.1710  -15.3783   25.2655 C   0  0  0  0  0  0  0  0  0  0  0  0
    6.2188  -15.1892   24.3513 N   0  0  0  0  0  0  0  0  0  0  0  0
    6.7044  -14.4678   23.3124 C   0  0  0  0  0  0  0  0  0  0  0  0
    6.1017  -14.0198   22.1564 C   0  0  0  0  0  0  0  0  0  0  0  0
    6.8042  -13.2719   21.2279 C   0  0  0  0  0  0  0  0  0  0  0  0
    8.1195  -12.9921   21.4973 C   0  0  0  0  0  0  0  0  0  0  0  0
    8.7137  -13.4387   22.6429 C   0  0  0  0  0  0  0  0  0  0  0  0
    8.0211  -14.1849   23.5725 C   0  0  0  0  0  0  0  0  0  0  0  0
    9.7776  -17.1298   26.1640 C   0  0  0  0  0  0  0  0  0  0  0  0
    9.3132  -18.2947   25.5913 O   0  0  0  0  0  0  0  0  0  0  0  0
    9.6222  -17.0526   27.4430 O   0  0  0  0  0  0  0  0  0  0  0  0
  2  1  1  0
  2  3  2  0
  4  2  1  0
  5  4  1  0
  5  6  1  1
  7  5  1  0
  8  7  2  0
  9  7  1  0
 10  9  1  0
 10 11  1  6
 12 11  1  0
 13 12  2  0
 14 15  2  0
 14 10  1  0
 16 12  1  0
 17 14  1  0
 18 19  1  6
 18 17  1  0
 20 28  1  0
 20 19  1  0
 21 20  2  0
 22 21  1  0
 22 23  1  0
 23 28  2  0
 24 23  1  0
 24 25  2  0
 25 26  1  0
 26 27  2  0
 28 27  1  0
 29 18  1  0
 30 29  1  0
 31 29  2  0
M  END
$$$$
