NDW.pdb
     RDKit          3D

 31 32  0  0  1  0  0  0  0  0999 V2000
    6.8324  -13.1103   17.3039 N   0  0  0  0  0  0  0  0  0  0  0  0
    7.8813  -13.3536   18.2134 C   0  0  0  0  0  0  0  0  0  0  0  0
    9.0397  -12.9309   17.8845 O   0  0  0  0  0  0  0  0  0  0  0  0
    7.7844  -14.0387   19.4994 C   0  0  0  0  0  0  0  0  0  0  0  0
    8.9166  -14.9546   19.8378 C   0  0  2  0  0  0  0  0  0  0  0  0
    9.4518  -15.7021   18.7470 N   0  0  0  0  0  0  0  0  0  0  0  0
    8.6668  -15.8174   21.0223 C   0  0  0  0  0  0  0  0  0  0  0  0
    7.8336  -15.5467   21.9051 O   0  0  0  0  0  0  0  0  0  0  0  0
    9.4311  -17.0166   21.1422 N   0  0  0  0  0  0  0  0  0  0  0  0
    9.3576  -17.9144   22.2805 C   0  0  1  0  0  0  0  0  0  0  0  0
   10.0630  -19.2147   22.0668 C   0  0  0  0  0  0  0  0  0  0  0  0
    9.4390  -19.9790   20.9620 C   0  0  0  0  0  0  0  0  0  0  0  0
    8.2699  -20.3732   21.0435 O   0  0  0  0  0  0  0  0  0  0  0  0
    9.9559  -17.2076   23.4511 C   0  0  0  0  0  0  0  0  0  0  0  0
   10.9147  -16.4310   23.2783 O   0  0  0  0  0  0  0  0  0  0  0  0
   10.1340  -20.2879   19.7942 O   0  0  0  0  0  0  0  0  0  0  0  0
    9.4520  -17.4032   24.7529 N   0  0  0  0  0  0  0  0  0  0  0  0
   10.1102  -16.6672   25.8586 C   0  0  1  0  0  0  0  0  0  0  0  0
    9.7661  -15.2285   25.5938 C   0  0  0  0  0  0  0  0  0  0  0  0
    8.3408  -14.8940   25.6206 C   0  0  0  0  0  0  0  0  0  0  0  0
    7.2989  -15.8238   25.4895 C   0  0  0  0  0  0  0  0  0  0  0  0
    6.1509  -15.1476   25.5439 N   0  0  0  0  0  0  0  0  0  0  0  0
    6.3944  -13.8247   25.7062 C   0  0  0  0  0  0  0  0  0  0  0  0
    5.5383  -12.7510   25.8267 C   0  0  0  0  0  0  0  0  0  0  0  0
    6.0231  -11.4670   26.0039 C   0  0  0  0  0  0  0  0  0  0  0  0
    7.3834  -11.2999   26.0555 C   0  0  0  0  0  0  0  0  0  0  0  0
    8.2284  -12.3658   25.9344 C   0  0  0  0  0  0  0  0  0  0  0  0
    7.7535  -13.6478   25.7569 C   0  0  0  0  0  0  0  0  0  0  0  0
    9.6756  -17.1483   27.1689 C   0  0  0  0  0  0  0  0  0  0  0  0
   10.1512  -16.7093   28.3862 O   0  0  0  0  0  0  0  0  0  0  0  0
    8.7704  -18.0658   27.2369 O   0  0  0  0  0  0  0  0  0  0  0  0
  2  1  1  0
  2  3  2  0
  4  2  1  0
  5  4  1  0
  5  6  1  6
  7  5  1  0
  8  7  2  0
  9  7  1  0
 10  9  1  0
 10 11  1  6
 12 11  1  0
 13 12  2  0
 14 15  2  0
 14 10  1  0
 16 12  1  0
 17 14  1  0
 18 19  1  6
 18 17  1  0
 20 28  1  0
 20 19  1  0
 21 20  2  0
 22 21  1  0
 22 23  1  0
 23 28  2  0
 24 23  1  0
 24 25  2  0
 25 26  1  0
 26 27  2  0
 28 27  1  0
 29 18  1  0
 30 29  1  0
 31 29  2  0
M  END
$$$$
