NDW.pdb
     RDKit          3D

 31 32  0  0  1  0  0  0  0  0999 V2000
    4.3934  -20.3952   22.6052 N   0  0  0  0  0  0  0  0  0  0  0  0
    5.3138  -21.1711   21.8721 C   0  0  0  0  0  0  0  0  0  0  0  0
    4.8301  -21.9786   21.0104 O   0  0  0  0  0  0  0  0  0  0  0  0
    6.7691  -21.1487   21.9913 C   0  0  0  0  0  0  0  0  0  0  0  0
    7.3310  -20.1340   22.9347 C   0  0  2  0  0  0  0  0  0  0  0  0
    6.3868  -19.2220   23.4930 N   0  0  0  0  0  0  0  0  0  0  0  0
    8.5355  -19.4294   22.4222 C   0  0  0  0  0  0  0  0  0  0  0  0
    9.5173  -20.0156   21.9331 O   0  0  0  0  0  0  0  0  0  0  0  0
    8.5547  -18.0047   22.5026 N   0  0  0  0  0  0  0  0  0  0  0  0
    9.7234  -17.1923   22.2170 C   0  0  1  0  0  0  0  0  0  0  0  0
    9.4534  -16.0596   21.2799 C   0  0  0  0  0  0  0  0  0  0  0  0
   10.7191  -15.4675   20.7882 C   0  0  0  0  0  0  0  0  0  0  0  0
   11.7895  -16.0767   20.8969 O   0  0  0  0  0  0  0  0  0  0  0  0
   10.2282  -16.6572   23.5157 C   0  0  0  0  0  0  0  0  0  0  0  0
   11.1888  -15.8638   23.5242 O   0  0  0  0  0  0  0  0  0  0  0  0
   10.7615  -14.2097   20.1897 O   0  0  0  0  0  0  0  0  0  0  0  0
    9.6338  -17.0343   24.7370 N   0  0  0  0  0  0  0  0  0  0  0  0
   10.2504  -16.5229   25.9842 C   0  0  1  0  0  0  0  0  0  0  0  0
    9.0829  -16.3069   26.9055 C   0  0  0  0  0  0  0  0  0  0  0  0
    7.9430  -15.5835   26.3384 C   0  0  0  0  0  0  0  0  0  0  0  0
    6.8149  -16.1906   25.7675 C   0  0  0  0  0  0  0  0  0  0  0  0
    6.0068  -15.2167   25.3472 N   0  0  0  0  0  0  0  0  0  0  0  0
    6.5523  -14.0065   25.6185 C   0  0  0  0  0  0  0  0  0  0  0  0
    6.0899  -12.7286   25.3872 C   0  0  0  0  0  0  0  0  0  0  0  0
    6.8259  -11.6218   25.7725 C   0  0  0  0  0  0  0  0  0  0  0  0
    8.0299  -11.8401   26.3919 C   0  0  0  0  0  0  0  0  0  0  0  0
    8.4853  -13.1075   26.6182 C   0  0  0  0  0  0  0  0  0  0  0  0
    7.7586  -14.2152   26.2368 C   0  0  0  0  0  0  0  0  0  0  0  0
   11.2581  -17.4417   26.5111 C   0  0  0  0  0  0  0  0  0  0  0  0
   12.0748  -17.2049   27.5963 O   0  0  0  0  0  0  0  0  0  0  0  0
   11.4320  -18.5851   25.9382 O   0  0  0  0  0  0  0  0  0  0  0  0
  2  1  1  0
  2  3  2  0
  4  2  1  0
  5  4  1  0
  5  6  1  6
  7  5  1  0
  8  7  2  0
  9  7  1  0
 10  9  1  0
 10 11  1  6
 12 11  1  0
 13 12  2  0
 14 15  2  0
 14 10  1  0
 16 12  1  0
 17 14  1  0
 18 19  1  1
 18 17  1  0
 20 28  1  0
 20 19  1  0
 21 20  2  0
 22 21  1  0
 22 23  1  0
 23 28  2  0
 24 23  1  0
 24 25  2  0
 25 26  1  0
 26 27  2  0
 28 27  1  0
 29 18  1  0
 30 29  1  0
 31 29  2  0
M  END
$$$$
