NDW.pdb
     RDKit          3D

 31 32  0  0  1  0  0  0  0  0999 V2000
    8.2028  -14.6314   16.2418 N   0  0  0  0  0  0  0  0  0  0  0  0
    8.0912  -14.1374   17.5572 C   0  0  0  0  0  0  0  0  0  0  0  0
    7.5919  -12.9711   17.6950 O   0  0  0  0  0  0  0  0  0  0  0  0
    8.4853  -14.8211   18.7859 C   0  0  0  0  0  0  0  0  0  0  0  0
    9.0476  -16.1959   18.6162 C   0  0  2  0  0  0  0  0  0  0  0  0
    8.2250  -17.1140   17.8981 N   0  0  0  0  0  0  0  0  0  0  0  0
    9.5724  -16.7969   19.8705 C   0  0  0  0  0  0  0  0  0  0  0  0
    8.9238  -17.5906   20.5750 O   0  0  0  0  0  0  0  0  0  0  0  0
   10.8912  -16.4348   20.2782 N   0  0  0  0  0  0  0  0  0  0  0  0
   11.5449  -16.9564   21.4648 C   0  0  1  0  0  0  0  0  0  0  0  0
   13.0285  -16.7748   21.4624 C   0  0  0  0  0  0  0  0  0  0  0  0
   13.6352  -17.3673   22.6770 C   0  0  0  0  0  0  0  0  0  0  0  0
   13.9849  -16.6542   23.6246 O   0  0  0  0  0  0  0  0  0  0  0  0
   10.9577  -16.2583   22.6461 C   0  0  0  0  0  0  0  0  0  0  0  0
   10.8508  -15.0170   22.6386 O   0  0  0  0  0  0  0  0  0  0  0  0
   13.8400  -18.7398   22.8049 O   0  0  0  0  0  0  0  0  0  0  0  0
   10.5191  -16.9820   23.7735 N   0  0  0  0  0  0  0  0  0  0  0  0
    9.7717  -16.2379   24.8153 C   0  0  1  0  0  0  0  0  0  0  0  0
    8.5853  -15.6780   24.0821 C   0  0  0  0  0  0  0  0  0  0  0  0
    7.5951  -14.9783   24.9032 C   0  0  0  0  0  0  0  0  0  0  0  0
    6.3826  -15.5326   25.3389 C   0  0  0  0  0  0  0  0  0  0  0  0
    5.7445  -14.5956   26.0410 N   0  0  0  0  0  0  0  0  0  0  0  0
    6.4826  -13.4604   26.0854 C   0  0  0  0  0  0  0  0  0  0  0  0
    6.2472  -12.2463   26.6943 C   0  0  0  0  0  0  0  0  0  0  0  0
    7.1691  -11.2172   26.6165 C   0  0  0  0  0  0  0  0  0  0  0  0
    8.3240  -11.4468   25.9133 C   0  0  0  0  0  0  0  0  0  0  0  0
    8.5532  -12.6504   25.3103 C   0  0  0  0  0  0  0  0  0  0  0  0
    7.6396  -13.6803   25.3824 C   0  0  0  0  0  0  0  0  0  0  0  0
    9.4184  -17.0919   25.9480 C   0  0  0  0  0  0  0  0  0  0  0  0
    9.2409  -16.6714   27.2489 O   0  0  0  0  0  0  0  0  0  0  0  0
    9.2508  -18.3574   25.7573 O   0  0  0  0  0  0  0  0  0  0  0  0
  2  1  1  0
  2  3  2  0
  4  2  1  0
  5  4  1  0
  5  6  1  1
  7  5  1  0
  8  7  2  0
  9  7  1  0
 10  9  1  0
 10 11  1  6
 12 11  1  0
 13 12  2  0
 14 15  2  0
 14 10  1  0
 16 12  1  0
 17 14  1  0
 18 19  1  6
 18 17  1  0
 20 28  1  0
 20 19  1  0
 21 20  2  0
 22 21  1  0
 22 23  1  0
 23 28  2  0
 24 23  1  0
 24 25  2  0
 25 26  1  0
 26 27  2  0
 28 27  1  0
 29 18  1  0
 30 29  1  0
 31 29  2  0
M  END
$$$$
