NDW.pdb
     RDKit          3D

 31 32  0  0  1  0  0  0  0  0999 V2000
    7.7359  -12.0435   17.8765 N   0  0  0  0  0  0  0  0  0  0  0  0
    7.6843  -13.4504   17.9439 C   0  0  0  0  0  0  0  0  0  0  0  0
    7.6543  -14.0804   16.8345 O   0  0  0  0  0  0  0  0  0  0  0  0
    7.6637  -14.2693   19.1529 C   0  0  0  0  0  0  0  0  0  0  0  0
    8.9897  -14.5123   19.7991 C   0  0  2  0  0  0  0  0  0  0  0  0
   10.0740  -14.7619   18.9063 N   0  0  0  0  0  0  0  0  0  0  0  0
    8.9535  -15.5034   20.9065 C   0  0  0  0  0  0  0  0  0  0  0  0
    8.0164  -15.5897   21.7197 O   0  0  0  0  0  0  0  0  0  0  0  0
   10.0591  -16.3967   21.0335 N   0  0  0  0  0  0  0  0  0  0  0  0
   10.1640  -17.4156   22.0621 C   0  0  1  0  0  0  0  0  0  0  0  0
   11.2389  -18.4217   21.8039 C   0  0  0  0  0  0  0  0  0  0  0  0
   11.1110  -18.9942   20.4437 C   0  0  0  0  0  0  0  0  0  0  0  0
   10.0881  -19.5996   20.1031 O   0  0  0  0  0  0  0  0  0  0  0  0
   10.4287  -16.7226   23.3573 C   0  0  0  0  0  0  0  0  0  0  0  0
   11.2002  -15.7447   23.3870 O   0  0  0  0  0  0  0  0  0  0  0  0
   12.1272  -18.8805   19.4970 O   0  0  0  0  0  0  0  0  0  0  0  0
    9.8176  -17.1562   24.5512 N   0  0  0  0  0  0  0  0  0  0  0  0
   10.2529  -16.5142   25.8145 C   0  0  1  0  0  0  0  0  0  0  0  0
    9.8190  -15.0833   25.6639 C   0  0  0  0  0  0  0  0  0  0  0  0
    8.3777  -14.8376   25.7455 C   0  0  0  0  0  0  0  0  0  0  0  0
    7.3885  -15.8137   25.5560 C   0  0  0  0  0  0  0  0  0  0  0  0
    6.2049  -15.2139   25.6887 N   0  0  0  0  0  0  0  0  0  0  0  0
    6.3753  -13.8970   25.9573 C   0  0  0  0  0  0  0  0  0  0  0  0
    5.4617  -12.8899   26.1840 C   0  0  0  0  0  0  0  0  0  0  0  0
    5.8755  -11.5985   26.4597 C   0  0  0  0  0  0  0  0  0  0  0  0
    7.2247  -11.3555   26.4997 C   0  0  0  0  0  0  0  0  0  0  0  0
    8.1268  -12.3554   26.2734 C   0  0  0  0  0  0  0  0  0  0  0  0
    7.7228  -13.6443   25.9973 C   0  0  0  0  0  0  0  0  0  0  0  0
    9.6922  -17.1825   26.9875 C   0  0  0  0  0  0  0  0  0  0  0  0
    8.8299  -18.2579   26.9661 O   0  0  0  0  0  0  0  0  0  0  0  0
   10.0047  -16.7588   28.1659 O   0  0  0  0  0  0  0  0  0  0  0  0
  2  1  1  0
  2  3  2  0
  4  2  1  0
  5  4  1  0
  5  6  1  6
  7  5  1  0
  8  7  2  0
  9  7  1  0
 10  9  1  0
 10 11  1  6
 12 11  1  0
 13 12  2  0
 14 15  2  0
 14 10  1  0
 16 12  1  0
 17 14  1  0
 18 19  1  6
 18 17  1  0
 20 28  1  0
 20 19  1  0
 21 20  2  0
 22 21  1  0
 22 23  1  0
 23 28  2  0
 24 23  1  0
 24 25  2  0
 25 26  1  0
 26 27  2  0
 28 27  1  0
 29 18  1  0
 30 29  1  0
 31 29  2  0
M  END
$$$$
