NDW.pdb
     RDKit          3D

 31 32  0  0  1  0  0  0  0  0999 V2000
    6.7196  -12.8101   18.9732 N   0  0  0  0  0  0  0  0  0  0  0  0
    7.9691  -13.2851   19.4200 C   0  0  0  0  0  0  0  0  0  0  0  0
    9.0003  -12.8794   18.7872 O   0  0  0  0  0  0  0  0  0  0  0  0
    8.2122  -14.1945   20.5365 C   0  0  0  0  0  0  0  0  0  0  0  0
    8.5139  -15.6121   20.1696 C   0  0  2  0  0  0  0  0  0  0  0  0
    7.5755  -16.2354   19.2945 N   0  0  0  0  0  0  0  0  0  0  0  0
    8.8431  -16.4827   21.3287 C   0  0  0  0  0  0  0  0  0  0  0  0
    8.0211  -17.2411   21.8728 O   0  0  0  0  0  0  0  0  0  0  0  0
   10.1763  -16.4358   21.8358 N   0  0  0  0  0  0  0  0  0  0  0  0
   10.6754  -17.3055   22.8855 C   0  0  1  0  0  0  0  0  0  0  0  0
   12.1248  -17.6437   22.7471 C   0  0  0  0  0  0  0  0  0  0  0  0
   12.5637  -18.5442   23.8383 C   0  0  0  0  0  0  0  0  0  0  0  0
   11.8689  -19.5059   24.1863 O   0  0  0  0  0  0  0  0  0  0  0  0
   10.4452  -16.6160   24.1891 C   0  0  0  0  0  0  0  0  0  0  0  0
   10.8553  -15.4507   24.3513 O   0  0  0  0  0  0  0  0  0  0  0  0
   13.7650  -18.3494   24.5172 O   0  0  0  0  0  0  0  0  0  0  0  0
    9.7683  -17.2624   25.2431 N   0  0  0  0  0  0  0  0  0  0  0  0
    9.7995  -16.6134   26.5756 C   0  0  1  0  0  0  0  0  0  0  0  0
    8.3555  -16.5615   26.9890 C   0  0  0  0  0  0  0  0  0  0  0  0
    7.5301  -15.5582   26.3134 C   0  0  0  0  0  0  0  0  0  0  0  0
    6.5127  -15.8486   25.3928 C   0  0  0  0  0  0  0  0  0  0  0  0
    6.0031  -14.6871   24.9811 N   0  0  0  0  0  0  0  0  0  0  0  0
    6.6370  -13.6561   25.5900 C   0  0  0  0  0  0  0  0  0  0  0  0
    6.4536  -12.2931   25.4954 C   0  0  0  0  0  0  0  0  0  0  0  0
    7.2231  -11.4154   26.2388 C   0  0  0  0  0  0  0  0  0  0  0  0
    8.1734  -11.9479   27.0720 C   0  0  0  0  0  0  0  0  0  0  0  0
    8.3531  -13.2987   27.1621 C   0  0  0  0  0  0  0  0  0  0  0  0
    7.5913  -14.1797   26.4245 C   0  0  0  0  0  0  0  0  0  0  0  0
   10.6582  -17.3345   27.5136 C   0  0  0  0  0  0  0  0  0  0  0  0
   10.9539  -16.9401   28.8010 O   0  0  0  0  0  0  0  0  0  0  0  0
   11.2094  -18.4412   27.1431 O   0  0  0  0  0  0  0  0  0  0  0  0
  2  1  1  0
  2  3  2  0
  4  2  1  0
  5  4  1  0
  5  6  1  1
  7  5  1  0
  8  7  2  0
  9  7  1  0
 10  9  1  0
 10 11  1  6
 12 11  1  0
 13 12  2  0
 14 15  2  0
 14 10  1  0
 16 12  1  0
 17 14  1  0
 18 19  1  1
 18 17  1  0
 20 28  1  0
 20 19  1  0
 21 20  2  0
 22 21  1  0
 22 23  1  0
 23 28  2  0
 24 23  1  0
 24 25  2  0
 25 26  1  0
 26 27  2  0
 28 27  1  0
 29 18  1  0
 30 29  1  0
 31 29  2  0
M  END
$$$$
