NDW.pdb
     RDKit          3D

 31 32  0  0  1  0  0  0  0  0999 V2000
    6.8568  -17.4746   17.8148 N   0  0  0  0  0  0  0  0  0  0  0  0
    6.6283  -17.8676   19.1489 C   0  0  0  0  0  0  0  0  0  0  0  0
    5.4128  -17.9247   19.5334 O   0  0  0  0  0  0  0  0  0  0  0  0
    7.6380  -18.2209   20.1431 C   0  0  0  0  0  0  0  0  0  0  0  0
    8.3108  -17.0737   20.8259 C   0  0  2  0  0  0  0  0  0  0  0  0
    8.7376  -16.0129   19.9728 N   0  0  0  0  0  0  0  0  0  0  0  0
    9.3806  -17.4753   21.7768 C   0  0  0  0  0  0  0  0  0  0  0  0
    9.2915  -18.4569   22.5353 O   0  0  0  0  0  0  0  0  0  0  0  0
   10.5673  -16.6835   21.8129 N   0  0  0  0  0  0  0  0  0  0  0  0
   11.7041  -16.9653   22.6707 C   0  0  1  0  0  0  0  0  0  0  0  0
   13.0078  -16.4888   22.1164 C   0  0  0  0  0  0  0  0  0  0  0  0
   14.1327  -16.8900   22.9926 C   0  0  0  0  0  0  0  0  0  0  0  0
   14.1631  -18.0106   23.5141 O   0  0  0  0  0  0  0  0  0  0  0  0
   11.4498  -16.3072   23.9861 C   0  0  0  0  0  0  0  0  0  0  0  0
   11.9398  -15.1857   24.2196 O   0  0  0  0  0  0  0  0  0  0  0  0
   15.1952  -16.0315   23.2687 O   0  0  0  0  0  0  0  0  0  0  0  0
   10.6608  -16.9344   24.9715 N   0  0  0  0  0  0  0  0  0  0  0  0
   10.6353  -16.3199   26.3203 C   0  0  1  0  0  0  0  0  0  0  0  0
   10.0761  -14.9453   26.0835 C   0  0  0  0  0  0  0  0  0  0  0  0
    8.6211  -14.8598   25.9422 C   0  0  0  0  0  0  0  0  0  0  0  0
    7.7681  -15.9607   25.7760 C   0  0  0  0  0  0  0  0  0  0  0  0
    6.5255  -15.4899   25.6646 N   0  0  0  0  0  0  0  0  0  0  0  0
    6.5278  -14.1380   25.7524 C   0  0  0  0  0  0  0  0  0  0  0  0
    5.4982  -13.2224   25.7067 C   0  0  0  0  0  0  0  0  0  0  0  0
    5.7417  -11.8663   25.8364 C   0  0  0  0  0  0  0  0  0  0  0  0
    7.0415  -11.4652   26.0120 C   0  0  0  0  0  0  0  0  0  0  0  0
    8.0589  -12.3751   26.0555 C   0  0  0  0  0  0  0  0  0  0  0  0
    7.8248  -13.7275   25.9263 C   0  0  0  0  0  0  0  0  0  0  0  0
    9.8612  -17.1186   27.2691 C   0  0  0  0  0  0  0  0  0  0  0  0
    9.2000  -18.2935   26.9813 O   0  0  0  0  0  0  0  0  0  0  0  0
    9.7610  -16.7235   28.4937 O   0  0  0  0  0  0  0  0  0  0  0  0
  2  1  1  0
  2  3  2  0
  4  2  1  0
  5  4  1  0
  5  6  1  6
  7  5  1  0
  8  7  2  0
  9  7  1  0
 10  9  1  0
 10 11  1  6
 12 11  1  0
 13 12  2  0
 14 15  2  0
 14 10  1  0
 16 12  1  0
 17 14  1  0
 18 19  1  6
 18 17  1  0
 20 28  1  0
 20 19  1  0
 21 20  2  0
 22 21  1  0
 22 23  1  0
 23 28  2  0
 24 23  1  0
 24 25  2  0
 25 26  1  0
 26 27  2  0
 28 27  1  0
 29 18  1  0
 30 29  1  0
 31 29  2  0
M  END
$$$$
