NDW.pdb
     RDKit          3D

 31 32  0  0  1  0  0  0  0  0999 V2000
    7.6217  -12.5000   17.4778 N   0  0  0  0  0  0  0  0  0  0  0  0
    7.6134  -13.9094   17.4852 C   0  0  0  0  0  0  0  0  0  0  0  0
    7.6126  -14.4923   16.3500 O   0  0  0  0  0  0  0  0  0  0  0  0
    7.6078  -14.7792   18.6583 C   0  0  0  0  0  0  0  0  0  0  0  0
    8.8681  -14.7983   19.4624 C   0  0  2  0  0  0  0  0  0  0  0  0
   10.0792  -14.7291   18.7118 N   0  0  0  0  0  0  0  0  0  0  0  0
    8.9194  -15.8750   20.4861 C   0  0  0  0  0  0  0  0  0  0  0  0
    7.9640  -16.1616   21.2290 O   0  0  0  0  0  0  0  0  0  0  0  0
   10.1354  -16.6108   20.6143 N   0  0  0  0  0  0  0  0  0  0  0  0
   10.3891  -17.5810   21.6639 C   0  0  1  0  0  0  0  0  0  0  0  0
   11.5073  -18.5231   21.3539 C   0  0  0  0  0  0  0  0  0  0  0  0
   12.6216  -17.8170   20.6802 C   0  0  0  0  0  0  0  0  0  0  0  0
   13.5077  -17.2573   21.3362 O   0  0  0  0  0  0  0  0  0  0  0  0
   10.7048  -16.8235   22.9107 C   0  0  0  0  0  0  0  0  0  0  0  0
   11.4514  -15.8276   22.8550 O   0  0  0  0  0  0  0  0  0  0  0  0
   12.7200  -17.7495   19.2918 O   0  0  0  0  0  0  0  0  0  0  0  0
   10.1697  -17.2162   24.1543 N   0  0  0  0  0  0  0  0  0  0  0  0
   10.2899  -16.2620   25.2824 C   0  0  1  0  0  0  0  0  0  0  0  0
    9.5888  -15.0270   24.7907 C   0  0  0  0  0  0  0  0  0  0  0  0
    8.2787  -14.7531   25.3846 C   0  0  0  0  0  0  0  0  0  0  0  0
    7.2701  -15.7097   25.5716 C   0  0  0  0  0  0  0  0  0  0  0  0
    6.2251  -15.0868   26.1177 N   0  0  0  0  0  0  0  0  0  0  0  0
    6.5049  -13.7734   26.2972 C   0  0  0  0  0  0  0  0  0  0  0  0
    5.7529  -12.7485   26.8306 C   0  0  0  0  0  0  0  0  0  0  0  0
    6.2617  -11.4654   26.9291 C   0  0  0  0  0  0  0  0  0  0  0  0
    7.5387  -11.2489   26.4783 C   0  0  0  0  0  0  0  0  0  0  0  0
    8.2802  -12.2663   25.9493 C   0  0  0  0  0  0  0  0  0  0  0  0
    7.7805  -13.5471   25.8469 C   0  0  0  0  0  0  0  0  0  0  0  0
    9.7321  -16.8065   26.5192 C   0  0  0  0  0  0  0  0  0  0  0  0
    8.9803  -17.9571   26.6254 O   0  0  0  0  0  0  0  0  0  0  0  0
    9.9365  -16.1851   27.6318 O   0  0  0  0  0  0  0  0  0  0  0  0
  2  1  1  0
  2  3  2  0
  4  2  1  0
  5  4  1  0
  5  6  1  6
  7  5  1  0
  8  7  2  0
  9  7  1  0
 10  9  1  0
 10 11  1  6
 12 11  1  0
 13 12  2  0
 14 15  2  0
 14 10  1  0
 16 12  1  0
 17 14  1  0
 18 19  1  6
 18 17  1  0
 20 28  1  0
 20 19  1  0
 21 20  2  0
 22 21  1  0
 22 23  1  0
 23 28  2  0
 24 23  1  0
 24 25  2  0
 25 26  1  0
 26 27  2  0
 28 27  1  0
 29 18  1  0
 30 29  1  0
 31 29  2  0
M  END
$$$$
