NDW.pdb
     RDKit          3D

 31 32  0  0  1  0  0  0  0  0999 V2000
    7.0647  -12.4007   17.3213 N   0  0  0  0  0  0  0  0  0  0  0  0
    7.7974  -13.4519   17.9083 C   0  0  0  0  0  0  0  0  0  0  0  0
    8.6932  -14.0041   17.1864 O   0  0  0  0  0  0  0  0  0  0  0  0
    7.6427  -13.9785   19.2616 C   0  0  0  0  0  0  0  0  0  0  0  0
    8.8957  -14.4543   19.9239 C   0  0  2  0  0  0  0  0  0  0  0  0
    9.9454  -14.8520   19.0436 N   0  0  0  0  0  0  0  0  0  0  0  0
    8.6721  -15.4578   20.9976 C   0  0  0  0  0  0  0  0  0  0  0  0
    7.7132  -15.4145   21.7885 O   0  0  0  0  0  0  0  0  0  0  0  0
    9.6155  -16.5218   21.1178 N   0  0  0  0  0  0  0  0  0  0  0  0
    9.6097  -17.4923   22.1974 C   0  0  1  0  0  0  0  0  0  0  0  0
   10.4500  -18.6982   21.9258 C   0  0  0  0  0  0  0  0  0  0  0  0
   10.2138  -19.2091   20.5556 C   0  0  0  0  0  0  0  0  0  0  0  0
    9.1863  -19.8396   20.2813 O   0  0  0  0  0  0  0  0  0  0  0  0
   10.1058  -16.8034   23.4250 C   0  0  0  0  0  0  0  0  0  0  0  0
   10.9661  -15.9078   23.3246 O   0  0  0  0  0  0  0  0  0  0  0  0
   11.1299  -19.0073   19.5251 O   0  0  0  0  0  0  0  0  0  0  0  0
    9.6149  -17.1491   24.7004 N   0  0  0  0  0  0  0  0  0  0  0  0
   10.2145  -16.4666   25.8719 C   0  0  1  0  0  0  0  0  0  0  0  0
    9.8515  -15.0214   25.6762 C   0  0  0  0  0  0  0  0  0  0  0  0
    8.4386  -14.6838   25.8606 C   0  0  0  0  0  0  0  0  0  0  0  0
    7.3727  -15.5763   25.6751 C   0  0  0  0  0  0  0  0  0  0  0  0
    6.2448  -14.9069   25.9154 N   0  0  0  0  0  0  0  0  0  0  0  0
    6.5243  -13.6242   26.2501 C   0  0  0  0  0  0  0  0  0  0  0  0
    5.6998  -12.5734   26.5913 C   0  0  0  0  0  0  0  0  0  0  0  0
    6.2203  -11.3332   26.9166 C   0  0  0  0  0  0  0  0  0  0  0  0
    7.5835  -11.1857   26.8879 C   0  0  0  0  0  0  0  0  0  0  0  0
    8.3971  -12.2285   26.5481 C   0  0  0  0  0  0  0  0  0  0  0  0
    7.8865  -13.4668   26.2220 C   0  0  0  0  0  0  0  0  0  0  0  0
    9.7392  -17.0306   27.1341 C   0  0  0  0  0  0  0  0  0  0  0  0
    8.8111  -18.0415   27.2655 O   0  0  0  0  0  0  0  0  0  0  0  0
   10.2023  -16.5689   28.2468 O   0  0  0  0  0  0  0  0  0  0  0  0
  2  1  1  0
  2  3  2  0
  4  2  1  0
  5  4  1  0
  5  6  1  6
  7  5  1  0
  8  7  2  0
  9  7  1  0
 10  9  1  0
 10 11  1  6
 12 11  1  0
 13 12  2  0
 14 15  2  0
 14 10  1  0
 16 12  1  0
 17 14  1  0
 18 19  1  1
 18 17  1  0
 20 28  1  0
 20 19  1  0
 21 20  2  0
 22 21  1  0
 22 23  1  0
 23 28  2  0
 24 23  1  0
 24 25  2  0
 25 26  1  0
 26 27  2  0
 28 27  1  0
 29 18  1  0
 30 29  1  0
 31 29  2  0
M  END
$$$$
