NDW.pdb
     RDKit          3D

 31 32  0  0  1  0  0  0  0  0999 V2000
    7.3819  -15.6040   17.0606 N   0  0  0  0  0  0  0  0  0  0  0  0
    7.5677  -14.8626   18.2448 C   0  0  0  0  0  0  0  0  0  0  0  0
    7.7448  -13.6053   18.1165 O   0  0  0  0  0  0  0  0  0  0  0  0
    7.5770  -15.3806   19.6102 C   0  0  0  0  0  0  0  0  0  0  0  0
    8.8597  -15.2184   20.3608 C   0  0  2  0  0  0  0  0  0  0  0  0
   10.0291  -15.0678   19.5578 N   0  0  0  0  0  0  0  0  0  0  0  0
    9.0626  -16.2198   21.4406 C   0  0  0  0  0  0  0  0  0  0  0  0
    8.1345  -16.6964   22.1177 O   0  0  0  0  0  0  0  0  0  0  0  0
   10.3979  -16.6479   21.7058 N   0  0  0  0  0  0  0  0  0  0  0  0
   10.7583  -17.5663   22.7706 C   0  0  1  0  0  0  0  0  0  0  0  0
   12.1301  -18.1427   22.6283 C   0  0  0  0  0  0  0  0  0  0  0  0
   12.1969  -19.0688   21.4741 C   0  0  0  0  0  0  0  0  0  0  0  0
   11.4363  -20.0404   21.3946 O   0  0  0  0  0  0  0  0  0  0  0  0
   10.6606  -16.8213   24.0603 C   0  0  0  0  0  0  0  0  0  0  0  0
   11.3872  -15.8282   24.2555 O   0  0  0  0  0  0  0  0  0  0  0  0
   13.1115  -18.8911   20.4378 O   0  0  0  0  0  0  0  0  0  0  0  0
    9.7560  -17.2227   25.0642 N   0  0  0  0  0  0  0  0  0  0  0  0
    9.8181  -16.5129   26.3641 C   0  0  1  0  0  0  0  0  0  0  0  0
    8.3775  -16.3552   26.7620 C   0  0  0  0  0  0  0  0  0  0  0  0
    7.5830  -15.4354   25.9453 C   0  0  0  0  0  0  0  0  0  0  0  0
    6.8326  -15.8094   24.8210 C   0  0  0  0  0  0  0  0  0  0  0  0
    6.2663  -14.7050   24.3334 N   0  0  0  0  0  0  0  0  0  0  0  0
    6.6091  -13.6320   25.0861 C   0  0  0  0  0  0  0  0  0  0  0  0
    6.2638  -12.3014   24.9827 C   0  0  0  0  0  0  0  0  0  0  0  0
    6.7307  -11.3692   25.8927 C   0  0  0  0  0  0  0  0  0  0  0  0
    7.5480  -11.8145   26.9001 C   0  0  0  0  0  0  0  0  0  0  0  0
    7.8890  -13.1332   26.9985 C   0  0  0  0  0  0  0  0  0  0  0  0
    7.4288  -14.0679   26.0957 C   0  0  0  0  0  0  0  0  0  0  0  0
   10.6268  -17.2373   27.3431 C   0  0  0  0  0  0  0  0  0  0  0  0
   10.9900  -16.7728   28.5892 O   0  0  0  0  0  0  0  0  0  0  0  0
   11.0607  -18.4181   27.0546 O   0  0  0  0  0  0  0  0  0  0  0  0
  2  1  1  0
  2  3  2  0
  4  2  1  0
  5  4  1  0
  5  6  1  6
  7  5  1  0
  8  7  2  0
  9  7  1  0
 10  9  1  0
 10 11  1  6
 12 11  1  0
 13 12  2  0
 14 15  2  0
 14 10  1  0
 16 12  1  0
 17 14  1  0
 18 19  1  1
 18 17  1  0
 20 28  1  0
 20 19  1  0
 21 20  2  0
 22 21  1  0
 22 23  1  0
 23 28  2  0
 24 23  1  0
 24 25  2  0
 25 26  1  0
 26 27  2  0
 28 27  1  0
 29 18  1  0
 30 29  1  0
 31 29  2  0
M  END
$$$$
