NDW.pdb
     RDKit          3D

 31 32  0  0  1  0  0  0  0  0999 V2000
   14.9365  -19.4624   20.0252 N   0  0  0  0  0  0  0  0  0  0  0  0
   14.1077  -18.7709   19.1188 C   0  0  0  0  0  0  0  0  0  0  0  0
   14.4811  -18.7468   17.8988 O   0  0  0  0  0  0  0  0  0  0  0  0
   12.8599  -18.0775   19.4267 C   0  0  0  0  0  0  0  0  0  0  0  0
   12.4749  -18.0370   20.8708 C   0  0  2  0  0  0  0  0  0  0  0  0
   12.0557  -19.2798   21.4319 N   0  0  0  0  0  0  0  0  0  0  0  0
   11.5394  -16.9357   21.2195 C   0  0  0  0  0  0  0  0  0  0  0  0
   11.8512  -15.7323   21.1811 O   0  0  0  0  0  0  0  0  0  0  0  0
   10.2164  -17.2911   21.6196 N   0  0  0  0  0  0  0  0  0  0  0  0
    9.1582  -16.3287   21.8672 C   0  0  1  0  0  0  0  0  0  0  0  0
    7.7886  -16.8547   21.5817 C   0  0  0  0  0  0  0  0  0  0  0  0
    6.7720  -15.7870   21.7253 C   0  0  0  0  0  0  0  0  0  0  0  0
    5.8200  -15.9170   22.5033 O   0  0  0  0  0  0  0  0  0  0  0  0
    9.2479  -15.9193   23.2997 C   0  0  0  0  0  0  0  0  0  0  0  0
    8.6985  -14.8661   23.6757 O   0  0  0  0  0  0  0  0  0  0  0  0
    6.8395  -14.6013   20.9961 O   0  0  0  0  0  0  0  0  0  0  0  0
    9.9446  -16.7073   24.2381 N   0  0  0  0  0  0  0  0  0  0  0  0
   10.0924  -16.1660   25.6102 C   0  0  1  0  0  0  0  0  0  0  0  0
    8.7602  -16.4332   26.2523 C   0  0  0  0  0  0  0  0  0  0  0  0
    7.7087  -15.4506   25.9820 C   0  0  0  0  0  0  0  0  0  0  0  0
    6.5275  -15.7180   25.2746 C   0  0  0  0  0  0  0  0  0  0  0  0
    5.8312  -14.5823   25.2158 N   0  0  0  0  0  0  0  0  0  0  0  0
    6.4998  -13.5903   25.8518 C   0  0  0  0  0  0  0  0  0  0  0  0
    6.1779  -12.2663   26.0614 C   0  0  0  0  0  0  0  0  0  0  0  0
    7.0240  -11.4283   26.7664 C   0  0  0  0  0  0  0  0  0  0  0  0
    8.1925  -11.9600   27.2489 C   0  0  0  0  0  0  0  0  0  0  0  0
    8.5086  -13.2717   27.0382 C   0  0  0  0  0  0  0  0  0  0  0  0
    7.6717  -14.1129   26.3363 C   0  0  0  0  0  0  0  0  0  0  0  0
   11.2214  -16.7694   26.3161 C   0  0  0  0  0  0  0  0  0  0  0  0
   12.1022  -17.6894   25.7884 O   0  0  0  0  0  0  0  0  0  0  0  0
   11.4479  -16.4409   27.5435 O   0  0  0  0  0  0  0  0  0  0  0  0
  2  1  1  0
  2  3  2  0
  4  2  1  0
  5  4  1  0
  5  6  1  6
  7  5  1  0
  8  7  2  0
  9  7  1  0
 10  9  1  0
 10 11  1  1
 12 11  1  0
 13 12  2  0
 14 15  2  0
 14 10  1  0
 16 12  1  0
 17 14  1  0
 18 19  1  1
 18 17  1  0
 20 28  1  0
 20 19  1  0
 21 20  2  0
 22 21  1  0
 22 23  1  0
 23 28  2  0
 24 23  1  0
 24 25  2  0
 25 26  1  0
 26 27  2  0
 28 27  1  0
 29 18  1  0
 30 29  1  0
 31 29  2  0
M  END
$$$$
