NDW.pdb
     RDKit          3D

 31 32  0  0  1  0  0  0  0  0999 V2000
    7.2487  -17.9859   19.0069 N   0  0  0  0  0  0  0  0  0  0  0  0
    6.6230  -16.7809   19.3852 C   0  0  0  0  0  0  0  0  0  0  0  0
    5.3892  -16.6527   19.0855 O   0  0  0  0  0  0  0  0  0  0  0  0
    7.2371  -15.6584   20.0891 C   0  0  0  0  0  0  0  0  0  0  0  0
    8.6962  -15.7936   20.3856 C   0  0  2  0  0  0  0  0  0  0  0  0
    9.5489  -15.9037   19.2472 N   0  0  0  0  0  0  0  0  0  0  0  0
    9.0153  -16.8227   21.4098 C   0  0  0  0  0  0  0  0  0  0  0  0
    8.4204  -17.9114   21.4973 O   0  0  0  0  0  0  0  0  0  0  0  0
   10.0608  -16.5335   22.3372 N   0  0  0  0  0  0  0  0  0  0  0  0
   10.5054  -17.4519   23.3698 C   0  0  1  0  0  0  0  0  0  0  0  0
   11.8795  -17.9938   23.1409 C   0  0  0  0  0  0  0  0  0  0  0  0
   12.7989  -16.9265   22.6831 C   0  0  0  0  0  0  0  0  0  0  0  0
   13.2082  -16.0617   23.4663 O   0  0  0  0  0  0  0  0  0  0  0  0
   10.4668  -16.7203   24.6702 C   0  0  0  0  0  0  0  0  0  0  0  0
   10.9215  -15.5624   24.7401 O   0  0  0  0  0  0  0  0  0  0  0  0
   13.2377  -16.8471   21.3628 O   0  0  0  0  0  0  0  0  0  0  0  0
    9.9216  -17.3185   25.8243 N   0  0  0  0  0  0  0  0  0  0  0  0
   10.1275  -16.6232   27.1172 C   0  0  1  0  0  0  0  0  0  0  0  0
    8.7345  -16.3871   27.6294 C   0  0  0  0  0  0  0  0  0  0  0  0
    7.8547  -15.6044   26.7591 C   0  0  0  0  0  0  0  0  0  0  0  0
    6.9643  -16.1507   25.8231 C   0  0  0  0  0  0  0  0  0  0  0  0
    6.3544  -15.1346   25.2118 N   0  0  0  0  0  0  0  0  0  0  0  0
    6.8021  -13.9550   25.7053 C   0  0  0  0  0  0  0  0  0  0  0  0
    6.4624  -12.6543   25.3999 C   0  0  0  0  0  0  0  0  0  0  0  0
    7.0512  -11.5888   26.0579 C   0  0  0  0  0  0  0  0  0  0  0  0
    7.9834  -11.8712   27.0234 C   0  0  0  0  0  0  0  0  0  0  0  0
    8.3183  -13.1609   27.3224 C   0  0  0  0  0  0  0  0  0  0  0  0
    7.7369  -14.2279   26.6711 C   0  0  0  0  0  0  0  0  0  0  0  0
   10.9688  -17.3997   28.0263 C   0  0  0  0  0  0  0  0  0  0  0  0
   11.4208  -16.9818   29.2598 O   0  0  0  0  0  0  0  0  0  0  0  0
   11.3458  -18.5849   27.6814 O   0  0  0  0  0  0  0  0  0  0  0  0
  2  1  1  0
  2  3  2  0
  4  2  1  0
  5  4  1  0
  5  6  1  6
  7  5  1  0
  8  7  2  0
  9  7  1  0
 10  9  1  0
 10 11  1  6
 12 11  1  0
 13 12  2  0
 14 15  2  0
 14 10  1  0
 16 12  1  0
 17 14  1  0
 18 19  1  1
 18 17  1  0
 20 28  1  0
 20 19  1  0
 21 20  2  0
 22 21  1  0
 22 23  1  0
 23 28  2  0
 24 23  1  0
 24 25  2  0
 25 26  1  0
 26 27  2  0
 28 27  1  0
 29 18  1  0
 30 29  1  0
 31 29  2  0
M  END
$$$$
