NDW.pdb
     RDKit          3D

 31 32  0  0  1  0  0  0  0  0999 V2000
    7.0274  -22.7496   22.2819 N   0  0  0  0  0  0  0  0  0  0  0  0
    8.2121  -22.7657   21.5187 C   0  0  0  0  0  0  0  0  0  0  0  0
    8.3706  -23.7484   20.7201 O   0  0  0  0  0  0  0  0  0  0  0  0
    9.2825  -21.7725   21.5417 C   0  0  0  0  0  0  0  0  0  0  0  0
    9.1466  -20.6903   22.5642 C   0  0  2  0  0  0  0  0  0  0  0  0
    7.8654  -20.0670   22.6357 N   0  0  0  0  0  0  0  0  0  0  0  0
   10.2427  -19.6865   22.5358 C   0  0  0  0  0  0  0  0  0  0  0  0
   11.4240  -19.9520   22.8204 O   0  0  0  0  0  0  0  0  0  0  0  0
    9.9088  -18.3503   22.1619 N   0  0  0  0  0  0  0  0  0  0  0  0
   10.8770  -17.2749   22.0465 C   0  0  1  0  0  0  0  0  0  0  0  0
   10.5518  -16.2863   20.9736 C   0  0  0  0  0  0  0  0  0  0  0  0
   10.4972  -16.9445   19.6477 C   0  0  0  0  0  0  0  0  0  0  0  0
    9.4189  -17.1147   19.0671 O   0  0  0  0  0  0  0  0  0  0  0  0
   10.9368  -16.5792   23.3657 C   0  0  0  0  0  0  0  0  0  0  0  0
   11.6328  -15.5534   23.4909 O   0  0  0  0  0  0  0  0  0  0  0  0
   11.6454  -17.3994   19.0022 O   0  0  0  0  0  0  0  0  0  0  0  0
   10.2158  -17.0638   24.4758 N   0  0  0  0  0  0  0  0  0  0  0  0
   10.4283  -16.3871   25.7775 C   0  0  1  0  0  0  0  0  0  0  0  0
   10.0143  -14.9655   25.5206 C   0  0  0  0  0  0  0  0  0  0  0  0
    8.5955  -14.6640   25.7208 C   0  0  0  0  0  0  0  0  0  0  0  0
    7.5543  -15.5944   25.5895 C   0  0  0  0  0  0  0  0  0  0  0  0
    6.4110  -14.9508   25.8278 N   0  0  0  0  0  0  0  0  0  0  0  0
    6.6572  -13.6487   26.1098 C   0  0  0  0  0  0  0  0  0  0  0  0
    5.8072  -12.6114   26.4290 C   0  0  0  0  0  0  0  0  0  0  0  0
    6.2954  -11.3448   26.6984 C   0  0  0  0  0  0  0  0  0  0  0  0
    7.6526  -11.1575   26.6369 C   0  0  0  0  0  0  0  0  0  0  0  0
    8.4914  -12.1872   26.3191 C   0  0  0  0  0  0  0  0  0  0  0  0
    8.0131  -13.4516   26.0487 C   0  0  0  0  0  0  0  0  0  0  0  0
    9.6844  -17.0345   26.8567 C   0  0  0  0  0  0  0  0  0  0  0  0
    9.7053  -16.6637   28.1843 O   0  0  0  0  0  0  0  0  0  0  0  0
    8.9314  -18.0472   26.5862 O   0  0  0  0  0  0  0  0  0  0  0  0
  2  1  1  0
  2  3  2  0
  4  2  1  0
  5  4  1  0
  5  6  1  6
  7  5  1  0
  8  7  2  0
  9  7  1  0
 10  9  1  0
 10 11  1  6
 12 11  1  0
 13 12  2  0
 14 15  2  0
 14 10  1  0
 16 12  1  0
 17 14  1  0
 18 19  1  6
 18 17  1  0
 20 28  1  0
 20 19  1  0
 21 20  2  0
 22 21  1  0
 22 23  1  0
 23 28  2  0
 24 23  1  0
 24 25  2  0
 25 26  1  0
 26 27  2  0
 28 27  1  0
 29 18  1  0
 30 29  1  0
 31 29  2  0
M  END
$$$$
