RRC.pdb
     RDKit          3D

 29 28  0  0  1  0  0  0  0  0999 V2000
   23.9649  -17.3545  -20.6588 N   0  0  0  0  0  0  0  0  0  0  0  0
   22.9145  -17.7495  -19.7996 C   0  0  0  0  0  0  0  0  0  0  0  0
   22.0171  -18.6313  -20.1605 N   0  0  0  0  0  0  0  0  0  0  0  0
   22.7383  -17.2368  -18.4909 N   0  0  0  0  0  0  0  0  0  0  0  0
   23.7330  -16.4880  -17.8273 C   0  0  0  0  0  0  0  0  0  0  0  0
   24.8767  -17.2655  -17.2641 C   0  0  0  0  0  0  0  0  0  0  0  0
   24.3490  -18.5657  -16.6977 C   0  0  0  0  0  0  0  0  0  0  0  0
   25.3854  -19.3800  -16.0104 C   0  0  2  0  0  0  0  0  0  0  0  0
   25.9699  -20.3172  -16.9240 N   0  0  0  0  0  0  0  0  0  0  0  0
   24.6805  -20.1778  -14.9478 C   0  0  0  0  0  0  0  0  0  0  0  0
   23.9793  -21.1935  -15.2440 O   0  0  0  0  0  0  0  0  0  0  0  0
   21.3066  -18.8943  -19.4536 N   0  0  0  0  0  0  0  0  0  0  0  0
   27.9815  -20.0716  -12.3389 C   0  0  0  0  0  0  0  0  0  0  0  0
   28.5733  -20.9286  -11.3556 N   0  0  0  0  0  0  0  0  0  0  0  0
   29.7034  -21.4862  -11.6077 N   0  0  0  0  0  0  0  0  0  0  0  0
   27.9524  -21.1838  -10.1096 C   0  0  0  0  0  0  0  0  0  0  0  0
   26.6008  -20.7953   -9.8073 C   0  0  0  0  0  0  0  0  0  0  0  0
   25.6119  -21.3638  -10.8140 C   0  0  0  0  0  0  0  0  0  0  0  0
   24.6538  -20.2612  -11.2092 C   0  0  2  0  0  0  0  0  0  0  0  0
   24.0000  -20.5360  -12.5397 N   0  0  0  0  0  0  0  0  0  0  0  0
   24.7654  -19.8355  -13.5808 C   0  0  0  0  0  0  0  0  0  0  0  0
   22.5837  -20.1367  -12.5674 O   0  0  0  0  0  0  0  0  0  0  0  0
   22.2441  -18.9396  -12.7230 N   0  0  0  0  0  0  0  0  0  0  0  0
   30.1480  -22.0808  -10.8986 C   0  0  1  0  0  0  0  0  0  0  0  0
   21.5599  -21.1056  -12.4178 C   0  0  0  0  0  0  0  0  0  0  0  0
   20.1882  -20.8830  -12.7817 S   0  0  0  0  0  0  0  0  0  0  0  0
   20.1741  -20.4676  -14.2592 C   0  0  0  0  0  0  0  0  0  0  0  0
   19.0598  -19.0116  -14.3319 O   0  0  0  0  0  0  0  0  0  0  0  0
   19.2924  -21.9969  -12.5015 O   0  0  0  0  0  0  0  0  0  0  0  0
  2  1  1  0
  2  3  2  0
  4  2  1  0
  5  4  1  0
  6  5  1  0
  7  6  1  0
  8  7  1  0
  8  9  1  6
 10  8  1  0
 10 11  2  0
 13 12  1  0
 14 13  2  0
 15 13  1  0
 16 15  1  0
 17 16  1  0
 17 18  1  0
 19 18  1  6
 19 20  1  0
 19 21  1  0
 20 10  1  0
 21 23  1  0
 22 21  2  0
 23 24  1  0
 24 27  1  0
 25 26  1  0
 24 25  1  1
 27 28  2  0
 27 29  1  0
M  END
$$$$
