RRC.pdb
     RDKit          3D

 29 28  0  0  1  0  0  0  0  0999 V2000
   25.3942  -22.5416  -11.2824 N   0  0  0  0  0  0  0  0  0  0  0  0
   25.6863  -21.1641  -11.1616 C   0  0  0  0  0  0  0  0  0  0  0  0
   25.6649  -20.5489  -10.0064 N   0  0  0  0  0  0  0  0  0  0  0  0
   26.0234  -20.3356  -12.2600 N   0  0  0  0  0  0  0  0  0  0  0  0
   25.8436  -20.7388  -13.5999 C   0  0  0  0  0  0  0  0  0  0  0  0
   26.9535  -20.4072  -14.5421 C   0  0  0  0  0  0  0  0  0  0  0  0
   27.7180  -21.6741  -14.8584 C   0  0  0  0  0  0  0  0  0  0  0  0
   27.4317  -22.2205  -16.2109 C   0  0  2  0  0  0  0  0  0  0  0  0
   27.8095  -21.2756  -17.2205 N   0  0  0  0  0  0  0  0  0  0  0  0
   25.9408  -22.3964  -16.3044 C   0  0  0  0  0  0  0  0  0  0  0  0
   25.1959  -21.4722  -16.7538 O   0  0  0  0  0  0  0  0  0  0  0  0
   25.8806  -19.5355  -10.0102 N   0  0  0  0  0  0  0  0  0  0  0  0
   23.2765  -29.5505  -14.9366 C   0  0  0  0  0  0  0  0  0  0  0  0
   23.1505  -29.0308  -16.2654 N   0  0  0  0  0  0  0  0  0  0  0  0
   23.6600  -29.6863  -17.2464 N   0  0  0  0  0  0  0  0  0  0  0  0
   22.4810  -27.8136  -16.5360 C   0  0  0  0  0  0  0  0  0  0  0  0
   21.8646  -27.0084  -15.5158 C   0  0  0  0  0  0  0  0  0  0  0  0
   22.0663  -25.5223  -15.7713 C   0  0  0  0  0  0  0  0  0  0  0  0
   23.5435  -25.2181  -15.6472 C   0  0  2  0  0  0  0  0  0  0  0  0
   23.8501  -23.7800  -15.9804 N   0  0  0  0  0  0  0  0  0  0  0  0
   25.3053  -23.5900  -15.8988 C   0  0  0  0  0  0  0  0  0  0  0  0
   23.1443  -22.8329  -15.1024 O   0  0  0  0  0  0  0  0  0  0  0  0
   23.4886  -22.6664  -13.9081 N   0  0  0  0  0  0  0  0  0  0  0  0
   23.5059  -29.3648  -18.2091 C   0  0  1  0  0  0  0  0  0  0  0  0
   22.0481  -22.0785  -15.5911 C   0  0  0  0  0  0  0  0  0  0  0  0
   21.3140  -21.1298  -14.8009 S   0  0  0  0  0  0  0  0  0  0  0  0
   21.6926  -19.7310  -15.3066 C   0  0  0  0  0  0  0  0  0  0  0  0
   20.7203  -18.5719  -14.2684 O   0  0  0  0  0  0  0  0  0  0  0  0
   19.8738  -21.3457  -14.7675 O   0  0  0  0  0  0  0  0  0  0  0  0
  2  1  1  0
  2  3  2  0
  4  2  1  0
  5  4  1  0
  6  5  1  0
  7  6  1  0
  8  7  1  0
  8  9  1  6
 10  8  1  0
 10 11  2  0
 13 12  1  0
 14 13  2  0
 15 13  1  0
 16 15  1  0
 17 16  1  0
 17 18  1  0
 19 18  1  6
 19 20  1  0
 19 21  1  0
 20 10  1  0
 21 23  1  0
 22 21  2  0
 23 24  1  0
 24 27  1  0
 25 26  1  0
 24 25  1  1
 27 28  2  0
 27 29  1  0
M  END
$$$$
