RRC.pdb
     RDKit          3D

 29 28  0  0  1  0  0  0  0  0999 V2000
   19.1173  -24.8241   -8.3639 N   0  0  0  0  0  0  0  0  0  0  0  0
   17.7307  -25.0964   -8.3876 C   0  0  0  0  0  0  0  0  0  0  0  0
   17.1942  -26.0316   -7.6454 N   0  0  0  0  0  0  0  0  0  0  0  0
   16.8086  -24.3948   -9.2025 N   0  0  0  0  0  0  0  0  0  0  0  0
   17.1979  -23.3451  -10.0609 C   0  0  0  0  0  0  0  0  0  0  0  0
   18.3262  -22.4901   -9.5860 C   0  0  0  0  0  0  0  0  0  0  0  0
   18.5537  -21.3823  -10.5913 C   0  0  0  0  0  0  0  0  0  0  0  0
   18.7326  -21.8696  -11.9842 C   0  0  2  0  0  0  0  0  0  0  0  0
   19.6253  -22.9908  -12.0094 N   0  0  0  0  0  0  0  0  0  0  0  0
   19.3939  -20.7593  -12.7540 C   0  0  0  0  0  0  0  0  0  0  0  0
   18.9148  -19.5840  -12.7563 O   0  0  0  0  0  0  0  0  0  0  0  0
   16.1746  -26.1848   -7.7476 N   0  0  0  0  0  0  0  0  0  0  0  0
   25.9520  -22.2001  -11.5173 C   0  0  0  0  0  0  0  0  0  0  0  0
   25.4043  -22.7434  -12.7242 N   0  0  0  0  0  0  0  0  0  0  0  0
   25.2664  -24.0164  -12.8332 N   0  0  0  0  0  0  0  0  0  0  0  0
   25.0085  -21.9216  -13.8064 C   0  0  0  0  0  0  0  0  0  0  0  0
   24.9090  -20.4896  -13.7145 C   0  0  0  0  0  0  0  0  0  0  0  0
   23.4936  -20.0427  -13.3806 C   0  0  0  0  0  0  0  0  0  0  0  0
   22.6190  -20.3032  -14.5878 C   0  0  2  0  0  0  0  0  0  0  0  0
   21.1825  -19.9232  -14.3325 N   0  0  0  0  0  0  0  0  0  0  0  0
   20.5700  -20.9723  -13.5051 C   0  0  0  0  0  0  0  0  0  0  0  0
   20.4214  -19.7202  -15.5758 O   0  0  0  0  0  0  0  0  0  0  0  0
   20.1071  -20.6830  -16.3153 N   0  0  0  0  0  0  0  0  0  0  0  0
   24.9814  -24.4232  -13.7317 C   0  0  2  0  0  0  0  0  0  0  0  0
   20.0214  -18.4188  -15.9703 C   0  0  0  0  0  0  0  0  0  0  0  0
   19.2690  -18.1397  -17.1618 S   0  0  0  0  0  0  0  0  0  0  0  0
   18.6275  -16.7575  -16.9781 C   0  0  0  0  0  0  0  0  0  0  0  0
   19.4980  -16.0175  -15.5423 O   0  0  0  0  0  0  0  0  0  0  0  0
   20.0248  -18.2492  -18.4021 O   0  0  0  0  0  0  0  0  0  0  0  0
  2  1  1  0
  2  3  2  0
  4  2  1  0
  5  4  1  0
  6  5  1  0
  7  6  1  0
  8  7  1  0
  8  9  1  1
 10  8  1  0
 10 11  2  0
 13 12  1  0
 14 13  2  0
 15 13  1  0
 16 15  1  0
 17 16  1  0
 17 18  1  0
 19 18  1  1
 19 20  1  0
 19 21  1  0
 20 10  1  0
 21 23  1  0
 22 21  2  0
 23 24  1  0
 24 27  1  0
 25 26  1  0
 24 25  1  6
 27 28  2  0
 27 29  1  0
M  END
$$$$
