RRC.pdb
     RDKit          3D

 29 28  0  0  1  0  0  0  0  0999 V2000
   30.6431  -17.1100  -19.6458 N   0  0  0  0  0  0  0  0  0  0  0  0
   29.3255  -17.4722  -19.2850 C   0  0  0  0  0  0  0  0  0  0  0  0
   29.0756  -18.4905  -18.5013 N   0  0  0  0  0  0  0  0  0  0  0  0
   28.1730  -16.7792  -19.7299 N   0  0  0  0  0  0  0  0  0  0  0  0
   27.0307  -16.6051  -18.9205 C   0  0  0  0  0  0  0  0  0  0  0  0
   26.1742  -17.8120  -18.7218 C   0  0  0  0  0  0  0  0  0  0  0  0
   24.9062  -17.3966  -18.0082 C   0  0  0  0  0  0  0  0  0  0  0  0
   24.0058  -18.5338  -17.6833 C   0  0  2  0  0  0  0  0  0  0  0  0
   22.7038  -18.3141  -18.2413 N   0  0  0  0  0  0  0  0  0  0  0  0
   23.8491  -18.5535  -16.1874 C   0  0  0  0  0  0  0  0  0  0  0  0
   23.1320  -17.6938  -15.5894 O   0  0  0  0  0  0  0  0  0  0  0  0
   28.0793  -18.7130  -18.3242 N   0  0  0  0  0  0  0  0  0  0  0  0
   19.2603  -20.5672  -14.3878 C   0  0  0  0  0  0  0  0  0  0  0  0
   19.8519  -21.7144  -13.7668 N   0  0  0  0  0  0  0  0  0  0  0  0
   19.5873  -22.8842  -14.2285 N   0  0  0  0  0  0  0  0  0  0  0  0
   20.7219  -21.6028  -12.6560 C   0  0  0  0  0  0  0  0  0  0  0  0
   21.0553  -20.3474  -12.0380 C   0  0  0  0  0  0  0  0  0  0  0  0
   22.5315  -20.0151  -12.1962 C   0  0  0  0  0  0  0  0  0  0  0  0
   22.8219  -19.8459  -13.6717 C   0  0  1  0  0  0  0  0  0  0  0  0
   24.2876  -19.6058  -13.9311 N   0  0  0  0  0  0  0  0  0  0  0  0
   24.4890  -19.5226  -15.3847 C   0  0  0  0  0  0  0  0  0  0  0  0
   25.1449  -20.6448  -13.3383 O   0  0  0  0  0  0  0  0  0  0  0  0
   24.9784  -21.8595  -13.6017 N   0  0  0  0  0  0  0  0  0  0  0  0
   19.9402  -23.7162  -13.7415 C   0  0  2  0  0  0  0  0  0  0  0  0
   26.1897  -20.2935  -12.4470 C   0  0  0  0  0  0  0  0  0  0  0  0
   26.9902  -21.2509  -11.7355 S   0  0  0  0  0  0  0  0  0  0  0  0
   28.2643  -20.5259  -11.2806 C   0  0  0  0  0  0  0  0  0  0  0  0
   28.8815  -19.6659  -12.7793 O   0  0  0  0  0  0  0  0  0  0  0  0
   26.3064  -21.9275  -10.6417 O   0  0  0  0  0  0  0  0  0  0  0  0
  2  1  1  0
  2  3  2  0
  4  2  1  0
  5  4  1  0
  6  5  1  0
  7  6  1  0
  8  7  1  0
  8  9  1  6
 10  8  1  0
 10 11  2  0
 13 12  1  0
 14 13  2  0
 15 13  1  0
 16 15  1  0
 17 16  1  0
 17 18  1  0
 19 18  1  1
 19 20  1  0
 19 21  1  0
 20 10  1  0
 21 23  1  0
 22 21  2  0
 23 24  1  0
 24 27  1  0
 25 26  1  0
 24 25  1  1
 27 28  2  0
 27 29  1  0
M  END
$$$$
