RRC.pdb
     RDKit          3D

 29 28  0  0  1  0  0  0  0  0999 V2000
   22.7185  -30.3072  -17.3051 N   0  0  0  0  0  0  0  0  0  0  0  0
   22.4714  -30.4190  -15.9181 C   0  0  0  0  0  0  0  0  0  0  0  0
   22.4540  -31.5767  -15.3074 N   0  0  0  0  0  0  0  0  0  0  0  0
   22.2240  -29.3083  -15.0745 N   0  0  0  0  0  0  0  0  0  0  0  0
   22.4651  -27.9782  -15.4784 C   0  0  0  0  0  0  0  0  0  0  0  0
   23.8440  -27.6778  -15.9663 C   0  0  0  0  0  0  0  0  0  0  0  0
   23.9395  -26.1995  -16.2748 C   0  0  0  0  0  0  0  0  0  0  0  0
   25.2746  -25.7811  -16.7771 C   0  0  2  0  0  0  0  0  0  0  0  0
   26.2499  -26.7958  -16.5055 N   0  0  0  0  0  0  0  0  0  0  0  0
   25.6739  -24.5613  -15.9926 C   0  0  0  0  0  0  0  0  0  0  0  0
   26.5581  -24.6235  -15.0842 O   0  0  0  0  0  0  0  0  0  0  0  0
   22.3324  -31.5629  -14.2786 N   0  0  0  0  0  0  0  0  0  0  0  0
   28.0693  -17.5979  -15.8079 C   0  0  0  0  0  0  0  0  0  0  0  0
   26.9104  -16.7651  -15.6854 N   0  0  0  0  0  0  0  0  0  0  0  0
   27.0259  -15.6047  -15.1454 N   0  0  0  0  0  0  0  0  0  0  0  0
   25.6359  -17.1792  -16.1407 C   0  0  0  0  0  0  0  0  0  0  0  0
   25.3891  -18.4677  -16.7307 C   0  0  0  0  0  0  0  0  0  0  0  0
   25.6237  -19.5968  -15.7385 C   0  0  0  0  0  0  0  0  0  0  0  0
   25.3039  -20.9053  -16.4279 C   0  0  1  0  0  0  0  0  0  0  0  0
   25.5019  -22.0857  -15.5111 N   0  0  0  0  0  0  0  0  0  0  0  0
   25.0869  -23.2994  -16.2288 C   0  0  0  0  0  0  0  0  0  0  0  0
   24.7688  -21.9462  -14.2426 O   0  0  0  0  0  0  0  0  0  0  0  0
   23.5152  -21.9369  -14.2088 N   0  0  0  0  0  0  0  0  0  0  0  0
   26.2291  -14.9574  -15.1529 C   0  0  2  0  0  0  0  0  0  0  0  0
   25.4693  -21.8183  -13.0169 C   0  0  0  0  0  0  0  0  0  0  0  0
   24.8400  -21.5015  -11.7650 S   0  0  0  0  0  0  0  0  0  0  0  0
   25.9172  -20.8881  -10.8599 C   0  0  0  0  0  0  0  0  0  0  0  0
   25.0658  -20.5527   -9.2695 O   0  0  0  0  0  0  0  0  0  0  0  0
   23.6517  -20.6659  -11.8718 O   0  0  0  0  0  0  0  0  0  0  0  0
  2  1  1  0
  2  3  2  0
  4  2  1  0
  5  4  1  0
  6  5  1  0
  7  6  1  0
  8  7  1  0
  8  9  1  1
 10  8  1  0
 10 11  2  0
 13 12  1  0
 14 13  2  0
 15 13  1  0
 16 15  1  0
 17 16  1  0
 17 18  1  0
 19 18  1  6
 19 20  1  0
 19 21  1  0
 20 10  1  0
 21 23  1  0
 22 21  2  0
 23 24  1  0
 24 27  1  0
 25 26  1  0
 24 25  1  1
 27 28  2  0
 27 29  1  0
M  END
$$$$
