RRC.pdb
     RDKit          3D

 29 28  0  0  1  0  0  0  0  0999 V2000
   21.2077  -18.3751  -18.4275 N   0  0  0  0  0  0  0  0  0  0  0  0
   21.8825  -17.4190  -17.6349 C   0  0  0  0  0  0  0  0  0  0  0  0
   21.4394  -17.0562  -16.4579 N   0  0  0  0  0  0  0  0  0  0  0  0
   23.0800  -16.7759  -18.0336 N   0  0  0  0  0  0  0  0  0  0  0  0
   23.9764  -17.3458  -18.9620 C   0  0  0  0  0  0  0  0  0  0  0  0
   23.9299  -18.8323  -19.0950 C   0  0  0  0  0  0  0  0  0  0  0  0
   25.3097  -19.3310  -19.4651 C   0  0  0  0  0  0  0  0  0  0  0  0
   26.3652  -18.9376  -18.4951 C   0  0  2  0  0  0  0  0  0  0  0  0
   27.6596  -19.3012  -18.9921 N   0  0  0  0  0  0  0  0  0  0  0  0
   26.1297  -19.7390  -17.2442 C   0  0  0  0  0  0  0  0  0  0  0  0
   26.4353  -20.9694  -17.1836 O   0  0  0  0  0  0  0  0  0  0  0  0
   21.9991  -16.3532  -15.9420 N   0  0  0  0  0  0  0  0  0  0  0  0
   29.5553  -21.4296  -12.3705 C   0  0  0  0  0  0  0  0  0  0  0  0
   28.8409  -21.3893  -11.1297 N   0  0  0  0  0  0  0  0  0  0  0  0
   28.8384  -22.4281  -10.3731 N   0  0  0  0  0  0  0  0  0  0  0  0
   28.1337  -20.2386  -10.7067 C   0  0  0  0  0  0  0  0  0  0  0  0
   27.4640  -19.3460  -11.6144 C   0  0  0  0  0  0  0  0  0  0  0  0
   26.5613  -20.0975  -12.5813 C   0  0  0  0  0  0  0  0  0  0  0  0
   26.3963  -19.2533  -13.8263 C   0  0  2  0  0  0  0  0  0  0  0  0
   25.4506  -19.8886  -14.8139 N   0  0  0  0  0  0  0  0  0  0  0  0
   25.5611  -19.1633  -16.0875 C   0  0  0  0  0  0  0  0  0  0  0  0
   24.0591  -19.9048  -14.3348 O   0  0  0  0  0  0  0  0  0  0  0  0
   23.4259  -18.8423  -14.1277 N   0  0  0  0  0  0  0  0  0  0  0  0
   28.3324  -22.4071   -9.4801 C   0  0  2  0  0  0  0  0  0  0  0  0
   23.3950  -21.1338  -14.0944 C   0  0  0  0  0  0  0  0  0  0  0  0
   22.0484  -21.2332  -13.6040 S   0  0  0  0  0  0  0  0  0  0  0  0
   21.5920  -22.6817  -13.8261 C   0  0  0  0  0  0  0  0  0  0  0  0
   21.8383  -22.9871  -15.6185 O   0  0  0  0  0  0  0  0  0  0  0  0
   21.8638  -20.7892  -12.2290 O   0  0  0  0  0  0  0  0  0  0  0  0
  2  1  1  0
  2  3  2  0
  4  2  1  0
  5  4  1  0
  6  5  1  0
  7  6  1  0
  8  7  1  0
  8  9  1  6
 10  8  1  0
 10 11  2  0
 13 12  1  0
 14 13  2  0
 15 13  1  0
 16 15  1  0
 17 16  1  0
 17 18  1  0
 19 18  1  6
 19 20  1  0
 19 21  1  0
 20 10  1  0
 21 23  1  0
 22 21  2  0
 23 24  1  0
 24 27  1  0
 25 26  1  0
 24 25  1  1
 27 28  2  0
 27 29  1  0
M  END
$$$$
