RRC.pdb
     RDKit          3D

 29 28  0  0  1  0  0  0  0  0999 V2000
   24.3314  -21.7284  -11.3864 N   0  0  0  0  0  0  0  0  0  0  0  0
   24.9301  -21.0663  -10.2907 C   0  0  0  0  0  0  0  0  0  0  0  0
   24.5070  -21.2335   -9.0633 N   0  0  0  0  0  0  0  0  0  0  0  0
   26.0246  -20.1759  -10.4164 N   0  0  0  0  0  0  0  0  0  0  0  0
   26.4616  -19.6795  -11.6626 C   0  0  0  0  0  0  0  0  0  0  0  0
   27.3759  -20.5669  -12.4411 C   0  0  0  0  0  0  0  0  0  0  0  0
   27.2294  -20.2456  -13.9125 C   0  0  0  0  0  0  0  0  0  0  0  0
   26.0183  -20.8422  -14.5347 C   0  0  2  0  0  0  0  0  0  0  0  0
   26.2173  -22.2420  -14.7707 N   0  0  0  0  0  0  0  0  0  0  0  0
   25.8487  -20.1862  -15.8776 C   0  0  0  0  0  0  0  0  0  0  0  0
   26.4423  -20.6316  -16.9073 O   0  0  0  0  0  0  0  0  0  0  0  0
   25.0071  -20.7137   -8.3195 N   0  0  0  0  0  0  0  0  0  0  0  0
   18.4095  -16.2958  -17.0703 C   0  0  0  0  0  0  0  0  0  0  0  0
   18.7559  -17.5180  -16.4084 N   0  0  0  0  0  0  0  0  0  0  0  0
   17.8918  -18.0845  -15.6443 N   0  0  0  0  0  0  0  0  0  0  0  0
   20.0242  -18.1256  -16.5679 C   0  0  0  0  0  0  0  0  0  0  0  0
   21.0365  -17.6179  -17.4548 C   0  0  0  0  0  0  0  0  0  0  0  0
   22.2607  -18.5204  -17.4892 C   0  0  0  0  0  0  0  0  0  0  0  0
   23.4879  -17.6595  -17.2824 C   0  0  2  0  0  0  0  0  0  0  0  0
   24.7597  -18.4641  -17.3737 N   0  0  0  0  0  0  0  0  0  0  0  0
   25.0271  -19.0518  -16.0533 C   0  0  0  0  0  0  0  0  0  0  0  0
   25.9043  -17.6627  -17.8362 O   0  0  0  0  0  0  0  0  0  0  0  0
   26.3705  -16.7270  -17.1437 N   0  0  0  0  0  0  0  0  0  0  0  0
   18.1139  -18.9844  -15.2031 C   0  0  1  0  0  0  0  0  0  0  0  0
   26.5131  -17.9328  -19.0876 C   0  0  0  0  0  0  0  0  0  0  0  0
   27.6790  -17.2492  -19.5743 S   0  0  0  0  0  0  0  0  0  0  0  0
   28.4841  -18.2610  -20.4012 C   0  0  0  0  0  0  0  0  0  0  0  0
   29.2058  -19.4133  -19.1691 O   0  0  0  0  0  0  0  0  0  0  0  0
   27.4065  -16.0172  -20.3021 O   0  0  0  0  0  0  0  0  0  0  0  0
  2  1  1  0
  2  3  2  0
  4  2  1  0
  5  4  1  0
  6  5  1  0
  7  6  1  0
  8  7  1  0
  8  9  1  6
 10  8  1  0
 10 11  2  0
 13 12  1  0
 14 13  2  0
 15 13  1  0
 16 15  1  0
 17 16  1  0
 17 18  1  0
 19 18  1  6
 19 20  1  0
 19 21  1  0
 20 10  1  0
 21 23  1  0
 22 21  2  0
 23 24  1  0
 24 27  1  0
 25 26  1  0
 24 25  1  6
 27 28  2  0
 27 29  1  0
M  END
$$$$
