RRC.pdb
     RDKit          3D

 29 28  0  0  1  0  0  0  0  0999 V2000
   26.4072  -20.8061   -8.1804 N   0  0  0  0  0  0  0  0  0  0  0  0
   25.1832  -21.0629   -8.8386 C   0  0  0  0  0  0  0  0  0  0  0  0
   24.0285  -20.9099   -8.2412 N   0  0  0  0  0  0  0  0  0  0  0  0
   25.0935  -21.5021  -10.1824 N   0  0  0  0  0  0  0  0  0  0  0  0
   26.2311  -21.7383  -10.9826 C   0  0  0  0  0  0  0  0  0  0  0  0
   26.6887  -20.5971  -11.8299 C   0  0  0  0  0  0  0  0  0  0  0  0
   25.5162  -20.0949  -12.6440 C   0  0  0  0  0  0  0  0  0  0  0  0
   25.0785  -21.0407  -13.7040 C   0  0  2  0  0  0  0  0  0  0  0  0
   26.0744  -22.0502  -13.9136 N   0  0  0  0  0  0  0  0  0  0  0  0
   24.9741  -20.2498  -14.9793 C   0  0  0  0  0  0  0  0  0  0  0  0
   25.9637  -20.1357  -15.7657 O   0  0  0  0  0  0  0  0  0  0  0  0
   23.1836  -21.1804   -8.7765 N   0  0  0  0  0  0  0  0  0  0  0  0
   17.8720  -21.1904  -16.4376 C   0  0  0  0  0  0  0  0  0  0  0  0
   18.3465  -19.8961  -16.0484 N   0  0  0  0  0  0  0  0  0  0  0  0
   17.5176  -19.0456  -15.5575 N   0  0  0  0  0  0  0  0  0  0  0  0
   19.7039  -19.5202  -16.1874 C   0  0  0  0  0  0  0  0  0  0  0  0
   20.6213  -20.1890  -17.0706 C   0  0  0  0  0  0  0  0  0  0  0  0
   21.5365  -19.2050  -17.7839 C   0  0  0  0  0  0  0  0  0  0  0  0
   22.2340  -18.3644  -16.7366 C   0  0  2  0  0  0  0  0  0  0  0  0
   23.6764  -18.7673  -16.5630 N   0  0  0  0  0  0  0  0  0  0  0  0
   23.7782  -19.6019  -15.3574 C   0  0  0  0  0  0  0  0  0  0  0  0
   24.5813  -17.6095  -16.4811 O   0  0  0  0  0  0  0  0  0  0  0  0
   24.8912  -17.0976  -15.3790 N   0  0  0  0  0  0  0  0  0  0  0  0
   17.8353  -18.0956  -15.3327 C   0  0  2  0  0  0  0  0  0  0  0  0
   25.1299  -17.0403  -17.6578 C   0  0  0  0  0  0  0  0  0  0  0  0
   26.1825  -16.0628  -17.6582 S   0  0  0  0  0  0  0  0  0  0  0  0
   27.3342  -16.6381  -16.8226 C   0  0  0  0  0  0  0  0  0  0  0  0
   28.7173  -15.4524  -17.0412 O   0  0  0  0  0  0  0  0  0  0  0  0
   26.6100  -15.6247  -18.9800 O   0  0  0  0  0  0  0  0  0  0  0  0
  2  1  1  0
  2  3  2  0
  4  2  1  0
  5  4  1  0
  6  5  1  0
  7  6  1  0
  8  7  1  0
  8  9  1  6
 10  8  1  0
 10 11  2  0
 13 12  1  0
 14 13  2  0
 15 13  1  0
 16 15  1  0
 17 16  1  0
 17 18  1  0
 19 18  1  6
 19 20  1  0
 19 21  1  0
 20 10  1  0
 21 23  1  0
 22 21  2  0
 23 24  1  0
 24 27  1  0
 25 26  1  0
 24 25  1  1
 27 28  2  0
 27 29  1  0
M  END
$$$$
