RRC.pdb
     RDKit          3D

 29 28  0  0  1  0  0  0  0  0999 V2000
   13.6975  -20.8152  -15.6264 N   0  0  0  0  0  0  0  0  0  0  0  0
   13.9308  -19.7813  -16.5613 C   0  0  0  0  0  0  0  0  0  0  0  0
   13.1896  -18.7033  -16.6032 N   0  0  0  0  0  0  0  0  0  0  0  0
   14.9703  -19.8149  -17.5230 N   0  0  0  0  0  0  0  0  0  0  0  0
   15.9531  -20.8268  -17.5453 C   0  0  0  0  0  0  0  0  0  0  0  0
   16.7797  -20.9693  -16.3099 C   0  0  0  0  0  0  0  0  0  0  0  0
   18.2395  -21.0207  -16.7046 C   0  0  0  0  0  0  0  0  0  0  0  0
   19.1618  -21.2018  -15.5529 C   0  0  2  0  0  0  0  0  0  0  0  0
   19.0422  -20.1026  -14.6407 N   0  0  0  0  0  0  0  0  0  0  0  0
   20.5609  -21.1697  -16.1043 C   0  0  0  0  0  0  0  0  0  0  0  0
   20.8094  -20.6589  -17.2394 O   0  0  0  0  0  0  0  0  0  0  0  0
   13.4363  -17.9914  -17.3144 N   0  0  0  0  0  0  0  0  0  0  0  0
   28.5581  -20.5559  -15.7605 C   0  0  0  0  0  0  0  0  0  0  0  0
   28.0525  -19.2198  -15.8647 N   0  0  0  0  0  0  0  0  0  0  0  0
   28.7089  -18.3522  -16.5488 N   0  0  0  0  0  0  0  0  0  0  0  0
   26.8488  -18.8206  -15.2363 C   0  0  0  0  0  0  0  0  0  0  0  0
   26.0103  -19.7222  -14.4926 C   0  0  0  0  0  0  0  0  0  0  0  0
   25.2946  -20.7082  -15.4037 C   0  0  0  0  0  0  0  0  0  0  0  0
   23.8340  -20.7409  -15.0094 C   0  0  1  0  0  0  0  0  0  0  0  0
   23.0329  -21.6570  -15.8993 N   0  0  0  0  0  0  0  0  0  0  0  0
   21.6551  -21.7032  -15.3895 C   0  0  0  0  0  0  0  0  0  0  0  0
   23.6092  -23.0086  -15.9853 O   0  0  0  0  0  0  0  0  0  0  0  0
   23.3465  -23.8877  -15.1305 N   0  0  0  0  0  0  0  0  0  0  0  0
   28.3488  -17.3950  -16.6378 C   0  0  2  0  0  0  0  0  0  0  0  0
   24.4832  -23.3520  -17.0472 C   0  0  0  0  0  0  0  0  0  0  0  0
   25.0938  -24.6438  -17.1951 S   0  0  0  0  0  0  0  0  0  0  0  0
   25.7183  -25.0065  -15.8407 C   0  0  0  0  0  0  0  0  0  0  0  0
   26.6621  -26.5490  -16.1514 O   0  0  0  0  0  0  0  0  0  0  0  0
   24.2097  -25.6837  -17.7039 O   0  0  0  0  0  0  0  0  0  0  0  0
  2  1  1  0
  2  3  2  0
  4  2  1  0
  5  4  1  0
  6  5  1  0
  7  6  1  0
  8  7  1  0
  8  9  1  1
 10  8  1  0
 10 11  2  0
 13 12  1  0
 14 13  2  0
 15 13  1  0
 16 15  1  0
 17 16  1  0
 17 18  1  0
 19 18  1  6
 19 20  1  0
 19 21  1  0
 20 10  1  0
 21 23  1  0
 22 21  2  0
 23 24  1  0
 24 27  1  0
 25 26  1  0
 24 25  1  1
 27 28  2  0
 27 29  1  0
M  END
$$$$
