RRC.pdb
     RDKit          3D

 29 28  0  0  1  0  0  0  0  0999 V2000
   17.9273  -27.6371    0.2926 N   0  0  0  0  0  0  0  0  0  0  0  0
   16.5154  -27.6502    0.3536 C   0  0  0  0  0  0  0  0  0  0  0  0
   15.8698  -27.6393    1.4923 N   0  0  0  0  0  0  0  0  0  0  0  0
   15.6820  -27.6760   -0.7916 N   0  0  0  0  0  0  0  0  0  0  0  0
   16.1955  -27.7299   -2.1045 C   0  0  0  0  0  0  0  0  0  0  0  0
   16.0846  -26.4756   -2.9070 C   0  0  0  0  0  0  0  0  0  0  0  0
   16.5951  -26.7461   -4.3055 C   0  0  0  0  0  0  0  0  0  0  0  0
   17.9067  -26.1089   -4.5943 C   0  0  2  0  0  0  0  0  0  0  0  0
   18.3210  -25.2971   -3.4879 N   0  0  0  0  0  0  0  0  0  0  0  0
   17.6969  -25.1883   -5.7652 C   0  0  0  0  0  0  0  0  0  0  0  0
   16.9576  -24.1609   -5.6703 O   0  0  0  0  0  0  0  0  0  0  0  0
   14.8348  -27.6488    1.4452 N   0  0  0  0  0  0  0  0  0  0  0  0
   21.5148  -26.4143  -13.3637 C   0  0  0  0  0  0  0  0  0  0  0  0
   20.0840  -26.3478  -13.3733 N   0  0  0  0  0  0  0  0  0  0  0  0
   19.4380  -26.8755  -14.3510 N   0  0  0  0  0  0  0  0  0  0  0  0
   19.3539  -25.7172  -12.3377 C   0  0  0  0  0  0  0  0  0  0  0  0
   19.8756  -24.6298  -11.5538 C   0  0  0  0  0  0  0  0  0  0  0  0
   18.8687  -24.1444  -10.5218 C   0  0  0  0  0  0  0  0  0  0  0  0
   18.9944  -25.0175   -9.2923 C   0  0  2  0  0  0  0  0  0  0  0  0
   18.0809  -24.5602   -8.1835 N   0  0  0  0  0  0  0  0  0  0  0  0
   18.3082  -25.4233   -7.0157 C   0  0  0  0  0  0  0  0  0  0  0  0
   16.6631  -24.5694   -8.5784 O   0  0  0  0  0  0  0  0  0  0  0  0
   16.0046  -25.6355   -8.6284 N   0  0  0  0  0  0  0  0  0  0  0  0
   18.4118  -26.8990  -14.3303 C   0  0  2  0  0  0  0  0  0  0  0  0
   16.0018  -23.3615   -8.9143 C   0  0  0  0  0  0  0  0  0  0  0  0
   14.6365  -23.2927   -9.3557 S   0  0  0  0  0  0  0  0  0  0  0  0
   13.8866  -22.3890   -8.3674 C   0  0  0  0  0  0  0  0  0  0  0  0
   13.8279  -23.3442   -6.8018 O   0  0  0  0  0  0  0  0  0  0  0  0
   14.4617  -22.8786  -10.7413 O   0  0  0  0  0  0  0  0  0  0  0  0
  2  1  1  0
  2  3  2  0
  4  2  1  0
  5  4  1  0
  6  5  1  0
  7  6  1  0
  8  7  1  0
  8  9  1  1
 10  8  1  0
 10 11  2  0
 13 12  1  0
 14 13  2  0
 15 13  1  0
 16 15  1  0
 17 16  1  0
 17 18  1  0
 19 18  1  1
 19 20  1  0
 19 21  1  0
 20 10  1  0
 21 23  1  0
 22 21  2  0
 23 24  1  0
 24 27  1  0
 25 26  1  0
 24 25  1  6
 27 28  2  0
 27 29  1  0
M  END
$$$$
