PNH.pdb
     RDKit          3D

 26 27  0  0  1  0  0  0  0  0999 V2000
    9.3146  -14.8150   19.7357 N   0  0  0  0  0  0  0  0  0  0  0  0
    8.9350  -14.7626   18.3637 C   0  0  0  0  0  0  0  0  0  0  0  0
    8.4245  -13.3178   18.2469 C   0  0  0  0  0  0  0  0  0  0  0  0
    7.5812  -13.2197   19.4944 C   0  0  0  0  0  0  0  0  0  0  0  0
    8.4571  -13.9886   20.4976 C   0  0  1  0  0  0  0  0  0  0  0  0
    7.6351  -14.6423   21.5169 C   0  0  0  0  0  0  0  0  0  0  0  0
    6.7422  -13.9163   22.0707 O   0  0  0  0  0  0  0  0  0  0  0  0
    6.0692  -19.8133   24.3161 N   0  0  0  0  0  0  0  0  0  0  0  0
    5.7380  -18.6639   23.5280 C   0  0  0  0  0  0  0  0  0  0  0  0
    4.5836  -18.1518   23.6636 O   0  0  0  0  0  0  0  0  0  0  0  0
    6.6581  -18.0350   22.5690 C   0  0  0  0  0  0  0  0  0  0  0  0
    6.8993  -16.5671   22.8718 C   0  0  2  0  0  0  0  0  0  0  0  0
    7.8043  -15.9987   21.8798 N   0  0  0  0  0  0  0  0  0  0  0  0
    7.4698  -16.4261   24.2426 C   0  0  0  0  0  0  0  0  0  0  0  0
    6.9707  -16.9698   25.2435 O   0  0  0  0  0  0  0  0  0  0  0  0
    8.6451  -15.6276   24.4138 N   0  0  0  0  0  0  0  0  0  0  0  0
    9.3133  -15.4983   25.7078 C   0  0  1  0  0  0  0  0  0  0  0  0
    8.1932  -15.4748   26.7471 C   0  0  0  0  0  0  0  0  0  0  0  0
    7.4345  -14.2025   26.7353 C   0  0  0  0  0  0  0  0  0  0  0  0
    7.5906  -13.0920   25.9416 C   0  0  0  0  0  0  0  0  0  0  0  0
    6.6619  -12.2042   26.3152 N   0  0  0  0  0  0  0  0  0  0  0  0
    5.9136  -12.6861   27.3107 C   0  0  0  0  0  0  0  0  0  0  0  0
    6.3906  -13.9135   27.5654 N   0  0  0  0  0  0  0  0  0  0  0  0
   10.2264  -16.6454   25.9344 C   0  0  0  0  0  0  0  0  0  0  0  0
   10.9494  -16.7366   27.1012 O   0  0  0  0  0  0  0  0  0  0  0  0
   10.3552  -17.5483   25.0722 O   0  0  0  0  0  0  0  0  0  0  0  0
  1  2  1  0
  3  2  1  0
  4  5  1  0
  4  3  1  0
  5  1  1  0
  5  6  1  1
  6  7  2  0
  8  9  1  0
  9 11  1  0
 10  9  2  0
 12 11  1  6
 12 14  1  0
 13  6  1  0
 13 12  1  0
 14 15  2  0
 16 14  1  0
 16 17  1  0
 17 24  1  0
 18 19  1  0
 17 18  1  1
 19 20  2  0
 19 23  1  0
 20 21  1  0
 21 22  1  0
 23 22  2  0
 24 25  1  0
 26 24  2  0
M  END
$$$$
