PNH.pdb
     RDKit          3D

 26 27  0  0  1  0  0  0  0  0999 V2000
    7.6749  -13.2599   21.7828 N   0  0  0  0  0  0  0  0  0  0  0  0
    8.2524  -12.3434   20.8579 C   0  0  0  0  0  0  0  0  0  0  0  0
    7.7362  -12.8983   19.5211 C   0  0  0  0  0  0  0  0  0  0  0  0
    7.9892  -14.3731   19.7164 C   0  0  0  0  0  0  0  0  0  0  0  0
    7.5931  -14.5420   21.1927 C   0  0  1  0  0  0  0  0  0  0  0  0
    8.3639  -15.6151   21.8222 C   0  0  0  0  0  0  0  0  0  0  0  0
    8.2943  -16.7610   21.2626 O   0  0  0  0  0  0  0  0  0  0  0  0
   12.4645  -18.3225   22.6378 N   0  0  0  0  0  0  0  0  0  0  0  0
   12.5615  -16.8993   22.5086 C   0  0  0  0  0  0  0  0  0  0  0  0
   13.7113  -16.3641   22.5781 O   0  0  0  0  0  0  0  0  0  0  0  0
   11.4061  -16.0150   22.2963 C   0  0  0  0  0  0  0  0  0  0  0  0
   10.2552  -16.3267   23.2358 C   0  0  2  0  0  0  0  0  0  0  0  0
    9.1471  -15.4134   22.9822 N   0  0  0  0  0  0  0  0  0  0  0  0
   10.7171  -16.2095   24.6491 C   0  0  0  0  0  0  0  0  0  0  0  0
   11.6771  -16.8561   25.1041 O   0  0  0  0  0  0  0  0  0  0  0  0
   10.0232  -15.3123   25.5218 N   0  0  0  0  0  0  0  0  0  0  0  0
    9.3276  -15.7786   26.7203 C   0  0  1  0  0  0  0  0  0  0  0  0
    7.8495  -15.8427   26.3377 C   0  0  0  0  0  0  0  0  0  0  0  0
    7.2605  -14.5006   26.1215 C   0  0  0  0  0  0  0  0  0  0  0  0
    7.8325  -13.2578   26.2469 C   0  0  0  0  0  0  0  0  0  0  0  0
    6.8919  -12.3562   25.9427 N   0  0  0  0  0  0  0  0  0  0  0  0
    5.7408  -12.9548   25.6270 C   0  0  0  0  0  0  0  0  0  0  0  0
    5.9712  -14.2715   25.7373 N   0  0  0  0  0  0  0  0  0  0  0  0
    9.8320  -17.1144   27.1232 C   0  0  0  0  0  0  0  0  0  0  0  0
    9.7885  -18.1679   26.2397 O   0  0  0  0  0  0  0  0  0  0  0  0
   10.3050  -17.3071   28.2697 O   0  0  0  0  0  0  0  0  0  0  0  0
  1  2  1  0
  3  2  1  0
  4  5  1  0
  4  3  1  0
  5  1  1  0
  5  6  1  1
  6  7  2  0
  8  9  1  0
  9 11  1  0
 10  9  2  0
 12 11  1  6
 12 14  1  0
 13  6  1  0
 13 12  1  0
 14 15  2  0
 16 14  1  0
 16 17  1  0
 17 24  1  0
 18 19  1  0
 17 18  1  6
 19 20  2  0
 19 23  1  0
 20 21  1  0
 21 22  1  0
 23 22  2  0
 24 25  1  0
 26 24  2  0
M  END
$$$$
