PNH.pdb
     RDKit          3D

 26 27  0  0  1  0  0  0  0  0999 V2000
    7.8801  -15.3775   19.8171 N   0  0  0  0  0  0  0  0  0  0  0  0
    6.7808  -14.9458   19.0208 C   0  0  0  0  0  0  0  0  0  0  0  0
    7.3498  -13.6654   18.3897 C   0  0  0  0  0  0  0  0  0  0  0  0
    7.9899  -13.0223   19.5954 C   0  0  0  0  0  0  0  0  0  0  0  0
    8.5907  -14.2528   20.2953 C   0  0  1  0  0  0  0  0  0  0  0  0
    8.6352  -14.0606   21.7455 C   0  0  0  0  0  0  0  0  0  0  0  0
    9.2572  -13.0239   22.1572 O   0  0  0  0  0  0  0  0  0  0  0  0
    6.9225  -12.8192   26.3818 N   0  0  0  0  0  0  0  0  0  0  0  0
    6.3609  -14.0405   25.8871 C   0  0  0  0  0  0  0  0  0  0  0  0
    5.6953  -14.7667   26.6888 O   0  0  0  0  0  0  0  0  0  0  0  0
    6.5056  -14.5063   24.5000 C   0  0  0  0  0  0  0  0  0  0  0  0
    7.9565  -14.5780   24.0593 C   0  0  2  0  0  0  0  0  0  0  0  0
    8.0293  -14.9594   22.6537 N   0  0  0  0  0  0  0  0  0  0  0  0
    8.6891  -15.5622   24.9073 C   0  0  0  0  0  0  0  0  0  0  0  0
    8.1991  -16.0727   25.9300 O   0  0  0  0  0  0  0  0  0  0  0  0
   10.0173  -15.9356   24.5270 N   0  0  0  0  0  0  0  0  0  0  0  0
   10.4500  -17.3316   24.4892 C   0  0  1  0  0  0  0  0  0  0  0  0
    9.6570  -17.9760   23.3528 C   0  0  0  0  0  0  0  0  0  0  0  0
    8.4098  -18.6208   23.8255 C   0  0  0  0  0  0  0  0  0  0  0  0
    7.9035  -18.7310   25.0979 C   0  0  0  0  0  0  0  0  0  0  0  0
    6.7491  -19.4015   25.0084 N   0  0  0  0  0  0  0  0  0  0  0  0
    6.4845  -19.7297   23.7413 C   0  0  0  0  0  0  0  0  0  0  0  0
    7.5061  -19.2481   23.0180 N   0  0  0  0  0  0  0  0  0  0  0  0
   11.9091  -17.4132   24.2338 C   0  0  0  0  0  0  0  0  0  0  0  0
   12.6027  -16.3027   23.8119 O   0  0  0  0  0  0  0  0  0  0  0  0
   12.5340  -18.4894   24.3971 O   0  0  0  0  0  0  0  0  0  0  0  0
  1  2  1  0
  3  2  1  0
  4  5  1  0
  4  3  1  0
  5  1  1  0
  5  6  1  1
  6  7  2  0
  8  9  1  0
  9 11  1  0
 10  9  2  0
 12 11  1  1
 12 14  1  0
 13  6  1  0
 13 12  1  0
 14 15  2  0
 16 14  1  0
 16 17  1  0
 17 24  1  0
 18 19  1  0
 17 18  1  6
 19 20  2  0
 19 23  1  0
 20 21  1  0
 21 22  1  0
 23 22  2  0
 24 25  1  0
 26 24  2  0
M  END
$$$$
