PNH.pdb
     RDKit          3D

 26 27  0  0  1  0  0  0  0  0999 V2000
    9.3704  -14.3536   18.5907 N   0  0  0  0  0  0  0  0  0  0  0  0
    8.6317  -14.0783   17.4043 C   0  0  0  0  0  0  0  0  0  0  0  0
    7.8946  -12.7892   17.8002 C   0  0  0  0  0  0  0  0  0  0  0  0
    7.4141  -13.1574   19.1824 C   0  0  0  0  0  0  0  0  0  0  0  0
    8.6346  -13.9240   19.7188 C   0  0  1  0  0  0  0  0  0  0  0  0
    8.2273  -14.9511   20.6787 C   0  0  0  0  0  0  0  0  0  0  0  0
    7.4380  -14.5716   21.6082 O   0  0  0  0  0  0  0  0  0  0  0  0
    8.6525  -19.4434   18.8601 N   0  0  0  0  0  0  0  0  0  0  0  0
    7.9934  -19.1124   20.0881 C   0  0  0  0  0  0  0  0  0  0  0  0
    6.7319  -19.2462   20.1508 O   0  0  0  0  0  0  0  0  0  0  0  0
    8.6913  -18.6275   21.2879 C   0  0  0  0  0  0  0  0  0  0  0  0
    8.2901  -17.2120   21.6616 C   0  0  2  0  0  0  0  0  0  0  0  0
    8.6708  -16.2914   20.5968 N   0  0  0  0  0  0  0  0  0  0  0  0
    8.9461  -16.8281   22.9449 C   0  0  0  0  0  0  0  0  0  0  0  0
   10.1154  -16.4096   23.0095 O   0  0  0  0  0  0  0  0  0  0  0  0
    8.1956  -16.9478   24.1576 N   0  0  0  0  0  0  0  0  0  0  0  0
    8.7626  -16.5968   25.4587 C   0  0  1  0  0  0  0  0  0  0  0  0
    7.6021  -16.0227   26.2703 C   0  0  0  0  0  0  0  0  0  0  0  0
    7.3023  -14.6160   25.9154 C   0  0  0  0  0  0  0  0  0  0  0  0
    7.9540  -13.7678   25.0533 C   0  0  0  0  0  0  0  0  0  0  0  0
    7.2994  -12.6011   25.0749 N   0  0  0  0  0  0  0  0  0  0  0  0
    6.2572  -12.6535   25.9080 C   0  0  0  0  0  0  0  0  0  0  0  0
    6.2619  -13.8924   26.4218 N   0  0  0  0  0  0  0  0  0  0  0  0
    9.3292  -17.7999   26.1165 C   0  0  0  0  0  0  0  0  0  0  0  0
    9.2122  -19.0352   25.5227 O   0  0  0  0  0  0  0  0  0  0  0  0
    9.9222  -17.7138   27.2193 O   0  0  0  0  0  0  0  0  0  0  0  0
  1  2  1  0
  3  2  1  0
  4  5  1  0
  4  3  1  0
  5  1  1  0
  5  6  1  6
  6  7  2  0
  8  9  1  0
  9 11  1  0
 10  9  2  0
 12 11  1  6
 12 14  1  0
 13  6  1  0
 13 12  1  0
 14 15  2  0
 16 14  1  0
 16 17  1  0
 17 24  1  0
 18 19  1  0
 17 18  1  1
 19 20  2  0
 19 23  1  0
 20 21  1  0
 21 22  1  0
 23 22  2  0
 24 25  1  0
 26 24  2  0
M  END
$$$$
