PNH.pdb
     RDKit          3D

 26 27  0  0  1  0  0  0  0  0999 V2000
    7.7867  -15.2025   18.6548 N   0  0  0  0  0  0  0  0  0  0  0  0
    6.6732  -14.4336   18.2101 C   0  0  0  0  0  0  0  0  0  0  0  0
    7.3671  -13.1529   17.7205 C   0  0  0  0  0  0  0  0  0  0  0  0
    8.3285  -12.9061   18.8571 C   0  0  0  0  0  0  0  0  0  0  0  0
    8.7834  -14.3417   19.1687 C   0  0  1  0  0  0  0  0  0  0  0  0
    9.1237  -14.4875   20.5847 C   0  0  0  0  0  0  0  0  0  0  0  0
   10.2708  -14.0495   20.9359 O   0  0  0  0  0  0  0  0  0  0  0  0
    8.2959  -13.6288   25.9019 N   0  0  0  0  0  0  0  0  0  0  0  0
    7.8021  -14.7997   25.2410 C   0  0  0  0  0  0  0  0  0  0  0  0
    7.6576  -15.8616   25.9227 O   0  0  0  0  0  0  0  0  0  0  0  0
    7.4473  -14.8477   23.8149 C   0  0  0  0  0  0  0  0  0  0  0  0
    8.6501  -15.1043   22.9250 C   0  0  2  0  0  0  0  0  0  0  0  0
    8.2455  -15.0753   21.5243 N   0  0  0  0  0  0  0  0  0  0  0  0
    9.2541  -16.4240   23.2682 C   0  0  0  0  0  0  0  0  0  0  0  0
    9.0395  -17.4586   22.6123 O   0  0  0  0  0  0  0  0  0  0  0  0
   10.1198  -16.5035   24.4050 N   0  0  0  0  0  0  0  0  0  0  0  0
   10.8857  -17.7099   24.7141 C   0  0  1  0  0  0  0  0  0  0  0  0
   12.2756  -17.4758   24.1235 C   0  0  0  0  0  0  0  0  0  0  0  0
   12.4321  -18.0846   22.7820 C   0  0  0  0  0  0  0  0  0  0  0  0
   11.5202  -18.7660   22.0128 C   0  0  0  0  0  0  0  0  0  0  0  0
   12.1408  -19.1174   20.8807 N   0  0  0  0  0  0  0  0  0  0  0  0
   13.4082  -18.6968   20.8804 C   0  0  0  0  0  0  0  0  0  0  0  0
   13.5831  -18.0626   22.0491 N   0  0  0  0  0  0  0  0  0  0  0  0
   10.9579  -17.9138   26.1818 C   0  0  0  0  0  0  0  0  0  0  0  0
   11.1846  -19.1688   26.6975 O   0  0  0  0  0  0  0  0  0  0  0  0
   10.8152  -16.9518   26.9752 O   0  0  0  0  0  0  0  0  0  0  0  0
  1  2  1  0
  3  2  1  0
  4  5  1  0
  4  3  1  0
  5  1  1  0
  5  6  1  1
  6  7  2  0
  8  9  1  0
  9 11  1  0
 10  9  2  0
 12 11  1  1
 12 14  1  0
 13  6  1  0
 13 12  1  0
 14 15  2  0
 16 14  1  0
 16 17  1  0
 17 24  1  0
 18 19  1  0
 17 18  1  1
 19 20  2  0
 19 23  1  0
 20 21  1  0
 21 22  1  0
 23 22  2  0
 24 25  1  0
 26 24  2  0
M  END
$$$$
