PNH.pdb
     RDKit          3D

 26 27  0  0  1  0  0  0  0  0999 V2000
    9.4896  -13.9126   19.1273 N   0  0  0  0  0  0  0  0  0  0  0  0
    8.7126  -13.9823   17.9355 C   0  0  0  0  0  0  0  0  0  0  0  0
    7.4417  -13.2296   18.3594 C   0  0  0  0  0  0  0  0  0  0  0  0
    7.1973  -13.8403   19.7175 C   0  0  0  0  0  0  0  0  0  0  0  0
    8.6353  -13.9399   20.2534 C   0  0  1  0  0  0  0  0  0  0  0  0
    8.7758  -15.0736   21.1684 C   0  0  0  0  0  0  0  0  0  0  0  0
    7.8155  -15.2559   21.9904 O   0  0  0  0  0  0  0  0  0  0  0  0
   10.1422  -19.6831   20.2880 N   0  0  0  0  0  0  0  0  0  0  0  0
   11.0315  -18.5890   20.5406 C   0  0  0  0  0  0  0  0  0  0  0  0
   11.7648  -18.1756   19.5894 O   0  0  0  0  0  0  0  0  0  0  0  0
   11.1464  -17.9092   21.8393 C   0  0  0  0  0  0  0  0  0  0  0  0
    9.9580  -17.0114   22.1325 C   0  0  2  0  0  0  0  0  0  0  0  0
    9.9018  -15.9291   21.1568 N   0  0  0  0  0  0  0  0  0  0  0  0
   10.0733  -16.4641   23.5151 C   0  0  0  0  0  0  0  0  0  0  0  0
   10.9090  -15.6003   23.8345 O   0  0  0  0  0  0  0  0  0  0  0  0
    9.1818  -16.9564   24.5206 N   0  0  0  0  0  0  0  0  0  0  0  0
    9.3104  -16.5743   25.9259 C   0  0  1  0  0  0  0  0  0  0  0  0
    7.8835  -16.3343   26.4177 C   0  0  0  0  0  0  0  0  0  0  0  0
    7.3478  -15.0221   25.9867 C   0  0  0  0  0  0  0  0  0  0  0  0
    7.9465  -14.0235   25.2575 C   0  0  0  0  0  0  0  0  0  0  0  0
    7.0526  -13.0363   25.1287 N   0  0  0  0  0  0  0  0  0  0  0  0
    5.9061  -13.3477   25.7385 C   0  0  0  0  0  0  0  0  0  0  0  0
    6.0910  -14.5679   26.2636 N   0  0  0  0  0  0  0  0  0  0  0  0
    9.9647  -17.6589   26.6982 C   0  0  0  0  0  0  0  0  0  0  0  0
   10.3379  -18.8268   26.0744 O   0  0  0  0  0  0  0  0  0  0  0  0
   10.1891  -17.5322   27.9265 O   0  0  0  0  0  0  0  0  0  0  0  0
  1  2  1  0
  3  2  1  0
  4  5  1  0
  4  3  1  0
  5  1  1  0
  5  6  1  6
  6  7  2  0
  8  9  1  0
  9 11  1  0
 10  9  2  0
 12 11  1  6
 12 14  1  0
 13  6  1  0
 13 12  1  0
 14 15  2  0
 16 14  1  0
 16 17  1  0
 17 24  1  0
 18 19  1  0
 17 18  1  1
 19 20  2  0
 19 23  1  0
 20 21  1  0
 21 22  1  0
 23 22  2  0
 24 25  1  0
 26 24  2  0
M  END
$$$$
