PNH.pdb
     RDKit          3D

 26 27  0  0  1  0  0  0  0  0999 V2000
    8.4203  -14.0115   17.5480 N   0  0  0  0  0  0  0  0  0  0  0  0
    7.2220  -13.9307   18.3137 C   0  0  0  0  0  0  0  0  0  0  0  0
    7.4646  -12.6444   19.1189 C   0  0  0  0  0  0  0  0  0  0  0  0
    8.8907  -12.8597   19.5629 C   0  0  0  0  0  0  0  0  0  0  0  0
    9.4979  -13.4832   18.2951 C   0  0  1  0  0  0  0  0  0  0  0  0
   10.5871  -14.4007   18.6328 C   0  0  0  0  0  0  0  0  0  0  0  0
   10.2750  -15.3999   19.3644 O   0  0  0  0  0  0  0  0  0  0  0  0
   13.9647  -17.0798   16.1104 N   0  0  0  0  0  0  0  0  0  0  0  0
   13.8969  -15.6725   16.3688 C   0  0  0  0  0  0  0  0  0  0  0  0
   13.6085  -14.8956   15.4062 O   0  0  0  0  0  0  0  0  0  0  0  0
   14.1390  -15.0687   17.6874 C   0  0  0  0  0  0  0  0  0  0  0  0
   12.9313  -15.1661   18.6019 C   0  0  2  0  0  0  0  0  0  0  0  0
   11.9141  -14.2088   18.1832 N   0  0  0  0  0  0  0  0  0  0  0  0
   13.3475  -14.9052   20.0101 C   0  0  0  0  0  0  0  0  0  0  0  0
   13.6169  -13.7689   20.4376 O   0  0  0  0  0  0  0  0  0  0  0  0
   13.4419  -16.0137   20.9104 N   0  0  0  0  0  0  0  0  0  0  0  0
   13.8471  -15.8479   22.3053 C   0  0  1  0  0  0  0  0  0  0  0  0
   12.9940  -16.8357   23.1003 C   0  0  0  0  0  0  0  0  0  0  0  0
   11.5657  -16.4453   23.1438 C   0  0  0  0  0  0  0  0  0  0  0  0
   10.9912  -15.2461   23.4894 C   0  0  0  0  0  0  0  0  0  0  0  0
    9.6666  -15.3922   23.3697 N   0  0  0  0  0  0  0  0  0  0  0  0
    9.3569  -16.6262   22.9639 C   0  0  0  0  0  0  0  0  0  0  0  0
   10.5256  -17.2695   22.8257 N   0  0  0  0  0  0  0  0  0  0  0  0
   15.2921  -16.1452   22.4622 C   0  0  0  0  0  0  0  0  0  0  0  0
   15.9033  -15.9911   23.6849 O   0  0  0  0  0  0  0  0  0  0  0  0
   15.9792  -16.5408   21.4892 O   0  0  0  0  0  0  0  0  0  0  0  0
  1  2  1  0
  3  2  1  0
  4  5  1  0
  4  3  1  0
  5  1  1  0
  5  6  1  1
  6  7  2  0
  8  9  1  0
  9 11  1  0
 10  9  2  0
 12 11  1  6
 12 14  1  0
 13  6  1  0
 13 12  1  0
 14 15  2  0
 16 14  1  0
 16 17  1  0
 17 24  1  0
 18 19  1  0
 17 18  1  1
 19 20  2  0
 19 23  1  0
 20 21  1  0
 21 22  1  0
 23 22  2  0
 24 25  1  0
 26 24  2  0
M  END
$$$$
