PNH.pdb
     RDKit          3D

 26 27  0  0  1  0  0  0  0  0999 V2000
    8.8162  -14.8987   18.8544 N   0  0  0  0  0  0  0  0  0  0  0  0
    8.0480  -14.6082   17.6906 C   0  0  0  0  0  0  0  0  0  0  0  0
    7.8917  -13.0837   17.8052 C   0  0  0  0  0  0  0  0  0  0  0  0
    7.5346  -12.9502   19.2653 C   0  0  0  0  0  0  0  0  0  0  0  0
    8.4690  -14.0003   19.8892 C   0  0  1  0  0  0  0  0  0  0  0  0
    7.8780  -14.5742   21.0989 C   0  0  0  0  0  0  0  0  0  0  0  0
    7.5688  -13.7469   22.0214 O   0  0  0  0  0  0  0  0  0  0  0  0
    6.1749  -19.7553   24.0444 N   0  0  0  0  0  0  0  0  0  0  0  0
    6.0772  -18.3808   23.6531 C   0  0  0  0  0  0  0  0  0  0  0  0
    5.4981  -17.5692   24.4400 O   0  0  0  0  0  0  0  0  0  0  0  0
    6.6116  -17.8481   22.3912 C   0  0  0  0  0  0  0  0  0  0  0  0
    7.1665  -16.4432   22.5420 C   0  0  2  0  0  0  0  0  0  0  0  0
    7.6535  -15.9617   21.2546 N   0  0  0  0  0  0  0  0  0  0  0  0
    8.2657  -16.4448   23.5501 C   0  0  0  0  0  0  0  0  0  0  0  0
    9.3985  -16.9018   23.3167 O   0  0  0  0  0  0  0  0  0  0  0  0
    8.0044  -15.8961   24.8458 N   0  0  0  0  0  0  0  0  0  0  0  0
    9.0509  -15.7650   25.8582 C   0  0  1  0  0  0  0  0  0  0  0  0
    8.4450  -14.9028   26.9650 C   0  0  0  0  0  0  0  0  0  0  0  0
    9.3654  -14.7217   28.1116 C   0  0  0  0  0  0  0  0  0  0  0  0
   10.2258  -13.6888   28.3950 C   0  0  0  0  0  0  0  0  0  0  0  0
   10.8401  -13.9891   29.5451 N   0  0  0  0  0  0  0  0  0  0  0  0
   10.4192  -15.1645   30.0186 C   0  0  0  0  0  0  0  0  0  0  0  0
    9.5134  -15.6110   29.1361 N   0  0  0  0  0  0  0  0  0  0  0  0
    9.4392  -17.1003   26.3754 C   0  0  0  0  0  0  0  0  0  0  0  0
   10.7167  -17.3215   26.8352 O   0  0  0  0  0  0  0  0  0  0  0  0
    8.6150  -18.0464   26.4037 O   0  0  0  0  0  0  0  0  0  0  0  0
  1  2  1  0
  3  2  1  0
  4  5  1  0
  4  3  1  0
  5  1  1  0
  5  6  1  1
  6  7  2  0
  8  9  1  0
  9 11  1  0
 10  9  2  0
 12 11  1  6
 12 14  1  0
 13  6  1  0
 13 12  1  0
 14 15  2  0
 16 14  1  0
 16 17  1  0
 17 24  1  0
 18 19  1  0
 17 18  1  1
 19 20  2  0
 19 23  1  0
 20 21  1  0
 21 22  1  0
 23 22  2  0
 24 25  1  0
 26 24  2  0
M  END
$$$$
