PNH.pdb
     RDKit          3D

 26 27  0  0  1  0  0  0  0  0999 V2000
    9.7126  -15.2587   14.8074 N   0  0  0  0  0  0  0  0  0  0  0  0
    8.7690  -15.6581   13.8179 C   0  0  0  0  0  0  0  0  0  0  0  0
    7.5592  -14.7842   14.1845 C   0  0  0  0  0  0  0  0  0  0  0  0
    7.5324  -14.9617   15.6828 C   0  0  0  0  0  0  0  0  0  0  0  0
    9.0358  -14.9328   16.0050 C   0  0  1  0  0  0  0  0  0  0  0  0
    9.3348  -15.7494   17.1822 C   0  0  0  0  0  0  0  0  0  0  0  0
    8.5661  -15.5882   18.1892 O   0  0  0  0  0  0  0  0  0  0  0  0
   11.0002  -20.8891   17.8161 N   0  0  0  0  0  0  0  0  0  0  0  0
   11.3177  -19.5742   17.3449 C   0  0  0  0  0  0  0  0  0  0  0  0
   11.2490  -19.3477   16.0970 O   0  0  0  0  0  0  0  0  0  0  0  0
   11.7174  -18.4637   18.2217 C   0  0  0  0  0  0  0  0  0  0  0  0
   10.5999  -17.4580   18.4321 C   0  0  2  0  0  0  0  0  0  0  0  0
   10.4077  -16.6700   17.2203 N   0  0  0  0  0  0  0  0  0  0  0  0
   10.9340  -16.5725   19.5848 C   0  0  0  0  0  0  0  0  0  0  0  0
   11.8440  -15.7256   19.5472 O   0  0  0  0  0  0  0  0  0  0  0  0
   10.1730  -16.7041   20.7896 N   0  0  0  0  0  0  0  0  0  0  0  0
   10.4647  -15.9102   21.9821 C   0  0  1  0  0  0  0  0  0  0  0  0
    9.1650  -15.1791   22.3160 C   0  0  0  0  0  0  0  0  0  0  0  0
    8.8708  -14.0815   21.3655 C   0  0  0  0  0  0  0  0  0  0  0  0
    9.6119  -13.6098   20.3092 C   0  0  0  0  0  0  0  0  0  0  0  0
    8.9199  -12.6069   19.7562 N   0  0  0  0  0  0  0  0  0  0  0  0
    7.7687  -12.4075   20.4028 C   0  0  0  0  0  0  0  0  0  0  0  0
    7.7419  -13.3152   21.3898 N   0  0  0  0  0  0  0  0  0  0  0  0
   10.8824  -16.7918   23.0999 C   0  0  0  0  0  0  0  0  0  0  0  0
   11.4236  -16.2524   24.2438 O   0  0  0  0  0  0  0  0  0  0  0  0
   10.7502  -18.0376   23.0238 O   0  0  0  0  0  0  0  0  0  0  0  0
  1  2  1  0
  3  2  1  0
  4  5  1  0
  4  3  1  0
  5  1  1  0
  5  6  1  1
  6  7  2  0
  8  9  1  0
  9 11  1  0
 10  9  2  0
 12 11  1  6
 12 14  1  0
 13  6  1  0
 13 12  1  0
 14 15  2  0
 16 14  1  0
 16 17  1  0
 17 24  1  0
 18 19  1  0
 17 18  1  1
 19 20  2  0
 19 23  1  0
 20 21  1  0
 21 22  1  0
 23 22  2  0
 24 25  1  0
 26 24  2  0
M  END
$$$$
