PNH.pdb
     RDKit          3D

 26 27  0  0  1  0  0  0  0  0999 V2000
    9.4551  -14.1587   18.7553 N   0  0  0  0  0  0  0  0  0  0  0  0
    8.6778  -14.0414   17.5674 C   0  0  0  0  0  0  0  0  0  0  0  0
    7.7106  -12.9101   17.9502 C   0  0  0  0  0  0  0  0  0  0  0  0
    7.3081  -13.3465   19.3376 C   0  0  0  0  0  0  0  0  0  0  0  0
    8.6513  -13.8628   19.8800 C   0  0  1  0  0  0  0  0  0  0  0  0
    8.4452  -14.9372   20.8523 C   0  0  0  0  0  0  0  0  0  0  0  0
    7.5162  -14.7509   21.7086 O   0  0  0  0  0  0  0  0  0  0  0  0
    7.7953  -18.8381   19.8912 N   0  0  0  0  0  0  0  0  0  0  0  0
    9.1219  -19.0655   20.3813 C   0  0  0  0  0  0  0  0  0  0  0  0
    9.8646  -19.8834   19.7547 O   0  0  0  0  0  0  0  0  0  0  0  0
    9.6811  -18.4045   21.5696 C   0  0  0  0  0  0  0  0  0  0  0  0
    8.9677  -17.1065   21.9025 C   0  0  2  0  0  0  0  0  0  0  0  0
    9.2192  -16.1207   20.8578 N   0  0  0  0  0  0  0  0  0  0  0  0
    9.4395  -16.6008   23.2239 C   0  0  0  0  0  0  0  0  0  0  0  0
   10.5164  -15.9970   23.3732 O   0  0  0  0  0  0  0  0  0  0  0  0
    8.6152  -16.8213   24.3729 N   0  0  0  0  0  0  0  0  0  0  0  0
    8.9976  -16.3516   25.7036 C   0  0  1  0  0  0  0  0  0  0  0  0
    7.7093  -15.8326   26.3410 C   0  0  0  0  0  0  0  0  0  0  0  0
    7.3794  -14.4535   25.9121 C   0  0  0  0  0  0  0  0  0  0  0  0
    8.0745  -13.5962   25.0940 C   0  0  0  0  0  0  0  0  0  0  0  0
    7.3648  -12.4650   25.0110 N   0  0  0  0  0  0  0  0  0  0  0  0
    6.2458  -12.5490   25.7348 C   0  0  0  0  0  0  0  0  0  0  0  0
    6.2580  -13.7716   26.2861 N   0  0  0  0  0  0  0  0  0  0  0  0
    9.5743  -17.4640   26.4979 C   0  0  0  0  0  0  0  0  0  0  0  0
   10.1314  -17.2195   27.7316 O   0  0  0  0  0  0  0  0  0  0  0  0
    9.5645  -18.6412   26.0625 O   0  0  0  0  0  0  0  0  0  0  0  0
  1  2  1  0
  3  2  1  0
  4  5  1  0
  4  3  1  0
  5  1  1  0
  5  6  1  6
  6  7  2  0
  8  9  1  0
  9 11  1  0
 10  9  2  0
 12 11  1  6
 12 14  1  0
 13  6  1  0
 13 12  1  0
 14 15  2  0
 16 14  1  0
 16 17  1  0
 17 24  1  0
 18 19  1  0
 17 18  1  1
 19 20  2  0
 19 23  1  0
 20 21  1  0
 21 22  1  0
 23 22  2  0
 24 25  1  0
 26 24  2  0
M  END
$$$$
