PNH.pdb
     RDKit          3D

 26 27  0  0  1  0  0  0  0  0999 V2000
    8.8945  -14.8823   19.2419 N   0  0  0  0  0  0  0  0  0  0  0  0
    8.0734  -14.7304   18.0879 C   0  0  0  0  0  0  0  0  0  0  0  0
    7.6728  -13.2507   18.1953 C   0  0  0  0  0  0  0  0  0  0  0  0
    7.3189  -13.1645   19.6598 C   0  0  0  0  0  0  0  0  0  0  0  0
    8.4201  -14.0434   20.2761 C   0  0  1  0  0  0  0  0  0  0  0  0
    7.9470  -14.6953   21.4981 C   0  0  0  0  0  0  0  0  0  0  0  0
    7.4862  -13.9238   22.4055 O   0  0  0  0  0  0  0  0  0  0  0  0
    6.0668  -18.0039   25.0301 N   0  0  0  0  0  0  0  0  0  0  0  0
    6.4325  -18.7312   23.8516 C   0  0  0  0  0  0  0  0  0  0  0  0
    6.1267  -19.9621   23.7831 O   0  0  0  0  0  0  0  0  0  0  0  0
    7.1411  -18.1369   22.7086 C   0  0  0  0  0  0  0  0  0  0  0  0
    7.4048  -16.6537   22.8955 C   0  0  2  0  0  0  0  0  0  0  0  0
    7.9886  -16.0970   21.6807 N   0  0  0  0  0  0  0  0  0  0  0  0
    8.3189  -16.4503   24.0564 C   0  0  0  0  0  0  0  0  0  0  0  0
    9.5582  -16.4744   23.9553 O   0  0  0  0  0  0  0  0  0  0  0  0
    7.7433  -16.2176   25.3458 N   0  0  0  0  0  0  0  0  0  0  0  0
    8.5633  -15.9223   26.5196 C   0  0  1  0  0  0  0  0  0  0  0  0
    7.6677  -15.1059   27.4506 C   0  0  0  0  0  0  0  0  0  0  0  0
    7.3147  -13.7837   26.8834 C   0  0  0  0  0  0  0  0  0  0  0  0
    7.7591  -13.1708   25.7370 C   0  0  0  0  0  0  0  0  0  0  0  0
    7.1457  -11.9842   25.6587 N   0  0  0  0  0  0  0  0  0  0  0  0
    6.3271  -11.8003   26.6975 C   0  0  0  0  0  0  0  0  0  0  0  0
    6.4331  -12.9076   27.4470 N   0  0  0  0  0  0  0  0  0  0  0  0
    9.0037  -17.1800   27.1716 C   0  0  0  0  0  0  0  0  0  0  0  0
    9.7852  -17.1383   28.3028 O   0  0  0  0  0  0  0  0  0  0  0  0
    8.6734  -18.2982   26.7069 O   0  0  0  0  0  0  0  0  0  0  0  0
  1  2  1  0
  3  2  1  0
  4  5  1  0
  4  3  1  0
  5  1  1  0
  5  6  1  1
  6  7  2  0
  8  9  1  0
  9 11  1  0
 10  9  2  0
 12 11  1  6
 12 14  1  0
 13  6  1  0
 13 12  1  0
 14 15  2  0
 16 14  1  0
 16 17  1  0
 17 24  1  0
 18 19  1  0
 17 18  1  1
 19 20  2  0
 19 23  1  0
 20 21  1  0
 21 22  1  0
 23 22  2  0
 24 25  1  0
 26 24  2  0
M  END
$$$$
