PNH.pdb
     RDKit          3D

 26 27  0  0  1  0  0  0  0  0999 V2000
    7.8838  -15.2314   19.5641 N   0  0  0  0  0  0  0  0  0  0  0  0
    6.7169  -14.6243   19.0176 C   0  0  0  0  0  0  0  0  0  0  0  0
    7.2866  -13.2996   18.4864 C   0  0  0  0  0  0  0  0  0  0  0  0
    8.1467  -12.8796   19.6530 C   0  0  0  0  0  0  0  0  0  0  0  0
    8.7444  -14.2325   20.0742 C   0  0  1  0  0  0  0  0  0  0  0  0
    9.0174  -14.2595   21.5118 C   0  0  0  0  0  0  0  0  0  0  0  0
    9.8123  -13.3615   21.9508 O   0  0  0  0  0  0  0  0  0  0  0  0
    8.5496  -13.3743   26.6623 N   0  0  0  0  0  0  0  0  0  0  0  0
    7.9579  -14.5190   26.0368 C   0  0  0  0  0  0  0  0  0  0  0  0
    7.6770  -15.5242   26.7606 O   0  0  0  0  0  0  0  0  0  0  0  0
    7.6513  -14.6015   24.6012 C   0  0  0  0  0  0  0  0  0  0  0  0
    8.8024  -15.1723   23.7927 C   0  0  2  0  0  0  0  0  0  0  0  0
    8.4424  -15.2160   22.3803 N   0  0  0  0  0  0  0  0  0  0  0  0
    9.1347  -16.5383   24.2907 C   0  0  0  0  0  0  0  0  0  0  0  0
    8.3490  -17.4989   24.2096 O   0  0  0  0  0  0  0  0  0  0  0  0
   10.4163  -16.7531   24.8902 N   0  0  0  0  0  0  0  0  0  0  0  0
   10.7831  -18.0301   25.5006 C   0  0  1  0  0  0  0  0  0  0  0  0
   12.2678  -18.2203   25.1925 C   0  0  0  0  0  0  0  0  0  0  0  0
   12.5216  -18.4709   23.7547 C   0  0  0  0  0  0  0  0  0  0  0  0
   11.6854  -18.9753   22.7882 C   0  0  0  0  0  0  0  0  0  0  0  0
   12.3782  -19.0108   21.6441 N   0  0  0  0  0  0  0  0  0  0  0  0
   13.6203  -18.5543   21.8235 C   0  0  0  0  0  0  0  0  0  0  0  0
   13.7043  -18.2233   23.1204 N   0  0  0  0  0  0  0  0  0  0  0  0
   10.5435  -17.9906   26.9641 C   0  0  0  0  0  0  0  0  0  0  0  0
   10.7751  -19.1060   27.7353 O   0  0  0  0  0  0  0  0  0  0  0  0
   10.1283  -16.9461   27.5225 O   0  0  0  0  0  0  0  0  0  0  0  0
  1  2  1  0
  3  2  1  0
  4  5  1  0
  4  3  1  0
  5  1  1  0
  5  6  1  1
  6  7  2  0
  8  9  1  0
  9 11  1  0
 10  9  2  0
 12 11  1  1
 12 14  1  0
 13  6  1  0
 13 12  1  0
 14 15  2  0
 16 14  1  0
 16 17  1  0
 17 24  1  0
 18 19  1  0
 17 18  1  1
 19 20  2  0
 19 23  1  0
 20 21  1  0
 21 22  1  0
 23 22  2  0
 24 25  1  0
 26 24  2  0
M  END
$$$$
