KQQ.pdb
     RDKit          3D

 28 27  0  0  1  0  0  0  0  0999 V2000
    8.6152  -16.3874   20.6248 N   0  0  0  0  0  0  0  0  0  0  0  0
    8.7269  -15.1321   21.3817 C   0  0  1  0  0  0  0  0  0  0  0  0
    7.7843  -14.1340   20.8024 C   0  0  0  0  0  0  0  0  0  0  0  0
    7.7575  -14.1765   19.3040 C   0  0  0  0  0  0  0  0  0  0  0  0
    6.8027  -13.1260   18.7303 C   0  0  0  0  0  0  0  0  0  0  0  0
    6.7284  -13.2240   17.2299 C   0  0  0  0  0  0  0  0  0  0  0  0
    5.7586  -12.2895   16.6873 N   0  0  0  0  0  0  0  0  0  0  0  0
    8.4220  -15.3754   22.7986 C   0  0  0  0  0  0  0  0  0  0  0  0
    8.4194  -14.4350   23.6435 O   0  0  0  0  0  0  0  0  0  0  0  0
    5.9025  -20.8025   25.3978 N   0  0  0  0  0  0  0  0  0  0  0  0
    6.3685  -19.9903   26.4976 C   0  0  0  0  0  0  0  0  0  0  0  0
    6.1995  -20.4747   27.6184 O   0  0  0  0  0  0  0  0  0  0  0  0
    6.9766  -18.7150   26.2397 C   0  0  0  0  0  0  0  0  0  0  0  0
    7.1328  -18.2111   24.8659 C   0  0  0  0  0  0  0  0  0  0  0  0
    8.0959  -17.1181   24.6017 C   0  0  2  0  0  0  0  0  0  0  0  0
    8.1245  -16.7109   23.2108 N   0  0  0  0  0  0  0  0  0  0  0  0
    9.4351  -17.2413   25.2221 C   0  0  0  0  0  0  0  0  0  0  0  0
    9.4715  -17.3889   26.4628 O   0  0  0  0  0  0  0  0  0  0  0  0
   14.7048  -15.8477   22.0924 N   0  0  0  0  0  0  0  0  0  0  0  0
   15.1784  -15.9054   23.4355 C   0  0  0  0  0  0  0  0  0  0  0  0
   16.2831  -15.4655   23.7461 O   0  0  0  0  0  0  0  0  0  0  0  0
   14.2892  -16.5149   24.4589 C   0  0  0  0  0  0  0  0  0  0  0  0
   12.9700  -16.9414   23.8802 C   0  0  0  0  0  0  0  0  0  0  0  0
   11.9809  -17.3743   24.9270 C   0  0  2  0  0  0  0  0  0  0  0  0
   10.6313  -17.1964   24.4768 N   0  0  0  0  0  0  0  0  0  0  0  0
   12.2732  -16.8755   26.2700 C   0  0  0  0  0  0  0  0  0  0  0  0
   11.6646  -15.8706   26.7030 O   0  0  0  0  0  0  0  0  0  0  0  0
   13.2143  -17.5025   27.0636 O   0  0  0  0  0  0  0  0  0  0  0  0
  2  1  1  6
  3  2  1  0
  4  5  1  0
  4  3  1  0
  6  7  1  0
  6  5  1  0
  8  9  2  0
  8  2  1  0
 10 11  1  0
 11 12  2  0
 13 14  1  0
 13 11  1  0
 15 14  1  6
 15 16  1  0
 16  8  1  0
 17 15  1  0
 18 17  2  0
 20 19  1  0
 20 22  1  0
 21 20  2  0
 23 22  1  0
 24 23  1  6
 24 25  1  0
 25 17  1  0
 26 28  1  0
 26 24  1  0
 27 26  2  0
M  END
$$$$
