KQQ.pdb
     RDKit          3D

 28 27  0  0  1  0  0  0  0  0999 V2000
    8.6783  -18.0242   18.7235 N   0  0  0  0  0  0  0  0  0  0  0  0
    9.3743  -16.7460   18.9311 C   0  0  1  0  0  0  0  0  0  0  0  0
    8.3751  -15.7093   19.3148 C   0  0  0  0  0  0  0  0  0  0  0  0
    7.9012  -14.9099   18.1383 C   0  0  0  0  0  0  0  0  0  0  0  0
    6.9369  -13.8002   18.5664 C   0  0  0  0  0  0  0  0  0  0  0  0
    6.4154  -13.0461   17.3724 C   0  0  0  0  0  0  0  0  0  0  0  0
    5.4804  -12.0089   17.7704 N   0  0  0  0  0  0  0  0  0  0  0  0
   10.3950  -16.8984   19.9774 C   0  0  0  0  0  0  0  0  0  0  0  0
   10.2863  -17.7748   20.8819 O   0  0  0  0  0  0  0  0  0  0  0  0
   16.3100  -13.9266   19.8952 N   0  0  0  0  0  0  0  0  0  0  0  0
   16.0448  -14.3844   21.2392 C   0  0  0  0  0  0  0  0  0  0  0  0
   16.8380  -13.9894   22.0961 O   0  0  0  0  0  0  0  0  0  0  0  0
   14.9206  -15.2403   21.4963 C   0  0  0  0  0  0  0  0  0  0  0  0
   13.7613  -15.2655   20.5902 C   0  0  0  0  0  0  0  0  0  0  0  0
   12.5733  -16.0689   20.9579 C   0  0  2  0  0  0  0  0  0  0  0  0
   11.5277  -16.0276   19.9547 N   0  0  0  0  0  0  0  0  0  0  0  0
   12.0810  -15.9380   22.3485 C   0  0  0  0  0  0  0  0  0  0  0  0
   11.9926  -14.7797   22.8099 O   0  0  0  0  0  0  0  0  0  0  0  0
    6.6799  -15.7340   24.0039 N   0  0  0  0  0  0  0  0  0  0  0  0
    7.6280  -16.7872   24.1563 C   0  0  0  0  0  0  0  0  0  0  0  0
    7.2767  -17.9326   24.4301 O   0  0  0  0  0  0  0  0  0  0  0  0
    9.0657  -16.4586   23.9698 C   0  0  0  0  0  0  0  0  0  0  0  0
    9.9599  -17.3516   24.7821 C   0  0  0  0  0  0  0  0  0  0  0  0
   11.4222  -17.0946   24.5427 C   0  0  2  0  0  0  0  0  0  0  0  0
   11.7225  -17.0476   23.1415 N   0  0  0  0  0  0  0  0  0  0  0  0
   12.3160  -17.9171   25.3565 C   0  0  0  0  0  0  0  0  0  0  0  0
   13.1067  -18.7109   24.7976 O   0  0  0  0  0  0  0  0  0  0  0  0
   12.2949  -17.8262   26.7349 O   0  0  0  0  0  0  0  0  0  0  0  0
  2  1  1  1
  3  2  1  0
  4  5  1  0
  4  3  1  0
  6  7  1  0
  6  5  1  0
  8  9  2  0
  8  2  1  0
 10 11  1  0
 11 12  2  0
 13 14  1  0
 13 11  1  0
 15 14  1  6
 15 16  1  0
 16  8  1  0
 17 15  1  0
 18 17  2  0
 20 19  1  0
 20 22  1  0
 21 20  2  0
 23 22  1  0
 24 23  1  6
 24 25  1  0
 25 17  1  0
 26 28  1  0
 26 24  1  0
 27 26  2  0
M  END
$$$$
