KQQ.pdb
     RDKit          3D

 28 27  0  0  1  0  0  0  0  0999 V2000
    5.6937  -20.5491   21.8067 N   0  0  0  0  0  0  0  0  0  0  0  0
    5.4737  -19.2583   22.4751 C   0  0  1  0  0  0  0  0  0  0  0  0
    5.3105  -19.4939   23.9374 C   0  0  0  0  0  0  0  0  0  0  0  0
    6.4989  -20.1799   24.5414 C   0  0  0  0  0  0  0  0  0  0  0  0
    6.2434  -20.5618   26.0020 C   0  0  0  0  0  0  0  0  0  0  0  0
    7.4557  -21.2145   26.6108 C   0  0  0  0  0  0  0  0  0  0  0  0
    7.2671  -21.4586   28.0297 N   0  0  0  0  0  0  0  0  0  0  0  0
    6.6094  -18.3625   22.2154 C   0  0  0  0  0  0  0  0  0  0  0  0
    7.8001  -18.7871   22.2265 O   0  0  0  0  0  0  0  0  0  0  0  0
    6.2155  -12.6146   19.1703 N   0  0  0  0  0  0  0  0  0  0  0  0
    7.6096  -12.9207   19.3916 C   0  0  0  0  0  0  0  0  0  0  0  0
    8.4085  -12.2079   18.7808 O   0  0  0  0  0  0  0  0  0  0  0  0
    7.9769  -13.9941   20.2723 C   0  0  0  0  0  0  0  0  0  0  0  0
    6.9609  -14.8995   20.8323 C   0  0  0  0  0  0  0  0  0  0  0  0
    7.3885  -16.0097   21.7135 C   0  0  2  0  0  0  0  0  0  0  0  0
    6.3416  -16.9850   21.9463 N   0  0  0  0  0  0  0  0  0  0  0  0
    8.1534  -15.6440   22.9279 C   0  0  0  0  0  0  0  0  0  0  0  0
    7.5028  -15.1683   23.8834 O   0  0  0  0  0  0  0  0  0  0  0  0
    8.8971  -18.1827   27.3332 N   0  0  0  0  0  0  0  0  0  0  0  0
   10.0747  -17.4372   27.6313 C   0  0  0  0  0  0  0  0  0  0  0  0
   10.6085  -17.4950   28.7368 O   0  0  0  0  0  0  0  0  0  0  0  0
   10.6455  -16.5832   26.5568 C   0  0  0  0  0  0  0  0  0  0  0  0
    9.8151  -16.6183   25.3054 C   0  0  0  0  0  0  0  0  0  0  0  0
   10.3777  -15.7653   24.2020 C   0  0  2  0  0  0  0  0  0  0  0  0
    9.5498  -15.8101   23.0323 N   0  0  0  0  0  0  0  0  0  0  0  0
   11.8101  -15.9495   23.9736 C   0  0  0  0  0  0  0  0  0  0  0  0
   12.2116  -16.3594   22.8608 O   0  0  0  0  0  0  0  0  0  0  0  0
   12.7226  -15.6760   24.9742 O   0  0  0  0  0  0  0  0  0  0  0  0
  2  1  1  6
  3  2  1  0
  4  5  1  0
  4  3  1  0
  6  7  1  0
  6  5  1  0
  8  9  2  0
  8  2  1  0
 10 11  1  0
 11 12  2  0
 13 14  1  0
 13 11  1  0
 15 14  1  1
 15 16  1  0
 16  8  1  0
 17 15  1  0
 18 17  2  0
 20 19  1  0
 20 22  1  0
 21 20  2  0
 23 22  1  0
 24 23  1  1
 24 25  1  0
 25 17  1  0
 26 28  1  0
 26 24  1  0
 27 26  2  0
M  END
$$$$
