KQQ.pdb
     RDKit          3D

 28 27  0  0  1  0  0  0  0  0999 V2000
    8.6080  -17.8626   15.0691 N   0  0  0  0  0  0  0  0  0  0  0  0
    7.9593  -18.0718   16.3716 C   0  0  1  0  0  0  0  0  0  0  0  0
    8.2118  -19.4711   16.8172 C   0  0  0  0  0  0  0  0  0  0  0  0
    9.5685  -19.9635   16.4113 C   0  0  0  0  0  0  0  0  0  0  0  0
    9.7563  -21.4421   16.7622 C   0  0  0  0  0  0  0  0  0  0  0  0
   11.1084  -21.9355   16.3209 C   0  0  0  0  0  0  0  0  0  0  0  0
   11.2825  -23.3438   16.6287 N   0  0  0  0  0  0  0  0  0  0  0  0
    8.4853  -17.1103   17.3507 C   0  0  0  0  0  0  0  0  0  0  0  0
    9.6972  -16.7505   17.3359 O   0  0  0  0  0  0  0  0  0  0  0  0
    7.8624  -12.1289   19.5651 N   0  0  0  0  0  0  0  0  0  0  0  0
    7.8851  -12.7816   20.8534 C   0  0  0  0  0  0  0  0  0  0  0  0
    8.5950  -12.2421   21.7045 O   0  0  0  0  0  0  0  0  0  0  0  0
    7.1141  -13.9744   21.0665 C   0  0  0  0  0  0  0  0  0  0  0  0
    6.8587  -14.9208   19.9688 C   0  0  0  0  0  0  0  0  0  0  0  0
    8.0012  -15.6114   19.3289 C   0  0  2  0  0  0  0  0  0  0  0  0
    7.5921  -16.5818   18.3328 N   0  0  0  0  0  0  0  0  0  0  0  0
    9.0836  -16.0838   20.2226 C   0  0  0  0  0  0  0  0  0  0  0  0
    8.9051  -17.1804   20.7955 O   0  0  0  0  0  0  0  0  0  0  0  0
   14.7823  -13.3018   20.3257 N   0  0  0  0  0  0  0  0  0  0  0  0
   15.0358  -14.4336   21.1541 C   0  0  0  0  0  0  0  0  0  0  0  0
   16.1540  -14.6557   21.6130 O   0  0  0  0  0  0  0  0  0  0  0  0
   13.8988  -15.3435   21.4521 C   0  0  0  0  0  0  0  0  0  0  0  0
   12.6166  -14.8693   20.8293 C   0  0  0  0  0  0  0  0  0  0  0  0
   11.4360  -15.7300   21.1856 C   0  0  2  0  0  0  0  0  0  0  0  0
   10.2706  -15.3540   20.4398 N   0  0  0  0  0  0  0  0  0  0  0  0
   11.2389  -15.9111   22.6230 C   0  0  0  0  0  0  0  0  0  0  0  0
   12.0465  -16.6114   23.2749 O   0  0  0  0  0  0  0  0  0  0  0  0
   10.1702  -15.3174   23.2666 O   0  0  0  0  0  0  0  0  0  0  0  0
  2  1  1  6
  3  2  1  0
  4  5  1  0
  4  3  1  0
  6  7  1  0
  6  5  1  0
  8  9  2  0
  8  2  1  0
 10 11  1  0
 11 12  2  0
 13 14  1  0
 13 11  1  0
 15 14  1  1
 15 16  1  0
 16  8  1  0
 17 15  1  0
 18 17  2  0
 20 19  1  0
 20 22  1  0
 21 20  2  0
 23 22  1  0
 24 23  1  1
 24 25  1  0
 25 17  1  0
 26 28  1  0
 26 24  1  0
 27 26  2  0
M  END
$$$$
