KQQ.pdb
     RDKit          3D

 28 27  0  0  1  0  0  0  0  0999 V2000
    6.8108  -18.6698   21.7349 N   0  0  0  0  0  0  0  0  0  0  0  0
    7.8677  -18.5152   20.7248 C   0  0  1  0  0  0  0  0  0  0  0  0
    7.2555  -18.6009   19.3689 C   0  0  0  0  0  0  0  0  0  0  0  0
    6.1019  -19.5574   19.3228 C   0  0  0  0  0  0  0  0  0  0  0  0
    5.5482  -19.6999   17.9024 C   0  0  0  0  0  0  0  0  0  0  0  0
    4.3953  -20.6673   17.8654 C   0  0  0  0  0  0  0  0  0  0  0  0
    3.8476  -20.7846   16.5258 N   0  0  0  0  0  0  0  0  0  0  0  0
    8.5482  -17.2256   20.9085 C   0  0  0  0  0  0  0  0  0  0  0  0
    9.6221  -16.9540   20.2993 O   0  0  0  0  0  0  0  0  0  0  0  0
    8.9698  -12.4380   19.1764 N   0  0  0  0  0  0  0  0  0  0  0  0
    7.8232  -13.2935   18.9768 C   0  0  0  0  0  0  0  0  0  0  0  0
    7.3924  -13.3356   17.8226 O   0  0  0  0  0  0  0  0  0  0  0  0
    7.2675  -14.0179   20.0854 C   0  0  0  0  0  0  0  0  0  0  0  0
    7.8071  -13.8581   21.4452 C   0  0  0  0  0  0  0  0  0  0  0  0
    8.5608  -14.9743   22.0599 C   0  0  2  0  0  0  0  0  0  0  0  0
    7.9676  -16.2710   21.7993 N   0  0  0  0  0  0  0  0  0  0  0  0
    9.0125  -14.7873   23.4580 C   0  0  0  0  0  0  0  0  0  0  0  0
    8.5663  -13.7912   24.0674 O   0  0  0  0  0  0  0  0  0  0  0  0
    9.6283  -12.8062   27.4916 N   0  0  0  0  0  0  0  0  0  0  0  0
   10.0871  -13.8698   28.3221 C   0  0  0  0  0  0  0  0  0  0  0  0
   10.6404  -13.6516   29.3976 O   0  0  0  0  0  0  0  0  0  0  0  0
    9.8724  -15.2621   27.8479 C   0  0  0  0  0  0  0  0  0  0  0  0
    9.3602  -15.3063   26.4363 C   0  0  0  0  0  0  0  0  0  0  0  0
   10.4358  -15.6078   25.4294 C   0  0  2  0  0  0  0  0  0  0  0  0
    9.9042  -15.6716   24.0994 N   0  0  0  0  0  0  0  0  0  0  0  0
   11.3235  -16.7049   25.8117 C   0  0  0  0  0  0  0  0  0  0  0  0
   11.2308  -17.8083   25.2273 O   0  0  0  0  0  0  0  0  0  0  0  0
   12.2619  -16.5345   26.8113 O   0  0  0  0  0  0  0  0  0  0  0  0
  2  1  1  1
  3  2  1  0
  4  5  1  0
  4  3  1  0
  6  7  1  0
  6  5  1  0
  8  9  2  0
  8  2  1  0
 10 11  1  0
 11 12  2  0
 13 14  1  0
 13 11  1  0
 15 14  1  1
 15 16  1  0
 16  8  1  0
 17 15  1  0
 18 17  2  0
 20 19  1  0
 20 22  1  0
 21 20  2  0
 23 22  1  0
 24 23  1  1
 24 25  1  0
 25 17  1  0
 26 28  1  0
 26 24  1  0
 27 26  2  0
M  END
$$$$
