KQQ.pdb
     RDKit          3D

 28 27  0  0  1  0  0  0  0  0999 V2000
    9.1718  -15.7527   19.1528 N   0  0  0  0  0  0  0  0  0  0  0  0
    8.0257  -15.5228   20.0444 C   0  0  1  0  0  0  0  0  0  0  0  0
    7.0776  -16.6651   19.9156 C   0  0  0  0  0  0  0  0  0  0  0  0
    7.7577  -17.9239   19.4675 C   0  0  0  0  0  0  0  0  0  0  0  0
    7.2488  -19.1424   20.2426 C   0  0  0  0  0  0  0  0  0  0  0  0
    7.8101  -20.4184   19.6743 C   0  0  0  0  0  0  0  0  0  0  0  0
    7.3125  -21.5791   20.3909 N   0  0  0  0  0  0  0  0  0  0  0  0
    8.4925  -15.3869   21.4312 C   0  0  0  0  0  0  0  0  0  0  0  0
    9.5876  -15.8917   21.8108 O   0  0  0  0  0  0  0  0  0  0  0  0
    5.5121  -11.6516   25.9704 N   0  0  0  0  0  0  0  0  0  0  0  0
    6.7598  -12.1192   26.5278 C   0  0  0  0  0  0  0  0  0  0  0  0
    7.0673  -11.6280   27.6157 O   0  0  0  0  0  0  0  0  0  0  0  0
    7.5445  -13.0887   25.8158 C   0  0  0  0  0  0  0  0  0  0  0  0
    7.1916  -13.4945   24.4460 C   0  0  0  0  0  0  0  0  0  0  0  0
    8.0231  -14.5057   23.7545 C   0  0  2  0  0  0  0  0  0  0  0  0
    7.6768  -14.6649   22.3559 N   0  0  0  0  0  0  0  0  0  0  0  0
    8.2552  -15.7828   24.4678 C   0  0  0  0  0  0  0  0  0  0  0  0
    7.6144  -16.7783   24.0669 O   0  0  0  0  0  0  0  0  0  0  0  0
   11.0959  -19.0882   22.7867 N   0  0  0  0  0  0  0  0  0  0  0  0
   12.0934  -19.1532   23.8027 C   0  0  0  0  0  0  0  0  0  0  0  0
   12.8777  -20.0968   23.8728 O   0  0  0  0  0  0  0  0  0  0  0  0
   12.1605  -18.0364   24.7814 C   0  0  0  0  0  0  0  0  0  0  0  0
   11.0588  -17.0362   24.5746 C   0  0  0  0  0  0  0  0  0  0  0  0
   10.1672  -16.8864   25.7763 C   0  0  2  0  0  0  0  0  0  0  0  0
    9.1485  -15.9027   25.5523 N   0  0  0  0  0  0  0  0  0  0  0  0
   10.8853  -16.7794   27.0454 C   0  0  0  0  0  0  0  0  0  0  0  0
   10.8816  -15.6936   27.6689 O   0  0  0  0  0  0  0  0  0  0  0  0
   11.5674  -17.8645   27.5611 O   0  0  0  0  0  0  0  0  0  0  0  0
  2  1  1  6
  3  2  1  0
  4  5  1  0
  4  3  1  0
  6  7  1  0
  6  5  1  0
  8  9  2  0
  8  2  1  0
 10 11  1  0
 11 12  2  0
 13 14  1  0
 13 11  1  0
 15 14  1  1
 15 16  1  0
 16  8  1  0
 17 15  1  0
 18 17  2  0
 20 19  1  0
 20 22  1  0
 21 20  2  0
 23 22  1  0
 24 23  1  6
 24 25  1  0
 25 17  1  0
 26 28  1  0
 26 24  1  0
 27 26  2  0
M  END
$$$$
