KQQ.pdb
     RDKit          3D

 28 27  0  0  1  0  0  0  0  0999 V2000
    9.8947  -15.2816   13.4482 N   0  0  0  0  0  0  0  0  0  0  0  0
    9.4684  -16.0573   14.6221 C   0  0  1  0  0  0  0  0  0  0  0  0
   10.0209  -17.4371   14.5151 C   0  0  0  0  0  0  0  0  0  0  0  0
    9.0279  -18.4075   13.9493 C   0  0  0  0  0  0  0  0  0  0  0  0
    8.5175  -19.3757   15.0201 C   0  0  0  0  0  0  0  0  0  0  0  0
    7.5875  -20.3992   14.4252 C   0  0  0  0  0  0  0  0  0  0  0  0
    7.1565  -21.3631   15.4219 N   0  0  0  0  0  0  0  0  0  0  0  0
    9.9386  -15.4017   15.8504 C   0  0  0  0  0  0  0  0  0  0  0  0
   11.1501  -15.0731   16.0002 O   0  0  0  0  0  0  0  0  0  0  0  0
    5.9815  -13.4942   20.7537 N   0  0  0  0  0  0  0  0  0  0  0  0
    7.3335  -13.4394   21.2591 C   0  0  0  0  0  0  0  0  0  0  0  0
    7.4465  -13.0331   22.4173 O   0  0  0  0  0  0  0  0  0  0  0  0
    8.4287  -13.8420   20.4218 C   0  0  0  0  0  0  0  0  0  0  0  0
    8.2071  -14.2568   19.0273 C   0  0  0  0  0  0  0  0  0  0  0  0
    9.3696  -14.6339   18.1916 C   0  0  2  0  0  0  0  0  0  0  0  0
    8.9905  -15.1381   16.8865 N   0  0  0  0  0  0  0  0  0  0  0  0
   10.4435  -15.4122   18.8507 C   0  0  0  0  0  0  0  0  0  0  0  0
   10.2507  -16.6401   18.9843 O   0  0  0  0  0  0  0  0  0  0  0  0
   16.5875  -14.6689   19.7432 N   0  0  0  0  0  0  0  0  0  0  0  0
   15.8282  -14.2348   18.6178 C   0  0  0  0  0  0  0  0  0  0  0  0
   16.3652  -13.9695   17.5447 O   0  0  0  0  0  0  0  0  0  0  0  0
   14.3554  -14.1144   18.7795 C   0  0  0  0  0  0  0  0  0  0  0  0
   13.9002  -14.5367   20.1475 C   0  0  0  0  0  0  0  0  0  0  0  0
   12.6758  -15.4093   20.1167 C   0  0  2  0  0  0  0  0  0  0  0  0
   11.6377  -14.8258   19.3181 N   0  0  0  0  0  0  0  0  0  0  0  0
   12.2636  -15.9094   21.4273 C   0  0  0  0  0  0  0  0  0  0  0  0
   11.0999  -15.6917   21.8347 O   0  0  0  0  0  0  0  0  0  0  0  0
   13.1464  -16.6185   22.2189 O   0  0  0  0  0  0  0  0  0  0  0  0
  2  1  1  6
  3  2  1  0
  4  5  1  0
  4  3  1  0
  6  7  1  0
  6  5  1  0
  8  9  2  0
  8  2  1  0
 10 11  1  0
 11 12  2  0
 13 14  1  0
 13 11  1  0
 15 14  1  1
 15 16  1  0
 16  8  1  0
 17 15  1  0
 18 17  2  0
 20 19  1  0
 20 22  1  0
 21 20  2  0
 23 22  1  0
 24 23  1  1
 24 25  1  0
 25 17  1  0
 26 28  1  0
 26 24  1  0
 27 26  2  0
M  END
$$$$
