KQQ.pdb
     RDKit          3D

 28 27  0  0  1  0  0  0  0  0999 V2000
    9.3954  -16.7803   12.9393 N   0  0  0  0  0  0  0  0  0  0  0  0
    8.5401  -17.1616   14.0726 C   0  0  1  0  0  0  0  0  0  0  0  0
    8.3514  -18.6396   14.0587 C   0  0  0  0  0  0  0  0  0  0  0  0
    7.1189  -19.0509   13.3106 C   0  0  0  0  0  0  0  0  0  0  0  0
    6.9163  -20.5679   13.3548 C   0  0  0  0  0  0  0  0  0  0  0  0
    5.7141  -20.9772   12.5464 C   0  0  0  0  0  0  0  0  0  0  0  0
    5.4635  -22.4031   12.6579 N   0  0  0  0  0  0  0  0  0  0  0  0
    9.1592  -16.7273   15.3326 C   0  0  0  0  0  0  0  0  0  0  0  0
   10.3927  -16.8949   15.5534 O   0  0  0  0  0  0  0  0  0  0  0  0
    6.4802  -12.5556   19.5950 N   0  0  0  0  0  0  0  0  0  0  0  0
    7.6057  -13.1638   20.2655 C   0  0  0  0  0  0  0  0  0  0  0  0
    7.8905  -12.6782   21.3620 O   0  0  0  0  0  0  0  0  0  0  0  0
    8.3054  -14.2544   19.6460 C   0  0  0  0  0  0  0  0  0  0  0  0
    7.9834  -14.6839   18.2758 C   0  0  0  0  0  0  0  0  0  0  0  0
    8.8213  -15.7172   17.6261 C   0  0  2  0  0  0  0  0  0  0  0  0
    8.3325  -16.1037   16.3173 N   0  0  0  0  0  0  0  0  0  0  0  0
    9.2541  -16.8555   18.4691 C   0  0  0  0  0  0  0  0  0  0  0  0
    8.8188  -17.9855   18.1592 O   0  0  0  0  0  0  0  0  0  0  0  0
   12.4936  -20.8213   18.2369 N   0  0  0  0  0  0  0  0  0  0  0  0
   13.1614  -19.5626   18.2019 C   0  0  0  0  0  0  0  0  0  0  0  0
   14.1937  -19.4013   17.5550 O   0  0  0  0  0  0  0  0  0  0  0  0
   12.5667  -18.4403   18.9741 C   0  0  0  0  0  0  0  0  0  0  0  0
   11.2794  -18.8327   19.6418 C   0  0  0  0  0  0  0  0  0  0  0  0
   10.6631  -17.7134   20.4349 C   0  0  2  0  0  0  0  0  0  0  0  0
   10.1139  -16.7048   19.5765 N   0  0  0  0  0  0  0  0  0  0  0  0
   11.4972  -17.2274   21.5330 C   0  0  0  0  0  0  0  0  0  0  0  0
   11.9537  -18.0394   22.3696 O   0  0  0  0  0  0  0  0  0  0  0  0
   11.7848  -15.8816   21.6552 O   0  0  0  0  0  0  0  0  0  0  0  0
  2  1  1  6
  3  2  1  0
  4  5  1  0
  4  3  1  0
  6  7  1  0
  6  5  1  0
  8  9  2  0
  8  2  1  0
 10 11  1  0
 11 12  2  0
 13 14  1  0
 13 11  1  0
 15 14  1  1
 15 16  1  0
 16  8  1  0
 17 15  1  0
 18 17  2  0
 20 19  1  0
 20 22  1  0
 21 20  2  0
 23 22  1  0
 24 23  1  6
 24 25  1  0
 25 17  1  0
 26 28  1  0
 26 24  1  0
 27 26  2  0
M  END
$$$$
