KQQ.pdb
     RDKit          3D

 28 27  0  0  1  0  0  0  0  0999 V2000
    6.7228  -17.2218   21.1033 N   0  0  0  0  0  0  0  0  0  0  0  0
    7.7997  -16.2466   21.3281 C   0  0  1  0  0  0  0  0  0  0  0  0
    7.1946  -14.9047   21.5599 C   0  0  0  0  0  0  0  0  0  0  0  0
    6.8861  -14.1886   20.2794 C   0  0  0  0  0  0  0  0  0  0  0  0
    8.1184  -13.4632   19.7317 C   0  0  0  0  0  0  0  0  0  0  0  0
    7.7705  -12.6487   18.5144 C   0  0  0  0  0  0  0  0  0  0  0  0
    8.9188  -11.9013   18.0337 N   0  0  0  0  0  0  0  0  0  0  0  0
    8.6120  -16.6581   22.4816 C   0  0  0  0  0  0  0  0  0  0  0  0
    8.0835  -17.1575   23.5157 O   0  0  0  0  0  0  0  0  0  0  0  0
   14.9057  -18.2645   22.4561 N   0  0  0  0  0  0  0  0  0  0  0  0
   13.7581  -19.1416   22.4672 C   0  0  0  0  0  0  0  0  0  0  0  0
   13.9694  -20.2899   22.0723 O   0  0  0  0  0  0  0  0  0  0  0  0
   12.4853  -18.6512   22.9168 C   0  0  0  0  0  0  0  0  0  0  0  0
   12.2525  -17.2119   23.1165 C   0  0  0  0  0  0  0  0  0  0  0  0
   10.9099  -16.7475   23.5333 C   0  0  2  0  0  0  0  0  0  0  0  0
   10.0284  -16.4819   22.4136 N   0  0  0  0  0  0  0  0  0  0  0  0
   10.8579  -15.7204   24.5991 C   0  0  0  0  0  0  0  0  0  0  0  0
   10.9165  -14.5258   24.2358 O   0  0  0  0  0  0  0  0  0  0  0  0
    6.2753  -13.9375   26.3934 N   0  0  0  0  0  0  0  0  0  0  0  0
    6.9259  -13.4048   27.5443 C   0  0  0  0  0  0  0  0  0  0  0  0
    6.3824  -12.5645   28.2577 O   0  0  0  0  0  0  0  0  0  0  0  0
    8.2906  -13.9012   27.8617 C   0  0  0  0  0  0  0  0  0  0  0  0
    8.8840  -14.6883   26.7279 C   0  0  0  0  0  0  0  0  0  0  0  0
   10.2465  -15.2404   27.0448 C   0  0  2  0  0  0  0  0  0  0  0  0
   10.7494  -16.0421   25.9678 N   0  0  0  0  0  0  0  0  0  0  0  0
   10.3595  -15.8267   28.3794 C   0  0  0  0  0  0  0  0  0  0  0  0
   10.1125  -15.1251   29.3866 O   0  0  0  0  0  0  0  0  0  0  0  0
   10.7368  -17.1463   28.5381 O   0  0  0  0  0  0  0  0  0  0  0  0
  2  1  1  1
  3  2  1  0
  4  5  1  0
  4  3  1  0
  6  7  1  0
  6  5  1  0
  8  9  2  0
  8  2  1  0
 10 11  1  0
 11 12  2  0
 13 14  1  0
 13 11  1  0
 15 14  1  6
 15 16  1  0
 16  8  1  0
 17 15  1  0
 18 17  2  0
 20 19  1  0
 20 22  1  0
 21 20  2  0
 23 22  1  0
 24 23  1  6
 24 25  1  0
 25 17  1  0
 26 28  1  0
 26 24  1  0
 27 26  2  0
M  END
$$$$
