KQQ.pdb
     RDKit          3D

 28 27  0  0  1  0  0  0  0  0999 V2000
    9.3514  -14.7228   15.7261 N   0  0  0  0  0  0  0  0  0  0  0  0
    9.1546  -14.7395   17.1829 C   0  0  1  0  0  0  0  0  0  0  0  0
    7.6931  -14.7674   17.4720 C   0  0  0  0  0  0  0  0  0  0  0  0
    6.9851  -13.5519   16.9532 C   0  0  0  0  0  0  0  0  0  0  0  0
    6.8211  -13.6053   15.4318 C   0  0  0  0  0  0  0  0  0  0  0  0
    5.9947  -12.4490   14.9356 C   0  0  0  0  0  0  0  0  0  0  0  0
    5.7997  -12.5179   13.4984 N   0  0  0  0  0  0  0  0  0  0  0  0
    9.8229  -15.9129   17.7628 C   0  0  0  0  0  0  0  0  0  0  0  0
    9.4991  -16.3614   18.8996 O   0  0  0  0  0  0  0  0  0  0  0  0
    9.2198  -17.7228   13.8332 N   0  0  0  0  0  0  0  0  0  0  0  0
   10.5650  -18.0272   14.2622 C   0  0  0  0  0  0  0  0  0  0  0  0
   11.4591  -17.4492   13.6411 O   0  0  0  0  0  0  0  0  0  0  0  0
   10.7818  -18.9488   15.3422 C   0  0  0  0  0  0  0  0  0  0  0  0
   11.8164  -18.6992   16.3585 C   0  0  0  0  0  0  0  0  0  0  0  0
   11.5356  -17.7481   17.4578 C   0  0  2  0  0  0  0  0  0  0  0  0
   10.8587  -16.5471   17.0100 N   0  0  0  0  0  0  0  0  0  0  0  0
   12.6304  -17.4993   18.4238 C   0  0  0  0  0  0  0  0  0  0  0  0
   13.6789  -16.9913   17.9708 O   0  0  0  0  0  0  0  0  0  0  0  0
   12.9375  -23.2971   21.4129 N   0  0  0  0  0  0  0  0  0  0  0  0
   12.6722  -22.1091   22.1543 C   0  0  0  0  0  0  0  0  0  0  0  0
   11.8500  -22.0924   23.0676 O   0  0  0  0  0  0  0  0  0  0  0  0
   13.4270  -20.8813   21.7904 C   0  0  0  0  0  0  0  0  0  0  0  0
   12.6232  -19.9616   20.9157 C   0  0  0  0  0  0  0  0  0  0  0  0
   13.3450  -18.6845   20.5849 C   0  0  2  0  0  0  0  0  0  0  0  0
   12.5272  -17.8109   19.7952 N   0  0  0  0  0  0  0  0  0  0  0  0
   14.7138  -18.8763   20.1081 C   0  0  0  0  0  0  0  0  0  0  0  0
   15.6756  -18.5492   20.8399 O   0  0  0  0  0  0  0  0  0  0  0  0
   14.9543  -19.4140   18.8584 O   0  0  0  0  0  0  0  0  0  0  0  0
  2  1  1  6
  3  2  1  0
  4  5  1  0
  4  3  1  0
  6  7  1  0
  6  5  1  0
  8  9  2  0
  8  2  1  0
 10 11  1  0
 11 12  2  0
 13 14  1  0
 13 11  1  0
 15 14  1  6
 15 16  1  0
 16  8  1  0
 17 15  1  0
 18 17  2  0
 20 19  1  0
 20 22  1  0
 21 20  2  0
 23 22  1  0
 24 23  1  6
 24 25  1  0
 25 17  1  0
 26 28  1  0
 26 24  1  0
 27 26  2  0
M  END
$$$$
