CLY.pdb
     RDKit          3D

 27 27  0  0  1  0  0  0  0  0999 V2000
    7.9434  -16.6508   20.2481 N   0  0  0  0  0  0  0  0  0  0  0  0
    7.0435  -16.4631   21.3402 C   0  0  1  0  0  0  0  0  0  0  0  0
    6.6286  -17.7996   21.9230 C   0  0  0  0  0  0  0  0  0  0  0  0
    7.9626  -18.5240   22.9162 S   0  0  0  0  0  0  0  0  0  0  0  0
    7.4973  -15.5154   22.3555 C   0  0  0  0  0  0  0  0  0  0  0  0
    8.7342  -15.2889   22.4433 O   0  0  0  0  0  0  0  0  0  0  0  0
    7.8651  -11.4367   25.7544 C   0  0  0  0  0  0  0  0  0  0  0  0
    6.8659  -12.4663   26.2469 C   0  0  1  0  0  0  0  0  0  0  0  0
    5.8554  -11.7573   27.0840 C   0  0  0  0  0  0  0  0  0  0  0  0
    6.2369  -13.1940   25.0671 C   0  0  0  0  0  0  0  0  0  0  0  0
    7.2083  -14.0694   24.3487 C   0  0  2  0  0  0  0  0  0  0  0  0
    6.6787  -14.8171   23.2622 N   0  0  0  0  0  0  0  0  0  0  0  0
    7.7486  -15.0640   25.3475 C   0  0  0  0  0  0  0  0  0  0  0  0
    7.0158  -15.4462   26.2952 O   0  0  0  0  0  0  0  0  0  0  0  0
   10.1923  -21.4362   30.2714 O   0  0  0  0  0  0  0  0  0  0  0  0
    9.7613  -20.5104   29.3156 C   0  0  0  0  0  0  0  0  0  0  0  0
   10.6154  -19.5073   28.9083 C   0  0  0  0  0  0  0  0  0  0  0  0
   10.1802  -18.5997   27.9652 C   0  0  0  0  0  0  0  0  0  0  0  0
    8.9060  -18.6570   27.4057 C   0  0  0  0  0  0  0  0  0  0  0  0
    8.4571  -17.6599   26.4214 C   0  0  0  0  0  0  0  0  0  0  0  0
    9.4786  -16.5935   26.2436 C   0  0  2  0  0  0  0  0  0  0  0  0
    9.0415  -15.5879   25.2690 N   0  0  0  0  0  0  0  0  0  0  0  0
   10.8220  -17.0906   25.9232 C   0  0  0  0  0  0  0  0  0  0  0  0
   11.0710  -17.6066   24.6717 O   0  0  0  0  0  0  0  0  0  0  0  0
    8.0592  -19.6623   27.8185 C   0  0  0  0  0  0  0  0  0  0  0  0
    8.4918  -20.5743   28.7639 C   0  0  0  0  0  0  0  0  0  0  0  0
   11.7283  -17.0506   26.7626 O   0  0  0  0  0  0  0  0  0  0  0  0
  2  1  1  6
  3  2  1  0
  3  4  1  0
  5  6  2  0
  5  2  1  0
  8  7  1  6
  8  9  1  0
 11 10  1  1
 10  8  1  0
 11 12  1  0
 12  5  1  0
 13 11  1  0
 14 13  2  0
 16 17  2  0
 16 15  1  0
 18 17  1  0
 19 18  2  0
 20 19  1  0
 21 20  1  6
 21 22  1  0
 22 13  1  0
 23 21  1  0
 24 23  1  0
 25 19  1  0
 25 26  2  0
 26 16  1  0
 27 23  2  0
M  END
$$$$
