CLY.pdb
     RDKit          3D

 27 27  0  0  1  0  0  0  0  0999 V2000
    8.2044  -15.2269   20.8522 N   0  0  0  0  0  0  0  0  0  0  0  0
    7.9571  -15.9255   22.0721 C   0  0  1  0  0  0  0  0  0  0  0  0
    8.4609  -17.3523   21.9793 C   0  0  0  0  0  0  0  0  0  0  0  0
    7.0988  -18.5093   21.6676 S   0  0  0  0  0  0  0  0  0  0  0  0
    8.4128  -15.2381   23.2782 C   0  0  0  0  0  0  0  0  0  0  0  0
    9.5781  -14.7573   23.2810 O   0  0  0  0  0  0  0  0  0  0  0  0
    5.3886  -12.1888   26.8368 C   0  0  0  0  0  0  0  0  0  0  0  0
    6.5136  -12.6502   25.9299 C   0  0  1  0  0  0  0  0  0  0  0  0
    7.4128  -11.4847   25.6893 C   0  0  0  0  0  0  0  0  0  0  0  0
    7.2442  -13.8290   26.5572 C   0  0  0  0  0  0  0  0  0  0  0  0
    8.2231  -14.4598   25.6245 C   0  0  2  0  0  0  0  0  0  0  0  0
    7.6694  -15.0550   24.4587 N   0  0  0  0  0  0  0  0  0  0  0  0
    8.9342  -15.5537   26.3839 C   0  0  0  0  0  0  0  0  0  0  0  0
    8.3458  -16.6463   26.5866 O   0  0  0  0  0  0  0  0  0  0  0  0
   11.7913  -18.2156   21.6393 O   0  0  0  0  0  0  0  0  0  0  0  0
   11.8688  -17.8966   22.9990 C   0  0  0  0  0  0  0  0  0  0  0  0
   12.3129  -16.6477   23.3793 C   0  0  0  0  0  0  0  0  0  0  0  0
   12.3854  -16.3437   24.7227 C   0  0  0  0  0  0  0  0  0  0  0  0
   12.0260  -17.2529   25.7147 C   0  0  0  0  0  0  0  0  0  0  0  0
   12.1387  -16.9126   27.1416 C   0  0  0  0  0  0  0  0  0  0  0  0
   10.8251  -16.4795   27.6886 C   0  0  2  0  0  0  0  0  0  0  0  0
   10.2326  -15.4091   26.8793 N   0  0  0  0  0  0  0  0  0  0  0  0
   10.8531  -16.1134   29.1098 C   0  0  0  0  0  0  0  0  0  0  0  0
   11.3304  -17.0177   30.0312 O   0  0  0  0  0  0  0  0  0  0  0  0
   11.5835  -18.4984   25.3258 C   0  0  0  0  0  0  0  0  0  0  0  0
   11.5094  -18.8071   23.9798 C   0  0  0  0  0  0  0  0  0  0  0  0
   10.4540  -15.0058   29.4859 O   0  0  0  0  0  0  0  0  0  0  0  0
  2  1  1  6
  3  2  1  0
  3  4  1  0
  5  6  2  0
  5  2  1  0
  8  7  1  1
  8  9  1  0
 11 10  1  1
 10  8  1  0
 11 12  1  0
 12  5  1  0
 13 11  1  0
 14 13  2  0
 16 17  2  0
 16 15  1  0
 18 17  1  0
 19 18  2  0
 20 19  1  0
 21 20  1  6
 21 22  1  0
 22 13  1  0
 23 21  1  0
 24 23  1  0
 25 19  1  0
 25 26  2  0
 26 16  1  0
 27 23  2  0
M  END
$$$$
