CLY.pdb
     RDKit          3D

 27 27  0  0  1  0  0  0  0  0999 V2000
    8.1297  -15.6842   18.6479 N   0  0  0  0  0  0  0  0  0  0  0  0
    7.6545  -16.1314   19.9174 C   0  0  1  0  0  0  0  0  0  0  0  0
    7.9409  -17.6085   20.1023 C   0  0  0  0  0  0  0  0  0  0  0  0
    7.2138  -18.2291   21.6441 S   0  0  0  0  0  0  0  0  0  0  0  0
    8.0839  -15.3215   21.0553 C   0  0  0  0  0  0  0  0  0  0  0  0
    9.2828  -14.9331   21.0866 O   0  0  0  0  0  0  0  0  0  0  0  0
    7.7290  -11.6733   24.8704 C   0  0  0  0  0  0  0  0  0  0  0  0
    7.4201  -13.0442   25.4415 C   0  0  1  0  0  0  0  0  0  0  0  0
    6.4890  -12.8599   26.5921 C   0  0  0  0  0  0  0  0  0  0  0  0
    6.8385  -13.9447   24.3608 C   0  0  0  0  0  0  0  0  0  0  0  0
    7.7967  -14.1940   23.2446 C   0  0  2  0  0  0  0  0  0  0  0  0
    7.2804  -14.9237   22.1396 N   0  0  0  0  0  0  0  0  0  0  0  0
    8.9475  -14.9949   23.8040 C   0  0  0  0  0  0  0  0  0  0  0  0
   10.1251  -14.5957   23.6167 O   0  0  0  0  0  0  0  0  0  0  0  0
   11.9049  -15.9750   31.6478 O   0  0  0  0  0  0  0  0  0  0  0  0
   11.3751  -15.7580   30.3716 C   0  0  0  0  0  0  0  0  0  0  0  0
   10.7060  -14.5821   30.1049 C   0  0  0  0  0  0  0  0  0  0  0  0
   10.1876  -14.3786   28.8431 C   0  0  0  0  0  0  0  0  0  0  0  0
   10.3141  -15.3185   27.8230 C   0  0  0  0  0  0  0  0  0  0  0  0
    9.7280  -15.0880   26.4934 C   0  0  0  0  0  0  0  0  0  0  0  0
    9.4965  -16.3756   25.7857 C   0  0  2  0  0  0  0  0  0  0  0  0
    8.7652  -16.1747   24.5300 N   0  0  0  0  0  0  0  0  0  0  0  0
    8.8596  -17.4114   26.6080 C   0  0  0  0  0  0  0  0  0  0  0  0
    9.6434  -18.3532   27.2351 O   0  0  0  0  0  0  0  0  0  0  0  0
   10.9841  -16.4904   28.0982 C   0  0  0  0  0  0  0  0  0  0  0  0
   11.5054  -16.6984   29.3622 C   0  0  0  0  0  0  0  0  0  0  0  0
    7.6315  -17.4462   26.7425 O   0  0  0  0  0  0  0  0  0  0  0  0
  2  1  1  6
  3  2  1  0
  3  4  1  0
  5  6  2  0
  5  2  1  0
  8  7  1  6
  8  9  1  0
 11 10  1  1
 10  8  1  0
 11 12  1  0
 12  5  1  0
 13 11  1  0
 14 13  2  0
 16 17  2  0
 16 15  1  0
 18 17  1  0
 19 18  2  0
 20 19  1  0
 21 20  1  1
 21 22  1  0
 22 13  1  0
 23 21  1  0
 24 23  1  0
 25 19  1  0
 25 26  2  0
 26 16  1  0
 27 23  2  0
M  END
$$$$
