CLY.pdb
     RDKit          3D

 27 27  0  0  1  0  0  0  0  0999 V2000
    9.0286  -15.9013   19.3391 N   0  0  0  0  0  0  0  0  0  0  0  0
    8.4182  -16.3865   20.5347 C   0  0  1  0  0  0  0  0  0  0  0  0
    8.7982  -17.8340   20.7762 C   0  0  0  0  0  0  0  0  0  0  0  0
    7.8866  -18.5248   22.1842 S   0  0  0  0  0  0  0  0  0  0  0  0
    8.6134  -15.5427   21.7114 C   0  0  0  0  0  0  0  0  0  0  0  0
    9.7627  -15.0660   21.9140 O   0  0  0  0  0  0  0  0  0  0  0  0
    7.8322  -11.7454   25.3404 C   0  0  0  0  0  0  0  0  0  0  0  0
    7.0990  -13.0161   25.7260 C   0  0  1  0  0  0  0  0  0  0  0  0
    5.9077  -12.6279   26.5351 C   0  0  0  0  0  0  0  0  0  0  0  0
    6.7238  -13.8049   24.4794 C   0  0  0  0  0  0  0  0  0  0  0  0
    7.9115  -14.3893   23.7909 C   0  0  2  0  0  0  0  0  0  0  0  0
    7.6308  -15.2019   22.6591 N   0  0  0  0  0  0  0  0  0  0  0  0
    8.6341  -15.2592   24.7910 C   0  0  0  0  0  0  0  0  0  0  0  0
    8.1935  -16.4107   25.0383 O   0  0  0  0  0  0  0  0  0  0  0  0
   12.7563  -17.7788   32.0359 O   0  0  0  0  0  0  0  0  0  0  0  0
   12.3880  -17.0680   30.8890 C   0  0  0  0  0  0  0  0  0  0  0  0
   12.7718  -17.5334   29.6489 C   0  0  0  0  0  0  0  0  0  0  0  0
   12.4031  -16.8246   28.5246 C   0  0  0  0  0  0  0  0  0  0  0  0
   11.6550  -15.6517   28.5930 C   0  0  0  0  0  0  0  0  0  0  0  0
   11.2982  -14.9001   27.3797 C   0  0  0  0  0  0  0  0  0  0  0  0
   10.3341  -15.6663   26.5457 C   0  0  2  0  0  0  0  0  0  0  0  0
    9.7847  -14.8411   25.4644 N   0  0  0  0  0  0  0  0  0  0  0  0
    9.2632  -16.3208   27.3069 C   0  0  0  0  0  0  0  0  0  0  0  0
    9.3640  -17.6623   27.5982 O   0  0  0  0  0  0  0  0  0  0  0  0
   11.2759  -15.1940   29.8359 C   0  0  0  0  0  0  0  0  0  0  0  0
   11.6435  -15.9018   30.9657 C   0  0  0  0  0  0  0  0  0  0  0  0
    8.2760  -15.6821   27.6875 O   0  0  0  0  0  0  0  0  0  0  0  0
  2  1  1  6
  3  2  1  0
  3  4  1  0
  5  6  2  0
  5  2  1  0
  8  7  1  6
  8  9  1  0
 11 10  1  1
 10  8  1  0
 11 12  1  0
 12  5  1  0
 13 11  1  0
 14 13  2  0
 16 17  2  0
 16 15  1  0
 18 17  1  0
 19 18  2  0
 20 19  1  0
 21 20  1  1
 21 22  1  0
 22 13  1  0
 23 21  1  0
 24 23  1  0
 25 19  1  0
 25 26  2  0
 26 16  1  0
 27 23  2  0
M  END
$$$$
