CLY.pdb
     RDKit          3D

 27 27  0  0  1  0  0  0  0  0999 V2000
    6.7122  -19.7572   20.2903 N   0  0  0  0  0  0  0  0  0  0  0  0
    6.8784  -18.8863   21.4088 C   0  0  1  0  0  0  0  0  0  0  0  0
    7.1468  -19.6847   22.6693 C   0  0  0  0  0  0  0  0  0  0  0  0
    6.8353  -18.6900   24.1539 S   0  0  0  0  0  0  0  0  0  0  0  0
    7.8365  -17.8017   21.2072 C   0  0  0  0  0  0  0  0  0  0  0  0
    8.8416  -18.0270   20.4805 O   0  0  0  0  0  0  0  0  0  0  0  0
    6.6563  -12.4689   20.0911 C   0  0  0  0  0  0  0  0  0  0  0  0
    7.2746  -13.8539   20.0659 C   0  0  1  0  0  0  0  0  0  0  0  0
    8.1152  -13.9559   18.8380 C   0  0  0  0  0  0  0  0  0  0  0  0
    8.0725  -14.0962   21.3392 C   0  0  0  0  0  0  0  0  0  0  0  0
    8.6540  -15.4689   21.3997 C   0  0  2  0  0  0  0  0  0  0  0  0
    7.7496  -16.5072   21.7518 N   0  0  0  0  0  0  0  0  0  0  0  0
    9.7412  -15.4561   22.4469 C   0  0  0  0  0  0  0  0  0  0  0  0
   10.4333  -14.4181   22.6045 O   0  0  0  0  0  0  0  0  0  0  0  0
   10.6878  -14.8642   30.8499 O   0  0  0  0  0  0  0  0  0  0  0  0
   10.3806  -15.0190   29.4942 C   0  0  0  0  0  0  0  0  0  0  0  0
   10.4655  -13.9318   28.6501 C   0  0  0  0  0  0  0  0  0  0  0  0
   10.1602  -14.0957   27.3150 C   0  0  0  0  0  0  0  0  0  0  0  0
    9.7679  -15.3219   26.7836 C   0  0  0  0  0  0  0  0  0  0  0  0
    9.4216  -15.4634   25.3607 C   0  0  0  0  0  0  0  0  0  0  0  0
   10.3939  -16.3472   24.6638 C   0  0  2  0  0  0  0  0  0  0  0  0
   10.0197  -16.5569   23.2610 N   0  0  0  0  0  0  0  0  0  0  0  0
   10.6420  -17.6256   25.3411 C   0  0  0  0  0  0  0  0  0  0  0  0
   11.7975  -17.7908   26.0705 O   0  0  0  0  0  0  0  0  0  0  0  0
    9.6858  -16.4027   27.6340 C   0  0  0  0  0  0  0  0  0  0  0  0
    9.9910  -16.2426   28.9733 C   0  0  0  0  0  0  0  0  0  0  0  0
    9.8271  -18.5516   25.2634 O   0  0  0  0  0  0  0  0  0  0  0  0
  2  1  1  6
  3  2  1  0
  3  4  1  0
  5  6  2  0
  5  2  1  0
  8  7  1  1
  8  9  1  0
 11 10  1  1
 10  8  1  0
 11 12  1  0
 12  5  1  0
 13 11  1  0
 14 13  2  0
 16 17  2  0
 16 15  1  0
 18 17  1  0
 19 18  2  0
 20 19  1  0
 21 20  1  1
 21 22  1  0
 22 13  1  0
 23 21  1  0
 24 23  1  0
 25 19  1  0
 25 26  2  0
 26 16  1  0
 27 23  2  0
M  END
$$$$
