CLY.pdb
     RDKit          3D

 27 27  0  0  1  0  0  0  0  0999 V2000
    8.5197  -14.9680   20.2166 N   0  0  0  0  0  0  0  0  0  0  0  0
    7.6150  -15.2525   21.2833 C   0  0  1  0  0  0  0  0  0  0  0  0
    7.0929  -16.6715   21.1737 C   0  0  0  0  0  0  0  0  0  0  0  0
    8.4252  -17.8800   21.4088 S   0  0  0  0  0  0  0  0  0  0  0  0
    8.1167  -14.9320   22.6177 C   0  0  0  0  0  0  0  0  0  0  0  0
    9.3651  -14.8761   22.7832 O   0  0  0  0  0  0  0  0  0  0  0  0
    5.3759  -12.0066   26.5582 C   0  0  0  0  0  0  0  0  0  0  0  0
    6.5218  -12.4415   25.6645 C   0  0  1  0  0  0  0  0  0  0  0  0
    7.6046  -11.4225   25.7825 C   0  0  0  0  0  0  0  0  0  0  0  0
    6.9908  -13.8365   26.0530 C   0  0  0  0  0  0  0  0  0  0  0  0
    7.9038  -14.4385   25.0381 C   0  0  2  0  0  0  0  0  0  0  0  0
    7.3334  -14.6746   23.7579 N   0  0  0  0  0  0  0  0  0  0  0  0
    8.3588  -15.7752   25.5723 C   0  0  0  0  0  0  0  0  0  0  0  0
    7.6946  -16.8071   25.2982 O   0  0  0  0  0  0  0  0  0  0  0  0
   15.0505  -16.2613   23.1821 O   0  0  0  0  0  0  0  0  0  0  0  0
   13.8724  -16.7112   23.7872 C   0  0  0  0  0  0  0  0  0  0  0  0
   13.9197  -17.2276   25.0650 C   0  0  0  0  0  0  0  0  0  0  0  0
   12.7521  -17.6684   25.6523 C   0  0  0  0  0  0  0  0  0  0  0  0
   11.5215  -17.6120   25.0022 C   0  0  0  0  0  0  0  0  0  0  0  0
   10.2951  -18.1142   25.6411 C   0  0  0  0  0  0  0  0  0  0  0  0
    9.9137  -17.2623   26.7992 C   0  0  2  0  0  0  0  0  0  0  0  0
    9.4980  -15.9234   26.3675 N   0  0  0  0  0  0  0  0  0  0  0  0
   10.9316  -17.1849   27.8539 C   0  0  0  0  0  0  0  0  0  0  0  0
   11.4338  -18.3467   28.3949 O   0  0  0  0  0  0  0  0  0  0  0  0
   11.4835  -17.0947   23.7259 C   0  0  0  0  0  0  0  0  0  0  0  0
   12.6520  -16.6517   23.1336 C   0  0  0  0  0  0  0  0  0  0  0  0
   11.3407  -16.0915   28.2595 O   0  0  0  0  0  0  0  0  0  0  0  0
  2  1  1  6
  3  2  1  0
  3  4  1  0
  5  6  2  0
  5  2  1  0
  8  7  1  1
  8  9  1  0
 11 10  1  1
 10  8  1  0
 11 12  1  0
 12  5  1  0
 13 11  1  0
 14 13  2  0
 16 17  2  0
 16 15  1  0
 18 17  1  0
 19 18  2  0
 20 19  1  0
 21 20  1  6
 21 22  1  0
 22 13  1  0
 23 21  1  0
 24 23  1  0
 25 19  1  0
 25 26  2  0
 26 16  1  0
 27 23  2  0
M  END
$$$$
