CLY.pdb
     RDKit          3D

 27 27  0  0  1  0  0  0  0  0999 V2000
    6.2542  -16.7843   20.9097 N   0  0  0  0  0  0  0  0  0  0  0  0
    6.5608  -16.8392   22.3027 C   0  0  1  0  0  0  0  0  0  0  0  0
    6.9555  -18.2465   22.7052 C   0  0  0  0  0  0  0  0  0  0  0  0
    8.6917  -18.5813   22.3001 S   0  0  0  0  0  0  0  0  0  0  0  0
    7.5089  -15.8279   22.7645 C   0  0  0  0  0  0  0  0  0  0  0  0
    8.2565  -15.2826   21.9084 O   0  0  0  0  0  0  0  0  0  0  0  0
    6.1188  -12.4349   26.6253 C   0  0  0  0  0  0  0  0  0  0  0  0
    6.6701  -12.9978   25.3290 C   0  0  1  0  0  0  0  0  0  0  0  0
    6.5177  -11.9522   24.2763 C   0  0  0  0  0  0  0  0  0  0  0  0
    8.1181  -13.4277   25.5169 C   0  0  0  0  0  0  0  0  0  0  0  0
    8.5835  -14.3592   24.4483 C   0  0  2  0  0  0  0  0  0  0  0  0
    7.6753  -15.3929   24.0922 N   0  0  0  0  0  0  0  0  0  0  0  0
    9.8419  -15.0287   24.9455 C   0  0  0  0  0  0  0  0  0  0  0  0
   10.5129  -14.4807   25.8568 O   0  0  0  0  0  0  0  0  0  0  0  0
   11.0572  -14.5616   31.0789 O   0  0  0  0  0  0  0  0  0  0  0  0
   10.7709  -15.3097   29.9323 C   0  0  0  0  0  0  0  0  0  0  0  0
   11.2269  -16.6076   29.8368 C   0  0  0  0  0  0  0  0  0  0  0  0
   10.9388  -17.3363   28.7016 C   0  0  0  0  0  0  0  0  0  0  0  0
   10.2019  -16.8101   27.6434 C   0  0  0  0  0  0  0  0  0  0  0  0
    9.9317  -17.6000   26.4319 C   0  0  0  0  0  0  0  0  0  0  0  0
   10.8799  -17.2421   25.3433 C   0  0  2  0  0  0  0  0  0  0  0  0
   10.3035  -16.2447   24.4351 N   0  0  0  0  0  0  0  0  0  0  0  0
   11.4076  -18.3919   24.5989 C   0  0  0  0  0  0  0  0  0  0  0  0
   11.1722  -18.4867   23.2461 O   0  0  0  0  0  0  0  0  0  0  0  0
    9.7502  -15.5127   27.7472 C   0  0  0  0  0  0  0  0  0  0  0  0
   10.0369  -14.7787   28.8837 C   0  0  0  0  0  0  0  0  0  0  0  0
   12.0586  -19.2722   25.1723 O   0  0  0  0  0  0  0  0  0  0  0  0
  2  1  1  6
  3  2  1  0
  3  4  1  0
  5  6  2  0
  5  2  1  0
  8  7  1  1
  8  9  1  0
 11 10  1  1
 10  8  1  0
 11 12  1  0
 12  5  1  0
 13 11  1  0
 14 13  2  0
 16 17  2  0
 16 15  1  0
 18 17  1  0
 19 18  2  0
 20 19  1  0
 21 20  1  1
 21 22  1  0
 22 13  1  0
 23 21  1  0
 24 23  1  0
 25 19  1  0
 25 26  2  0
 26 16  1  0
 27 23  2  0
M  END
$$$$
