CLY.pdb
     RDKit          3D

 27 27  0  0  1  0  0  0  0  0999 V2000
    7.7505  -16.7645   20.2320 N   0  0  0  0  0  0  0  0  0  0  0  0
    7.7430  -17.0030   21.6393 C   0  0  1  0  0  0  0  0  0  0  0  0
    8.4228  -18.3197   21.9592 C   0  0  0  0  0  0  0  0  0  0  0  0
    7.5488  -19.7118   21.1918 S   0  0  0  0  0  0  0  0  0  0  0  0
    8.2364  -15.8949   22.4539 C   0  0  0  0  0  0  0  0  0  0  0  0
    9.1787  -15.1954   21.9935 O   0  0  0  0  0  0  0  0  0  0  0  0
    5.4771  -12.8401   26.4807 C   0  0  0  0  0  0  0  0  0  0  0  0
    6.3230  -13.1390   25.2575 C   0  0  1  0  0  0  0  0  0  0  0  0
    6.7214  -11.8367   24.6491 C   0  0  0  0  0  0  0  0  0  0  0  0
    7.5230  -13.9918   25.6444 C   0  0  0  0  0  0  0  0  0  0  0  0
    8.3128  -14.4416   24.4612 C   0  0  2  0  0  0  0  0  0  0  0  0
    7.7579  -15.5223   23.7235 N   0  0  0  0  0  0  0  0  0  0  0  0
    9.6627  -14.8956   24.9619 C   0  0  0  0  0  0  0  0  0  0  0  0
   10.5656  -14.0430   25.1594 O   0  0  0  0  0  0  0  0  0  0  0  0
   12.3973  -17.5782   32.4804 O   0  0  0  0  0  0  0  0  0  0  0  0
   11.7489  -17.2236   31.2929 C   0  0  0  0  0  0  0  0  0  0  0  0
   10.9841  -18.1608   30.6307 C   0  0  0  0  0  0  0  0  0  0  0  0
   10.3490  -17.8004   29.4605 C   0  0  0  0  0  0  0  0  0  0  0  0
   10.4504  -16.5212   28.9191 C   0  0  0  0  0  0  0  0  0  0  0  0
    9.7847  -16.1707   27.6547 C   0  0  0  0  0  0  0  0  0  0  0  0
   10.5983  -16.6069   26.4886 C   0  0  2  0  0  0  0  0  0  0  0  0
    9.9616  -16.2357   25.2202 N   0  0  0  0  0  0  0  0  0  0  0  0
   10.9597  -18.0295   26.5018 C   0  0  0  0  0  0  0  0  0  0  0  0
   10.0091  -18.9711   26.1789 O   0  0  0  0  0  0  0  0  0  0  0  0
   11.2165  -15.5912   29.5872 C   0  0  0  0  0  0  0  0  0  0  0  0
   11.8549  -15.9485   30.7607 C   0  0  0  0  0  0  0  0  0  0  0  0
   12.1043  -18.3889   26.7988 O   0  0  0  0  0  0  0  0  0  0  0  0
  2  1  1  6
  3  2  1  0
  3  4  1  0
  5  6  2  0
  5  2  1  0
  8  7  1  1
  8  9  1  0
 11 10  1  1
 10  8  1  0
 11 12  1  0
 12  5  1  0
 13 11  1  0
 14 13  2  0
 16 17  2  0
 16 15  1  0
 18 17  1  0
 19 18  2  0
 20 19  1  0
 21 20  1  1
 21 22  1  0
 22 13  1  0
 23 21  1  0
 24 23  1  0
 25 19  1  0
 25 26  2  0
 26 16  1  0
 27 23  2  0
M  END
$$$$
