CLY.pdb
     RDKit          3D

 27 27  0  0  1  0  0  0  0  0999 V2000
    5.5435  -19.2455   23.4506 N   0  0  0  0  0  0  0  0  0  0  0  0
    6.2741  -18.4274   24.3641 C   0  0  1  0  0  0  0  0  0  0  0  0
    7.2261  -19.2709   25.1890 C   0  0  0  0  0  0  0  0  0  0  0  0
    8.0265  -18.2811   26.4816 S   0  0  0  0  0  0  0  0  0  0  0  0
    6.9195  -17.2614   23.7653 C   0  0  0  0  0  0  0  0  0  0  0  0
    7.3727  -17.3718   22.5942 O   0  0  0  0  0  0  0  0  0  0  0  0
    7.7219  -12.2830   26.3043 C   0  0  0  0  0  0  0  0  0  0  0  0
    7.0856  -13.5205   25.7005 C   0  0  1  0  0  0  0  0  0  0  0  0
    5.6346  -13.5020   26.0456 C   0  0  0  0  0  0  0  0  0  0  0  0
    7.3260  -13.5548   24.1979 C   0  0  0  0  0  0  0  0  0  0  0  0
    7.7081  -14.9115   23.7085 C   0  0  2  0  0  0  0  0  0  0  0  0
    7.0897  -16.0044   24.3742 N   0  0  0  0  0  0  0  0  0  0  0  0
    9.1977  -15.0616   23.9027 C   0  0  0  0  0  0  0  0  0  0  0  0
    9.9674  -14.1570   23.4900 O   0  0  0  0  0  0  0  0  0  0  0  0
    9.7439  -16.1074   30.9429 O   0  0  0  0  0  0  0  0  0  0  0  0
   10.2057  -15.8617   29.6457 C   0  0  0  0  0  0  0  0  0  0  0  0
   10.6637  -16.9114   28.8776 C   0  0  0  0  0  0  0  0  0  0  0  0
   11.1168  -16.6578   27.5997 C   0  0  0  0  0  0  0  0  0  0  0  0
   11.1299  -15.3771   27.0523 C   0  0  0  0  0  0  0  0  0  0  0  0
   11.6440  -15.1301   25.6962 C   0  0  0  0  0  0  0  0  0  0  0  0
   11.2179  -16.2074   24.7633 C   0  0  2  0  0  0  0  0  0  0  0  0
    9.7704  -16.1724   24.5273 N   0  0  0  0  0  0  0  0  0  0  0  0
   11.6572  -17.5528   25.1525 C   0  0  0  0  0  0  0  0  0  0  0  0
   10.7342  -18.5714   25.2216 O   0  0  0  0  0  0  0  0  0  0  0  0
   10.6705  -14.3343   27.8267 C   0  0  0  0  0  0  0  0  0  0  0  0
   10.2154  -14.5844   29.1084 C   0  0  0  0  0  0  0  0  0  0  0  0
   12.8429  -17.7792   25.4177 O   0  0  0  0  0  0  0  0  0  0  0  0
  2  1  1  6
  3  2  1  0
  3  4  1  0
  5  6  2  0
  5  2  1  0
  8  7  1  6
  8  9  1  0
 11 10  1  1
 10  8  1  0
 11 12  1  0
 12  5  1  0
 13 11  1  0
 14 13  2  0
 16 17  2  0
 16 15  1  0
 18 17  1  0
 19 18  2  0
 20 19  1  0
 21 20  1  1
 21 22  1  0
 22 13  1  0
 23 21  1  0
 24 23  1  0
 25 19  1  0
 25 26  2  0
 26 16  1  0
 27 23  2  0
M  END
$$$$
