WTY.pdb
     RDKit          3D

 34 36  0  0  1  0  0  0  0  0999 V2000
   23.1813  -19.3863  -15.8309 N   0  0  0  0  0  0  0  0  0  0  0  0
   22.0199  -20.2123  -15.9707 C   0  0  1  0  0  0  0  0  0  0  0  0
   22.2081  -21.2712  -17.0269 C   0  0  0  0  0  0  0  0  0  0  0  0
   22.4364  -20.7289  -18.3837 C   0  0  0  0  0  0  0  0  0  0  0  0
   23.6724  -20.6236  -18.9823 C   0  0  0  0  0  0  0  0  0  0  0  0
   23.5271  -20.1145  -20.2198 N   0  0  0  0  0  0  0  0  0  0  0  0
   22.2192  -19.8793  -20.4551 C   0  0  0  0  0  0  0  0  0  0  0  0
   21.5829  -19.3638  -21.5626 C   0  0  0  0  0  0  0  0  0  0  0  0
   20.2230  -19.2127  -21.5564 C   0  0  0  0  0  0  0  0  0  0  0  0
   19.5322  -19.5875  -20.4250 C   0  0  0  0  0  0  0  0  0  0  0  0
   20.1724  -20.1071  -19.3088 C   0  0  0  0  0  0  0  0  0  0  0  0
   21.5333  -20.2634  -19.3048 C   0  0  0  0  0  0  0  0  0  0  0  0
   21.7195  -20.8668  -14.6733 C   0  0  0  0  0  0  0  0  0  0  0  0
   22.6659  -21.3996  -14.0454 O   0  0  0  0  0  0  0  0  0  0  0  0
   21.0197  -19.6201  -11.5354 C   0  0  0  0  0  0  0  0  0  0  0  0
   19.8791  -20.5568  -11.8169 C   0  0  1  0  0  0  0  0  0  0  0  0
   18.8304  -19.7811  -12.3274 O   0  0  0  0  0  0  0  0  0  0  0  0
   20.2132  -21.5969  -12.8591 C   0  0  2  0  0  0  0  0  0  0  0  0
   20.4202  -20.9174  -14.1158 N   0  0  0  0  0  0  0  0  0  0  0  0
   19.1690  -22.6431  -12.9595 C   0  0  0  0  0  0  0  0  0  0  0  0
   18.4211  -22.6529  -13.9548 O   0  0  0  0  0  0  0  0  0  0  0  0
   18.3596  -24.9256   -5.6569 O   0  0  0  0  0  0  0  0  0  0  0  0
   18.3347  -25.1446   -7.0302 C   0  0  0  0  0  0  0  0  0  0  0  0
   19.4465  -24.9934   -7.8243 C   0  0  0  0  0  0  0  0  0  0  0  0
   19.4049  -25.2142   -9.1829 C   0  0  0  0  0  0  0  0  0  0  0  0
   18.2474  -25.5997   -9.8312 C   0  0  0  0  0  0  0  0  0  0  0  0
   18.1735  -25.8281  -11.2783 C   0  0  0  0  0  0  0  0  0  0  0  0
   17.9420  -24.5988  -12.0643 C   0  0  2  0  0  0  0  0  0  0  0  0
   18.9896  -23.6304  -11.9686 N   0  0  0  0  0  0  0  0  0  0  0  0
   16.6904  -23.9334  -11.6517 C   0  0  0  0  0  0  0  0  0  0  0  0
   16.7512  -22.8977  -10.9396 O   0  0  0  0  0  0  0  0  0  0  0  0
   17.1196  -25.7510   -9.0104 C   0  0  0  0  0  0  0  0  0  0  0  0
   17.1668  -25.5294   -7.6538 C   0  0  0  0  0  0  0  0  0  0  0  0
   15.4284  -24.4157  -12.0254 O   0  0  0  0  0  0  0  0  0  0  0  0
  2  1  1  1
  2 13  1  0
  2  3  1  0
  4  3  1  0
  5  4  2  0
  6  7  1  0
  6  5  1  0
  7 12  2  0
  8  9  2  0
  8  7  1  0
  9 10  1  0
 10 11  2  0
 12  4  1  0
 12 11  1  0
 13 14  2  0
 16 15  1  6
 16 18  1  0
 17 16  1  0
 18 20  1  0
 18 19  1  6
 19 13  1  0
 20 29  1  0
 20 21  2  0
 22 23  1  0
 23 33  2  0
 23 24  1  0
 24 25  2  0
 25 26  1  0
 26 27  1  0
 28 27  1  1
 28 30  1  0
 29 28  1  0
 30 31  2  0
 30 34  1  0
 32 26  2  0
 33 32  1  0
M  END
$$$$
