WTY.pdb
     RDKit          3D

 34 36  0  0  1  0  0  0  0  0999 V2000
   28.2243  -20.4877   -9.4384 N   0  0  0  0  0  0  0  0  0  0  0  0
   26.9284  -21.0837   -9.3120 C   0  0  1  0  0  0  0  0  0  0  0  0
   26.2515  -20.6872   -8.0247 C   0  0  0  0  0  0  0  0  0  0  0  0
   27.1434  -19.9977   -7.0675 C   0  0  0  0  0  0  0  0  0  0  0  0
   27.6076  -18.7105   -7.2242 C   0  0  0  0  0  0  0  0  0  0  0  0
   28.3731  -18.3802   -6.1675 N   0  0  0  0  0  0  0  0  0  0  0  0
   28.4270  -19.4227   -5.3121 C   0  0  0  0  0  0  0  0  0  0  0  0
   29.0808  -19.5656   -4.1083 C   0  0  0  0  0  0  0  0  0  0  0  0
   28.9858  -20.7436   -3.4188 C   0  0  0  0  0  0  0  0  0  0  0  0
   28.2284  -21.7570   -3.9640 C   0  0  0  0  0  0  0  0  0  0  0  0
   27.5693  -21.6139   -5.1767 C   0  0  0  0  0  0  0  0  0  0  0  0
   27.6569  -20.4384   -5.8747 C   0  0  0  0  0  0  0  0  0  0  0  0
   26.0795  -20.6689  -10.4561 C   0  0  0  0  0  0  0  0  0  0  0  0
   25.9663  -19.4426  -10.6958 O   0  0  0  0  0  0  0  0  0  0  0  0
   26.6557  -21.4705  -13.8632 C   0  0  0  0  0  0  0  0  0  0  0  0
   25.1930  -21.7477  -13.6595 C   0  0  1  0  0  0  0  0  0  0  0  0
   25.0581  -23.1332  -13.5033 O   0  0  0  0  0  0  0  0  0  0  0  0
   24.6380  -21.1019  -12.4127 C   0  0  2  0  0  0  0  0  0  0  0  0
   25.3951  -21.5893  -11.2842 N   0  0  0  0  0  0  0  0  0  0  0  0
   23.1857  -21.3483  -12.2546 C   0  0  0  0  0  0  0  0  0  0  0  0
   22.7947  -22.0489  -11.3026 O   0  0  0  0  0  0  0  0  0  0  0  0
   21.2260  -15.4289  -16.1077 O   0  0  0  0  0  0  0  0  0  0  0  0
   20.9642  -16.4741  -15.2282 C   0  0  0  0  0  0  0  0  0  0  0  0
   21.6034  -16.6009  -14.0179 C   0  0  0  0  0  0  0  0  0  0  0  0
   21.3325  -17.6422  -13.1583 C   0  0  0  0  0  0  0  0  0  0  0  0
   20.4050  -18.6216  -13.4572 C   0  0  0  0  0  0  0  0  0  0  0  0
   20.1080  -19.7476  -12.5654 C   0  0  0  0  0  0  0  0  0  0  0  0
   20.8263  -20.9902  -12.9154 C   0  0  2  0  0  0  0  0  0  0  0  0
   22.2274  -20.8183  -13.1432 N   0  0  0  0  0  0  0  0  0  0  0  0
   20.2570  -21.6079  -14.1292 C   0  0  0  0  0  0  0  0  0  0  0  0
   19.0452  -21.9473  -14.1352 O   0  0  0  0  0  0  0  0  0  0  0  0
   19.7591  -18.4812  -14.6948 C   0  0  0  0  0  0  0  0  0  0  0  0
   20.0333  -17.4390  -15.5495 C   0  0  0  0  0  0  0  0  0  0  0  0
   21.0207  -21.8329  -15.2829 O   0  0  0  0  0  0  0  0  0  0  0  0
  2  1  1  6
  2 13  1  0
  2  3  1  0
  4  3  1  0
  5  4  2  0
  6  7  1  0
  6  5  1  0
  7 12  2  0
  8  9  2  0
  8  7  1  0
  9 10  1  0
 10 11  2  0
 12  4  1  0
 12 11  1  0
 13 14  2  0
 16 15  1  1
 16 18  1  0
 17 16  1  0
 18 20  1  0
 18 19  1  1
 19 13  1  0
 20 29  1  0
 20 21  2  0
 22 23  1  0
 23 33  2  0
 23 24  1  0
 24 25  2  0
 25 26  1  0
 26 27  1  0
 28 27  1  6
 28 30  1  0
 29 28  1  0
 30 31  2  0
 30 34  1  0
 32 26  2  0
 33 32  1  0
M  END
$$$$
