WTY.pdb
     RDKit          3D

 34 36  0  0  1  0  0  0  0  0999 V2000
   27.6184  -19.3607   -8.8868 N   0  0  0  0  0  0  0  0  0  0  0  0
   27.0267  -20.5618   -9.3947 C   0  0  1  0  0  0  0  0  0  0  0  0
   26.0236  -21.1438   -8.4317 C   0  0  0  0  0  0  0  0  0  0  0  0
   26.2577  -20.7641   -7.0217 C   0  0  0  0  0  0  0  0  0  0  0  0
   25.2595  -20.4891   -6.1134 C   0  0  0  0  0  0  0  0  0  0  0  0
   25.8095  -20.2025   -4.9188 N   0  0  0  0  0  0  0  0  0  0  0  0
   27.1534  -20.2814   -5.0155 C   0  0  0  0  0  0  0  0  0  0  0  0
   28.1368  -20.0727   -4.0742 C   0  0  0  0  0  0  0  0  0  0  0  0
   29.4526  -20.2096   -4.4238 C   0  0  0  0  0  0  0  0  0  0  0  0
   29.7473  -20.5558   -5.7242 C   0  0  0  0  0  0  0  0  0  0  0  0
   28.7571  -20.7664   -6.6733 C   0  0  0  0  0  0  0  0  0  0  0  0
   27.4367  -20.6330   -6.3337 C   0  0  0  0  0  0  0  0  0  0  0  0
   26.3525  -20.2738  -10.6848 C   0  0  0  0  0  0  0  0  0  0  0  0
   25.6633  -19.2293  -10.7727 O   0  0  0  0  0  0  0  0  0  0  0  0
   28.6358  -20.5989  -13.6054 C   0  0  0  0  0  0  0  0  0  0  0  0
   27.2712  -21.0370  -14.0565 C   0  0  1  0  0  0  0  0  0  0  0  0
   27.2705  -22.4378  -14.0536 O   0  0  0  0  0  0  0  0  0  0  0  0
   26.1699  -20.5882  -13.1263 C   0  0  2  0  0  0  0  0  0  0  0  0
   26.4512  -21.1201  -11.8141 N   0  0  0  0  0  0  0  0  0  0  0  0
   24.8293  -20.9902  -13.6122 C   0  0  0  0  0  0  0  0  0  0  0  0
   24.2777  -21.9833  -13.1027 O   0  0  0  0  0  0  0  0  0  0  0  0
   16.5130  -21.1636  -16.2081 O   0  0  0  0  0  0  0  0  0  0  0  0
   17.7977  -20.8241  -15.7972 C   0  0  0  0  0  0  0  0  0  0  0  0
   18.3541  -21.3032  -14.6351 C   0  0  0  0  0  0  0  0  0  0  0  0
   19.6279  -20.9571  -14.2424 C   0  0  0  0  0  0  0  0  0  0  0  0
   20.4237  -20.1094  -14.9886 C   0  0  0  0  0  0  0  0  0  0  0  0
   21.7779  -19.7148  -14.5860 C   0  0  0  0  0  0  0  0  0  0  0  0
   22.8289  -20.6524  -15.0321 C   0  0  2  0  0  0  0  0  0  0  0  0
   24.1528  -20.2893  -14.6320 N   0  0  0  0  0  0  0  0  0  0  0  0
   22.8348  -20.7817  -16.5026 C   0  0  0  0  0  0  0  0  0  0  0  0
   23.6178  -20.0657  -17.1791 O   0  0  0  0  0  0  0  0  0  0  0  0
   19.8452  -19.6273  -16.1724 C   0  0  0  0  0  0  0  0  0  0  0  0
   18.5725  -19.9764  -16.5601 C   0  0  0  0  0  0  0  0  0  0  0  0
   21.9948  -21.6777  -17.1782 O   0  0  0  0  0  0  0  0  0  0  0  0
  2  1  1  1
  2 13  1  0
  2  3  1  0
  4  3  1  0
  5  4  2  0
  6  7  1  0
  6  5  1  0
  7 12  2  0
  8  9  2  0
  8  7  1  0
  9 10  1  0
 10 11  2  0
 12  4  1  0
 12 11  1  0
 13 14  2  0
 16 15  1  1
 16 18  1  0
 17 16  1  0
 18 20  1  0
 18 19  1  1
 19 13  1  0
 20 29  1  0
 20 21  2  0
 22 23  1  0
 23 33  2  0
 23 24  1  0
 24 25  2  0
 25 26  1  0
 26 27  1  0
 28 27  1  6
 28 30  1  0
 29 28  1  0
 30 31  2  0
 30 34  1  0
 32 26  2  0
 33 32  1  0
M  END
$$$$
