WTY.pdb
     RDKit          3D

 34 36  0  0  1  0  0  0  0  0999 V2000
   30.5336   -6.7508  -17.7674 N   0  0  0  0  0  0  0  0  0  0  0  0
   29.9610   -7.4341  -18.8881 C   0  0  1  0  0  0  0  0  0  0  0  0
   30.8014   -7.2780  -20.1297 C   0  0  0  0  0  0  0  0  0  0  0  0
   30.8285   -5.8994  -20.6644 C   0  0  0  0  0  0  0  0  0  0  0  0
   31.9727   -5.1505  -20.8289 C   0  0  0  0  0  0  0  0  0  0  0  0
   31.6517   -3.9552  -21.3578 N   0  0  0  0  0  0  0  0  0  0  0  0
   30.3168   -3.8950  -21.5478 C   0  0  0  0  0  0  0  0  0  0  0  0
   29.5246   -2.8879  -22.0528 C   0  0  0  0  0  0  0  0  0  0  0  0
   28.1709   -3.0671  -22.1406 C   0  0  0  0  0  0  0  0  0  0  0  0
   27.6447   -4.2664  -21.7133 C   0  0  0  0  0  0  0  0  0  0  0  0
   28.4421   -5.2817  -21.2044 C   0  0  0  0  0  0  0  0  0  0  0  0
   29.7986   -5.1131  -21.1131 C   0  0  0  0  0  0  0  0  0  0  0  0
   29.8249   -8.8772  -18.5707 C   0  0  0  0  0  0  0  0  0  0  0  0
   30.6841   -9.4028  -17.8226 O   0  0  0  0  0  0  0  0  0  0  0  0
   28.1845  -10.4109  -16.2654 C   0  0  0  0  0  0  0  0  0  0  0  0
   27.6895  -11.1148  -17.4973 C   0  0  1  0  0  0  0  0  0  0  0  0
   26.5299  -10.4467  -17.9108 O   0  0  0  0  0  0  0  0  0  0  0  0
   28.6704  -11.0578  -18.6437 C   0  0  2  0  0  0  0  0  0  0  0  0
   28.7756   -9.6830  -19.0715 N   0  0  0  0  0  0  0  0  0  0  0  0
   28.2832  -11.9568  -19.7558 C   0  0  0  0  0  0  0  0  0  0  0  0
   27.6597  -11.4825  -20.7234 O   0  0  0  0  0  0  0  0  0  0  0  0
   25.8926  -19.6527  -18.3623 O   0  0  0  0  0  0  0  0  0  0  0  0
   26.6126  -18.6419  -18.9904 C   0  0  0  0  0  0  0  0  0  0  0  0
   26.6209  -18.4771  -20.3551 C   0  0  0  0  0  0  0  0  0  0  0  0
   27.3394  -17.4708  -20.9614 C   0  0  0  0  0  0  0  0  0  0  0  0
   28.0947  -16.5671  -20.2391 C   0  0  0  0  0  0  0  0  0  0  0  0
   28.8791  -15.4952  -20.8613 C   0  0  0  0  0  0  0  0  0  0  0  0
   28.2078  -14.1793  -20.8450 C   0  0  2  0  0  0  0  0  0  0  0  0
   28.5946  -13.3323  -19.7600 N   0  0  0  0  0  0  0  0  0  0  0  0
   26.7411  -14.3331  -20.7803 C   0  0  0  0  0  0  0  0  0  0  0  0
   26.1407  -14.0535  -19.7103 O   0  0  0  0  0  0  0  0  0  0  0  0
   28.0781  -16.7453  -18.8475 C   0  0  0  0  0  0  0  0  0  0  0  0
   27.3585  -17.7520  -18.2470 C   0  0  0  0  0  0  0  0  0  0  0  0
   25.9869  -14.7826  -21.8731 O   0  0  0  0  0  0  0  0  0  0  0  0
  2  1  1  1
  2 13  1  0
  2  3  1  0
  4  3  1  0
  5  4  2  0
  6  7  1  0
  6  5  1  0
  7 12  2  0
  8  9  2  0
  8  7  1  0
  9 10  1  0
 10 11  2  0
 12  4  1  0
 12 11  1  0
 13 14  2  0
 16 15  1  1
 16 18  1  0
 17 16  1  0
 18 20  1  0
 18 19  1  6
 19 13  1  0
 20 29  1  0
 20 21  2  0
 22 23  1  0
 23 33  2  0
 23 24  1  0
 24 25  2  0
 25 26  1  0
 26 27  1  0
 28 27  1  1
 28 30  1  0
 29 28  1  0
 30 31  2  0
 30 34  1  0
 32 26  2  0
 33 32  1  0
M  END
$$$$
