WTY.pdb
     RDKit          3D

 34 36  0  0  1  0  0  0  0  0999 V2000
   27.5976  -22.4840  -13.5955 N   0  0  0  0  0  0  0  0  0  0  0  0
   26.6994  -21.7150  -12.7878 C   0  0  1  0  0  0  0  0  0  0  0  0
   27.3465  -20.4544  -12.2734 C   0  0  0  0  0  0  0  0  0  0  0  0
   28.2000  -20.6625  -11.0837 C   0  0  0  0  0  0  0  0  0  0  0  0
   29.5505  -20.9287  -11.1313 C   0  0  0  0  0  0  0  0  0  0  0  0
   30.0281  -21.0390   -9.8777 N   0  0  0  0  0  0  0  0  0  0  0  0
   29.0216  -20.8516   -8.9983 C   0  0  0  0  0  0  0  0  0  0  0  0
   29.0146  -20.8727   -7.6212 C   0  0  0  0  0  0  0  0  0  0  0  0
   27.8456  -20.6568   -6.9439 C   0  0  0  0  0  0  0  0  0  0  0  0
   26.7028  -20.4235   -7.6770 C   0  0  0  0  0  0  0  0  0  0  0  0
   26.7089  -20.4019   -9.0646 C   0  0  0  0  0  0  0  0  0  0  0  0
   27.8741  -20.6159   -9.7525 C   0  0  0  0  0  0  0  0  0  0  0  0
   25.5008  -21.3562  -13.5855 C   0  0  0  0  0  0  0  0  0  0  0  0
   25.6717  -20.7609  -14.6765 O   0  0  0  0  0  0  0  0  0  0  0  0
   23.6390  -23.2698  -15.4918 C   0  0  0  0  0  0  0  0  0  0  0  0
   22.5784  -22.5716  -14.6885 C   0  0  1  0  0  0  0  0  0  0  0  0
   22.1986  -23.4484  -13.6642 O   0  0  0  0  0  0  0  0  0  0  0  0
   23.0735  -21.3055  -14.0316 C   0  0  2  0  0  0  0  0  0  0  0  0
   24.1806  -21.6532  -13.1728 N   0  0  0  0  0  0  0  0  0  0  0  0
   21.9988  -20.6015  -13.2937 C   0  0  0  0  0  0  0  0  0  0  0  0
   22.0783  -20.5134  -12.0543 O   0  0  0  0  0  0  0  0  0  0  0  0
   20.3513  -15.6416  -18.4656 O   0  0  0  0  0  0  0  0  0  0  0  0
   20.2422  -16.1878  -17.1911 C   0  0  0  0  0  0  0  0  0  0  0  0
   19.0295  -16.4462  -16.5976 C   0  0  0  0  0  0  0  0  0  0  0  0
   18.9389  -16.9873  -15.3345 C   0  0  0  0  0  0  0  0  0  0  0  0
   20.0569  -17.3029  -14.5867 C   0  0  0  0  0  0  0  0  0  0  0  0
   19.9874  -17.8673  -13.2346 C   0  0  0  0  0  0  0  0  0  0  0  0
   19.8698  -19.3398  -13.2091 C   0  0  2  0  0  0  0  0  0  0  0  0
   20.8869  -20.0264  -13.9431 N   0  0  0  0  0  0  0  0  0  0  0  0
   18.5676  -19.7772  -13.7495 C   0  0  0  0  0  0  0  0  0  0  0  0
   18.5341  -20.4009  -14.8420 O   0  0  0  0  0  0  0  0  0  0  0  0
   21.2885  -17.0350  -15.2029 C   0  0  0  0  0  0  0  0  0  0  0  0
   21.3734  -16.4946  -16.4649 C   0  0  0  0  0  0  0  0  0  0  0  0
   17.3588  -19.5216  -13.0874 O   0  0  0  0  0  0  0  0  0  0  0  0
  2  1  1  6
  2 13  1  0
  2  3  1  0
  4  3  1  0
  5  4  2  0
  6  7  1  0
  6  5  1  0
  7 12  2  0
  8  9  2  0
  8  7  1  0
  9 10  1  0
 10 11  2  0
 12  4  1  0
 12 11  1  0
 13 14  2  0
 16 15  1  1
 16 18  1  0
 17 16  1  0
 18 20  1  0
 18 19  1  1
 19 13  1  0
 20 29  1  0
 20 21  2  0
 22 23  1  0
 23 33  2  0
 23 24  1  0
 24 25  2  0
 25 26  1  0
 26 27  1  0
 28 27  1  6
 28 30  1  0
 29 28  1  0
 30 31  2  0
 30 34  1  0
 32 26  2  0
 33 32  1  0
M  END
$$$$
