WTY.pdb
     RDKit          3D

 34 36  0  0  1  0  0  0  0  0999 V2000
   22.9349  -19.1419  -18.3288 N   0  0  0  0  0  0  0  0  0  0  0  0
   21.5371  -18.8650  -18.1872 C   0  0  1  0  0  0  0  0  0  0  0  0
   20.7525  -19.3059  -19.3964 C   0  0  0  0  0  0  0  0  0  0  0  0
   20.8273  -18.3641  -20.5342 C   0  0  0  0  0  0  0  0  0  0  0  0
   21.8602  -18.3231  -21.4444 C   0  0  0  0  0  0  0  0  0  0  0  0
   21.6083  -17.3720  -22.3629 N   0  0  0  0  0  0  0  0  0  0  0  0
   20.4287  -16.7801  -22.0808 C   0  0  0  0  0  0  0  0  0  0  0  0
   19.7575  -15.7617  -22.7206 C   0  0  0  0  0  0  0  0  0  0  0  0
   18.5581  -15.3237  -22.2287 C   0  0  0  0  0  0  0  0  0  0  0  0
   18.0609  -15.9274  -21.0947 C   0  0  0  0  0  0  0  0  0  0  0  0
   18.7364  -16.9536  -20.4494 C   0  0  0  0  0  0  0  0  0  0  0  0
   19.9374  -17.4004  -20.9340 C   0  0  0  0  0  0  0  0  0  0  0  0
   21.0139  -19.5626  -16.9866 C   0  0  0  0  0  0  0  0  0  0  0  0
   21.5402  -20.6532  -16.6587 O   0  0  0  0  0  0  0  0  0  0  0  0
   21.0112  -18.3637  -13.5759 C   0  0  0  0  0  0  0  0  0  0  0  0
   19.6141  -18.8478  -13.8437 C   0  0  1  0  0  0  0  0  0  0  0  0
   18.8434  -17.7196  -14.1524 O   0  0  0  0  0  0  0  0  0  0  0  0
   19.5302  -19.7829  -15.0261 C   0  0  2  0  0  0  0  0  0  0  0  0
   19.9532  -19.0559  -16.1994 N   0  0  0  0  0  0  0  0  0  0  0  0
   18.1746  -20.3582  -15.1887 C   0  0  0  0  0  0  0  0  0  0  0  0
   17.4205  -19.8844  -16.0587 O   0  0  0  0  0  0  0  0  0  0  0  0
   10.9131  -25.2937  -14.8423 O   0  0  0  0  0  0  0  0  0  0  0  0
   12.1926  -24.8009  -14.6088 C   0  0  0  0  0  0  0  0  0  0  0  0
   12.5976  -24.3471  -13.3761 C   0  0  0  0  0  0  0  0  0  0  0  0
   13.8684  -23.8620  -13.1615 C   0  0  0  0  0  0  0  0  0  0  0  0
   14.8129  -23.8006  -14.1681 C   0  0  0  0  0  0  0  0  0  0  0  0
   16.1682  -23.2762  -13.9689 C   0  0  0  0  0  0  0  0  0  0  0  0
   16.3740  -21.9272  -14.5347 C   0  0  2  0  0  0  0  0  0  0  0  0
   17.7050  -21.4242  -14.3938 N   0  0  0  0  0  0  0  0  0  0  0  0
   15.4656  -20.9457  -13.9097 C   0  0  0  0  0  0  0  0  0  0  0  0
   14.2337  -21.0023  -14.1604 O   0  0  0  0  0  0  0  0  0  0  0  0
   14.3880  -24.2667  -15.4214 C   0  0  0  0  0  0  0  0  0  0  0  0
   13.1174  -24.7505  -15.6301 C   0  0  0  0  0  0  0  0  0  0  0  0
   15.9268  -19.9459  -13.0423 O   0  0  0  0  0  0  0  0  0  0  0  0
  2  1  1  6
  2 13  1  0
  2  3  1  0
  4  3  1  0
  5  4  2  0
  6  7  1  0
  6  5  1  0
  7 12  2  0
  8  9  2  0
  8  7  1  0
  9 10  1  0
 10 11  2  0
 12  4  1  0
 12 11  1  0
 13 14  2  0
 16 15  1  6
 16 18  1  0
 17 16  1  0
 18 20  1  0
 18 19  1  6
 19 13  1  0
 20 29  1  0
 20 21  2  0
 22 23  1  0
 23 33  2  0
 23 24  1  0
 24 25  2  0
 25 26  1  0
 26 27  1  0
 28 27  1  1
 28 30  1  0
 29 28  1  0
 30 31  2  0
 30 34  1  0
 32 26  2  0
 33 32  1  0
M  END
$$$$
