WTY.pdb
     RDKit          3D

 34 36  0  0  1  0  0  0  0  0999 V2000
   23.7941  -17.5866  -16.4587 N   0  0  0  0  0  0  0  0  0  0  0  0
   22.4181  -17.6500  -16.8502 C   0  0  1  0  0  0  0  0  0  0  0  0
   22.2453  -18.3263  -18.1862 C   0  0  0  0  0  0  0  0  0  0  0  0
   22.9334  -17.6371  -19.2991 C   0  0  0  0  0  0  0  0  0  0  0  0
   24.1682  -17.9959  -19.7926 C   0  0  0  0  0  0  0  0  0  0  0  0
   24.4935  -17.1835  -20.8153 N   0  0  0  0  0  0  0  0  0  0  0  0
   23.4994  -16.2919  -21.0109 C   0  0  0  0  0  0  0  0  0  0  0  0
   23.3752  -15.2691  -21.9249 C   0  0  0  0  0  0  0  0  0  0  0  0
   22.2544  -14.4844  -21.9190 C   0  0  0  0  0  0  0  0  0  0  0  0
   21.2785  -14.7516  -20.9842 C   0  0  0  0  0  0  0  0  0  0  0  0
   21.4026  -15.7819  -20.0629 C   0  0  0  0  0  0  0  0  0  0  0  0
   22.5201  -16.5742  -20.0608 C   0  0  0  0  0  0  0  0  0  0  0  0
   21.6459  -18.3941  -15.8245 C   0  0  0  0  0  0  0  0  0  0  0  0
   22.2314  -19.3000  -15.1839 O   0  0  0  0  0  0  0  0  0  0  0  0
   20.2173  -17.1010  -12.7623 C   0  0  0  0  0  0  0  0  0  0  0  0
   19.1176  -17.8357  -13.4754 C   0  0  1  0  0  0  0  0  0  0  0  0
   18.3890  -16.8806  -14.1959 O   0  0  0  0  0  0  0  0  0  0  0  0
   19.6326  -18.8479  -14.4702 C   0  0  2  0  0  0  0  0  0  0  0  0
   20.2859  -18.1295  -15.5385 N   0  0  0  0  0  0  0  0  0  0  0  0
   18.5573  -19.7338  -14.9739 C   0  0  0  0  0  0  0  0  0  0  0  0
   18.0253  -19.4715  -16.0686 O   0  0  0  0  0  0  0  0  0  0  0  0
   12.7124  -26.1929  -16.1987 O   0  0  0  0  0  0  0  0  0  0  0  0
   13.7102  -25.3959  -15.6477 C   0  0  0  0  0  0  0  0  0  0  0  0
   13.5222  -24.6609  -14.5013 C   0  0  0  0  0  0  0  0  0  0  0  0
   14.5209  -23.8766  -13.9687 C   0  0  0  0  0  0  0  0  0  0  0  0
   15.7700  -23.7788  -14.5509 C   0  0  0  0  0  0  0  0  0  0  0  0
   16.8458  -22.9405  -14.0112 C   0  0  0  0  0  0  0  0  0  0  0  0
   17.0240  -21.6631  -14.7316 C   0  0  2  0  0  0  0  0  0  0  0  0
   18.1124  -20.8652  -14.2592 N   0  0  0  0  0  0  0  0  0  0  0  0
   15.8050  -20.8343  -14.6510 C   0  0  0  0  0  0  0  0  0  0  0  0
   14.8361  -21.0911  -15.4118 O   0  0  0  0  0  0  0  0  0  0  0  0
   15.9499  -24.5334  -15.7199 C   0  0  0  0  0  0  0  0  0  0  0  0
   14.9490  -25.3155  -16.2476 C   0  0  0  0  0  0  0  0  0  0  0  0
   15.6858  -19.7644  -13.7533 O   0  0  0  0  0  0  0  0  0  0  0  0
  2  1  1  1
  2 13  1  0
  2  3  1  0
  4  3  1  0
  5  4  2  0
  6  7  1  0
  6  5  1  0
  7 12  2  0
  8  9  2  0
  8  7  1  0
  9 10  1  0
 10 11  2  0
 12  4  1  0
 12 11  1  0
 13 14  2  0
 16 15  1  6
 16 18  1  0
 17 16  1  0
 18 20  1  0
 18 19  1  6
 19 13  1  0
 20 29  1  0
 20 21  2  0
 22 23  1  0
 23 33  2  0
 23 24  1  0
 24 25  2  0
 25 26  1  0
 26 27  1  0
 28 27  1  1
 28 30  1  0
 29 28  1  0
 30 31  2  0
 30 34  1  0
 32 26  2  0
 33 32  1  0
M  END
$$$$
