WTY.pdb
     RDKit          3D

 34 36  0  0  1  0  0  0  0  0999 V2000
   23.1299  -21.1487  -17.0080 N   0  0  0  0  0  0  0  0  0  0  0  0
   23.4091  -20.2211  -15.9533 C   0  0  1  0  0  0  0  0  0  0  0  0
   22.1552  -19.7982  -15.2314 C   0  0  0  0  0  0  0  0  0  0  0  0
   21.2720  -18.9209  -16.0299 C   0  0  0  0  0  0  0  0  0  0  0  0
   19.9995  -19.2581  -16.4349 C   0  0  0  0  0  0  0  0  0  0  0  0
   19.4626  -18.2317  -17.1203 N   0  0  0  0  0  0  0  0  0  0  0  0
   20.3533  -17.2194  -17.1790 C   0  0  0  0  0  0  0  0  0  0  0  0
   20.2666  -15.9780  -17.7691 C   0  0  0  0  0  0  0  0  0  0  0  0
   21.3259  -15.1150  -17.6959 C   0  0  0  0  0  0  0  0  0  0  0  0
   22.4558  -15.5279  -17.0247 C   0  0  0  0  0  0  0  0  0  0  0  0
   22.5441  -16.7784  -16.4297 C   0  0  0  0  0  0  0  0  0  0  0  0
   21.4890  -17.6498  -16.4962 C   0  0  0  0  0  0  0  0  0  0  0  0
   24.3436  -20.8425  -14.9826 C   0  0  0  0  0  0  0  0  0  0  0  0
   24.1906  -22.0569  -14.7072 O   0  0  0  0  0  0  0  0  0  0  0  0
   27.9576  -21.2634  -15.1487 C   0  0  0  0  0  0  0  0  0  0  0  0
   27.6651  -20.6353  -13.8153 C   0  0  1  0  0  0  0  0  0  0  0  0
   27.9003  -19.2611  -13.9511 O   0  0  0  0  0  0  0  0  0  0  0  0
   26.2269  -20.8018  -13.3873 C   0  0  2  0  0  0  0  0  0  0  0  0
   25.3935  -20.1306  -14.3564 N   0  0  0  0  0  0  0  0  0  0  0  0
   25.9914  -20.3025  -12.0125 C   0  0  0  0  0  0  0  0  0  0  0  0
   25.7049  -19.1019  -11.8494 O   0  0  0  0  0  0  0  0  0  0  0  0
   19.8461  -19.2806  -11.1143 O   0  0  0  0  0  0  0  0  0  0  0  0
   21.0456  -19.7004  -10.5490 C   0  0  0  0  0  0  0  0  0  0  0  0
   21.9362  -18.8282   -9.9696 C   0  0  0  0  0  0  0  0  0  0  0  0
   23.1200  -19.2603   -9.4142 C   0  0  0  0  0  0  0  0  0  0  0  0
   23.4860  -20.5925   -9.4047 C   0  0  0  0  0  0  0  0  0  0  0  0
   24.7465  -21.0765   -8.8318 C   0  0  0  0  0  0  0  0  0  0  0  0
   25.9473  -20.6115   -9.5560 C   0  0  2  0  0  0  0  0  0  0  0  0
   26.0797  -21.1371  -10.8791 N   0  0  0  0  0  0  0  0  0  0  0  0
   27.1786  -20.9602   -8.8201 C   0  0  0  0  0  0  0  0  0  0  0  0
   27.3498  -20.5059   -7.6591 O   0  0  0  0  0  0  0  0  0  0  0  0
   22.5690  -21.4728   -9.9985 C   0  0  0  0  0  0  0  0  0  0  0  0
   21.3879  -21.0359  -10.5517 C   0  0  0  0  0  0  0  0  0  0  0  0
   28.1711  -21.7833   -9.3699 O   0  0  0  0  0  0  0  0  0  0  0  0
  2  1  1  6
  2 13  1  0
  2  3  1  0
  4  3  1  0
  5  4  2  0
  6  7  1  0
  6  5  1  0
  7 12  2  0
  8  9  2  0
  8  7  1  0
  9 10  1  0
 10 11  2  0
 12  4  1  0
 12 11  1  0
 13 14  2  0
 16 15  1  6
 16 18  1  0
 17 16  1  0
 18 20  1  0
 18 19  1  6
 19 13  1  0
 20 29  1  0
 20 21  2  0
 22 23  1  0
 23 33  2  0
 23 24  1  0
 24 25  2  0
 25 26  1  0
 26 27  1  0
 28 27  1  1
 28 30  1  0
 29 28  1  0
 30 31  2  0
 30 34  1  0
 32 26  2  0
 33 32  1  0
M  END
$$$$
