WTY.pdb
     RDKit          3D

 34 36  0  0  1  0  0  0  0  0999 V2000
   20.5045  -19.2526  -23.1647 N   0  0  0  0  0  0  0  0  0  0  0  0
   20.3403  -18.3310  -22.0810 C   0  0  1  0  0  0  0  0  0  0  0  0
   19.4871  -17.1514  -22.4718 C   0  0  0  0  0  0  0  0  0  0  0  0
   20.1165  -16.2631  -23.4727 C   0  0  0  0  0  0  0  0  0  0  0  0
   20.4825  -16.6557  -24.7412 C   0  0  0  0  0  0  0  0  0  0  0  0
   21.0025  -15.6041  -25.4012 N   0  0  0  0  0  0  0  0  0  0  0  0
   20.9895  -14.5209  -24.5962 C   0  0  0  0  0  0  0  0  0  0  0  0
   21.4157  -13.2301  -24.8181 C   0  0  0  0  0  0  0  0  0  0  0  0
   21.3006  -12.2960  -23.8249 C   0  0  0  0  0  0  0  0  0  0  0  0
   20.7548  -12.6891  -22.6226 C   0  0  0  0  0  0  0  0  0  0  0  0
   20.3250  -13.9893  -22.3982 C   0  0  0  0  0  0  0  0  0  0  0  0
   20.4347  -14.9321  -23.3861 C   0  0  0  0  0  0  0  0  0  0  0  0
   19.7116  -19.0268  -20.9310 C   0  0  0  0  0  0  0  0  0  0  0  0
   18.8027  -19.8587  -21.1669 O   0  0  0  0  0  0  0  0  0  0  0  0
   21.2561  -21.2734  -18.5492 C   0  0  0  0  0  0  0  0  0  0  0  0
   20.5119  -20.2493  -17.7397 C   0  0  1  0  0  0  0  0  0  0  0  0
   21.4467  -19.2843  -17.3435 O   0  0  0  0  0  0  0  0  0  0  0  0
   19.4418  -19.5360  -18.5307 C   0  0  2  0  0  0  0  0  0  0  0  0
   20.0888  -18.7951  -19.5874 N   0  0  0  0  0  0  0  0  0  0  0  0
   18.6021  -18.6647  -17.6759 C   0  0  0  0  0  0  0  0  0  0  0  0
   18.9764  -17.4980  -17.4550 O   0  0  0  0  0  0  0  0  0  0  0  0
   11.4502  -20.0572  -19.6583 O   0  0  0  0  0  0  0  0  0  0  0  0
   12.4984  -19.3923  -19.0308 C   0  0  0  0  0  0  0  0  0  0  0  0
   13.6733  -19.0872  -19.6758 C   0  0  0  0  0  0  0  0  0  0  0  0
   14.7018  -18.4282  -19.0400 C   0  0  0  0  0  0  0  0  0  0  0  0
   14.6181  -18.0340  -17.7184 C   0  0  0  0  0  0  0  0  0  0  0  0
   15.7038  -17.3431  -17.0146 C   0  0  0  0  0  0  0  0  0  0  0  0
   16.6045  -18.2494  -16.2729 C   0  0  2  0  0  0  0  0  0  0  0  0
   17.3925  -19.1075  -17.1018 N   0  0  0  0  0  0  0  0  0  0  0  0
   15.8442  -19.1113  -15.3465 C   0  0  0  0  0  0  0  0  0  0  0  0
   15.1058  -18.5785  -14.4780 O   0  0  0  0  0  0  0  0  0  0  0  0
   13.4144  -18.3506  -17.0709 C   0  0  0  0  0  0  0  0  0  0  0  0
   12.3902  -19.0088  -17.7109 C   0  0  0  0  0  0  0  0  0  0  0  0
   15.9149  -20.5103  -15.3980 O   0  0  0  0  0  0  0  0  0  0  0  0
  2  1  1  6
  2 13  1  0
  2  3  1  0
  4  3  1  0
  5  4  2  0
  6  7  1  0
  6  5  1  0
  7 12  2  0
  8  9  2  0
  8  7  1  0
  9 10  1  0
 10 11  2  0
 12  4  1  0
 12 11  1  0
 13 14  2  0
 16 15  1  6
 16 18  1  0
 17 16  1  0
 18 20  1  0
 18 19  1  6
 19 13  1  0
 20 29  1  0
 20 21  2  0
 22 23  1  0
 23 33  2  0
 23 24  1  0
 24 25  2  0
 25 26  1  0
 26 27  1  0
 28 27  1  6
 28 30  1  0
 29 28  1  0
 30 31  2  0
 30 34  1  0
 32 26  2  0
 33 32  1  0
M  END
$$$$
