WTY.pdb
     RDKit          3D

 34 36  0  0  1  0  0  0  0  0999 V2000
   34.6937  -17.8395   10.7759 N   0  0  0  0  0  0  0  0  0  0  0  0
   33.8404  -18.9151   10.3689 C   0  0  1  0  0  0  0  0  0  0  0  0
   33.6679  -18.9590    8.8721 C   0  0  0  0  0  0  0  0  0  0  0  0
   32.8022  -17.8855    8.3379 C   0  0  0  0  0  0  0  0  0  0  0  0
   33.2676  -16.7151    7.7803 C   0  0  0  0  0  0  0  0  0  0  0  0
   32.2240  -15.9688    7.3734 N   0  0  0  0  0  0  0  0  0  0  0  0
   31.0746  -16.6199    7.6499 C   0  0  0  0  0  0  0  0  0  0  0  0
   29.7629  -16.2626    7.4295 C   0  0  0  0  0  0  0  0  0  0  0  0
   28.7551  -17.1053    7.8123 C   0  0  0  0  0  0  0  0  0  0  0  0
   29.0970  -18.2969    8.4130 C   0  0  0  0  0  0  0  0  0  0  0  0
   30.4183  -18.6579    8.6354 C   0  0  0  0  0  0  0  0  0  0  0  0
   31.4349  -17.8220    8.2552 C   0  0  0  0  0  0  0  0  0  0  0  0
   34.4141  -20.2034   10.8307 C   0  0  0  0  0  0  0  0  0  0  0  0
   35.6629  -20.3110   10.8826 O   0  0  0  0  0  0  0  0  0  0  0  0
   33.8768  -21.8730   14.1345 C   0  0  0  0  0  0  0  0  0  0  0  0
   33.5867  -22.8550   13.0347 C   0  0  1  0  0  0  0  0  0  0  0  0
   32.2043  -22.8207   12.8112 O   0  0  0  0  0  0  0  0  0  0  0  0
   34.2587  -22.4965   11.7311 C   0  0  2  0  0  0  0  0  0  0  0  0
   33.6200  -21.3102   11.2126 N   0  0  0  0  0  0  0  0  0  0  0  0
   34.2255  -23.6143   10.7593 C   0  0  0  0  0  0  0  0  0  0  0  0
   33.4520  -23.5426    9.7863 O   0  0  0  0  0  0  0  0  0  0  0  0
   39.1636  -28.2453   14.1792 O   0  0  0  0  0  0  0  0  0  0  0  0
   38.5142  -27.7409   13.0573 C   0  0  0  0  0  0  0  0  0  0  0  0
   38.6479  -26.4351   12.6492 C   0  0  0  0  0  0  0  0  0  0  0  0
   37.9978  -25.9513   11.5358 C   0  0  0  0  0  0  0  0  0  0  0  0
   37.1730  -26.7447   10.7619 C   0  0  0  0  0  0  0  0  0  0  0  0
   36.4590  -26.2504    9.5797 C   0  0  0  0  0  0  0  0  0  0  0  0
   35.0981  -25.7542    9.8700 C   0  0  2  0  0  0  0  0  0  0  0  0
   35.0384  -24.7587   10.8946 N   0  0  0  0  0  0  0  0  0  0  0  0
   34.2070  -26.8580   10.2782 C   0  0  0  0  0  0  0  0  0  0  0  0
   33.6806  -26.8320   11.4209 O   0  0  0  0  0  0  0  0  0  0  0  0
   37.0447  -28.0752   11.1881 C   0  0  0  0  0  0  0  0  0  0  0  0
   37.6965  -28.5534   12.3009 C   0  0  0  0  0  0  0  0  0  0  0  0
   33.9240  -27.9418    9.4355 O   0  0  0  0  0  0  0  0  0  0  0  0
  2  1  1  6
  2 13  1  0
  2  3  1  0
  4  3  1  0
  5  4  2  0
  6  7  1  0
  6  5  1  0
  7 12  2  0
  8  9  2  0
  8  7  1  0
  9 10  1  0
 10 11  2  0
 12  4  1  0
 12 11  1  0
 13 14  2  0
 16 15  1  1
 16 18  1  0
 17 16  1  0
 18 20  1  0
 18 19  1  6
 19 13  1  0
 20 29  1  0
 20 21  2  0
 22 23  1  0
 23 33  2  0
 23 24  1  0
 24 25  2  0
 25 26  1  0
 26 27  1  0
 28 27  1  1
 28 30  1  0
 29 28  1  0
 30 31  2  0
 30 34  1  0
 32 26  2  0
 33 32  1  0
M  END
$$$$
