WTY.pdb
     RDKit          3D

 34 36  0  0  1  0  0  0  0  0999 V2000
   28.0838  -21.0247  -12.4785 N   0  0  0  0  0  0  0  0  0  0  0  0
   26.7763  -21.3182  -11.9734 C   0  0  1  0  0  0  0  0  0  0  0  0
   26.5222  -20.6447  -10.6490 C   0  0  0  0  0  0  0  0  0  0  0  0
   27.6544  -20.7397   -9.7024 C   0  0  0  0  0  0  0  0  0  0  0  0
   28.8485  -21.3687   -9.9775 C   0  0  0  0  0  0  0  0  0  0  0  0
   29.6688  -21.2527   -8.9166 N   0  0  0  0  0  0  0  0  0  0  0  0
   29.0433  -20.5595   -7.9422 C   0  0  0  0  0  0  0  0  0  0  0  0
   29.4676  -20.1941   -6.6839 C   0  0  0  0  0  0  0  0  0  0  0  0
   28.6320  -19.4861   -5.8636 C   0  0  0  0  0  0  0  0  0  0  0  0
   27.3791  -19.1615   -6.3353 C   0  0  0  0  0  0  0  0  0  0  0  0
   26.9507  -19.5291   -7.6031 C   0  0  0  0  0  0  0  0  0  0  0  0
   27.7796  -20.2371   -8.4327 C   0  0  0  0  0  0  0  0  0  0  0  0
   25.7556  -20.8684  -12.9520 C   0  0  0  0  0  0  0  0  0  0  0  0
   26.0417  -19.9085  -13.7074 O   0  0  0  0  0  0  0  0  0  0  0  0
   25.6665  -20.5996  -15.5303 C   0  0  0  0  0  0  0  0  0  0  0  0
   24.3625  -21.3421  -15.4532 C   0  0  1  0  0  0  0  0  0  0  0  0
   24.6676  -22.7085  -15.4978 O   0  0  0  0  0  0  0  0  0  0  0  0
   23.6170  -21.0931  -14.1641 C   0  0  2  0  0  0  0  0  0  0  0  0
   24.4807  -21.4700  -13.0705 N   0  0  0  0  0  0  0  0  0  0  0  0
   22.3212  -21.8101  -14.1202 C   0  0  0  0  0  0  0  0  0  0  0  0
   22.2548  -22.8958  -13.5145 O   0  0  0  0  0  0  0  0  0  0  0  0
   19.6317  -18.2294   -9.3090 O   0  0  0  0  0  0  0  0  0  0  0  0
   19.4342  -18.8949  -10.5142 C   0  0  0  0  0  0  0  0  0  0  0  0
   19.5768  -18.2764  -11.7335 C   0  0  0  0  0  0  0  0  0  0  0  0
   19.3774  -18.9498  -12.9180 C   0  0  0  0  0  0  0  0  0  0  0  0
   19.0224  -20.2845  -12.9555 C   0  0  0  0  0  0  0  0  0  0  0  0
   18.7912  -21.0209  -14.2028 C   0  0  0  0  0  0  0  0  0  0  0  0
   19.8885  -21.9423  -14.5626 C   0  0  2  0  0  0  0  0  0  0  0  0
   21.1579  -21.3086  -14.7399 N   0  0  0  0  0  0  0  0  0  0  0  0
   19.5828  -22.6692  -15.8106 C   0  0  0  0  0  0  0  0  0  0  0  0
   18.5875  -23.4383  -15.8455 O   0  0  0  0  0  0  0  0  0  0  0  0
   18.8801  -20.9049  -11.7051 C   0  0  0  0  0  0  0  0  0  0  0  0
   19.0807  -20.2275  -10.5250 C   0  0  0  0  0  0  0  0  0  0  0  0
   20.3654  -22.5344  -16.9657 O   0  0  0  0  0  0  0  0  0  0  0  0
  2  1  1  6
  2 13  1  0
  2  3  1  0
  4  3  1  0
  5  4  2  0
  6  7  1  0
  6  5  1  0
  7 12  2  0
  8  9  2  0
  8  7  1  0
  9 10  1  0
 10 11  2  0
 12  4  1  0
 12 11  1  0
 13 14  2  0
 16 15  1  1
 16 18  1  0
 17 16  1  0
 18 20  1  0
 18 19  1  1
 19 13  1  0
 20 29  1  0
 20 21  2  0
 22 23  1  0
 23 33  2  0
 23 24  1  0
 24 25  2  0
 25 26  1  0
 26 27  1  0
 28 27  1  6
 28 30  1  0
 29 28  1  0
 30 31  2  0
 30 34  1  0
 32 26  2  0
 33 32  1  0
M  END
$$$$
