FYN.pdb
     RDKit          3D

 32 33  0  0  1  0  0  0  0  0999 V2000
    8.8083  -15.8576   21.3797 N   0  0  0  0  0  0  0  0  0  0  0  0
    9.9383  -14.9842   21.3207 C   0  0  1  0  0  0  0  0  0  0  0  0
    9.5398  -13.5227   21.2405 C   0  0  0  0  0  0  0  0  0  0  0  0
    8.5143  -13.3396   20.1819 C   0  0  0  0  0  0  0  0  0  0  0  0
    8.8577  -13.1673   18.8569 C   0  0  0  0  0  0  0  0  0  0  0  0
    7.9224  -13.0013   17.8858 C   0  0  0  0  0  0  0  0  0  0  0  0
    6.5824  -13.0007   18.2038 C   0  0  0  0  0  0  0  0  0  0  0  0
    6.2019  -13.1683   19.5023 C   0  0  0  0  0  0  0  0  0  0  0  0
    7.1560  -13.3356   20.4791 C   0  0  0  0  0  0  0  0  0  0  0  0
   10.7554  -15.2307   22.5590 C   0  0  0  0  0  0  0  0  0  0  0  0
   11.8963  -14.7014   22.5935 O   0  0  0  0  0  0  0  0  0  0  0  0
   11.1533  -15.6906   31.4518 O   0  0  0  0  0  0  0  0  0  0  0  0
   10.8488  -15.6764   30.0923 C   0  0  0  0  0  0  0  0  0  0  0  0
   10.5498  -16.8412   29.4453 C   0  0  0  0  0  0  0  0  0  0  0  0
   10.2515  -16.8403   28.1194 C   0  0  0  0  0  0  0  0  0  0  0  0
   10.2278  -15.6771   27.3348 C   0  0  0  0  0  0  0  0  0  0  0  0
    9.9561  -15.6734   25.9198 C   0  0  0  0  0  0  0  0  0  0  0  0
   10.9845  -16.0399   24.9377 C   0  0  2  0  0  0  0  0  0  0  0  0
   10.2769  -16.0109   23.6283 N   0  0  0  0  0  0  0  0  0  0  0  0
   11.5488  -17.3848   25.0673 C   0  0  0  0  0  0  0  0  0  0  0  0
   12.0703  -17.7611   26.1620 O   0  0  0  0  0  0  0  0  0  0  0  0
   10.5302  -14.5126   28.0000 C   0  0  0  0  0  0  0  0  0  0  0  0
   10.8389  -14.5052   29.3653 C   0  0  0  0  0  0  0  0  0  0  0  0
   10.0209  -20.1448   21.4976 N   0  0  0  0  0  0  0  0  0  0  0  0
   10.7890  -20.6756   22.6027 C   0  0  0  0  0  0  0  0  0  0  0  0
   10.2204  -21.4532   23.3769 O   0  0  0  0  0  0  0  0  0  0  0  0
   12.1805  -20.2871   22.7677 C   0  0  0  0  0  0  0  0  0  0  0  0
   12.3619  -19.5137   24.0676 C   0  0  2  0  0  0  0  0  0  0  0  0
   11.5154  -18.2951   23.9737 N   0  0  0  0  0  0  0  0  0  0  0  0
   13.7607  -19.0579   24.1191 C   0  0  0  0  0  0  0  0  0  0  0  0
   14.3491  -18.3969   23.2305 O   0  0  0  0  0  0  0  0  0  0  0  0
   14.5503  -19.3627   25.2448 O   0  0  0  0  0  0  0  0  0  0  0  0
  2  1  1  1
  2  3  1  0
  3  4  1  0
  4  9  1  0
  4  5  2  0
  5  6  1  0
  7  6  2  0
  8  7  1  0
  9  8  2  0
 10  2  1  0
 11 10  2  0
 13 12  1  0
 13 23  2  0
 14 13  1  0
 15 14  2  0
 15 16  1  0
 16 22  2  0
 17 16  1  0
 18 19  1  0
 18 17  1  1
 19 10  1  0
 20 18  1  0
 21 20  2  0
 22 23  1  0
 24 25  1  0
 25 26  2  0
 28 27  1  6
 27 25  1  0
 28 29  1  0
 29 20  1  0
 30 32  1  0
 30 28  1  0
 31 30  2  0
M  END
$$$$
