FYN.pdb
     RDKit          3D

 32 33  0  0  1  0  0  0  0  0999 V2000
    8.0753  -17.3040   19.8605 N   0  0  0  0  0  0  0  0  0  0  0  0
    9.3428  -16.6514   19.7573 C   0  0  1  0  0  0  0  0  0  0  0  0
    9.3671  -15.5977   18.6663 C   0  0  0  0  0  0  0  0  0  0  0  0
    8.4194  -14.5048   19.0032 C   0  0  0  0  0  0  0  0  0  0  0  0
    7.0543  -14.7037   19.0204 C   0  0  0  0  0  0  0  0  0  0  0  0
    6.1848  -13.7070   19.3296 C   0  0  0  0  0  0  0  0  0  0  0  0
    6.6510  -12.4488   19.6399 C   0  0  0  0  0  0  0  0  0  0  0  0
    7.9937  -12.2115   19.6341 C   0  0  0  0  0  0  0  0  0  0  0  0
    8.8669  -13.2269   19.3196 C   0  0  0  0  0  0  0  0  0  0  0  0
    9.6277  -16.0205   21.0925 C   0  0  0  0  0  0  0  0  0  0  0  0
   10.7599  -15.4900   21.2327 O   0  0  0  0  0  0  0  0  0  0  0  0
    7.1545  -12.3272   28.9140 O   0  0  0  0  0  0  0  0  0  0  0  0
    7.3050  -12.8796   27.6437 C   0  0  0  0  0  0  0  0  0  0  0  0
    6.5761  -13.9766   27.2833 C   0  0  0  0  0  0  0  0  0  0  0  0
    6.7143  -14.5247   26.0473 C   0  0  0  0  0  0  0  0  0  0  0  0
    7.5905  -14.0212   25.0737 C   0  0  0  0  0  0  0  0  0  0  0  0
    7.7752  -14.6226   23.7776 C   0  0  0  0  0  0  0  0  0  0  0  0
    8.9865  -15.3848   23.4484 C   0  0  2  0  0  0  0  0  0  0  0  0
    8.6832  -16.0186   22.1361 N   0  0  0  0  0  0  0  0  0  0  0  0
    9.3275  -16.4780   24.3609 C   0  0  0  0  0  0  0  0  0  0  0  0
    8.6300  -17.5386   24.3836 O   0  0  0  0  0  0  0  0  0  0  0  0
    8.3168  -12.9165   25.4509 C   0  0  0  0  0  0  0  0  0  0  0  0
    8.1805  -12.3464   26.7221 C   0  0  0  0  0  0  0  0  0  0  0  0
   11.8957  -19.4688   24.3333 N   0  0  0  0  0  0  0  0  0  0  0  0
   12.7144  -18.4085   24.8798 C   0  0  0  0  0  0  0  0  0  0  0  0
   13.7671  -18.1349   24.2932 O   0  0  0  0  0  0  0  0  0  0  0  0
   12.2837  -17.7089   26.0796 C   0  0  0  0  0  0  0  0  0  0  0  0
   10.7685  -17.5506   26.0831 C   0  0  2  0  0  0  0  0  0  0  0  0
   10.4493  -16.3749   25.2308 N   0  0  0  0  0  0  0  0  0  0  0  0
   10.3635  -17.2046   27.4554 C   0  0  0  0  0  0  0  0  0  0  0  0
    9.9866  -16.0737   27.8449 O   0  0  0  0  0  0  0  0  0  0  0  0
   10.3808  -18.1954   28.4561 O   0  0  0  0  0  0  0  0  0  0  0  0
  2  1  1  1
  2  3  1  0
  3  4  1  0
  4  9  1  0
  4  5  2  0
  5  6  1  0
  7  6  2  0
  8  7  1  0
  9  8  2  0
 10  2  1  0
 11 10  2  0
 13 12  1  0
 13 23  2  0
 14 13  1  0
 15 14  2  0
 15 16  1  0
 16 22  2  0
 17 16  1  0
 18 19  1  0
 18 17  1  1
 19 10  1  0
 20 18  1  0
 21 20  2  0
 22 23  1  0
 24 25  1  0
 25 26  2  0
 28 27  1  1
 27 25  1  0
 28 29  1  0
 29 20  1  0
 30 32  1  0
 30 28  1  0
 31 30  2  0
M  END
$$$$
