FYN.pdb
     RDKit          3D

 32 33  0  0  1  0  0  0  0  0999 V2000
    6.6472  -13.4394   21.8949 N   0  0  0  0  0  0  0  0  0  0  0  0
    7.7925  -14.2237   21.5538 C   0  0  1  0  0  0  0  0  0  0  0  0
    8.5283  -13.6820   20.3429 C   0  0  0  0  0  0  0  0  0  0  0  0
    7.6744  -13.8168   19.1352 C   0  0  0  0  0  0  0  0  0  0  0  0
    7.3344  -15.0494   18.6172 C   0  0  0  0  0  0  0  0  0  0  0  0
    6.5523  -15.1764   17.5139 C   0  0  0  0  0  0  0  0  0  0  0  0
    6.0691  -14.0582   16.8715 C   0  0  0  0  0  0  0  0  0  0  0  0
    6.3824  -12.8214   17.3524 C   0  0  0  0  0  0  0  0  0  0  0  0
    7.1753  -12.7022   18.4703 C   0  0  0  0  0  0  0  0  0  0  0  0
    8.7010  -14.2279   22.7523 C   0  0  0  0  0  0  0  0  0  0  0  0
    9.4234  -13.2104   22.9130 O   0  0  0  0  0  0  0  0  0  0  0  0
   11.2569  -15.9076   31.0898 O   0  0  0  0  0  0  0  0  0  0  0  0
   10.6696  -15.7337   29.8383 C   0  0  0  0  0  0  0  0  0  0  0  0
   10.1309  -16.8020   29.1803 C   0  0  0  0  0  0  0  0  0  0  0  0
    9.5556  -16.6452   27.9590 C   0  0  0  0  0  0  0  0  0  0  0  0
    9.4725  -15.4100   27.2983 C   0  0  0  0  0  0  0  0  0  0  0  0
    8.9042  -15.2433   25.9848 C   0  0  0  0  0  0  0  0  0  0  0  0
    9.7275  -15.3375   24.7724 C   0  0  2  0  0  0  0  0  0  0  0  0
    8.7470  -15.3089   23.6527 N   0  0  0  0  0  0  0  0  0  0  0  0
   10.4965  -16.5730   24.6105 C   0  0  0  0  0  0  0  0  0  0  0  0
    9.9528  -17.6098   24.1192 O   0  0  0  0  0  0  0  0  0  0  0  0
   10.0185  -14.3440   27.9733 C   0  0  0  0  0  0  0  0  0  0  0  0
   10.6131  -14.4973   29.2312 C   0  0  0  0  0  0  0  0  0  0  0  0
   13.6773  -19.9817   22.4161 N   0  0  0  0  0  0  0  0  0  0  0  0
   14.2139  -18.9008   23.2139 C   0  0  0  0  0  0  0  0  0  0  0  0
   15.3621  -19.0260   23.6536 O   0  0  0  0  0  0  0  0  0  0  0  0
   13.4032  -17.7212   23.4706 C   0  0  0  0  0  0  0  0  0  0  0  0
   12.5944  -17.9045   24.7485 C   0  0  2  0  0  0  0  0  0  0  0  0
   11.8664  -16.6312   24.9922 N   0  0  0  0  0  0  0  0  0  0  0  0
   13.5496  -18.0679   25.8565 C   0  0  0  0  0  0  0  0  0  0  0  0
   13.8189  -19.1455   26.4389 O   0  0  0  0  0  0  0  0  0  0  0  0
   14.2508  -16.9467   26.3410 O   0  0  0  0  0  0  0  0  0  0  0  0
  2  1  1  1
  2  3  1  0
  3  4  1  0
  4  9  1  0
  4  5  2  0
  5  6  1  0
  7  6  2  0
  8  7  1  0
  9  8  2  0
 10  2  1  0
 11 10  2  0
 13 12  1  0
 13 23  2  0
 14 13  1  0
 15 14  2  0
 15 16  1  0
 16 22  2  0
 17 16  1  0
 18 19  1  0
 18 17  1  1
 19 10  1  0
 20 18  1  0
 21 20  2  0
 22 23  1  0
 24 25  1  0
 25 26  2  0
 28 27  1  6
 27 25  1  0
 28 29  1  0
 29 20  1  0
 30 32  1  0
 30 28  1  0
 31 30  2  0
M  END
$$$$
