FYN.pdb
     RDKit          3D

 32 33  0  0  1  0  0  0  0  0999 V2000
    9.3618  -15.9564   19.4110 N   0  0  0  0  0  0  0  0  0  0  0  0
    9.2742  -16.8524   20.5213 C   0  0  1  0  0  0  0  0  0  0  0  0
    9.9189  -18.1957   20.2364 C   0  0  0  0  0  0  0  0  0  0  0  0
    9.0490  -18.9874   19.3295 C   0  0  0  0  0  0  0  0  0  0  0  0
    7.9764  -19.7158   19.8011 C   0  0  0  0  0  0  0  0  0  0  0  0
    7.1778  -20.4397   18.9743 C   0  0  0  0  0  0  0  0  0  0  0  0
    7.4216  -20.4660   17.6191 C   0  0  0  0  0  0  0  0  0  0  0  0
    8.4722  -19.7590   17.1136 C   0  0  0  0  0  0  0  0  0  0  0  0
    9.2759  -19.0289   17.9583 C   0  0  0  0  0  0  0  0  0  0  0  0
    9.9571  -16.1869   21.6842 C   0  0  0  0  0  0  0  0  0  0  0  0
   10.9538  -15.4682   21.4138 O   0  0  0  0  0  0  0  0  0  0  0  0
   10.6783  -14.4757   30.5377 O   0  0  0  0  0  0  0  0  0  0  0  0
   10.3047  -14.7253   29.2188 C   0  0  0  0  0  0  0  0  0  0  0  0
   10.1297  -16.0091   28.7879 C   0  0  0  0  0  0  0  0  0  0  0  0
    9.7658  -16.2654   27.5037 C   0  0  0  0  0  0  0  0  0  0  0  0
    9.5478  -15.2607   26.5486 C   0  0  0  0  0  0  0  0  0  0  0  0
    9.2052  -15.5257   25.1744 C   0  0  0  0  0  0  0  0  0  0  0  0
   10.2370  -15.7304   24.1497 C   0  0  2  0  0  0  0  0  0  0  0  0
    9.5114  -16.3532   23.0090 N   0  0  0  0  0  0  0  0  0  0  0  0
   11.3179  -16.6542   24.4996 C   0  0  0  0  0  0  0  0  0  0  0  0
   11.1022  -17.9039   24.5594 O   0  0  0  0  0  0  0  0  0  0  0  0
    9.7272  -13.9736   26.9973 C   0  0  0  0  0  0  0  0  0  0  0  0
   10.1023  -13.7014   28.3181 C   0  0  0  0  0  0  0  0  0  0  0  0
   14.9299  -17.4525   22.3388 N   0  0  0  0  0  0  0  0  0  0  0  0
   15.1216  -16.3275   23.2279 C   0  0  0  0  0  0  0  0  0  0  0  0
   15.3663  -15.2281   22.7193 O   0  0  0  0  0  0  0  0  0  0  0  0
   15.0228  -16.5185   24.6661 C   0  0  0  0  0  0  0  0  0  0  0  0
   13.6948  -17.1750   25.0213 C   0  0  2  0  0  0  0  0  0  0  0  0
   12.6286  -16.1697   24.7700 N   0  0  0  0  0  0  0  0  0  0  0  0
   13.7033  -17.4338   26.4704 C   0  0  0  0  0  0  0  0  0  0  0  0
   14.1500  -18.4645   27.0280 O   0  0  0  0  0  0  0  0  0  0  0  0
   13.1773  -16.4696   27.3519 O   0  0  0  0  0  0  0  0  0  0  0  0
  2  1  1  6
  2  3  1  0
  3  4  1  0
  4  9  1  0
  4  5  2  0
  5  6  1  0
  7  6  2  0
  8  7  1  0
  9  8  2  0
 10  2  1  0
 11 10  2  0
 13 12  1  0
 13 23  2  0
 14 13  1  0
 15 14  2  0
 15 16  1  0
 16 22  2  0
 17 16  1  0
 18 19  1  0
 18 17  1  1
 19 10  1  0
 20 18  1  0
 21 20  2  0
 22 23  1  0
 24 25  1  0
 25 26  2  0
 28 27  1  1
 27 25  1  0
 28 29  1  0
 29 20  1  0
 30 32  1  0
 30 28  1  0
 31 30  2  0
M  END
$$$$
