FYN.pdb
     RDKit          3D

 32 33  0  0  1  0  0  0  0  0999 V2000
    6.7284  -18.0328   26.3964 N   0  0  0  0  0  0  0  0  0  0  0  0
    6.9791  -16.7005   25.9434 C   0  0  1  0  0  0  0  0  0  0  0  0
    8.0654  -16.0087   26.7449 C   0  0  0  0  0  0  0  0  0  0  0  0
    7.7256  -14.5730   26.9158 C   0  0  0  0  0  0  0  0  0  0  0  0
    8.5953  -13.6846   27.5139 C   0  0  0  0  0  0  0  0  0  0  0  0
    8.2885  -12.3706   27.6703 C   0  0  0  0  0  0  0  0  0  0  0  0
    7.0795  -11.8813   27.2280 C   0  0  0  0  0  0  0  0  0  0  0  0
    6.1922  -12.7274   26.6313 C   0  0  0  0  0  0  0  0  0  0  0  0
    6.5113  -14.0566   26.4772 C   0  0  0  0  0  0  0  0  0  0  0  0
    7.3813  -16.7913   24.4971 C   0  0  0  0  0  0  0  0  0  0  0  0
    7.7311  -17.9263   24.0818 O   0  0  0  0  0  0  0  0  0  0  0  0
    7.8638  -13.2913   16.1222 O   0  0  0  0  0  0  0  0  0  0  0  0
    7.7537  -13.5839   17.4800 C   0  0  0  0  0  0  0  0  0  0  0  0
    7.0029  -14.6472   17.8927 C   0  0  0  0  0  0  0  0  0  0  0  0
    6.8875  -14.9424   19.2143 C   0  0  0  0  0  0  0  0  0  0  0  0
    7.5123  -14.2000   20.2281 C   0  0  0  0  0  0  0  0  0  0  0  0
    7.3591  -14.4798   21.6331 C   0  0  0  0  0  0  0  0  0  0  0  0
    7.6523  -15.8065   22.1901 C   0  0  2  0  0  0  0  0  0  0  0  0
    7.3698  -15.6708   23.6453 N   0  0  0  0  0  0  0  0  0  0  0  0
    9.0416  -16.2570   22.0840 C   0  0  0  0  0  0  0  0  0  0  0  0
    9.4344  -16.8961   21.0597 O   0  0  0  0  0  0  0  0  0  0  0  0
    8.2650  -13.1333   19.7971 C   0  0  0  0  0  0  0  0  0  0  0  0
    8.3886  -12.8224   18.4379 C   0  0  0  0  0  0  0  0  0  0  0  0
   14.1089  -16.7696   24.3233 N   0  0  0  0  0  0  0  0  0  0  0  0
   13.6489  -15.6373   23.5493 C   0  0  0  0  0  0  0  0  0  0  0  0
   14.4850  -15.0209   22.8797 O   0  0  0  0  0  0  0  0  0  0  0  0
   12.2438  -15.2640   23.5804 C   0  0  0  0  0  0  0  0  0  0  0  0
   11.4025  -16.3158   22.8686 C   0  0  2  0  0  0  0  0  0  0  0  0
    9.9763  -15.9797   23.1209 N   0  0  0  0  0  0  0  0  0  0  0  0
   11.6589  -17.6070   23.5274 C   0  0  0  0  0  0  0  0  0  0  0  0
   12.3352  -18.5503   23.0526 O   0  0  0  0  0  0  0  0  0  0  0  0
   11.1219  -17.8539   24.8058 O   0  0  0  0  0  0  0  0  0  0  0  0
  2  1  1  1
  2  3  1  0
  3  4  1  0
  4  9  1  0
  4  5  2  0
  5  6  1  0
  7  6  2  0
  8  7  1  0
  9  8  2  0
 10  2  1  0
 11 10  2  0
 13 12  1  0
 13 23  2  0
 14 13  1  0
 15 14  2  0
 15 16  1  0
 16 22  2  0
 17 16  1  0
 18 19  1  0
 18 17  1  6
 19 10  1  0
 20 18  1  0
 21 20  2  0
 22 23  1  0
 24 25  1  0
 25 26  2  0
 28 27  1  1
 27 25  1  0
 28 29  1  0
 29 20  1  0
 30 32  1  0
 30 28  1  0
 31 30  2  0
M  END
$$$$
