FYN.pdb
     RDKit          3D

 32 33  0  0  1  0  0  0  0  0999 V2000
    6.4449  -19.3610   20.7093 N   0  0  0  0  0  0  0  0  0  0  0  0
    6.2069  -18.2818   21.6159 C   0  0  1  0  0  0  0  0  0  0  0  0
    5.4205  -18.7130   22.8393 C   0  0  0  0  0  0  0  0  0  0  0  0
    4.1267  -19.3095   22.4195 C   0  0  0  0  0  0  0  0  0  0  0  0
    3.2576  -18.6463   21.5780 C   0  0  0  0  0  0  0  0  0  0  0  0
    2.0744  -19.1896   21.1907 C   0  0  0  0  0  0  0  0  0  0  0  0
    1.7041  -20.4393   21.6356 C   0  0  0  0  0  0  0  0  0  0  0  0
    2.5357  -21.1274   22.4688 C   0  0  0  0  0  0  0  0  0  0  0  0
    3.7320  -20.5694   22.8559 C   0  0  0  0  0  0  0  0  0  0  0  0
    7.5494  -17.7427   22.0270 C   0  0  0  0  0  0  0  0  0  0  0  0
    8.5495  -18.4520   21.7452 O   0  0  0  0  0  0  0  0  0  0  0  0
    7.7126  -12.5505   17.5325 O   0  0  0  0  0  0  0  0  0  0  0  0
    7.9922  -13.0149   18.8161 C   0  0  0  0  0  0  0  0  0  0  0  0
    9.2032  -13.5833   19.0899 C   0  0  0  0  0  0  0  0  0  0  0  0
    9.4876  -14.0404   20.3378 C   0  0  0  0  0  0  0  0  0  0  0  0
    8.5861  -13.9662   21.4107 C   0  0  0  0  0  0  0  0  0  0  0  0
    8.8634  -14.4883   22.7246 C   0  0  0  0  0  0  0  0  0  0  0  0
    9.0324  -15.9278   22.9609 C   0  0  2  0  0  0  0  0  0  0  0  0
    7.6891  -16.5101   22.6921 N   0  0  0  0  0  0  0  0  0  0  0  0
    9.3814  -16.3196   24.3280 C   0  0  0  0  0  0  0  0  0  0  0  0
   10.4316  -15.8665   24.8790 O   0  0  0  0  0  0  0  0  0  0  0  0
    7.3717  -13.3912   21.1198 C   0  0  0  0  0  0  0  0  0  0  0  0
    7.0710  -12.9183   19.8370 C   0  0  0  0  0  0  0  0  0  0  0  0
    9.6784  -18.7537   28.7829 N   0  0  0  0  0  0  0  0  0  0  0  0
    8.3431  -19.0289   28.2990 C   0  0  0  0  0  0  0  0  0  0  0  0
    7.6026  -19.7134   29.0134 O   0  0  0  0  0  0  0  0  0  0  0  0
    7.9186  -18.5027   27.0116 C   0  0  0  0  0  0  0  0  0  0  0  0
    9.0119  -17.6266   26.4131 C   0  0  2  0  0  0  0  0  0  0  0  0
    8.5471  -17.2065   25.0648 N   0  0  0  0  0  0  0  0  0  0  0  0
   10.1970  -18.4758   26.2098 C   0  0  0  0  0  0  0  0  0  0  0  0
   11.0761  -18.7247   27.0689 O   0  0  0  0  0  0  0  0  0  0  0  0
   10.4072  -19.0881   24.9590 O   0  0  0  0  0  0  0  0  0  0  0  0
  2  1  1  6
  2  3  1  0
  3  4  1  0
  4  9  1  0
  4  5  2  0
  5  6  1  0
  7  6  2  0
  8  7  1  0
  9  8  2  0
 10  2  1  0
 11 10  2  0
 13 12  1  0
 13 23  2  0
 14 13  1  0
 15 14  2  0
 15 16  1  0
 16 22  2  0
 17 16  1  0
 18 19  1  0
 18 17  1  1
 19 10  1  0
 20 18  1  0
 21 20  2  0
 22 23  1  0
 24 25  1  0
 25 26  2  0
 28 27  1  6
 27 25  1  0
 28 29  1  0
 29 20  1  0
 30 32  1  0
 30 28  1  0
 31 30  2  0
M  END
$$$$
