FYN.pdb
     RDKit          3D

 32 33  0  0  1  0  0  0  0  0999 V2000
    6.2060  -17.8681   26.1215 N   0  0  0  0  0  0  0  0  0  0  0  0
    6.7367  -16.5917   25.7577 C   0  0  1  0  0  0  0  0  0  0  0  0
    7.8974  -16.1719   26.6396 C   0  0  0  0  0  0  0  0  0  0  0  0
    7.9885  -14.6899   26.6771 C   0  0  0  0  0  0  0  0  0  0  0  0
    6.8731  -13.8954   26.8440 C   0  0  0  0  0  0  0  0  0  0  0  0
    6.9530  -12.5398   26.8804 C   0  0  0  0  0  0  0  0  0  0  0  0
    8.1714  -11.9112   26.7496 C   0  0  0  0  0  0  0  0  0  0  0  0
    9.2978  -12.6613   26.5830 C   0  0  0  0  0  0  0  0  0  0  0  0
    9.2074  -14.0335   26.5471 C   0  0  0  0  0  0  0  0  0  0  0  0
    7.1839  -16.6885   24.3250 C   0  0  0  0  0  0  0  0  0  0  0  0
    7.6064  -17.8104   23.9432 O   0  0  0  0  0  0  0  0  0  0  0  0
    8.7649  -13.2601   16.0986 O   0  0  0  0  0  0  0  0  0  0  0  0
    8.3922  -13.5395   17.4117 C   0  0  0  0  0  0  0  0  0  0  0  0
    8.7144  -12.6706   18.4146 C   0  0  0  0  0  0  0  0  0  0  0  0
    8.3569  -12.9323   19.6994 C   0  0  0  0  0  0  0  0  0  0  0  0
    7.6497  -14.0814   20.0847 C   0  0  0  0  0  0  0  0  0  0  0  0
    7.3058  -14.3876   21.4499 C   0  0  0  0  0  0  0  0  0  0  0  0
    7.5584  -15.7136   22.0283 C   0  0  2  0  0  0  0  0  0  0  0  0
    7.1353  -15.5871   23.4499 N   0  0  0  0  0  0  0  0  0  0  0  0
    8.9563  -16.1489   22.0553 C   0  0  0  0  0  0  0  0  0  0  0  0
    9.2882  -17.2774   21.5775 O   0  0  0  0  0  0  0  0  0  0  0  0
    7.3320  -14.9462   19.0642 C   0  0  0  0  0  0  0  0  0  0  0  0
    7.6969  -14.6841   17.7384 C   0  0  0  0  0  0  0  0  0  0  0  0
   11.9895  -15.6020   19.7517 N   0  0  0  0  0  0  0  0  0  0  0  0
   12.4250  -14.4775   20.5510 C   0  0  0  0  0  0  0  0  0  0  0  0
   13.0337  -13.5669   19.9786 O   0  0  0  0  0  0  0  0  0  0  0  0
   12.1398  -14.4511   21.9766 C   0  0  0  0  0  0  0  0  0  0  0  0
   11.3829  -15.7079   22.3868 C   0  0  2  0  0  0  0  0  0  0  0  0
    9.9667  -15.3132   22.6087 N   0  0  0  0  0  0  0  0  0  0  0  0
   11.9145  -16.1384   23.6903 C   0  0  0  0  0  0  0  0  0  0  0  0
   11.2828  -16.1433   24.7737 O   0  0  0  0  0  0  0  0  0  0  0  0
   13.2432  -16.5960   23.7824 O   0  0  0  0  0  0  0  0  0  0  0  0
  2  1  1  1
  2  3  1  0
  3  4  1  0
  4  9  1  0
  4  5  2  0
  5  6  1  0
  7  6  2  0
  8  7  1  0
  9  8  2  0
 10  2  1  0
 11 10  2  0
 13 12  1  0
 13 23  2  0
 14 13  1  0
 15 14  2  0
 15 16  1  0
 16 22  2  0
 17 16  1  0
 18 19  1  0
 18 17  1  1
 19 10  1  0
 20 18  1  0
 21 20  2  0
 22 23  1  0
 24 25  1  0
 25 26  2  0
 28 27  1  1
 27 25  1  0
 28 29  1  0
 29 20  1  0
 30 32  1  0
 30 28  1  0
 31 30  2  0
M  END
$$$$
