FYN.pdb
     RDKit          3D

 32 33  0  0  1  0  0  0  0  0999 V2000
    6.5665  -18.4268   26.3153 N   0  0  0  0  0  0  0  0  0  0  0  0
    6.7776  -17.0394   26.0436 C   0  0  1  0  0  0  0  0  0  0  0  0
    7.7341  -16.3932   27.0279 C   0  0  0  0  0  0  0  0  0  0  0  0
    7.5484  -14.9197   27.0141 C   0  0  0  0  0  0  0  0  0  0  0  0
    6.3074  -14.3433   26.8384 C   0  0  0  0  0  0  0  0  0  0  0  0
    6.1337  -12.9961   26.8270 C   0  0  0  0  0  0  0  0  0  0  0  0
    7.2111  -12.1546   26.9936 C   0  0  0  0  0  0  0  0  0  0  0  0
    8.4546  -12.6852   27.1702 C   0  0  0  0  0  0  0  0  0  0  0  0
    8.6212  -14.0507   27.1802 C   0  0  0  0  0  0  0  0  0  0  0  0
    7.3262  -16.9388   24.6469 C   0  0  0  0  0  0  0  0  0  0  0  0
    7.8972  -17.9637   24.1927 O   0  0  0  0  0  0  0  0  0  0  0  0
    7.9705  -12.8695   16.5882 O   0  0  0  0  0  0  0  0  0  0  0  0
    7.7718  -13.2435   17.9156 C   0  0  0  0  0  0  0  0  0  0  0  0
    8.3614  -12.5342   18.9225 C   0  0  0  0  0  0  0  0  0  0  0  0
    8.1755  -12.8894   20.2211 C   0  0  0  0  0  0  0  0  0  0  0  0
    7.3865  -13.9801   20.6172 C   0  0  0  0  0  0  0  0  0  0  0  0
    7.2204  -14.3897   21.9885 C   0  0  0  0  0  0  0  0  0  0  0  0
    7.4985  -15.7656   22.4199 C   0  0  2  0  0  0  0  0  0  0  0  0
    7.2109  -15.7638   23.8804 N   0  0  0  0  0  0  0  0  0  0  0  0
    8.8839  -16.2178   22.2769 C   0  0  0  0  0  0  0  0  0  0  0  0
    9.3319  -16.5702   21.1425 O   0  0  0  0  0  0  0  0  0  0  0  0
    6.7991  -14.6839   19.5927 C   0  0  0  0  0  0  0  0  0  0  0  0
    6.9859  -14.3248   18.2527 C   0  0  0  0  0  0  0  0  0  0  0  0
   13.7976  -17.1494   22.7913 N   0  0  0  0  0  0  0  0  0  0  0  0
   13.3560  -15.7827   22.6173 C   0  0  0  0  0  0  0  0  0  0  0  0
   14.2075  -14.9367   22.3228 O   0  0  0  0  0  0  0  0  0  0  0  0
   11.9511  -15.4500   22.7902 C   0  0  0  0  0  0  0  0  0  0  0  0
   11.1572  -16.6933   23.1706 C   0  0  2  0  0  0  0  0  0  0  0  0
    9.7534  -16.2622   23.4029 N   0  0  0  0  0  0  0  0  0  0  0  0
   11.6757  -17.1704   24.4631 C   0  0  0  0  0  0  0  0  0  0  0  0
   12.2374  -18.2734   24.6651 O   0  0  0  0  0  0  0  0  0  0  0  0
   11.5575  -16.3532   25.6040 O   0  0  0  0  0  0  0  0  0  0  0  0
  2  1  1  1
  2  3  1  0
  3  4  1  0
  4  9  1  0
  4  5  2  0
  5  6  1  0
  7  6  2  0
  8  7  1  0
  9  8  2  0
 10  2  1  0
 11 10  2  0
 13 12  1  0
 13 23  2  0
 14 13  1  0
 15 14  2  0
 15 16  1  0
 16 22  2  0
 17 16  1  0
 18 19  1  0
 18 17  1  1
 19 10  1  0
 20 18  1  0
 21 20  2  0
 22 23  1  0
 24 25  1  0
 25 26  2  0
 28 27  1  1
 27 25  1  0
 28 29  1  0
 29 20  1  0
 30 32  1  0
 30 28  1  0
 31 30  2  0
M  END
$$$$
