FYN.pdb
     RDKit          3D

 32 33  0  0  1  0  0  0  0  0999 V2000
    5.3863  -17.7740   24.0018 N   0  0  0  0  0  0  0  0  0  0  0  0
    6.0510  -16.5534   24.3358 C   0  0  1  0  0  0  0  0  0  0  0  0
    6.0573  -16.2846   25.8287 C   0  0  0  0  0  0  0  0  0  0  0  0
    6.4285  -14.8690   26.0820 C   0  0  0  0  0  0  0  0  0  0  0  0
    5.5712  -13.8278   25.7917 C   0  0  0  0  0  0  0  0  0  0  0  0
    5.9067  -12.5321   26.0236 C   0  0  0  0  0  0  0  0  0  0  0  0
    7.1336  -12.2176   26.5645 C   0  0  0  0  0  0  0  0  0  0  0  0
    8.0095  -13.2182   26.8656 C   0  0  0  0  0  0  0  0  0  0  0  0
    7.6613  -14.5275   26.6272 C   0  0  0  0  0  0  0  0  0  0  0  0
    7.4609  -16.6607   23.8233 C   0  0  0  0  0  0  0  0  0  0  0  0
    7.9531  -17.8174   23.7719 O   0  0  0  0  0  0  0  0  0  0  0  0
    7.0625  -13.6005   17.1003 O   0  0  0  0  0  0  0  0  0  0  0  0
    7.7250  -13.7929   18.3108 C   0  0  0  0  0  0  0  0  0  0  0  0
    8.2320  -15.0209   18.6263 C   0  0  0  0  0  0  0  0  0  0  0  0
    8.8799  -15.2212   19.8041 C   0  0  0  0  0  0  0  0  0  0  0  0
    9.0730  -14.2119   20.7597 C   0  0  0  0  0  0  0  0  0  0  0  0
    9.7194  -14.4269   22.0293 C   0  0  0  0  0  0  0  0  0  0  0  0
    9.5371  -15.6731   22.7844 C   0  0  2  0  0  0  0  0  0  0  0  0
    8.1984  -15.5318   23.4197 N   0  0  0  0  0  0  0  0  0  0  0  0
   10.4843  -15.9093   23.8759 C   0  0  0  0  0  0  0  0  0  0  0  0
   11.7289  -15.9956   23.6404 O   0  0  0  0  0  0  0  0  0  0  0  0
    8.5577  -12.9813   20.4277 C   0  0  0  0  0  0  0  0  0  0  0  0
    7.8888  -12.7670   19.2169 C   0  0  0  0  0  0  0  0  0  0  0  0
   12.7521  -16.1723   28.3940 N   0  0  0  0  0  0  0  0  0  0  0  0
   11.4998  -15.4740   28.5869 C   0  0  0  0  0  0  0  0  0  0  0  0
   11.3014  -14.9423   29.6847 O   0  0  0  0  0  0  0  0  0  0  0  0
   10.5296  -15.4187   27.5052 C   0  0  0  0  0  0  0  0  0  0  0  0
   11.0573  -16.1615   26.2844 C   0  0  2  0  0  0  0  0  0  0  0  0
   10.0286  -16.0377   25.2181 N   0  0  0  0  0  0  0  0  0  0  0  0
   11.1370  -17.5888   26.6358 C   0  0  0  0  0  0  0  0  0  0  0  0
   10.3008  -18.4687   26.3207 O   0  0  0  0  0  0  0  0  0  0  0  0
   12.2299  -18.0594   27.3892 O   0  0  0  0  0  0  0  0  0  0  0  0
  2  1  1  1
  2  3  1  0
  3  4  1  0
  4  9  1  0
  4  5  2  0
  5  6  1  0
  7  6  2  0
  8  7  1  0
  9  8  2  0
 10  2  1  0
 11 10  2  0
 13 12  1  0
 13 23  2  0
 14 13  1  0
 15 14  2  0
 15 16  1  0
 16 22  2  0
 17 16  1  0
 18 19  1  0
 18 17  1  1
 19 10  1  0
 20 18  1  0
 21 20  2  0
 22 23  1  0
 24 25  1  0
 25 26  2  0
 28 27  1  1
 27 25  1  0
 28 29  1  0
 29 20  1  0
 30 32  1  0
 30 28  1  0
 31 30  2  0
M  END
$$$$
