FYN.pdb
     RDKit          3D

 32 33  0  0  1  0  0  0  0  0999 V2000
    6.6167  -17.9473   26.0986 N   0  0  0  0  0  0  0  0  0  0  0  0
    6.9173  -16.6099   25.6937 C   0  0  1  0  0  0  0  0  0  0  0  0
    7.9763  -15.9625   26.5658 C   0  0  0  0  0  0  0  0  0  0  0  0
    7.6522  -14.5270   26.7663 C   0  0  0  0  0  0  0  0  0  0  0  0
    6.4653  -13.9794   26.3249 C   0  0  0  0  0  0  0  0  0  0  0  0
    6.1650  -12.6674   26.5081 C   0  0  0  0  0  0  0  0  0  0  0  0
    7.0530  -11.8339   27.1510 C   0  0  0  0  0  0  0  0  0  0  0  0
    8.2373  -12.3368   27.6025 C   0  0  0  0  0  0  0  0  0  0  0  0
    8.5331  -13.6667   27.4124 C   0  0  0  0  0  0  0  0  0  0  0  0
    7.3895  -16.6731   24.2672 C   0  0  0  0  0  0  0  0  0  0  0  0
    7.5613  -17.8216   23.7830 O   0  0  0  0  0  0  0  0  0  0  0  0
    8.3190  -12.9270   16.0987 O   0  0  0  0  0  0  0  0  0  0  0  0
    8.0869  -13.2662   17.4300 C   0  0  0  0  0  0  0  0  0  0  0  0
    8.5111  -12.4401   18.4311 C   0  0  0  0  0  0  0  0  0  0  0  0
    8.2910  -12.7602   19.7334 C   0  0  0  0  0  0  0  0  0  0  0  0
    7.6303  -13.9297   20.1394 C   0  0  0  0  0  0  0  0  0  0  0  0
    7.4323  -14.2978   21.5182 C   0  0  0  0  0  0  0  0  0  0  0  0
    7.8856  -15.5928   22.0418 C   0  0  2  0  0  0  0  0  0  0  0  0
    7.6288  -15.5136   23.5059 N   0  0  0  0  0  0  0  0  0  0  0  0
    9.3129  -15.8840   21.8926 C   0  0  0  0  0  0  0  0  0  0  0  0
    9.7889  -16.2069   20.7607 O   0  0  0  0  0  0  0  0  0  0  0  0
    7.2087  -14.7509   19.1205 C   0  0  0  0  0  0  0  0  0  0  0  0
    7.4318  -14.4285   17.7767 C   0  0  0  0  0  0  0  0  0  0  0  0
   14.1160  -14.9390   20.8993 N   0  0  0  0  0  0  0  0  0  0  0  0
   13.6751  -14.7362   22.2622 C   0  0  0  0  0  0  0  0  0  0  0  0
   14.5403  -14.6685   23.1421 O   0  0  0  0  0  0  0  0  0  0  0  0
   12.2549  -14.6199   22.5523 C   0  0  0  0  0  0  0  0  0  0  0  0
   11.6434  -16.0000   22.7574 C   0  0  2  0  0  0  0  0  0  0  0  0
   10.1915  -15.8023   23.0093 N   0  0  0  0  0  0  0  0  0  0  0  0
   12.2178  -16.5587   23.9923 C   0  0  0  0  0  0  0  0  0  0  0  0
   11.6404  -16.6271   25.1034 O   0  0  0  0  0  0  0  0  0  0  0  0
   13.5271  -17.0773   23.9774 O   0  0  0  0  0  0  0  0  0  0  0  0
  2  1  1  1
  2  3  1  0
  3  4  1  0
  4  9  1  0
  4  5  2  0
  5  6  1  0
  7  6  2  0
  8  7  1  0
  9  8  2  0
 10  2  1  0
 11 10  2  0
 13 12  1  0
 13 23  2  0
 14 13  1  0
 15 14  2  0
 15 16  1  0
 16 22  2  0
 17 16  1  0
 18 19  1  0
 18 17  1  6
 19 10  1  0
 20 18  1  0
 21 20  2  0
 22 23  1  0
 24 25  1  0
 25 26  2  0
 28 27  1  1
 27 25  1  0
 28 29  1  0
 29 20  1  0
 30 32  1  0
 30 28  1  0
 31 30  2  0
M  END
$$$$
