FYN.pdb
     RDKit          3D

 32 33  0  0  1  0  0  0  0  0999 V2000
    8.2524  -17.4129   20.7483 N   0  0  0  0  0  0  0  0  0  0  0  0
    9.3280  -16.6055   20.2640 C   0  0  1  0  0  0  0  0  0  0  0  0
    8.8613  -15.5354   19.2955 C   0  0  0  0  0  0  0  0  0  0  0  0
    7.9951  -14.5597   20.0052 C   0  0  0  0  0  0  0  0  0  0  0  0
    8.2801  -13.2099   20.0219 C   0  0  0  0  0  0  0  0  0  0  0  0
    7.4892  -12.3146   20.6685 C   0  0  0  0  0  0  0  0  0  0  0  0
    6.3616  -12.7378   21.3364 C   0  0  0  0  0  0  0  0  0  0  0  0
    6.0452  -14.0641   21.3434 C   0  0  0  0  0  0  0  0  0  0  0  0
    6.8520  -14.9637   20.6860 C   0  0  0  0  0  0  0  0  0  0  0  0
    9.9810  -15.9710   21.4610 C   0  0  0  0  0  0  0  0  0  0  0  0
   10.8957  -15.1395   21.2268 O   0  0  0  0  0  0  0  0  0  0  0  0
   10.9112  -14.2917   30.2765 O   0  0  0  0  0  0  0  0  0  0  0  0
   10.5161  -14.5883   28.9737 C   0  0  0  0  0  0  0  0  0  0  0  0
   10.4168  -15.8882   28.5674 C   0  0  0  0  0  0  0  0  0  0  0  0
   10.0329  -16.1902   27.2991 C   0  0  0  0  0  0  0  0  0  0  0  0
    9.7177  -15.2190   26.3366 C   0  0  0  0  0  0  0  0  0  0  0  0
    9.3529  -15.5298   24.9778 C   0  0  0  0  0  0  0  0  0  0  0  0
   10.3679  -15.7825   23.9470 C   0  0  2  0  0  0  0  0  0  0  0  0
    9.5953  -16.2845   22.7779 N   0  0  0  0  0  0  0  0  0  0  0  0
   11.3574  -16.8165   24.2572 C   0  0  0  0  0  0  0  0  0  0  0  0
   12.1968  -16.6436   25.1938 O   0  0  0  0  0  0  0  0  0  0  0  0
    9.8217  -13.9153   26.7605 C   0  0  0  0  0  0  0  0  0  0  0  0
   10.2168  -13.5960   28.0648 C   0  0  0  0  0  0  0  0  0  0  0  0
   13.1992  -22.3432   23.4537 N   0  0  0  0  0  0  0  0  0  0  0  0
   13.5872  -21.0008   23.0789 C   0  0  0  0  0  0  0  0  0  0  0  0
   14.7949  -20.7423   23.0365 O   0  0  0  0  0  0  0  0  0  0  0  0
   12.5654  -20.0136   22.7689 C   0  0  0  0  0  0  0  0  0  0  0  0
   12.3696  -19.0687   23.9476 C   0  0  2  0  0  0  0  0  0  0  0  0
   11.3902  -18.0344   23.5214 N   0  0  0  0  0  0  0  0  0  0  0  0
   13.6483  -18.3761   24.1761 C   0  0  0  0  0  0  0  0  0  0  0  0
   14.1994  -17.5751   23.3841 O   0  0  0  0  0  0  0  0  0  0  0  0
   14.3536  -18.5963   25.3751 O   0  0  0  0  0  0  0  0  0  0  0  0
  2  1  1  1
  2  3  1  0
  3  4  1  0
  4  9  1  0
  4  5  2  0
  5  6  1  0
  7  6  2  0
  8  7  1  0
  9  8  2  0
 10  2  1  0
 11 10  2  0
 13 12  1  0
 13 23  2  0
 14 13  1  0
 15 14  2  0
 15 16  1  0
 16 22  2  0
 17 16  1  0
 18 19  1  0
 18 17  1  1
 19 10  1  0
 20 18  1  0
 21 20  2  0
 22 23  1  0
 24 25  1  0
 25 26  2  0
 28 27  1  6
 27 25  1  0
 28 29  1  0
 29 20  1  0
 30 32  1  0
 30 28  1  0
 31 30  2  0
M  END
$$$$
