FYN.pdb
     RDKit          3D

 32 33  0  0  1  0  0  0  0  0999 V2000
    8.9176  -16.4963   20.9804 N   0  0  0  0  0  0  0  0  0  0  0  0
   10.2828  -16.1280   20.7707 C   0  0  1  0  0  0  0  0  0  0  0  0
   10.4229  -14.7890   20.0717 C   0  0  0  0  0  0  0  0  0  0  0  0
    9.0938  -14.1338   19.9717 C   0  0  0  0  0  0  0  0  0  0  0  0
    8.2757  -14.3091   18.8747 C   0  0  0  0  0  0  0  0  0  0  0  0
    7.0589  -13.7127   18.7807 C   0  0  0  0  0  0  0  0  0  0  0  0
    6.6010  -12.9028   19.7961 C   0  0  0  0  0  0  0  0  0  0  0  0
    7.3799  -12.7042   20.8975 C   0  0  0  0  0  0  0  0  0  0  0  0
    8.6108  -13.3121   20.9842 C   0  0  0  0  0  0  0  0  0  0  0  0
   10.9420  -16.0782   22.1215 C   0  0  0  0  0  0  0  0  0  0  0  0
   12.1697  -15.8032   22.1374 O   0  0  0  0  0  0  0  0  0  0  0  0
   10.6117  -14.8430   31.0395 O   0  0  0  0  0  0  0  0  0  0  0  0
   10.3921  -15.0420   29.6780 C   0  0  0  0  0  0  0  0  0  0  0  0
    9.7982  -16.1913   29.2410 C   0  0  0  0  0  0  0  0  0  0  0  0
    9.5790  -16.3971   27.9156 C   0  0  0  0  0  0  0  0  0  0  0  0
    9.9350  -15.4723   26.9220 C   0  0  0  0  0  0  0  0  0  0  0  0
    9.7464  -15.7023   25.5123 C   0  0  0  0  0  0  0  0  0  0  0  0
   10.8587  -16.1069   24.6429 C   0  0  2  0  0  0  0  0  0  0  0  0
   10.2308  -16.3244   23.3109 N   0  0  0  0  0  0  0  0  0  0  0  0
   11.5239  -17.3641   24.9912 C   0  0  0  0  0  0  0  0  0  0  0  0
   12.7906  -17.4273   25.0492 O   0  0  0  0  0  0  0  0  0  0  0  0
   10.5312  -14.3203   27.3773 C   0  0  0  0  0  0  0  0  0  0  0  0
   10.7608  -14.1008   28.7406 C   0  0  0  0  0  0  0  0  0  0  0  0
   12.0744  -20.5302   22.6542 N   0  0  0  0  0  0  0  0  0  0  0  0
   12.9189  -20.6769   23.8197 C   0  0  0  0  0  0  0  0  0  0  0  0
   13.6763  -21.6526   23.8615 O   0  0  0  0  0  0  0  0  0  0  0  0
   12.8540  -19.6918   24.8873 C   0  0  0  0  0  0  0  0  0  0  0  0
   11.5115  -19.7763   25.6024 C   0  0  2  0  0  0  0  0  0  0  0  0
   10.7639  -18.5327   25.2783 N   0  0  0  0  0  0  0  0  0  0  0  0
   11.7791  -19.7476   27.0497 C   0  0  0  0  0  0  0  0  0  0  0  0
   11.7576  -18.7274   27.7787 O   0  0  0  0  0  0  0  0  0  0  0  0
   12.0892  -20.9450   27.7232 O   0  0  0  0  0  0  0  0  0  0  0  0
  2  1  1  1
  2  3  1  0
  3  4  1  0
  4  9  1  0
  4  5  2  0
  5  6  1  0
  7  6  2  0
  8  7  1  0
  9  8  2  0
 10  2  1  0
 11 10  2  0
 13 12  1  0
 13 23  2  0
 14 13  1  0
 15 14  2  0
 15 16  1  0
 16 22  2  0
 17 16  1  0
 18 19  1  0
 18 17  1  1
 19 10  1  0
 20 18  1  0
 21 20  2  0
 22 23  1  0
 24 25  1  0
 25 26  2  0
 28 27  1  6
 27 25  1  0
 28 29  1  0
 29 20  1  0
 30 32  1  0
 30 28  1  0
 31 30  2  0
M  END
$$$$
