FYN.pdb
     RDKit          3D

 32 33  0  0  1  0  0  0  0  0999 V2000
    7.7414  -18.0375   21.0885 N   0  0  0  0  0  0  0  0  0  0  0  0
    7.9632  -16.6421   20.8723 C   0  0  1  0  0  0  0  0  0  0  0  0
    6.6736  -15.8434   20.8603 C   0  0  0  0  0  0  0  0  0  0  0  0
    6.9692  -14.4176   20.5674 C   0  0  0  0  0  0  0  0  0  0  0  0
    6.8643  -13.4385   21.5336 C   0  0  0  0  0  0  0  0  0  0  0  0
    7.1354  -12.1338   21.2697 C   0  0  0  0  0  0  0  0  0  0  0  0
    7.5295  -11.7469   20.0081 C   0  0  0  0  0  0  0  0  0  0  0  0
    7.6453  -12.6848   19.0252 C   0  0  0  0  0  0  0  0  0  0  0  0
    7.3685  -14.0036   19.3015 C   0  0  0  0  0  0  0  0  0  0  0  0
    8.8612  -16.1585   21.9776 C   0  0  0  0  0  0  0  0  0  0  0  0
    9.7517  -15.3300   21.6557 O   0  0  0  0  0  0  0  0  0  0  0  0
   10.9021  -14.8012   30.6362 O   0  0  0  0  0  0  0  0  0  0  0  0
   10.3669  -15.0242   29.3693 C   0  0  0  0  0  0  0  0  0  0  0  0
    9.9067  -16.2639   29.0288 C   0  0  0  0  0  0  0  0  0  0  0  0
    9.3828  -16.4940   27.7961 C   0  0  0  0  0  0  0  0  0  0  0  0
    9.2767  -15.5051   26.8061 C   0  0  0  0  0  0  0  0  0  0  0  0
    8.7636  -15.7516   25.4825 C   0  0  0  0  0  0  0  0  0  0  0  0
    9.6460  -16.1417   24.3753 C   0  0  2  0  0  0  0  0  0  0  0  0
    8.7199  -16.6037   23.3054 N   0  0  0  0  0  0  0  0  0  0  0  0
   10.5551  -17.2589   24.6392 C   0  0  0  0  0  0  0  0  0  0  0  0
   10.1048  -18.4395   24.7633 O   0  0  0  0  0  0  0  0  0  0  0  0
    9.7434  -14.2624   27.1637 C   0  0  0  0  0  0  0  0  0  0  0  0
   10.2847  -14.0174   28.4311 C   0  0  0  0  0  0  0  0  0  0  0  0
   12.6914  -19.1379   22.4933 N   0  0  0  0  0  0  0  0  0  0  0  0
   13.9350  -18.5128   22.8879 C   0  0  0  0  0  0  0  0  0  0  0  0
   14.8191  -18.4010   22.0316 O   0  0  0  0  0  0  0  0  0  0  0  0
   14.1059  -18.0429   24.2534 C   0  0  0  0  0  0  0  0  0  0  0  0
   12.8136  -18.2242   25.0395 C   0  0  2  0  0  0  0  0  0  0  0  0
   11.9573  -17.0431   24.7525 N   0  0  0  0  0  0  0  0  0  0  0  0
   13.1547  -18.1656   26.4703 C   0  0  0  0  0  0  0  0  0  0  0  0
   13.8238  -19.0194   27.0996 O   0  0  0  0  0  0  0  0  0  0  0  0
   12.7171  -17.0739   27.2451 O   0  0  0  0  0  0  0  0  0  0  0  0
  2  1  1  1
  2  3  1  0
  3  4  1  0
  4  9  1  0
  4  5  2  0
  5  6  1  0
  7  6  2  0
  8  7  1  0
  9  8  2  0
 10  2  1  0
 11 10  2  0
 13 12  1  0
 13 23  2  0
 14 13  1  0
 15 14  2  0
 15 16  1  0
 16 22  2  0
 17 16  1  0
 18 19  1  0
 18 17  1  1
 19 10  1  0
 20 18  1  0
 21 20  2  0
 22 23  1  0
 24 25  1  0
 25 26  2  0
 28 27  1  6
 27 25  1  0
 28 29  1  0
 29 20  1  0
 30 32  1  0
 30 28  1  0
 31 30  2  0
M  END
$$$$
