GDK.pdb
     RDKit          3D

 22 21  0  0  1  0  0  0  0  0999 V2000
   18.2333  -12.7286  -16.6192 N   0  0  0  0  0  0  0  0  0  0  0  0
   19.4562  -12.0019  -16.4653 C   0  0  0  0  0  0  0  0  0  0  0  0
   19.2910  -10.9698  -15.4293 C   0  0  0  0  0  0  0  0  0  0  0  0
   18.9795  -11.3055  -14.2550 O   0  0  0  0  0  0  0  0  0  0  0  0
   19.4710   -9.5804  -15.7000 N   0  0  0  0  0  0  0  0  0  0  0  0
   19.2906   -8.6200  -14.6385 C   0  0  1  0  0  0  0  0  0  0  0  0
   20.1699   -7.3909  -14.8873 C   0  0  0  0  0  0  0  0  0  0  0  0
   21.5896   -7.7599  -14.7561 C   0  0  0  0  0  0  0  0  0  0  0  0
   22.3580   -7.8115  -15.7529 O   0  0  0  0  0  0  0  0  0  0  0  0
   17.8778   -8.1819  -14.6079 C   0  0  0  0  0  0  0  0  0  0  0  0
   17.2574   -8.0159  -15.6662 O   0  0  0  0  0  0  0  0  0  0  0  0
   22.1180   -8.0635  -13.5094 O   0  0  0  0  0  0  0  0  0  0  0  0
   17.2232   -7.9492  -13.3863 N   0  0  0  0  0  0  0  0  0  0  0  0
   15.8531   -7.5688  -13.2328 C   0  0  1  0  0  0  0  0  0  0  0  0
   15.1783   -8.2273  -12.0688 C   0  0  0  0  0  0  0  0  0  0  0  0
   13.8110   -7.7469  -11.7713 C   0  0  0  0  0  0  0  0  0  0  0  0
   13.2039   -8.3084  -10.5173 C   0  0  0  0  0  0  0  0  0  0  0  0
   11.7434   -7.8617  -10.4763 C   0  0  0  0  0  0  0  0  0  0  0  0
   11.1258   -8.3421   -9.2502 N   0  0  0  0  0  0  0  0  0  0  0  0
   15.8066   -6.0919  -13.1308 C   0  0  0  0  0  0  0  0  0  0  0  0
   14.7004   -5.3493  -13.5282 O   0  0  0  0  0  0  0  0  0  0  0  0
   16.8022   -5.4636  -12.6670 O   0  0  0  0  0  0  0  0  0  0  0  0
  2  1  1  0
  3  2  1  0
  4  3  2  0
  5  3  1  0
  6  5  1  0
  6 10  1  0
  6  7  1  6
  8  7  1  0
  8  9  2  0
 10 11  2  0
 12  8  1  0
 13 10  1  0
 13 14  1  0
 14 15  1  1
 15 16  1  0
 16 17  1  0
 17 18  1  0
 18 19  1  0
 20 21  1  0
 20 14  1  0
 22 20  2  0
M  END
$$$$
