GDK.pdb
     RDKit          3D

 22 21  0  0  1  0  0  0  0  0999 V2000
   15.4722  -11.8526  -17.9572 N   0  0  0  0  0  0  0  0  0  0  0  0
   14.9214  -11.7243  -16.6429 C   0  0  0  0  0  0  0  0  0  0  0  0
   15.6395  -10.6717  -15.9066 C   0  0  0  0  0  0  0  0  0  0  0  0
   15.3229  -10.4144  -14.7140 O   0  0  0  0  0  0  0  0  0  0  0  0
   16.6978   -9.9154  -16.4935 N   0  0  0  0  0  0  0  0  0  0  0  0
   17.3774   -8.9147  -15.7071 C   0  0  1  0  0  0  0  0  0  0  0  0
   18.8762   -8.9280  -16.0221 C   0  0  0  0  0  0  0  0  0  0  0  0
   19.4856  -10.1584  -15.4897 C   0  0  0  0  0  0  0  0  0  0  0  0
   19.4957  -10.4157  -14.2567 O   0  0  0  0  0  0  0  0  0  0  0  0
   16.8432   -7.5775  -16.0468 C   0  0  0  0  0  0  0  0  0  0  0  0
   16.6990   -7.2505  -17.2321 O   0  0  0  0  0  0  0  0  0  0  0  0
   20.0714  -11.0749  -16.3515 O   0  0  0  0  0  0  0  0  0  0  0  0
   16.4938   -6.6647  -15.0370 N   0  0  0  0  0  0  0  0  0  0  0  0
   16.0077   -5.3359  -15.2448 C   0  0  1  0  0  0  0  0  0  0  0  0
   14.9987   -4.9039  -14.2252 C   0  0  0  0  0  0  0  0  0  0  0  0
   14.4570   -3.5390  -14.4052 C   0  0  0  0  0  0  0  0  0  0  0  0
   13.4557   -3.1159  -13.3686 C   0  0  0  0  0  0  0  0  0  0  0  0
   13.0105   -1.6960  -13.7152 C   0  0  0  0  0  0  0  0  0  0  0  0
   12.0354   -1.2430  -12.7357 N   0  0  0  0  0  0  0  0  0  0  0  0
   17.1789   -4.4298  -15.2762 C   0  0  0  0  0  0  0  0  0  0  0  0
   17.2426   -3.3188  -16.1096 O   0  0  0  0  0  0  0  0  0  0  0  0
   18.1695   -4.6590  -14.5232 O   0  0  0  0  0  0  0  0  0  0  0  0
  2  1  1  0
  3  2  1  0
  4  3  2  0
  5  3  1  0
  6  5  1  0
  6 10  1  0
  6  7  1  6
  8  7  1  0
  8  9  2  0
 10 11  2  0
 12  8  1  0
 13 10  1  0
 13 14  1  0
 14 15  1  1
 15 16  1  0
 16 17  1  0
 17 18  1  0
 18 19  1  0
 20 21  1  0
 20 14  1  0
 22 20  2  0
M  END
$$$$
