GDK.pdb
     RDKit          3D

 22 21  0  0  1  0  0  0  0  0999 V2000
   27.8096  -18.6928  -18.1807 N   0  0  0  0  0  0  0  0  0  0  0  0
   27.2169  -17.4519  -17.7857 C   0  0  0  0  0  0  0  0  0  0  0  0
   26.1491  -17.7041  -16.8049 C   0  0  0  0  0  0  0  0  0  0  0  0
   26.2848  -17.3089  -15.6159 O   0  0  0  0  0  0  0  0  0  0  0  0
   24.9446  -18.3889  -17.1466 N   0  0  0  0  0  0  0  0  0  0  0  0
   23.8997  -18.5243  -16.1610 C   0  0  1  0  0  0  0  0  0  0  0  0
   22.5608  -18.8040  -16.8502 C   0  0  0  0  0  0  0  0  0  0  0  0
   21.8525  -17.5362  -17.0944 C   0  0  0  0  0  0  0  0  0  0  0  0
   22.4612  -16.4922  -17.4496 O   0  0  0  0  0  0  0  0  0  0  0  0
   24.2104  -19.6638  -15.2699 C   0  0  0  0  0  0  0  0  0  0  0  0
   24.5590  -20.7498  -15.7510 O   0  0  0  0  0  0  0  0  0  0  0  0
   20.4758  -17.4656  -16.9350 O   0  0  0  0  0  0  0  0  0  0  0  0
   24.1152  -19.5319  -13.8739 N   0  0  0  0  0  0  0  0  0  0  0  0
   24.4825  -20.5270  -12.9147 C   0  0  1  0  0  0  0  0  0  0  0  0
   24.8035  -19.9637  -11.5643 C   0  0  0  0  0  0  0  0  0  0  0  0
   25.2010  -20.9545  -10.5399 C   0  0  0  0  0  0  0  0  0  0  0  0
   25.4992  -20.3769   -9.1858 C   0  0  0  0  0  0  0  0  0  0  0  0
   26.0031  -21.5175   -8.3028 C   0  0  0  0  0  0  0  0  0  0  0  0
   27.0138  -21.0098   -7.3884 N   0  0  0  0  0  0  0  0  0  0  0  0
   23.3811  -21.5152  -12.8496 C   0  0  0  0  0  0  0  0  0  0  0  0
   23.6076  -22.8787  -12.6995 O   0  0  0  0  0  0  0  0  0  0  0  0
   22.1810  -21.1229  -12.9323 O   0  0  0  0  0  0  0  0  0  0  0  0
  2  1  1  0
  3  2  1  0
  4  3  2  0
  5  3  1  0
  6  5  1  0
  6 10  1  0
  6  7  1  6
  8  7  1  0
  8  9  2  0
 10 11  2  0
 12  8  1  0
 13 10  1  0
 13 14  1  0
 14 15  1  1
 15 16  1  0
 16 17  1  0
 17 18  1  0
 18 19  1  0
 20 21  1  0
 20 14  1  0
 22 20  2  0
M  END
$$$$
