GDK.pdb
     RDKit          3D

 22 21  0  0  1  0  0  0  0  0999 V2000
   28.2048  -17.3101  -18.8905 N   0  0  0  0  0  0  0  0  0  0  0  0
   27.9464  -17.4431  -17.4896 C   0  0  0  0  0  0  0  0  0  0  0  0
   26.9939  -18.5422  -17.2647 C   0  0  0  0  0  0  0  0  0  0  0  0
   26.1874  -18.8683  -18.1767 O   0  0  0  0  0  0  0  0  0  0  0  0
   26.9420  -19.2686  -16.0375 N   0  0  0  0  0  0  0  0  0  0  0  0
   25.9500  -20.3019  -15.8644 C   0  0  1  0  0  0  0  0  0  0  0  0
   26.5673  -21.5080  -15.1503 C   0  0  0  0  0  0  0  0  0  0  0  0
   27.5786  -22.1357  -16.0175 C   0  0  0  0  0  0  0  0  0  0  0  0
   27.3541  -22.3782  -17.2330 O   0  0  0  0  0  0  0  0  0  0  0  0
   24.8431  -19.7846  -15.0301 C   0  0  0  0  0  0  0  0  0  0  0  0
   25.0813  -19.2965  -13.9177 O   0  0  0  0  0  0  0  0  0  0  0  0
   28.8210  -22.4787  -15.5032 O   0  0  0  0  0  0  0  0  0  0  0  0
   23.5142  -19.8390  -15.4840 N   0  0  0  0  0  0  0  0  0  0  0  0
   22.3748  -19.3173  -14.7948 C   0  0  1  0  0  0  0  0  0  0  0  0
   21.6594  -18.2422  -15.5540 C   0  0  0  0  0  0  0  0  0  0  0  0
   20.4551  -17.6915  -14.8942 C   0  0  0  0  0  0  0  0  0  0  0  0
   19.7149  -16.6576  -15.6936 C   0  0  0  0  0  0  0  0  0  0  0  0
   18.4878  -16.2443  -14.8826 C   0  0  0  0  0  0  0  0  0  0  0  0
   17.7745  -15.1915  -15.5885 N   0  0  0  0  0  0  0  0  0  0  0  0
   21.4806  -20.4557  -14.4810 C   0  0  0  0  0  0  0  0  0  0  0  0
   20.6948  -20.4955  -13.3348 O   0  0  0  0  0  0  0  0  0  0  0  0
   21.4159  -21.4394  -15.2742 O   0  0  0  0  0  0  0  0  0  0  0  0
  2  1  1  0
  3  2  1  0
  4  3  2  0
  5  3  1  0
  6  5  1  0
  6 10  1  0
  6  7  1  1
  8  7  1  0
  8  9  2  0
 10 11  2  0
 12  8  1  0
 13 10  1  0
 13 14  1  0
 14 15  1  6
 15 16  1  0
 16 17  1  0
 17 18  1  0
 18 19  1  0
 20 21  1  0
 20 14  1  0
 22 20  2  0
M  END
$$$$
