GDK.pdb
     RDKit          3D

 22 21  0  0  1  0  0  0  0  0999 V2000
   20.3968  -14.3482  -18.2563 N   0  0  0  0  0  0  0  0  0  0  0  0
   20.9252  -13.0449  -17.9932 C   0  0  0  0  0  0  0  0  0  0  0  0
   19.8198  -12.0985  -17.7735 C   0  0  0  0  0  0  0  0  0  0  0  0
   19.1174  -11.7187  -18.7487 O   0  0  0  0  0  0  0  0  0  0  0  0
   19.5019  -11.5821  -16.4817 N   0  0  0  0  0  0  0  0  0  0  0  0
   18.4156  -10.6433  -16.3389 C   0  0  1  0  0  0  0  0  0  0  0  0
   17.7253  -10.8409  -14.9861 C   0  0  0  0  0  0  0  0  0  0  0  0
   16.9372  -12.0849  -15.0066 C   0  0  0  0  0  0  0  0  0  0  0  0
   17.2656  -13.0914  -14.3242 O   0  0  0  0  0  0  0  0  0  0  0  0
   18.9488   -9.2642  -16.3912 C   0  0  0  0  0  0  0  0  0  0  0  0
   19.9659   -8.9683  -15.7506 O   0  0  0  0  0  0  0  0  0  0  0  0
   15.7969  -12.1742  -15.7924 O   0  0  0  0  0  0  0  0  0  0  0  0
   18.3138   -8.2763  -17.1632 N   0  0  0  0  0  0  0  0  0  0  0  0
   18.6965   -6.9003  -17.2364 C   0  0  1  0  0  0  0  0  0  0  0  0
   17.9797   -6.1384  -18.3086 C   0  0  0  0  0  0  0  0  0  0  0  0
   18.3919   -4.7266  -18.4695 C   0  0  0  0  0  0  0  0  0  0  0  0
   17.5894   -3.9452  -19.4703 C   0  0  0  0  0  0  0  0  0  0  0  0
   18.1738   -2.5346  -19.5242 C   0  0  0  0  0  0  0  0  0  0  0  0
   17.5393   -1.7898  -20.6003 N   0  0  0  0  0  0  0  0  0  0  0  0
   18.4785   -6.3025  -15.8989 C   0  0  0  0  0  0  0  0  0  0  0  0
   19.3968   -5.4443  -15.3047 O   0  0  0  0  0  0  0  0  0  0  0  0
   17.4221   -6.5714  -15.2564 O   0  0  0  0  0  0  0  0  0  0  0  0
  2  1  1  0
  3  2  1  0
  4  3  2  0
  5  3  1  0
  6  5  1  0
  6 10  1  0
  6  7  1  1
  8  7  1  0
  8  9  2  0
 10 11  2  0
 12  8  1  0
 13 10  1  0
 13 14  1  0
 14 15  1  6
 15 16  1  0
 16 17  1  0
 17 18  1  0
 18 19  1  0
 20 21  1  0
 20 14  1  0
 22 20  2  0
M  END
$$$$
