GDK.pdb
     RDKit          3D

 22 21  0  0  1  0  0  0  0  0999 V2000
   17.0422  -14.4179  -16.8268 N   0  0  0  0  0  0  0  0  0  0  0  0
   16.4056  -13.6458  -15.8042 C   0  0  0  0  0  0  0  0  0  0  0  0
   17.3377  -12.6218  -15.3055 C   0  0  0  0  0  0  0  0  0  0  0  0
   17.6602  -12.6086  -14.0872 O   0  0  0  0  0  0  0  0  0  0  0  0
   17.9029  -11.6247  -16.1557 N   0  0  0  0  0  0  0  0  0  0  0  0
   18.7216  -10.5836  -15.5836 C   0  0  1  0  0  0  0  0  0  0  0  0
   19.6013   -9.9524  -16.6669 C   0  0  0  0  0  0  0  0  0  0  0  0
   20.4536   -8.9098  -16.0709 C   0  0  0  0  0  0  0  0  0  0  0  0
   20.3553   -7.6993  -16.4050 O   0  0  0  0  0  0  0  0  0  0  0  0
   17.8510   -9.5288  -15.0194 C   0  0  0  0  0  0  0  0  0  0  0  0
   16.8964   -9.0953  -15.6777 O   0  0  0  0  0  0  0  0  0  0  0  0
   21.3988   -9.2466  -15.1124 O   0  0  0  0  0  0  0  0  0  0  0  0
   18.0922   -9.0065  -13.7372 N   0  0  0  0  0  0  0  0  0  0  0  0
   17.3123   -8.0004  -13.0855 C   0  0  1  0  0  0  0  0  0  0  0  0
   17.0151   -8.3126  -11.6508 C   0  0  0  0  0  0  0  0  0  0  0  0
   16.1766   -7.3193  -10.9443 C   0  0  0  0  0  0  0  0  0  0  0  0
   16.0457   -7.5425   -9.4648 C   0  0  0  0  0  0  0  0  0  0  0  0
   15.2477   -6.3711   -8.8942 C   0  0  0  0  0  0  0  0  0  0  0  0
   15.0268   -6.5844   -7.4725 N   0  0  0  0  0  0  0  0  0  0  0  0
   18.0304   -6.7130  -13.2297 C   0  0  0  0  0  0  0  0  0  0  0  0
   17.3751   -5.4869  -13.2273 O   0  0  0  0  0  0  0  0  0  0  0  0
   19.2888   -6.7082  -13.3618 O   0  0  0  0  0  0  0  0  0  0  0  0
  2  1  1  0
  3  2  1  0
  4  3  2  0
  5  3  1  0
  6  5  1  0
  6 10  1  0
  6  7  1  6
  8  7  1  0
  8  9  2  0
 10 11  2  0
 12  8  1  0
 13 10  1  0
 13 14  1  0
 14 15  1  1
 15 16  1  0
 16 17  1  0
 17 18  1  0
 18 19  1  0
 20 21  1  0
 20 14  1  0
 22 20  2  0
M  END
$$$$
