GDK.pdb
     RDKit          3D

 22 21  0  0  1  0  0  0  0  0999 V2000
   27.4929  -12.3584  -16.4291 N   0  0  0  0  0  0  0  0  0  0  0  0
   26.5121  -12.3649  -15.3874 C   0  0  0  0  0  0  0  0  0  0  0  0
   25.2455  -11.8159  -15.8976 C   0  0  0  0  0  0  0  0  0  0  0  0
   25.2269  -11.2036  -16.9991 O   0  0  0  0  0  0  0  0  0  0  0  0
   24.0147  -11.9486  -15.1877 N   0  0  0  0  0  0  0  0  0  0  0  0
   22.7955  -11.4543  -15.7800 C   0  0  1  0  0  0  0  0  0  0  0  0
   21.6086  -12.3124  -15.3320 C   0  0  0  0  0  0  0  0  0  0  0  0
   21.7255  -13.6628  -15.9080 C   0  0  0  0  0  0  0  0  0  0  0  0
   21.8452  -13.8486  -17.1481 O   0  0  0  0  0  0  0  0  0  0  0  0
   22.5597  -10.0646  -15.3304 C   0  0  0  0  0  0  0  0  0  0  0  0
   22.7851   -9.7466  -14.1554 O   0  0  0  0  0  0  0  0  0  0  0  0
   21.7055  -14.7769  -15.0810 O   0  0  0  0  0  0  0  0  0  0  0  0
   22.0799   -9.0913  -16.2235 N   0  0  0  0  0  0  0  0  0  0  0  0
   21.8321   -7.7187  -15.9078 C   0  0  1  0  0  0  0  0  0  0  0  0
   21.1897   -6.9563  -17.0259 C   0  0  0  0  0  0  0  0  0  0  0  0
   20.8112   -5.5615  -16.7095 C   0  0  0  0  0  0  0  0  0  0  0  0
   20.2466   -4.7837  -17.8637 C   0  0  0  0  0  0  0  0  0  0  0  0
   19.9345   -3.3761  -17.3579 C   0  0  0  0  0  0  0  0  0  0  0  0
   19.4404   -2.5656  -18.4599 N   0  0  0  0  0  0  0  0  0  0  0  0
   21.0105   -7.6832  -14.6760 C   0  0  0  0  0  0  0  0  0  0  0  0
   19.8691   -8.4607  -14.5158 O   0  0  0  0  0  0  0  0  0  0  0  0
   21.3435   -6.9220  -13.7217 O   0  0  0  0  0  0  0  0  0  0  0  0
  2  1  1  0
  3  2  1  0
  4  3  2  0
  5  3  1  0
  6  5  1  0
  6 10  1  0
  6  7  1  1
  8  7  1  0
  8  9  2  0
 10 11  2  0
 12  8  1  0
 13 10  1  0
 13 14  1  0
 14 15  1  6
 15 16  1  0
 16 17  1  0
 17 18  1  0
 18 19  1  0
 20 21  1  0
 20 14  1  0
 22 20  2  0
M  END
$$$$
