GDK.pdb
     RDKit          3D

 22 21  0  0  1  0  0  0  0  0999 V2000
   20.3414  -15.1714  -17.7734 N   0  0  0  0  0  0  0  0  0  0  0  0
   20.3297  -14.5299  -16.4946 C   0  0  0  0  0  0  0  0  0  0  0  0
   19.8073  -13.1610  -16.6330 C   0  0  0  0  0  0  0  0  0  0  0  0
   19.8331  -12.5916  -17.7572 O   0  0  0  0  0  0  0  0  0  0  0  0
   19.2630  -12.4362  -15.5308 N   0  0  0  0  0  0  0  0  0  0  0  0
   18.8061  -11.0817  -15.7266 C   0  0  1  0  0  0  0  0  0  0  0  0
   17.6522  -10.7731  -14.7681 C   0  0  0  0  0  0  0  0  0  0  0  0
   16.4777  -11.5868  -15.1249 C   0  0  0  0  0  0  0  0  0  0  0  0
   16.0398  -11.6408  -16.3047 O   0  0  0  0  0  0  0  0  0  0  0  0
   19.9133  -10.1438  -15.4379 C   0  0  0  0  0  0  0  0  0  0  0  0
   20.6080  -10.2980  -14.4249 O   0  0  0  0  0  0  0  0  0  0  0  0
   15.8186  -12.3232  -14.1507 O   0  0  0  0  0  0  0  0  0  0  0  0
   20.1915   -9.0714  -16.3025 N   0  0  0  0  0  0  0  0  0  0  0  0
   21.2261   -8.1007  -16.1222 C   0  0  1  0  0  0  0  0  0  0  0  0
   21.4613   -7.2483  -17.3314 C   0  0  0  0  0  0  0  0  0  0  0  0
   22.4827   -6.1896  -17.1744 C   0  0  0  0  0  0  0  0  0  0  0  0
   22.6045   -5.2523  -18.3417 C   0  0  0  0  0  0  0  0  0  0  0  0
   23.7912   -4.3302  -18.0663 C   0  0  0  0  0  0  0  0  0  0  0  0
   23.9296   -3.3816  -19.1601 N   0  0  0  0  0  0  0  0  0  0  0  0
   20.8749   -7.2860  -14.9362 C   0  0  0  0  0  0  0  0  0  0  0  0
   21.8181   -6.8910  -13.9943 O   0  0  0  0  0  0  0  0  0  0  0  0
   19.6753   -6.9261  -14.7555 O   0  0  0  0  0  0  0  0  0  0  0  0
  2  1  1  0
  3  2  1  0
  4  3  2  0
  5  3  1  0
  6  5  1  0
  6 10  1  0
  6  7  1  1
  8  7  1  0
  8  9  2  0
 10 11  2  0
 12  8  1  0
 13 10  1  0
 13 14  1  0
 14 15  1  6
 15 16  1  0
 16 17  1  0
 17 18  1  0
 18 19  1  0
 20 21  1  0
 20 14  1  0
 22 20  2  0
M  END
$$$$
