GDK.pdb
     RDKit          3D

 22 21  0  0  1  0  0  0  0  0999 V2000
   18.2032  -11.8591  -15.6782 N   0  0  0  0  0  0  0  0  0  0  0  0
   18.4367  -10.6806  -14.9013 C   0  0  0  0  0  0  0  0  0  0  0  0
   19.2704   -9.7405  -15.6675 C   0  0  0  0  0  0  0  0  0  0  0  0
   19.7722  -10.1006  -16.7662 O   0  0  0  0  0  0  0  0  0  0  0  0
   19.5410   -8.4150  -15.2135 N   0  0  0  0  0  0  0  0  0  0  0  0
   20.4630   -7.5854  -15.9506 C   0  0  1  0  0  0  0  0  0  0  0  0
   20.1962   -6.1076  -15.6489 C   0  0  0  0  0  0  0  0  0  0  0  0
   18.8595   -5.7329  -16.1403 C   0  0  0  0  0  0  0  0  0  0  0  0
   18.5839   -5.7147  -17.3693 O   0  0  0  0  0  0  0  0  0  0  0  0
   21.8474   -7.9016  -15.5355 C   0  0  0  0  0  0  0  0  0  0  0  0
   22.1289   -7.9907  -14.3333 O   0  0  0  0  0  0  0  0  0  0  0  0
   17.8594   -5.3861  -15.2429 O   0  0  0  0  0  0  0  0  0  0  0  0
   22.8567   -8.1042  -16.4922 N   0  0  0  0  0  0  0  0  0  0  0  0
   24.2270   -8.4004  -16.2099 C   0  0  1  0  0  0  0  0  0  0  0  0
   24.5583   -9.8568  -16.3257 C   0  0  0  0  0  0  0  0  0  0  0  0
   25.9675  -10.2123  -16.0490 C   0  0  0  0  0  0  0  0  0  0  0  0
   26.2686  -11.6830  -16.0992 C   0  0  0  0  0  0  0  0  0  0  0  0
   27.7632  -11.8535  -15.8319 C   0  0  0  0  0  0  0  0  0  0  0  0
   28.1197  -13.2577  -15.9604 N   0  0  0  0  0  0  0  0  0  0  0  0
   25.0598   -7.5744  -17.1142 C   0  0  0  0  0  0  0  0  0  0  0  0
   24.5461   -6.9595  -18.2504 O   0  0  0  0  0  0  0  0  0  0  0  0
   26.2885   -7.4103  -16.8600 O   0  0  0  0  0  0  0  0  0  0  0  0
  2  1  1  0
  3  2  1  0
  4  3  2  0
  5  3  1  0
  6  5  1  0
  6 10  1  0
  6  7  1  1
  8  7  1  0
  8  9  2  0
 10 11  2  0
 12  8  1  0
 13 10  1  0
 13 14  1  0
 14 15  1  6
 15 16  1  0
 16 17  1  0
 17 18  1  0
 18 19  1  0
 20 21  1  0
 20 14  1  0
 22 20  2  0
M  END
$$$$
