GDK.pdb
     RDKit          3D

 22 21  0  0  1  0  0  0  0  0999 V2000
   16.1702  -13.7811  -14.7087 N   0  0  0  0  0  0  0  0  0  0  0  0
   16.1971  -12.5424  -15.4242 C   0  0  0  0  0  0  0  0  0  0  0  0
   16.3750  -11.4290  -14.4783 C   0  0  0  0  0  0  0  0  0  0  0  0
   16.1964  -11.6201  -13.2454 O   0  0  0  0  0  0  0  0  0  0  0  0
   16.7475  -10.1185  -14.9029 N   0  0  0  0  0  0  0  0  0  0  0  0
   16.8356   -9.0549  -13.9320 C   0  0  1  0  0  0  0  0  0  0  0  0
   17.6333   -7.8817  -14.5092 C   0  0  0  0  0  0  0  0  0  0  0  0
   19.0355   -8.2846  -14.7105 C   0  0  0  0  0  0  0  0  0  0  0  0
   19.5775   -8.2609  -15.8473 O   0  0  0  0  0  0  0  0  0  0  0  0
   15.4749   -8.5750  -13.6048 C   0  0  0  0  0  0  0  0  0  0  0  0
   14.6392   -8.4204  -14.5049 O   0  0  0  0  0  0  0  0  0  0  0  0
   19.8008   -8.7059  -13.6323 O   0  0  0  0  0  0  0  0  0  0  0  0
   15.1127   -8.2895  -12.2773 N   0  0  0  0  0  0  0  0  0  0  0  0
   13.7947   -7.9725  -11.8215 C   0  0  1  0  0  0  0  0  0  0  0  0
   13.3949   -8.7205  -10.5867 C   0  0  0  0  0  0  0  0  0  0  0  0
   12.0773   -8.3560  -10.0211 C   0  0  0  0  0  0  0  0  0  0  0  0
   11.7396   -9.0312   -8.7225 C   0  0  0  0  0  0  0  0  0  0  0  0
   10.3163   -8.6196   -8.3494 C   0  0  0  0  0  0  0  0  0  0  0  0
    9.9455   -9.2494   -7.0919 N   0  0  0  0  0  0  0  0  0  0  0  0
   13.7303   -6.5065  -11.6204 C   0  0  0  0  0  0  0  0  0  0  0  0
   12.5532   -5.7821  -11.7707 O   0  0  0  0  0  0  0  0  0  0  0  0
   14.7763   -5.8710  -11.2995 O   0  0  0  0  0  0  0  0  0  0  0  0
  2  1  1  0
  3  2  1  0
  4  3  2  0
  5  3  1  0
  6  5  1  0
  6 10  1  0
  6  7  1  6
  8  7  1  0
  8  9  2  0
 10 11  2  0
 12  8  1  0
 13 10  1  0
 13 14  1  0
 14 15  1  1
 15 16  1  0
 16 17  1  0
 17 18  1  0
 18 19  1  0
 20 21  1  0
 20 14  1  0
 22 20  2  0
M  END
$$$$
