GDK.pdb
     RDKit          3D

 22 21  0  0  1  0  0  0  0  0999 V2000
   25.5050  -23.3140  -14.5673 N   0  0  0  0  0  0  0  0  0  0  0  0
   24.8921  -22.1742  -15.1775 C   0  0  0  0  0  0  0  0  0  0  0  0
   23.8125  -21.6714  -14.3128 C   0  0  0  0  0  0  0  0  0  0  0  0
   24.0253  -21.4966  -13.0829 O   0  0  0  0  0  0  0  0  0  0  0  0
   22.5115  -21.3673  -14.8142 N   0  0  0  0  0  0  0  0  0  0  0  0
   21.5449  -20.7378  -13.9477 C   0  0  1  0  0  0  0  0  0  0  0  0
   20.8451  -19.5927  -14.6859 C   0  0  0  0  0  0  0  0  0  0  0  0
   19.8962  -18.9232  -13.7803 C   0  0  0  0  0  0  0  0  0  0  0  0
   18.7458  -18.5780  -14.1597 O   0  0  0  0  0  0  0  0  0  0  0  0
   20.5210  -21.7297  -13.5521 C   0  0  0  0  0  0  0  0  0  0  0  0
   19.9624  -22.4211  -14.4137 O   0  0  0  0  0  0  0  0  0  0  0  0
   20.2576  -18.6545  -12.4677 O   0  0  0  0  0  0  0  0  0  0  0  0
   20.1693  -21.9012  -12.2023 N   0  0  0  0  0  0  0  0  0  0  0  0
   19.2488  -22.8719  -11.6964 C   0  0  1  0  0  0  0  0  0  0  0  0
   19.3753  -23.1016  -10.2216 C   0  0  0  0  0  0  0  0  0  0  0  0
   18.4852  -24.1422   -9.6614 C   0  0  0  0  0  0  0  0  0  0  0  0
   18.4715  -24.2200   -8.1615 C   0  0  0  0  0  0  0  0  0  0  0  0
   17.4108  -25.2462   -7.7662 C   0  0  0  0  0  0  0  0  0  0  0  0
   17.4314  -25.4307   -6.3236 N   0  0  0  0  0  0  0  0  0  0  0  0
   17.8843  -22.4324  -12.0686 C   0  0  0  0  0  0  0  0  0  0  0  0
   16.8909  -23.3246  -12.4561 O   0  0  0  0  0  0  0  0  0  0  0  0
   17.5920  -21.2016  -12.0393 O   0  0  0  0  0  0  0  0  0  0  0  0
  2  1  1  0
  3  2  1  0
  4  3  2  0
  5  3  1  0
  6  5  1  0
  6 10  1  0
  6  7  1  6
  8  7  1  0
  8  9  2  0
 10 11  2  0
 12  8  1  0
 13 10  1  0
 13 14  1  0
 14 15  1  1
 15 16  1  0
 16 17  1  0
 17 18  1  0
 18 19  1  0
 20 21  1  0
 20 14  1  0
 22 20  2  0
M  END
$$$$
