GDK.pdb
     RDKit          3D

 22 21  0  0  1  0  0  0  0  0999 V2000
   19.8689  -13.8877  -19.3968 N   0  0  0  0  0  0  0  0  0  0  0  0
   19.2363  -12.6615  -19.7756 C   0  0  0  0  0  0  0  0  0  0  0  0
   19.8727  -11.5382  -19.0691 C   0  0  0  0  0  0  0  0  0  0  0  0
   19.6462  -11.3613  -17.8419 O   0  0  0  0  0  0  0  0  0  0  0  0
   20.7509  -10.6235  -19.7237 N   0  0  0  0  0  0  0  0  0  0  0  0
   21.3707   -9.5654  -18.9636 C   0  0  1  0  0  0  0  0  0  0  0  0
   22.7881   -9.3066  -19.4830 C   0  0  0  0  0  0  0  0  0  0  0  0
   23.6644  -10.4332  -19.1202 C   0  0  0  0  0  0  0  0  0  0  0  0
   23.6598  -10.9338  -17.9644 O   0  0  0  0  0  0  0  0  0  0  0  0
   20.5841   -8.3223  -19.1211 C   0  0  0  0  0  0  0  0  0  0  0  0
   20.3985   -7.8449  -20.2481 O   0  0  0  0  0  0  0  0  0  0  0  0
   24.5281  -10.9750  -20.0616 O   0  0  0  0  0  0  0  0  0  0  0  0
   20.0395   -7.6691  -18.0023 N   0  0  0  0  0  0  0  0  0  0  0  0
   19.3324   -6.4262  -18.0238 C   0  0  1  0  0  0  0  0  0  0  0  0
   17.9994   -6.4868  -17.3430 C   0  0  0  0  0  0  0  0  0  0  0  0
   17.0710   -7.5195  -17.8533 C   0  0  0  0  0  0  0  0  0  0  0  0
   15.7478   -7.5836  -17.1454 C   0  0  0  0  0  0  0  0  0  0  0  0
   14.9270   -8.6884  -17.8089 C   0  0  0  0  0  0  0  0  0  0  0  0
   13.6537   -8.8243  -17.1192 N   0  0  0  0  0  0  0  0  0  0  0  0
   20.2118   -5.3995  -17.4185 C   0  0  0  0  0  0  0  0  0  0  0  0
   21.4301   -5.7132  -16.8267 O   0  0  0  0  0  0  0  0  0  0  0  0
   19.8579   -4.1848  -17.4302 O   0  0  0  0  0  0  0  0  0  0  0  0
  2  1  1  0
  3  2  1  0
  4  3  2  0
  5  3  1  0
  6  5  1  0
  6 10  1  0
  6  7  1  6
  8  7  1  0
  8  9  2  0
 10 11  2  0
 12  8  1  0
 13 10  1  0
 13 14  1  0
 14 15  1  1
 15 16  1  0
 16 17  1  0
 17 18  1  0
 18 19  1  0
 20 21  1  0
 20 14  1  0
 22 20  2  0
M  END
$$$$
