CHG.pdb
     RDKit          3D

 21 21  0  0  1  0  0  0  0  0999 V2000
    5.0854  -18.4226   20.3849 N   0  0  0  0  0  0  0  0  0  0  0  0
    5.2202  -17.7673   21.6796 C   0  0  1  0  0  0  0  0  0  0  0  0
    4.7118  -18.6843   22.7576 C   0  0  0  0  0  0  0  0  0  0  0  0
    3.1670  -19.4322   22.1522 S   0  0  0  0  0  0  0  0  0  0  0  0
    6.6087  -17.3277   21.8884 C   0  0  0  0  0  0  0  0  0  0  0  0
    7.5543  -17.9362   21.2794 O   0  0  0  0  0  0  0  0  0  0  0  0
    6.8785  -16.2390   22.7588 N   0  0  0  0  0  0  0  0  0  0  0  0
    8.1980  -15.6558   22.8688 C   0  0  1  0  0  0  0  0  0  0  0  0
    8.1906  -14.2016   22.5923 C   0  0  0  0  0  0  0  0  0  0  0  0
    7.9908  -13.7757   21.2111 C   0  0  0  0  0  0  0  0  0  0  0  0
    8.8882  -13.2775   20.2970 C   0  0  0  0  0  0  0  0  0  0  0  0
    8.2643  -12.9936   19.1120 N   0  0  0  0  0  0  0  0  0  0  0  0
    6.9821  -13.3262   19.3236 C   0  0  0  0  0  0  0  0  0  0  0  0
    6.7909  -13.7883   20.5468 N   0  0  0  0  0  0  0  0  0  0  0  0
    8.6075  -15.7912   24.3200 C   0  0  0  0  0  0  0  0  0  0  0  0
    9.6737  -15.2493   24.6784 O   0  0  0  0  0  0  0  0  0  0  0  0
    7.8428  -16.4940   25.2644 N   0  0  0  0  0  0  0  0  0  0  0  0
    8.1797  -16.6447   26.6512 C   0  0  0  0  0  0  0  0  0  0  0  0
    9.0877  -17.7940   26.8933 C   0  0  0  0  0  0  0  0  0  0  0  0
    9.5204  -18.2026   28.1393 O   0  0  0  0  0  0  0  0  0  0  0  0
    9.4869  -18.4354   25.8929 O   0  0  0  0  0  0  0  0  0  0  0  0
  2  1  1  6
  3  4  1  0
  3  2  1  0
  5  6  2  0
  5  2  1  0
  7  5  1  0
  8 15  1  0
  8  7  1  0
  8  9  1  1
 10  9  1  0
 11 10  2  0
 12 11  1  0
 13 12  1  0
 13 14  2  0
 14 10  1  0
 15 17  1  0
 16 15  2  0
 17 18  1  0
 18 19  1  0
 19 20  1  0
 21 19  2  0
M  END
$$$$
