CHG.pdb
     RDKit          3D

 21 21  0  0  1  0  0  0  0  0999 V2000
    7.9371  -13.3248   17.5170 N   0  0  0  0  0  0  0  0  0  0  0  0
    8.6179  -13.2646   18.8042 C   0  0  1  0  0  0  0  0  0  0  0  0
    7.5966  -13.1755   19.9043 C   0  0  0  0  0  0  0  0  0  0  0  0
    8.4985  -13.1642   21.4850 S   0  0  0  0  0  0  0  0  0  0  0  0
    9.5402  -14.4018   18.9488 C   0  0  0  0  0  0  0  0  0  0  0  0
    9.2158  -15.5353   18.4536 O   0  0  0  0  0  0  0  0  0  0  0  0
   10.7717  -14.2260   19.6329 N   0  0  0  0  0  0  0  0  0  0  0  0
   11.7112  -15.3121   19.8091 C   0  0  1  0  0  0  0  0  0  0  0  0
   12.8038  -15.2729   18.8113 C   0  0  0  0  0  0  0  0  0  0  0  0
   12.5116  -15.7601   17.4673 C   0  0  0  0  0  0  0  0  0  0  0  0
   12.6807  -15.1520   16.2463 C   0  0  0  0  0  0  0  0  0  0  0  0
   12.2593  -15.9727   15.2349 N   0  0  0  0  0  0  0  0  0  0  0  0
   11.8349  -17.0805   15.8608 C   0  0  0  0  0  0  0  0  0  0  0  0
   11.9705  -16.9852   17.1719 N   0  0  0  0  0  0  0  0  0  0  0  0
   12.3776  -15.0898   21.1502 C   0  0  0  0  0  0  0  0  0  0  0  0
   12.8353  -13.9539   21.3931 O   0  0  0  0  0  0  0  0  0  0  0  0
   12.4982  -16.1003   22.1171 N   0  0  0  0  0  0  0  0  0  0  0  0
   13.0620  -15.9270   23.4255 C   0  0  0  0  0  0  0  0  0  0  0  0
   12.8989  -17.1314   24.2780 C   0  0  0  0  0  0  0  0  0  0  0  0
   12.2669  -17.1432   25.5058 O   0  0  0  0  0  0  0  0  0  0  0  0
   13.3696  -18.2110   23.8488 O   0  0  0  0  0  0  0  0  0  0  0  0
  2  1  1  6
  3  4  1  0
  3  2  1  0
  5  6  2  0
  5  2  1  0
  7  5  1  0
  8 15  1  0
  8  7  1  0
  8  9  1  6
 10  9  1  0
 11 10  2  0
 12 11  1  0
 13 12  1  0
 13 14  2  0
 14 10  1  0
 15 17  1  0
 16 15  2  0
 17 18  1  0
 18 19  1  0
 19 20  1  0
 21 19  2  0
M  END
$$$$
