CHG.pdb
     RDKit          3D

 21 21  0  0  1  0  0  0  0  0999 V2000
    8.0753  -14.5658   19.4048 N   0  0  0  0  0  0  0  0  0  0  0  0
    7.7860  -15.7050   20.2664 C   0  0  1  0  0  0  0  0  0  0  0  0
    7.9923  -16.9788   19.4943 C   0  0  0  0  0  0  0  0  0  0  0  0
    7.3673  -18.3453   20.5212 S   0  0  0  0  0  0  0  0  0  0  0  0
    8.5845  -15.6293   21.4999 C   0  0  0  0  0  0  0  0  0  0  0  0
    9.7484  -15.1010   21.4585 O   0  0  0  0  0  0  0  0  0  0  0  0
    8.0545  -16.1412   22.7134 N   0  0  0  0  0  0  0  0  0  0  0  0
    8.7707  -16.0357   23.9661 C   0  0  1  0  0  0  0  0  0  0  0  0
    7.8880  -15.6249   25.0811 C   0  0  0  0  0  0  0  0  0  0  0  0
    7.3295  -14.2775   25.0419 C   0  0  0  0  0  0  0  0  0  0  0  0
    7.5327  -13.2580   24.1426 C   0  0  0  0  0  0  0  0  0  0  0  0
    6.8115  -12.1497   24.4970 N   0  0  0  0  0  0  0  0  0  0  0  0
    6.1729  -12.5136   25.6191 C   0  0  0  0  0  0  0  0  0  0  0  0
    6.4572  -13.7573   25.9636 N   0  0  0  0  0  0  0  0  0  0  0  0
    9.2386  -17.4332   24.3122 C   0  0  0  0  0  0  0  0  0  0  0  0
    8.3876  -18.3467   24.3260 O   0  0  0  0  0  0  0  0  0  0  0  0
   10.5758  -17.7355   24.6141 N   0  0  0  0  0  0  0  0  0  0  0  0
   11.0336  -18.9686   25.1879 C   0  0  0  0  0  0  0  0  0  0  0  0
   11.8869  -18.7561   26.3839 C   0  0  0  0  0  0  0  0  0  0  0  0
   12.4221  -19.7687   27.1554 O   0  0  0  0  0  0  0  0  0  0  0  0
   12.1365  -17.5723   26.7124 O   0  0  0  0  0  0  0  0  0  0  0  0
  2  1  1  6
  3  4  1  0
  3  2  1  0
  5  6  2  0
  5  2  1  0
  7  5  1  0
  8 15  1  0
  8  7  1  0
  8  9  1  1
 10  9  1  0
 11 10  2  0
 12 11  1  0
 13 12  1  0
 13 14  2  0
 14 10  1  0
 15 17  1  0
 16 15  2  0
 17 18  1  0
 18 19  1  0
 19 20  1  0
 21 19  2  0
M  END
$$$$
