CHG.pdb
     RDKit          3D

 21 21  0  0  1  0  0  0  0  0999 V2000
    8.1047  -19.7157   18.8512 N   0  0  0  0  0  0  0  0  0  0  0  0
    8.4758  -19.4391   20.2331 C   0  0  1  0  0  0  0  0  0  0  0  0
    9.0712  -20.6764   20.8463 C   0  0  0  0  0  0  0  0  0  0  0  0
    9.1363  -20.4149   22.6462 S   0  0  0  0  0  0  0  0  0  0  0  0
    9.3607  -18.2655   20.3001 C   0  0  0  0  0  0  0  0  0  0  0  0
   10.2628  -18.1123   19.4067 O   0  0  0  0  0  0  0  0  0  0  0  0
    9.2016  -17.3238   21.3505 N   0  0  0  0  0  0  0  0  0  0  0  0
   10.0545  -16.1613   21.4719 C   0  0  1  0  0  0  0  0  0  0  0  0
    9.2766  -14.9120   21.6302 C   0  0  0  0  0  0  0  0  0  0  0  0
    8.5599  -14.4078   20.4636 C   0  0  0  0  0  0  0  0  0  0  0  0
    8.5467  -14.8603   19.1658 C   0  0  0  0  0  0  0  0  0  0  0  0
    7.7382  -14.0755   18.3882 N   0  0  0  0  0  0  0  0  0  0  0  0
    7.2657  -13.1463   19.2323 C   0  0  0  0  0  0  0  0  0  0  0  0
    7.7305  -13.3155   20.4578 N   0  0  0  0  0  0  0  0  0  0  0  0
   10.8244  -16.3271   22.7649 C   0  0  0  0  0  0  0  0  0  0  0  0
   10.2049  -16.7507   23.7627 O   0  0  0  0  0  0  0  0  0  0  0  0
   12.1905  -16.0259   22.8814 N   0  0  0  0  0  0  0  0  0  0  0  0
   12.9797  -16.2181   24.0645 C   0  0  0  0  0  0  0  0  0  0  0  0
   14.4150  -15.9082   23.8462 C   0  0  0  0  0  0  0  0  0  0  0  0
   15.3776  -15.9127   24.8363 O   0  0  0  0  0  0  0  0  0  0  0  0
   14.7733  -15.6229   22.6793 O   0  0  0  0  0  0  0  0  0  0  0  0
  2  1  1  6
  3  4  1  0
  3  2  1  0
  5  6  2  0
  5  2  1  0
  7  5  1  0
  8 15  1  0
  8  7  1  0
  8  9  1  1
 10  9  1  0
 11 10  2  0
 12 11  1  0
 13 12  1  0
 13 14  2  0
 14 10  1  0
 15 17  1  0
 16 15  2  0
 17 18  1  0
 18 19  1  0
 19 20  1  0
 21 19  2  0
M  END
$$$$
