CHG.pdb
     RDKit          3D

 21 21  0  0  1  0  0  0  0  0999 V2000
   11.7250  -15.6010   16.4894 N   0  0  0  0  0  0  0  0  0  0  0  0
   12.9040  -15.8206   17.3176 C   0  0  1  0  0  0  0  0  0  0  0  0
   13.8077  -14.6221   17.2256 C   0  0  0  0  0  0  0  0  0  0  0  0
   12.9971  -13.2592   18.1188 S   0  0  0  0  0  0  0  0  0  0  0  0
   12.5071  -16.1534   18.6946 C   0  0  0  0  0  0  0  0  0  0  0  0
   11.3052  -15.9285   19.0694 O   0  0  0  0  0  0  0  0  0  0  0  0
   13.4591  -16.7169   19.5844 N   0  0  0  0  0  0  0  0  0  0  0  0
   13.1169  -17.0784   20.9429 C   0  0  1  0  0  0  0  0  0  0  0  0
   13.1711  -18.5414   21.1619 C   0  0  0  0  0  0  0  0  0  0  0  0
   12.0175  -19.3319   20.7457 C   0  0  0  0  0  0  0  0  0  0  0  0
   10.6982  -18.9722   20.6071 C   0  0  0  0  0  0  0  0  0  0  0  0
    9.9456  -20.0413   20.2012 N   0  0  0  0  0  0  0  0  0  0  0  0
   10.8265  -21.0475   20.0975 C   0  0  0  0  0  0  0  0  0  0  0  0
   12.0509  -20.6615   20.4109 N   0  0  0  0  0  0  0  0  0  0  0  0
   14.1980  -16.4950   21.8277 C   0  0  0  0  0  0  0  0  0  0  0  0
   15.3593  -16.4423   21.3723 O   0  0  0  0  0  0  0  0  0  0  0  0
   13.9459  -16.0175   23.1234 N   0  0  0  0  0  0  0  0  0  0  0  0
   14.9121  -15.3763   23.9689 C   0  0  0  0  0  0  0  0  0  0  0  0
   15.9317  -16.3234   24.4858 C   0  0  0  0  0  0  0  0  0  0  0  0
   17.1905  -15.9595   24.9215 O   0  0  0  0  0  0  0  0  0  0  0  0
   15.6234  -17.5378   24.5276 O   0  0  0  0  0  0  0  0  0  0  0  0
  2  1  1  6
  3  4  1  0
  3  2  1  0
  5  6  2  0
  5  2  1  0
  7  5  1  0
  8 15  1  0
  8  7  1  0
  8  9  1  6
 10  9  1  0
 11 10  2  0
 12 11  1  0
 13 12  1  0
 13 14  2  0
 14 10  1  0
 15 17  1  0
 16 15  2  0
 17 18  1  0
 18 19  1  0
 19 20  1  0
 21 19  2  0
M  END
$$$$
