CHG.pdb
     RDKit          3D

 21 21  0  0  1  0  0  0  0  0999 V2000
   14.3056  -19.2286   18.0060 N   0  0  0  0  0  0  0  0  0  0  0  0
   15.4704  -19.0204   18.8569 C   0  0  1  0  0  0  0  0  0  0  0  0
   16.6810  -18.7868   17.9958 C   0  0  0  0  0  0  0  0  0  0  0  0
   18.1234  -18.6834   19.1009 S   0  0  0  0  0  0  0  0  0  0  0  0
   15.2145  -17.9362   19.8180 C   0  0  0  0  0  0  0  0  0  0  0  0
   14.5999  -16.8859   19.4250 O   0  0  0  0  0  0  0  0  0  0  0  0
   15.6514  -18.0702   21.1621 N   0  0  0  0  0  0  0  0  0  0  0  0
   15.4721  -17.0136   22.1342 C   0  0  1  0  0  0  0  0  0  0  0  0
   14.5891  -17.4243   23.2489 C   0  0  0  0  0  0  0  0  0  0  0  0
   13.2252  -16.9061   23.2589 C   0  0  0  0  0  0  0  0  0  0  0  0
   12.4265  -16.4882   22.2212 C   0  0  0  0  0  0  0  0  0  0  0  0
   11.2115  -16.0631   22.6870 N   0  0  0  0  0  0  0  0  0  0  0  0
   11.2882  -16.2295   24.0157 C   0  0  0  0  0  0  0  0  0  0  0  0
   12.4585  -16.7227   24.3813 N   0  0  0  0  0  0  0  0  0  0  0  0
   16.8294  -16.7707   22.7594 C   0  0  0  0  0  0  0  0  0  0  0  0
   17.5490  -17.7632   22.9956 O   0  0  0  0  0  0  0  0  0  0  0  0
   17.3018  -15.4880   23.0789 N   0  0  0  0  0  0  0  0  0  0  0  0
   18.5933  -15.1991   23.6340 C   0  0  0  0  0  0  0  0  0  0  0  0
   18.6254  -15.3578   25.1097 C   0  0  0  0  0  0  0  0  0  0  0  0
   19.7160  -15.0689   25.9059 O   0  0  0  0  0  0  0  0  0  0  0  0
   17.5869  -15.7845   25.6675 O   0  0  0  0  0  0  0  0  0  0  0  0
  2  1  1  6
  3  4  1  0
  3  2  1  0
  5  6  2  0
  5  2  1  0
  7  5  1  0
  8 15  1  0
  8  7  1  0
  8  9  1  1
 10  9  1  0
 11 10  2  0
 12 11  1  0
 13 12  1  0
 13 14  2  0
 14 10  1  0
 15 17  1  0
 16 15  2  0
 17 18  1  0
 18 19  1  0
 19 20  1  0
 21 19  2  0
M  END
$$$$
