CHG.pdb
     RDKit          3D

 21 21  0  0  1  0  0  0  0  0999 V2000
    6.4435  -17.5270   20.6726 N   0  0  0  0  0  0  0  0  0  0  0  0
    7.6375  -16.7076   20.5085 C   0  0  1  0  0  0  0  0  0  0  0  0
    7.6097  -15.5813   21.5046 C   0  0  0  0  0  0  0  0  0  0  0  0
    5.8641  -15.2333   21.8842 S   0  0  0  0  0  0  0  0  0  0  0  0
    8.8464  -17.5414   20.5975 C   0  0  0  0  0  0  0  0  0  0  0  0
    8.7231  -18.8065   20.7380 O   0  0  0  0  0  0  0  0  0  0  0  0
   10.1272  -16.9331   20.5265 N   0  0  0  0  0  0  0  0  0  0  0  0
   11.3386  -17.7129   20.3927 C   0  0  1  0  0  0  0  0  0  0  0  0
   11.8891  -17.6583   19.0198 C   0  0  0  0  0  0  0  0  0  0  0  0
   11.1050  -18.2676   17.9508 C   0  0  0  0  0  0  0  0  0  0  0  0
   11.0870  -19.5625   17.4903 C   0  0  0  0  0  0  0  0  0  0  0  0
   10.2024  -19.6950   16.4539 N   0  0  0  0  0  0  0  0  0  0  0  0
    9.6890  -18.4659   16.2961 C   0  0  0  0  0  0  0  0  0  0  0  0
   10.1996  -17.6066   17.1605 N   0  0  0  0  0  0  0  0  0  0  0  0
   12.3760  -17.0489   21.2730 C   0  0  0  0  0  0  0  0  0  0  0  0
   12.9003  -15.9930   20.8621 O   0  0  0  0  0  0  0  0  0  0  0  0
   12.7645  -17.5699   22.5173 N   0  0  0  0  0  0  0  0  0  0  0  0
   13.9806  -18.2899   22.7668 C   0  0  0  0  0  0  0  0  0  0  0  0
   15.1865  -17.4375   22.6152 C   0  0  0  0  0  0  0  0  0  0  0  0
   15.9314  -17.3317   21.4572 O   0  0  0  0  0  0  0  0  0  0  0  0
   15.5500  -16.7686   23.6111 O   0  0  0  0  0  0  0  0  0  0  0  0
  2  1  1  1
  3  4  1  0
  3  2  1  0
  5  6  2  0
  5  2  1  0
  7  5  1  0
  8 15  1  0
  8  7  1  0
  8  9  1  6
 10  9  1  0
 11 10  2  0
 12 11  1  0
 13 12  1  0
 13 14  2  0
 14 10  1  0
 15 17  1  0
 16 15  2  0
 17 18  1  0
 18 19  1  0
 19 20  1  0
 21 19  2  0
M  END
$$$$
