CHG.pdb
     RDKit          3D

 21 21  0  0  1  0  0  0  0  0999 V2000
    6.8630  -15.3950   20.6366 N   0  0  0  0  0  0  0  0  0  0  0  0
    8.0455  -15.0299   21.4062 C   0  0  1  0  0  0  0  0  0  0  0  0
    7.7135  -13.8770   22.3129 C   0  0  0  0  0  0  0  0  0  0  0  0
    7.8485  -12.3529   21.3275 S   0  0  0  0  0  0  0  0  0  0  0  0
    8.5754  -16.2037   22.1175 C   0  0  0  0  0  0  0  0  0  0  0  0
    7.7660  -17.1103   22.5154 O   0  0  0  0  0  0  0  0  0  0  0  0
    9.9715  -16.3134   22.3514 N   0  0  0  0  0  0  0  0  0  0  0  0
   10.5627  -17.5113   22.9071 C   0  0  1  0  0  0  0  0  0  0  0  0
   11.7535  -17.9512   22.1458 C   0  0  0  0  0  0  0  0  0  0  0  0
   11.5322  -18.6047   20.8602 C   0  0  0  0  0  0  0  0  0  0  0  0
   10.4338  -19.2808   20.3852 C   0  0  0  0  0  0  0  0  0  0  0  0
   10.6635  -19.7478   19.1191 N   0  0  0  0  0  0  0  0  0  0  0  0
   11.9118  -19.3454   18.8379 C   0  0  0  0  0  0  0  0  0  0  0  0
   12.4475  -18.6721   19.8409 N   0  0  0  0  0  0  0  0  0  0  0  0
   11.0745  -17.1391   24.2824 C   0  0  0  0  0  0  0  0  0  0  0  0
   11.6432  -16.0355   24.4144 O   0  0  0  0  0  0  0  0  0  0  0  0
   10.9349  -17.9779   25.3993 N   0  0  0  0  0  0  0  0  0  0  0  0
   11.4523  -17.7008   26.7089 C   0  0  0  0  0  0  0  0  0  0  0  0
   11.1603  -18.7881   27.6766 C   0  0  0  0  0  0  0  0  0  0  0  0
   11.6742  -18.8578   28.9564 O   0  0  0  0  0  0  0  0  0  0  0  0
   10.3926  -19.7051   27.3007 O   0  0  0  0  0  0  0  0  0  0  0  0
  2  1  1  1
  3  4  1  0
  3  2  1  0
  5  6  2  0
  5  2  1  0
  7  5  1  0
  8 15  1  0
  8  7  1  0
  8  9  1  6
 10  9  1  0
 11 10  2  0
 12 11  1  0
 13 12  1  0
 13 14  2  0
 14 10  1  0
 15 17  1  0
 16 15  2  0
 17 18  1  0
 18 19  1  0
 19 20  1  0
 21 19  2  0
M  END
$$$$
