CHG.pdb
     RDKit          3D

 21 21  0  0  1  0  0  0  0  0999 V2000
    7.9754  -18.1473   17.8470 N   0  0  0  0  0  0  0  0  0  0  0  0
    8.4366  -18.8323   19.0479 C   0  0  1  0  0  0  0  0  0  0  0  0
    9.9287  -19.0064   18.9803 C   0  0  0  0  0  0  0  0  0  0  0  0
   10.2656  -20.3759   17.8300 S   0  0  0  0  0  0  0  0  0  0  0  0
    7.9819  -18.1177   20.2509 C   0  0  0  0  0  0  0  0  0  0  0  0
    7.8997  -16.8417   20.2253 O   0  0  0  0  0  0  0  0  0  0  0  0
    7.6423  -18.8508   21.4183 N   0  0  0  0  0  0  0  0  0  0  0  0
    7.2200  -18.1961   22.6375 C   0  0  1  0  0  0  0  0  0  0  0  0
    5.8855  -18.6548   23.0843 C   0  0  0  0  0  0  0  0  0  0  0  0
    4.7611  -18.4543   22.1763 C   0  0  0  0  0  0  0  0  0  0  0  0
    4.6192  -17.5913   21.1160 C   0  0  0  0  0  0  0  0  0  0  0  0
    3.3838  -17.7288   20.5425 N   0  0  0  0  0  0  0  0  0  0  0  0
    2.7844  -18.6834   21.2695 C   0  0  0  0  0  0  0  0  0  0  0  0
    3.5683  -19.1286   22.2359 N   0  0  0  0  0  0  0  0  0  0  0  0
    8.1841  -18.6377   23.7180 C   0  0  0  0  0  0  0  0  0  0  0  0
    7.7387  -19.3495   24.6420 O   0  0  0  0  0  0  0  0  0  0  0  0
    9.5418  -18.2811   23.7189 N   0  0  0  0  0  0  0  0  0  0  0  0
   10.4796  -18.6070   24.7552 C   0  0  0  0  0  0  0  0  0  0  0  0
   11.4964  -19.5933   24.3112 C   0  0  0  0  0  0  0  0  0  0  0  0
   12.6020  -19.9663   25.0499 O   0  0  0  0  0  0  0  0  0  0  0  0
   11.3357  -20.1218   23.1859 O   0  0  0  0  0  0  0  0  0  0  0  0
  2  1  1  6
  3  4  1  0
  3  2  1  0
  5  6  2  0
  5  2  1  0
  7  5  1  0
  8 15  1  0
  8  7  1  0
  8  9  1  1
 10  9  1  0
 11 10  2  0
 12 11  1  0
 13 12  1  0
 13 14  2  0
 14 10  1  0
 15 17  1  0
 16 15  2  0
 17 18  1  0
 18 19  1  0
 19 20  1  0
 21 19  2  0
M  END
$$$$
