CHG.pdb
     RDKit          3D

 21 21  0  0  1  0  0  0  0  0999 V2000
   13.0201  -16.3294   17.4006 N   0  0  0  0  0  0  0  0  0  0  0  0
   12.1847  -16.7867   18.5038 C   0  0  1  0  0  0  0  0  0  0  0  0
   12.9652  -17.7514   19.3532 C   0  0  0  0  0  0  0  0  0  0  0  0
   13.4528  -19.1438   18.2876 S   0  0  0  0  0  0  0  0  0  0  0  0
   11.6550  -15.6377   19.2547 C   0  0  0  0  0  0  0  0  0  0  0  0
   12.3168  -14.5436   19.2704 O   0  0  0  0  0  0  0  0  0  0  0  0
   10.4221  -15.7587   19.9483 N   0  0  0  0  0  0  0  0  0  0  0  0
    9.7653  -14.6169   20.5468 C   0  0  1  0  0  0  0  0  0  0  0  0
    8.3637  -14.4770   20.0917 C   0  0  0  0  0  0  0  0  0  0  0  0
    8.1374  -14.1163   18.6962 C   0  0  0  0  0  0  0  0  0  0  0  0
    8.4403  -12.9600   18.0177 C   0  0  0  0  0  0  0  0  0  0  0  0
    8.0366  -13.0452   16.7124 N   0  0  0  0  0  0  0  0  0  0  0  0
    7.4875  -14.2650   16.6134 C   0  0  0  0  0  0  0  0  0  0  0  0
    7.5320  -14.9174   17.7619 N   0  0  0  0  0  0  0  0  0  0  0  0
    9.6839  -14.8983   22.0321 C   0  0  0  0  0  0  0  0  0  0  0  0
    8.7761  -14.3404   22.6828 O   0  0  0  0  0  0  0  0  0  0  0  0
   10.5795  -15.7519   22.6954 N   0  0  0  0  0  0  0  0  0  0  0  0
   10.5443  -16.0560   24.0975 C   0  0  0  0  0  0  0  0  0  0  0  0
   11.6707  -16.9268   24.5180 C   0  0  0  0  0  0  0  0  0  0  0  0
   11.8965  -17.3455   25.8144 O   0  0  0  0  0  0  0  0  0  0  0  0
   12.4704  -17.3059   23.6302 O   0  0  0  0  0  0  0  0  0  0  0  0
  2  1  1  6
  3  4  1  0
  3  2  1  0
  5  6  2  0
  5  2  1  0
  7  5  1  0
  8 15  1  0
  8  7  1  0
  8  9  1  6
 10  9  1  0
 11 10  2  0
 12 11  1  0
 13 12  1  0
 13 14  2  0
 14 10  1  0
 15 17  1  0
 16 15  2  0
 17 18  1  0
 18 19  1  0
 19 20  1  0
 21 19  2  0
M  END
$$$$
