KTY.pdb
     RDKit          3D

 29 29  0  0  1  0  0  0  0  0999 V2000
   19.7117  -19.7398  -16.1559 N   0  0  0  0  0  0  0  0  0  0  0  0
   19.5946  -21.0954  -15.6740 C   0  0  1  0  0  0  0  0  0  0  0  0
   18.4617  -21.7882  -16.3333 C   0  0  0  0  0  0  0  0  0  0  0  0
   17.1479  -21.1725  -15.9987 C   0  0  0  0  0  0  0  0  0  0  0  0
   16.3510  -21.8011  -14.9129 C   0  0  0  0  0  0  0  0  0  0  0  0
   15.0118  -21.0433  -14.7254 C   0  0  0  0  0  0  0  0  0  0  0  0
   14.2361  -21.7455  -13.7231 N   0  0  0  0  0  0  0  0  0  0  0  0
   20.8942  -21.7767  -15.8729 C   0  0  0  0  0  0  0  0  0  0  0  0
   20.9868  -22.9878  -15.5721 O   0  0  0  0  0  0  0  0  0  0  0  0
   22.7560  -23.0280  -18.7557 C   0  0  0  0  0  0  0  0  0  0  0  0
   23.6164  -22.0117  -18.0771 C   0  0  1  0  0  0  0  0  0  0  0  0
   23.6451  -20.7814  -18.7303 O   0  0  0  0  0  0  0  0  0  0  0  0
   23.2755  -21.8466  -16.6104 C   0  0  2  0  0  0  0  0  0  0  0  0
   22.0541  -21.1361  -16.3887 N   0  0  0  0  0  0  0  0  0  0  0  0
   24.3873  -21.1314  -15.9286 C   0  0  0  0  0  0  0  0  0  0  0  0
   24.3438  -19.8645  -15.7694 O   0  0  0  0  0  0  0  0  0  0  0  0
   23.1251  -20.5861   -9.3633 O   0  0  0  0  0  0  0  0  0  0  0  0
   24.0061  -20.9175  -10.3870 C   0  0  0  0  0  0  0  0  0  0  0  0
   23.6217  -21.6833  -11.4692 C   0  0  0  0  0  0  0  0  0  0  0  0
   24.5116  -22.0029  -12.4778 C   0  0  0  0  0  0  0  0  0  0  0  0
   25.8152  -21.5562  -12.4192 C   0  0  0  0  0  0  0  0  0  0  0  0
   26.8416  -21.8327  -13.4286 C   0  0  0  0  0  0  0  0  0  0  0  0
   26.6055  -21.1052  -14.7335 C   0  0  2  0  0  0  0  0  0  0  0  0
   25.5405  -21.7820  -15.4212 N   0  0  0  0  0  0  0  0  0  0  0  0
   27.8750  -21.1143  -15.4773 C   0  0  0  0  0  0  0  0  0  0  0  0
   28.8781  -20.2436  -15.1326 O   0  0  0  0  0  0  0  0  0  0  0  0
   26.1748  -20.7920  -11.3266 C   0  0  0  0  0  0  0  0  0  0  0  0
   25.3020  -20.4764  -10.3336 C   0  0  0  0  0  0  0  0  0  0  0  0
   28.0357  -21.9111  -16.4163 O   0  0  0  0  0  0  0  0  0  0  0  0
  2  1  1  6
  2  3  1  0
  4  5  1  0
  4  3  1  0
  6  5  1  0
  7  6  1  0
  8 14  1  0
  8  2  1  0
  9  8  2  0
 11 10  1  6
 12 11  1  0
 13 11  1  0
 13 14  1  6
 15 16  2  0
 15 13  1  0
 17 18  1  0
 18 28  2  0
 19 18  1  0
 19 20  2  0
 20 21  1  0
 21 27  2  0
 21 22  1  0
 23 22  1  1
 23 25  1  0
 23 24  1  0
 24 15  1  0
 25 26  1  0
 28 27  1  0
 29 25  2  0
M  END
$$$$
