KTY.pdb
     RDKit          3D

 29 29  0  0  1  0  0  0  0  0999 V2000
   27.5785  -23.3275  -17.3082 N   0  0  0  0  0  0  0  0  0  0  0  0
   28.5802  -22.5114  -16.6648 C   0  0  1  0  0  0  0  0  0  0  0  0
   29.5694  -22.0212  -17.6546 C   0  0  0  0  0  0  0  0  0  0  0  0
   30.1085  -23.1160  -18.5078 C   0  0  0  0  0  0  0  0  0  0  0  0
   31.1023  -24.0372  -17.8972 C   0  0  0  0  0  0  0  0  0  0  0  0
   31.5833  -25.0745  -18.9439 C   0  0  0  0  0  0  0  0  0  0  0  0
   32.6212  -25.8798  -18.3325 N   0  0  0  0  0  0  0  0  0  0  0  0
   27.8961  -21.4222  -15.9311 C   0  0  0  0  0  0  0  0  0  0  0  0
   28.1092  -20.2398  -16.2805 O   0  0  0  0  0  0  0  0  0  0  0  0
   26.1043  -19.1346  -16.3543 C   0  0  0  0  0  0  0  0  0  0  0  0
   25.3139  -19.9242  -15.3617 C   0  0  1  0  0  0  0  0  0  0  0  0
   24.4423  -20.8404  -15.9466 O   0  0  0  0  0  0  0  0  0  0  0  0
   26.1877  -20.5877  -14.3172 C   0  0  2  0  0  0  0  0  0  0  0  0
   27.0042  -21.6369  -14.8446 N   0  0  0  0  0  0  0  0  0  0  0  0
   25.3254  -21.1360  -13.2365 C   0  0  0  0  0  0  0  0  0  0  0  0
   24.8585  -22.3225  -13.3170 O   0  0  0  0  0  0  0  0  0  0  0  0
   29.2036  -20.5199   -6.9799 O   0  0  0  0  0  0  0  0  0  0  0  0
   28.0133  -20.4434   -7.6950 C   0  0  0  0  0  0  0  0  0  0  0  0
   27.5802  -21.4668   -8.5140 C   0  0  0  0  0  0  0  0  0  0  0  0
   26.3938  -21.3732   -9.2175 C   0  0  0  0  0  0  0  0  0  0  0  0
   25.6128  -20.2414   -9.1118 C   0  0  0  0  0  0  0  0  0  0  0  0
   24.3402  -20.0337   -9.8090 C   0  0  0  0  0  0  0  0  0  0  0  0
   24.1638  -20.9371  -11.0093 C   0  0  2  0  0  0  0  0  0  0  0  0
   24.9694  -20.4059  -12.0743 N   0  0  0  0  0  0  0  0  0  0  0  0
   22.7277  -20.9686  -11.3279 C   0  0  0  0  0  0  0  0  0  0  0  0
   21.8702  -21.7121  -10.5564 O   0  0  0  0  0  0  0  0  0  0  0  0
   26.0679  -19.2321   -8.2864 C   0  0  0  0  0  0  0  0  0  0  0  0
   27.2339  -19.3215   -7.5935 C   0  0  0  0  0  0  0  0  0  0  0  0
   22.2947  -20.3215  -12.2955 O   0  0  0  0  0  0  0  0  0  0  0  0
  2  1  1  6
  2  3  1  0
  4  5  1  0
  4  3  1  0
  6  5  1  0
  7  6  1  0
  8 14  1  0
  8  2  1  0
  9  8  2  0
 11 10  1  6
 12 11  1  0
 13 11  1  0
 13 14  1  6
 15 16  2  0
 15 13  1  0
 17 18  1  0
 18 28  2  0
 19 18  1  0
 19 20  2  0
 20 21  1  0
 21 27  2  0
 21 22  1  0
 23 22  1  1
 23 25  1  0
 23 24  1  0
 24 15  1  0
 25 26  1  0
 28 27  1  0
 29 25  2  0
M  END
$$$$
