KTY.pdb
     RDKit          3D

 29 29  0  0  1  0  0  0  0  0999 V2000
   26.8732  -21.1879  -13.9044 N   0  0  0  0  0  0  0  0  0  0  0  0
   26.2794  -19.9487  -13.4625 C   0  0  1  0  0  0  0  0  0  0  0  0
   26.8946  -19.4988  -12.1908 C   0  0  0  0  0  0  0  0  0  0  0  0
   26.3656  -20.2386  -11.0118 C   0  0  0  0  0  0  0  0  0  0  0  0
   24.8897  -20.3487  -10.8750 C   0  0  0  0  0  0  0  0  0  0  0  0
   24.5260  -21.0056   -9.5190 C   0  0  0  0  0  0  0  0  0  0  0  0
   23.0883  -21.1804   -9.4770 N   0  0  0  0  0  0  0  0  0  0  0  0
   26.3994  -18.9564  -14.5550 C   0  0  0  0  0  0  0  0  0  0  0  0
   27.5371  -18.7019  -15.0095 O   0  0  0  0  0  0  0  0  0  0  0  0
   23.8028  -17.9759  -17.6394 C   0  0  0  0  0  0  0  0  0  0  0  0
   25.1712  -17.4125  -17.4301 C   0  0  1  0  0  0  0  0  0  0  0  0
   25.4436  -16.3020  -18.2262 O   0  0  0  0  0  0  0  0  0  0  0  0
   25.4668  -17.1282  -15.9719 C   0  0  2  0  0  0  0  0  0  0  0  0
   25.2936  -18.2682  -15.1255 N   0  0  0  0  0  0  0  0  0  0  0  0
   24.5813  -16.0303  -15.4997 C   0  0  0  0  0  0  0  0  0  0  0  0
   23.4718  -16.2929  -14.9232 O   0  0  0  0  0  0  0  0  0  0  0  0
   28.7143   -9.8021  -17.3946 O   0  0  0  0  0  0  0  0  0  0  0  0
   27.8002  -10.5363  -16.6467 C   0  0  0  0  0  0  0  0  0  0  0  0
   28.1079  -11.7735  -16.1173 C   0  0  0  0  0  0  0  0  0  0  0  0
   27.1862  -12.4892  -15.3761 C   0  0  0  0  0  0  0  0  0  0  0  0
   25.9275  -11.9728  -15.1501 C   0  0  0  0  0  0  0  0  0  0  0  0
   24.8735  -12.6412  -14.3812 C   0  0  0  0  0  0  0  0  0  0  0  0
   24.0366  -13.5868  -15.2138 C   0  0  2  0  0  0  0  0  0  0  0  0
   24.8932  -14.6553  -15.6496 N   0  0  0  0  0  0  0  0  0  0  0  0
   23.4687  -12.8078  -16.3254 C   0  0  0  0  0  0  0  0  0  0  0  0
   22.4561  -11.9124  -16.0884 O   0  0  0  0  0  0  0  0  0  0  0  0
   25.6443  -10.7338  -15.6902 C   0  0  0  0  0  0  0  0  0  0  0  0
   26.5486  -10.0280  -16.4193 C   0  0  0  0  0  0  0  0  0  0  0  0
   23.9078  -12.9628  -17.4767 O   0  0  0  0  0  0  0  0  0  0  0  0
  2  1  1  6
  2  3  1  0
  4  5  1  0
  4  3  1  0
  6  5  1  0
  7  6  1  0
  8 14  1  0
  8  2  1  0
  9  8  2  0
 11 10  1  1
 12 11  1  0
 13 11  1  0
 13 14  1  1
 15 16  2  0
 15 13  1  0
 17 18  1  0
 18 28  2  0
 19 18  1  0
 19 20  2  0
 20 21  1  0
 21 27  2  0
 21 22  1  0
 23 22  1  1
 23 25  1  0
 23 24  1  0
 24 15  1  0
 25 26  1  0
 28 27  1  0
 29 25  2  0
M  END
$$$$
