KTY.pdb
     RDKit          3D

 29 29  0  0  1  0  0  0  0  0999 V2000
   23.4754  -19.1641  -19.9558 N   0  0  0  0  0  0  0  0  0  0  0  0
   24.0576  -18.4921  -18.8187 C   0  0  1  0  0  0  0  0  0  0  0  0
   23.0578  -17.6169  -18.1610 C   0  0  0  0  0  0  0  0  0  0  0  0
   22.2293  -16.8642  -19.1430 C   0  0  0  0  0  0  0  0  0  0  0  0
   22.1425  -17.4034  -20.5252 C   0  0  0  0  0  0  0  0  0  0  0  0
   21.1748  -16.5413  -21.3756 C   0  0  0  0  0  0  0  0  0  0  0  0
   19.8860  -16.5292  -20.7136 N   0  0  0  0  0  0  0  0  0  0  0  0
   24.6281  -19.5146  -17.9123 C   0  0  0  0  0  0  0  0  0  0  0  0
   24.0099  -20.5918  -17.7612 O   0  0  0  0  0  0  0  0  0  0  0  0
   27.4387  -21.6276  -18.3782 C   0  0  0  0  0  0  0  0  0  0  0  0
   27.6907  -20.9711  -17.0594 C   0  0  1  0  0  0  0  0  0  0  0  0
   28.7017  -20.0132  -17.0986 O   0  0  0  0  0  0  0  0  0  0  0  0
   26.4281  -20.4113  -16.4372 C   0  0  2  0  0  0  0  0  0  0  0  0
   25.8453  -19.3482  -17.1962 N   0  0  0  0  0  0  0  0  0  0  0  0
   26.7351  -19.9217  -15.0667 C   0  0  0  0  0  0  0  0  0  0  0  0
   26.7326  -18.6705  -14.8080 O   0  0  0  0  0  0  0  0  0  0  0  0
   24.8059  -21.0362   -6.8242 O   0  0  0  0  0  0  0  0  0  0  0  0
   25.1850  -20.6607   -8.1084 C   0  0  0  0  0  0  0  0  0  0  0  0
   26.3646  -19.9895   -8.3604 C   0  0  0  0  0  0  0  0  0  0  0  0
   26.7252  -19.6240   -9.6441 C   0  0  0  0  0  0  0  0  0  0  0  0
   25.9020  -19.9279  -10.7082 C   0  0  0  0  0  0  0  0  0  0  0  0
   26.1825  -19.5908  -12.1070 C   0  0  0  0  0  0  0  0  0  0  0  0
   27.3871  -20.3158  -12.6648 C   0  0  2  0  0  0  0  0  0  0  0  0
   27.0433  -20.7798  -13.9809 N   0  0  0  0  0  0  0  0  0  0  0  0
   27.7146  -21.4056  -11.7322 C   0  0  0  0  0  0  0  0  0  0  0  0
   28.6336  -21.2010  -10.7338 O   0  0  0  0  0  0  0  0  0  0  0  0
   24.7280  -20.5996  -10.4298 C   0  0  0  0  0  0  0  0  0  0  0  0
   24.3710  -20.9600   -9.1688 C   0  0  0  0  0  0  0  0  0  0  0  0
   27.1577  -22.5094  -11.8510 O   0  0  0  0  0  0  0  0  0  0  0  0
  2  1  1  6
  2  3  1  0
  4  5  1  0
  4  3  1  0
  6  5  1  0
  7  6  1  0
  8 14  1  0
  8  2  1  0
  9  8  2  0
 11 10  1  6
 12 11  1  0
 13 11  1  0
 13 14  1  6
 15 16  2  0
 15 13  1  0
 17 18  1  0
 18 28  2  0
 19 18  1  0
 19 20  2  0
 20 21  1  0
 21 27  2  0
 21 22  1  0
 23 22  1  1
 23 25  1  0
 23 24  1  0
 24 15  1  0
 25 26  1  0
 28 27  1  0
 29 25  2  0
M  END
$$$$
