KTY.pdb
     RDKit          3D

 29 29  0  0  1  0  0  0  0  0999 V2000
   17.5633  -12.7401  -16.6289 N   0  0  0  0  0  0  0  0  0  0  0  0
   18.8055  -12.0767  -16.9454 C   0  0  1  0  0  0  0  0  0  0  0  0
   19.2825  -12.4753  -18.2914 C   0  0  0  0  0  0  0  0  0  0  0  0
   19.8488  -13.8523  -18.3079 C   0  0  0  0  0  0  0  0  0  0  0  0
   18.9307  -14.9689  -18.6537 C   0  0  0  0  0  0  0  0  0  0  0  0
   19.7142  -16.3049  -18.7173 C   0  0  0  0  0  0  0  0  0  0  0  0
   18.8014  -17.3389  -19.1614 N   0  0  0  0  0  0  0  0  0  0  0  0
   18.6059  -10.6164  -16.8029 C   0  0  0  0  0  0  0  0  0  0  0  0
   17.5893  -10.0988  -17.3170 O   0  0  0  0  0  0  0  0  0  0  0  0
   16.8753   -8.5208  -15.1376 C   0  0  0  0  0  0  0  0  0  0  0  0
   18.2641   -8.0651  -14.8256 C   0  0  1  0  0  0  0  0  0  0  0  0
   18.7420   -8.5331  -13.6033 O   0  0  0  0  0  0  0  0  0  0  0  0
   19.2395   -8.3616  -15.9461 C   0  0  2  0  0  0  0  0  0  0  0  0
   19.5044   -9.7573  -16.1126 N   0  0  0  0  0  0  0  0  0  0  0  0
   20.5183   -7.6499  -15.6808 C   0  0  0  0  0  0  0  0  0  0  0  0
   21.4407   -8.2058  -14.9935 O   0  0  0  0  0  0  0  0  0  0  0  0
   26.9457   -1.6394  -16.8731 O   0  0  0  0  0  0  0  0  0  0  0  0
   25.9128   -2.5679  -16.9429 C   0  0  0  0  0  0  0  0  0  0  0  0
   26.0797   -3.8840  -16.5615 C   0  0  0  0  0  0  0  0  0  0  0  0
   25.0411   -4.7933  -16.6377 C   0  0  0  0  0  0  0  0  0  0  0  0
   23.8047   -4.3958  -17.1022 C   0  0  0  0  0  0  0  0  0  0  0  0
   22.6352   -5.2709  -17.2253 C   0  0  0  0  0  0  0  0  0  0  0  0
   22.0245   -5.6409  -15.8919 C   0  0  2  0  0  0  0  0  0  0  0  0
   20.7991   -6.3438  -16.1559 N   0  0  0  0  0  0  0  0  0  0  0  0
   21.8271   -4.3929  -15.1379 C   0  0  0  0  0  0  0  0  0  0  0  0
   22.7794   -3.9745  -14.2428 O   0  0  0  0  0  0  0  0  0  0  0  0
   23.6634   -3.0743  -17.4774 C   0  0  0  0  0  0  0  0  0  0  0  0
   24.6828   -2.1783  -17.4035 C   0  0  0  0  0  0  0  0  0  0  0  0
   20.7977   -3.7206  -15.3137 O   0  0  0  0  0  0  0  0  0  0  0  0
  2  1  1  6
  2  3  1  0
  4  5  1  0
  4  3  1  0
  6  5  1  0
  7  6  1  0
  8 14  1  0
  8  2  1  0
  9  8  2  0
 11 10  1  6
 12 11  1  0
 13 11  1  0
 13 14  1  1
 15 16  2  0
 15 13  1  0
 17 18  1  0
 18 28  2  0
 19 18  1  0
 19 20  2  0
 20 21  1  0
 21 27  2  0
 21 22  1  0
 23 22  1  6
 23 25  1  0
 23 24  1  0
 24 15  1  0
 25 26  1  0
 28 27  1  0
 29 25  2  0
M  END
$$$$
