KTY.pdb
     RDKit          3D

 29 29  0  0  1  0  0  0  0  0999 V2000
   29.2203  -22.6016  -15.5855 N   0  0  0  0  0  0  0  0  0  0  0  0
   28.2694  -21.5165  -15.5446 C   0  0  1  0  0  0  0  0  0  0  0  0
   28.0133  -20.9945  -16.9085 C   0  0  0  0  0  0  0  0  0  0  0  0
   28.7364  -19.7200  -17.1733 C   0  0  0  0  0  0  0  0  0  0  0  0
   28.4596  -19.0271  -18.4587 C   0  0  0  0  0  0  0  0  0  0  0  0
   29.2382  -17.6883  -18.5228 C   0  0  0  0  0  0  0  0  0  0  0  0
   28.9497  -17.0627  -19.7975 N   0  0  0  0  0  0  0  0  0  0  0  0
   27.0457  -21.9920  -14.8596 C   0  0  0  0  0  0  0  0  0  0  0  0
   27.0088  -23.1750  -14.4538 O   0  0  0  0  0  0  0  0  0  0  0  0
   26.7588  -22.4048  -12.1416 C   0  0  0  0  0  0  0  0  0  0  0  0
   25.5530  -21.5252  -12.2192 C   0  0  1  0  0  0  0  0  0  0  0  0
   25.7694  -20.2396  -11.7276 O   0  0  0  0  0  0  0  0  0  0  0  0
   24.9487  -21.4872  -13.6078 C   0  0  2  0  0  0  0  0  0  0  0  0
   25.8995  -21.1819  -14.6318 N   0  0  0  0  0  0  0  0  0  0  0  0
   23.8575  -20.4768  -13.6375 C   0  0  0  0  0  0  0  0  0  0  0  0
   24.1193  -19.2438  -13.8459 O   0  0  0  0  0  0  0  0  0  0  0  0
   20.2071  -23.9361  -18.4631 O   0  0  0  0  0  0  0  0  0  0  0  0
   20.5525  -22.8585  -17.6547 C   0  0  0  0  0  0  0  0  0  0  0  0
   21.8663  -22.5018  -17.4262 C   0  0  0  0  0  0  0  0  0  0  0  0
   22.1909  -21.4271  -16.6193 C   0  0  0  0  0  0  0  0  0  0  0  0
   21.1949  -20.6837  -16.0213 C   0  0  0  0  0  0  0  0  0  0  0  0
   21.4216  -19.5273  -15.1495 C   0  0  0  0  0  0  0  0  0  0  0  0
   21.4101  -19.8786  -13.6783 C   0  0  2  0  0  0  0  0  0  0  0  0
   22.4900  -20.7972  -13.4430 N   0  0  0  0  0  0  0  0  0  0  0  0
   20.0877  -20.4468  -13.3728 C   0  0  0  0  0  0  0  0  0  0  0  0
   19.9780  -21.7580  -12.9832 O   0  0  0  0  0  0  0  0  0  0  0  0
   19.8891  -21.0608  -16.2655 C   0  0  0  0  0  0  0  0  0  0  0  0
   19.5671  -22.1169  -17.0584 C   0  0  0  0  0  0  0  0  0  0  0  0
   19.0728  -19.7373  -13.4685 O   0  0  0  0  0  0  0  0  0  0  0  0
  2  1  1  6
  2  3  1  0
  4  5  1  0
  4  3  1  0
  6  5  1  0
  7  6  1  0
  8 14  1  0
  8  2  1  0
  9  8  2  0
 11 10  1  6
 12 11  1  0
 13 11  1  0
 13 14  1  6
 15 16  2  0
 15 13  1  0
 17 18  1  0
 18 28  2  0
 19 18  1  0
 19 20  2  0
 20 21  1  0
 21 27  2  0
 21 22  1  0
 23 22  1  6
 23 25  1  0
 23 24  1  0
 24 15  1  0
 25 26  1  0
 28 27  1  0
 29 25  2  0
M  END
$$$$
