KTY.pdb
     RDKit          3D

 29 29  0  0  1  0  0  0  0  0999 V2000
   12.4001  -18.8766    2.5448 N   0  0  0  0  0  0  0  0  0  0  0  0
   13.1468  -17.9661    3.3796 C   0  0  1  0  0  0  0  0  0  0  0  0
   12.2394  -17.2318    4.2937 C   0  0  0  0  0  0  0  0  0  0  0  0
   11.3156  -16.3198    3.5643 C   0  0  0  0  0  0  0  0  0  0  0  0
   10.3537  -15.5256    4.3725 C   0  0  0  0  0  0  0  0  0  0  0  0
    9.5205  -14.5975    3.4520 C   0  0  0  0  0  0  0  0  0  0  0  0
    8.6349  -13.8137    4.2892 N   0  0  0  0  0  0  0  0  0  0  0  0
   14.1964  -18.7339    4.0876 C   0  0  0  0  0  0  0  0  0  0  0  0
   13.8842  -19.8214    4.6220 O   0  0  0  0  0  0  0  0  0  0  0  0
   16.1775  -21.1979    3.4503 C   0  0  0  0  0  0  0  0  0  0  0  0
   17.1547  -20.1446    3.8619 C   0  0  1  0  0  0  0  0  0  0  0  0
   17.7853  -19.5202    2.7877 O   0  0  0  0  0  0  0  0  0  0  0  0
   16.5507  -19.1287    4.8096 C   0  0  2  0  0  0  0  0  0  0  0  0
   15.5491  -18.3099    4.1997 N   0  0  0  0  0  0  0  0  0  0  0  0
   17.6316  -18.2597    5.3468 C   0  0  0  0  0  0  0  0  0  0  0  0
   17.6792  -17.0194    5.0434 O   0  0  0  0  0  0  0  0  0  0  0  0
   22.6861  -12.9870    9.5325 O   0  0  0  0  0  0  0  0  0  0  0  0
   21.8116  -13.9887    9.1254 C   0  0  0  0  0  0  0  0  0  0  0  0
   21.6455  -15.1564    9.8427 C   0  0  0  0  0  0  0  0  0  0  0  0
   20.7713  -16.1415    9.4226 C   0  0  0  0  0  0  0  0  0  0  0  0
   20.0409  -15.9723    8.2649 C   0  0  0  0  0  0  0  0  0  0  0  0
   19.0875  -16.9467    7.7261 C   0  0  0  0  0  0  0  0  0  0  0  0
   19.7081  -17.8986    6.7278 C   0  0  2  0  0  0  0  0  0  0  0  0
   18.6563  -18.7283    6.2075 N   0  0  0  0  0  0  0  0  0  0  0  0
   20.7508  -18.6584    7.4350 C   0  0  0  0  0  0  0  0  0  0  0  0
   22.0312  -18.1689    7.5001 O   0  0  0  0  0  0  0  0  0  0  0  0
   20.2250  -14.7958    7.5656 C   0  0  0  0  0  0  0  0  0  0  0  0
   21.0838  -13.8256    7.9764 C   0  0  0  0  0  0  0  0  0  0  0  0
   20.4692  -19.7423    7.9721 O   0  0  0  0  0  0  0  0  0  0  0  0
  2  1  1  1
  2  3  1  0
  4  5  1  0
  4  3  1  0
  6  5  1  0
  7  6  1  0
  8 14  1  0
  8  2  1  0
  9  8  2  0
 11 10  1  6
 12 11  1  0
 13 11  1  0
 13 14  1  6
 15 16  2  0
 15 13  1  0
 17 18  1  0
 18 28  2  0
 19 18  1  0
 19 20  2  0
 20 21  1  0
 21 27  2  0
 21 22  1  0
 23 22  1  1
 23 25  1  0
 23 24  1  0
 24 15  1  0
 25 26  1  0
 28 27  1  0
 29 25  2  0
M  END
$$$$
