KTY.pdb
     RDKit          3D

 29 29  0  0  1  0  0  0  0  0999 V2000
   30.0739  -20.6532  -21.1695 N   0  0  0  0  0  0  0  0  0  0  0  0
   29.8058  -21.3706  -19.9460 C   0  0  1  0  0  0  0  0  0  0  0  0
   31.0711  -21.8071  -19.3084 C   0  0  0  0  0  0  0  0  0  0  0  0
   31.6638  -22.9968  -19.9798 C   0  0  0  0  0  0  0  0  0  0  0  0
   32.1362  -24.1096  -19.1152 C   0  0  0  0  0  0  0  0  0  0  0  0
   31.3176  -25.3941  -19.4023 C   0  0  0  0  0  0  0  0  0  0  0  0
   31.8354  -26.4532  -18.5599 N   0  0  0  0  0  0  0  0  0  0  0  0
   28.9750  -20.5113  -19.0720 C   0  0  0  0  0  0  0  0  0  0  0  0
   29.0453  -19.2699  -19.2123 O   0  0  0  0  0  0  0  0  0  0  0  0
   26.0916  -19.0454  -19.2726 C   0  0  0  0  0  0  0  0  0  0  0  0
   25.9133  -19.8716  -18.0400 C   0  0  1  0  0  0  0  0  0  0  0  0
   25.1942  -21.0453  -18.2559 O   0  0  0  0  0  0  0  0  0  0  0  0
   27.2234  -20.1527  -17.3333 C   0  0  2  0  0  0  0  0  0  0  0  0
   28.0942  -21.0121  -18.0743 N   0  0  0  0  0  0  0  0  0  0  0  0
   26.9411  -20.7679  -16.0088 C   0  0  0  0  0  0  0  0  0  0  0  0
   26.8897  -22.0380  -15.8801 O   0  0  0  0  0  0  0  0  0  0  0  0
   24.6790  -21.0494   -7.4125 O   0  0  0  0  0  0  0  0  0  0  0  0
   25.2022  -20.6991   -8.6524 C   0  0  0  0  0  0  0  0  0  0  0  0
   26.5097  -20.9703   -9.0023 C   0  0  0  0  0  0  0  0  0  0  0  0
   27.0127  -20.6145  -10.2399 C   0  0  0  0  0  0  0  0  0  0  0  0
   26.2064  -19.9744  -11.1577 C   0  0  0  0  0  0  0  0  0  0  0  0
   26.6317  -19.5523  -12.4956 C   0  0  0  0  0  0  0  0  0  0  0  0
   26.3724  -20.5952  -13.5601 C   0  0  2  0  0  0  0  0  0  0  0  0
   26.7154  -20.0143  -14.8292 N   0  0  0  0  0  0  0  0  0  0  0  0
   24.9559  -20.9804  -13.4618 C   0  0  0  0  0  0  0  0  0  0  0  0
   24.6056  -22.1533  -12.8415 O   0  0  0  0  0  0  0  0  0  0  0  0
   24.9028  -19.7145  -10.7837 C   0  0  0  0  0  0  0  0  0  0  0  0
   24.4057  -20.0631   -9.5676 C   0  0  0  0  0  0  0  0  0  0  0  0
   24.0797  -20.2422  -13.9412 O   0  0  0  0  0  0  0  0  0  0  0  0
  2  1  1  6
  2  3  1  0
  4  5  1  0
  4  3  1  0
  6  5  1  0
  7  6  1  0
  8 14  1  0
  8  2  1  0
  9  8  2  0
 11 10  1  6
 12 11  1  0
 13 11  1  0
 13 14  1  6
 15 16  2  0
 15 13  1  0
 17 18  1  0
 18 28  2  0
 19 18  1  0
 19 20  2  0
 20 21  1  0
 21 27  2  0
 21 22  1  0
 23 22  1  1
 23 25  1  0
 23 24  1  0
 24 15  1  0
 25 26  1  0
 28 27  1  0
 29 25  2  0
M  END
$$$$
