KTY.pdb
     RDKit          3D

 29 29  0  0  1  0  0  0  0  0999 V2000
   17.7122  -14.1392  -17.2365 N   0  0  0  0  0  0  0  0  0  0  0  0
   17.1151  -12.9231  -16.7387 C   0  0  1  0  0  0  0  0  0  0  0  0
   16.4025  -13.1750  -15.4632 C   0  0  0  0  0  0  0  0  0  0  0  0
   15.3011  -14.1656  -15.6147 C   0  0  0  0  0  0  0  0  0  0  0  0
   15.3062  -15.3431  -14.7078 C   0  0  0  0  0  0  0  0  0  0  0  0
   14.0140  -16.1760  -14.9058 C   0  0  0  0  0  0  0  0  0  0  0  0
   14.0319  -17.2650  -13.9502 N   0  0  0  0  0  0  0  0  0  0  0  0
   18.1737  -11.8940  -16.6253 C   0  0  0  0  0  0  0  0  0  0  0  0
   19.3607  -12.2686  -16.4970 O   0  0  0  0  0  0  0  0  0  0  0  0
   19.2482   -9.4435  -19.2161 C   0  0  0  0  0  0  0  0  0  0  0  0
   18.9313   -8.6768  -17.9729 C   0  0  1  0  0  0  0  0  0  0  0  0
   17.7330   -7.9697  -18.0453 O   0  0  0  0  0  0  0  0  0  0  0  0
   18.9858   -9.5382  -16.7280 C   0  0  2  0  0  0  0  0  0  0  0  0
   17.9246  -10.4943  -16.6533 N   0  0  0  0  0  0  0  0  0  0  0  0
   18.9401   -8.6628  -15.5265 C   0  0  0  0  0  0  0  0  0  0  0  0
   17.8754   -8.5767  -14.8255 O   0  0  0  0  0  0  0  0  0  0  0  0
   25.4373   -5.9359  -17.1268 O   0  0  0  0  0  0  0  0  0  0  0  0
   24.4385   -6.1591  -16.1852 C   0  0  0  0  0  0  0  0  0  0  0  0
   23.7875   -5.1243  -15.5442 C   0  0  0  0  0  0  0  0  0  0  0  0
   22.7966   -5.3652  -14.6106 C   0  0  0  0  0  0  0  0  0  0  0  0
   22.4371   -6.6600  -14.3000 C   0  0  0  0  0  0  0  0  0  0  0  0
   21.4036   -7.0324  -13.3294 C   0  0  0  0  0  0  0  0  0  0  0  0
   20.0102   -7.0452  -13.9178 C   0  0  2  0  0  0  0  0  0  0  0  0
   20.0395   -7.8840  -15.0844 N   0  0  0  0  0  0  0  0  0  0  0  0
   19.6459   -5.6508  -14.2143 C   0  0  0  0  0  0  0  0  0  0  0  0
   19.3302   -4.7921  -13.1914 O   0  0  0  0  0  0  0  0  0  0  0  0
   23.1031   -7.6772  -14.9548 C   0  0  0  0  0  0  0  0  0  0  0  0
   24.0777   -7.4432  -15.8730 C   0  0  0  0  0  0  0  0  0  0  0  0
   19.6250   -5.2541  -15.3910 O   0  0  0  0  0  0  0  0  0  0  0  0
  2  1  1  1
  2  3  1  0
  4  5  1  0
  4  3  1  0
  6  5  1  0
  7  6  1  0
  8 14  1  0
  8  2  1  0
  9  8  2  0
 11 10  1  6
 12 11  1  0
 13 11  1  0
 13 14  1  1
 15 16  2  0
 15 13  1  0
 17 18  1  0
 18 28  2  0
 19 18  1  0
 19 20  2  0
 20 21  1  0
 21 27  2  0
 21 22  1  0
 23 22  1  6
 23 25  1  0
 23 24  1  0
 24 15  1  0
 25 26  1  0
 28 27  1  0
 29 25  2  0
M  END
$$$$
