KTY.pdb
     RDKit          3D

 29 29  0  0  1  0  0  0  0  0999 V2000
   30.2088  -22.3603  -18.2758 N   0  0  0  0  0  0  0  0  0  0  0  0
   28.7951  -22.5821  -18.0867 C   0  0  1  0  0  0  0  0  0  0  0  0
   28.4543  -24.0064  -18.3179 C   0  0  0  0  0  0  0  0  0  0  0  0
   28.4129  -24.3521  -19.7657 C   0  0  0  0  0  0  0  0  0  0  0  0
   27.2352  -23.8941  -20.5482 C   0  0  0  0  0  0  0  0  0  0  0  0
   26.5326  -25.1045  -21.2146 C   0  0  0  0  0  0  0  0  0  0  0  0
   25.5900  -25.6556  -20.2622 N   0  0  0  0  0  0  0  0  0  0  0  0
   28.4224  -22.1019  -16.7365 C   0  0  0  0  0  0  0  0  0  0  0  0
   29.2246  -22.2852  -15.7939 O   0  0  0  0  0  0  0  0  0  0  0  0
   28.1603  -18.7094  -15.3917 C   0  0  0  0  0  0  0  0  0  0  0  0
   26.8384  -19.3676  -15.1620 C   0  0  1  0  0  0  0  0  0  0  0  0
   25.8409  -18.9317  -16.0317 O   0  0  0  0  0  0  0  0  0  0  0  0
   26.9350  -20.8794  -15.1514 C   0  0  2  0  0  0  0  0  0  0  0  0
   27.1994  -21.4396  -16.4406 N   0  0  0  0  0  0  0  0  0  0  0  0
   25.6648  -21.4457  -14.6238 C   0  0  0  0  0  0  0  0  0  0  0  0
   25.2409  -22.5802  -15.0307 O   0  0  0  0  0  0  0  0  0  0  0  0
   26.9539  -19.9691   -7.8365 O   0  0  0  0  0  0  0  0  0  0  0  0
   26.2781  -20.5724   -8.8917 C   0  0  0  0  0  0  0  0  0  0  0  0
   26.9290  -21.3283   -9.8459 C   0  0  0  0  0  0  0  0  0  0  0  0
   26.2406  -21.9206  -10.8882 C   0  0  0  0  0  0  0  0  0  0  0  0
   24.8743  -21.7645  -10.9937 C   0  0  0  0  0  0  0  0  0  0  0  0
   24.0442  -22.3453  -12.0532 C   0  0  0  0  0  0  0  0  0  0  0  0
   23.6483  -21.3447  -13.1163 C   0  0  2  0  0  0  0  0  0  0  0  0
   24.8567  -20.7895  -13.6612 N   0  0  0  0  0  0  0  0  0  0  0  0
   22.7857  -20.3403  -12.4745 C   0  0  0  0  0  0  0  0  0  0  0  0
   23.1940  -19.0322  -12.4008 O   0  0  0  0  0  0  0  0  0  0  0  0
   24.2467  -21.0039  -10.0270 C   0  0  0  0  0  0  0  0  0  0  0  0
   24.9211  -20.4204   -9.0012 C   0  0  0  0  0  0  0  0  0  0  0  0
   21.6890  -20.6793  -12.0005 O   0  0  0  0  0  0  0  0  0  0  0  0
  2  1  1  1
  2  3  1  0
  4  5  1  0
  4  3  1  0
  6  5  1  0
  7  6  1  0
  8 14  1  0
  8  2  1  0
  9  8  2  0
 11 10  1  6
 12 11  1  0
 13 11  1  0
 13 14  1  6
 15 16  2  0
 15 13  1  0
 17 18  1  0
 18 28  2  0
 19 18  1  0
 19 20  2  0
 20 21  1  0
 21 27  2  0
 21 22  1  0
 23 22  1  1
 23 25  1  0
 23 24  1  0
 24 15  1  0
 25 26  1  0
 28 27  1  0
 29 25  2  0
M  END
$$$$
