KTY.pdb
     RDKit          3D

 29 29  0  0  1  0  0  0  0  0999 V2000
   32.0915  -30.4830  -20.6525 N   0  0  0  0  0  0  0  0  0  0  0  0
   31.8099  -31.5352  -19.7055 C   0  0  1  0  0  0  0  0  0  0  0  0
   32.8257  -31.5518  -18.6257 C   0  0  0  0  0  0  0  0  0  0  0  0
   34.0688  -32.2666  -19.0271 C   0  0  0  0  0  0  0  0  0  0  0  0
   35.1200  -32.4510  -17.9928 C   0  0  0  0  0  0  0  0  0  0  0  0
   36.2969  -33.2795  -18.5685 C   0  0  0  0  0  0  0  0  0  0  0  0
   37.2553  -33.4964  -17.5036 N   0  0  0  0  0  0  0  0  0  0  0  0
   30.4270  -31.3581  -19.2066 C   0  0  0  0  0  0  0  0  0  0  0  0
   29.9079  -30.2216  -19.2735 O   0  0  0  0  0  0  0  0  0  0  0  0
   27.2322  -31.9427  -20.5534 C   0  0  0  0  0  0  0  0  0  0  0  0
   27.3034  -32.7771  -19.3155 C   0  0  1  0  0  0  0  0  0  0  0  0
   27.5538  -34.1246  -19.5664 O   0  0  0  0  0  0  0  0  0  0  0  0
   28.2724  -32.2200  -18.2930 C   0  0  2  0  0  0  0  0  0  0  0  0
   29.6444  -32.4074  -18.6512 N   0  0  0  0  0  0  0  0  0  0  0  0
   28.0183  -32.8659  -16.9775 C   0  0  0  0  0  0  0  0  0  0  0  0
   28.7010  -33.8814  -16.6097 O   0  0  0  0  0  0  0  0  0  0  0  0
   21.0402  -31.0423  -16.7850 O   0  0  0  0  0  0  0  0  0  0  0  0
   22.2044  -31.3473  -16.0883 C   0  0  0  0  0  0  0  0  0  0  0  0
   22.3305  -32.4967  -15.3341 C   0  0  0  0  0  0  0  0  0  0  0  0
   23.4959  -32.7836  -14.6479 C   0  0  0  0  0  0  0  0  0  0  0  0
   24.5660  -31.9153  -14.7059 C   0  0  0  0  0  0  0  0  0  0  0  0
   25.8464  -32.1170  -14.0214 C   0  0  0  0  0  0  0  0  0  0  0  0
   26.7929  -33.0197  -14.7812 C   0  0  2  0  0  0  0  0  0  0  0  0
   27.0315  -32.4169  -16.0638 N   0  0  0  0  0  0  0  0  0  0  0  0
   26.1590  -34.3444  -14.8712 C   0  0  0  0  0  0  0  0  0  0  0  0
   26.0287  -35.1202  -13.7467 O   0  0  0  0  0  0  0  0  0  0  0  0
   24.4147  -30.7729  -15.4669 C   0  0  0  0  0  0  0  0  0  0  0  0
   23.2701  -30.4883  -16.1425 C   0  0  0  0  0  0  0  0  0  0  0  0
   25.7430  -34.7577  -15.9660 O   0  0  0  0  0  0  0  0  0  0  0  0
  2  1  1  6
  2  3  1  0
  4  5  1  0
  4  3  1  0
  6  5  1  0
  7  6  1  0
  8 14  1  0
  8  2  1  0
  9  8  2  0
 11 10  1  6
 12 11  1  0
 13 11  1  0
 13 14  1  6
 15 16  2  0
 15 13  1  0
 17 18  1  0
 18 28  2  0
 19 18  1  0
 19 20  2  0
 20 21  1  0
 21 27  2  0
 21 22  1  0
 23 22  1  1
 23 25  1  0
 23 24  1  0
 24 15  1  0
 25 26  1  0
 28 27  1  0
 29 25  2  0
M  END
$$$$
