KTY.pdb
     RDKit          3D

 29 29  0  0  1  0  0  0  0  0999 V2000
   26.7083  -18.0085  -19.9324 N   0  0  0  0  0  0  0  0  0  0  0  0
   25.3226  -18.4118  -19.9077 C   0  0  1  0  0  0  0  0  0  0  0  0
   25.2076  -19.8892  -19.9559 C   0  0  0  0  0  0  0  0  0  0  0  0
   24.4338  -20.3598  -21.1378 C   0  0  0  0  0  0  0  0  0  0  0  0
   24.8306  -19.8375  -22.4715 C   0  0  0  0  0  0  0  0  0  0  0  0
   23.8687  -20.3724  -23.5630 C   0  0  0  0  0  0  0  0  0  0  0  0
   24.2528  -19.7800  -24.8283 N   0  0  0  0  0  0  0  0  0  0  0  0
   24.6818  -17.8125  -18.7149 C   0  0  0  0  0  0  0  0  0  0  0  0
   25.3447  -17.7322  -17.6567 O   0  0  0  0  0  0  0  0  0  0  0  0
   21.2793  -14.9646  -16.5843 C   0  0  0  0  0  0  0  0  0  0  0  0
   22.0137  -15.4601  -17.7879 C   0  0  1  0  0  0  0  0  0  0  0  0
   22.8378  -14.5001  -18.3714 O   0  0  0  0  0  0  0  0  0  0  0  0
   22.7715  -16.7441  -17.5197 C   0  0  2  0  0  0  0  0  0  0  0  0
   23.3488  -17.3180  -18.6957 N   0  0  0  0  0  0  0  0  0  0  0  0
   21.8517  -17.7320  -16.8950 C   0  0  0  0  0  0  0  0  0  0  0  0
   21.0019  -18.3685  -17.6058 O   0  0  0  0  0  0  0  0  0  0  0  0
   17.8819  -22.4181  -10.4531 O   0  0  0  0  0  0  0  0  0  0  0  0
   18.7612  -21.6579  -11.2165 C   0  0  0  0  0  0  0  0  0  0  0  0
   19.6590  -22.2319  -12.0940 C   0  0  0  0  0  0  0  0  0  0  0  0
   20.5259  -21.4600  -12.8450 C   0  0  0  0  0  0  0  0  0  0  0  0
   20.5082  -20.0858  -12.7288 C   0  0  0  0  0  0  0  0  0  0  0  0
   21.3786  -19.1709  -13.4732 C   0  0  0  0  0  0  0  0  0  0  0  0
   20.8851  -18.8863  -14.8744 C   0  0  2  0  0  0  0  0  0  0  0  0
   21.8501  -18.0310  -15.5090 N   0  0  0  0  0  0  0  0  0  0  0  0
   19.5539  -18.2712  -14.7547 C   0  0  0  0  0  0  0  0  0  0  0  0
   18.4286  -19.0198  -14.9927 O   0  0  0  0  0  0  0  0  0  0  0  0
   19.6011  -19.5361  -11.8444 C   0  0  0  0  0  0  0  0  0  0  0  0
   18.7478  -20.2926  -11.1048 C   0  0  0  0  0  0  0  0  0  0  0  0
   19.4520  -17.0746  -14.4382 O   0  0  0  0  0  0  0  0  0  0  0  0
  2  1  1  1
  2  3  1  0
  4  5  1  0
  4  3  1  0
  6  5  1  0
  7  6  1  0
  8 14  1  0
  8  2  1  0
  9  8  2  0
 11 10  1  1
 12 11  1  0
 13 11  1  0
 13 14  1  6
 15 16  2  0
 15 13  1  0
 17 18  1  0
 18 28  2  0
 19 18  1  0
 19 20  2  0
 20 21  1  0
 21 27  2  0
 21 22  1  0
 23 22  1  1
 23 25  1  0
 23 24  1  0
 24 15  1  0
 25 26  1  0
 28 27  1  0
 29 25  2  0
M  END
$$$$
