KTY.pdb
     RDKit          3D

 29 29  0  0  1  0  0  0  0  0999 V2000
   16.2563  -14.8855  -15.6269 N   0  0  0  0  0  0  0  0  0  0  0  0
   16.5125  -13.7838  -16.5236 C   0  0  1  0  0  0  0  0  0  0  0  0
   15.4964  -12.7188  -16.3464 C   0  0  0  0  0  0  0  0  0  0  0  0
   14.1155  -13.1996  -16.6276 C   0  0  0  0  0  0  0  0  0  0  0  0
   13.0151  -12.2022  -16.5685 C   0  0  0  0  0  0  0  0  0  0  0  0
   11.6684  -12.8687  -16.9489 C   0  0  0  0  0  0  0  0  0  0  0  0
   10.6117  -11.9024  -16.7276 N   0  0  0  0  0  0  0  0  0  0  0  0
   17.8992  -13.3136  -16.3032 C   0  0  0  0  0  0  0  0  0  0  0  0
   18.4730  -13.6229  -15.2351 O   0  0  0  0  0  0  0  0  0  0  0  0
   22.3581  -12.0490  -17.6295 C   0  0  0  0  0  0  0  0  0  0  0  0
   20.9936  -12.5910  -17.9090 C   0  0  1  0  0  0  0  0  0  0  0  0
   20.9488  -13.9823  -17.9688 O   0  0  0  0  0  0  0  0  0  0  0  0
   19.9460  -12.0485  -16.9586 C   0  0  2  0  0  0  0  0  0  0  0  0
   18.6267  -12.5257  -17.2369 N   0  0  0  0  0  0  0  0  0  0  0  0
   19.9517  -10.5625  -17.0228 C   0  0  0  0  0  0  0  0  0  0  0  0
   19.4275   -9.9532  -18.0159 O   0  0  0  0  0  0  0  0  0  0  0  0
   21.1605   -2.1444  -14.4185 O   0  0  0  0  0  0  0  0  0  0  0  0
   21.0590   -3.5290  -14.4982 C   0  0  0  0  0  0  0  0  0  0  0  0
   19.8412   -4.1738  -14.5802 C   0  0  0  0  0  0  0  0  0  0  0  0
   19.7596   -5.5516  -14.6588 C   0  0  0  0  0  0  0  0  0  0  0  0
   20.9082   -6.3151  -14.6567 C   0  0  0  0  0  0  0  0  0  0  0  0
   20.9414   -7.7785  -14.7359 C   0  0  0  0  0  0  0  0  0  0  0  0
   20.6182   -8.3083  -16.1153 C   0  0  2  0  0  0  0  0  0  0  0  0
   20.5211   -9.7389  -16.0189 N   0  0  0  0  0  0  0  0  0  0  0  0
   21.6876   -7.8586  -17.0202 C   0  0  0  0  0  0  0  0  0  0  0  0
   21.4911   -6.7633  -17.8232 O   0  0  0  0  0  0  0  0  0  0  0  0
   22.1136   -5.6465  -14.5739 C   0  0  0  0  0  0  0  0  0  0  0  0
   22.1967   -4.2920  -14.4965 C   0  0  0  0  0  0  0  0  0  0  0  0
   22.7668   -8.4723  -17.0550 O   0  0  0  0  0  0  0  0  0  0  0  0
  2  1  1  1
  2  3  1  0
  4  5  1  0
  4  3  1  0
  6  5  1  0
  7  6  1  0
  8 14  1  0
  8  2  1  0
  9  8  2  0
 11 10  1  1
 12 11  1  0
 13 11  1  0
 13 14  1  6
 15 16  2  0
 15 13  1  0
 17 18  1  0
 18 28  2  0
 19 18  1  0
 19 20  2  0
 20 21  1  0
 21 27  2  0
 21 22  1  0
 23 22  1  1
 23 25  1  0
 23 24  1  0
 24 15  1  0
 25 26  1  0
 28 27  1  0
 29 25  2  0
M  END
$$$$
