KTY.pdb
     RDKit          3D

 29 29  0  0  1  0  0  0  0  0999 V2000
   25.6123  -17.6117  -16.1704 N   0  0  0  0  0  0  0  0  0  0  0  0
   26.5221  -17.7814  -15.0628 C   0  0  1  0  0  0  0  0  0  0  0  0
   26.9512  -16.4648  -14.5329 C   0  0  0  0  0  0  0  0  0  0  0  0
   27.6600  -15.6456  -15.5545 C   0  0  0  0  0  0  0  0  0  0  0  0
   26.8496  -15.0796  -16.6645 C   0  0  0  0  0  0  0  0  0  0  0  0
   27.7595  -14.2972  -17.6457 C   0  0  0  0  0  0  0  0  0  0  0  0
   26.9650  -13.9355  -18.8021 N   0  0  0  0  0  0  0  0  0  0  0  0
   25.8683  -18.6374  -14.0468 C   0  0  0  0  0  0  0  0  0  0  0  0
   24.6756  -18.4059  -13.7476 O   0  0  0  0  0  0  0  0  0  0  0  0
   24.8207  -22.0919  -14.3327 C   0  0  0  0  0  0  0  0  0  0  0  0
   25.7083  -22.0270  -13.1321 C   0  0  1  0  0  0  0  0  0  0  0  0
   26.9742  -22.5684  -13.3459 O   0  0  0  0  0  0  0  0  0  0  0  0
   25.7995  -20.6313  -12.5504 C   0  0  2  0  0  0  0  0  0  0  0  0
   26.5160  -19.7156  -13.3835 N   0  0  0  0  0  0  0  0  0  0  0  0
   26.4596  -20.6997  -11.2192 C   0  0  0  0  0  0  0  0  0  0  0  0
   27.7285  -20.8182  -11.1286 O   0  0  0  0  0  0  0  0  0  0  0  0
   29.4036  -19.8996   -3.1877 O   0  0  0  0  0  0  0  0  0  0  0  0
   28.8393  -19.8135   -4.4558 C   0  0  0  0  0  0  0  0  0  0  0  0
   27.7834  -18.9694   -4.7353 C   0  0  0  0  0  0  0  0  0  0  0  0
   27.2350  -18.8970   -6.0023 C   0  0  0  0  0  0  0  0  0  0  0  0
   27.7401  -19.6768   -7.0217 C   0  0  0  0  0  0  0  0  0  0  0  0
   27.2390  -19.6820   -8.3992 C   0  0  0  0  0  0  0  0  0  0  0  0
   26.3545  -20.8696   -8.7074 C   0  0  2  0  0  0  0  0  0  0  0  0
   25.7521  -20.6403   -9.9919 N   0  0  0  0  0  0  0  0  0  0  0  0
   25.3727  -20.9805   -7.6172 C   0  0  0  0  0  0  0  0  0  0  0  0
   24.0672  -20.6149   -7.8302 O   0  0  0  0  0  0  0  0  0  0  0  0
   28.7961  -20.5126   -6.7166 C   0  0  0  0  0  0  0  0  0  0  0  0
   29.3372  -20.5858   -5.4718 C   0  0  0  0  0  0  0  0  0  0  0  0
   25.7283  -21.4053   -6.5057 O   0  0  0  0  0  0  0  0  0  0  0  0
  2  1  1  6
  2  3  1  0
  4  5  1  0
  4  3  1  0
  6  5  1  0
  7  6  1  0
  8 14  1  0
  8  2  1  0
  9  8  2  0
 11 10  1  6
 12 11  1  0
 13 11  1  0
 13 14  1  6
 15 16  2  0
 15 13  1  0
 17 18  1  0
 18 28  2  0
 19 18  1  0
 19 20  2  0
 20 21  1  0
 21 27  2  0
 21 22  1  0
 23 22  1  1
 23 25  1  0
 23 24  1  0
 24 15  1  0
 25 26  1  0
 28 27  1  0
 29 25  2  0
M  END
$$$$
