RFA.pdb
     RDKit          3D

 28 28  0  0  1  0  0  0  0  0999 V2000
   10.3556  -22.0903   19.1262 N   0  0  0  0  0  0  0  0  0  0  0  0
   11.1148  -22.1477   20.3182 C   0  0  0  0  0  0  0  0  0  0  0  0
   11.1269  -23.2030   21.0231 N   0  0  0  0  0  0  0  0  0  0  0  0
   11.8813  -21.0287   20.7564 N   0  0  0  0  0  0  0  0  0  0  0  0
   11.8510  -19.7922   20.0480 C   0  0  0  0  0  0  0  0  0  0  0  0
   10.6329  -18.9549   20.3529 C   0  0  0  0  0  0  0  0  0  0  0  0
   11.1193  -17.5187   20.5863 C   0  0  0  0  0  0  0  0  0  0  0  0
    9.9669  -16.5545   20.5276 C   0  0  2  0  0  0  0  0  0  0  0  0
   10.0076  -15.6980   19.3600 N   0  0  0  0  0  0  0  0  0  0  0  0
    9.9769  -15.7233   21.7390 C   0  0  0  0  0  0  0  0  0  0  0  0
   11.0202  -15.0769   22.0484 O   0  0  0  0  0  0  0  0  0  0  0  0
   11.6892  -23.3295   21.8927 N   0  0  0  0  0  0  0  0  0  0  0  0
    8.8323  -15.6328   22.5712 C   0  0  2  0  0  0  0  0  0  0  0  0
    8.7973  -14.8424   23.7804 C   0  0  0  0  0  0  0  0  0  0  0  0
    7.4812  -14.1243   23.9183 C   0  0  0  0  0  0  0  0  0  0  0  0
    7.3595  -13.3651   25.1789 C   0  0  0  0  0  0  0  0  0  0  0  0
    6.4699  -13.7516   26.1490 C   0  0  0  0  0  0  0  0  0  0  0  0
    6.3438  -13.0427   27.3494 C   0  0  0  0  0  0  0  0  0  0  0  0
    7.1181  -11.9408   27.5699 C   0  0  0  0  0  0  0  0  0  0  0  0
    8.0122  -11.5459   26.6037 C   0  0  0  0  0  0  0  0  0  0  0  0
    8.1310  -12.2521   25.4196 C   0  0  0  0  0  0  0  0  0  0  0  0
    8.8848  -15.7868   24.9490 O   0  0  0  0  0  0  0  0  0  0  0  0
    7.9276  -16.5738   25.2053 C   0  0  0  0  0  0  0  0  0  0  0  0
   11.7021  -17.2304   26.7033 C   0  0  2  0  0  0  0  0  0  0  0  0
   10.2557  -16.7878   26.8260 N   0  0  0  0  0  0  0  0  0  0  0  0
   10.0261  -15.8165   25.7785 C   0  0  0  0  0  0  0  0  0  0  0  0
   10.0208  -16.1855   28.1714 O   0  0  0  0  0  0  0  0  0  0  0  0
   10.1375  -16.9063   29.2021 O   0  0  0  0  0  0  0  0  0  0  0  0
  2  1  1  0
  3  2  2  0
  4  2  1  0
  5  4  1  0
  6  5  1  0
  6  7  1  0
  8  7  1  0
  8  9  1  6
 10 12  1  0
 10  8  1  0
 11 10  2  0
 13 21  1  0
 13 12  1  0
 13 14  1  1
 15 16  2  0
 15 14  1  0
 17 16  1  0
 18 17  2  0
 19 18  1  0
 19 20  2  0
 20 15  1  0
 21 22  2  0
 24 23  1  6
 25 24  1  0
 25 21  1  0
 26 28  1  0
 26 24  1  0
 27 26  2  0
M  END
$$$$
