RFA.pdb
     RDKit          3D

 28 28  0  0  1  0  0  0  0  0999 V2000
    8.5214  -15.5530   13.7794 N   0  0  0  0  0  0  0  0  0  0  0  0
    8.8492  -14.3027   14.3537 C   0  0  0  0  0  0  0  0  0  0  0  0
    8.7446  -13.2356   13.6747 N   0  0  0  0  0  0  0  0  0  0  0  0
    9.3029  -14.2090   15.7016 N   0  0  0  0  0  0  0  0  0  0  0  0
    8.6792  -14.9566   16.7426 C   0  0  0  0  0  0  0  0  0  0  0  0
    7.5956  -14.1930   17.4642 C   0  0  0  0  0  0  0  0  0  0  0  0
    8.1925  -13.7090   18.7921 C   0  0  0  0  0  0  0  0  0  0  0  0
    8.7190  -14.8703   19.5891 C   0  0  2  0  0  0  0  0  0  0  0  0
    7.8387  -16.0204   19.5582 N   0  0  0  0  0  0  0  0  0  0  0  0
    8.9128  -14.4455   20.9821 C   0  0  0  0  0  0  0  0  0  0  0  0
    9.7690  -13.5535   21.2531 O   0  0  0  0  0  0  0  0  0  0  0  0
    8.9879  -12.2833   14.0243 N   0  0  0  0  0  0  0  0  0  0  0  0
    8.1537  -15.0206   22.0328 C   0  0  1  0  0  0  0  0  0  0  0  0
    8.2641  -14.5953   23.4094 C   0  0  0  0  0  0  0  0  0  0  0  0
    7.0226  -13.8668   23.8508 C   0  0  0  0  0  0  0  0  0  0  0  0
    7.1112  -13.3440   25.2288 C   0  0  0  0  0  0  0  0  0  0  0  0
    6.2835  -13.8178   26.2149 C   0  0  0  0  0  0  0  0  0  0  0  0
    6.3562  -13.3327   27.5260 C   0  0  0  0  0  0  0  0  0  0  0  0
    7.2672  -12.3668   27.8412 C   0  0  0  0  0  0  0  0  0  0  0  0
    8.1007  -11.8859   26.8600 C   0  0  0  0  0  0  0  0  0  0  0  0
    8.0226  -12.3707   25.5662 C   0  0  0  0  0  0  0  0  0  0  0  0
    8.3534  -15.8298   24.2656 O   0  0  0  0  0  0  0  0  0  0  0  0
    7.3802  -16.6365   24.3239 C   0  0  0  0  0  0  0  0  0  0  0  0
   10.9500  -17.9983   25.2420 C   0  0  2  0  0  0  0  0  0  0  0  0
    9.7139  -17.3153   25.7975 N   0  0  0  0  0  0  0  0  0  0  0  0
    9.5140  -16.1139   25.0163 C   0  0  0  0  0  0  0  0  0  0  0  0
    9.9198  -16.9852   27.2386 O   0  0  0  0  0  0  0  0  0  0  0  0
   10.0703  -15.7791   27.5827 O   0  0  0  0  0  0  0  0  0  0  0  0
  2  1  1  0
  3  2  2  0
  4  2  1  0
  5  4  1  0
  6  5  1  0
  6  7  1  0
  8  7  1  0
  8  9  1  1
 10 12  1  0
 10  8  1  0
 11 10  2  0
 13 21  1  0
 13 12  1  0
 13 14  1  1
 15 16  2  0
 15 14  1  0
 17 16  1  0
 18 17  2  0
 19 18  1  0
 19 20  2  0
 20 15  1  0
 21 22  2  0
 24 23  1  6
 25 24  1  0
 25 21  1  0
 26 28  1  0
 26 24  1  0
 27 26  2  0
M  END
$$$$
