RFA.pdb
     RDKit          3D

 28 28  0  0  1  0  0  0  0  0999 V2000
    7.4098  -13.9129   15.9999 N   0  0  0  0  0  0  0  0  0  0  0  0
    8.5539  -13.8997   16.8313 C   0  0  0  0  0  0  0  0  0  0  0  0
    8.5311  -13.2964   17.9477 N   0  0  0  0  0  0  0  0  0  0  0  0
    9.7551  -14.5595   16.4397 N   0  0  0  0  0  0  0  0  0  0  0  0
   10.1319  -15.8074   17.0163 C   0  0  0  0  0  0  0  0  0  0  0  0
    9.1322  -16.3327   18.0175 C   0  0  0  0  0  0  0  0  0  0  0  0
    9.8814  -16.5309   19.3417 C   0  0  0  0  0  0  0  0  0  0  0  0
    8.9609  -17.0904   20.3908 C   0  0  2  0  0  0  0  0  0  0  0  0
    7.5663  -17.0399   20.0020 N   0  0  0  0  0  0  0  0  0  0  0  0
    9.1439  -16.3368   21.6386 C   0  0  0  0  0  0  0  0  0  0  0  0
   10.3114  -16.1297   22.0815 O   0  0  0  0  0  0  0  0  0  0  0  0
    9.3457  -13.2128   18.5939 N   0  0  0  0  0  0  0  0  0  0  0  0
    8.0297  -15.8354   22.3584 C   0  0  1  0  0  0  0  0  0  0  0  0
    8.1558  -15.1138   23.6040 C   0  0  0  0  0  0  0  0  0  0  0  0
    7.0134  -14.1505   23.7880 C   0  0  0  0  0  0  0  0  0  0  0  0
    7.1017  -13.3723   25.0398 C   0  0  0  0  0  0  0  0  0  0  0  0
    8.1169  -12.4709   25.2368 C   0  0  0  0  0  0  0  0  0  0  0  0
    8.2134  -11.7254   26.4176 C   0  0  0  0  0  0  0  0  0  0  0  0
    7.2822  -11.8910   27.4013 C   0  0  0  0  0  0  0  0  0  0  0  0
    6.2614  -12.7918   27.2130 C   0  0  0  0  0  0  0  0  0  0  0  0
    6.1729  -13.5251   26.0427 C   0  0  0  0  0  0  0  0  0  0  0  0
    8.0484  -16.1117   24.7256 O   0  0  0  0  0  0  0  0  0  0  0  0
    6.9643  -16.7336   24.9235 C   0  0  0  0  0  0  0  0  0  0  0  0
    9.7695  -18.6094   26.1029 C   0  0  2  0  0  0  0  0  0  0  0  0
    9.1372  -17.3430   26.6498 N   0  0  0  0  0  0  0  0  0  0  0  0
    9.1444  -16.3748   25.5747 C   0  0  0  0  0  0  0  0  0  0  0  0
    9.9221  -16.8468   27.8184 O   0  0  0  0  0  0  0  0  0  0  0  0
   10.6093  -15.7934   27.7012 O   0  0  0  0  0  0  0  0  0  0  0  0
  2  1  1  0
  3  2  2  0
  4  2  1  0
  5  4  1  0
  6  5  1  0
  6  7  1  0
  8  7  1  0
  8  9  1  6
 10 12  1  0
 10  8  1  0
 11 10  2  0
 13 21  1  0
 13 12  1  0
 13 14  1  1
 15 16  2  0
 15 14  1  0
 17 16  1  0
 18 17  2  0
 19 18  1  0
 19 20  2  0
 20 15  1  0
 21 22  2  0
 24 23  1  6
 25 24  1  0
 25 21  1  0
 26 28  1  0
 26 24  1  0
 27 26  2  0
M  END
$$$$
