RFA.pdb
     RDKit          3D

 28 28  0  0  1  0  0  0  0  0999 V2000
    9.1135  -14.9119   16.8837 N   0  0  0  0  0  0  0  0  0  0  0  0
    8.3508  -13.7937   16.4733 C   0  0  0  0  0  0  0  0  0  0  0  0
    8.0823  -13.6136   15.2459 N   0  0  0  0  0  0  0  0  0  0  0  0
    7.8669  -12.8456   17.4212 N   0  0  0  0  0  0  0  0  0  0  0  0
    8.2818  -12.8890   18.7842 C   0  0  0  0  0  0  0  0  0  0  0  0
    7.9044  -14.1705   19.4864 C   0  0  0  0  0  0  0  0  0  0  0  0
    8.3696  -14.0409   20.9427 C   0  0  0  0  0  0  0  0  0  0  0  0
    8.7199  -15.3898   21.5074 C   0  0  2  0  0  0  0  0  0  0  0  0
    7.5889  -16.2940   21.5499 N   0  0  0  0  0  0  0  0  0  0  0  0
    9.2527  -15.2158   22.8654 C   0  0  0  0  0  0  0  0  0  0  0  0
   10.3133  -14.5480   23.0430 O   0  0  0  0  0  0  0  0  0  0  0  0
    7.5831  -12.7812   14.8636 N   0  0  0  0  0  0  0  0  0  0  0  0
    8.5962  -15.7861   23.9855 C   0  0  1  0  0  0  0  0  0  0  0  0
    9.0519  -15.6020   25.3444 C   0  0  0  0  0  0  0  0  0  0  0  0
    7.8926  -15.3658   26.2755 C   0  0  0  0  0  0  0  0  0  0  0  0
    7.5025  -13.9451   26.3736 C   0  0  0  0  0  0  0  0  0  0  0  0
    6.1813  -13.5822   26.4427 C   0  0  0  0  0  0  0  0  0  0  0  0
    5.7959  -12.2398   26.5368 C   0  0  0  0  0  0  0  0  0  0  0  0
    6.7476  -11.2620   26.5611 C   0  0  0  0  0  0  0  0  0  0  0  0
    8.0739  -11.6159   26.4924 C   0  0  0  0  0  0  0  0  0  0  0  0
    8.4467  -12.9453   26.3995 C   0  0  0  0  0  0  0  0  0  0  0  0
    9.6943  -16.8876   25.7914 O   0  0  0  0  0  0  0  0  0  0  0  0
    9.9081  -17.0993   27.0205 C   0  0  0  0  0  0  0  0  0  0  0  0
   10.4222  -20.1071   24.1036 C   0  0  2  0  0  0  0  0  0  0  0  0
   10.7542  -19.1071   25.1958 N   0  0  0  0  0  0  0  0  0  0  0  0
   10.0693  -17.8780   24.8587 C   0  0  0  0  0  0  0  0  0  0  0  0
   12.2302  -18.8942   25.2584 O   0  0  0  0  0  0  0  0  0  0  0  0
   12.7311  -17.8647   24.7245 O   0  0  0  0  0  0  0  0  0  0  0  0
  2  1  1  0
  3  2  2  0
  4  2  1  0
  5  4  1  0
  6  5  1  0
  6  7  1  0
  8  7  1  0
  8  9  1  1
 10 12  1  0
 10  8  1  0
 11 10  2  0
 13 21  1  0
 13 12  1  0
 13 14  1  6
 15 16  2  0
 15 14  1  0
 17 16  1  0
 18 17  2  0
 19 18  1  0
 19 20  2  0
 20 15  1  0
 21 22  2  0
 24 23  1  1
 25 24  1  0
 25 21  1  0
 26 28  1  0
 26 24  1  0
 27 26  2  0
M  END
$$$$
