RFA.pdb
     RDKit          3D

 28 28  0  0  1  0  0  0  0  0999 V2000
    7.9653  -14.3875   17.0967 N   0  0  0  0  0  0  0  0  0  0  0  0
    7.8704  -13.1772   17.8225 C   0  0  0  0  0  0  0  0  0  0  0  0
    7.0386  -12.2832   17.4768 N   0  0  0  0  0  0  0  0  0  0  0  0
    8.7015  -12.9313   18.9541 N   0  0  0  0  0  0  0  0  0  0  0  0
    9.7236  -13.8504   19.3311 C   0  0  0  0  0  0  0  0  0  0  0  0
    9.2124  -15.0206   20.1355 C   0  0  0  0  0  0  0  0  0  0  0  0
   10.1059  -15.1395   21.3770 C   0  0  0  0  0  0  0  0  0  0  0  0
    9.8034  -16.4079   22.1260 C   0  0  2  0  0  0  0  0  0  0  0  0
    8.4595  -16.8946   21.8906 N   0  0  0  0  0  0  0  0  0  0  0  0
    9.9877  -16.1694   23.5639 C   0  0  0  0  0  0  0  0  0  0  0  0
   11.0583  -15.6375   23.9800 O   0  0  0  0  0  0  0  0  0  0  0  0
    6.9137  -11.3687   17.9630 N   0  0  0  0  0  0  0  0  0  0  0  0
    8.9821  -16.5269   24.4977 C   0  0  1  0  0  0  0  0  0  0  0  0
    9.0197  -16.1311   25.8869 C   0  0  0  0  0  0  0  0  0  0  0  0
    7.6537  -15.7199   26.3685 C   0  0  0  0  0  0  0  0  0  0  0  0
    7.3355  -14.3063   26.0843 C   0  0  0  0  0  0  0  0  0  0  0  0
    6.4042  -13.9729   25.1338 C   0  0  0  0  0  0  0  0  0  0  0  0
    6.0912  -12.6376   24.8539 C   0  0  0  0  0  0  0  0  0  0  0  0
    6.7206  -11.6371   25.5359 C   0  0  0  0  0  0  0  0  0  0  0  0
    7.6551  -11.9613   26.4901 C   0  0  0  0  0  0  0  0  0  0  0  0
    7.9589  -13.2840   26.7610 C   0  0  0  0  0  0  0  0  0  0  0  0
    9.4049  -17.3388   26.6983 O   0  0  0  0  0  0  0  0  0  0  0  0
    9.2562  -17.3361   27.9549 C   0  0  0  0  0  0  0  0  0  0  0  0
   10.4217  -20.7977   25.7491 C   0  0  2  0  0  0  0  0  0  0  0  0
   10.3271  -19.6939   26.7861 N   0  0  0  0  0  0  0  0  0  0  0  0
    9.9359  -18.4919   26.0820 C   0  0  0  0  0  0  0  0  0  0  0  0
   11.6482  -19.5119   27.4567 O   0  0  0  0  0  0  0  0  0  0  0  0
   12.3358  -18.4832   27.2024 O   0  0  0  0  0  0  0  0  0  0  0  0
  2  1  1  0
  3  2  2  0
  4  2  1  0
  5  4  1  0
  6  5  1  0
  6  7  1  0
  8  7  1  0
  8  9  1  1
 10 12  1  0
 10  8  1  0
 11 10  2  0
 13 21  1  0
 13 12  1  0
 13 14  1  6
 15 16  2  0
 15 14  1  0
 17 16  1  0
 18 17  2  0
 19 18  1  0
 19 20  2  0
 20 15  1  0
 21 22  2  0
 24 23  1  1
 25 24  1  0
 25 21  1  0
 26 28  1  0
 26 24  1  0
 27 26  2  0
M  END
$$$$
