RFA.pdb
     RDKit          3D

 28 28  0  0  1  0  0  0  0  0999 V2000
    7.1530  -14.2912   17.2839 N   0  0  0  0  0  0  0  0  0  0  0  0
    8.2394  -14.0204   16.4195 C   0  0  0  0  0  0  0  0  0  0  0  0
    8.1015  -13.2199   15.4443 N   0  0  0  0  0  0  0  0  0  0  0  0
    9.5094  -14.6357   16.6196 N   0  0  0  0  0  0  0  0  0  0  0  0
    9.6592  -15.7468   17.4998 C   0  0  0  0  0  0  0  0  0  0  0  0
    9.1683  -15.4739   18.9006 C   0  0  0  0  0  0  0  0  0  0  0  0
   10.3704  -15.6368   19.8398 C   0  0  0  0  0  0  0  0  0  0  0  0
   10.0281  -16.5528   20.9821 C   0  0  2  0  0  0  0  0  0  0  0  0
    8.7680  -17.2421   20.7937 N   0  0  0  0  0  0  0  0  0  0  0  0
    9.9709  -15.7686   22.2231 C   0  0  0  0  0  0  0  0  0  0  0  0
   11.0068  -15.1695   22.6356 O   0  0  0  0  0  0  0  0  0  0  0  0
    8.8552  -12.9762   14.7654 N   0  0  0  0  0  0  0  0  0  0  0  0
    8.7694  -15.6713   22.9701 C   0  0  1  0  0  0  0  0  0  0  0  0
    8.6324  -14.8296   24.1366 C   0  0  0  0  0  0  0  0  0  0  0  0
    7.2522  -14.2327   24.2127 C   0  0  0  0  0  0  0  0  0  0  0  0
    7.0700  -13.3281   25.3654 C   0  0  0  0  0  0  0  0  0  0  0  0
    7.7866  -12.1624   25.4642 C   0  0  0  0  0  0  0  0  0  0  0  0
    7.6242  -11.2945   26.5504 C   0  0  0  0  0  0  0  0  0  0  0  0
    6.7359  -11.6050   27.5387 C   0  0  0  0  0  0  0  0  0  0  0  0
    6.0134  -12.7707   27.4484 C   0  0  0  0  0  0  0  0  0  0  0  0
    6.1797  -13.6235   26.3713 C   0  0  0  0  0  0  0  0  0  0  0  0
    8.7796  -15.7033   25.3532 O   0  0  0  0  0  0  0  0  0  0  0  0
    8.5909  -15.2236   26.5088 C   0  0  0  0  0  0  0  0  0  0  0  0
    9.1575  -19.3707   25.8255 C   0  0  2  0  0  0  0  0  0  0  0  0
    9.3425  -17.9595   26.3519 N   0  0  0  0  0  0  0  0  0  0  0  0
    9.1281  -17.0656   25.2345 C   0  0  0  0  0  0  0  0  0  0  0  0
   10.7197  -17.7997   26.9048 O   0  0  0  0  0  0  0  0  0  0  0  0
   11.0544  -18.4528   27.9329 O   0  0  0  0  0  0  0  0  0  0  0  0
  2  1  1  0
  3  2  2  0
  4  2  1  0
  5  4  1  0
  6  5  1  0
  6  7  1  0
  8  7  1  0
  8  9  1  6
 10 12  1  0
 10  8  1  0
 11 10  2  0
 13 21  1  0
 13 12  1  0
 13 14  1  1
 15 16  2  0
 15 14  1  0
 17 16  1  0
 18 17  2  0
 19 18  1  0
 19 20  2  0
 20 15  1  0
 21 22  2  0
 24 23  1  1
 25 24  1  0
 25 21  1  0
 26 28  1  0
 26 24  1  0
 27 26  2  0
M  END
$$$$
