RFA.pdb
     RDKit          3D

 28 28  0  0  1  0  0  0  0  0999 V2000
   10.3224  -20.1968   20.5437 N   0  0  0  0  0  0  0  0  0  0  0  0
   10.5556  -20.0649   19.1549 C   0  0  0  0  0  0  0  0  0  0  0  0
   11.6708  -20.4066   18.6544 N   0  0  0  0  0  0  0  0  0  0  0  0
    9.5506  -19.5480   18.2863 N   0  0  0  0  0  0  0  0  0  0  0  0
    8.8435  -18.3526   18.6070 C   0  0  0  0  0  0  0  0  0  0  0  0
    9.2288  -17.7670   19.9436 C   0  0  0  0  0  0  0  0  0  0  0  0
    7.9349  -17.2938   20.6187 C   0  0  0  0  0  0  0  0  0  0  0  0
    7.9995  -15.8199   20.9100 C   0  0  2  0  0  0  0  0  0  0  0  0
    8.7558  -15.0822   19.9190 N   0  0  0  0  0  0  0  0  0  0  0  0
    8.6084  -15.6202   22.2320 C   0  0  0  0  0  0  0  0  0  0  0  0
    9.8461  -15.3708   22.3220 O   0  0  0  0  0  0  0  0  0  0  0  0
   11.9081  -20.3509   17.6401 N   0  0  0  0  0  0  0  0  0  0  0  0
    7.8295  -15.7025   23.4141 C   0  0  1  0  0  0  0  0  0  0  0  0
    8.3690  -15.4584   24.7323 C   0  0  0  0  0  0  0  0  0  0  0  0
    7.2707  -15.1644   25.7193 C   0  0  0  0  0  0  0  0  0  0  0  0
    7.0495  -13.7204   25.9337 C   0  0  0  0  0  0  0  0  0  0  0  0
    8.0862  -12.8959   26.2906 C   0  0  0  0  0  0  0  0  0  0  0  0
    7.8922  -11.5249   26.4965 C   0  0  0  0  0  0  0  0  0  0  0  0
    6.6481  -10.9861   26.3416 C   0  0  0  0  0  0  0  0  0  0  0  0
    5.6032  -11.8043   25.9842 C   0  0  0  0  0  0  0  0  0  0  0  0
    5.8031  -13.1587   25.7824 C   0  0  0  0  0  0  0  0  0  0  0  0
    9.0266  -16.7282   25.2017 O   0  0  0  0  0  0  0  0  0  0  0  0
    8.3405  -17.7790   25.3634 C   0  0  0  0  0  0  0  0  0  0  0  0
   12.5824  -17.7470   25.5523 C   0  0  2  0  0  0  0  0  0  0  0  0
   11.1227  -17.9562   25.9107 N   0  0  0  0  0  0  0  0  0  0  0  0
   10.4113  -16.7760   25.4699 C   0  0  0  0  0  0  0  0  0  0  0  0
   10.9830  -18.1424   27.3851 O   0  0  0  0  0  0  0  0  0  0  0  0
   11.5432  -19.1286   27.9411 O   0  0  0  0  0  0  0  0  0  0  0  0
  2  1  1  0
  3  2  2  0
  4  2  1  0
  5  4  1  0
  6  5  1  0
  6  7  1  0
  8  7  1  0
  8  9  1  6
 10 12  1  0
 10  8  1  0
 11 10  2  0
 13 21  1  0
 13 12  1  0
 13 14  1  1
 15 16  2  0
 15 14  1  0
 17 16  1  0
 18 17  2  0
 19 18  1  0
 19 20  2  0
 20 15  1  0
 21 22  2  0
 24 23  1  6
 25 24  1  0
 25 21  1  0
 26 28  1  0
 26 24  1  0
 27 26  2  0
M  END
$$$$
