YYL.pdb
     RDKit          3D

 33 34  0  0  1  0  0  0  0  0999 V2000
    5.8326  -12.4421   16.3448 O   0  0  0  0  0  0  0  0  0  0  0  0
    6.3270  -13.1297   17.4456 C   0  0  0  0  0  0  0  0  0  0  0  0
    5.7902  -14.3709   17.7580 C   0  0  0  0  0  0  0  0  0  0  0  0
    6.2788  -15.0523   18.8473 C   0  0  0  0  0  0  0  0  0  0  0  0
    7.2859  -14.5291   19.6305 C   0  0  0  0  0  0  0  0  0  0  0  0
    7.8104  -15.2691   20.8062 C   0  0  0  0  0  0  0  0  0  0  0  0
    9.0541  -16.0189   20.3108 C   0  0  2  0  0  0  0  0  0  0  0  0
    8.6741  -17.1456   19.4965 N   0  0  0  0  0  0  0  0  0  0  0  0
    9.7319  -16.5229   21.5434 C   0  0  0  0  0  0  0  0  0  0  0  0
    9.5128  -17.6832   21.9071 O   0  0  0  0  0  0  0  0  0  0  0  0
    7.7957  -13.2912   19.2891 C   0  0  0  0  0  0  0  0  0  0  0  0
    7.3204  -12.5830   18.1950 C   0  0  0  0  0  0  0  0  0  0  0  0
   15.5322  -15.5860   18.5983 O   0  0  0  0  0  0  0  0  0  0  0  0
   14.8496  -15.6171   19.8206 C   0  0  0  0  0  0  0  0  0  0  0  0
   14.3109  -14.4437   20.3025 C   0  0  0  0  0  0  0  0  0  0  0  0
   13.6310  -14.4557   21.5125 C   0  0  0  0  0  0  0  0  0  0  0  0
   13.5082  -15.6243   22.2002 C   0  0  0  0  0  0  0  0  0  0  0  0
   12.7935  -15.6942   23.4707 C   0  0  0  0  0  0  0  0  0  0  0  0
   11.3649  -16.1995   23.3614 C   0  0  2  0  0  0  0  0  0  0  0  0
   10.6097  -15.6862   22.2818 N   0  0  0  0  0  0  0  0  0  0  0  0
   10.7366  -16.0072   24.6876 C   0  0  0  0  0  0  0  0  0  0  0  0
   11.4812  -15.5267   25.6011 O   0  0  0  0  0  0  0  0  0  0  0  0
   14.0652  -16.8009   21.6874 C   0  0  0  0  0  0  0  0  0  0  0  0
   14.7325  -16.7984   20.5040 C   0  0  0  0  0  0  0  0  0  0  0  0
    8.2840  -12.9133   26.2037 C   0  0  0  0  0  0  0  0  0  0  0  0
    7.6623  -13.9753   25.3845 C   0  0  2  0  0  0  0  0  0  0  0  0
    6.2398  -13.5896   24.9461 C   0  0  0  0  0  0  0  0  0  0  0  0
    7.5619  -15.2842   26.0451 C   0  0  0  0  0  0  0  0  0  0  0  0
    8.8089  -15.9988   26.3541 C   0  0  2  0  0  0  0  0  0  0  0  0
    9.4217  -16.3054   25.0044 N   0  0  0  0  0  0  0  0  0  0  0  0
    8.7923  -17.2885   27.0102 C   0  0  0  0  0  0  0  0  0  0  0  0
    8.6347  -17.3982   28.4091 O   0  0  0  0  0  0  0  0  0  0  0  0
    8.9116  -18.3774   26.4222 O   0  0  0  0  0  0  0  0  0  0  0  0
  2  3  2  0
  2  1  1  0
  4  3  1  0
  5  4  2  0
  6  5  1  0
  7  6  1  0
  7  8  1  6
  9 10  2  0
  9  7  1  0
 11  5  1  0
 11 12  2  0
 12  2  1  0
 13 14  1  0
 14 24  2  0
 15 14  1  0
 15 16  2  0
 16 17  1  0
 17 23  2  0
 17 18  1  0
 19 18  1  1
 19 20  1  0
 20  9  1  0
 21 19  1  0
 21 30  1  0
 22 21  2  0
 24 23  1  0
 26 25  1  1
 26 28  1  0
 27 26  1  0
 29 28  1  6
 29 30  1  0
 29 31  1  0
 31 33  2  0
 31 32  1  0
M  END
$$$$
