YYL.pdb
     RDKit          3D

 33 34  0  0  1  0  0  0  0  0999 V2000
   12.1216  -23.1355   17.1898 O   0  0  0  0  0  0  0  0  0  0  0  0
   12.0025  -22.0947   18.1017 C   0  0  0  0  0  0  0  0  0  0  0  0
   10.7701  -21.8606   18.6956 C   0  0  0  0  0  0  0  0  0  0  0  0
   10.6513  -20.8307   19.5983 C   0  0  0  0  0  0  0  0  0  0  0  0
   11.7266  -20.0309   19.9229 C   0  0  0  0  0  0  0  0  0  0  0  0
   11.5931  -18.9197   20.8987 C   0  0  0  0  0  0  0  0  0  0  0  0
   10.8699  -17.7900   20.1535 C   0  0  2  0  0  0  0  0  0  0  0  0
   11.7435  -17.1873   19.1786 N   0  0  0  0  0  0  0  0  0  0  0  0
   10.5391  -16.7731   21.1972 C   0  0  0  0  0  0  0  0  0  0  0  0
   11.3532  -15.8720   21.4248 O   0  0  0  0  0  0  0  0  0  0  0  0
   12.9375  -20.2938   19.3118 C   0  0  0  0  0  0  0  0  0  0  0  0
   13.0843  -21.3268   18.3975 C   0  0  0  0  0  0  0  0  0  0  0  0
    6.1674  -11.8872   26.9942 O   0  0  0  0  0  0  0  0  0  0  0  0
    6.4958  -12.7876   25.9732 C   0  0  0  0  0  0  0  0  0  0  0  0
    7.2103  -12.3215   24.8908 C   0  0  0  0  0  0  0  0  0  0  0  0
    7.5448  -13.1997   23.8693 C   0  0  0  0  0  0  0  0  0  0  0  0
    7.1620  -14.5035   23.9548 C   0  0  0  0  0  0  0  0  0  0  0  0
    7.4976  -15.4703   22.9145 C   0  0  0  0  0  0  0  0  0  0  0  0
    8.9689  -15.8446   22.8551 C   0  0  2  0  0  0  0  0  0  0  0  0
    9.3146  -16.8404   21.9127 N   0  0  0  0  0  0  0  0  0  0  0  0
    9.3938  -16.1458   24.2404 C   0  0  0  0  0  0  0  0  0  0  0  0
    9.1165  -17.3092   24.6760 O   0  0  0  0  0  0  0  0  0  0  0  0
    6.4370  -14.9495   25.0653 C   0  0  0  0  0  0  0  0  0  0  0  0
    6.1052  -14.0969   26.0696 C   0  0  0  0  0  0  0  0  0  0  0  0
    9.3536  -13.6221   29.5700 C   0  0  0  0  0  0  0  0  0  0  0  0
   10.0424  -14.6735   28.7918 C   0  0  2  0  0  0  0  0  0  0  0  0
   11.5596  -14.6568   29.0405 C   0  0  0  0  0  0  0  0  0  0  0  0
    9.8503  -14.5894   27.3372 C   0  0  0  0  0  0  0  0  0  0  0  0
   10.4559  -15.6348   26.4996 C   0  0  2  0  0  0  0  0  0  0  0  0
   10.0592  -15.2724   25.0845 N   0  0  0  0  0  0  0  0  0  0  0  0
   10.0473  -17.0183   26.6134 C   0  0  0  0  0  0  0  0  0  0  0  0
    8.7121  -17.4112   26.3753 O   0  0  0  0  0  0  0  0  0  0  0  0
   10.8080  -17.9524   26.9208 O   0  0  0  0  0  0  0  0  0  0  0  0
  2  3  2  0
  2  1  1  0
  4  3  1  0
  5  4  2  0
  6  5  1  0
  7  6  1  0
  7  8  1  6
  9 10  2  0
  9  7  1  0
 11  5  1  0
 11 12  2  0
 12  2  1  0
 13 14  1  0
 14 24  2  0
 15 14  1  0
 15 16  2  0
 16 17  1  0
 17 23  2  0
 17 18  1  0
 19 18  1  1
 19 20  1  0
 20  9  1  0
 21 19  1  0
 21 30  1  0
 22 21  2  0
 24 23  1  0
 26 25  1  1
 26 28  1  0
 27 26  1  0
 29 28  1  1
 29 30  1  0
 29 31  1  0
 31 33  2  0
 31 32  1  0
M  END
$$$$
