YYL.pdb
     RDKit          3D

 33 34  0  0  1  0  0  0  0  0999 V2000
    0.3832  -20.4130   21.3735 O   0  0  0  0  0  0  0  0  0  0  0  0
    1.6160  -19.8903   21.7423 C   0  0  0  0  0  0  0  0  0  0  0  0
    2.4020  -20.5962   22.6424 C   0  0  0  0  0  0  0  0  0  0  0  0
    3.6224  -20.0796   23.0080 C   0  0  0  0  0  0  0  0  0  0  0  0
    4.0774  -18.8810   22.5005 C   0  0  0  0  0  0  0  0  0  0  0  0
    5.3964  -18.3273   22.8985 C   0  0  0  0  0  0  0  0  0  0  0  0
    6.1729  -18.1105   21.5929 C   0  0  2  0  0  0  0  0  0  0  0  0
    6.4867  -19.3744   20.9755 N   0  0  0  0  0  0  0  0  0  0  0  0
    7.4473  -17.4417   21.9945 C   0  0  0  0  0  0  0  0  0  0  0  0
    8.4766  -18.1216   22.0634 O   0  0  0  0  0  0  0  0  0  0  0  0
    3.2678  -18.2065   21.6069 C   0  0  0  0  0  0  0  0  0  0  0  0
    2.0321  -18.7058   21.2216 C   0  0  0  0  0  0  0  0  0  0  0  0
    8.2530  -13.5605   16.5196 O   0  0  0  0  0  0  0  0  0  0  0  0
    8.4043  -13.6646   17.9078 C   0  0  0  0  0  0  0  0  0  0  0  0
    7.2857  -13.5352   18.7023 C   0  0  0  0  0  0  0  0  0  0  0  0
    7.4168  -13.6356   20.0805 C   0  0  0  0  0  0  0  0  0  0  0  0
    8.6458  -13.8600   20.6218 C   0  0  0  0  0  0  0  0  0  0  0  0
    8.8368  -13.9853   22.0631 C   0  0  0  0  0  0  0  0  0  0  0  0
    8.6922  -15.4008   22.5958 C   0  0  2  0  0  0  0  0  0  0  0  0
    7.4755  -16.0534   22.2910 N   0  0  0  0  0  0  0  0  0  0  0  0
    9.0102  -15.3528   24.0404 C   0  0  0  0  0  0  0  0  0  0  0  0
   10.1732  -14.9381   24.3494 O   0  0  0  0  0  0  0  0  0  0  0  0
    9.7646  -13.9872   19.7912 C   0  0  0  0  0  0  0  0  0  0  0  0
    9.6455  -13.8902   18.4414 C   0  0  0  0  0  0  0  0  0  0  0  0
    8.8321  -12.4221   27.0405 C   0  0  0  0  0  0  0  0  0  0  0  0
    7.6799  -13.1888   26.5207 C   0  0  2  0  0  0  0  0  0  0  0  0
    6.3481  -12.4862   26.8320 C   0  0  0  0  0  0  0  0  0  0  0  0
    7.5673  -14.5594   27.0390 C   0  0  0  0  0  0  0  0  0  0  0  0
    8.5056  -15.5695   26.5287 C   0  0  2  0  0  0  0  0  0  0  0  0
    8.1524  -15.7186   25.0644 N   0  0  0  0  0  0  0  0  0  0  0  0
    8.4796  -16.9320   27.0154 C   0  0  0  0  0  0  0  0  0  0  0  0
    8.8650  -17.2469   28.3368 O   0  0  0  0  0  0  0  0  0  0  0  0
    8.1284  -17.9134   26.3377 O   0  0  0  0  0  0  0  0  0  0  0  0
  2  3  2  0
  2  1  1  0
  4  3  1  0
  5  4  2  0
  6  5  1  0
  7  6  1  0
  7  8  1  1
  9 10  2  0
  9  7  1  0
 11  5  1  0
 11 12  2  0
 12  2  1  0
 13 14  1  0
 14 24  2  0
 15 14  1  0
 15 16  2  0
 16 17  1  0
 17 23  2  0
 17 18  1  0
 19 18  1  1
 19 20  1  0
 20  9  1  0
 21 19  1  0
 21 30  1  0
 22 21  2  0
 24 23  1  0
 26 25  1  1
 26 28  1  0
 27 26  1  0
 29 28  1  1
 29 30  1  0
 29 31  1  0
 31 33  2  0
 31 32  1  0
M  END
$$$$
