YYL.pdb
     RDKit          3D

 33 34  0  0  1  0  0  0  0  0999 V2000
    8.6135  -12.1887   16.7442 O   0  0  0  0  0  0  0  0  0  0  0  0
    8.2289  -12.8721   17.8905 C   0  0  0  0  0  0  0  0  0  0  0  0
    7.0139  -13.5431   17.8958 C   0  0  0  0  0  0  0  0  0  0  0  0
    6.6324  -14.2198   19.0299 C   0  0  0  0  0  0  0  0  0  0  0  0
    7.4290  -14.2444   20.1552 C   0  0  0  0  0  0  0  0  0  0  0  0
    7.0123  -14.9769   21.3778 C   0  0  0  0  0  0  0  0  0  0  0  0
    7.6982  -16.3474   21.3013 C   0  0  2  0  0  0  0  0  0  0  0  0
    6.7940  -17.3362   20.7705 N   0  0  0  0  0  0  0  0  0  0  0  0
    8.0283  -16.7063   22.7138 C   0  0  0  0  0  0  0  0  0  0  0  0
    7.1236  -17.1205   23.4463 O   0  0  0  0  0  0  0  0  0  0  0  0
    8.6313  -13.5652   20.1130 C   0  0  0  0  0  0  0  0  0  0  0  0
    9.0398  -12.8746   18.9812 C   0  0  0  0  0  0  0  0  0  0  0  0
   11.7425  -19.1862   30.1064 O   0  0  0  0  0  0  0  0  0  0  0  0
   11.5213  -18.8281   28.7707 C   0  0  0  0  0  0  0  0  0  0  0  0
   12.4018  -17.9544   28.1702 C   0  0  0  0  0  0  0  0  0  0  0  0
   12.1982  -17.5883   26.8469 C   0  0  0  0  0  0  0  0  0  0  0  0
   11.1346  -18.0982   26.1670 C   0  0  0  0  0  0  0  0  0  0  0  0
   10.8816  -17.7550   24.7713 C   0  0  0  0  0  0  0  0  0  0  0  0
    9.6629  -16.8750   24.5511 C   0  0  2  0  0  0  0  0  0  0  0  0
    9.3541  -16.5743   23.2045 N   0  0  0  0  0  0  0  0  0  0  0  0
    9.8276  -15.6856   25.4165 C   0  0  0  0  0  0  0  0  0  0  0  0
   10.8819  -14.9962   25.2345 O   0  0  0  0  0  0  0  0  0  0  0  0
   10.2563  -18.9833   26.8016 C   0  0  0  0  0  0  0  0  0  0  0  0
   10.4478  -19.3469   28.0966 C   0  0  0  0  0  0  0  0  0  0  0  0
    7.8546  -11.9510   25.6016 C   0  0  0  0  0  0  0  0  0  0  0  0
    7.1525  -12.9934   26.3801 C   0  0  2  0  0  0  0  0  0  0  0  0
    5.7944  -12.4920   26.8979 C   0  0  0  0  0  0  0  0  0  0  0  0
    7.8923  -13.4943   27.5470 C   0  0  0  0  0  0  0  0  0  0  0  0
    9.2091  -14.1068   27.3185 C   0  0  2  0  0  0  0  0  0  0  0  0
    8.9362  -15.2728   26.3928 N   0  0  0  0  0  0  0  0  0  0  0  0
    9.9536  -14.7120   28.4018 C   0  0  0  0  0  0  0  0  0  0  0  0
    9.6513  -16.0115   28.8639 O   0  0  0  0  0  0  0  0  0  0  0  0
   10.8927  -14.1614   29.0023 O   0  0  0  0  0  0  0  0  0  0  0  0
  2  3  2  0
  2  1  1  0
  4  3  1  0
  5  4  2  0
  6  5  1  0
  7  6  1  0
  7  8  1  1
  9 10  2  0
  9  7  1  0
 11  5  1  0
 11 12  2  0
 12  2  1  0
 13 14  1  0
 14 24  2  0
 15 14  1  0
 15 16  2  0
 16 17  1  0
 17 23  2  0
 17 18  1  0
 19 18  1  6
 19 20  1  0
 20  9  1  0
 21 19  1  0
 21 30  1  0
 22 21  2  0
 24 23  1  0
 26 25  1  1
 26 28  1  0
 27 26  1  0
 29 28  1  1
 29 30  1  0
 29 31  1  0
 31 33  2  0
 31 32  1  0
M  END
$$$$
