YYL.pdb
     RDKit          3D

 33 34  0  0  1  0  0  0  0  0999 V2000
    8.2459  -13.7105   14.8459 O   0  0  0  0  0  0  0  0  0  0  0  0
    7.8894  -14.0455   16.1458 C   0  0  0  0  0  0  0  0  0  0  0  0
    8.1752  -13.1543   17.1708 C   0  0  0  0  0  0  0  0  0  0  0  0
    7.8228  -13.4849   18.4577 C   0  0  0  0  0  0  0  0  0  0  0  0
    7.1947  -14.6777   18.7476 C   0  0  0  0  0  0  0  0  0  0  0  0
    6.8160  -15.0302   20.1395 C   0  0  0  0  0  0  0  0  0  0  0  0
    8.1275  -15.0703   20.9350 C   0  0  2  0  0  0  0  0  0  0  0  0
    9.0240  -16.0541   20.3824 N   0  0  0  0  0  0  0  0  0  0  0  0
    7.7424  -15.4919   22.3158 C   0  0  0  0  0  0  0  0  0  0  0  0
    6.8053  -14.9103   22.8727 O   0  0  0  0  0  0  0  0  0  0  0  0
    6.9263  -15.5398   17.7018 C   0  0  0  0  0  0  0  0  0  0  0  0
    7.2714  -15.2302   16.3943 C   0  0  0  0  0  0  0  0  0  0  0  0
    5.4505  -22.0832   21.8836 O   0  0  0  0  0  0  0  0  0  0  0  0
    6.1944  -21.1380   22.6009 C   0  0  0  0  0  0  0  0  0  0  0  0
    7.4370  -20.7807   22.1241 C   0  0  0  0  0  0  0  0  0  0  0  0
    8.1885  -19.8453   22.8220 C   0  0  0  0  0  0  0  0  0  0  0  0
    7.6853  -19.2984   23.9628 C   0  0  0  0  0  0  0  0  0  0  0  0
    8.4289  -18.3026   24.7278 C   0  0  0  0  0  0  0  0  0  0  0  0
    8.1551  -16.8646   24.3213 C   0  0  2  0  0  0  0  0  0  0  0  0
    8.4385  -16.5393   22.9748 N   0  0  0  0  0  0  0  0  0  0  0  0
    8.8352  -15.9995   25.3110 C   0  0  0  0  0  0  0  0  0  0  0  0
   10.0655  -15.7541   25.0959 O   0  0  0  0  0  0  0  0  0  0  0  0
    6.4206  -19.6798   24.4240 C   0  0  0  0  0  0  0  0  0  0  0  0
    5.6783  -20.5947   23.7474 C   0  0  0  0  0  0  0  0  0  0  0  0
    7.1728  -12.3898   25.7838 C   0  0  0  0  0  0  0  0  0  0  0  0
    6.8193  -13.2601   26.9254 C   0  0  2  0  0  0  0  0  0  0  0  0
    5.7044  -12.6399   27.7836 C   0  0  0  0  0  0  0  0  0  0  0  0
    7.9326  -13.5673   27.8342 C   0  0  0  0  0  0  0  0  0  0  0  0
    8.9696  -14.4979   27.3653 C   0  0  2  0  0  0  0  0  0  0  0  0
    8.2443  -15.4459   26.4346 N   0  0  0  0  0  0  0  0  0  0  0  0
    9.6483  -15.3889   28.2816 C   0  0  0  0  0  0  0  0  0  0  0  0
   10.6227  -14.9103   29.1844 O   0  0  0  0  0  0  0  0  0  0  0  0
    9.4423  -16.6129   28.3532 O   0  0  0  0  0  0  0  0  0  0  0  0
  2  3  2  0
  2  1  1  0
  4  3  1  0
  5  4  2  0
  6  5  1  0
  7  6  1  0
  7  8  1  6
  9 10  2  0
  9  7  1  0
 11  5  1  0
 11 12  2  0
 12  2  1  0
 13 14  1  0
 14 24  2  0
 15 14  1  0
 15 16  2  0
 16 17  1  0
 17 23  2  0
 17 18  1  0
 19 18  1  1
 19 20  1  0
 20  9  1  0
 21 19  1  0
 21 30  1  0
 22 21  2  0
 24 23  1  0
 26 25  1  6
 26 28  1  0
 27 26  1  0
 29 28  1  1
 29 30  1  0
 29 31  1  0
 31 33  2  0
 31 32  1  0
M  END
$$$$
