YYL.pdb
     RDKit          3D

 33 34  0  0  1  0  0  0  0  0999 V2000
    9.4204  -13.5748   16.3365 O   0  0  0  0  0  0  0  0  0  0  0  0
    8.6299  -13.9537   17.4138 C   0  0  0  0  0  0  0  0  0  0  0  0
    8.0017  -12.9694   18.1641 C   0  0  0  0  0  0  0  0  0  0  0  0
    7.2190  -13.3433   19.2305 C   0  0  0  0  0  0  0  0  0  0  0  0
    7.0474  -14.6696   19.5667 C   0  0  0  0  0  0  0  0  0  0  0  0
    6.2009  -15.0684   20.7197 C   0  0  0  0  0  0  0  0  0  0  0  0
    6.1798  -16.6027   20.7153 C   0  0  2  0  0  0  0  0  0  0  0  0
    4.9279  -17.0895   20.1931 N   0  0  0  0  0  0  0  0  0  0  0  0
    6.2924  -17.0061   22.1496 C   0  0  0  0  0  0  0  0  0  0  0  0
    5.4022  -16.6602   22.9335 O   0  0  0  0  0  0  0  0  0  0  0  0
    7.6882  -15.6214   18.7972 C   0  0  0  0  0  0  0  0  0  0  0  0
    8.4835  -15.2707   17.7159 C   0  0  0  0  0  0  0  0  0  0  0  0
    9.0268  -19.8153   29.8884 O   0  0  0  0  0  0  0  0  0  0  0  0
    8.8913  -19.6413   28.5055 C   0  0  0  0  0  0  0  0  0  0  0  0
    9.9456  -19.9967   27.6922 C   0  0  0  0  0  0  0  0  0  0  0  0
    9.8291  -19.8312   26.3190 C   0  0  0  0  0  0  0  0  0  0  0  0
    8.6775  -19.3221   25.8010 C   0  0  0  0  0  0  0  0  0  0  0  0
    8.4990  -19.1388   24.3643 C   0  0  0  0  0  0  0  0  0  0  0  0
    7.6493  -17.9379   23.9845 C   0  0  2  0  0  0  0  0  0  0  0  0
    7.3991  -17.7712   22.6029 N   0  0  0  0  0  0  0  0  0  0  0  0
    8.2548  -16.7566   24.6388 C   0  0  0  0  0  0  0  0  0  0  0  0
    9.4066  -16.4090   24.2233 O   0  0  0  0  0  0  0  0  0  0  0  0
    7.6230  -18.9696   26.6504 C   0  0  0  0  0  0  0  0  0  0  0  0
    7.7283  -19.1280   27.9956 C   0  0  0  0  0  0  0  0  0  0  0  0
    7.5985  -12.2722   27.9288 C   0  0  0  0  0  0  0  0  0  0  0  0
    6.9530  -12.4562   26.6116 C   0  0  2  0  0  0  0  0  0  0  0  0
    5.5221  -11.8935   26.6011 C   0  0  0  0  0  0  0  0  0  0  0  0
    6.8631  -13.8513   26.1587 C   0  0  0  0  0  0  0  0  0  0  0  0
    8.1138  -14.6076   26.0010 C   0  0  2  0  0  0  0  0  0  0  0  0
    7.6729  -16.0129   25.6520 N   0  0  0  0  0  0  0  0  0  0  0  0
    9.0139  -14.8108   27.1158 C   0  0  0  0  0  0  0  0  0  0  0  0
    8.8642  -15.9103   27.9889 O   0  0  0  0  0  0  0  0  0  0  0  0
    9.9658  -14.0617   27.3956 O   0  0  0  0  0  0  0  0  0  0  0  0
  2  3  2  0
  2  1  1  0
  4  3  1  0
  5  4  2  0
  6  5  1  0
  7  6  1  0
  7  8  1  1
  9 10  2  0
  9  7  1  0
 11  5  1  0
 11 12  2  0
 12  2  1  0
 13 14  1  0
 14 24  2  0
 15 14  1  0
 15 16  2  0
 16 17  1  0
 17 23  2  0
 17 18  1  0
 19 18  1  6
 19 20  1  0
 20  9  1  0
 21 19  1  0
 21 30  1  0
 22 21  2  0
 24 23  1  0
 26 25  1  1
 26 28  1  0
 27 26  1  0
 29 28  1  1
 29 30  1  0
 29 31  1  0
 31 33  2  0
 31 32  1  0
M  END
$$$$
