YYL.pdb
     RDKit          3D

 33 34  0  0  1  0  0  0  0  0999 V2000
    9.1033  -13.5090   15.3786 O   0  0  0  0  0  0  0  0  0  0  0  0
    8.6211  -13.7959   16.6492 C   0  0  0  0  0  0  0  0  0  0  0  0
    9.3633  -14.6272   17.4766 C   0  0  0  0  0  0  0  0  0  0  0  0
    8.8869  -14.9117   18.7344 C   0  0  0  0  0  0  0  0  0  0  0  0
    7.6933  -14.3901   19.1865 C   0  0  0  0  0  0  0  0  0  0  0  0
    7.1830  -14.7004   20.5460 C   0  0  0  0  0  0  0  0  0  0  0  0
    6.7887  -16.1831   20.5191 C   0  0  2  0  0  0  0  0  0  0  0  0
    5.4626  -16.3437   19.9782 N   0  0  0  0  0  0  0  0  0  0  0  0
    6.7814  -16.6187   21.9484 C   0  0  0  0  0  0  0  0  0  0  0  0
    5.8209  -16.3031   22.6586 O   0  0  0  0  0  0  0  0  0  0  0  0
    6.9819  -13.5667   18.3351 C   0  0  0  0  0  0  0  0  0  0  0  0
    7.4403  -13.2638   17.0612 C   0  0  0  0  0  0  0  0  0  0  0  0
    8.9361  -19.8950   29.7529 O   0  0  0  0  0  0  0  0  0  0  0  0
    8.9055  -19.6312   28.3779 C   0  0  0  0  0  0  0  0  0  0  0  0
    7.6930  -19.6863   27.7251 C   0  0  0  0  0  0  0  0  0  0  0  0
    7.6437  -19.4277   26.3623 C   0  0  0  0  0  0  0  0  0  0  0  0
    8.7917  -19.1245   25.6961 C   0  0  0  0  0  0  0  0  0  0  0  0
    8.7935  -18.8331   24.2661 C   0  0  0  0  0  0  0  0  0  0  0  0
    7.9469  -17.6362   23.8674 C   0  0  2  0  0  0  0  0  0  0  0  0
    7.8558  -17.3797   22.4799 N   0  0  0  0  0  0  0  0  0  0  0  0
    8.4225  -16.4856   24.6676 C   0  0  0  0  0  0  0  0  0  0  0  0
    9.5409  -15.9834   24.3257 O   0  0  0  0  0  0  0  0  0  0  0  0
   10.0090  -19.0758   26.3841 C   0  0  0  0  0  0  0  0  0  0  0  0
   10.0666  -19.3276   27.7179 C   0  0  0  0  0  0  0  0  0  0  0  0
    5.6785  -11.7236   26.9137 C   0  0  0  0  0  0  0  0  0  0  0  0
    6.9789  -12.4252   26.8673 C   0  0  2  0  0  0  0  0  0  0  0  0
    8.0144  -11.6401   26.0453 C   0  0  0  0  0  0  0  0  0  0  0  0
    6.9282  -13.7806   26.3016 C   0  0  0  0  0  0  0  0  0  0  0  0
    8.1490  -14.5978   26.3572 C   0  0  2  0  0  0  0  0  0  0  0  0
    7.7537  -15.9232   25.7422 N   0  0  0  0  0  0  0  0  0  0  0  0
    8.7377  -14.9827   27.6219 C   0  0  0  0  0  0  0  0  0  0  0  0
    8.3584  -16.1755   28.2752 O   0  0  0  0  0  0  0  0  0  0  0  0
    9.5996  -14.3207   28.2259 O   0  0  0  0  0  0  0  0  0  0  0  0
  2  3  2  0
  2  1  1  0
  4  3  1  0
  5  4  2  0
  6  5  1  0
  7  6  1  0
  7  8  1  1
  9 10  2  0
  9  7  1  0
 11  5  1  0
 11 12  2  0
 12  2  1  0
 13 14  1  0
 14 24  2  0
 15 14  1  0
 15 16  2  0
 16 17  1  0
 17 23  2  0
 17 18  1  0
 19 18  1  6
 19 20  1  0
 20  9  1  0
 21 19  1  0
 21 30  1  0
 22 21  2  0
 24 23  1  0
 26 25  1  6
 26 28  1  0
 27 26  1  0
 29 28  1  1
 29 30  1  0
 29 31  1  0
 31 33  2  0
 31 32  1  0
M  END
$$$$
