YYL.pdb
     RDKit          3D

 33 34  0  0  1  0  0  0  0  0999 V2000
    5.4967  -17.7524   26.8947 O   0  0  0  0  0  0  0  0  0  0  0  0
    6.0426  -18.1907   25.6951 C   0  0  0  0  0  0  0  0  0  0  0  0
    7.2496  -18.8756   25.7177 C   0  0  0  0  0  0  0  0  0  0  0  0
    7.7907  -19.3098   24.5310 C   0  0  0  0  0  0  0  0  0  0  0  0
    7.1610  -19.0790   23.3262 C   0  0  0  0  0  0  0  0  0  0  0  0
    7.7496  -19.5501   22.0469 C   0  0  0  0  0  0  0  0  0  0  0  0
    7.6571  -18.3631   21.0789 C   0  0  2  0  0  0  0  0  0  0  0  0
    8.0096  -18.7720   19.7427 N   0  0  0  0  0  0  0  0  0  0  0  0
    8.6688  -17.3757   21.5627 C   0  0  0  0  0  0  0  0  0  0  0  0
    9.8675  -17.6547   21.4540 O   0  0  0  0  0  0  0  0  0  0  0  0
    5.9612  -18.3940   23.3427 C   0  0  0  0  0  0  0  0  0  0  0  0
    5.3937  -17.9452   24.5264 C   0  0  0  0  0  0  0  0  0  0  0  0
    7.2291  -13.1096   16.7183 O   0  0  0  0  0  0  0  0  0  0  0  0
    7.6236  -13.2570   18.0539 C   0  0  0  0  0  0  0  0  0  0  0  0
    6.6570  -13.5255   18.9988 C   0  0  0  0  0  0  0  0  0  0  0  0
    7.0296  -13.6748   20.3274 C   0  0  0  0  0  0  0  0  0  0  0  0
    8.3410  -13.5540   20.6729 C   0  0  0  0  0  0  0  0  0  0  0  0
    8.7875  -13.7132   22.0531 C   0  0  0  0  0  0  0  0  0  0  0  0
    9.2045  -15.1274   22.4198 C   0  0  2  0  0  0  0  0  0  0  0  0
    8.2616  -16.1419   22.1355 N   0  0  0  0  0  0  0  0  0  0  0  0
    9.6529  -15.0931   23.8298 C   0  0  0  0  0  0  0  0  0  0  0  0
   10.8263  -14.6463   24.0387 O   0  0  0  0  0  0  0  0  0  0  0  0
    9.3014  -13.2808   19.6928 C   0  0  0  0  0  0  0  0  0  0  0  0
    8.9456  -13.1330   18.3900 C   0  0  0  0  0  0  0  0  0  0  0  0
    8.1610  -12.3358   26.4973 C   0  0  0  0  0  0  0  0  0  0  0  0
    7.4250  -13.6160   26.4277 C   0  0  2  0  0  0  0  0  0  0  0  0
    6.0575  -13.5191   27.1239 C   0  0  0  0  0  0  0  0  0  0  0  0
    8.1243  -14.7624   27.0248 C   0  0  0  0  0  0  0  0  0  0  0  0
    9.3330  -15.2601   26.3523 C   0  0  2  0  0  0  0  0  0  0  0  0
    8.9050  -15.5033   24.9209 N   0  0  0  0  0  0  0  0  0  0  0  0
    9.9406  -16.5169   26.7337 C   0  0  0  0  0  0  0  0  0  0  0  0
   10.0198  -17.5982   25.8291 O   0  0  0  0  0  0  0  0  0  0  0  0
   10.4297  -16.7497   27.8527 O   0  0  0  0  0  0  0  0  0  0  0  0
  2  3  2  0
  2  1  1  0
  4  3  1  0
  5  4  2  0
  6  5  1  0
  7  6  1  0
  7  8  1  6
  9 10  2  0
  9  7  1  0
 11  5  1  0
 11 12  2  0
 12  2  1  0
 13 14  1  0
 14 24  2  0
 15 14  1  0
 15 16  2  0
 16 17  1  0
 17 23  2  0
 17 18  1  0
 19 18  1  1
 19 20  1  0
 20  9  1  0
 21 19  1  0
 21 30  1  0
 22 21  2  0
 24 23  1  0
 26 25  1  1
 26 28  1  0
 27 26  1  0
 29 28  1  1
 29 30  1  0
 29 31  1  0
 31 33  2  0
 31 32  1  0
M  END
$$$$
