YYL.pdb
     RDKit          3D

 33 34  0  0  1  0  0  0  0  0999 V2000
    5.7797  -23.5144   29.5275 O   0  0  0  0  0  0  0  0  0  0  0  0
    6.1831  -22.4865   28.6851 C   0  0  0  0  0  0  0  0  0  0  0  0
    5.3051  -22.0343   27.7099 C   0  0  0  0  0  0  0  0  0  0  0  0
    5.7035  -21.0170   26.8757 C   0  0  0  0  0  0  0  0  0  0  0  0
    6.9512  -20.4409   26.9888 C   0  0  0  0  0  0  0  0  0  0  0  0
    7.3769  -19.3421   26.0852 C   0  0  0  0  0  0  0  0  0  0  0  0
    7.1028  -19.8396   24.6598 C   0  0  2  0  0  0  0  0  0  0  0  0
    7.7957  -21.0794   24.4152 N   0  0  0  0  0  0  0  0  0  0  0  0
    7.6633  -18.7889   23.7572 C   0  0  0  0  0  0  0  0  0  0  0  0
    8.8369  -18.8927   23.3851 O   0  0  0  0  0  0  0  0  0  0  0  0
    7.7982  -20.9169   27.9711 C   0  0  0  0  0  0  0  0  0  0  0  0
    7.4207  -21.9424   28.8257 C   0  0  0  0  0  0  0  0  0  0  0  0
    8.8399  -11.8527   18.6518 O   0  0  0  0  0  0  0  0  0  0  0  0
    8.2492  -12.7948   19.5030 C   0  0  0  0  0  0  0  0  0  0  0  0
    7.8057  -12.3766   20.7390 C   0  0  0  0  0  0  0  0  0  0  0  0
    7.2176  -13.2965   21.5960 C   0  0  0  0  0  0  0  0  0  0  0  0
    7.0893  -14.5931   21.2008 C   0  0  0  0  0  0  0  0  0  0  0  0
    6.4683  -15.5975   22.0583 C   0  0  0  0  0  0  0  0  0  0  0  0
    7.4433  -16.5822   22.6811 C   0  0  2  0  0  0  0  0  0  0  0  0
    6.8643  -17.6937   23.3355 N   0  0  0  0  0  0  0  0  0  0  0  0
    8.3706  -15.7959   23.5252 C   0  0  0  0  0  0  0  0  0  0  0  0
    9.4954  -15.5026   23.0068 O   0  0  0  0  0  0  0  0  0  0  0  0
    7.5486  -14.9901   19.9403 C   0  0  0  0  0  0  0  0  0  0  0  0
    8.1257  -14.0965   19.0952 C   0  0  0  0  0  0  0  0  0  0  0  0
    7.9185  -11.8289   24.6940 C   0  0  0  0  0  0  0  0  0  0  0  0
    7.3500  -12.8309   25.6204 C   0  0  2  0  0  0  0  0  0  0  0  0
    6.4162  -12.1785   26.6531 C   0  0  0  0  0  0  0  0  0  0  0  0
    8.3442  -13.6046   26.3772 C   0  0  0  0  0  0  0  0  0  0  0  0
    9.1270  -14.6171   25.6539 C   0  0  2  0  0  0  0  0  0  0  0  0
    8.1113  -15.3622   24.8147 N   0  0  0  0  0  0  0  0  0  0  0  0
    9.8157  -15.6774   26.3578 C   0  0  0  0  0  0  0  0  0  0  0  0
   11.0853  -15.4683   26.9393 O   0  0  0  0  0  0  0  0  0  0  0  0
    9.3676  -16.8274   26.5081 O   0  0  0  0  0  0  0  0  0  0  0  0
  2  3  2  0
  2  1  1  0
  4  3  1  0
  5  4  2  0
  6  5  1  0
  7  6  1  0
  7  8  1  6
  9 10  2  0
  9  7  1  0
 11  5  1  0
 11 12  2  0
 12  2  1  0
 13 14  1  0
 14 24  2  0
 15 14  1  0
 15 16  2  0
 16 17  1  0
 17 23  2  0
 17 18  1  0
 19 18  1  1
 19 20  1  0
 20  9  1  0
 21 19  1  0
 21 30  1  0
 22 21  2  0
 24 23  1  0
 26 25  1  1
 26 28  1  0
 27 26  1  0
 29 28  1  1
 29 30  1  0
 29 31  1  0
 31 33  2  0
 31 32  1  0
M  END
$$$$
