YYL.pdb
     RDKit          3D

 33 34  0  0  1  0  0  0  0  0999 V2000
    8.9713  -12.1002   16.9699 O   0  0  0  0  0  0  0  0  0  0  0  0
    8.4729  -12.9105   17.9818 C   0  0  0  0  0  0  0  0  0  0  0  0
    9.3213  -13.3003   19.0087 C   0  0  0  0  0  0  0  0  0  0  0  0
    8.8289  -14.1023   20.0106 C   0  0  0  0  0  0  0  0  0  0  0  0
    7.5162  -14.5242   20.0146 C   0  0  0  0  0  0  0  0  0  0  0  0
    6.9890  -15.3905   21.0993 C   0  0  0  0  0  0  0  0  0  0  0  0
    7.6635  -16.7560   20.9125 C   0  0  2  0  0  0  0  0  0  0  0  0
    6.7247  -17.7162   20.3892 N   0  0  0  0  0  0  0  0  0  0  0  0
    8.0781  -17.1856   22.2823 C   0  0  0  0  0  0  0  0  0  0  0  0
    7.2031  -17.5208   23.0877 O   0  0  0  0  0  0  0  0  0  0  0  0
    6.7012  -14.1163   18.9762 C   0  0  0  0  0  0  0  0  0  0  0  0
    7.1732  -13.3071   17.9530 C   0  0  0  0  0  0  0  0  0  0  0  0
   12.3795  -18.9173   29.6250 O   0  0  0  0  0  0  0  0  0  0  0  0
   12.0776  -18.6846   28.2775 C   0  0  0  0  0  0  0  0  0  0  0  0
   12.7846  -17.7119   27.6042 C   0  0  0  0  0  0  0  0  0  0  0  0
   12.4989  -17.4676   26.2681 C   0  0  0  0  0  0  0  0  0  0  0  0
   11.5275  -18.1921   25.6475 C   0  0  0  0  0  0  0  0  0  0  0  0
   11.1959  -17.9833   24.2418 C   0  0  0  0  0  0  0  0  0  0  0  0
    9.8342  -17.3527   24.0040 C   0  0  2  0  0  0  0  0  0  0  0  0
    9.4489  -17.2083   22.6513 N   0  0  0  0  0  0  0  0  0  0  0  0
    9.7993  -16.0947   24.7829 C   0  0  0  0  0  0  0  0  0  0  0  0
   10.6454  -15.2027   24.4536 O   0  0  0  0  0  0  0  0  0  0  0  0
   10.8252  -19.1736   26.3556 C   0  0  0  0  0  0  0  0  0  0  0  0
   11.0981  -19.4192   27.6636 C   0  0  0  0  0  0  0  0  0  0  0  0
    6.0071  -12.0952   26.7895 C   0  0  0  0  0  0  0  0  0  0  0  0
    7.3813  -12.6023   26.9899 C   0  0  2  0  0  0  0  0  0  0  0  0
    8.4305  -11.6183   26.4466 C   0  0  0  0  0  0  0  0  0  0  0  0
    7.6558  -13.9031   26.3636 C   0  0  0  0  0  0  0  0  0  0  0  0
    8.9657  -14.5240   26.6080 C   0  0  2  0  0  0  0  0  0  0  0  0
    8.9301  -15.8191   25.8254 N   0  0  0  0  0  0  0  0  0  0  0  0
    9.3589  -14.9498   27.9340 C   0  0  0  0  0  0  0  0  0  0  0  0
   10.2448  -14.1803   28.7193 O   0  0  0  0  0  0  0  0  0  0  0  0
    8.9663  -15.9948   28.4814 O   0  0  0  0  0  0  0  0  0  0  0  0
  2  3  2  0
  2  1  1  0
  4  3  1  0
  5  4  2  0
  6  5  1  0
  7  6  1  0
  7  8  1  1
  9 10  2  0
  9  7  1  0
 11  5  1  0
 11 12  2  0
 12  2  1  0
 13 14  1  0
 14 24  2  0
 15 14  1  0
 15 16  2  0
 16 17  1  0
 17 23  2  0
 17 18  1  0
 19 18  1  6
 19 20  1  0
 20  9  1  0
 21 19  1  0
 21 30  1  0
 22 21  2  0
 24 23  1  0
 26 25  1  6
 26 28  1  0
 27 26  1  0
 29 28  1  1
 29 30  1  0
 29 31  1  0
 31 33  2  0
 31 32  1  0
M  END
$$$$
