YYL.pdb
     RDKit          3D

 33 34  0  0  1  0  0  0  0  0999 V2000
    4.1796  -22.3839   18.0237 O   0  0  0  0  0  0  0  0  0  0  0  0
    5.1706  -21.4978   18.4261 C   0  0  0  0  0  0  0  0  0  0  0  0
    5.6437  -21.5669   19.7290 C   0  0  0  0  0  0  0  0  0  0  0  0
    6.6245  -20.6903   20.1282 C   0  0  0  0  0  0  0  0  0  0  0  0
    7.1438  -19.7497   19.2640 C   0  0  0  0  0  0  0  0  0  0  0  0
    8.2033  -18.8051   19.7001 C   0  0  0  0  0  0  0  0  0  0  0  0
    7.9958  -18.6068   21.2074 C   0  0  2  0  0  0  0  0  0  0  0  0
    6.6294  -18.2428   21.4860 N   0  0  0  0  0  0  0  0  0  0  0  0
    8.8841  -17.4660   21.5845 C   0  0  0  0  0  0  0  0  0  0  0  0
   10.0938  -17.5549   21.3495 O   0  0  0  0  0  0  0  0  0  0  0  0
    6.6485  -19.7106   17.9748 C   0  0  0  0  0  0  0  0  0  0  0  0
    5.6590  -20.5837   17.5468 C   0  0  0  0  0  0  0  0  0  0  0  0
    8.3783  -13.6076   16.4360 O   0  0  0  0  0  0  0  0  0  0  0  0
    8.4829  -13.6737   17.8309 C   0  0  0  0  0  0  0  0  0  0  0  0
    9.5930  -14.2795   18.3786 C   0  0  0  0  0  0  0  0  0  0  0  0
    9.7136  -14.3542   19.7593 C   0  0  0  0  0  0  0  0  0  0  0  0
    8.7351  -13.8282   20.5465 C   0  0  0  0  0  0  0  0  0  0  0  0
    8.8184  -13.8698   22.0029 C   0  0  0  0  0  0  0  0  0  0  0  0
    9.1889  -15.2285   22.5729 C   0  0  2  0  0  0  0  0  0  0  0  0
    8.3497  -16.3036   22.2002 N   0  0  0  0  0  0  0  0  0  0  0  0
    9.3418  -15.0559   24.0348 C   0  0  0  0  0  0  0  0  0  0  0  0
   10.3385  -14.3650   24.4210 O   0  0  0  0  0  0  0  0  0  0  0  0
    7.6187  -13.2189   19.9634 C   0  0  0  0  0  0  0  0  0  0  0  0
    7.4923  -13.1415   18.6130 C   0  0  0  0  0  0  0  0  0  0  0  0
    7.8673  -12.2228   26.7917 C   0  0  0  0  0  0  0  0  0  0  0  0
    7.0169  -13.3204   26.2841 C   0  0  2  0  0  0  0  0  0  0  0  0
    5.5294  -13.0623   26.5752 C   0  0  0  0  0  0  0  0  0  0  0  0
    7.3319  -14.6475   26.8311 C   0  0  0  0  0  0  0  0  0  0  0  0
    8.6218  -15.2540   26.4711 C   0  0  2  0  0  0  0  0  0  0  0  0
    8.4964  -15.5804   24.9984 N   0  0  0  0  0  0  0  0  0  0  0  0
    9.0498  -16.5082   27.0524 C   0  0  0  0  0  0  0  0  0  0  0  0
    9.5536  -16.5725   28.3698 O   0  0  0  0  0  0  0  0  0  0  0  0
    9.0141  -17.6032   26.4646 O   0  0  0  0  0  0  0  0  0  0  0  0
  2  3  2  0
  2  1  1  0
  4  3  1  0
  5  4  2  0
  6  5  1  0
  7  6  1  0
  7  8  1  6
  9 10  2  0
  9  7  1  0
 11  5  1  0
 11 12  2  0
 12  2  1  0
 13 14  1  0
 14 24  2  0
 15 14  1  0
 15 16  2  0
 16 17  1  0
 17 23  2  0
 17 18  1  0
 19 18  1  1
 19 20  1  0
 20  9  1  0
 21 19  1  0
 21 30  1  0
 22 21  2  0
 24 23  1  0
 26 25  1  1
 26 28  1  0
 27 26  1  0
 29 28  1  1
 29 30  1  0
 29 31  1  0
 31 33  2  0
 31 32  1  0
M  END
$$$$
