YYL.pdb
     RDKit          3D

 33 34  0  0  1  0  0  0  0  0999 V2000
    7.6550  -12.4516   16.0732 O   0  0  0  0  0  0  0  0  0  0  0  0
    7.7061  -13.1085   17.2959 C   0  0  0  0  0  0  0  0  0  0  0  0
    8.2961  -12.4689   18.3771 C   0  0  0  0  0  0  0  0  0  0  0  0
    8.3471  -13.1182   19.5877 C   0  0  0  0  0  0  0  0  0  0  0  0
    7.8264  -14.3850   19.7469 C   0  0  0  0  0  0  0  0  0  0  0  0
    7.8839  -15.0823   21.0567 C   0  0  0  0  0  0  0  0  0  0  0  0
    8.8263  -16.2766   20.8565 C   0  0  2  0  0  0  0  0  0  0  0  0
    8.2100  -17.2712   20.0151 N   0  0  0  0  0  0  0  0  0  0  0  0
    9.0280  -16.8567   22.2187 C   0  0  0  0  0  0  0  0  0  0  0  0
    8.0698  -17.3998   22.7787 O   0  0  0  0  0  0  0  0  0  0  0  0
    7.2469  -14.9903   18.6485 C   0  0  0  0  0  0  0  0  0  0  0  0
    7.1825  -14.3570   17.4158 C   0  0  0  0  0  0  0  0  0  0  0  0
   12.3506  -19.8894   29.6736 O   0  0  0  0  0  0  0  0  0  0  0  0
   12.2358  -19.3267   28.3964 C   0  0  0  0  0  0  0  0  0  0  0  0
   11.4374  -19.9601   27.4687 C   0  0  0  0  0  0  0  0  0  0  0  0
   11.3118  -19.4167   26.1976 C   0  0  0  0  0  0  0  0  0  0  0  0
   11.9781  -18.2697   25.8907 C   0  0  0  0  0  0  0  0  0  0  0  0
   11.8714  -17.6507   24.5735 C   0  0  0  0  0  0  0  0  0  0  0  0
   10.4627  -17.2325   24.1877 C   0  0  2  0  0  0  0  0  0  0  0  0
   10.2943  -16.7857   22.8568 N   0  0  0  0  0  0  0  0  0  0  0  0
   10.0018  -16.2707   25.2139 C   0  0  0  0  0  0  0  0  0  0  0  0
   10.6436  -15.1742   25.2892 O   0  0  0  0  0  0  0  0  0  0  0  0
   12.7822  -17.6479   26.8522 C   0  0  0  0  0  0  0  0  0  0  0  0
   12.9110  -18.1728   28.0986 C   0  0  0  0  0  0  0  0  0  0  0  0
    6.9407  -13.1618   24.6643 C   0  0  0  0  0  0  0  0  0  0  0  0
    6.9783  -13.9667   25.9037 C   0  0  2  0  0  0  0  0  0  0  0  0
    6.1716  -13.3031   27.0320 C   0  0  0  0  0  0  0  0  0  0  0  0
    8.3253  -14.2163   26.4359 C   0  0  0  0  0  0  0  0  0  0  0  0
    8.5596  -15.4751   27.1582 C   0  0  2  0  0  0  0  0  0  0  0  0
    8.9427  -16.4701   26.0838 N   0  0  0  0  0  0  0  0  0  0  0  0
    7.4891  -16.1462   27.8637 C   0  0  0  0  0  0  0  0  0  0  0  0
    6.9493  -17.3629   27.3926 O   0  0  0  0  0  0  0  0  0  0  0  0
    6.9664  -15.7264   28.9107 O   0  0  0  0  0  0  0  0  0  0  0  0
  2  3  2  0
  2  1  1  0
  4  3  1  0
  5  4  2  0
  6  5  1  0
  7  6  1  0
  7  8  1  6
  9 10  2  0
  9  7  1  0
 11  5  1  0
 11 12  2  0
 12  2  1  0
 13 14  1  0
 14 24  2  0
 15 14  1  0
 15 16  2  0
 16 17  1  0
 17 23  2  0
 17 18  1  0
 19 18  1  1
 19 20  1  0
 20  9  1  0
 21 19  1  0
 21 30  1  0
 22 21  2  0
 24 23  1  0
 26 25  1  6
 26 28  1  0
 27 26  1  0
 29 28  1  6
 29 30  1  0
 29 31  1  0
 31 33  2  0
 31 32  1  0
M  END
$$$$
