PAH.pdb
     RDKit          3D

 23 24  0  0  1  0  0  0  0  0999 V2000
   27.5844  -19.0905  -14.8609 N   0  0  0  0  0  0  0  0  0  0  0  0
   28.8529  -19.0107  -15.5542 C   0  0  0  0  0  0  0  0  0  0  0  0
   29.4131  -20.4057  -15.5912 C   0  0  0  0  0  0  0  0  0  0  0  0
   28.1852  -21.2621  -15.6180 C   0  0  0  0  0  0  0  0  0  0  0  0
   27.0972  -20.4241  -15.0070 C   0  0  1  0  0  0  0  0  0  0  0  0
   26.7230  -21.0382  -13.6957 C   0  0  0  0  0  0  0  0  0  0  0  0
   26.0969  -22.1270  -13.6431 O   0  0  0  0  0  0  0  0  0  0  0  0
   27.2128  -20.4760   -9.9976 C   0  0  0  0  0  0  0  0  0  0  0  0
   26.3846  -20.7668  -11.2282 C   0  0  2  0  0  0  0  0  0  0  0  0
   27.0520  -20.4299  -12.4531 N   0  0  0  0  0  0  0  0  0  0  0  0
   25.0423  -20.1201  -11.1408 C   0  0  0  0  0  0  0  0  0  0  0  0
   24.8253  -19.1285  -11.8783 O   0  0  0  0  0  0  0  0  0  0  0  0
   24.0268  -20.5683  -10.2805 N   0  0  0  0  0  0  0  0  0  0  0  0
   22.6192  -20.7145  -10.6687 C   0  0  1  0  0  0  0  0  0  0  0  0
   22.4573  -21.6586  -11.8029 C   0  0  0  0  0  0  0  0  0  0  0  0
   22.0698  -20.9353  -13.0264 C   0  0  0  0  0  0  0  0  0  0  0  0
   21.8360  -19.5621  -13.1602 C   0  0  0  0  0  0  0  0  0  0  0  0
   21.5060  -19.3063  -14.4345 N   0  0  0  0  0  0  0  0  0  0  0  0
   21.5171  -20.4383  -15.1166 C   0  0  0  0  0  0  0  0  0  0  0  0
   21.8624  -21.4353  -14.2536 N   0  0  0  0  0  0  0  0  0  0  0  0
   21.7980  -21.0930   -9.5034 C   0  0  0  0  0  0  0  0  0  0  0  0
   20.7014  -20.3091   -9.1176 O   0  0  0  0  0  0  0  0  0  0  0  0
   22.0028  -22.1018   -8.7942 O   0  0  0  0  0  0  0  0  0  0  0  0
  1  2  1  0
  3  2  1  0
  4  3  1  0
  4  5  1  0
  5  6  1  1
  5  1  1  0
  6 10  1  0
  7  6  2  0
  9  8  1  1
  9 11  1  0
 10  9  1  0
 11 13  1  0
 11 12  2  0
 13 14  1  0
 14 15  1  6
 15 16  1  0
 16 17  2  0
 17 18  1  0
 19 18  1  0
 20 16  1  0
 20 19  2  0
 21 14  1  0
 21 22  1  0
 23 21  2  0
M  END
$$$$
