PAH.pdb
     RDKit          3D

 23 24  0  0  1  0  0  0  0  0999 V2000
   22.7173  -12.6007  -17.0974 N   0  0  0  0  0  0  0  0  0  0  0  0
   23.6090  -13.6716  -17.4900 C   0  0  0  0  0  0  0  0  0  0  0  0
   24.8376  -13.5466  -16.6320 C   0  0  0  0  0  0  0  0  0  0  0  0
   24.3053  -12.9534  -15.3643 C   0  0  0  0  0  0  0  0  0  0  0  0
   23.0388  -12.2436  -15.7535 C   0  0  1  0  0  0  0  0  0  0  0  0
   23.2663  -10.7739  -15.5959 C   0  0  0  0  0  0  0  0  0  0  0  0
   23.6462  -10.2889  -14.5002 O   0  0  0  0  0  0  0  0  0  0  0  0
   23.4027   -7.7179  -17.8340 C   0  0  0  0  0  0  0  0  0  0  0  0
   23.2595   -8.4435  -16.5158 C   0  0  2  0  0  0  0  0  0  0  0  0
   23.0673   -9.8577  -16.6652 N   0  0  0  0  0  0  0  0  0  0  0  0
   22.1879   -7.8315  -15.6762 C   0  0  0  0  0  0  0  0  0  0  0  0
   20.9998   -8.1448  -15.9302 O   0  0  0  0  0  0  0  0  0  0  0  0
   22.4497   -6.9330  -14.6292 N   0  0  0  0  0  0  0  0  0  0  0  0
   21.4130   -6.2798  -13.8217 C   0  0  1  0  0  0  0  0  0  0  0  0
   21.3399   -6.8523  -12.4539 C   0  0  0  0  0  0  0  0  0  0  0  0
   20.2514   -6.2219  -11.6871 C   0  0  0  0  0  0  0  0  0  0  0  0
   19.3310   -5.2732  -12.1466 C   0  0  0  0  0  0  0  0  0  0  0  0
   18.5054   -4.9549  -11.1390 N   0  0  0  0  0  0  0  0  0  0  0  0
   18.8492   -5.6471  -10.0669 C   0  0  0  0  0  0  0  0  0  0  0  0
   19.9185   -6.4227  -10.4034 N   0  0  0  0  0  0  0  0  0  0  0  0
   21.6129   -4.8185  -13.8073 C   0  0  0  0  0  0  0  0  0  0  0  0
   20.5273   -3.9474  -13.9762 O   0  0  0  0  0  0  0  0  0  0  0  0
   22.7199   -4.2598  -13.6490 O   0  0  0  0  0  0  0  0  0  0  0  0
  1  2  1  0
  3  2  1  0
  4  3  1  0
  4  5  1  0
  5  6  1  6
  5  1  1  0
  6 10  1  0
  7  6  2  0
  9  8  1  6
  9 11  1  0
 10  9  1  0
 11 13  1  0
 11 12  2  0
 13 14  1  0
 14 15  1  1
 15 16  1  0
 16 17  2  0
 17 18  1  0
 19 18  1  0
 20 16  1  0
 20 19  2  0
 21 14  1  0
 21 22  1  0
 23 21  2  0
M  END
$$$$
