PAH.pdb
     RDKit          3D

 23 24  0  0  1  0  0  0  0  0999 V2000
   29.0148  -22.5485  -18.1671 N   0  0  0  0  0  0  0  0  0  0  0  0
   30.4541  -22.7053  -18.1615 C   0  0  0  0  0  0  0  0  0  0  0  0
   30.8569  -22.9432  -16.7324 C   0  0  0  0  0  0  0  0  0  0  0  0
   29.6621  -23.6378  -16.1560 C   0  0  0  0  0  0  0  0  0  0  0  0
   28.5032  -23.2294  -17.0217 C   0  0  1  0  0  0  0  0  0  0  0  0
   27.5989  -22.3634  -16.2039 C   0  0  0  0  0  0  0  0  0  0  0  0
   27.1448  -22.7578  -15.1000 O   0  0  0  0  0  0  0  0  0  0  0  0
   26.4940  -18.7407  -16.2350 C   0  0  0  0  0  0  0  0  0  0  0  0
   26.4206  -20.1884  -15.8067 C   0  0  2  0  0  0  0  0  0  0  0  0
   27.2092  -21.0628  -16.6269 N   0  0  0  0  0  0  0  0  0  0  0  0
   25.0052  -20.6532  -15.7151 C   0  0  0  0  0  0  0  0  0  0  0  0
   24.4918  -21.1601  -16.7417 O   0  0  0  0  0  0  0  0  0  0  0  0
   24.2352  -20.5487  -14.5453 N   0  0  0  0  0  0  0  0  0  0  0  0
   22.8393  -20.9871  -14.4325 C   0  0  1  0  0  0  0  0  0  0  0  0
   22.3840  -21.0131  -13.0197 C   0  0  0  0  0  0  0  0  0  0  0  0
   21.0014  -21.5138  -12.9312 C   0  0  0  0  0  0  0  0  0  0  0  0
   20.4390  -22.5785  -13.6443 C   0  0  0  0  0  0  0  0  0  0  0  0
   19.1571  -22.7116  -13.2742 N   0  0  0  0  0  0  0  0  0  0  0  0
   18.8740  -21.7927  -12.3674 C   0  0  0  0  0  0  0  0  0  0  0  0
   20.0040  -21.0596  -12.1580 N   0  0  0  0  0  0  0  0  0  0  0  0
   21.9668  -20.1600  -15.2870 C   0  0  0  0  0  0  0  0  0  0  0  0
   20.9197  -20.7428  -16.0148 O   0  0  0  0  0  0  0  0  0  0  0  0
   22.0835  -18.9232  -15.4261 O   0  0  0  0  0  0  0  0  0  0  0  0
  1  2  1  0
  3  2  1  0
  4  3  1  0
  4  5  1  0
  5  6  1  1
  5  1  1  0
  6 10  1  0
  7  6  2  0
  9  8  1  6
  9 11  1  0
 10  9  1  0
 11 13  1  0
 11 12  2  0
 13 14  1  0
 14 15  1  1
 15 16  1  0
 16 17  2  0
 17 18  1  0
 19 18  1  0
 20 16  1  0
 20 19  2  0
 21 14  1  0
 21 22  1  0
 23 21  2  0
M  END
$$$$
