PAH.pdb
     RDKit          3D

 23 24  0  0  1  0  0  0  0  0999 V2000
   38.0102  -10.5849   -8.5958 N   0  0  0  0  0  0  0  0  0  0  0  0
   37.5181  -11.8219   -9.1647 C   0  0  0  0  0  0  0  0  0  0  0  0
   37.5174  -12.8370   -8.0553 C   0  0  0  0  0  0  0  0  0  0  0  0
   37.2774  -12.0032   -6.8349 C   0  0  0  0  0  0  0  0  0  0  0  0
   37.7469  -10.6212   -7.1935 C   0  0  1  0  0  0  0  0  0  0  0  0
   38.9653  -10.3220   -6.3796 C   0  0  0  0  0  0  0  0  0  0  0  0
   38.9232  -10.3195   -5.1232 O   0  0  0  0  0  0  0  0  0  0  0  0
   42.6333   -9.6636   -6.6456 C   0  0  0  0  0  0  0  0  0  0  0  0
   41.2211   -9.2332   -6.3215 C   0  0  2  0  0  0  0  0  0  0  0  0
   40.2219  -10.0277   -6.9770 N   0  0  0  0  0  0  0  0  0  0  0  0
   41.0252   -7.7780   -6.5893 C   0  0  0  0  0  0  0  0  0  0  0  0
   41.9545   -6.9976   -6.2702 O   0  0  0  0  0  0  0  0  0  0  0  0
   39.8616   -7.2532   -7.1748 N   0  0  0  0  0  0  0  0  0  0  0  0
   39.6404   -5.8269   -7.4394 C   0  0  1  0  0  0  0  0  0  0  0  0
   38.4701   -5.6076   -8.3263 C   0  0  0  0  0  0  0  0  0  0  0  0
   38.7472   -6.1123   -9.6823 C   0  0  0  0  0  0  0  0  0  0  0  0
   39.9747   -6.5576  -10.1857 C   0  0  0  0  0  0  0  0  0  0  0  0
   39.8030   -6.9333  -11.4614 N   0  0  0  0  0  0  0  0  0  0  0  0
   38.5374   -6.7519  -11.7962 C   0  0  0  0  0  0  0  0  0  0  0  0
   37.8915   -6.2492  -10.7060 N   0  0  0  0  0  0  0  0  0  0  0  0
   39.5324   -5.0768   -6.1740 C   0  0  0  0  0  0  0  0  0  0  0  0
   40.1070   -3.8041   -6.0469 O   0  0  0  0  0  0  0  0  0  0  0  0
   38.9438   -5.4957   -5.1540 O   0  0  0  0  0  0  0  0  0  0  0  0
  1  2  1  0
  3  2  1  0
  4  3  1  0
  4  5  1  0
  5  6  1  1
  5  1  1  0
  6 10  1  0
  7  6  2  0
  9  8  1  6
  9 11  1  0
 10  9  1  0
 11 13  1  0
 11 12  2  0
 13 14  1  0
 14 15  1  1
 15 16  1  0
 16 17  2  0
 17 18  1  0
 19 18  1  0
 20 16  1  0
 20 19  2  0
 21 14  1  0
 21 22  1  0
 23 21  2  0
M  END
$$$$
