PAH.pdb
     RDKit          3D

 23 24  0  0  1  0  0  0  0  0999 V2000
   27.2018  -33.9647   -6.4925 N   0  0  0  0  0  0  0  0  0  0  0  0
   28.5005  -34.5499   -6.7514 C   0  0  0  0  0  0  0  0  0  0  0  0
   28.9981  -35.0933   -5.4406 C   0  0  0  0  0  0  0  0  0  0  0  0
   27.7349  -35.4652   -4.7278 C   0  0  0  0  0  0  0  0  0  0  0  0
   26.6613  -34.6092   -5.3394 C   0  0  1  0  0  0  0  0  0  0  0  0
   26.2053  -33.6311   -4.3041 C   0  0  0  0  0  0  0  0  0  0  0  0
   26.8713  -32.5956   -4.0503 O   0  0  0  0  0  0  0  0  0  0  0  0
   23.0141  -32.8073   -2.5305 C   0  0  0  0  0  0  0  0  0  0  0  0
   24.5224  -32.8479   -2.6214 C   0  0  2  0  0  0  0  0  0  0  0  0
   25.0076  -33.8184   -3.5605 N   0  0  0  0  0  0  0  0  0  0  0  0
   25.1397  -33.0331   -1.2752 C   0  0  0  0  0  0  0  0  0  0  0  0
   25.5536  -34.1796   -0.9778 O   0  0  0  0  0  0  0  0  0  0  0  0
   25.2749  -31.9932   -0.3411 N   0  0  0  0  0  0  0  0  0  0  0  0
   25.8329  -32.1593    1.0059 C   0  0  1  0  0  0  0  0  0  0  0  0
   25.8603  -30.8758    1.7514 C   0  0  0  0  0  0  0  0  0  0  0  0
   26.4908  -31.0574    3.0705 C   0  0  0  0  0  0  0  0  0  0  0  0
   27.7423  -31.6224    3.3403 C   0  0  0  0  0  0  0  0  0  0  0  0
   27.9442  -31.6019    4.6657 N   0  0  0  0  0  0  0  0  0  0  0  0
   26.8929  -31.0564    5.2522 C   0  0  0  0  0  0  0  0  0  0  0  0
   26.0033  -30.7232    4.2745 N   0  0  0  0  0  0  0  0  0  0  0  0
   25.1109  -33.2169    1.7379 C   0  0  0  0  0  0  0  0  0  0  0  0
   25.8105  -34.1615    2.5023 O   0  0  0  0  0  0  0  0  0  0  0  0
   23.8683  -33.3520    1.7380 O   0  0  0  0  0  0  0  0  0  0  0  0
  1  2  1  0
  3  2  1  0
  4  3  1  0
  4  5  1  0
  5  6  1  1
  5  1  1  0
  6 10  1  0
  7  6  2  0
  9  8  1  1
  9 11  1  0
 10  9  1  0
 11 13  1  0
 11 12  2  0
 13 14  1  0
 14 15  1  1
 15 16  1  0
 16 17  2  0
 17 18  1  0
 19 18  1  0
 20 16  1  0
 20 19  2  0
 21 14  1  0
 21 22  1  0
 23 21  2  0
M  END
$$$$
