PAH.pdb
     RDKit          3D

 23 24  0  0  1  0  0  0  0  0999 V2000
   22.6828  -11.9726  -18.6403 N   0  0  0  0  0  0  0  0  0  0  0  0
   22.8456  -13.3760  -18.9567 C   0  0  0  0  0  0  0  0  0  0  0  0
   21.8243  -14.1230  -18.1442 C   0  0  0  0  0  0  0  0  0  0  0  0
   20.7055  -13.1358  -18.0179 C   0  0  0  0  0  0  0  0  0  0  0  0
   21.3397  -11.7846  -18.1953 C   0  0  1  0  0  0  0  0  0  0  0  0
   21.2714  -11.0671  -16.8850 C   0  0  0  0  0  0  0  0  0  0  0  0
   20.1682  -10.8279  -16.3318 O   0  0  0  0  0  0  0  0  0  0  0  0
   23.4880  -10.2878  -14.0028 C   0  0  0  0  0  0  0  0  0  0  0  0
   22.3796   -9.9103  -14.9586 C   0  0  2  0  0  0  0  0  0  0  0  0
   22.4375  -10.6223  -16.2032 N   0  0  0  0  0  0  0  0  0  0  0  0
   22.3321   -8.4342  -15.1746 C   0  0  0  0  0  0  0  0  0  0  0  0
   23.0880   -7.9500  -16.0512 O   0  0  0  0  0  0  0  0  0  0  0  0
   21.4894   -7.5771  -14.4484 N   0  0  0  0  0  0  0  0  0  0  0  0
   21.4866   -6.1154  -14.5783 C   0  0  1  0  0  0  0  0  0  0  0  0
   20.1151   -5.5843  -14.7804 C   0  0  0  0  0  0  0  0  0  0  0  0
   19.6180   -5.9333  -16.1226 C   0  0  0  0  0  0  0  0  0  0  0  0
   20.3252   -5.8760  -17.3288 C   0  0  0  0  0  0  0  0  0  0  0  0
   19.5148   -6.2760  -18.3194 N   0  0  0  0  0  0  0  0  0  0  0  0
   18.3343   -6.5837  -17.8109 C   0  0  0  0  0  0  0  0  0  0  0  0
   18.3984   -6.3735  -16.4656 N   0  0  0  0  0  0  0  0  0  0  0  0
   22.1642   -5.4925  -13.4257 C   0  0  0  0  0  0  0  0  0  0  0  0
   22.5396   -6.2629  -12.3160 O   0  0  0  0  0  0  0  0  0  0  0  0
   22.4486   -4.2778  -13.3470 O   0  0  0  0  0  0  0  0  0  0  0  0
  1  2  1  0
  3  2  1  0
  4  3  1  0
  4  5  1  0
  5  6  1  1
  5  1  1  0
  6 10  1  0
  7  6  2  0
  9  8  1  1
  9 11  1  0
 10  9  1  0
 11 13  1  0
 11 12  2  0
 13 14  1  0
 14 15  1  1
 15 16  1  0
 16 17  2  0
 17 18  1  0
 19 18  1  0
 20 16  1  0
 20 19  2  0
 21 14  1  0
 21 22  1  0
 23 21  2  0
M  END
$$$$
