PAH.pdb
     RDKit          3D

 23 24  0  0  1  0  0  0  0  0999 V2000
   29.1066  -21.9606  -16.6147 N   0  0  0  0  0  0  0  0  0  0  0  0
   30.0687  -22.2495  -17.6573 C   0  0  0  0  0  0  0  0  0  0  0  0
   29.3433  -22.1038  -18.9664 C   0  0  0  0  0  0  0  0  0  0  0  0
   28.3108  -21.0617  -18.6662 C   0  0  0  0  0  0  0  0  0  0  0  0
   28.0984  -21.1230  -17.1794 C   0  0  1  0  0  0  0  0  0  0  0  0
   26.7202  -21.6480  -16.9314 C   0  0  0  0  0  0  0  0  0  0  0  0
   25.7098  -21.0728  -17.4094 O   0  0  0  0  0  0  0  0  0  0  0  0
   25.1411  -24.8178  -15.6640 C   0  0  0  0  0  0  0  0  0  0  0  0
   25.1640  -23.3273  -15.9139 C   0  0  2  0  0  0  0  0  0  0  0  0
   26.4824  -22.8125  -16.1505 N   0  0  0  0  0  0  0  0  0  0  0  0
   24.4757  -22.5852  -14.8170 C   0  0  0  0  0  0  0  0  0  0  0  0
   25.1839  -21.8802  -14.0582 O   0  0  0  0  0  0  0  0  0  0  0  0
   23.0892  -22.6422  -14.6015 N   0  0  0  0  0  0  0  0  0  0  0  0
   22.2973  -21.5516  -14.0211 C   0  0  1  0  0  0  0  0  0  0  0  0
   22.6127  -20.2463  -14.6541 C   0  0  0  0  0  0  0  0  0  0  0  0
   21.7705  -19.1793  -14.0863 C   0  0  0  0  0  0  0  0  0  0  0  0
   21.5762  -18.8841  -12.7323 C   0  0  0  0  0  0  0  0  0  0  0  0
   20.7384  -17.8414  -12.6376 N   0  0  0  0  0  0  0  0  0  0  0  0
   20.3901  -17.4583  -13.8536 C   0  0  0  0  0  0  0  0  0  0  0  0
   21.0226  -18.2781  -14.7402 N   0  0  0  0  0  0  0  0  0  0  0  0
   20.8582  -21.8693  -14.0798 C   0  0  0  0  0  0  0  0  0  0  0  0
   20.2575  -22.2399  -15.2913 O   0  0  0  0  0  0  0  0  0  0  0  0
   20.0882  -21.8369  -13.0957 O   0  0  0  0  0  0  0  0  0  0  0  0
  1  2  1  0
  3  2  1  0
  4  3  1  0
  4  5  1  0
  5  6  1  6
  5  1  1  0
  6 10  1  0
  7  6  2  0
  9  8  1  1
  9 11  1  0
 10  9  1  0
 11 13  1  0
 11 12  2  0
 13 14  1  0
 14 15  1  6
 15 16  1  0
 16 17  2  0
 17 18  1  0
 19 18  1  0
 20 16  1  0
 20 19  2  0
 21 14  1  0
 21 22  1  0
 23 21  2  0
M  END
$$$$
