PAH.pdb
     RDKit          3D

 23 24  0  0  1  0  0  0  0  0999 V2000
   18.1945  -14.5052  -15.9849 N   0  0  0  0  0  0  0  0  0  0  0  0
   16.8960  -14.7927  -16.5572 C   0  0  0  0  0  0  0  0  0  0  0  0
   16.5599  -13.6416  -17.4645 C   0  0  0  0  0  0  0  0  0  0  0  0
   17.9039  -13.1802  -17.9367 C   0  0  0  0  0  0  0  0  0  0  0  0
   18.8765  -13.6301  -16.8827 C   0  0  1  0  0  0  0  0  0  0  0  0
   19.4074  -12.4129  -16.1948 C   0  0  0  0  0  0  0  0  0  0  0  0
   18.7675  -11.8615  -15.2638 O   0  0  0  0  0  0  0  0  0  0  0  0
   22.6668  -10.4849  -16.1031 C   0  0  0  0  0  0  0  0  0  0  0  0
   21.1855  -10.6777  -15.8722 C   0  0  2  0  0  0  0  0  0  0  0  0
   20.6499  -11.8215  -16.5534 N   0  0  0  0  0  0  0  0  0  0  0  0
   20.4220   -9.4381  -16.2010 C   0  0  0  0  0  0  0  0  0  0  0  0
   19.8160   -9.4023  -17.2992 O   0  0  0  0  0  0  0  0  0  0  0  0
   20.3542   -8.3264  -15.3456 N   0  0  0  0  0  0  0  0  0  0  0  0
   19.7127   -7.0534  -15.6936 C   0  0  1  0  0  0  0  0  0  0  0  0
   18.4042   -6.8928  -15.0110 C   0  0  0  0  0  0  0  0  0  0  0  0
   17.7704   -5.6213  -15.4004 C   0  0  0  0  0  0  0  0  0  0  0  0
   18.3625   -4.3536  -15.4282 C   0  0  0  0  0  0  0  0  0  0  0  0
   17.4481   -3.4632  -15.8394 N   0  0  0  0  0  0  0  0  0  0  0  0
   16.3101   -4.0931  -16.0740 C   0  0  0  0  0  0  0  0  0  0  0  0
   16.5084   -5.4146  -15.8049 N   0  0  0  0  0  0  0  0  0  0  0  0
   20.6249   -5.9251  -15.4284 C   0  0  0  0  0  0  0  0  0  0  0  0
   21.3934   -5.8882  -14.2562 O   0  0  0  0  0  0  0  0  0  0  0  0
   20.7822   -4.9503  -16.1950 O   0  0  0  0  0  0  0  0  0  0  0  0
  1  2  1  0
  3  2  1  0
  4  3  1  0
  4  5  1  0
  5  6  1  1
  5  1  1  0
  6 10  1  0
  7  6  2  0
  9  8  1  6
  9 11  1  0
 10  9  1  0
 11 13  1  0
 11 12  2  0
 13 14  1  0
 14 15  1  1
 15 16  1  0
 16 17  2  0
 17 18  1  0
 19 18  1  0
 20 16  1  0
 20 19  2  0
 21 14  1  0
 21 22  1  0
 23 21  2  0
M  END
$$$$
