PAH.pdb
     RDKit          3D

 23 24  0  0  1  0  0  0  0  0999 V2000
   43.1479  -11.1510  -12.1538 N   0  0  0  0  0  0  0  0  0  0  0  0
   44.3283  -11.9887  -12.1184 C   0  0  0  0  0  0  0  0  0  0  0  0
   44.4428  -12.5140  -10.7140 C   0  0  0  0  0  0  0  0  0  0  0  0
   43.0168  -12.5852  -10.2628 C   0  0  0  0  0  0  0  0  0  0  0  0
   42.2759  -11.5917  -11.1133 C   0  0  1  0  0  0  0  0  0  0  0  0
   41.8327  -10.4686  -10.2309 C   0  0  0  0  0  0  0  0  0  0  0  0
   41.0837  -10.6752   -9.2427 O   0  0  0  0  0  0  0  0  0  0  0  0
   42.7076   -6.8176   -9.7419 C   0  0  0  0  0  0  0  0  0  0  0  0
   41.8350   -8.0437   -9.6009 C   0  0  2  0  0  0  0  0  0  0  0  0
   42.2304   -9.1226  -10.4604 N   0  0  0  0  0  0  0  0  0  0  0  0
   40.3927   -7.7033   -9.7785 C   0  0  0  0  0  0  0  0  0  0  0  0
   39.9017   -7.8319  -10.9260 O   0  0  0  0  0  0  0  0  0  0  0  0
   39.5740   -7.2516   -8.7307 N   0  0  0  0  0  0  0  0  0  0  0  0
   38.1392   -6.9740   -8.8634 C   0  0  1  0  0  0  0  0  0  0  0  0
   37.4119   -7.2214   -7.5931 C   0  0  0  0  0  0  0  0  0  0  0  0
   37.5514   -8.6294   -7.1831 C   0  0  0  0  0  0  0  0  0  0  0  0
   38.2414   -9.6433   -7.8572 C   0  0  0  0  0  0  0  0  0  0  0  0
   38.1272  -10.7792   -7.1538 N   0  0  0  0  0  0  0  0  0  0  0  0
   37.4046  -10.5442   -6.0724 C   0  0  0  0  0  0  0  0  0  0  0  0
   37.0524   -9.2275   -6.0911 N   0  0  0  0  0  0  0  0  0  0  0  0
   37.9220   -5.6083   -9.3764 C   0  0  0  0  0  0  0  0  0  0  0  0
   36.7744   -5.2988  -10.1201 O   0  0  0  0  0  0  0  0  0  0  0  0
   38.7094   -4.6542   -9.1970 O   0  0  0  0  0  0  0  0  0  0  0  0
  1  2  1  0
  3  2  1  0
  4  3  1  0
  4  5  1  0
  5  6  1  1
  5  1  1  0
  6 10  1  0
  7  6  2  0
  9  8  1  6
  9 11  1  0
 10  9  1  0
 11 13  1  0
 11 12  2  0
 13 14  1  0
 14 15  1  1
 15 16  1  0
 16 17  2  0
 17 18  1  0
 19 18  1  0
 20 16  1  0
 20 19  2  0
 21 14  1  0
 21 22  1  0
 23 21  2  0
M  END
$$$$
