PAH.pdb
     RDKit          3D

 23 24  0  0  1  0  0  0  0  0999 V2000
   29.3428  -21.9648  -17.7094 N   0  0  0  0  0  0  0  0  0  0  0  0
   30.7047  -22.4559  -17.7136 C   0  0  0  0  0  0  0  0  0  0  0  0
   30.8314  -23.3872  -16.5397 C   0  0  0  0  0  0  0  0  0  0  0  0
   29.4495  -23.9474  -16.4025 C   0  0  0  0  0  0  0  0  0  0  0  0
   28.5391  -22.9303  -17.0318 C   0  0  1  0  0  0  0  0  0  0  0  0
   27.7111  -22.3184  -15.9472 C   0  0  0  0  0  0  0  0  0  0  0  0
   26.8572  -22.9957  -15.3208 O   0  0  0  0  0  0  0  0  0  0  0  0
   27.8453  -19.3368  -13.7154 C   0  0  0  0  0  0  0  0  0  0  0  0
   27.0758  -20.3663  -14.5109 C   0  0  2  0  0  0  0  0  0  0  0  0
   27.8442  -20.9533  -15.5712 N   0  0  0  0  0  0  0  0  0  0  0  0
   25.7870  -19.8067  -15.0144 C   0  0  0  0  0  0  0  0  0  0  0  0
   24.9715  -19.3704  -14.1664 O   0  0  0  0  0  0  0  0  0  0  0  0
   25.4535  -19.7489  -16.3773 N   0  0  0  0  0  0  0  0  0  0  0  0
   24.2309  -19.1313  -16.9037 C   0  0  1  0  0  0  0  0  0  0  0  0
   24.5284  -17.9091  -17.6923 C   0  0  0  0  0  0  0  0  0  0  0  0
   25.2236  -16.9127  -16.8592 C   0  0  0  0  0  0  0  0  0  0  0  0
   24.6694  -16.1191  -15.8485 C   0  0  0  0  0  0  0  0  0  0  0  0
   25.6357  -15.3445  -15.3344 N   0  0  0  0  0  0  0  0  0  0  0  0
   26.7709  -15.6011  -15.9607 C   0  0  0  0  0  0  0  0  0  0  0  0
   26.5176  -16.5616  -16.8943 N   0  0  0  0  0  0  0  0  0  0  0  0
   23.4435  -20.1148  -17.6707 C   0  0  0  0  0  0  0  0  0  0  0  0
   22.2151  -19.7558  -18.2435 O   0  0  0  0  0  0  0  0  0  0  0  0
   23.7922  -21.2992  -17.8659 O   0  0  0  0  0  0  0  0  0  0  0  0
  1  2  1  0
  3  2  1  0
  4  3  1  0
  4  5  1  0
  5  6  1  1
  5  1  1  0
  6 10  1  0
  7  6  2  0
  9  8  1  6
  9 11  1  0
 10  9  1  0
 11 13  1  0
 11 12  2  0
 13 14  1  0
 14 15  1  6
 15 16  1  0
 16 17  2  0
 17 18  1  0
 19 18  1  0
 20 16  1  0
 20 19  2  0
 21 14  1  0
 21 22  1  0
 23 21  2  0
M  END
$$$$
