PAH.pdb
     RDKit          3D

 23 24  0  0  1  0  0  0  0  0999 V2000
   29.3095  -19.5911  -11.9745 N   0  0  0  0  0  0  0  0  0  0  0  0
   30.6318  -20.0828  -11.6491 C   0  0  0  0  0  0  0  0  0  0  0  0
   30.6474  -21.5447  -12.0010 C   0  0  0  0  0  0  0  0  0  0  0  0
   29.6818  -21.6276  -13.1424 C   0  0  0  0  0  0  0  0  0  0  0  0
   28.7697  -20.4434  -12.9841 C   0  0  1  0  0  0  0  0  0  0  0  0
   27.4093  -20.9529  -12.6288 C   0  0  0  0  0  0  0  0  0  0  0  0
   26.7656  -21.6912  -13.4166 O   0  0  0  0  0  0  0  0  0  0  0  0
   25.1093  -20.8912   -9.6053 C   0  0  0  0  0  0  0  0  0  0  0  0
   25.4571  -21.0824  -11.0638 C   0  0  2  0  0  0  0  0  0  0  0  0
   26.7790  -20.6327  -11.3948 N   0  0  0  0  0  0  0  0  0  0  0  0
   24.4298  -20.4602  -11.9499 C   0  0  0  0  0  0  0  0  0  0  0  0
   24.3085  -19.2119  -11.9125 O   0  0  0  0  0  0  0  0  0  0  0  0
   23.6053  -21.2023  -12.8111 N   0  0  0  0  0  0  0  0  0  0  0  0
   22.5924  -20.6149  -13.6956 C   0  0  1  0  0  0  0  0  0  0  0  0
   22.7562  -21.0721  -15.0984 C   0  0  0  0  0  0  0  0  0  0  0  0
   21.8120  -20.3699  -15.9848 C   0  0  0  0  0  0  0  0  0  0  0  0
   21.5222  -19.0009  -15.9990 C   0  0  0  0  0  0  0  0  0  0  0  0
   20.6105  -18.7664  -16.9538 N   0  0  0  0  0  0  0  0  0  0  0  0
   20.3053  -19.9078  -17.5461 C   0  0  0  0  0  0  0  0  0  0  0  0
   21.0415  -20.8892  -16.9521 N   0  0  0  0  0  0  0  0  0  0  0  0
   21.2371  -20.8771  -13.1757 C   0  0  0  0  0  0  0  0  0  0  0  0
   20.2358  -19.8998  -13.2667 O   0  0  0  0  0  0  0  0  0  0  0  0
   20.8842  -21.9473  -12.6349 O   0  0  0  0  0  0  0  0  0  0  0  0
  1  2  1  0
  3  2  1  0
  4  3  1  0
  4  5  1  0
  5  6  1  1
  5  1  1  0
  6 10  1  0
  7  6  2  0
  9  8  1  1
  9 11  1  0
 10  9  1  0
 11 13  1  0
 11 12  2  0
 13 14  1  0
 14 15  1  6
 15 16  1  0
 16 17  2  0
 17 18  1  0
 19 18  1  0
 20 16  1  0
 20 19  2  0
 21 14  1  0
 21 22  1  0
 23 21  2  0
M  END
$$$$
