PAH.pdb
     RDKit          3D

 23 24  0  0  1  0  0  0  0  0999 V2000
   27.2705  -20.5298  -15.4891 N   0  0  0  0  0  0  0  0  0  0  0  0
   28.3854  -20.5251  -16.4128 C   0  0  0  0  0  0  0  0  0  0  0  0
   28.4736  -19.1335  -16.9758 C   0  0  0  0  0  0  0  0  0  0  0  0
   27.9544  -18.2834  -15.8579 C   0  0  0  0  0  0  0  0  0  0  0  0
   27.0816  -19.1897  -15.0357 C   0  0  1  0  0  0  0  0  0  0  0  0
   25.6661  -18.7326  -15.1907 C   0  0  0  0  0  0  0  0  0  0  0  0
   25.3246  -17.5613  -14.8879 O   0  0  0  0  0  0  0  0  0  0  0  0
   22.7361  -19.2339  -17.1978 C   0  0  0  0  0  0  0  0  0  0  0  0
   23.2731  -19.1750  -15.7861 C   0  0  2  0  0  0  0  0  0  0  0  0
   24.6432  -19.5890  -15.6831 N   0  0  0  0  0  0  0  0  0  0  0  0
   22.3997  -19.9350  -14.8441 C   0  0  0  0  0  0  0  0  0  0  0  0
   22.6116  -21.1653  -14.7186 O   0  0  0  0  0  0  0  0  0  0  0  0
   21.3659  -19.3397  -14.1031 N   0  0  0  0  0  0  0  0  0  0  0  0
   20.5292  -20.0526  -13.1310 C   0  0  1  0  0  0  0  0  0  0  0  0
   20.4054  -19.3008  -11.8568 C   0  0  0  0  0  0  0  0  0  0  0  0
   21.0741  -20.0251  -10.7621 C   0  0  0  0  0  0  0  0  0  0  0  0
   21.8036  -21.2157  -10.8558 C   0  0  0  0  0  0  0  0  0  0  0  0
   22.2477  -21.5427   -9.6336 N   0  0  0  0  0  0  0  0  0  0  0  0
   21.8419  -20.6282   -8.7700 C   0  0  0  0  0  0  0  0  0  0  0  0
   21.1233  -19.6992   -9.4619 N   0  0  0  0  0  0  0  0  0  0  0  0
   19.2162  -20.3780  -13.7191 C   0  0  0  0  0  0  0  0  0  0  0  0
   18.5166  -21.5237  -13.3144 O   0  0  0  0  0  0  0  0  0  0  0  0
   18.6428  -19.6878  -14.5893 O   0  0  0  0  0  0  0  0  0  0  0  0
  1  2  1  0
  3  2  1  0
  4  3  1  0
  4  5  1  0
  5  6  1  6
  5  1  1  0
  6 10  1  0
  7  6  2  0
  9  8  1  6
  9 11  1  0
 10  9  1  0
 11 13  1  0
 11 12  2  0
 13 14  1  0
 14 15  1  1
 15 16  1  0
 16 17  2  0
 17 18  1  0
 19 18  1  0
 20 16  1  0
 20 19  2  0
 21 14  1  0
 21 22  1  0
 23 21  2  0
M  END
$$$$
