PAH.pdb
     RDKit          3D

 23 24  0  0  1  0  0  0  0  0999 V2000
   22.6750  -21.1407  -15.7771 N   0  0  0  0  0  0  0  0  0  0  0  0
   23.4915  -20.4085  -16.7222 C   0  0  0  0  0  0  0  0  0  0  0  0
   23.5496  -18.9878  -16.2326 C   0  0  0  0  0  0  0  0  0  0  0  0
   23.4346  -19.1377  -14.7472 C   0  0  0  0  0  0  0  0  0  0  0  0
   22.7400  -20.4525  -14.5283 C   0  0  1  0  0  0  0  0  0  0  0  0
   21.3838  -20.1700  -13.9651 C   0  0  0  0  0  0  0  0  0  0  0  0
   21.2412  -19.4520  -12.9430 O   0  0  0  0  0  0  0  0  0  0  0  0
   17.9372  -19.8456  -15.0317 C   0  0  0  0  0  0  0  0  0  0  0  0
   18.8921  -20.4270  -14.0145 C   0  0  2  0  0  0  0  0  0  0  0  0
   20.1971  -20.6925  -14.5491 N   0  0  0  0  0  0  0  0  0  0  0  0
   18.3128  -21.6367  -13.3597 C   0  0  0  0  0  0  0  0  0  0  0  0
   18.6270  -22.7579  -13.8271 O   0  0  0  0  0  0  0  0  0  0  0  0
   17.4435  -21.5737  -12.2585 N   0  0  0  0  0  0  0  0  0  0  0  0
   16.8614  -22.7469  -11.5966 C   0  0  1  0  0  0  0  0  0  0  0  0
   16.6323  -22.5043  -10.1501 C   0  0  0  0  0  0  0  0  0  0  0  0
   17.6469  -23.2022   -9.3416 C   0  0  0  0  0  0  0  0  0  0  0  0
   18.6524  -24.0602   -9.8011 C   0  0  0  0  0  0  0  0  0  0  0  0
   19.3652  -24.4865   -8.7485 N   0  0  0  0  0  0  0  0  0  0  0  0
   18.8698  -23.9483   -7.6477 C   0  0  0  0  0  0  0  0  0  0  0  0
   17.8176  -23.1620   -8.0118 N   0  0  0  0  0  0  0  0  0  0  0  0
   15.6351  -23.1784  -12.2934 C   0  0  0  0  0  0  0  0  0  0  0  0
   15.2754  -24.5330  -12.3333 O   0  0  0  0  0  0  0  0  0  0  0  0
   14.8480  -22.4045  -12.8799 O   0  0  0  0  0  0  0  0  0  0  0  0
  1  2  1  0
  3  2  1  0
  4  3  1  0
  4  5  1  0
  5  6  1  6
  5  1  1  0
  6 10  1  0
  7  6  2  0
  9  8  1  6
  9 11  1  0
 10  9  1  0
 11 13  1  0
 11 12  2  0
 13 14  1  0
 14 15  1  1
 15 16  1  0
 16 17  2  0
 17 18  1  0
 19 18  1  0
 20 16  1  0
 20 19  2  0
 21 14  1  0
 21 22  1  0
 23 21  2  0
M  END
$$$$
