MIH.pdb
     RDKit          3D

 27 27  0  0  1  0  0  0  0  0999 V2000
    7.2108  -19.5755   19.9891 C   0  0  0  0  0  0  0  0  0  0  0  0
    5.9450  -18.3951   19.6116 S   0  0  0  0  0  0  0  0  0  0  0  0
    6.3045  -16.6794   19.8483 C   0  0  0  0  0  0  0  0  0  0  0  0
    7.0801  -16.3141   21.0532 C   0  0  0  0  0  0  0  0  0  0  0  0
    7.3633  -14.8751   21.2498 C   0  0  2  0  0  0  0  0  0  0  0  0
    8.0436  -14.2217   20.1852 N   0  0  0  0  0  0  0  0  0  0  0  0
    8.0867  -14.6446   22.5396 C   0  0  0  0  0  0  0  0  0  0  0  0
    9.3172  -14.4872   22.5235 O   0  0  0  0  0  0  0  0  0  0  0  0
    6.0338  -11.5987   26.4161 C   0  0  0  0  0  0  0  0  0  0  0  0
    7.0090  -12.3236   25.5543 C   0  0  0  0  0  0  0  0  0  0  0  0
    7.2787  -13.7495   26.0369 C   0  0  2  0  0  0  0  0  0  0  0  0
    7.9602  -13.5811   27.3692 C   0  0  0  0  0  0  0  0  0  0  0  0
    8.1862  -14.4137   25.0352 C   0  0  2  0  0  0  0  0  0  0  0  0
    7.4276  -14.5986   23.7754 N   0  0  0  0  0  0  0  0  0  0  0  0
    8.7068  -15.7344   25.4724 C   0  0  0  0  0  0  0  0  0  0  0  0
    7.8562  -16.6990   25.5461 O   0  0  0  0  0  0  0  0  0  0  0  0
   10.0288  -16.0559   25.8145 N   0  0  0  0  0  0  0  0  0  0  0  0
   10.4400  -17.3989   26.2234 C   0  0  1  0  0  0  0  0  0  0  0  0
   11.6984  -17.8376   25.5850 C   0  0  0  0  0  0  0  0  0  0  0  0
   11.4904  -18.1534   24.1583 C   0  0  0  0  0  0  0  0  0  0  0  0
   10.3218  -18.1682   23.4156 C   0  0  0  0  0  0  0  0  0  0  0  0
   10.5402  -18.5290   22.1529 N   0  0  0  0  0  0  0  0  0  0  0  0
   11.8683  -18.7539   22.0655 C   0  0  0  0  0  0  0  0  0  0  0  0
   12.4418  -18.5335   23.2515 N   0  0  0  0  0  0  0  0  0  0  0  0
   10.4207  -17.5063   27.6954 C   0  0  0  0  0  0  0  0  0  0  0  0
   10.5742  -18.6154   28.2464 O   0  0  0  0  0  0  0  0  0  0  0  0
   10.2351  -16.4066   28.5330 O   0  0  0  0  0  0  0  0  0  0  0  0
  1  2  1  0
  3  4  1  0
  3  2  1  0
  4  5  1  0
  5  6  1  6
  5  7  1  0
  7  8  2  0
  9 10  1  0
 11 10  1  0
 11 12  1  1
 13 11  1  0
 14  7  1  0
 13 14  1  6
 15 13  1  0
 15 16  2  0
 17 15  1  0
 18 17  1  0
 18 19  1  1
 20 19  1  0
 21 20  2  0
 22 23  1  0
 22 21  1  0
 23 24  2  0
 24 20  1  0
 25 18  1  0
 26 25  2  0
 27 25  1  0
M  END
$$$$
