MIH.pdb
     RDKit          3D

 27 27  0  0  1  0  0  0  0  0999 V2000
    5.8932  -19.7935   21.4092 C   0  0  0  0  0  0  0  0  0  0  0  0
    6.0712  -18.9748   19.8484 S   0  0  0  0  0  0  0  0  0  0  0  0
    7.0632  -17.5120   19.7800 C   0  0  0  0  0  0  0  0  0  0  0  0
    7.4043  -16.8691   21.0674 C   0  0  0  0  0  0  0  0  0  0  0  0
    8.2439  -15.6525   21.0004 C   0  0  2  0  0  0  0  0  0  0  0  0
    9.3465  -15.7037   20.1034 N   0  0  0  0  0  0  0  0  0  0  0  0
    8.7099  -15.2495   22.3644 C   0  0  0  0  0  0  0  0  0  0  0  0
    9.9014  -15.4125   22.6695 O   0  0  0  0  0  0  0  0  0  0  0  0
    7.0897  -11.9281   27.3335 C   0  0  0  0  0  0  0  0  0  0  0  0
    7.8921  -12.9982   26.6776 C   0  0  0  0  0  0  0  0  0  0  0  0
    7.4135  -13.3106   25.2591 C   0  0  2  0  0  0  0  0  0  0  0  0
    6.0233  -13.8618   25.4360 C   0  0  0  0  0  0  0  0  0  0  0  0
    8.3428  -14.3406   24.6731 C   0  0  2  0  0  0  0  0  0  0  0  0
    7.8503  -14.6911   23.3198 N   0  0  0  0  0  0  0  0  0  0  0  0
    8.4492  -15.5862   25.4754 C   0  0  0  0  0  0  0  0  0  0  0  0
    7.3515  -16.2129   25.7239 O   0  0  0  0  0  0  0  0  0  0  0  0
    9.6165  -16.1650   25.9956 N   0  0  0  0  0  0  0  0  0  0  0  0
    9.6188  -17.4354   26.7208 C   0  0  1  0  0  0  0  0  0  0  0  0
   10.5428  -18.4313   26.1394 C   0  0  0  0  0  0  0  0  0  0  0  0
   10.2726  -18.6338   24.7025 C   0  0  0  0  0  0  0  0  0  0  0  0
    9.0905  -18.9643   24.0615 C   0  0  0  0  0  0  0  0  0  0  0  0
    9.2548  -19.0810   22.7456 N   0  0  0  0  0  0  0  0  0  0  0  0
   10.5606  -18.8241   22.5198 C   0  0  0  0  0  0  0  0  0  0  0  0
   11.1739  -18.5573   23.6761 N   0  0  0  0  0  0  0  0  0  0  0  0
    9.7984  -17.1915   28.1655 C   0  0  0  0  0  0  0  0  0  0  0  0
    9.8036  -18.1471   28.9680 O   0  0  0  0  0  0  0  0  0  0  0  0
    9.9681  -15.9158   28.7032 O   0  0  0  0  0  0  0  0  0  0  0  0
  1  2  1  0
  3  4  1  0
  3  2  1  0
  4  5  1  0
  5  6  1  6
  5  7  1  0
  7  8  2  0
  9 10  1  0
 11 10  1  0
 11 12  1  1
 13 11  1  0
 14  7  1  0
 13 14  1  6
 15 13  1  0
 15 16  2  0
 17 15  1  0
 18 17  1  0
 18 19  1  6
 20 19  1  0
 21 20  2  0
 22 23  1  0
 22 21  1  0
 23 24  2  0
 24 20  1  0
 25 18  1  0
 26 25  2  0
 27 25  1  0
M  END
$$$$
