MIH.pdb
     RDKit          3D

 27 27  0  0  1  0  0  0  0  0999 V2000
    4.4207  -20.1697   20.6311 C   0  0  0  0  0  0  0  0  0  0  0  0
    5.2772  -20.8829   19.2542 S   0  0  0  0  0  0  0  0  0  0  0  0
    6.6827  -20.0247   18.6085 C   0  0  0  0  0  0  0  0  0  0  0  0
    6.5412  -18.5689   18.3911 C   0  0  0  0  0  0  0  0  0  0  0  0
    7.7430  -17.8483   17.9156 C   0  0  2  0  0  0  0  0  0  0  0  0
    8.7056  -18.6311   17.2200 N   0  0  0  0  0  0  0  0  0  0  0  0
    8.3989  -17.1055   19.0372 C   0  0  0  0  0  0  0  0  0  0  0  0
    9.5536  -17.4114   19.3721 O   0  0  0  0  0  0  0  0  0  0  0  0
    7.0717  -11.9334   19.8411 C   0  0  0  0  0  0  0  0  0  0  0  0
    7.8759  -13.1863   19.7864 C   0  0  0  0  0  0  0  0  0  0  0  0
    7.7279  -14.0392   21.0472 C   0  0  2  0  0  0  0  0  0  0  0  0
    8.3812  -13.2302   22.1364 C   0  0  0  0  0  0  0  0  0  0  0  0
    8.4545  -15.3378   20.8157 C   0  0  2  0  0  0  0  0  0  0  0  0
    7.7585  -16.0702   19.7313 N   0  0  0  0  0  0  0  0  0  0  0  0
    8.5217  -16.2155   22.0122 C   0  0  0  0  0  0  0  0  0  0  0  0
    7.7680  -17.2601   22.0098 O   0  0  0  0  0  0  0  0  0  0  0  0
    9.3194  -16.0382   23.1526 N   0  0  0  0  0  0  0  0  0  0  0  0
   10.3052  -17.0247   23.5944 C   0  0  1  0  0  0  0  0  0  0  0  0
   11.1875  -17.4886   22.5036 C   0  0  0  0  0  0  0  0  0  0  0  0
   10.7494  -18.7990   21.9845 C   0  0  0  0  0  0  0  0  0  0  0  0
    9.6687  -19.5818   22.3543 C   0  0  0  0  0  0  0  0  0  0  0  0
    9.6195  -20.7188   21.6636 N   0  0  0  0  0  0  0  0  0  0  0  0
   10.6807  -20.6821   20.8302 C   0  0  0  0  0  0  0  0  0  0  0  0
   11.3582  -19.5456   21.0131 N   0  0  0  0  0  0  0  0  0  0  0  0
   11.0090  -16.5323   24.7948 C   0  0  0  0  0  0  0  0  0  0  0  0
   11.6167  -15.4428   24.7640 O   0  0  0  0  0  0  0  0  0  0  0  0
   11.0355  -17.2351   25.9993 O   0  0  0  0  0  0  0  0  0  0  0  0
  1  2  1  0
  3  4  1  0
  3  2  1  0
  4  5  1  0
  5  6  1  1
  5  7  1  0
  7  8  2  0
  9 10  1  0
 11 10  1  0
 11 12  1  1
 13 11  1  0
 14  7  1  0
 13 14  1  6
 15 13  1  0
 15 16  2  0
 17 15  1  0
 18 17  1  0
 18 19  1  6
 20 19  1  0
 21 20  2  0
 22 23  1  0
 22 21  1  0
 23 24  2  0
 24 20  1  0
 25 18  1  0
 26 25  2  0
 27 25  1  0
M  END
$$$$
