MIH.pdb
     RDKit          3D

 27 27  0  0  1  0  0  0  0  0999 V2000
    8.7653  -11.7709   18.9755 C   0  0  0  0  0  0  0  0  0  0  0  0
    7.7001  -13.0737   18.4221 S   0  0  0  0  0  0  0  0  0  0  0  0
    7.3460  -14.3965   19.5417 C   0  0  0  0  0  0  0  0  0  0  0  0
    8.0514  -14.3854   20.8414 C   0  0  0  0  0  0  0  0  0  0  0  0
    7.6855  -15.4473   21.8049 C   0  0  2  0  0  0  0  0  0  0  0  0
    6.2974  -15.7371   21.9168 N   0  0  0  0  0  0  0  0  0  0  0  0
    8.2613  -15.1632   23.1568 C   0  0  0  0  0  0  0  0  0  0  0  0
    9.4938  -15.1339   23.2956 O   0  0  0  0  0  0  0  0  0  0  0  0
    5.8430  -11.6041   25.9751 C   0  0  0  0  0  0  0  0  0  0  0  0
    6.9150  -12.4958   25.4507 C   0  0  0  0  0  0  0  0  0  0  0  0
    7.1712  -13.7050   26.3512 C   0  0  2  0  0  0  0  0  0  0  0  0
    7.8566  -13.1394   27.5670 C   0  0  0  0  0  0  0  0  0  0  0  0
    8.0704  -14.6555   25.6056 C   0  0  2  0  0  0  0  0  0  0  0  0
    7.4606  -14.9268   24.2822 N   0  0  0  0  0  0  0  0  0  0  0  0
    8.2910  -15.9503   26.2995 C   0  0  0  0  0  0  0  0  0  0  0  0
    7.2977  -16.7700   26.3299 O   0  0  0  0  0  0  0  0  0  0  0  0
    9.4662  -16.3881   26.9282 N   0  0  0  0  0  0  0  0  0  0  0  0
    9.6407  -17.7529   27.4254 C   0  0  1  0  0  0  0  0  0  0  0  0
    9.4993  -18.7756   26.3682 C   0  0  0  0  0  0  0  0  0  0  0  0
    8.3515  -19.6640   26.6362 C   0  0  0  0  0  0  0  0  0  0  0  0
    7.5045  -19.7111   27.7307 C   0  0  0  0  0  0  0  0  0  0  0  0
    6.5943  -20.6755   27.6134 N   0  0  0  0  0  0  0  0  0  0  0  0
    6.8467  -21.2689   26.4275 C   0  0  0  0  0  0  0  0  0  0  0  0
    7.8887  -20.6752   25.8393 N   0  0  0  0  0  0  0  0  0  0  0  0
   10.8829  -17.8466   28.2171 C   0  0  0  0  0  0  0  0  0  0  0  0
   11.1719  -18.9063   28.8094 O   0  0  0  0  0  0  0  0  0  0  0  0
   11.7809  -16.7871   28.3463 O   0  0  0  0  0  0  0  0  0  0  0  0
  1  2  1  0
  3  4  1  0
  3  2  1  0
  4  5  1  0
  5  6  1  1
  5  7  1  0
  7  8  2  0
  9 10  1  0
 11 10  1  0
 11 12  1  1
 13 11  1  0
 14  7  1  0
 13 14  1  6
 15 13  1  0
 15 16  2  0
 17 15  1  0
 18 17  1  0
 18 19  1  6
 20 19  1  0
 21 20  2  0
 22 23  1  0
 22 21  1  0
 23 24  2  0
 24 20  1  0
 25 18  1  0
 26 25  2  0
 27 25  1  0
M  END
$$$$
