MIH.pdb
     RDKit          3D

 27 27  0  0  1  0  0  0  0  0999 V2000
    7.5062  -11.4792   20.6265 C   0  0  0  0  0  0  0  0  0  0  0  0
    7.9859  -12.6652   19.4012 S   0  0  0  0  0  0  0  0  0  0  0  0
    7.4667  -14.3428   19.6131 C   0  0  0  0  0  0  0  0  0  0  0  0
    6.7729  -14.6785   20.8752 C   0  0  0  0  0  0  0  0  0  0  0  0
    7.3606  -15.7672   21.6870 C   0  0  2  0  0  0  0  0  0  0  0  0
    6.4538  -16.7611   22.1483 N   0  0  0  0  0  0  0  0  0  0  0  0
    8.1435  -15.2134   22.8362 C   0  0  0  0  0  0  0  0  0  0  0  0
    9.2085  -14.6179   22.6118 O   0  0  0  0  0  0  0  0  0  0  0  0
    5.5926  -12.6247   26.6327 C   0  0  0  0  0  0  0  0  0  0  0  0
    6.6765  -13.0899   25.7226 C   0  0  0  0  0  0  0  0  0  0  0  0
    7.4881  -14.2445   26.3116 C   0  0  2  0  0  0  0  0  0  0  0  0
    8.1853  -13.6523   27.5079 C   0  0  0  0  0  0  0  0  0  0  0  0
    8.4752  -14.6965   25.2680 C   0  0  2  0  0  0  0  0  0  0  0  0
    7.7211  -15.3401   24.1662 N   0  0  0  0  0  0  0  0  0  0  0  0
    9.4905  -15.6570   25.7708 C   0  0  0  0  0  0  0  0  0  0  0  0
   10.3355  -15.2105   26.6346 O   0  0  0  0  0  0  0  0  0  0  0  0
    9.6351  -17.0058   25.4129 N   0  0  0  0  0  0  0  0  0  0  0  0
   10.6035  -17.8980   26.0505 C   0  0  1  0  0  0  0  0  0  0  0  0
   11.9750  -17.7317   25.5263 C   0  0  0  0  0  0  0  0  0  0  0  0
   11.9772  -17.6612   24.0520 C   0  0  0  0  0  0  0  0  0  0  0  0
   11.8163  -18.6697   23.1168 C   0  0  0  0  0  0  0  0  0  0  0  0
   11.9037  -18.2099   21.8704 N   0  0  0  0  0  0  0  0  0  0  0  0
   12.1247  -16.8836   21.9887 C   0  0  0  0  0  0  0  0  0  0  0  0
   12.1701  -16.5477   23.2808 N   0  0  0  0  0  0  0  0  0  0  0  0
   10.4849  -17.8050   27.5188 C   0  0  0  0  0  0  0  0  0  0  0  0
    9.6120  -17.0769   28.0337 O   0  0  0  0  0  0  0  0  0  0  0  0
   11.3171  -18.5052   28.3921 O   0  0  0  0  0  0  0  0  0  0  0  0
  1  2  1  0
  3  4  1  0
  3  2  1  0
  4  5  1  0
  5  6  1  1
  5  7  1  0
  7  8  2  0
  9 10  1  0
 11 10  1  0
 11 12  1  1
 13 11  1  0
 14  7  1  0
 13 14  1  6
 15 13  1  0
 15 16  2  0
 17 15  1  0
 18 17  1  0
 18 19  1  1
 20 19  1  0
 21 20  2  0
 22 23  1  0
 22 21  1  0
 23 24  2  0
 24 20  1  0
 25 18  1  0
 26 25  2  0
 27 25  1  0
M  END
$$$$
