MIH.pdb
     RDKit          3D

 27 27  0  0  1  0  0  0  0  0999 V2000
    6.5093  -12.4838   19.7875 C   0  0  0  0  0  0  0  0  0  0  0  0
    6.8570  -14.0890   19.1237 S   0  0  0  0  0  0  0  0  0  0  0  0
    6.4858  -15.5034   20.1189 C   0  0  0  0  0  0  0  0  0  0  0  0
    7.2211  -15.6408   21.3945 C   0  0  0  0  0  0  0  0  0  0  0  0
    8.3722  -14.7336   21.5988 C   0  0  2  0  0  0  0  0  0  0  0  0
    9.4748  -14.9166   20.7191 N   0  0  0  0  0  0  0  0  0  0  0  0
    8.8376  -14.7733   23.0207 C   0  0  0  0  0  0  0  0  0  0  0  0
   10.0262  -15.0352   23.2613 O   0  0  0  0  0  0  0  0  0  0  0  0
    6.2148  -11.7026   26.5997 C   0  0  0  0  0  0  0  0  0  0  0  0
    7.3139  -12.4248   25.9000 C   0  0  0  0  0  0  0  0  0  0  0  0
    7.4668  -13.8708   26.3739 C   0  0  2  0  0  0  0  0  0  0  0  0
    7.9538  -13.7593   27.7946 C   0  0  0  0  0  0  0  0  0  0  0  0
    8.4883  -14.5411   25.4935 C   0  0  2  0  0  0  0  0  0  0  0  0
    7.9806  -14.5250   24.1011 N   0  0  0  0  0  0  0  0  0  0  0  0
    8.7853  -15.9463   25.8727 C   0  0  0  0  0  0  0  0  0  0  0  0
    7.7822  -16.7502   25.9564 O   0  0  0  0  0  0  0  0  0  0  0  0
   10.0424  -16.5042   26.1498 N   0  0  0  0  0  0  0  0  0  0  0  0
   10.2151  -17.8745   26.6319 C   0  0  1  0  0  0  0  0  0  0  0  0
   11.4800  -18.4909   26.1805 C   0  0  0  0  0  0  0  0  0  0  0  0
   11.5283  -18.5917   24.7087 C   0  0  0  0  0  0  0  0  0  0  0  0
   10.5220  -18.4099   23.7750 C   0  0  0  0  0  0  0  0  0  0  0  0
   10.9549  -18.6122   22.5324 N   0  0  0  0  0  0  0  0  0  0  0  0
   12.2611  -18.9308   22.6517 C   0  0  0  0  0  0  0  0  0  0  0  0
   12.6115  -18.9213   23.9407 N   0  0  0  0  0  0  0  0  0  0  0  0
    9.9830  -17.9301   28.0885 C   0  0  0  0  0  0  0  0  0  0  0  0
    9.8120  -19.0283   28.6559 O   0  0  0  0  0  0  0  0  0  0  0  0
    9.9424  -16.7916   28.8933 O   0  0  0  0  0  0  0  0  0  0  0  0
  1  2  1  0
  3  4  1  0
  3  2  1  0
  4  5  1  0
  5  6  1  6
  5  7  1  0
  7  8  2  0
  9 10  1  0
 11 10  1  0
 11 12  1  1
 13 11  1  0
 14  7  1  0
 13 14  1  6
 15 13  1  0
 15 16  2  0
 17 15  1  0
 18 17  1  0
 18 19  1  1
 20 19  1  0
 21 20  2  0
 22 23  1  0
 22 21  1  0
 23 24  2  0
 24 20  1  0
 25 18  1  0
 26 25  2  0
 27 25  1  0
M  END
$$$$
