MIH.pdb
     RDKit          3D

 27 27  0  0  1  0  0  0  0  0999 V2000
    7.2780  -10.6595   26.4637 C   0  0  0  0  0  0  0  0  0  0  0  0
    6.6899  -11.9295   27.5497 S   0  0  0  0  0  0  0  0  0  0  0  0
    6.0750  -13.4246   26.8319 C   0  0  0  0  0  0  0  0  0  0  0  0
    6.9390  -14.1003   25.8400 C   0  0  0  0  0  0  0  0  0  0  0  0
    6.3616  -15.2720   25.1448 C   0  0  2  0  0  0  0  0  0  0  0  0
    5.9677  -16.3582   25.9743 N   0  0  0  0  0  0  0  0  0  0  0  0
    7.2772  -15.7566   24.0646 C   0  0  0  0  0  0  0  0  0  0  0  0
    7.6878  -16.9268   24.0991 O   0  0  0  0  0  0  0  0  0  0  0  0
    7.0502  -12.8135   19.7838 C   0  0  0  0  0  0  0  0  0  0  0  0
    7.2007  -14.1545   20.4150 C   0  0  0  0  0  0  0  0  0  0  0  0
    8.6412  -14.4529   20.8329 C   0  0  2  0  0  0  0  0  0  0  0  0
    9.2860  -15.0312   19.6009 C   0  0  0  0  0  0  0  0  0  0  0  0
    8.5995  -15.4571   21.9544 C   0  0  2  0  0  0  0  0  0  0  0  0
    7.6941  -14.9377   23.0067 N   0  0  0  0  0  0  0  0  0  0  0  0
    9.9240  -15.7372   22.5657 C   0  0  0  0  0  0  0  0  0  0  0  0
   10.4370  -14.8060   23.2932 O   0  0  0  0  0  0  0  0  0  0  0  0
   10.6857  -16.9090   22.4435 N   0  0  0  0  0  0  0  0  0  0  0  0
   11.9740  -17.0930   23.1119 C   0  0  1  0  0  0  0  0  0  0  0  0
   12.1246  -18.4322   23.7180 C   0  0  0  0  0  0  0  0  0  0  0  0
   11.1804  -18.6201   24.8368 C   0  0  0  0  0  0  0  0  0  0  0  0
   10.6518  -17.6894   25.7155 C   0  0  0  0  0  0  0  0  0  0  0  0
    9.8448  -18.2543   26.6111 N   0  0  0  0  0  0  0  0  0  0  0  0
    9.8435  -19.5716   26.3170 C   0  0  0  0  0  0  0  0  0  0  0  0
   10.6339  -19.7992   25.2645 N   0  0  0  0  0  0  0  0  0  0  0  0
   13.0720  -16.6930   22.2101 C   0  0  0  0  0  0  0  0  0  0  0  0
   14.2452  -16.6440   22.6322 O   0  0  0  0  0  0  0  0  0  0  0  0
   12.8689  -16.3561   20.8719 O   0  0  0  0  0  0  0  0  0  0  0  0
  1  2  1  0
  3  4  1  0
  3  2  1  0
  4  5  1  0
  5  6  1  1
  5  7  1  0
  7  8  2  0
  9 10  1  0
 11 10  1  0
 11 12  1  6
 13 11  1  0
 14  7  1  0
 13 14  1  1
 15 13  1  0
 15 16  2  0
 17 15  1  0
 18 17  1  0
 18 19  1  6
 20 19  1  0
 21 20  2  0
 22 23  1  0
 22 21  1  0
 23 24  2  0
 24 20  1  0
 25 18  1  0
 26 25  2  0
 27 25  1  0
M  END
$$$$
