MIH.pdb
     RDKit          3D

 27 27  0  0  1  0  0  0  0  0999 V2000
    5.1074  -20.5297   23.9522 C   0  0  0  0  0  0  0  0  0  0  0  0
    6.4404  -20.4445   22.7885 S   0  0  0  0  0  0  0  0  0  0  0  0
    6.8614  -18.8645   22.1139 C   0  0  0  0  0  0  0  0  0  0  0  0
    6.2553  -17.6765   22.7528 C   0  0  0  0  0  0  0  0  0  0  0  0
    6.5590  -16.3647   22.1392 C   0  0  2  0  0  0  0  0  0  0  0  0
    7.0697  -16.3996   20.8121 N   0  0  0  0  0  0  0  0  0  0  0  0
    7.4666  -15.5617   23.0176 C   0  0  0  0  0  0  0  0  0  0  0  0
    8.6641  -15.4530   22.7121 O   0  0  0  0  0  0  0  0  0  0  0  0
    5.2953  -11.6740   26.1393 C   0  0  0  0  0  0  0  0  0  0  0  0
    6.2733  -12.3818   25.2664 C   0  0  0  0  0  0  0  0  0  0  0  0
    7.1434  -13.3751   26.0377 C   0  0  2  0  0  0  0  0  0  0  0  0
    8.0234  -12.5183   26.9090 C   0  0  0  0  0  0  0  0  0  0  0  0
    7.9537  -14.1557   25.0367 C   0  0  2  0  0  0  0  0  0  0  0  0
    7.0173  -14.9218   24.1805 N   0  0  0  0  0  0  0  0  0  0  0  0
    8.9200  -15.1040   25.6477 C   0  0  0  0  0  0  0  0  0  0  0  0
    8.4531  -16.2402   26.0356 O   0  0  0  0  0  0  0  0  0  0  0  0
   10.2939  -14.9047   25.8502 N   0  0  0  0  0  0  0  0  0  0  0  0
   11.0419  -15.5576   26.9247 C   0  0  1  0  0  0  0  0  0  0  0  0
   10.3981  -15.4143   28.2470 C   0  0  0  0  0  0  0  0  0  0  0  0
   10.9106  -16.4173   29.2008 C   0  0  0  0  0  0  0  0  0  0  0  0
   11.8819  -17.3890   29.0277 C   0  0  0  0  0  0  0  0  0  0  0  0
   12.0508  -18.1235   30.1252 N   0  0  0  0  0  0  0  0  0  0  0  0
   11.1800  -17.6281   31.0297 C   0  0  0  0  0  0  0  0  0  0  0  0
   10.4978  -16.6142   30.4903 N   0  0  0  0  0  0  0  0  0  0  0  0
   11.3693  -16.9448   26.5410 C   0  0  0  0  0  0  0  0  0  0  0  0
   12.3339  -17.5323   27.0715 O   0  0  0  0  0  0  0  0  0  0  0  0
   10.6410  -17.6600   25.5905 O   0  0  0  0  0  0  0  0  0  0  0  0
  1  2  1  0
  3  4  1  0
  3  2  1  0
  4  5  1  0
  5  6  1  6
  5  7  1  0
  7  8  2  0
  9 10  1  0
 11 10  1  0
 11 12  1  1
 13 11  1  0
 14  7  1  0
 13 14  1  6
 15 13  1  0
 15 16  2  0
 17 15  1  0
 18 17  1  0
 18 19  1  1
 20 19  1  0
 21 20  2  0
 22 23  1  0
 22 21  1  0
 23 24  2  0
 24 20  1  0
 25 18  1  0
 26 25  2  0
 27 25  1  0
M  END
$$$$
