MIH.pdb
     RDKit          3D

 27 27  0  0  1  0  0  0  0  0999 V2000
    8.5757  -11.3873   19.9699 C   0  0  0  0  0  0  0  0  0  0  0  0
    7.1645  -12.4488   19.8294 S   0  0  0  0  0  0  0  0  0  0  0  0
    7.4397  -14.1695   19.5257 C   0  0  0  0  0  0  0  0  0  0  0  0
    8.4505  -14.8481   20.3652 C   0  0  0  0  0  0  0  0  0  0  0  0
    7.9393  -15.7170   21.4484 C   0  0  2  0  0  0  0  0  0  0  0  0
    6.5244  -15.8185   21.5520 N   0  0  0  0  0  0  0  0  0  0  0  0
    8.5239  -15.3240   22.7690 C   0  0  0  0  0  0  0  0  0  0  0  0
    9.7252  -15.0204   22.8328 O   0  0  0  0  0  0  0  0  0  0  0  0
    5.7316  -12.2727   26.0351 C   0  0  0  0  0  0  0  0  0  0  0  0
    6.8485  -12.9672   25.3354 C   0  0  0  0  0  0  0  0  0  0  0  0
    7.3209  -14.2200   26.0745 C   0  0  2  0  0  0  0  0  0  0  0  0
    7.8886  -13.7085   27.3722 C   0  0  0  0  0  0  0  0  0  0  0  0
    8.3807  -14.8817   25.2337 C   0  0  2  0  0  0  0  0  0  0  0  0
    7.7655  -15.2839   23.9466 N   0  0  0  0  0  0  0  0  0  0  0  0
    8.9905  -16.0815   25.8623 C   0  0  0  0  0  0  0  0  0  0  0  0
    8.1985  -17.0596   26.1370 O   0  0  0  0  0  0  0  0  0  0  0  0
   10.3404  -16.2751   26.1914 N   0  0  0  0  0  0  0  0  0  0  0  0
   10.8265  -17.4687   26.8837 C   0  0  1  0  0  0  0  0  0  0  0  0
   12.1215  -17.9526   26.3616 C   0  0  0  0  0  0  0  0  0  0  0  0
   12.0143  -18.3325   24.9394 C   0  0  0  0  0  0  0  0  0  0  0  0
   10.8911  -18.6141   24.1801 C   0  0  0  0  0  0  0  0  0  0  0  0
   11.2067  -18.9424   22.9291 N   0  0  0  0  0  0  0  0  0  0  0  0
   12.5534  -18.8755   22.8663 C   0  0  0  0  0  0  0  0  0  0  0  0
   13.0426  -18.5139   24.0555 N   0  0  0  0  0  0  0  0  0  0  0  0
   10.7865  -17.2566   28.3439 C   0  0  0  0  0  0  0  0  0  0  0  0
   10.6407  -16.1075   28.8080 O   0  0  0  0  0  0  0  0  0  0  0  0
   10.9057  -18.2978   29.2644 O   0  0  0  0  0  0  0  0  0  0  0  0
  1  2  1  0
  3  4  1  0
  3  2  1  0
  4  5  1  0
  5  6  1  1
  5  7  1  0
  7  8  2  0
  9 10  1  0
 11 10  1  0
 11 12  1  1
 13 11  1  0
 14  7  1  0
 13 14  1  6
 15 13  1  0
 15 16  2  0
 17 15  1  0
 18 17  1  0
 18 19  1  6
 20 19  1  0
 21 20  2  0
 22 23  1  0
 22 21  1  0
 23 24  2  0
 24 20  1  0
 25 18  1  0
 26 25  2  0
 27 25  1  0
M  END
$$$$
