MIH.pdb
     RDKit          3D

 27 27  0  0  1  0  0  0  0  0999 V2000
    8.4907  -21.8798   17.9624 C   0  0  0  0  0  0  0  0  0  0  0  0
    9.8886  -21.4252   16.9740 S   0  0  0  0  0  0  0  0  0  0  0  0
   10.1791  -19.7057   16.6775 C   0  0  0  0  0  0  0  0  0  0  0  0
    9.9630  -18.7812   17.8112 C   0  0  0  0  0  0  0  0  0  0  0  0
   10.1231  -17.3371   17.5306 C   0  0  2  0  0  0  0  0  0  0  0  0
   11.2228  -16.9805   16.7019 N   0  0  0  0  0  0  0  0  0  0  0  0
   10.1603  -16.5471   18.8012 C   0  0  0  0  0  0  0  0  0  0  0  0
   11.2508  -16.3480   19.3583 O   0  0  0  0  0  0  0  0  0  0  0  0
    6.8230  -12.4341   19.7844 C   0  0  0  0  0  0  0  0  0  0  0  0
    8.0062  -13.3387   19.8169 C   0  0  0  0  0  0  0  0  0  0  0  0
    7.8672  -14.4569   20.8508 C   0  0  2  0  0  0  0  0  0  0  0  0
    7.8537  -13.7503   22.1806 C   0  0  0  0  0  0  0  0  0  0  0  0
    9.0654  -15.3599   20.7202 C   0  0  2  0  0  0  0  0  0  0  0  0
    9.0058  -16.0183   19.3936 N   0  0  0  0  0  0  0  0  0  0  0  0
    9.1484  -16.4107   21.7668 C   0  0  0  0  0  0  0  0  0  0  0  0
    8.8015  -17.6025   21.4225 O   0  0  0  0  0  0  0  0  0  0  0  0
    9.5668  -16.2544   23.0967 N   0  0  0  0  0  0  0  0  0  0  0  0
   10.7102  -16.9724   23.6599 C   0  0  1  0  0  0  0  0  0  0  0  0
   11.8888  -16.9722   22.7686 C   0  0  0  0  0  0  0  0  0  0  0  0
   12.0561  -18.2804   22.1060 C   0  0  0  0  0  0  0  0  0  0  0  0
   11.3115  -19.4407   22.2357 C   0  0  0  0  0  0  0  0  0  0  0  0
   11.7931  -20.4269   21.4823 N   0  0  0  0  0  0  0  0  0  0  0  0
   12.8669  -19.9079   20.8501 C   0  0  0  0  0  0  0  0  0  0  0  0
   13.0315  -18.6333   21.2139 N   0  0  0  0  0  0  0  0  0  0  0  0
   10.9722  -16.5046   25.0352 C   0  0  0  0  0  0  0  0  0  0  0  0
   11.7966  -17.1030   25.7559 O   0  0  0  0  0  0  0  0  0  0  0  0
   10.3325  -15.3983   25.5940 O   0  0  0  0  0  0  0  0  0  0  0  0
  1  2  1  0
  3  4  1  0
  3  2  1  0
  4  5  1  0
  5  6  1  1
  5  7  1  0
  7  8  2  0
  9 10  1  0
 11 10  1  0
 11 12  1  1
 13 11  1  0
 14  7  1  0
 13 14  1  6
 15 13  1  0
 15 16  2  0
 17 15  1  0
 18 17  1  0
 18 19  1  6
 20 19  1  0
 21 20  2  0
 22 23  1  0
 22 21  1  0
 23 24  2  0
 24 20  1  0
 25 18  1  0
 26 25  2  0
 27 25  1  0
M  END
$$$$
