MIH.pdb
     RDKit          3D

 27 27  0  0  1  0  0  0  0  0999 V2000
    7.5693  -11.6826   18.9771 C   0  0  0  0  0  0  0  0  0  0  0  0
    6.8239  -13.2719   18.7391 S   0  0  0  0  0  0  0  0  0  0  0  0
    7.0342  -14.4915   20.0028 C   0  0  0  0  0  0  0  0  0  0  0  0
    8.3557  -14.5555   20.6635 C   0  0  0  0  0  0  0  0  0  0  0  0
    8.4851  -15.4933   21.8007 C   0  0  2  0  0  0  0  0  0  0  0  0
    7.3253  -16.2530   22.1183 N   0  0  0  0  0  0  0  0  0  0  0  0
    8.9861  -14.7866   23.0212 C   0  0  0  0  0  0  0  0  0  0  0  0
   10.1276  -14.3009   23.0135 O   0  0  0  0  0  0  0  0  0  0  0  0
    5.4971  -12.2719   26.3996 C   0  0  0  0  0  0  0  0  0  0  0  0
    6.7502  -12.5538   25.6449 C   0  0  0  0  0  0  0  0  0  0  0  0
    7.6006  -13.6446   26.2973 C   0  0  2  0  0  0  0  0  0  0  0  0
    8.0793  -13.0365   27.5891 C   0  0  0  0  0  0  0  0  0  0  0  0
    8.7506  -13.9497   25.3739 C   0  0  2  0  0  0  0  0  0  0  0  0
    8.2138  -14.6489   24.1824 N   0  0  0  0  0  0  0  0  0  0  0  0
    9.8080  -14.7964   25.9832 C   0  0  0  0  0  0  0  0  0  0  0  0
   10.3997  -14.3264   27.0265 O   0  0  0  0  0  0  0  0  0  0  0  0
   10.2384  -16.0601   25.5520 N   0  0  0  0  0  0  0  0  0  0  0  0
   10.4420  -17.1849   26.4650 C   0  0  1  0  0  0  0  0  0  0  0  0
    9.1781  -17.7252   27.0073 C   0  0  0  0  0  0  0  0  0  0  0  0
    9.4277  -18.8853   27.8851 C   0  0  0  0  0  0  0  0  0  0  0  0
   10.6263  -19.4513   28.2857 C   0  0  0  0  0  0  0  0  0  0  0  0
   10.4379  -20.5113   29.0688 N   0  0  0  0  0  0  0  0  0  0  0  0
    9.0994  -20.6429   29.1838 C   0  0  0  0  0  0  0  0  0  0  0  0
    8.4903  -19.6817   28.4843 N   0  0  0  0  0  0  0  0  0  0  0  0
   11.3283  -18.1870   25.8414 C   0  0  0  0  0  0  0  0  0  0  0  0
   11.3862  -18.2879   24.5989 O   0  0  0  0  0  0  0  0  0  0  0  0
   12.1301  -19.0552   26.5824 O   0  0  0  0  0  0  0  0  0  0  0  0
  1  2  1  0
  3  4  1  0
  3  2  1  0
  4  5  1  0
  5  6  1  1
  5  7  1  0
  7  8  2  0
  9 10  1  0
 11 10  1  0
 11 12  1  1
 13 11  1  0
 14  7  1  0
 13 14  1  6
 15 13  1  0
 15 16  2  0
 17 15  1  0
 18 17  1  0
 18 19  1  6
 20 19  1  0
 21 20  2  0
 22 23  1  0
 22 21  1  0
 23 24  2  0
 24 20  1  0
 25 18  1  0
 26 25  2  0
 27 25  1  0
M  END
$$$$
