MIH.pdb
     RDKit          3D

 27 27  0  0  1  0  0  0  0  0999 V2000
    2.1276  -18.6157   19.2024 C   0  0  0  0  0  0  0  0  0  0  0  0
    1.7520  -19.2140   20.8269 S   0  0  0  0  0  0  0  0  0  0  0  0
    2.9800  -19.0370   22.0876 C   0  0  0  0  0  0  0  0  0  0  0  0
    4.3779  -18.8480   21.6439 C   0  0  0  0  0  0  0  0  0  0  0  0
    5.4095  -18.7933   22.7034 C   0  0  2  0  0  0  0  0  0  0  0  0
    4.9741  -18.3280   23.9750 N   0  0  0  0  0  0  0  0  0  0  0  0
    6.6001  -18.0081   22.2494 C   0  0  0  0  0  0  0  0  0  0  0  0
    7.3070  -18.4560   21.3336 O   0  0  0  0  0  0  0  0  0  0  0  0
    6.4934  -13.1139   20.7289 C   0  0  0  0  0  0  0  0  0  0  0  0
    6.9857  -14.5011   20.9582 C   0  0  0  0  0  0  0  0  0  0  0  0
    7.8601  -14.6192   22.2073 C   0  0  2  0  0  0  0  0  0  0  0  0
    9.0925  -13.8138   21.8904 C   0  0  0  0  0  0  0  0  0  0  0  0
    8.1906  -16.0750   22.4054 C   0  0  2  0  0  0  0  0  0  0  0  0
    6.9532  -16.7779   22.8198 N   0  0  0  0  0  0  0  0  0  0  0  0
    9.2408  -16.3240   23.4260 C   0  0  0  0  0  0  0  0  0  0  0  0
    8.8390  -16.6471   24.6065 O   0  0  0  0  0  0  0  0  0  0  0  0
   10.6308  -16.2499   23.2507 N   0  0  0  0  0  0  0  0  0  0  0  0
   11.5750  -17.0382   24.0427 C   0  0  1  0  0  0  0  0  0  0  0  0
   11.2250  -18.4727   24.0998 C   0  0  0  0  0  0  0  0  0  0  0  0
   10.6115  -18.8204   25.3964 C   0  0  0  0  0  0  0  0  0  0  0  0
   10.4383  -18.0452   26.5307 C   0  0  0  0  0  0  0  0  0  0  0  0
    9.8580  -18.7280   27.5152 N   0  0  0  0  0  0  0  0  0  0  0  0
    9.6477  -19.9665   27.0215 C   0  0  0  0  0  0  0  0  0  0  0  0
   10.0918  -20.0316   25.7634 N   0  0  0  0  0  0  0  0  0  0  0  0
   12.9573  -16.7534   23.6104 C   0  0  0  0  0  0  0  0  0  0  0  0
   13.2219  -16.6230   22.3979 O   0  0  0  0  0  0  0  0  0  0  0  0
   14.0183  -16.6173   24.5054 O   0  0  0  0  0  0  0  0  0  0  0  0
  1  2  1  0
  3  4  1  0
  3  2  1  0
  4  5  1  0
  5  6  1  1
  5  7  1  0
  7  8  2  0
  9 10  1  0
 11 10  1  0
 11 12  1  6
 13 11  1  0
 14  7  1  0
 13 14  1  1
 15 13  1  0
 15 16  2  0
 17 15  1  0
 18 17  1  0
 18 19  1  6
 20 19  1  0
 21 20  2  0
 22 23  1  0
 22 21  1  0
 23 24  2  0
 24 20  1  0
 25 18  1  0
 26 25  2  0
 27 25  1  0
M  END
$$$$
