MIH.pdb
     RDKit          3D

 27 27  0  0  1  0  0  0  0  0999 V2000
    5.5000  -20.5120   22.2918 C   0  0  0  0  0  0  0  0  0  0  0  0
    4.3035  -19.2700   21.8870 S   0  0  0  0  0  0  0  0  0  0  0  0
    4.8844  -17.6460   21.4948 C   0  0  0  0  0  0  0  0  0  0  0  0
    5.9675  -17.0964   22.3384 C   0  0  0  0  0  0  0  0  0  0  0  0
    6.3888  -15.7062   22.0563 C   0  0  2  0  0  0  0  0  0  0  0  0
    6.8592  -15.4519   20.7383 N   0  0  0  0  0  0  0  0  0  0  0  0
    7.3961  -15.2394   23.0600 C   0  0  0  0  0  0  0  0  0  0  0  0
    8.5980  -15.2311   22.7523 O   0  0  0  0  0  0  0  0  0  0  0  0
    6.0344  -11.5365   26.7032 C   0  0  0  0  0  0  0  0  0  0  0  0
    6.8957  -12.3290   25.7816 C   0  0  0  0  0  0  0  0  0  0  0  0
    7.4123  -13.6198   26.4185 C   0  0  2  0  0  0  0  0  0  0  0  0
    8.4110  -13.1655   27.4501 C   0  0  0  0  0  0  0  0  0  0  0  0
    8.0705  -14.4378   25.3390 C   0  0  2  0  0  0  0  0  0  0  0  0
    7.0363  -14.8075   24.3436 N   0  0  0  0  0  0  0  0  0  0  0  0
    8.7189  -15.6802   25.8313 C   0  0  0  0  0  0  0  0  0  0  0  0
    7.9419  -16.5964   26.2965 O   0  0  0  0  0  0  0  0  0  0  0  0
   10.0905  -15.9746   25.8459 N   0  0  0  0  0  0  0  0  0  0  0  0
   10.6224  -17.2630   26.2904 C   0  0  1  0  0  0  0  0  0  0  0  0
   11.9216  -17.5968   25.6706 C   0  0  0  0  0  0  0  0  0  0  0  0
   11.8030  -17.6917   24.2024 C   0  0  0  0  0  0  0  0  0  0  0  0
   10.6724  -17.8016   23.4104 C   0  0  0  0  0  0  0  0  0  0  0  0
   10.9780  -17.8863   22.1174 N   0  0  0  0  0  0  0  0  0  0  0  0
   12.3255  -17.8314   22.0598 C   0  0  0  0  0  0  0  0  0  0  0  0
   12.8250  -17.7157   23.2932 N   0  0  0  0  0  0  0  0  0  0  0  0
   10.6010  -17.3363   27.7645 C   0  0  0  0  0  0  0  0  0  0  0  0
   10.3375  -16.3208   28.4402 O   0  0  0  0  0  0  0  0  0  0  0  0
   10.8664  -18.5107   28.4686 O   0  0  0  0  0  0  0  0  0  0  0  0
  1  2  1  0
  3  4  1  0
  3  2  1  0
  4  5  1  0
  5  6  1  6
  5  7  1  0
  7  8  2  0
  9 10  1  0
 11 10  1  0
 11 12  1  1
 13 11  1  0
 14  7  1  0
 13 14  1  6
 15 13  1  0
 15 16  2  0
 17 15  1  0
 18 17  1  0
 18 19  1  1
 20 19  1  0
 21 20  2  0
 22 23  1  0
 22 21  1  0
 23 24  2  0
 24 20  1  0
 25 18  1  0
 26 25  2  0
 27 25  1  0
M  END
$$$$
