MIH.pdb
     RDKit          3D

 27 27  0  0  1  0  0  0  0  0999 V2000
    6.7072  -21.0809   24.5815 C   0  0  0  0  0  0  0  0  0  0  0  0
    5.4436  -20.7788   23.3773 S   0  0  0  0  0  0  0  0  0  0  0  0
    5.3134  -19.1533   22.6920 C   0  0  0  0  0  0  0  0  0  0  0  0
    6.5609  -18.3668   22.5827 C   0  0  0  0  0  0  0  0  0  0  0  0
    6.4250  -16.9656   22.1270 C   0  0  2  0  0  0  0  0  0  0  0  0
    6.5921  -16.7440   20.7320 N   0  0  0  0  0  0  0  0  0  0  0  0
    7.3313  -16.0616   22.9027 C   0  0  0  0  0  0  0  0  0  0  0  0
    8.4679  -15.8242   22.4657 O   0  0  0  0  0  0  0  0  0  0  0  0
    7.4340  -11.6862   27.2412 C   0  0  0  0  0  0  0  0  0  0  0  0
    8.1032  -12.7525   26.4447 C   0  0  0  0  0  0  0  0  0  0  0  0
    7.1124  -13.6175   25.6645 C   0  0  2  0  0  0  0  0  0  0  0  0
    6.2571  -14.2678   26.7197 C   0  0  0  0  0  0  0  0  0  0  0  0
    7.9007  -14.6398   24.8889 C   0  0  2  0  0  0  0  0  0  0  0  0
    6.9472  -15.4668   24.1119 N   0  0  0  0  0  0  0  0  0  0  0  0
    8.7254  -15.5386   25.7364 C   0  0  0  0  0  0  0  0  0  0  0  0
    8.0941  -16.4070   26.4484 O   0  0  0  0  0  0  0  0  0  0  0  0
   10.1236  -15.5531   25.8500 N   0  0  0  0  0  0  0  0  0  0  0  0
   10.8510  -16.5899   26.5823 C   0  0  1  0  0  0  0  0  0  0  0  0
   12.2146  -16.8174   26.0605 C   0  0  0  0  0  0  0  0  0  0  0  0
   12.1874  -17.1389   24.6202 C   0  0  0  0  0  0  0  0  0  0  0  0
   11.2626  -17.8694   23.8931 C   0  0  0  0  0  0  0  0  0  0  0  0
   11.5997  -17.9590   22.6083 N   0  0  0  0  0  0  0  0  0  0  0  0
   12.7598  -17.2792   22.4904 C   0  0  0  0  0  0  0  0  0  0  0  0
   13.1174  -16.7881   23.6801 N   0  0  0  0  0  0  0  0  0  0  0  0
   10.7774  -16.3287   28.0332 C   0  0  0  0  0  0  0  0  0  0  0  0
   10.3510  -15.2339   28.4537 O   0  0  0  0  0  0  0  0  0  0  0  0
   11.1688  -17.2630   28.9921 O   0  0  0  0  0  0  0  0  0  0  0  0
  1  2  1  0
  3  4  1  0
  3  2  1  0
  4  5  1  0
  5  6  1  6
  5  7  1  0
  7  8  2  0
  9 10  1  0
 11 10  1  0
 11 12  1  1
 13 11  1  0
 14  7  1  0
 13 14  1  1
 15 13  1  0
 15 16  2  0
 17 15  1  0
 18 17  1  0
 18 19  1  6
 20 19  1  0
 21 20  2  0
 22 23  1  0
 22 21  1  0
 23 24  2  0
 24 20  1  0
 25 18  1  0
 26 25  2  0
 27 25  1  0
M  END
$$$$
