MIH.pdb
     RDKit          3D

 27 27  0  0  1  0  0  0  0  0999 V2000
    4.3652  -19.3390   22.5884 C   0  0  0  0  0  0  0  0  0  0  0  0
    4.5750  -18.7865   20.9184 S   0  0  0  0  0  0  0  0  0  0  0  0
    5.5311  -17.3257   20.6350 C   0  0  0  0  0  0  0  0  0  0  0  0
    6.3124  -16.8006   21.7755 C   0  0  0  0  0  0  0  0  0  0  0  0
    7.0142  -15.5152   21.5643 C   0  0  2  0  0  0  0  0  0  0  0  0
    7.7849  -15.4132   20.3732 N   0  0  0  0  0  0  0  0  0  0  0  0
    7.8554  -15.1646   22.7516 C   0  0  0  0  0  0  0  0  0  0  0  0
    9.0600  -15.4610   22.7485 O   0  0  0  0  0  0  0  0  0  0  0  0
    6.3134  -11.2717   26.0140 C   0  0  0  0  0  0  0  0  0  0  0  0
    7.2275  -12.2247   25.3247 C   0  0  0  0  0  0  0  0  0  0  0  0
    7.4012  -13.5367   26.0912 C   0  0  2  0  0  0  0  0  0  0  0  0
    8.2945  -13.1873   27.2521 C   0  0  0  0  0  0  0  0  0  0  0  0
    8.0605  -14.5281   25.1690 C   0  0  2  0  0  0  0  0  0  0  0  0
    7.3355  -14.5102   23.8763 N   0  0  0  0  0  0  0  0  0  0  0  0
    8.0722  -15.9206   25.6858 C   0  0  0  0  0  0  0  0  0  0  0  0
    7.4373  -16.8026   24.9942 O   0  0  0  0  0  0  0  0  0  0  0  0
    8.7020  -16.3905   26.8480 N   0  0  0  0  0  0  0  0  0  0  0  0
    9.7977  -17.3594   26.8221 C   0  0  1  0  0  0  0  0  0  0  0  0
   10.8666  -16.9978   25.8679 C   0  0  0  0  0  0  0  0  0  0  0  0
   10.7246  -17.7423   24.6013 C   0  0  0  0  0  0  0  0  0  0  0  0
    9.7694  -18.6702   24.2217 C   0  0  0  0  0  0  0  0  0  0  0  0
    9.9944  -19.1422   22.9973 N   0  0  0  0  0  0  0  0  0  0  0  0
   11.1107  -18.5165   22.5679 C   0  0  0  0  0  0  0  0  0  0  0  0
   11.5522  -17.6828   23.5136 N   0  0  0  0  0  0  0  0  0  0  0  0
   10.2602  -17.6353   28.1964 C   0  0  0  0  0  0  0  0  0  0  0  0
   10.4616  -18.8095   28.5676 O   0  0  0  0  0  0  0  0  0  0  0  0
   10.4925  -16.6291   29.1340 O   0  0  0  0  0  0  0  0  0  0  0  0
  1  2  1  0
  3  4  1  0
  3  2  1  0
  4  5  1  0
  5  6  1  6
  5  7  1  0
  7  8  2  0
  9 10  1  0
 11 10  1  0
 11 12  1  1
 13 11  1  0
 14  7  1  0
 13 14  1  6
 15 13  1  0
 15 16  2  0
 17 15  1  0
 18 17  1  0
 18 19  1  6
 20 19  1  0
 21 20  2  0
 22 23  1  0
 22 21  1  0
 23 24  2  0
 24 20  1  0
 25 18  1  0
 26 25  2  0
 27 25  1  0
M  END
$$$$
