MIH.pdb
     RDKit          3D

 27 27  0  0  1  0  0  0  0  0999 V2000
    5.2566  -20.8481   24.4506 C   0  0  0  0  0  0  0  0  0  0  0  0
    4.7606  -20.4098   22.8075 S   0  0  0  0  0  0  0  0  0  0  0  0
    5.4309  -18.9351   22.0972 C   0  0  0  0  0  0  0  0  0  0  0  0
    6.3141  -18.1159   22.9550 C   0  0  0  0  0  0  0  0  0  0  0  0
    6.7183  -16.7956   22.4231 C   0  0  2  0  0  0  0  0  0  0  0  0
    7.2588  -16.7916   21.1074 N   0  0  0  0  0  0  0  0  0  0  0  0
    7.6541  -16.1043   23.3647 C   0  0  0  0  0  0  0  0  0  0  0  0
    8.8596  -16.0372   23.0793 O   0  0  0  0  0  0  0  0  0  0  0  0
    6.0702  -11.9376   26.3021 C   0  0  0  0  0  0  0  0  0  0  0  0
    6.9679  -12.8690   25.5633 C   0  0  0  0  0  0  0  0  0  0  0  0
    7.4813  -14.0136   26.4381 C   0  0  2  0  0  0  0  0  0  0  0  0
    8.4282  -13.3591   27.4092 C   0  0  0  0  0  0  0  0  0  0  0  0
    8.1983  -14.9924   25.5461 C   0  0  2  0  0  0  0  0  0  0  0  0
    7.2228  -15.5247   24.5654 N   0  0  0  0  0  0  0  0  0  0  0  0
    8.8120  -16.1346   26.2708 C   0  0  0  0  0  0  0  0  0  0  0  0
    8.0086  -16.9311   26.8870 O   0  0  0  0  0  0  0  0  0  0  0  0
   10.1760  -16.4503   26.3603 N   0  0  0  0  0  0  0  0  0  0  0  0
   10.6687  -17.6762   26.9883 C   0  0  1  0  0  0  0  0  0  0  0  0
   11.9452  -18.1480   26.4124 C   0  0  0  0  0  0  0  0  0  0  0  0
   11.8189  -18.3879   24.9615 C   0  0  0  0  0  0  0  0  0  0  0  0
   10.7203  -18.7952   24.2234 C   0  0  0  0  0  0  0  0  0  0  0  0
   11.0102  -18.9227   22.9303 N   0  0  0  0  0  0  0  0  0  0  0  0
   12.3148  -18.5951   22.8180 C   0  0  0  0  0  0  0  0  0  0  0  0
   12.8044  -18.2759   24.0191 N   0  0  0  0  0  0  0  0  0  0  0  0
   10.6684  -17.5263   28.4568 C   0  0  0  0  0  0  0  0  0  0  0  0
   10.5645  -16.3949   28.9727 O   0  0  0  0  0  0  0  0  0  0  0  0
   10.7808  -18.6090   29.3289 O   0  0  0  0  0  0  0  0  0  0  0  0
  1  2  1  0
  3  4  1  0
  3  2  1  0
  4  5  1  0
  5  6  1  6
  5  7  1  0
  7  8  2  0
  9 10  1  0
 11 10  1  0
 11 12  1  1
 13 11  1  0
 14  7  1  0
 13 14  1  6
 15 13  1  0
 15 16  2  0
 17 15  1  0
 18 17  1  0
 18 19  1  6
 20 19  1  0
 21 20  2  0
 22 23  1  0
 22 21  1  0
 23 24  2  0
 24 20  1  0
 25 18  1  0
 26 25  2  0
 27 25  1  0
M  END
$$$$
