MIH.pdb
     RDKit          3D

 27 27  0  0  1  0  0  0  0  0999 V2000
    7.8201  -11.1420   27.5559 C   0  0  0  0  0  0  0  0  0  0  0  0
    6.1009  -11.5314   27.3810 S   0  0  0  0  0  0  0  0  0  0  0  0
    5.6648  -13.1175   26.7308 C   0  0  0  0  0  0  0  0  0  0  0  0
    6.6611  -13.7885   25.8682 C   0  0  0  0  0  0  0  0  0  0  0  0
    6.2393  -15.0531   25.2260 C   0  0  2  0  0  0  0  0  0  0  0  0
    5.8033  -16.0838   26.1039 N   0  0  0  0  0  0  0  0  0  0  0  0
    7.3080  -15.5721   24.3156 C   0  0  0  0  0  0  0  0  0  0  0  0
    7.7732  -16.7052   24.5127 O   0  0  0  0  0  0  0  0  0  0  0  0
    7.4093  -12.9369   19.8971 C   0  0  0  0  0  0  0  0  0  0  0  0
    7.5505  -14.2591   20.5690 C   0  0  0  0  0  0  0  0  0  0  0  0
    8.9528  -14.4882   21.1344 C   0  0  2  0  0  0  0  0  0  0  0  0
    9.7139  -15.1499   20.0161 C   0  0  0  0  0  0  0  0  0  0  0  0
    8.8279  -15.3979   22.3281 C   0  0  2  0  0  0  0  0  0  0  0  0
    7.8098  -14.8260   23.2409 N   0  0  0  0  0  0  0  0  0  0  0  0
   10.0929  -15.5806   23.0849 C   0  0  0  0  0  0  0  0  0  0  0  0
   10.6936  -14.5116   23.4797 O   0  0  0  0  0  0  0  0  0  0  0  0
   10.7126  -16.7926   23.4246 N   0  0  0  0  0  0  0  0  0  0  0  0
   12.0554  -16.8647   24.0005 C   0  0  1  0  0  0  0  0  0  0  0  0
   12.1043  -17.6401   25.2575 C   0  0  0  0  0  0  0  0  0  0  0  0
   11.5253  -16.8746   26.3788 C   0  0  0  0  0  0  0  0  0  0  0  0
   10.9436  -15.6180   26.3864 C   0  0  0  0  0  0  0  0  0  0  0  0
   10.5574  -15.2568   27.6082 N   0  0  0  0  0  0  0  0  0  0  0  0
   10.8895  -16.2887   28.4125 C   0  0  0  0  0  0  0  0  0  0  0  0
   11.4651  -17.2548   27.6917 N   0  0  0  0  0  0  0  0  0  0  0  0
   13.0239  -17.2901   22.9711 C   0  0  0  0  0  0  0  0  0  0  0  0
   12.6278  -17.8533   21.9304 O   0  0  0  0  0  0  0  0  0  0  0  0
   14.3990  -17.0934   23.0970 O   0  0  0  0  0  0  0  0  0  0  0  0
  1  2  1  0
  3  4  1  0
  3  2  1  0
  4  5  1  0
  5  6  1  1
  5  7  1  0
  7  8  2  0
  9 10  1  0
 11 10  1  0
 11 12  1  6
 13 11  1  0
 14  7  1  0
 13 14  1  1
 15 13  1  0
 15 16  2  0
 17 15  1  0
 18 17  1  0
 18 19  1  1
 20 19  1  0
 21 20  2  0
 22 23  1  0
 22 21  1  0
 23 24  2  0
 24 20  1  0
 25 18  1  0
 26 25  2  0
 27 25  1  0
M  END
$$$$
