STV.pdb
     RDKit          3D

 21 20  0  0  1  0  0  0  0  0999 V2000
   14.6615  -13.8677  -14.2528 O   0  0  0  0  0  0  0  0  0  0  0  0
   15.8439  -13.3015  -14.7244 C   0  0  0  0  0  0  0  0  0  0  0  0
   15.7120  -12.9276  -16.1901 C   0  0  2  0  0  0  0  0  0  0  0  0
   15.8016  -14.1505  -16.9551 N   0  0  0  0  0  0  0  0  0  0  0  0
   16.7867  -12.0042  -16.6257 C   0  0  0  0  0  0  0  0  0  0  0  0
   17.6648  -12.3821  -17.4566 O   0  0  0  0  0  0  0  0  0  0  0  0
   16.4908   -7.7424  -16.1909 C   0  0  0  0  0  0  0  0  0  0  0  0
   17.3665   -8.4562  -17.1979 C   0  0  1  0  0  0  0  0  0  0  0  0
   18.3584   -7.6264  -17.7148 O   0  0  0  0  0  0  0  0  0  0  0  0
   17.8729   -9.7655  -16.7263 C   0  0  2  0  0  0  0  0  0  0  0  0
   16.9378  -10.6794  -16.1857 N   0  0  0  0  0  0  0  0  0  0  0  0
   18.9515   -9.5302  -15.7386 C   0  0  0  0  0  0  0  0  0  0  0  0
   18.6251   -9.5334  -14.5102 O   0  0  0  0  0  0  0  0  0  0  0  0
   22.1217  -11.4641  -15.3595 C   0  0  0  0  0  0  0  0  0  0  0  0
   22.5043   -9.9939  -15.3048 C   0  0  2  0  0  0  0  0  0  0  0  0
   23.5038   -9.8066  -14.1855 C   0  0  0  0  0  0  0  0  0  0  0  0
   21.2927   -9.1262  -15.0316 C   0  0  2  0  0  0  0  0  0  0  0  0
   20.3136   -9.3046  -16.0840 N   0  0  0  0  0  0  0  0  0  0  0  0
   21.7247   -7.7144  -14.9355 C   0  0  0  0  0  0  0  0  0  0  0  0
   22.2290   -7.2371  -13.7354 O   0  0  0  0  0  0  0  0  0  0  0  0
   21.6500   -6.9228  -15.9148 O   0  0  0  0  0  0  0  0  0  0  0  0
  2  1  1  0
  3  2  1  0
  3  4  1  6
  5 11  1  0
  5  3  1  0
  6  5  2  0
  8  7  1  1
  9  8  1  0
 10  8  1  0
 10 12  1  0
 10 11  1  1
 12 18  1  0
 13 12  2  0
 15 16  1  1
 15 14  1  0
 17 15  1  0
 17 18  1  6
 19 20  1  0
 19 17  1  0
 21 19  2  0
M  END
$$$$
