STV.pdb
     RDKit          3D

 21 20  0  0  1  0  0  0  0  0999 V2000
   12.6879  -10.2872  -11.8618 O   0  0  0  0  0  0  0  0  0  0  0  0
   13.9083  -10.4322  -12.5182 C   0  0  0  0  0  0  0  0  0  0  0  0
   13.6930  -10.7976  -13.9760 C   0  0  2  0  0  0  0  0  0  0  0  0
   13.0893  -12.1104  -14.0052 N   0  0  0  0  0  0  0  0  0  0  0  0
   14.9671  -10.8338  -14.7327 C   0  0  0  0  0  0  0  0  0  0  0  0
   15.3723  -11.9101  -15.2633 O   0  0  0  0  0  0  0  0  0  0  0  0
   18.1779   -9.0351  -17.8363 C   0  0  0  0  0  0  0  0  0  0  0  0
   16.8656   -9.0885  -17.0845 C   0  0  1  0  0  0  0  0  0  0  0  0
   15.8234   -9.5629  -17.8774 O   0  0  0  0  0  0  0  0  0  0  0  0
   16.9601   -9.7553  -15.7655 C   0  0  2  0  0  0  0  0  0  0  0  0
   15.8174   -9.7341  -14.9315 N   0  0  0  0  0  0  0  0  0  0  0  0
   18.1127   -9.1883  -15.0278 C   0  0  0  0  0  0  0  0  0  0  0  0
   17.8980   -8.1539  -14.3210 O   0  0  0  0  0  0  0  0  0  0  0  0
   22.6485   -9.5947  -13.1013 C   0  0  0  0  0  0  0  0  0  0  0  0
   21.5740  -10.1558  -14.0187 C   0  0  2  0  0  0  0  0  0  0  0  0
   22.2090  -10.4680  -15.3552 C   0  0  0  0  0  0  0  0  0  0  0  0
   20.4584   -9.1520  -14.2275 C   0  0  2  0  0  0  0  0  0  0  0  0
   19.4281   -9.7302  -15.0655 N   0  0  0  0  0  0  0  0  0  0  0  0
   21.0218   -7.9281  -14.8387 C   0  0  0  0  0  0  0  0  0  0  0  0
   21.5227   -6.9272  -14.0204 O   0  0  0  0  0  0  0  0  0  0  0  0
   21.0630   -7.7613  -16.0885 O   0  0  0  0  0  0  0  0  0  0  0  0
  2  1  1  0
  3  2  1  0
  3  4  1  1
  5 11  1  0
  5  3  1  0
  6  5  2  0
  8  7  1  6
  9  8  1  0
 10  8  1  0
 10 12  1  0
 10 11  1  1
 12 18  1  0
 13 12  2  0
 15 16  1  6
 15 14  1  0
 17 15  1  0
 17 18  1  6
 19 20  1  0
 19 17  1  0
 21 19  2  0
M  END
$$$$
