STV.pdb
     RDKit          3D

 21 20  0  0  1  0  0  0  0  0999 V2000
   46.8944  -13.4658   -5.4699 O   0  0  0  0  0  0  0  0  0  0  0  0
   46.3669  -12.5068   -6.3321 C   0  0  0  0  0  0  0  0  0  0  0  0
   45.2160  -13.0843   -7.1366 C   0  0  2  0  0  0  0  0  0  0  0  0
   45.7650  -14.1046   -8.0003 N   0  0  0  0  0  0  0  0  0  0  0  0
   44.5486  -12.0541   -7.9677 C   0  0  0  0  0  0  0  0  0  0  0  0
   44.9448  -11.8209   -9.1479 O   0  0  0  0  0  0  0  0  0  0  0  0
   40.8026   -9.4488   -9.5906 C   0  0  0  0  0  0  0  0  0  0  0  0
   41.4188  -10.5647   -8.7748 C   0  0  1  0  0  0  0  0  0  0  0  0
   41.2247  -11.8137   -9.3597 O   0  0  0  0  0  0  0  0  0  0  0  0
   42.8212  -10.3071   -8.3746 C   0  0  2  0  0  0  0  0  0  0  0  0
   43.4612  -11.2671   -7.5557 N   0  0  0  0  0  0  0  0  0  0  0  0
   42.8922   -8.9811   -7.7180 C   0  0  0  0  0  0  0  0  0  0  0  0
   42.4137   -8.8879   -6.5441 O   0  0  0  0  0  0  0  0  0  0  0  0
   45.0759   -5.6542   -9.2528 C   0  0  0  0  0  0  0  0  0  0  0  0
   44.7475   -5.8403   -7.7803 C   0  0  2  0  0  0  0  0  0  0  0  0
   45.8470   -6.6664   -7.1512 C   0  0  0  0  0  0  0  0  0  0  0  0
   43.4279   -6.5636   -7.6044 C   0  0  2  0  0  0  0  0  0  0  0  0
   43.4589   -7.8227   -8.3199 N   0  0  0  0  0  0  0  0  0  0  0  0
   42.3350   -5.6954   -8.0951 C   0  0  0  0  0  0  0  0  0  0  0  0
   41.7972   -4.7355   -7.2514 O   0  0  0  0  0  0  0  0  0  0  0  0
   41.8711   -5.7981   -9.2637 O   0  0  0  0  0  0  0  0  0  0  0  0
  2  1  1  0
  3  2  1  0
  3  4  1  6
  5 11  1  0
  5  3  1  0
  6  5  2  0
  8  7  1  6
  9  8  1  0
 10  8  1  0
 10 12  1  0
 10 11  1  1
 12 18  1  0
 13 12  2  0
 15 16  1  6
 15 14  1  0
 17 15  1  0
 17 18  1  6
 19 20  1  0
 19 17  1  0
 21 19  2  0
M  END
$$$$
