STV.pdb
     RDKit          3D

 21 20  0  0  1  0  0  0  0  0999 V2000
   15.6627  -14.8835  -13.7986 O   0  0  0  0  0  0  0  0  0  0  0  0
   16.6613  -14.0078  -14.2197 C   0  0  0  0  0  0  0  0  0  0  0  0
   16.3780  -13.5073  -15.6249 C   0  0  2  0  0  0  0  0  0  0  0  0
   16.4921  -14.6398  -16.5154 N   0  0  0  0  0  0  0  0  0  0  0  0
   17.3408  -12.4616  -16.0456 C   0  0  0  0  0  0  0  0  0  0  0  0
   18.4051  -12.7729  -16.6575 O   0  0  0  0  0  0  0  0  0  0  0  0
   16.5301   -9.2003  -18.1993 C   0  0  0  0  0  0  0  0  0  0  0  0
   17.3655   -8.8961  -16.9746 C   0  0  1  0  0  0  0  0  0  0  0  0
   16.6764   -8.1186  -16.0470 O   0  0  0  0  0  0  0  0  0  0  0  0
   18.0158  -10.0886  -16.3845 C   0  0  2  0  0  0  0  0  0  0  0  0
   17.1830  -11.0844  -15.8219 N   0  0  0  0  0  0  0  0  0  0  0  0
   18.9960   -9.6413  -15.3679 C   0  0  0  0  0  0  0  0  0  0  0  0
   18.6294   -9.6792  -14.1514 O   0  0  0  0  0  0  0  0  0  0  0  0
   23.0926   -9.2289  -16.1970 C   0  0  0  0  0  0  0  0  0  0  0  0
   22.5461   -9.5276  -14.8102 C   0  0  2  0  0  0  0  0  0  0  0  0
   22.3569  -11.0230  -14.6885 C   0  0  0  0  0  0  0  0  0  0  0  0
   21.2114   -8.8443  -14.5927 C   0  0  2  0  0  0  0  0  0  0  0  0
   20.3067   -9.1787  -15.6734 N   0  0  0  0  0  0  0  0  0  0  0  0
   21.4279   -7.3832  -14.5081 C   0  0  0  0  0  0  0  0  0  0  0  0
   22.0079   -6.8458  -13.3692 O   0  0  0  0  0  0  0  0  0  0  0  0
   21.1009   -6.6021  -15.4432 O   0  0  0  0  0  0  0  0  0  0  0  0
  2  1  1  0
  3  2  1  0
  3  4  1  6
  5 11  1  0
  5  3  1  0
  6  5  2  0
  8  7  1  6
  9  8  1  0
 10  8  1  0
 10 12  1  0
 10 11  1  1
 12 18  1  0
 13 12  2  0
 15 16  1  6
 15 14  1  0
 17 15  1  0
 17 18  1  6
 19 20  1  0
 19 17  1  0
 21 19  2  0
M  END
$$$$
