STV.pdb
     RDKit          3D

 21 20  0  0  1  0  0  0  0  0999 V2000
   12.8350   -8.5372  -15.4525 O   0  0  0  0  0  0  0  0  0  0  0  0
   14.1355   -8.8739  -15.0830 C   0  0  0  0  0  0  0  0  0  0  0  0
   14.6680   -9.9952  -15.9573 C   0  0  2  0  0  0  0  0  0  0  0  0
   14.0228  -11.2159  -15.5306 N   0  0  0  0  0  0  0  0  0  0  0  0
   16.1361  -10.1518  -15.8253 C   0  0  0  0  0  0  0  0  0  0  0  0
   16.6275  -10.8955  -14.9255 O   0  0  0  0  0  0  0  0  0  0  0  0
   18.9258  -11.1378  -18.5539 C   0  0  0  0  0  0  0  0  0  0  0  0
   19.2646   -9.8824  -17.7795 C   0  0  1  0  0  0  0  0  0  0  0  0
   19.2618   -8.7483  -18.5879 O   0  0  0  0  0  0  0  0  0  0  0  0
   18.4860   -9.7238  -16.5298 C   0  0  2  0  0  0  0  0  0  0  0  0
   17.0899   -9.5240  -16.6425 N   0  0  0  0  0  0  0  0  0  0  0  0
   19.0747   -8.6171  -15.7403 C   0  0  0  0  0  0  0  0  0  0  0  0
   18.4008   -7.5429  -15.6538 O   0  0  0  0  0  0  0  0  0  0  0  0
   22.0216   -6.8604  -12.2447 C   0  0  0  0  0  0  0  0  0  0  0  0
   21.4512   -8.0280  -13.0337 C   0  0  2  0  0  0  0  0  0  0  0  0
   22.5865   -8.9662  -13.3772 C   0  0  0  0  0  0  0  0  0  0  0  0
   20.8022   -7.5519  -14.3173 C   0  0  2  0  0  0  0  0  0  0  0  0
   20.3346   -8.6894  -15.0824 N   0  0  0  0  0  0  0  0  0  0  0  0
   21.7848   -6.7566  -15.0861 C   0  0  0  0  0  0  0  0  0  0  0  0
   22.0158   -5.4355  -14.7343 O   0  0  0  0  0  0  0  0  0  0  0  0
   22.4254   -7.2417  -16.0586 O   0  0  0  0  0  0  0  0  0  0  0  0
  2  1  1  0
  3  2  1  0
  3  4  1  1
  5 11  1  0
  5  3  1  0
  6  5  2  0
  8  7  1  6
  9  8  1  0
 10  8  1  0
 10 12  1  0
 10 11  1  6
 12 18  1  0
 13 12  2  0
 15 16  1  6
 15 14  1  0
 17 15  1  0
 17 18  1  6
 19 20  1  0
 19 17  1  0
 21 19  2  0
M  END
$$$$
