STV.pdb
     RDKit          3D

 21 20  0  0  1  0  0  0  0  0999 V2000
   12.4669  -11.5304  -15.0235 O   0  0  0  0  0  0  0  0  0  0  0  0
   13.1860  -10.9762  -13.9667 C   0  0  0  0  0  0  0  0  0  0  0  0
   14.6304  -11.4430  -13.9978 C   0  0  2  0  0  0  0  0  0  0  0  0
   14.6341  -12.8505  -13.6701 N   0  0  0  0  0  0  0  0  0  0  0  0
   15.4697  -10.7152  -13.0163 C   0  0  0  0  0  0  0  0  0  0  0  0
   15.4952  -11.0697  -11.8006 O   0  0  0  0  0  0  0  0  0  0  0  0
   19.0467   -7.5130  -11.7416 C   0  0  0  0  0  0  0  0  0  0  0  0
   18.3408   -8.3205  -12.8092 C   0  0  1  0  0  0  0  0  0  0  0  0
   19.1933   -9.2286  -13.4324 O   0  0  0  0  0  0  0  0  0  0  0  0
   17.0628   -8.9178  -12.3585 C   0  0  2  0  0  0  0  0  0  0  0  0
   16.2844   -9.6112  -13.3150 N   0  0  0  0  0  0  0  0  0  0  0  0
   16.2373   -7.8583  -11.7335 C   0  0  0  0  0  0  0  0  0  0  0  0
   15.7117   -6.9987  -12.5083 O   0  0  0  0  0  0  0  0  0  0  0  0
   13.3533   -6.1584   -8.1736 C   0  0  0  0  0  0  0  0  0  0  0  0
   14.1671   -7.2642   -8.8261 C   0  0  2  0  0  0  0  0  0  0  0  0
   14.9424   -7.9821   -7.7442 C   0  0  0  0  0  0  0  0  0  0  0  0
   15.1438   -6.6972   -9.8362 C   0  0  2  0  0  0  0  0  0  0  0  0
   16.0030   -7.7518  -10.3339 N   0  0  0  0  0  0  0  0  0  0  0  0
   15.9317   -5.6234   -9.1919 C   0  0  0  0  0  0  0  0  0  0  0  0
   17.2292   -5.8853   -8.7791 O   0  0  0  0  0  0  0  0  0  0  0  0
   15.4612   -4.4682   -9.0031 O   0  0  0  0  0  0  0  0  0  0  0  0
  2  1  1  0
  3  2  1  0
  3  4  1  1
  5 11  1  0
  5  3  1  0
  6  5  2  0
  8  7  1  1
  9  8  1  0
 10  8  1  0
 10 12  1  0
 10 11  1  6
 12 18  1  0
 13 12  2  0
 15 16  1  1
 15 14  1  0
 17 15  1  0
 17 18  1  1
 19 20  1  0
 19 17  1  0
 21 19  2  0
M  END
$$$$
