STV.pdb
     RDKit          3D

 21 20  0  0  1  0  0  0  0  0999 V2000
   17.3863  -14.1753  -14.4591 O   0  0  0  0  0  0  0  0  0  0  0  0
   18.0530  -13.0371  -14.9078 C   0  0  0  0  0  0  0  0  0  0  0  0
   17.0827  -12.0711  -15.5641 C   0  0  2  0  0  0  0  0  0  0  0  0
   16.5645  -12.7200  -16.7469 N   0  0  0  0  0  0  0  0  0  0  0  0
   17.7429  -10.8035  -15.9573 C   0  0  0  0  0  0  0  0  0  0  0  0
   18.2911  -10.6866  -17.0931 O   0  0  0  0  0  0  0  0  0  0  0  0
   16.5938   -7.3795  -16.9579 C   0  0  0  0  0  0  0  0  0  0  0  0
   17.4988   -7.2708  -15.7498 C   0  0  1  0  0  0  0  0  0  0  0  0
   16.7982   -6.9262  -14.5964 O   0  0  0  0  0  0  0  0  0  0  0  0
   18.4002   -8.4324  -15.5730 C   0  0  2  0  0  0  0  0  0  0  0  0
   17.8265   -9.6556  -15.1529 N   0  0  0  0  0  0  0  0  0  0  0  0
   19.4838   -8.0549  -14.6360 C   0  0  0  0  0  0  0  0  0  0  0  0
   19.3121   -8.3320  -13.4075 O   0  0  0  0  0  0  0  0  0  0  0  0
   23.4483   -7.4759  -15.8407 C   0  0  0  0  0  0  0  0  0  0  0  0
   22.9913   -7.9150  -14.4589 C   0  0  2  0  0  0  0  0  0  0  0  0
   22.7072   -9.3997  -14.5044 C   0  0  0  0  0  0  0  0  0  0  0  0
   21.7289   -7.1858  -14.0462 C   0  0  2  0  0  0  0  0  0  0  0  0
   20.6892   -7.4090  -15.0297 N   0  0  0  0  0  0  0  0  0  0  0  0
   22.0315   -5.7446  -13.9041 C   0  0  0  0  0  0  0  0  0  0  0  0
   22.7826   -5.3101  -12.8227 O   0  0  0  0  0  0  0  0  0  0  0  0
   21.6269   -4.8895  -14.7388 O   0  0  0  0  0  0  0  0  0  0  0  0
  2  1  1  0
  3  2  1  0
  3  4  1  6
  5 11  1  0
  5  3  1  0
  6  5  2  0
  8  7  1  6
  9  8  1  0
 10  8  1  0
 10 12  1  0
 10 11  1  1
 12 18  1  0
 13 12  2  0
 15 16  1  6
 15 14  1  0
 17 15  1  0
 17 18  1  6
 19 20  1  0
 19 17  1  0
 21 19  2  0
M  END
$$$$
