STV.pdb
     RDKit          3D

 21 20  0  0  1  0  0  0  0  0999 V2000
   14.3020  -13.8842  -14.5244 O   0  0  0  0  0  0  0  0  0  0  0  0
   15.3679  -13.0137  -14.7425 C   0  0  0  0  0  0  0  0  0  0  0  0
   15.2538  -12.3579  -16.1072 C   0  0  2  0  0  0  0  0  0  0  0  0
   15.0115  -13.4083  -17.0697 N   0  0  0  0  0  0  0  0  0  0  0  0
   16.4933  -11.6357  -16.4806 C   0  0  0  0  0  0  0  0  0  0  0  0
   17.4031  -12.2155  -17.1441 O   0  0  0  0  0  0  0  0  0  0  0  0
   16.6986   -8.2209  -18.4512 C   0  0  0  0  0  0  0  0  0  0  0  0
   17.5894   -8.2166  -17.2278 C   0  0  1  0  0  0  0  0  0  0  0  0
   17.1597   -7.3045  -16.2668 O   0  0  0  0  0  0  0  0  0  0  0  0
   17.8643   -9.5667  -16.6850 C   0  0  2  0  0  0  0  0  0  0  0  0
   16.7762  -10.2994  -16.1548 N   0  0  0  0  0  0  0  0  0  0  0  0
   18.9261   -9.4589  -15.6577 C   0  0  0  0  0  0  0  0  0  0  0  0
   18.5609   -9.4787  -14.4404 O   0  0  0  0  0  0  0  0  0  0  0  0
   22.1976  -11.4972  -15.3716 C   0  0  0  0  0  0  0  0  0  0  0  0
   22.5141  -10.0202  -15.2003 C   0  0  2  0  0  0  0  0  0  0  0  0
   23.5017   -9.8769  -14.0640 C   0  0  0  0  0  0  0  0  0  0  0  0
   21.2643   -9.2311  -14.8672 C   0  0  2  0  0  0  0  0  0  0  0  0
   20.3127   -9.3367  -15.9541 N   0  0  0  0  0  0  0  0  0  0  0  0
   21.6385   -7.8215  -14.6179 C   0  0  0  0  0  0  0  0  0  0  0  0
   22.0198   -7.4338  -13.3425 O   0  0  0  0  0  0  0  0  0  0  0  0
   21.6229   -6.9524  -15.5321 O   0  0  0  0  0  0  0  0  0  0  0  0
  2  1  1  0
  3  2  1  0
  3  4  1  6
  5 11  1  0
  5  3  1  0
  6  5  2  0
  8  7  1  6
  9  8  1  0
 10  8  1  0
 10 12  1  0
 10 11  1  1
 12 18  1  0
 13 12  2  0
 15 16  1  1
 15 14  1  0
 17 15  1  0
 17 18  1  6
 19 20  1  0
 19 17  1  0
 21 19  2  0
M  END
$$$$
