STV.pdb
     RDKit          3D

 21 20  0  0  1  0  0  0  0  0999 V2000
   16.9159  -10.0470  -17.2383 O   0  0  0  0  0  0  0  0  0  0  0  0
   17.9472  -10.5285  -18.0420 C   0  0  0  0  0  0  0  0  0  0  0  0
   18.8688  -11.4352  -17.2458 C   0  0  2  0  0  0  0  0  0  0  0  0
   18.0406  -12.4238  -16.5937 N   0  0  0  0  0  0  0  0  0  0  0  0
   19.6300  -10.6868  -16.2173 C   0  0  0  0  0  0  0  0  0  0  0  0
   19.2715  -10.7129  -15.0028 O   0  0  0  0  0  0  0  0  0  0  0  0
   23.2481  -10.9231  -14.8783 C   0  0  0  0  0  0  0  0  0  0  0  0
   22.9469   -9.5147  -15.3431 C   0  0  1  0  0  0  0  0  0  0  0  0
   23.6862   -9.1625  -16.4697 O   0  0  0  0  0  0  0  0  0  0  0  0
   21.5001   -9.2236  -15.4666 C   0  0  2  0  0  0  0  0  0  0  0  0
   20.7718   -9.9087  -16.4676 N   0  0  0  0  0  0  0  0  0  0  0  0
   21.3227   -7.7641  -15.6473 C   0  0  0  0  0  0  0  0  0  0  0  0
   20.6581   -7.3808  -16.6608 O   0  0  0  0  0  0  0  0  0  0  0  0
   19.3509   -5.8679  -16.0940 C   0  0  0  0  0  0  0  0  0  0  0  0
   20.0462   -5.1667  -14.9382 C   0  0  2  0  0  0  0  0  0  0  0  0
   19.7614   -3.6852  -15.0438 C   0  0  0  0  0  0  0  0  0  0  0  0
   21.5447   -5.3838  -14.9924 C   0  0  2  0  0  0  0  0  0  0  0  0
   21.8470   -6.7814  -14.7615 N   0  0  0  0  0  0  0  0  0  0  0  0
   22.1920   -4.5212  -13.9795 C   0  0  0  0  0  0  0  0  0  0  0  0
   22.5206   -5.0534  -12.7421 O   0  0  0  0  0  0  0  0  0  0  0  0
   22.4577   -3.3085  -14.2034 O   0  0  0  0  0  0  0  0  0  0  0  0
  2  1  1  0
  3  2  1  0
  3  4  1  1
  5 11  1  0
  5  3  1  0
  6  5  2  0
  8  7  1  6
  9  8  1  0
 10  8  1  0
 10 12  1  0
 10 11  1  6
 12 18  1  0
 13 12  2  0
 15 16  1  6
 15 14  1  0
 17 15  1  0
 17 18  1  1
 19 20  1  0
 19 17  1  0
 21 19  2  0
M  END
$$$$
