STV.pdb
     RDKit          3D

 21 20  0  0  1  0  0  0  0  0999 V2000
   17.1418  -13.3866  -18.8667 O   0  0  0  0  0  0  0  0  0  0  0  0
   17.3180  -12.3378  -17.9665 C   0  0  0  0  0  0  0  0  0  0  0  0
   18.4221  -12.6614  -16.9757 C   0  0  2  0  0  0  0  0  0  0  0  0
   17.9576  -13.7588  -16.1582 N   0  0  0  0  0  0  0  0  0  0  0  0
   18.7387  -11.5067  -16.1017 C   0  0  0  0  0  0  0  0  0  0  0  0
   18.0322  -11.2576  -15.0804 O   0  0  0  0  0  0  0  0  0  0  0  0
   21.7199   -7.9103  -14.4256 C   0  0  0  0  0  0  0  0  0  0  0  0
   21.5167   -9.1690  -15.2408 C   0  0  1  0  0  0  0  0  0  0  0  0
   22.2930  -10.2281  -14.7765 O   0  0  0  0  0  0  0  0  0  0  0  0
   20.0936   -9.5217  -15.4494 C   0  0  2  0  0  0  0  0  0  0  0  0
   19.8017  -10.6117  -16.3030 N   0  0  0  0  0  0  0  0  0  0  0  0
   19.3715   -8.3203  -15.9286 C   0  0  0  0  0  0  0  0  0  0  0  0
   19.4985   -8.0174  -17.1565 O   0  0  0  0  0  0  0  0  0  0  0  0
   15.8351   -7.6065  -16.3144 C   0  0  0  0  0  0  0  0  0  0  0  0
   16.3991   -6.4583  -15.4931 C   0  0  2  0  0  0  0  0  0  0  0  0
   15.7472   -5.1768  -15.9619 C   0  0  0  0  0  0  0  0  0  0  0  0
   17.8985   -6.3426  -15.6776 C   0  0  2  0  0  0  0  0  0  0  0  0
   18.5546   -7.4986  -15.1021 N   0  0  0  0  0  0  0  0  0  0  0  0
   18.3653   -5.0904  -15.0427 C   0  0  0  0  0  0  0  0  0  0  0  0
   18.5455   -3.9580  -15.8223 O   0  0  0  0  0  0  0  0  0  0  0  0
   18.6073   -5.0155  -13.8069 O   0  0  0  0  0  0  0  0  0  0  0  0
  2  1  1  0
  3  2  1  0
  3  4  1  1
  5 11  1  0
  5  3  1  0
  6  5  2  0
  8  7  1  1
  9  8  1  0
 10  8  1  0
 10 12  1  0
 10 11  1  6
 12 18  1  0
 13 12  2  0
 15 16  1  6
 15 14  1  0
 17 15  1  0
 17 18  1  1
 19 20  1  0
 19 17  1  0
 21 19  2  0
M  END
$$$$
