ALS.pdb
     RDKit          3D

 20 19  0  0  1  0  0  0  0  0999 V2000
    7.3201  -17.9887   21.1901 C   0  0  0  0  0  0  0  0  0  0  0  0
    7.3529  -16.4711   21.0088 C   0  0  2  0  0  0  0  0  0  0  0  0
    8.2672  -16.2017   19.9243 N   0  0  0  0  0  0  0  0  0  0  0  0
    7.8376  -15.8258   22.2310 C   0  0  0  0  0  0  0  0  0  0  0  0
    9.1044  -15.7431   22.3941 O   0  0  0  0  0  0  0  0  0  0  0  0
    8.2565  -12.0570   25.9607 C   0  0  0  0  0  0  0  0  0  0  0  0
    7.2377  -13.0978   26.3553 C   0  0  1  0  0  0  0  0  0  0  0  0
    6.0924  -12.3305   27.0339 C   0  0  0  0  0  0  0  0  0  0  0  0
    6.6590  -13.7936   25.1899 C   0  0  0  0  0  0  0  0  0  0  0  0
    7.5330  -14.6597   24.3729 C   0  0  2  0  0  0  0  0  0  0  0  0
    6.9812  -15.2924   23.2350 N   0  0  0  0  0  0  0  0  0  0  0  0
    8.0680  -15.7255   25.3043 C   0  0  0  0  0  0  0  0  0  0  0  0
    7.2527  -16.5281   25.8160 O   0  0  0  0  0  0  0  0  0  0  0  0
   11.2332  -17.5027   24.5151 O   0  0  0  0  0  0  0  0  0  0  0  0
   11.3300  -17.3878   25.9018 C   0  0  0  0  0  0  0  0  0  0  0  0
    9.9900  -16.9132   26.4151 C   0  0  2  0  0  0  0  0  0  0  0  0
    9.4462  -15.8455   25.6144 N   0  0  0  0  0  0  0  0  0  0  0  0
   10.1160  -16.5410   27.8385 C   0  0  0  0  0  0  0  0  0  0  0  0
    9.8026  -15.2853   28.3324 O   0  0  0  0  0  0  0  0  0  0  0  0
   10.5284  -17.4066   28.6444 O   0  0  0  0  0  0  0  0  0  0  0  0
  2  1  1  1
  2  4  1  0
  3  2  1  0
  4  5  2  0
  7  6  1  6
  7  9  1  0
  8  7  1  0
 10  9  1  1
 10 12  1  0
 11 10  1  0
 11  4  1  0
 12 13  2  0
 15 14  1  0
 16 15  1  6
 16 18  1  0
 17 16  1  0
 17 12  1  0
 18 20  2  0
 18 19  1  0
M  END
$$$$
