ALS.pdb
     RDKit          3D

 20 19  0  0  1  0  0  0  0  0999 V2000
    7.9213  -13.3893   20.1428 C   0  0  0  0  0  0  0  0  0  0  0  0
    7.8445  -14.7022   20.9222 C   0  0  2  0  0  0  0  0  0  0  0  0
    6.4571  -15.1016   20.9282 N   0  0  0  0  0  0  0  0  0  0  0  0
    8.3034  -14.5011   22.2984 C   0  0  0  0  0  0  0  0  0  0  0  0
    9.5428  -14.2350   22.4760 O   0  0  0  0  0  0  0  0  0  0  0  0
    5.6255  -12.0689   26.7108 C   0  0  0  0  0  0  0  0  0  0  0  0
    6.6311  -12.4437   25.6500 C   0  0  1  0  0  0  0  0  0  0  0  0
    7.8516  -11.5412   25.8886 C   0  0  0  0  0  0  0  0  0  0  0  0
    7.0952  -13.8384   25.7777 C   0  0  0  0  0  0  0  0  0  0  0  0
    7.9798  -14.3918   24.7323 C   0  0  2  0  0  0  0  0  0  0  0  0
    7.4511  -14.5855   23.4351 N   0  0  0  0  0  0  0  0  0  0  0  0
    8.4753  -15.7230   25.2539 C   0  0  0  0  0  0  0  0  0  0  0  0
    7.6455  -16.6529   25.3864 O   0  0  0  0  0  0  0  0  0  0  0  0
   11.4263  -17.4373   23.9987 O   0  0  0  0  0  0  0  0  0  0  0  0
   11.6128  -17.6217   25.3687 C   0  0  0  0  0  0  0  0  0  0  0  0
   10.3313  -17.2201   26.0619 C   0  0  2  0  0  0  0  0  0  0  0  0
    9.8324  -15.9515   25.5942 N   0  0  0  0  0  0  0  0  0  0  0  0
   10.5400  -17.2383   27.5236 C   0  0  0  0  0  0  0  0  0  0  0  0
   10.9051  -18.3719   28.2310 O   0  0  0  0  0  0  0  0  0  0  0  0
   10.3786  -16.1714   28.1598 O   0  0  0  0  0  0  0  0  0  0  0  0
  2  1  1  6
  2  4  1  0
  3  2  1  0
  4  5  2  0
  7  6  1  1
  7  9  1  0
  8  7  1  0
 10  9  1  1
 10 12  1  0
 11 10  1  0
 11  4  1  0
 12 13  2  0
 15 14  1  0
 16 15  1  6
 16 18  1  0
 17 16  1  0
 17 12  1  0
 18 20  2  0
 18 19  1  0
M  END
$$$$
