ALS.pdb
     RDKit          3D

 20 19  0  0  1  0  0  0  0  0999 V2000
    9.4428  -19.9288   18.7487 C   0  0  0  0  0  0  0  0  0  0  0  0
    8.4128  -18.8143   18.9331 C   0  0  2  0  0  0  0  0  0  0  0  0
    8.0800  -18.3333   17.6131 N   0  0  0  0  0  0  0  0  0  0  0  0
    8.9850  -17.7222   19.7236 C   0  0  0  0  0  0  0  0  0  0  0  0
   10.2597  -17.6737   19.8301 O   0  0  0  0  0  0  0  0  0  0  0  0
    6.7297  -12.5195   20.1902 C   0  0  0  0  0  0  0  0  0  0  0  0
    7.6468  -13.6832   19.9044 C   0  0  1  0  0  0  0  0  0  0  0  0
    8.8940  -13.0830   19.2371 C   0  0  0  0  0  0  0  0  0  0  0  0
    8.1004  -14.3614   21.1338 C   0  0  0  0  0  0  0  0  0  0  0  0
    8.8396  -15.6343   21.0120 C   0  0  2  0  0  0  0  0  0  0  0  0
    8.2048  -16.7238   20.3717 N   0  0  0  0  0  0  0  0  0  0  0  0
    9.2064  -16.0507   22.4198 C   0  0  0  0  0  0  0  0  0  0  0  0
    8.2784  -16.2716   23.2326 O   0  0  0  0  0  0  0  0  0  0  0  0
   11.6266  -18.6555   23.2245 O   0  0  0  0  0  0  0  0  0  0  0  0
   10.9163  -18.1333   24.3054 C   0  0  0  0  0  0  0  0  0  0  0  0
   10.9213  -16.6279   24.1703 C   0  0  2  0  0  0  0  0  0  0  0  0
   10.5506  -16.1978   22.8459 N   0  0  0  0  0  0  0  0  0  0  0  0
   12.2389  -16.1046   24.5837 C   0  0  0  0  0  0  0  0  0  0  0  0
   12.7783  -16.2980   25.8447 O   0  0  0  0  0  0  0  0  0  0  0  0
   12.9060  -15.4502   23.7497 O   0  0  0  0  0  0  0  0  0  0  0  0
  2  1  1  6
  2  4  1  0
  3  2  1  0
  4  5  2  0
  7  6  1  1
  7  9  1  0
  8  7  1  0
 10  9  1  1
 10 12  1  0
 11 10  1  0
 11  4  1  0
 12 13  2  0
 15 14  1  0
 16 15  1  6
 16 18  1  0
 17 16  1  0
 17 12  1  0
 18 20  2  0
 18 19  1  0
M  END
$$$$
