ALS.pdb
     RDKit          3D

 20 19  0  0  1  0  0  0  0  0999 V2000
    7.1128  -16.6321   20.8621 C   0  0  0  0  0  0  0  0  0  0  0  0
    7.0652  -15.1279   21.1306 C   0  0  2  0  0  0  0  0  0  0  0  0
    7.7261  -14.4860   20.0190 N   0  0  0  0  0  0  0  0  0  0  0  0
    7.7754  -14.8129   22.3722 C   0  0  0  0  0  0  0  0  0  0  0  0
    9.0431  -14.6502   22.3038 O   0  0  0  0  0  0  0  0  0  0  0  0
    5.8738  -11.8935   26.8773 C   0  0  0  0  0  0  0  0  0  0  0  0
    6.6670  -12.3894   25.6933 C   0  0  1  0  0  0  0  0  0  0  0  0
    7.8348  -11.4049   25.5261 C   0  0  0  0  0  0  0  0  0  0  0  0
    7.2567  -13.7218   25.9252 C   0  0  0  0  0  0  0  0  0  0  0  0
    7.9025  -14.4199   24.7950 C   0  0  2  0  0  0  0  0  0  0  0  0
    7.1348  -14.6802   23.6363 N   0  0  0  0  0  0  0  0  0  0  0  0
    8.4109  -15.7362   25.3413 C   0  0  0  0  0  0  0  0  0  0  0  0
    7.5781  -16.6459   25.5642 O   0  0  0  0  0  0  0  0  0  0  0  0
   11.6368  -17.2981   24.1071 O   0  0  0  0  0  0  0  0  0  0  0  0
   11.6821  -17.5185   25.4837 C   0  0  0  0  0  0  0  0  0  0  0  0
   10.3012  -17.2476   26.0350 C   0  0  2  0  0  0  0  0  0  0  0  0
    9.7833  -15.9727   25.6069 N   0  0  0  0  0  0  0  0  0  0  0  0
   10.3278  -17.3789   27.5056 C   0  0  0  0  0  0  0  0  0  0  0  0
   10.7464  -18.5230   28.1648 O   0  0  0  0  0  0  0  0  0  0  0  0
    9.9516  -16.4037   28.1957 O   0  0  0  0  0  0  0  0  0  0  0  0
  2  1  1  6
  2  4  1  0
  3  2  1  0
  4  5  2  0
  7  6  1  1
  7  9  1  0
  8  7  1  0
 10  9  1  1
 10 12  1  0
 11 10  1  0
 11  4  1  0
 12 13  2  0
 15 14  1  0
 16 15  1  1
 16 18  1  0
 17 16  1  0
 17 12  1  0
 18 20  2  0
 18 19  1  0
M  END
$$$$
