ALS.pdb
     RDKit          3D

 20 19  0  0  1  0  0  0  0  0999 V2000
    8.3613  -17.7747   21.5159 C   0  0  0  0  0  0  0  0  0  0  0  0
    8.5793  -16.2702   21.3554 C   0  0  2  0  0  0  0  0  0  0  0  0
    9.7768  -16.1056   20.5658 N   0  0  0  0  0  0  0  0  0  0  0  0
    8.7655  -15.6433   22.6659 C   0  0  0  0  0  0  0  0  0  0  0  0
    9.9608  -15.5542   23.1148 O   0  0  0  0  0  0  0  0  0  0  0  0
    8.2204  -11.9010   26.4662 C   0  0  0  0  0  0  0  0  0  0  0  0
    7.1818  -12.9897   26.5798 C   0  0  1  0  0  0  0  0  0  0  0  0
    5.8819  -12.2896   27.0052 C   0  0  0  0  0  0  0  0  0  0  0  0
    6.9122  -13.6515   25.2890 C   0  0  0  0  0  0  0  0  0  0  0  0
    7.9708  -14.4835   24.6818 C   0  0  2  0  0  0  0  0  0  0  0  0
    7.6970  -15.1340   23.4563 N   0  0  0  0  0  0  0  0  0  0  0  0
    8.3335  -15.5308   25.7121 C   0  0  0  0  0  0  0  0  0  0  0  0
    7.4664  -16.3805   26.0231 O   0  0  0  0  0  0  0  0  0  0  0  0
   12.0664  -16.7375   26.1689 O   0  0  0  0  0  0  0  0  0  0  0  0
   11.0484  -17.5326   26.6952 C   0  0  0  0  0  0  0  0  0  0  0  0
    9.9963  -16.6091   27.2648 C   0  0  2  0  0  0  0  0  0  0  0  0
    9.6080  -15.5826   26.3309 N   0  0  0  0  0  0  0  0  0  0  0  0
   10.4765  -16.0523   28.5454 C   0  0  0  0  0  0  0  0  0  0  0  0
   10.8598  -16.8324   29.6239 O   0  0  0  0  0  0  0  0  0  0  0  0
   10.5412  -14.8070   28.6644 O   0  0  0  0  0  0  0  0  0  0  0  0
  2  1  1  1
  2  4  1  0
  3  2  1  0
  4  5  2  0
  7  6  1  6
  7  9  1  0
  8  7  1  0
 10  9  1  1
 10 12  1  0
 11 10  1  0
 11  4  1  0
 12 13  2  0
 15 14  1  0
 16 15  1  6
 16 18  1  0
 17 16  1  0
 17 12  1  0
 18 20  2  0
 18 19  1  0
M  END
$$$$
