ALS.pdb
     RDKit          3D

 20 19  0  0  1  0  0  0  0  0999 V2000
    7.0716  -16.9423   20.8453 C   0  0  0  0  0  0  0  0  0  0  0  0
    7.1922  -15.4335   21.0594 C   0  0  2  0  0  0  0  0  0  0  0  0
    7.9724  -14.9185   19.9591 N   0  0  0  0  0  0  0  0  0  0  0  0
    7.8806  -15.1550   22.3219 C   0  0  0  0  0  0  0  0  0  0  0  0
    9.1591  -15.0997   22.2989 O   0  0  0  0  0  0  0  0  0  0  0  0
    5.8235  -12.0900   26.7680 C   0  0  0  0  0  0  0  0  0  0  0  0
    6.6449  -12.5681   25.5959 C   0  0  1  0  0  0  0  0  0  0  0  0
    7.8238  -11.5895   25.4803 C   0  0  0  0  0  0  0  0  0  0  0  0
    7.2185  -13.9094   25.8165 C   0  0  0  0  0  0  0  0  0  0  0  0
    7.9398  -14.5654   24.7071 C   0  0  2  0  0  0  0  0  0  0  0  0
    7.2077  -14.9453   23.5584 N   0  0  0  0  0  0  0  0  0  0  0  0
    8.5912  -15.7994   25.2925 C   0  0  0  0  0  0  0  0  0  0  0  0
    7.8569  -16.7683   25.5972 O   0  0  0  0  0  0  0  0  0  0  0  0
   12.6143  -18.3530   26.0588 O   0  0  0  0  0  0  0  0  0  0  0  0
   12.0890  -17.1599   25.5627 C   0  0  0  0  0  0  0  0  0  0  0  0
   10.6396  -17.0889   25.9853 C   0  0  2  0  0  0  0  0  0  0  0  0
    9.9894  -15.8955   25.5058 N   0  0  0  0  0  0  0  0  0  0  0  0
   10.5511  -17.2269   27.4528 C   0  0  0  0  0  0  0  0  0  0  0  0
   10.9444  -18.3634   28.1402 O   0  0  0  0  0  0  0  0  0  0  0  0
   10.0959  -16.2649   28.1134 O   0  0  0  0  0  0  0  0  0  0  0  0
  2  1  1  6
  2  4  1  0
  3  2  1  0
  4  5  2  0
  7  6  1  1
  7  9  1  0
  8  7  1  0
 10  9  1  1
 10 12  1  0
 11 10  1  0
 11  4  1  0
 12 13  2  0
 15 14  1  0
 16 15  1  1
 16 18  1  0
 17 16  1  0
 17 12  1  0
 18 20  2  0
 18 19  1  0
M  END
$$$$
