ALS.pdb
     RDKit          3D

 20 19  0  0  1  0  0  0  0  0999 V2000
   11.2025  -17.1526   28.5731 C   0  0  0  0  0  0  0  0  0  0  0  0
    9.6765  -17.1580   28.6657 C   0  0  2  0  0  0  0  0  0  0  0  0
    9.2872  -18.4984   29.0349 N   0  0  0  0  0  0  0  0  0  0  0  0
    9.0898  -16.8163   27.3679 C   0  0  0  0  0  0  0  0  0  0  0  0
    8.7217  -17.7818   26.6124 O   0  0  0  0  0  0  0  0  0  0  0  0
    6.5745  -13.5590   27.2030 C   0  0  0  0  0  0  0  0  0  0  0  0
    6.7543  -13.3538   25.7189 C   0  0  1  0  0  0  0  0  0  0  0  0
    6.7633  -11.8327   25.5017 C   0  0  0  0  0  0  0  0  0  0  0  0
    8.0484  -13.8664   25.2295 C   0  0  0  0  0  0  0  0  0  0  0  0
    8.4527  -15.2396   25.5936 C   0  0  2  0  0  0  0  0  0  0  0  0
    8.9102  -15.4809   26.9097 N   0  0  0  0  0  0  0  0  0  0  0  0
    9.5459  -15.6334   24.6242 C   0  0  0  0  0  0  0  0  0  0  0  0
   10.7235  -15.2985   24.8921 O   0  0  0  0  0  0  0  0  0  0  0  0
   11.4006  -18.5016   21.3917 O   0  0  0  0  0  0  0  0  0  0  0  0
   10.4175  -18.2432   22.3469 C   0  0  0  0  0  0  0  0  0  0  0  0
   10.3108  -16.7432   22.4978 C   0  0  2  0  0  0  0  0  0  0  0  0
    9.2856  -16.3609   23.4355 N   0  0  0  0  0  0  0  0  0  0  0  0
   10.1140  -16.1311   21.1684 C   0  0  0  0  0  0  0  0  0  0  0  0
   11.1053  -16.0606   20.2035 O   0  0  0  0  0  0  0  0  0  0  0  0
    8.9902  -15.6491   20.8971 O   0  0  0  0  0  0  0  0  0  0  0  0
  2  1  1  6
  2  4  1  0
  3  2  1  0
  4  5  2  0
  7  6  1  1
  7  9  1  0
  8  7  1  0
 10  9  1  1
 10 12  1  0
 11 10  1  0
 11  4  1  0
 12 13  2  0
 15 14  1  0
 16 15  1  6
 16 18  1  0
 17 16  1  0
 17 12  1  0
 18 20  2  0
 18 19  1  0
M  END
$$$$
