ALS.pdb
     RDKit          3D

 20 19  0  0  1  0  0  0  0  0999 V2000
    6.5478  -19.4771   23.9632 C   0  0  0  0  0  0  0  0  0  0  0  0
    6.0204  -18.1003   23.5590 C   0  0  2  0  0  0  0  0  0  0  0  0
    5.9937  -18.0727   22.1158 N   0  0  0  0  0  0  0  0  0  0  0  0
    6.9145  -17.0509   24.0536 C   0  0  0  0  0  0  0  0  0  0  0  0
    7.9968  -16.8409   23.4034 O   0  0  0  0  0  0  0  0  0  0  0  0
    5.7842  -12.0268   26.7984 C   0  0  0  0  0  0  0  0  0  0  0  0
    6.3676  -12.9931   25.7970 C   0  0  1  0  0  0  0  0  0  0  0  0
    7.4522  -12.2115   25.0396 C   0  0  0  0  0  0  0  0  0  0  0  0
    7.0343  -14.1413   26.4406 C   0  0  0  0  0  0  0  0  0  0  0  0
    7.5403  -15.2377   25.5902 C   0  0  2  0  0  0  0  0  0  0  0  0
    6.6439  -16.2622   25.2070 N   0  0  0  0  0  0  0  0  0  0  0  0
    8.6936  -15.8641   26.3434 C   0  0  0  0  0  0  0  0  0  0  0  0
    8.4296  -16.6524   27.2813 O   0  0  0  0  0  0  0  0  0  0  0  0
   12.3178  -16.3134   24.7131 O   0  0  0  0  0  0  0  0  0  0  0  0
   12.4775  -15.9240   26.0430 C   0  0  0  0  0  0  0  0  0  0  0  0
   11.1612  -16.1573   26.7480 C   0  0  2  0  0  0  0  0  0  0  0  0
   10.0486  -15.5921   26.0273 N   0  0  0  0  0  0  0  0  0  0  0  0
   11.2514  -15.6497   28.1318 C   0  0  0  0  0  0  0  0  0  0  0  0
   12.2314  -16.0416   29.0289 O   0  0  0  0  0  0  0  0  0  0  0  0
   10.3959  -14.8197   28.5167 O   0  0  0  0  0  0  0  0  0  0  0  0
  2  1  1  6
  2  4  1  0
  3  2  1  0
  4  5  2  0
  7  6  1  1
  7  9  1  0
  8  7  1  0
 10  9  1  1
 10 12  1  0
 11 10  1  0
 11  4  1  0
 12 13  2  0
 15 14  1  0
 16 15  1  6
 16 18  1  0
 17 16  1  0
 17 12  1  0
 18 20  2  0
 18 19  1  0
M  END
$$$$
