ALS.pdb
     RDKit          3D

 20 19  0  0  1  0  0  0  0  0999 V2000
    7.5502  -17.3639   20.8002 C   0  0  0  0  0  0  0  0  0  0  0  0
    7.6137  -15.8383   20.7257 C   0  0  2  0  0  0  0  0  0  0  0  0
    8.5594  -15.5119   19.6847 N   0  0  0  0  0  0  0  0  0  0  0  0
    8.0786  -15.2884   22.0011 C   0  0  0  0  0  0  0  0  0  0  0  0
    9.3418  -15.1661   22.1674 O   0  0  0  0  0  0  0  0  0  0  0  0
    6.4187  -11.6580   26.6720 C   0  0  0  0  0  0  0  0  0  0  0  0
    7.4533  -12.4501   25.9111 C   0  0  1  0  0  0  0  0  0  0  0  0
    8.3391  -13.1176   26.9745 C   0  0  0  0  0  0  0  0  0  0  0  0
    6.8571  -13.5331   25.1056 C   0  0  0  0  0  0  0  0  0  0  0  0
    7.7395  -14.3485   24.2466 C   0  0  2  0  0  0  0  0  0  0  0  0
    7.2071  -14.8877   23.0526 N   0  0  0  0  0  0  0  0  0  0  0  0
    8.2393  -15.4876   25.1082 C   0  0  0  0  0  0  0  0  0  0  0  0
    7.4033  -16.3180   25.5351 O   0  0  0  0  0  0  0  0  0  0  0  0
   11.4068  -17.3328   24.2601 O   0  0  0  0  0  0  0  0  0  0  0  0
   11.4895  -17.2033   25.6464 C   0  0  0  0  0  0  0  0  0  0  0  0
   10.1247  -16.7920   26.1487 C   0  0  2  0  0  0  0  0  0  0  0  0
    9.6073  -15.6455   25.4454 N   0  0  0  0  0  0  0  0  0  0  0  0
   10.1857  -16.5764   27.6083 C   0  0  0  0  0  0  0  0  0  0  0  0
    9.8609  -15.3764   28.2193 O   0  0  0  0  0  0  0  0  0  0  0  0
   10.5508  -17.5293   28.3345 O   0  0  0  0  0  0  0  0  0  0  0  0
  2  1  1  1
  2  4  1  0
  3  2  1  0
  4  5  2  0
  7  6  1  1
  7  9  1  0
  8  7  1  0
 10  9  1  1
 10 12  1  0
 11 10  1  0
 11  4  1  0
 12 13  2  0
 15 14  1  0
 16 15  1  6
 16 18  1  0
 17 16  1  0
 17 12  1  0
 18 20  2  0
 18 19  1  0
M  END
$$$$
