ALS.pdb
     RDKit          3D

 20 19  0  0  1  0  0  0  0  0999 V2000
    7.2792  -17.1472   20.9195 C   0  0  0  0  0  0  0  0  0  0  0  0
    7.3518  -15.6430   21.1828 C   0  0  2  0  0  0  0  0  0  0  0  0
    8.2045  -15.0829   20.1612 N   0  0  0  0  0  0  0  0  0  0  0  0
    7.9339  -15.3879   22.5023 C   0  0  0  0  0  0  0  0  0  0  0  0
    9.2102  -15.4020   22.5988 O   0  0  0  0  0  0  0  0  0  0  0  0
    5.9135  -11.9820   26.6813 C   0  0  0  0  0  0  0  0  0  0  0  0
    6.7587  -12.6227   25.6079 C   0  0  1  0  0  0  0  0  0  0  0  0
    8.0937  -11.8620   25.6125 C   0  0  0  0  0  0  0  0  0  0  0  0
    7.0671  -14.0359   25.8986 C   0  0  0  0  0  0  0  0  0  0  0  0
    7.8052  -14.8244   24.8911 C   0  0  2  0  0  0  0  0  0  0  0  0
    7.1614  -15.1280   23.6691 N   0  0  0  0  0  0  0  0  0  0  0  0
    8.1936  -16.1219   25.5659 C   0  0  0  0  0  0  0  0  0  0  0  0
    7.2806  -16.9168   25.8904 O   0  0  0  0  0  0  0  0  0  0  0  0
   12.0674  -17.4323   25.4205 O   0  0  0  0  0  0  0  0  0  0  0  0
   11.0492  -18.3765   25.5524 C   0  0  0  0  0  0  0  0  0  0  0  0
    9.9437  -17.7449   26.3668 C   0  0  2  0  0  0  0  0  0  0  0  0
    9.5414  -16.4650   25.8406 N   0  0  0  0  0  0  0  0  0  0  0  0
   10.3626  -17.6655   27.7806 C   0  0  0  0  0  0  0  0  0  0  0  0
   10.7993  -18.7575   28.5124 O   0  0  0  0  0  0  0  0  0  0  0  0
   10.3214  -16.5508   28.3504 O   0  0  0  0  0  0  0  0  0  0  0  0
  2  1  1  6
  2  4  1  0
  3  2  1  0
  4  5  2  0
  7  6  1  1
  7  9  1  0
  8  7  1  0
 10  9  1  1
 10 12  1  0
 11 10  1  0
 11  4  1  0
 12 13  2  0
 15 14  1  0
 16 15  1  6
 16 18  1  0
 17 16  1  0
 17 12  1  0
 18 20  2  0
 18 19  1  0
M  END
$$$$
