ALS.pdb
     RDKit          3D

 20 19  0  0  1  0  0  0  0  0999 V2000
    8.8420  -17.9895   21.7519 C   0  0  0  0  0  0  0  0  0  0  0  0
    8.6637  -16.4989   21.4631 C   0  0  2  0  0  0  0  0  0  0  0  0
    9.6719  -16.1396   20.4942 N   0  0  0  0  0  0  0  0  0  0  0  0
    8.8597  -15.7193   22.6875 C   0  0  0  0  0  0  0  0  0  0  0  0
   10.0605  -15.4136   23.0084 O   0  0  0  0  0  0  0  0  0  0  0  0
    8.2751  -11.8281   26.3093 C   0  0  0  0  0  0  0  0  0  0  0  0
    7.2496  -12.9218   26.4797 C   0  0  1  0  0  0  0  0  0  0  0  0
    5.9376  -12.2148   26.8537 C   0  0  0  0  0  0  0  0  0  0  0  0
    6.9984  -13.6621   25.2284 C   0  0  0  0  0  0  0  0  0  0  0  0
    8.0709  -14.5173   24.6808 C   0  0  2  0  0  0  0  0  0  0  0  0
    7.7951  -15.2896   23.5287 N   0  0  0  0  0  0  0  0  0  0  0  0
    8.4845  -15.4503   25.7981 C   0  0  0  0  0  0  0  0  0  0  0  0
    7.6924  -16.3627   26.1311 O   0  0  0  0  0  0  0  0  0  0  0  0
   12.3704  -16.1562   26.5803 O   0  0  0  0  0  0  0  0  0  0  0  0
   11.3835  -17.0693   26.9515 C   0  0  0  0  0  0  0  0  0  0  0  0
   10.1948  -16.2796   27.4490 C   0  0  2  0  0  0  0  0  0  0  0  0
    9.7248  -15.3284   26.4738 N   0  0  0  0  0  0  0  0  0  0  0  0
   10.5357  -15.6429   28.7371 C   0  0  0  0  0  0  0  0  0  0  0  0
   10.9507  -16.3490   29.8542 O   0  0  0  0  0  0  0  0  0  0  0  0
   10.4452  -14.3968   28.8258 O   0  0  0  0  0  0  0  0  0  0  0  0
  2  1  1  1
  2  4  1  0
  3  2  1  0
  4  5  2  0
  7  6  1  6
  7  9  1  0
  8  7  1  0
 10  9  1  1
 10 12  1  0
 11 10  1  0
 11  4  1  0
 12 13  2  0
 15 14  1  0
 16 15  1  6
 16 18  1  0
 17 16  1  0
 17 12  1  0
 18 20  2  0
 18 19  1  0
M  END
$$$$
