ALS.pdb
     RDKit          3D

 20 19  0  0  1  0  0  0  0  0999 V2000
    7.7272  -19.0610   22.7433 C   0  0  0  0  0  0  0  0  0  0  0  0
    7.4470  -17.6413   22.2504 C   0  0  2  0  0  0  0  0  0  0  0  0
    8.1762  -17.4787   21.0150 N   0  0  0  0  0  0  0  0  0  0  0  0
    7.9199  -16.6625   23.2320 C   0  0  0  0  0  0  0  0  0  0  0  0
    9.1826  -16.4698   23.3144 O   0  0  0  0  0  0  0  0  0  0  0  0
    8.0474  -11.8918   25.7161 C   0  0  0  0  0  0  0  0  0  0  0  0
    7.2016  -12.9110   26.4392 C   0  0  1  0  0  0  0  0  0  0  0  0
    6.0022  -12.1366   27.0073 C   0  0  0  0  0  0  0  0  0  0  0  0
    6.6590  -13.9414   25.5332 C   0  0  0  0  0  0  0  0  0  0  0  0
    7.5871  -14.9231   24.9362 C   0  0  2  0  0  0  0  0  0  0  0  0
    7.0567  -15.9233   24.0888 N   0  0  0  0  0  0  0  0  0  0  0  0
    8.2959  -15.5968   26.0910 C   0  0  0  0  0  0  0  0  0  0  0  0
    7.6286  -16.3527   26.8353 O   0  0  0  0  0  0  0  0  0  0  0  0
   12.4382  -15.4089   26.4167 O   0  0  0  0  0  0  0  0  0  0  0  0
   11.7808  -16.5757   26.8067 C   0  0  0  0  0  0  0  0  0  0  0  0
   10.4149  -16.1805   27.3189 C   0  0  2  0  0  0  0  0  0  0  0  0
    9.6751  -15.4038   26.3565 N   0  0  0  0  0  0  0  0  0  0  0  0
   10.5610  -15.4828   28.6122 C   0  0  0  0  0  0  0  0  0  0  0  0
   10.1202  -14.1893   28.8386 O   0  0  0  0  0  0  0  0  0  0  0  0
   11.1134  -16.0925   29.5567 O   0  0  0  0  0  0  0  0  0  0  0  0
  2  1  1  1
  2  4  1  0
  3  2  1  0
  4  5  2  0
  7  6  1  6
  7  9  1  0
  8  7  1  0
 10  9  1  1
 10 12  1  0
 11 10  1  0
 11  4  1  0
 12 13  2  0
 15 14  1  0
 16 15  1  6
 16 18  1  0
 17 16  1  0
 17 12  1  0
 18 20  2  0
 18 19  1  0
M  END
$$$$
