ALS.pdb
     RDKit          3D

 20 19  0  0  1  0  0  0  0  0999 V2000
    6.3664  -19.7386   24.5329 C   0  0  0  0  0  0  0  0  0  0  0  0
    5.5144  -18.4895   24.3072 C   0  0  2  0  0  0  0  0  0  0  0  0
    4.7740  -18.7063   23.0868 N   0  0  0  0  0  0  0  0  0  0  0  0
    6.3725  -17.3120   24.1581 C   0  0  0  0  0  0  0  0  0  0  0  0
    6.8750  -17.0887   23.0022 O   0  0  0  0  0  0  0  0  0  0  0  0
    6.4258  -12.3926   27.2328 C   0  0  0  0  0  0  0  0  0  0  0  0
    6.4214  -13.2713   26.0061 C   0  0  1  0  0  0  0  0  0  0  0  0
    6.6075  -12.3255   24.8095 C   0  0  0  0  0  0  0  0  0  0  0  0
    7.5515  -14.2197   25.9854 C   0  0  0  0  0  0  0  0  0  0  0  0
    7.5391  -15.3189   24.9988 C   0  0  2  0  0  0  0  0  0  0  0  0
    6.6724  -16.4140   25.2208 N   0  0  0  0  0  0  0  0  0  0  0  0
    8.9587  -15.8368   24.9197 C   0  0  0  0  0  0  0  0  0  0  0  0
    9.3165  -16.7113   25.7430 O   0  0  0  0  0  0  0  0  0  0  0  0
   12.5412  -16.5561   21.7670 O   0  0  0  0  0  0  0  0  0  0  0  0
   11.4306  -15.7783   22.0944 C   0  0  0  0  0  0  0  0  0  0  0  0
   11.0154  -16.1446   23.5007 C   0  0  2  0  0  0  0  0  0  0  0  0
    9.8879  -15.3710   23.9556 N   0  0  0  0  0  0  0  0  0  0  0  0
   12.1799  -16.0247   24.4008 C   0  0  0  0  0  0  0  0  0  0  0  0
   13.3505  -16.7474   24.2390 O   0  0  0  0  0  0  0  0  0  0  0  0
   12.1066  -15.2266   25.3634 O   0  0  0  0  0  0  0  0  0  0  0  0
  2  1  1  6
  2  4  1  0
  3  2  1  0
  4  5  2  0
  7  6  1  1
  7  9  1  0
  8  7  1  0
 10  9  1  1
 10 12  1  0
 11 10  1  0
 11  4  1  0
 12 13  2  0
 15 14  1  0
 16 15  1  6
 16 18  1  0
 17 16  1  0
 17 12  1  0
 18 20  2  0
 18 19  1  0
M  END
$$$$
