ALS.pdb
     RDKit          3D

 20 19  0  0  1  0  0  0  0  0999 V2000
    8.1870  -18.4819   22.3837 C   0  0  0  0  0  0  0  0  0  0  0  0
    7.9495  -17.0666   21.8568 C   0  0  2  0  0  0  0  0  0  0  0  0
    8.8331  -16.8893   20.7288 N   0  0  0  0  0  0  0  0  0  0  0  0
    8.2706  -16.0810   22.8915 C   0  0  0  0  0  0  0  0  0  0  0  0
    9.4894  -15.7028   22.9906 O   0  0  0  0  0  0  0  0  0  0  0  0
    7.9490  -11.6755   25.9380 C   0  0  0  0  0  0  0  0  0  0  0  0
    7.1011  -12.8088   26.4612 C   0  0  1  0  0  0  0  0  0  0  0  0
    5.8198  -12.1596   27.0068 C   0  0  0  0  0  0  0  0  0  0  0  0
    6.6902  -13.7457   25.3980 C   0  0  0  0  0  0  0  0  0  0  0  0
    7.7117  -14.6205   24.7875 C   0  0  2  0  0  0  0  0  0  0  0  0
    7.3073  -15.5289   23.7820 N   0  0  0  0  0  0  0  0  0  0  0  0
    8.3348  -15.4044   25.9220 C   0  0  0  0  0  0  0  0  0  0  0  0
    7.6228  -16.2418   26.5241 O   0  0  0  0  0  0  0  0  0  0  0  0
   12.4238  -15.4397   26.4394 O   0  0  0  0  0  0  0  0  0  0  0  0
   11.6800  -16.5473   26.8463 C   0  0  0  0  0  0  0  0  0  0  0  0
   10.3328  -16.0460   27.3131 C   0  0  2  0  0  0  0  0  0  0  0  0
    9.6829  -15.2254   26.3226 N   0  0  0  0  0  0  0  0  0  0  0  0
   10.4917  -15.3487   28.6050 C   0  0  0  0  0  0  0  0  0  0  0  0
   10.1611  -14.0182   28.8029 O   0  0  0  0  0  0  0  0  0  0  0  0
   10.9503  -15.9941   29.5756 O   0  0  0  0  0  0  0  0  0  0  0  0
  2  1  1  1
  2  4  1  0
  3  2  1  0
  4  5  2  0
  7  6  1  6
  7  9  1  0
  8  7  1  0
 10  9  1  1
 10 12  1  0
 11 10  1  0
 11  4  1  0
 12 13  2  0
 15 14  1  0
 16 15  1  6
 16 18  1  0
 17 16  1  0
 17 12  1  0
 18 20  2  0
 18 19  1  0
M  END
$$$$
