ALS.pdb
     RDKit          3D

 20 19  0  0  1  0  0  0  0  0999 V2000
    6.2646  -19.3955   24.0345 C   0  0  0  0  0  0  0  0  0  0  0  0
    5.5940  -18.0295   23.8882 C   0  0  2  0  0  0  0  0  0  0  0  0
    4.9677  -18.0111   22.5875 N   0  0  0  0  0  0  0  0  0  0  0  0
    6.5954  -16.9634   23.9660 C   0  0  0  0  0  0  0  0  0  0  0  0
    7.3558  -16.7908   22.9510 O   0  0  0  0  0  0  0  0  0  0  0  0
    6.3062  -12.1717   27.0526 C   0  0  0  0  0  0  0  0  0  0  0  0
    6.5325  -13.0483   25.8454 C   0  0  1  0  0  0  0  0  0  0  0  0
    6.9363  -12.1002   24.7057 C   0  0  0  0  0  0  0  0  0  0  0  0
    7.6486  -13.9946   26.0344 C   0  0  0  0  0  0  0  0  0  0  0  0
    7.7788  -15.1351   25.1049 C   0  0  2  0  0  0  0  0  0  0  0  0
    6.7637  -16.1197   25.0998 N   0  0  0  0  0  0  0  0  0  0  0  0
    9.0962  -15.8038   25.4323 C   0  0  0  0  0  0  0  0  0  0  0  0
    9.4624  -15.8352   26.6305 O   0  0  0  0  0  0  0  0  0  0  0  0
   10.3583  -19.1028   24.4762 O   0  0  0  0  0  0  0  0  0  0  0  0
   11.4227  -18.2939   24.0784 C   0  0  0  0  0  0  0  0  0  0  0  0
   11.2265  -16.9364   24.7132 C   0  0  2  0  0  0  0  0  0  0  0  0
    9.9215  -16.3898   24.4397 N   0  0  0  0  0  0  0  0  0  0  0  0
   12.3151  -16.0350   24.2853 C   0  0  0  0  0  0  0  0  0  0  0  0
   13.6386  -16.2017   24.6586 O   0  0  0  0  0  0  0  0  0  0  0  0
   12.0276  -15.0667   23.5447 O   0  0  0  0  0  0  0  0  0  0  0  0
  2  1  1  6
  2  4  1  0
  3  2  1  0
  4  5  2  0
  7  6  1  1
  7  9  1  0
  8  7  1  0
 10  9  1  1
 10 12  1  0
 11 10  1  0
 11  4  1  0
 12 13  2  0
 15 14  1  0
 16 15  1  6
 16 18  1  0
 17 16  1  0
 17 12  1  0
 18 20  2  0
 18 19  1  0
M  END
$$$$
