ALS.pdb
     RDKit          3D

 20 19  0  0  1  0  0  0  0  0999 V2000
    8.4573  -17.7815   21.0742 C   0  0  0  0  0  0  0  0  0  0  0  0
    8.4564  -16.2556   20.9805 C   0  0  2  0  0  0  0  0  0  0  0  0
    9.5353  -15.8931   20.0923 N   0  0  0  0  0  0  0  0  0  0  0  0
    8.6895  -15.6676   22.3015 C   0  0  0  0  0  0  0  0  0  0  0  0
    9.8919  -15.6561   22.7403 O   0  0  0  0  0  0  0  0  0  0  0  0
    8.3315  -12.0258   26.2319 C   0  0  0  0  0  0  0  0  0  0  0  0
    7.2475  -13.0720   26.3176 C   0  0  1  0  0  0  0  0  0  0  0  0
    5.9821  -12.3313   26.7768 C   0  0  0  0  0  0  0  0  0  0  0  0
    6.9407  -13.6776   25.0076 C   0  0  0  0  0  0  0  0  0  0  0  0
    7.9833  -14.4762   24.3319 C   0  0  2  0  0  0  0  0  0  0  0  0
    7.6588  -15.1147   23.1125 N   0  0  0  0  0  0  0  0  0  0  0  0
    8.4237  -15.5299   25.3246 C   0  0  0  0  0  0  0  0  0  0  0  0
    7.5630  -16.3307   25.7589 O   0  0  0  0  0  0  0  0  0  0  0  0
   11.9801  -18.2417   27.0191 O   0  0  0  0  0  0  0  0  0  0  0  0
   11.6539  -17.1295   26.2430 C   0  0  0  0  0  0  0  0  0  0  0  0
   10.2391  -16.7285   26.5920 C   0  0  2  0  0  0  0  0  0  0  0  0
    9.7633  -15.6406   25.7755 N   0  0  0  0  0  0  0  0  0  0  0  0
   10.1589  -16.4259   28.0350 C   0  0  0  0  0  0  0  0  0  0  0  0
    9.8250  -15.1794   28.5387 O   0  0  0  0  0  0  0  0  0  0  0  0
   10.4058  -17.3451   28.8492 O   0  0  0  0  0  0  0  0  0  0  0  0
  2  1  1  1
  2  4  1  0
  3  2  1  0
  4  5  2  0
  7  6  1  6
  7  9  1  0
  8  7  1  0
 10  9  1  1
 10 12  1  0
 11 10  1  0
 11  4  1  0
 12 13  2  0
 15 14  1  0
 16 15  1  6
 16 18  1  0
 17 16  1  0
 17 12  1  0
 18 20  2  0
 18 19  1  0
M  END
$$$$
