ALS.pdb
     RDKit          3D

 20 19  0  0  1  0  0  0  0  0999 V2000
    7.1771  -16.7320   20.8319 C   0  0  0  0  0  0  0  0  0  0  0  0
    7.2707  -15.2156   21.0019 C   0  0  2  0  0  0  0  0  0  0  0  0
    8.0857  -14.7251   19.9159 N   0  0  0  0  0  0  0  0  0  0  0  0
    7.9069  -14.8881   22.2798 C   0  0  0  0  0  0  0  0  0  0  0  0
    9.1833  -14.7941   22.2984 O   0  0  0  0  0  0  0  0  0  0  0  0
    5.8239  -11.9496   26.7995 C   0  0  0  0  0  0  0  0  0  0  0  0
    6.7565  -12.3831   25.6952 C   0  0  1  0  0  0  0  0  0  0  0  0
    8.0315  -11.5429   25.8663 C   0  0  0  0  0  0  0  0  0  0  0  0
    7.1544  -13.7989   25.8138 C   0  0  0  0  0  0  0  0  0  0  0  0
    7.8832  -14.4287   24.6941 C   0  0  2  0  0  0  0  0  0  0  0  0
    7.1862  -14.6715   23.4879 N   0  0  0  0  0  0  0  0  0  0  0  0
    8.4130  -15.7460   25.2175 C   0  0  0  0  0  0  0  0  0  0  0  0
    7.6185  -16.7115   25.3029 O   0  0  0  0  0  0  0  0  0  0  0  0
   12.0658  -18.7392   25.6100 O   0  0  0  0  0  0  0  0  0  0  0  0
   11.6411  -17.4589   25.2552 C   0  0  0  0  0  0  0  0  0  0  0  0
   10.3283  -17.2021   25.9588 C   0  0  2  0  0  0  0  0  0  0  0  0
    9.7636  -15.9229   25.6103 N   0  0  0  0  0  0  0  0  0  0  0  0
   10.5163  -17.3561   27.4153 C   0  0  0  0  0  0  0  0  0  0  0  0
   10.9534  -18.5276   28.0114 O   0  0  0  0  0  0  0  0  0  0  0  0
   10.2674  -16.3751   28.1532 O   0  0  0  0  0  0  0  0  0  0  0  0
  2  1  1  6
  2  4  1  0
  3  2  1  0
  4  5  2  0
  7  6  1  1
  7  9  1  0
  8  7  1  0
 10  9  1  1
 10 12  1  0
 11 10  1  0
 11  4  1  0
 12 13  2  0
 15 14  1  0
 16 15  1  6
 16 18  1  0
 17 16  1  0
 17 12  1  0
 18 20  2  0
 18 19  1  0
M  END
$$$$
