DFC.pdb
     RDKit          3D

 26 26  0  0  1  0  0  0  0  0999 V2000
    9.4049  -18.5460   18.7093 N   0  0  0  0  0  0  0  0  0  0  0  0
   10.6171  -17.7163   18.5392 C   0  0  1  0  0  0  0  0  0  0  0  0
   10.3272  -16.7902   17.3789 C   0  0  0  0  0  0  0  0  0  0  0  0
   10.2586  -17.4742   16.0866 C   0  0  0  0  0  0  0  0  0  0  0  0
   10.1139  -18.7154   16.0723 O   0  0  0  0  0  0  0  0  0  0  0  0
   10.6728  -16.8881   19.7761 C   0  0  0  0  0  0  0  0  0  0  0  0
   11.5753  -16.0054   19.8241 O   0  0  0  0  0  0  0  0  0  0  0  0
   10.3484  -16.8127   14.8811 O   0  0  0  0  0  0  0  0  0  0  0  0
    9.7989  -17.0248   20.8748 N   0  0  0  0  0  0  0  0  0  0  0  0
    9.9277  -16.2686   22.1267 C   0  0  1  0  0  0  0  0  0  0  0  0
    8.6560  -15.6269   22.4997 C   0  0  0  0  0  0  0  0  0  0  0  0
    8.1336  -14.5621   21.6352 C   0  0  0  0  0  0  0  0  0  0  0  0
    6.9481  -14.7140   20.9172 C   0  0  0  0  0  0  0  0  0  0  0  0
    6.4333  -13.7201   20.1486 C   0  0  0  0  0  0  0  0  0  0  0  0
    7.0935  -12.4973   20.0579 C   0  0  0  0  0  0  0  0  0  0  0  0
    8.2676  -12.3355   20.7641 C   0  0  0  0  0  0  0  0  0  0  0  0
    8.7583  -13.3464   21.5241 C   0  0  0  0  0  0  0  0  0  0  0  0
   10.6133  -17.0667   23.1378 C   0  0  0  0  0  0  0  0  0  0  0  0
   10.3528  -18.3272   23.1422 O   0  0  0  0  0  0  0  0  0  0  0  0
   11.5325  -16.6581   24.1149 N   0  0  0  0  0  0  0  0  0  0  0  0
   12.1982  -17.6068   25.0075 C   0  0  1  0  0  0  0  0  0  0  0  0
   13.5461  -17.0667   25.4493 C   0  0  0  0  0  0  0  0  0  0  0  0
   14.4905  -16.6769   23.9499 S   0  0  0  0  0  0  0  0  0  0  0  0
   11.3805  -17.8435   26.2013 C   0  0  0  0  0  0  0  0  0  0  0  0
   11.7738  -18.7512   27.2004 O   0  0  0  0  0  0  0  0  0  0  0  0
   10.3051  -17.2451   26.3700 O   0  0  0  0  0  0  0  0  0  0  0  0
  2  1  1  1
  2  6  1  0
  2  3  1  0
  3  4  1  0
  4  5  2  0
  6  7  2  0
  8  4  1  0
  9 10  1  0
  9  6  1  0
 10 18  1  0
 11 12  1  0
 10 11  1  1
 12 17  2  0
 13 14  2  0
 13 12  1  0
 14 15  1  0
 15 16  2  0
 17 16  1  0
 18 19  2  0
 20 21  1  0
 20 18  1  0
 21 24  1  0
 21 22  1  1
 23 22  1  0
 24 26  2  0
 24 25  1  0
M  END
$$$$
