DFC.pdb
     RDKit          3D

 26 26  0  0  1  0  0  0  0  0999 V2000
    8.7980  -18.4363   20.3795 N   0  0  0  0  0  0  0  0  0  0  0  0
   10.1014  -17.7384   20.4060 C   0  0  1  0  0  0  0  0  0  0  0  0
   10.2239  -17.0362   19.0719 C   0  0  0  0  0  0  0  0  0  0  0  0
   10.6688  -17.9128   17.9873 C   0  0  0  0  0  0  0  0  0  0  0  0
   10.4098  -19.1333   18.0586 O   0  0  0  0  0  0  0  0  0  0  0  0
    9.9378  -16.6928   21.4542 C   0  0  0  0  0  0  0  0  0  0  0  0
   10.9357  -15.9486   21.6696 O   0  0  0  0  0  0  0  0  0  0  0  0
   11.3637  -17.4551   16.8889 O   0  0  0  0  0  0  0  0  0  0  0  0
    8.7625  -16.4857   22.2061 N   0  0  0  0  0  0  0  0  0  0  0  0
    8.6442  -15.5061   23.2934 C   0  0  1  0  0  0  0  0  0  0  0  0
    7.5368  -14.5663   23.0515 C   0  0  0  0  0  0  0  0  0  0  0  0
    7.4670  -13.8930   21.7492 C   0  0  0  0  0  0  0  0  0  0  0  0
    8.1889  -12.7300   21.4838 C   0  0  0  0  0  0  0  0  0  0  0  0
    8.1655  -12.1232   20.2694 C   0  0  0  0  0  0  0  0  0  0  0  0
    7.4018  -12.6616   19.2368 C   0  0  0  0  0  0  0  0  0  0  0  0
    6.6833  -13.8123   19.4878 C   0  0  0  0  0  0  0  0  0  0  0  0
    6.7257  -14.3967   20.7113 C   0  0  0  0  0  0  0  0  0  0  0  0
    8.7048  -16.1722   24.5904 C   0  0  0  0  0  0  0  0  0  0  0  0
    8.5468  -15.4223   25.6244 O   0  0  0  0  0  0  0  0  0  0  0  0
    8.9058  -17.5295   24.8801 N   0  0  0  0  0  0  0  0  0  0  0  0
    8.9111  -18.0443   26.2494 C   0  0  1  0  0  0  0  0  0  0  0  0
    7.8527  -19.1189   26.4186 C   0  0  0  0  0  0  0  0  0  0  0  0
    6.3040  -18.4652   25.7358 S   0  0  0  0  0  0  0  0  0  0  0  0
   10.2178  -18.6269   26.5700 C   0  0  0  0  0  0  0  0  0  0  0  0
   10.5062  -19.1421   27.8459 O   0  0  0  0  0  0  0  0  0  0  0  0
   11.1197  -18.6847   25.7177 O   0  0  0  0  0  0  0  0  0  0  0  0
  2  1  1  6
  2  6  1  0
  2  3  1  0
  3  4  1  0
  4  5  2  0
  6  7  2  0
  8  4  1  0
  9 10  1  0
  9  6  1  0
 10 18  1  0
 11 12  1  0
 10 11  1  6
 12 17  2  0
 13 14  2  0
 13 12  1  0
 14 15  1  0
 15 16  2  0
 17 16  1  0
 18 19  2  0
 20 21  1  0
 20 18  1  0
 21 24  1  0
 21 22  1  6
 23 22  1  0
 24 26  2  0
 24 25  1  0
M  END
$$$$
