DFC.pdb
     RDKit          3D

 26 26  0  0  1  0  0  0  0  0999 V2000
    9.1431  -17.5950   20.3837 N   0  0  0  0  0  0  0  0  0  0  0  0
   10.5053  -17.3859   20.9197 C   0  0  1  0  0  0  0  0  0  0  0  0
   11.2816  -16.6925   19.8222 C   0  0  0  0  0  0  0  0  0  0  0  0
   11.4443  -17.5060   18.6161 C   0  0  0  0  0  0  0  0  0  0  0  0
   11.4345  -18.7507   18.7270 O   0  0  0  0  0  0  0  0  0  0  0  0
   10.3186  -16.4088   22.0284 C   0  0  0  0  0  0  0  0  0  0  0  0
   11.3528  -15.8021   22.4263 O   0  0  0  0  0  0  0  0  0  0  0  0
   11.6105  -16.9628   17.3608 O   0  0  0  0  0  0  0  0  0  0  0  0
    9.0844  -16.1241   22.6493 N   0  0  0  0  0  0  0  0  0  0  0  0
    8.9399  -15.2817   23.8432 C   0  0  1  0  0  0  0  0  0  0  0  0
    7.6575  -14.5580   23.8378 C   0  0  0  0  0  0  0  0  0  0  0  0
    7.2928  -13.7790   25.0270 C   0  0  0  0  0  0  0  0  0  0  0  0
    7.7358  -12.4700   25.2122 C   0  0  0  0  0  0  0  0  0  0  0  0
    7.3695  -11.7256   26.2870 C   0  0  0  0  0  0  0  0  0  0  0  0
    6.5228  -12.2655   27.2517 C   0  0  0  0  0  0  0  0  0  0  0  0
    6.0780  -13.5600   27.0790 C   0  0  0  0  0  0  0  0  0  0  0  0
    6.4607  -14.2802   25.9950 C   0  0  0  0  0  0  0  0  0  0  0  0
    9.2973  -16.0306   25.0435 C   0  0  0  0  0  0  0  0  0  0  0  0
    8.9544  -17.2710   25.0648 O   0  0  0  0  0  0  0  0  0  0  0  0
    9.9752  -15.5935   26.1907 N   0  0  0  0  0  0  0  0  0  0  0  0
   10.5317  -16.5246   27.1723 C   0  0  1  0  0  0  0  0  0  0  0  0
   12.0385  -16.3662   27.2621 C   0  0  0  0  0  0  0  0  0  0  0  0
   12.3797  -14.6157   27.5956 S   0  0  0  0  0  0  0  0  0  0  0  0
    9.9596  -16.2699   28.4980 C   0  0  0  0  0  0  0  0  0  0  0  0
   10.2723  -17.0755   29.6071 O   0  0  0  0  0  0  0  0  0  0  0  0
    9.1736  -15.3264   28.6860 O   0  0  0  0  0  0  0  0  0  0  0  0
  2  1  1  6
  2  6  1  0
  2  3  1  0
  3  4  1  0
  4  5  2  0
  6  7  2  0
  8  4  1  0
  9 10  1  0
  9  6  1  0
 10 18  1  0
 11 12  1  0
 10 11  1  1
 12 17  2  0
 13 14  2  0
 13 12  1  0
 14 15  1  0
 15 16  2  0
 17 16  1  0
 18 19  2  0
 20 21  1  0
 20 18  1  0
 21 24  1  0
 21 22  1  1
 23 22  1  0
 24 26  2  0
 24 25  1  0
M  END
$$$$
