DFC.pdb
     RDKit          3D

 26 26  0  0  1  0  0  0  0  0999 V2000
   11.1250  -16.6119   20.0069 N   0  0  0  0  0  0  0  0  0  0  0  0
   10.0091  -17.1712   20.7999 C   0  0  1  0  0  0  0  0  0  0  0  0
   10.4559  -18.5507   21.2304 C   0  0  0  0  0  0  0  0  0  0  0  0
   10.6423  -19.4805   20.1152 C   0  0  0  0  0  0  0  0  0  0  0  0
    9.6531  -19.7796   19.4125 O   0  0  0  0  0  0  0  0  0  0  0  0
    9.9556  -16.3130   22.0162 C   0  0  0  0  0  0  0  0  0  0  0  0
   11.0623  -16.0266   22.5540 O   0  0  0  0  0  0  0  0  0  0  0  0
   11.8601  -20.0451   19.8038 O   0  0  0  0  0  0  0  0  0  0  0  0
    8.7709  -15.8100   22.5934 N   0  0  0  0  0  0  0  0  0  0  0  0
    8.7345  -14.9789   23.8032 C   0  0  1  0  0  0  0  0  0  0  0  0
    7.5628  -14.0870   23.8070 C   0  0  0  0  0  0  0  0  0  0  0  0
    7.2605  -13.3400   25.0336 C   0  0  0  0  0  0  0  0  0  0  0  0
    7.9400  -12.1690   25.3670 C   0  0  0  0  0  0  0  0  0  0  0  0
    7.6391  -11.4468   26.4767 C   0  0  0  0  0  0  0  0  0  0  0  0
    6.6207  -11.8694   27.3274 C   0  0  0  0  0  0  0  0  0  0  0  0
    5.9414  -13.0268   27.0076 C   0  0  0  0  0  0  0  0  0  0  0  0
    6.2640  -13.7281   25.8920 C   0  0  0  0  0  0  0  0  0  0  0  0
    8.9783  -15.7925   24.9898 C   0  0  0  0  0  0  0  0  0  0  0  0
    8.2336  -16.8328   25.1307 O   0  0  0  0  0  0  0  0  0  0  0  0
    9.9226  -15.6091   26.0103 N   0  0  0  0  0  0  0  0  0  0  0  0
   10.0810  -16.5616   27.1093 C   0  0  1  0  0  0  0  0  0  0  0  0
   11.3249  -17.4073   26.9060 C   0  0  0  0  0  0  0  0  0  0  0  0
   12.6890  -16.2775   26.5127 S   0  0  0  0  0  0  0  0  0  0  0  0
   10.2078  -15.8511   28.3855 C   0  0  0  0  0  0  0  0  0  0  0  0
   10.3670  -16.5369   29.6025 O   0  0  0  0  0  0  0  0  0  0  0  0
   10.1782  -14.6101   28.4334 O   0  0  0  0  0  0  0  0  0  0  0  0
  2  1  1  6
  2  6  1  0
  2  3  1  0
  3  4  1  0
  4  5  2  0
  6  7  2  0
  8  4  1  0
  9 10  1  0
  9  6  1  0
 10 18  1  0
 11 12  1  0
 10 11  1  1
 12 17  2  0
 13 14  2  0
 13 12  1  0
 14 15  1  0
 15 16  2  0
 17 16  1  0
 18 19  2  0
 20 21  1  0
 20 18  1  0
 21 24  1  0
 21 22  1  6
 23 22  1  0
 24 26  2  0
 24 25  1  0
M  END
$$$$
