DFC.pdb
     RDKit          3D

 26 26  0  0  1  0  0  0  0  0999 V2000
   11.1746  -16.6013   20.3439 N   0  0  0  0  0  0  0  0  0  0  0  0
    9.9924  -17.1510   21.0417 C   0  0  1  0  0  0  0  0  0  0  0  0
   10.3903  -18.5344   21.5062 C   0  0  0  0  0  0  0  0  0  0  0  0
   10.5440  -19.4972   20.4142 C   0  0  0  0  0  0  0  0  0  0  0  0
   11.6967  -19.7846   20.0265 O   0  0  0  0  0  0  0  0  0  0  0  0
    9.8463  -16.2926   22.2503 C   0  0  0  0  0  0  0  0  0  0  0  0
   10.9153  -15.8801   22.7822 O   0  0  0  0  0  0  0  0  0  0  0  0
    9.4746  -20.1019   19.7902 O   0  0  0  0  0  0  0  0  0  0  0  0
    8.6142  -15.9189   22.8263 N   0  0  0  0  0  0  0  0  0  0  0  0
    8.4863  -15.0397   23.9952 C   0  0  1  0  0  0  0  0  0  0  0  0
    7.2952  -14.1799   23.8928 C   0  0  0  0  0  0  0  0  0  0  0  0
    6.9939  -13.2725   25.0063 C   0  0  0  0  0  0  0  0  0  0  0  0
    7.7651  -12.1389   25.2597 C   0  0  0  0  0  0  0  0  0  0  0  0
    7.4698  -11.2696   26.2600 C   0  0  0  0  0  0  0  0  0  0  0  0
    6.3636  -11.4960   27.0751 C   0  0  0  0  0  0  0  0  0  0  0  0
    5.5930  -12.6147   26.8337 C   0  0  0  0  0  0  0  0  0  0  0  0
    5.9123  -13.4659   25.8268 C   0  0  0  0  0  0  0  0  0  0  0  0
    8.6792  -15.7967   25.2278 C   0  0  0  0  0  0  0  0  0  0  0  0
    8.7221  -15.1118   26.3167 O   0  0  0  0  0  0  0  0  0  0  0  0
    8.8198  -17.1808   25.4039 N   0  0  0  0  0  0  0  0  0  0  0  0
    8.9787  -17.7887   26.7250 C   0  0  1  0  0  0  0  0  0  0  0  0
    8.3666  -19.1774   26.7494 C   0  0  0  0  0  0  0  0  0  0  0  0
    6.6519  -19.0231   26.1770 S   0  0  0  0  0  0  0  0  0  0  0  0
   10.4000  -17.9032   27.0660 C   0  0  0  0  0  0  0  0  0  0  0  0
   10.8280  -18.4870   28.2713 O   0  0  0  0  0  0  0  0  0  0  0  0
   11.2794  -17.4846   26.2949 O   0  0  0  0  0  0  0  0  0  0  0  0
  2  1  1  6
  2  6  1  0
  2  3  1  0
  3  4  1  0
  4  5  2  0
  6  7  2  0
  8  4  1  0
  9 10  1  0
  9  6  1  0
 10 18  1  0
 11 12  1  0
 10 11  1  1
 12 17  2  0
 13 14  2  0
 13 12  1  0
 14 15  1  0
 15 16  2  0
 17 16  1  0
 18 19  2  0
 20 21  1  0
 20 18  1  0
 21 24  1  0
 21 22  1  6
 23 22  1  0
 24 26  2  0
 24 25  1  0
M  END
$$$$
