DFC.pdb
     RDKit          3D

 26 26  0  0  1  0  0  0  0  0999 V2000
    9.8973  -15.3064   19.9640 N   0  0  0  0  0  0  0  0  0  0  0  0
    9.0411  -16.3106   20.6313 C   0  0  1  0  0  0  0  0  0  0  0  0
    9.7202  -17.6448   20.4154 C   0  0  0  0  0  0  0  0  0  0  0  0
    9.5838  -18.1575   19.0511 C   0  0  0  0  0  0  0  0  0  0  0  0
   10.6102  -18.2680   18.3469 O   0  0  0  0  0  0  0  0  0  0  0  0
    9.1454  -15.9790   22.0797 C   0  0  0  0  0  0  0  0  0  0  0  0
   10.2810  -15.6123   22.4944 O   0  0  0  0  0  0  0  0  0  0  0  0
    8.3732  -18.5232   18.5039 O   0  0  0  0  0  0  0  0  0  0  0  0
    8.0775  -16.0472   22.9986 N   0  0  0  0  0  0  0  0  0  0  0  0
    8.2005  -15.7299   24.4269 C   0  0  1  0  0  0  0  0  0  0  0  0
    6.9229  -15.2539   24.9833 C   0  0  0  0  0  0  0  0  0  0  0  0
    6.8763  -13.9082   25.5671 C   0  0  0  0  0  0  0  0  0  0  0  0
    5.6822  -13.3400   26.0093 C   0  0  0  0  0  0  0  0  0  0  0  0
    5.6339  -12.1138   26.5903 C   0  0  0  0  0  0  0  0  0  0  0  0
    6.8039  -11.3782   26.7618 C   0  0  0  0  0  0  0  0  0  0  0  0
    7.9915  -11.9303   26.3281 C   0  0  0  0  0  0  0  0  0  0  0  0
    8.0093  -13.1579   25.7509 C   0  0  0  0  0  0  0  0  0  0  0  0
    8.8953  -16.8028   25.1309 C   0  0  0  0  0  0  0  0  0  0  0  0
    8.3285  -17.9582   25.1113 O   0  0  0  0  0  0  0  0  0  0  0  0
   10.1105  -16.7615   25.8297 N   0  0  0  0  0  0  0  0  0  0  0  0
   10.6928  -17.9482   26.4562 C   0  0  1  0  0  0  0  0  0  0  0  0
   12.1733  -18.0472   26.1363 C   0  0  0  0  0  0  0  0  0  0  0  0
   12.3829  -17.5819   24.3952 S   0  0  0  0  0  0  0  0  0  0  0  0
   10.5372  -17.8843   27.9126 C   0  0  0  0  0  0  0  0  0  0  0  0
    9.8734  -16.8158   28.5406 O   0  0  0  0  0  0  0  0  0  0  0  0
   10.9905  -18.7795   28.6451 O   0  0  0  0  0  0  0  0  0  0  0  0
  2  1  1  6
  2  6  1  0
  2  3  1  0
  3  4  1  0
  4  5  2  0
  6  7  2  0
  8  4  1  0
  9 10  1  0
  9  6  1  0
 10 18  1  0
 11 12  1  0
 10 11  1  1
 12 17  2  0
 13 14  2  0
 13 12  1  0
 14 15  1  0
 15 16  2  0
 17 16  1  0
 18 19  2  0
 20 21  1  0
 20 18  1  0
 21 24  1  0
 21 22  1  1
 23 22  1  0
 24 26  2  0
 24 25  1  0
M  END
$$$$
