DFC.pdb
     RDKit          3D

 26 26  0  0  1  0  0  0  0  0999 V2000
    8.9315  -18.0199   20.3126 N   0  0  0  0  0  0  0  0  0  0  0  0
   10.2323  -17.4721   20.7535 C   0  0  1  0  0  0  0  0  0  0  0  0
   10.8233  -16.7812   19.5446 C   0  0  0  0  0  0  0  0  0  0  0  0
   11.4077  -17.7040   18.5701 C   0  0  0  0  0  0  0  0  0  0  0  0
   12.0341  -17.2311   17.5976 O   0  0  0  0  0  0  0  0  0  0  0  0
    9.8718  -16.4201   21.7445 C   0  0  0  0  0  0  0  0  0  0  0  0
    9.4038  -15.3429   21.2791 O   0  0  0  0  0  0  0  0  0  0  0  0
   11.2977  -19.0737   18.6732 O   0  0  0  0  0  0  0  0  0  0  0  0
   10.0170  -16.5487   23.1416 N   0  0  0  0  0  0  0  0  0  0  0  0
    9.5272  -15.5627   24.1132 C   0  0  1  0  0  0  0  0  0  0  0  0
    8.1593  -15.1239   23.7899 C   0  0  0  0  0  0  0  0  0  0  0  0
    7.5120  -14.1514   24.6782 C   0  0  0  0  0  0  0  0  0  0  0  0
    7.7805  -12.7858   24.5928 C   0  0  0  0  0  0  0  0  0  0  0  0
    7.1554  -11.8732   25.3801 C   0  0  0  0  0  0  0  0  0  0  0  0
    6.2094  -12.2903   26.3131 C   0  0  0  0  0  0  0  0  0  0  0  0
    5.9355  -13.6392   26.4065 C   0  0  0  0  0  0  0  0  0  0  0  0
    6.5759  -14.5283   25.6066 C   0  0  0  0  0  0  0  0  0  0  0  0
    9.7978  -16.0097   25.4757 C   0  0  0  0  0  0  0  0  0  0  0  0
    9.8607  -17.2825   25.6563 O   0  0  0  0  0  0  0  0  0  0  0  0
   10.0093  -15.2458   26.6325 N   0  0  0  0  0  0  0  0  0  0  0  0
   10.6769  -15.7876   27.8161 C   0  0  1  0  0  0  0  0  0  0  0  0
   10.6367  -14.7859   28.9557 C   0  0  0  0  0  0  0  0  0  0  0  0
   10.3927  -13.1436   28.2242 S   0  0  0  0  0  0  0  0  0  0  0  0
   10.0128  -17.0179   28.2575 C   0  0  0  0  0  0  0  0  0  0  0  0
   10.5369  -17.8123   29.2925 O   0  0  0  0  0  0  0  0  0  0  0  0
    8.9571  -17.4017   27.7272 O   0  0  0  0  0  0  0  0  0  0  0  0
  2  1  1  6
  2  6  1  0
  2  3  1  0
  3  4  1  0
  4  5  2  0
  6  7  2  0
  8  4  1  0
  9 10  1  0
  9  6  1  0
 10 18  1  0
 11 12  1  0
 10 11  1  1
 12 17  2  0
 13 14  2  0
 13 12  1  0
 14 15  1  0
 15 16  2  0
 17 16  1  0
 18 19  2  0
 20 21  1  0
 20 18  1  0
 21 24  1  0
 21 22  1  1
 23 22  1  0
 24 26  2  0
 24 25  1  0
M  END
$$$$
