DFC.pdb
     RDKit          3D

 26 26  0  0  1  0  0  0  0  0999 V2000
   10.6119  -16.3044   19.4252 N   0  0  0  0  0  0  0  0  0  0  0  0
   10.7745  -17.1304   20.6410 C   0  0  1  0  0  0  0  0  0  0  0  0
   12.2368  -17.5140   20.6902 C   0  0  0  0  0  0  0  0  0  0  0  0
   12.5602  -18.4525   21.7659 C   0  0  0  0  0  0  0  0  0  0  0  0
   11.8456  -19.4674   21.9109 O   0  0  0  0  0  0  0  0  0  0  0  0
   10.5163  -16.1867   21.7642 C   0  0  0  0  0  0  0  0  0  0  0  0
   11.1858  -15.1153   21.7664 O   0  0  0  0  0  0  0  0  0  0  0  0
   13.6173  -18.2685   22.6304 O   0  0  0  0  0  0  0  0  0  0  0  0
    9.5900  -16.4095   22.8043 N   0  0  0  0  0  0  0  0  0  0  0  0
    9.2635  -15.4214   23.8400 C   0  0  1  0  0  0  0  0  0  0  0  0
    7.8564  -14.9963   23.7523 C   0  0  0  0  0  0  0  0  0  0  0  0
    7.3419  -14.0771   24.7741 C   0  0  0  0  0  0  0  0  0  0  0  0
    6.5867  -14.5289   25.8557 C   0  0  0  0  0  0  0  0  0  0  0  0
    6.1425  -13.6935   26.8295 C   0  0  0  0  0  0  0  0  0  0  0  0
    6.4381  -12.3340   26.7686 C   0  0  0  0  0  0  0  0  0  0  0  0
    7.1847  -11.8754   25.7030 C   0  0  0  0  0  0  0  0  0  0  0  0
    7.6151  -12.7336   24.7445 C   0  0  0  0  0  0  0  0  0  0  0  0
    9.7664  -15.8570   25.1388 C   0  0  0  0  0  0  0  0  0  0  0  0
    9.7991  -17.1277   25.3405 O   0  0  0  0  0  0  0  0  0  0  0  0
   10.2324  -15.0843   26.2123 N   0  0  0  0  0  0  0  0  0  0  0  0
   10.8485  -15.6823   27.3966 C   0  0  1  0  0  0  0  0  0  0  0  0
   11.2909  -14.6041   28.3689 C   0  0  0  0  0  0  0  0  0  0  0  0
    9.8665  -13.5176   28.6566 S   0  0  0  0  0  0  0  0  0  0  0  0
    9.8930  -16.5589   28.0808 C   0  0  0  0  0  0  0  0  0  0  0  0
    8.5439  -16.6311   27.6917 O   0  0  0  0  0  0  0  0  0  0  0  0
   10.2473  -17.2721   29.0343 O   0  0  0  0  0  0  0  0  0  0  0  0
  2  1  1  6
  2  6  1  0
  2  3  1  0
  3  4  1  0
  4  5  2  0
  6  7  2  0
  8  4  1  0
  9 10  1  0
  9  6  1  0
 10 18  1  0
 11 12  1  0
 10 11  1  1
 12 17  2  0
 13 14  2  0
 13 12  1  0
 14 15  1  0
 15 16  2  0
 17 16  1  0
 18 19  2  0
 20 21  1  0
 20 18  1  0
 21 24  1  0
 21 22  1  1
 23 22  1  0
 24 26  2  0
 24 25  1  0
M  END
$$$$
