DFC.pdb
     RDKit          3D

 26 26  0  0  1  0  0  0  0  0999 V2000
   10.6473  -16.6591   19.5273 N   0  0  0  0  0  0  0  0  0  0  0  0
    9.4157  -17.0441   20.2496 C   0  0  1  0  0  0  0  0  0  0  0  0
    9.5582  -18.5181   20.5574 C   0  0  0  0  0  0  0  0  0  0  0  0
    9.2301  -19.3871   19.4261 C   0  0  0  0  0  0  0  0  0  0  0  0
    9.7586  -19.1537   18.3180 O   0  0  0  0  0  0  0  0  0  0  0  0
    9.4981  -16.3025   21.5388 C   0  0  0  0  0  0  0  0  0  0  0  0
   10.6464  -16.1920   22.0539 O   0  0  0  0  0  0  0  0  0  0  0  0
    8.3618  -20.4525   19.5247 O   0  0  0  0  0  0  0  0  0  0  0  0
    8.3970  -15.7276   22.2070 N   0  0  0  0  0  0  0  0  0  0  0  0
    8.4954  -15.0005   23.4788 C   0  0  1  0  0  0  0  0  0  0  0  0
    7.3568  -14.0853   23.6638 C   0  0  0  0  0  0  0  0  0  0  0  0
    7.2072  -13.4134   24.9600 C   0  0  0  0  0  0  0  0  0  0  0  0
    7.9898  -12.3146   25.3127 C   0  0  0  0  0  0  0  0  0  0  0  0
    7.8303  -11.6589   26.4909 C   0  0  0  0  0  0  0  0  0  0  0  0
    6.8583  -12.0789   27.3953 C   0  0  0  0  0  0  0  0  0  0  0  0
    6.0779  -13.1652   27.0570 C   0  0  0  0  0  0  0  0  0  0  0  0
    6.2599  -13.8010   25.8726 C   0  0  0  0  0  0  0  0  0  0  0  0
    8.8203  -15.9165   24.5674 C   0  0  0  0  0  0  0  0  0  0  0  0
    7.9785  -16.8657   24.7842 O   0  0  0  0  0  0  0  0  0  0  0  0
    9.9338  -15.9189   25.4199 N   0  0  0  0  0  0  0  0  0  0  0  0
   10.1484  -16.9622   26.4226 C   0  0  1  0  0  0  0  0  0  0  0  0
   11.5609  -17.5097   26.3278 C   0  0  0  0  0  0  0  0  0  0  0  0
   11.8038  -18.0880   24.6252 S   0  0  0  0  0  0  0  0  0  0  0  0
    9.9511  -16.4217   27.7711 C   0  0  0  0  0  0  0  0  0  0  0  0
    9.6475  -15.0663   27.9888 O   0  0  0  0  0  0  0  0  0  0  0  0
   10.0466  -17.1496   28.7732 O   0  0  0  0  0  0  0  0  0  0  0  0
  2  1  1  6
  2  6  1  0
  2  3  1  0
  3  4  1  0
  4  5  2  0
  6  7  2  0
  8  4  1  0
  9 10  1  0
  9  6  1  0
 10 18  1  0
 11 12  1  0
 10 11  1  1
 12 17  2  0
 13 14  2  0
 13 12  1  0
 14 15  1  0
 15 16  2  0
 17 16  1  0
 18 19  2  0
 20 21  1  0
 20 18  1  0
 21 24  1  0
 21 22  1  1
 23 22  1  0
 24 26  2  0
 24 25  1  0
M  END
$$$$
