DFC.pdb
     RDKit          3D

 26 26  0  0  1  0  0  0  0  0999 V2000
    9.1138  -17.5236   20.4025 N   0  0  0  0  0  0  0  0  0  0  0  0
   10.4404  -17.4793   21.0544 C   0  0  1  0  0  0  0  0  0  0  0  0
   11.3958  -16.9351   20.0157 C   0  0  0  0  0  0  0  0  0  0  0  0
   11.5269  -17.7907   18.8352 C   0  0  0  0  0  0  0  0  0  0  0  0
   12.4666  -17.5749   18.0400 O   0  0  0  0  0  0  0  0  0  0  0  0
   10.2932  -16.4473   22.1185 C   0  0  0  0  0  0  0  0  0  0  0  0
   11.3608  -15.9392   22.5635 O   0  0  0  0  0  0  0  0  0  0  0  0
   10.6596  -18.8246   18.5571 O   0  0  0  0  0  0  0  0  0  0  0  0
    9.0616  -16.0107   22.6496 N   0  0  0  0  0  0  0  0  0  0  0  0
    8.9368  -15.1029   23.7969 C   0  0  1  0  0  0  0  0  0  0  0  0
    7.6828  -14.3333   23.7388 C   0  0  0  0  0  0  0  0  0  0  0  0
    7.2939  -13.5462   24.9150 C   0  0  0  0  0  0  0  0  0  0  0  0
    7.9030  -12.3293   25.2189 C   0  0  0  0  0  0  0  0  0  0  0  0
    7.5216  -11.5725   26.2797 C   0  0  0  0  0  0  0  0  0  0  0  0
    6.4889  -12.0047   27.1079 C   0  0  0  0  0  0  0  0  0  0  0  0
    5.8788  -13.2074   26.8169 C   0  0  0  0  0  0  0  0  0  0  0  0
    6.2810  -13.9426   25.7501 C   0  0  0  0  0  0  0  0  0  0  0  0
    9.2534  -15.8015   25.0383 C   0  0  0  0  0  0  0  0  0  0  0  0
    8.7111  -16.9581   25.1959 O   0  0  0  0  0  0  0  0  0  0  0  0
   10.0788  -15.3957   26.0970 N   0  0  0  0  0  0  0  0  0  0  0  0
   10.3405  -16.2492   27.2558 C   0  0  1  0  0  0  0  0  0  0  0  0
   11.7694  -16.7603   27.2291 C   0  0  0  0  0  0  0  0  0  0  0  0
   12.0259  -17.7290   28.7417 S   0  0  0  0  0  0  0  0  0  0  0  0
   10.1410  -15.4971   28.4985 C   0  0  0  0  0  0  0  0  0  0  0  0
   10.1205  -16.1313   29.7531 O   0  0  0  0  0  0  0  0  0  0  0  0
    9.9823  -14.2651   28.4830 O   0  0  0  0  0  0  0  0  0  0  0  0
  2  1  1  6
  2  6  1  0
  2  3  1  0
  3  4  1  0
  4  5  2  0
  6  7  2  0
  8  4  1  0
  9 10  1  0
  9  6  1  0
 10 18  1  0
 11 12  1  0
 10 11  1  1
 12 17  2  0
 13 14  2  0
 13 12  1  0
 14 15  1  0
 15 16  2  0
 17 16  1  0
 18 19  2  0
 20 21  1  0
 20 18  1  0
 21 24  1  0
 21 22  1  6
 23 22  1  0
 24 26  2  0
 24 25  1  0
M  END
$$$$
