DFC.pdb
     RDKit          3D

 26 26  0  0  1  0  0  0  0  0999 V2000
    9.2884  -17.6258   20.7894 N   0  0  0  0  0  0  0  0  0  0  0  0
   10.6203  -17.3012   21.3440 C   0  0  1  0  0  0  0  0  0  0  0  0
   11.3848  -16.6314   20.2239 C   0  0  0  0  0  0  0  0  0  0  0  0
   11.5872  -17.4915   19.0568 C   0  0  0  0  0  0  0  0  0  0  0  0
   11.7441  -18.7183   19.2364 O   0  0  0  0  0  0  0  0  0  0  0  0
   10.3449  -16.2704   22.3834 C   0  0  0  0  0  0  0  0  0  0  0  0
   11.3512  -15.7324   22.9254 O   0  0  0  0  0  0  0  0  0  0  0  0
   11.6150  -17.0110   17.7656 O   0  0  0  0  0  0  0  0  0  0  0  0
    9.0570  -15.8653   22.7921 N   0  0  0  0  0  0  0  0  0  0  0  0
    8.7976  -14.9806   23.9348 C   0  0  1  0  0  0  0  0  0  0  0  0
    7.5929  -14.1622   23.7177 C   0  0  0  0  0  0  0  0  0  0  0  0
    7.1430  -13.2838   24.8040 C   0  0  0  0  0  0  0  0  0  0  0  0
    7.6892  -12.0156   24.9975 C   0  0  0  0  0  0  0  0  0  0  0  0
    7.2507  -11.1781   25.9721 C   0  0  0  0  0  0  0  0  0  0  0  0
    6.2209  -11.5762   26.8207 C   0  0  0  0  0  0  0  0  0  0  0  0
    5.6727  -12.8291   26.6387 C   0  0  0  0  0  0  0  0  0  0  0  0
    6.1312  -13.6447   25.6564 C   0  0  0  0  0  0  0  0  0  0  0  0
    8.9052  -15.7199   25.1883 C   0  0  0  0  0  0  0  0  0  0  0  0
    8.8468  -15.0223   26.2684 O   0  0  0  0  0  0  0  0  0  0  0  0
    9.0582  -17.0988   25.3926 N   0  0  0  0  0  0  0  0  0  0  0  0
    9.0698  -17.6947   26.7286 C   0  0  1  0  0  0  0  0  0  0  0  0
    8.0710  -18.8345   26.8121 C   0  0  0  0  0  0  0  0  0  0  0  0
    6.4737  -18.1978   26.2330 S   0  0  0  0  0  0  0  0  0  0  0  0
   10.4017  -18.2226   27.0400 C   0  0  0  0  0  0  0  0  0  0  0  0
   10.6968  -18.7996   28.2876 O   0  0  0  0  0  0  0  0  0  0  0  0
   11.3201  -18.1767   26.2048 O   0  0  0  0  0  0  0  0  0  0  0  0
  2  1  1  6
  2  6  1  0
  2  3  1  0
  3  4  1  0
  4  5  2  0
  6  7  2  0
  8  4  1  0
  9 10  1  0
  9  6  1  0
 10 18  1  0
 11 12  1  0
 10 11  1  6
 12 17  2  0
 13 14  2  0
 13 12  1  0
 14 15  1  0
 15 16  2  0
 17 16  1  0
 18 19  2  0
 20 21  1  0
 20 18  1  0
 21 24  1  0
 21 22  1  6
 23 22  1  0
 24 26  2  0
 24 25  1  0
M  END
$$$$
