DFC.pdb
     RDKit          3D

 26 26  0  0  1  0  0  0  0  0999 V2000
   10.9882  -17.1305   19.7868 N   0  0  0  0  0  0  0  0  0  0  0  0
   10.4576  -17.7669   21.0116 C   0  0  1  0  0  0  0  0  0  0  0  0
   11.5705  -18.6450   21.5391 C   0  0  0  0  0  0  0  0  0  0  0  0
   11.8239  -19.8279   20.7148 C   0  0  0  0  0  0  0  0  0  0  0  0
   11.2381  -19.9291   19.6156 O   0  0  0  0  0  0  0  0  0  0  0  0
   10.2814  -16.6374   21.9665 C   0  0  0  0  0  0  0  0  0  0  0  0
   11.2545  -15.8404   22.0837 O   0  0  0  0  0  0  0  0  0  0  0  0
   12.6789  -20.8392   21.0955 O   0  0  0  0  0  0  0  0  0  0  0  0
    9.1197  -16.4063   22.7325 N   0  0  0  0  0  0  0  0  0  0  0  0
    8.9439  -15.2610   23.6342 C   0  0  1  0  0  0  0  0  0  0  0  0
    7.5190  -14.9958   23.8940 C   0  0  0  0  0  0  0  0  0  0  0  0
    7.1694  -13.8885   24.7916 C   0  0  0  0  0  0  0  0  0  0  0  0
    6.3301  -14.0702   25.8902 C   0  0  0  0  0  0  0  0  0  0  0  0
    6.0348  -13.0630   26.7516 C   0  0  0  0  0  0  0  0  0  0  0  0
    6.5764  -11.7956   26.5527 C   0  0  0  0  0  0  0  0  0  0  0  0
    7.4082  -11.6040   25.4688 C   0  0  0  0  0  0  0  0  0  0  0  0
    7.6855  -12.6291   24.6247 C   0  0  0  0  0  0  0  0  0  0  0  0
    9.8390  -15.3715   24.7814 C   0  0  0  0  0  0  0  0  0  0  0  0
   10.9049  -14.6511   24.7443 O   0  0  0  0  0  0  0  0  0  0  0  0
    9.7037  -16.1531   25.9379 N   0  0  0  0  0  0  0  0  0  0  0  0
   10.3047  -15.7696   27.2153 C   0  0  1  0  0  0  0  0  0  0  0  0
    9.6244  -14.5332   27.7742 C   0  0  0  0  0  0  0  0  0  0  0  0
   10.3853  -14.1773   29.3824 S   0  0  0  0  0  0  0  0  0  0  0  0
   10.1655  -16.8554   28.1907 C   0  0  0  0  0  0  0  0  0  0  0  0
   11.2364  -17.2597   29.0070 O   0  0  0  0  0  0  0  0  0  0  0  0
    9.0881  -17.4582   28.3285 O   0  0  0  0  0  0  0  0  0  0  0  0
  2  1  1  6
  2  6  1  0
  2  3  1  0
  3  4  1  0
  4  5  2  0
  6  7  2  0
  8  4  1  0
  9 10  1  0
  9  6  1  0
 10 18  1  0
 11 12  1  0
 10 11  1  1
 12 17  2  0
 13 14  2  0
 13 12  1  0
 14 15  1  0
 15 16  2  0
 17 16  1  0
 18 19  2  0
 20 21  1  0
 20 18  1  0
 21 24  1  0
 21 22  1  1
 23 22  1  0
 24 26  2  0
 24 25  1  0
M  END
$$$$
