DFC.pdb
     RDKit          3D

 26 26  0  0  1  0  0  0  0  0999 V2000
   10.7269  -16.5862   19.6286 N   0  0  0  0  0  0  0  0  0  0  0  0
    9.5986  -17.0807   20.4466 C   0  0  1  0  0  0  0  0  0  0  0  0
    9.9368  -18.5122   20.7988 C   0  0  0  0  0  0  0  0  0  0  0  0
   10.0560  -19.3897   19.6332 C   0  0  0  0  0  0  0  0  0  0  0  0
   11.0799  -20.0968   19.5176 O   0  0  0  0  0  0  0  0  0  0  0  0
    9.6720  -16.2772   21.6988 C   0  0  0  0  0  0  0  0  0  0  0  0
   10.8278  -15.9654   22.1023 O   0  0  0  0  0  0  0  0  0  0  0  0
    9.0908  -19.4717   18.6533 O   0  0  0  0  0  0  0  0  0  0  0  0
    8.5547  -15.8513   22.4470 N   0  0  0  0  0  0  0  0  0  0  0  0
    8.6450  -15.0675   23.6853 C   0  0  1  0  0  0  0  0  0  0  0  0
    7.4725  -14.1929   23.8540 C   0  0  0  0  0  0  0  0  0  0  0  0
    7.3146  -13.4778   25.1259 C   0  0  0  0  0  0  0  0  0  0  0  0
    8.0345  -12.3183   25.4112 C   0  0  0  0  0  0  0  0  0  0  0  0
    7.8647  -11.6250   26.5661 C   0  0  0  0  0  0  0  0  0  0  0  0
    6.9459  -12.0668   27.5147 C   0  0  0  0  0  0  0  0  0  0  0  0
    6.2277  -13.2131   27.2433 C   0  0  0  0  0  0  0  0  0  0  0  0
    6.4185  -13.8854   26.0805 C   0  0  0  0  0  0  0  0  0  0  0  0
    9.0271  -15.9223   24.8046 C   0  0  0  0  0  0  0  0  0  0  0  0
    8.2548  -16.9230   25.0473 O   0  0  0  0  0  0  0  0  0  0  0  0
   10.1312  -15.8167   25.6627 N   0  0  0  0  0  0  0  0  0  0  0  0
   10.3926  -16.7892   26.7238 C   0  0  1  0  0  0  0  0  0  0  0  0
   11.7905  -17.3643   26.5867 C   0  0  0  0  0  0  0  0  0  0  0  0
   11.9800  -17.9226   24.8708 S   0  0  0  0  0  0  0  0  0  0  0  0
   10.2815  -16.1509   28.0390 C   0  0  0  0  0  0  0  0  0  0  0  0
   10.0121  -14.7778   28.1758 O   0  0  0  0  0  0  0  0  0  0  0  0
   10.4231  -16.8079   29.0838 O   0  0  0  0  0  0  0  0  0  0  0  0
  2  1  1  6
  2  6  1  0
  2  3  1  0
  3  4  1  0
  4  5  2  0
  6  7  2  0
  8  4  1  0
  9 10  1  0
  9  6  1  0
 10 18  1  0
 11 12  1  0
 10 11  1  1
 12 17  2  0
 13 14  2  0
 13 12  1  0
 14 15  1  0
 15 16  2  0
 17 16  1  0
 18 19  2  0
 20 21  1  0
 20 18  1  0
 21 24  1  0
 21 22  1  6
 23 22  1  0
 24 26  2  0
 24 25  1  0
M  END
$$$$
