GCS.pdb
     RDKit          3D

 17 16  0  0  1  0  0  0  0  0999 V2000
    4.3343  -19.2525   23.3522 N   0  0  0  0  0  0  0  0  0  0  0  0
    5.3869  -19.0717   24.3203 C   0  0  0  0  0  0  0  0  0  0  0  0
    6.0921  -17.7944   23.9786 C   0  0  0  0  0  0  0  0  0  0  0  0
    6.3396  -17.4661   22.7821 O   0  0  0  0  0  0  0  0  0  0  0  0
    6.5213  -16.8825   24.9819 N   0  0  0  0  0  0  0  0  0  0  0  0
    7.3315  -15.7300   24.6406 C   0  0  1  0  0  0  0  0  0  0  0  0
    7.4105  -14.8789   25.9143 C   0  0  0  0  0  0  0  0  0  0  0  0
    5.7656  -14.1358   26.1270 S   0  0  0  0  0  0  0  0  0  0  0  0
    8.6909  -16.1548   24.3011 C   0  0  0  0  0  0  0  0  0  0  0  0
    9.2518  -17.0568   24.9918 O   0  0  0  0  0  0  0  0  0  0  0  0
   12.3733  -15.8527   21.1248 O   0  0  0  0  0  0  0  0  0  0  0  0
   11.1715  -15.3351   21.5967 C   0  0  0  0  0  0  0  0  0  0  0  0
   10.7690  -16.1191   22.8528 C   0  0  2  0  0  0  0  0  0  0  0  0
    9.4630  -15.6321   23.2347 N   0  0  0  0  0  0  0  0  0  0  0  0
   11.7861  -15.8876   23.8962 C   0  0  0  0  0  0  0  0  0  0  0  0
   11.4809  -15.1154   24.8370 O   0  0  0  0  0  0  0  0  0  0  0  0
   13.0434  -16.4610   23.9055 O   0  0  0  0  0  0  0  0  0  0  0  0
  1  2  1  0
  2  3  1  0
  3  4  2  0
  5  6  1  0
  5  3  1  0
  7  8  1  0
  6  7  1  1
  9 14  1  0
  9  6  1  0
 10  9  2  0
 12 11  1  0
 13 14  1  0
 13 12  1  6
 15 13  1  0
 16 15  2  0
 17 15  1  0
M  END
$$$$
