GCS.pdb
     RDKit          3D

 17 16  0  0  1  0  0  0  0  0999 V2000
   -4.6633  -23.6400   19.1831 N   0  0  0  0  0  0  0  0  0  0  0  0
   -4.0979  -22.3170   19.2713 C   0  0  0  0  0  0  0  0  0  0  0  0
   -5.2219  -21.3400   19.1048 C   0  0  0  0  0  0  0  0  0  0  0  0
   -6.3720  -21.7019   18.7212 O   0  0  0  0  0  0  0  0  0  0  0  0
   -5.0557  -19.9526   19.3694 N   0  0  0  0  0  0  0  0  0  0  0  0
   -6.1643  -19.0303   19.2226 C   0  0  1  0  0  0  0  0  0  0  0  0
   -6.2814  -18.2957   20.5640 C   0  0  0  0  0  0  0  0  0  0  0  0
   -7.7142  -17.1883   20.4090 S   0  0  0  0  0  0  0  0  0  0  0  0
   -5.8569  -18.0358   18.1929 C   0  0  0  0  0  0  0  0  0  0  0  0
   -4.6986  -17.5243   18.1479 O   0  0  0  0  0  0  0  0  0  0  0  0
   -7.3235  -18.1266   14.5621 O   0  0  0  0  0  0  0  0  0  0  0  0
   -7.4708  -16.8340   15.0543 C   0  0  0  0  0  0  0  0  0  0  0  0
   -6.4416  -16.6236   16.1727 C   0  0  2  0  0  0  0  0  0  0  0  0
   -6.7668  -17.5773   17.2088 N   0  0  0  0  0  0  0  0  0  0  0  0
   -6.5353  -15.2273   16.6400 C   0  0  0  0  0  0  0  0  0  0  0  0
   -7.2144  -15.0097   17.6724 O   0  0  0  0  0  0  0  0  0  0  0  0
   -5.9289  -14.1514   16.0199 O   0  0  0  0  0  0  0  0  0  0  0  0
  1  2  1  0
  2  3  1  0
  3  4  2  0
  5  6  1  0
  5  3  1  0
  7  8  1  0
  6  7  1  1
  9 14  1  0
  9  6  1  0
 10  9  2  0
 12 11  1  0
 13 14  1  0
 13 12  1  6
 15 13  1  0
 16 15  2  0
 17 15  1  0
M  END
$$$$
