GCS.pdb
     RDKit          3D

 17 16  0  0  1  0  0  0  0  0999 V2000
    4.6800  -18.8789   22.8120 N   0  0  0  0  0  0  0  0  0  0  0  0
    4.9940  -18.3114   24.0993 C   0  0  0  0  0  0  0  0  0  0  0  0
    5.9754  -17.2024   23.8701 C   0  0  0  0  0  0  0  0  0  0  0  0
    6.3919  -16.9058   22.7128 O   0  0  0  0  0  0  0  0  0  0  0  0
    6.4915  -16.4235   24.9422 N   0  0  0  0  0  0  0  0  0  0  0  0
    7.4995  -15.4091   24.7053 C   0  0  1  0  0  0  0  0  0  0  0  0
    7.5478  -14.5576   25.9803 C   0  0  0  0  0  0  0  0  0  0  0  0
    5.9741  -13.6505   26.0407 S   0  0  0  0  0  0  0  0  0  0  0  0
    8.8119  -16.0356   24.5354 C   0  0  0  0  0  0  0  0  0  0  0  0
    9.1608  -16.9706   25.3160 O   0  0  0  0  0  0  0  0  0  0  0  0
   10.6722  -16.2307   20.9938 O   0  0  0  0  0  0  0  0  0  0  0  0
   11.5632  -15.8525   21.9927 C   0  0  0  0  0  0  0  0  0  0  0  0
   11.0212  -16.3545   23.3376 C   0  0  2  0  0  0  0  0  0  0  0  0
    9.7598  -15.6802   23.5446 N   0  0  0  0  0  0  0  0  0  0  0  0
   12.0088  -16.0410   24.3879 C   0  0  0  0  0  0  0  0  0  0  0  0
   11.6633  -15.2287   25.2797 O   0  0  0  0  0  0  0  0  0  0  0  0
   13.2800  -16.5791   24.4535 O   0  0  0  0  0  0  0  0  0  0  0  0
  1  2  1  0
  2  3  1  0
  3  4  2  0
  5  6  1  0
  5  3  1  0
  7  8  1  0
  6  7  1  1
  9 14  1  0
  9  6  1  0
 10  9  2  0
 12 11  1  0
 13 14  1  0
 13 12  1  6
 15 13  1  0
 16 15  2  0
 17 15  1  0
M  END
$$$$
