GCS.pdb
     RDKit          3D

 17 16  0  0  1  0  0  0  0  0999 V2000
    2.2985  -23.0503   19.1276 N   0  0  0  0  0  0  0  0  0  0  0  0
    3.3503  -23.1538   20.1079 C   0  0  0  0  0  0  0  0  0  0  0  0
    3.8365  -21.7644   20.3885 C   0  0  0  0  0  0  0  0  0  0  0  0
    4.6638  -21.1792   19.6310 O   0  0  0  0  0  0  0  0  0  0  0  0
    3.3935  -21.0289   21.5221 N   0  0  0  0  0  0  0  0  0  0  0  0
    3.8834  -19.6884   21.7757 C   0  0  1  0  0  0  0  0  0  0  0  0
    2.9933  -19.1181   22.8871 C   0  0  0  0  0  0  0  0  0  0  0  0
    1.3388  -18.9267   22.1597 S   0  0  0  0  0  0  0  0  0  0  0  0
    5.2551  -19.7433   22.2846 C   0  0  0  0  0  0  0  0  0  0  0  0
    5.6099  -20.7168   23.0137 O   0  0  0  0  0  0  0  0  0  0  0  0
    8.2087  -18.2852   20.1824 O   0  0  0  0  0  0  0  0  0  0  0  0
    8.4302  -17.9393   21.5114 C   0  0  0  0  0  0  0  0  0  0  0  0
    7.6458  -18.9135   22.4003 C   0  0  2  0  0  0  0  0  0  0  0  0
    6.2563  -18.7746   22.0279 N   0  0  0  0  0  0  0  0  0  0  0  0
    7.8906  -18.5613   23.8120 C   0  0  0  0  0  0  0  0  0  0  0  0
    7.0357  -17.8420   24.3830 O   0  0  0  0  0  0  0  0  0  0  0  0
    8.9915  -18.9686   24.5414 O   0  0  0  0  0  0  0  0  0  0  0  0
  1  2  1  0
  2  3  1  0
  3  4  2  0
  5  6  1  0
  5  3  1  0
  7  8  1  0
  6  7  1  1
  9 14  1  0
  9  6  1  0
 10  9  2  0
 12 11  1  0
 13 14  1  0
 13 12  1  6
 15 13  1  0
 16 15  2  0
 17 15  1  0
M  END
$$$$
