GCS.pdb
     RDKit          3D

 17 16  0  0  1  0  0  0  0  0999 V2000
    8.4014  -13.0787   17.1398 N   0  0  0  0  0  0  0  0  0  0  0  0
    7.7110  -14.0565   17.9430 C   0  0  0  0  0  0  0  0  0  0  0  0
    8.3456  -14.0465   19.3005 C   0  0  0  0  0  0  0  0  0  0  0  0
    9.5732  -13.7875   19.4635 O   0  0  0  0  0  0  0  0  0  0  0  0
    7.6011  -14.3279   20.4790 N   0  0  0  0  0  0  0  0  0  0  0  0
    8.2429  -14.3365   21.7787 C   0  0  1  0  0  0  0  0  0  0  0  0
    7.1068  -14.3269   22.8093 C   0  0  0  0  0  0  0  0  0  0  0  0
    7.9049  -14.2148   24.4384 S   0  0  0  0  0  0  0  0  0  0  0  0
    8.9985  -15.5778   21.9571 C   0  0  0  0  0  0  0  0  0  0  0  0
    8.4969  -16.6735   21.5660 O   0  0  0  0  0  0  0  0  0  0  0  0
   12.2398  -16.8193   20.7584 O   0  0  0  0  0  0  0  0  0  0  0  0
   12.3791  -16.7327   22.1397 C   0  0  0  0  0  0  0  0  0  0  0  0
   10.9937  -16.9068   22.7759 C   0  0  2  0  0  0  0  0  0  0  0  0
   10.2831  -15.6693   22.5472 N   0  0  0  0  0  0  0  0  0  0  0  0
   11.1701  -17.2005   24.2110 C   0  0  0  0  0  0  0  0  0  0  0  0
   10.7388  -16.3531   25.0297 O   0  0  0  0  0  0  0  0  0  0  0  0
   11.7747  -18.3391   24.7090 O   0  0  0  0  0  0  0  0  0  0  0  0
  1  2  1  0
  2  3  1  0
  3  4  2  0
  5  6  1  0
  5  3  1  0
  7  8  1  0
  6  7  1  1
  9 14  1  0
  9  6  1  0
 10  9  2  0
 12 11  1  0
 13 14  1  0
 13 12  1  6
 15 13  1  0
 16 15  2  0
 17 15  1  0
M  END
$$$$
