GCS.pdb
     RDKit          3D

 17 16  0  0  1  0  0  0  0  0999 V2000
    4.6832  -18.9550   22.7130 N   0  0  0  0  0  0  0  0  0  0  0  0
    5.1478  -18.4816   23.9928 C   0  0  0  0  0  0  0  0  0  0  0  0
    6.0577  -17.3192   23.7345 C   0  0  0  0  0  0  0  0  0  0  0  0
    6.4273  -17.0054   22.5659 O   0  0  0  0  0  0  0  0  0  0  0  0
    6.5546  -16.5061   24.7902 N   0  0  0  0  0  0  0  0  0  0  0  0
    7.5040  -15.4433   24.5253 C   0  0  1  0  0  0  0  0  0  0  0  0
    7.5287  -14.5759   25.7901 C   0  0  0  0  0  0  0  0  0  0  0  0
    5.9138  -13.7451   25.8633 S   0  0  0  0  0  0  0  0  0  0  0  0
    8.8444  -16.0023   24.3397 C   0  0  0  0  0  0  0  0  0  0  0  0
    9.2885  -16.8448   25.1754 O   0  0  0  0  0  0  0  0  0  0  0  0
   10.6181  -15.9351   20.7182 O   0  0  0  0  0  0  0  0  0  0  0  0
   11.5415  -15.7146   21.7349 C   0  0  0  0  0  0  0  0  0  0  0  0
   10.9883  -16.3252   23.0294 C   0  0  2  0  0  0  0  0  0  0  0  0
    9.7204  -15.6766   23.2752 N   0  0  0  0  0  0  0  0  0  0  0  0
   11.9626  -16.0909   24.1123 C   0  0  0  0  0  0  0  0  0  0  0  0
   13.1005  -16.6037   23.9844 O   0  0  0  0  0  0  0  0  0  0  0  0
   11.7060  -15.3492   25.2498 O   0  0  0  0  0  0  0  0  0  0  0  0
  1  2  1  0
  2  3  1  0
  3  4  2  0
  5  6  1  0
  5  3  1  0
  7  8  1  0
  6  7  1  1
  9 14  1  0
  9  6  1  0
 10  9  2  0
 12 11  1  0
 13 14  1  0
 13 12  1  6
 15 13  1  0
 16 15  2  0
 17 15  1  0
M  END
$$$$
