GCS.pdb
     RDKit          3D

 17 16  0  0  1  0  0  0  0  0999 V2000
   -3.5143  -24.9940   32.3645 N   0  0  0  0  0  0  0  0  0  0  0  0
   -3.4503  -23.5624   32.5206 C   0  0  0  0  0  0  0  0  0  0  0  0
   -4.6412  -22.9839   31.8186 C   0  0  0  0  0  0  0  0  0  0  0  0
   -5.5254  -22.3218   32.4356 O   0  0  0  0  0  0  0  0  0  0  0  0
   -4.8412  -23.1483   30.4203 N   0  0  0  0  0  0  0  0  0  0  0  0
   -6.0004  -22.5773   29.7635 C   0  0  1  0  0  0  0  0  0  0  0  0
   -5.6335  -22.4725   28.2778 C   0  0  0  0  0  0  0  0  0  0  0  0
   -4.6272  -20.9681   28.1119 S   0  0  0  0  0  0  0  0  0  0  0  0
   -7.1418  -23.4868   29.8796 C   0  0  0  0  0  0  0  0  0  0  0  0
   -6.9869  -24.7165   29.6168 O   0  0  0  0  0  0  0  0  0  0  0  0
  -11.7305  -24.0871   31.3871 O   0  0  0  0  0  0  0  0  0  0  0  0
  -10.6670  -23.2253   31.1400 C   0  0  0  0  0  0  0  0  0  0  0  0
   -9.5512  -24.0218   30.4506 C   0  0  2  0  0  0  0  0  0  0  0  0
   -8.4482  -23.1051   30.2723 N   0  0  0  0  0  0  0  0  0  0  0  0
  -10.0679  -24.5406   29.1697 C   0  0  0  0  0  0  0  0  0  0  0  0
  -10.1002  -23.7475   28.1979 O   0  0  0  0  0  0  0  0  0  0  0  0
  -10.5152  -25.8331   28.9714 O   0  0  0  0  0  0  0  0  0  0  0  0
  1  2  1  0
  2  3  1  0
  3  4  2  0
  5  6  1  0
  5  3  1  0
  7  8  1  0
  6  7  1  6
  9 14  1  0
  9  6  1  0
 10  9  2  0
 12 11  1  0
 13 14  1  0
 13 12  1  6
 15 13  1  0
 16 15  2  0
 17 15  1  0
M  END
$$$$
