GCS.pdb
     RDKit          3D

 17 16  0  0  1  0  0  0  0  0999 V2000
   15.2992  -21.4731   41.7125 N   0  0  0  0  0  0  0  0  0  0  0  0
   14.8801  -20.3841   42.5589 C   0  0  0  0  0  0  0  0  0  0  0  0
   15.1909  -19.1104   41.8330 C   0  0  0  0  0  0  0  0  0  0  0  0
   15.9625  -19.0825   40.8307 O   0  0  0  0  0  0  0  0  0  0  0  0
   14.6345  -17.8641   42.2325 N   0  0  0  0  0  0  0  0  0  0  0  0
   14.9430  -16.6468   41.5084 C   0  0  1  0  0  0  0  0  0  0  0  0
   13.7122  -15.7439   41.6592 C   0  0  0  0  0  0  0  0  0  0  0  0
   13.9792  -14.3366   40.5404 S   0  0  0  0  0  0  0  0  0  0  0  0
   16.0777  -15.9647   42.1337 C   0  0  0  0  0  0  0  0  0  0  0  0
   16.0427  -15.7074   43.3738 O   0  0  0  0  0  0  0  0  0  0  0  0
   20.5446  -14.1246   41.5610 O   0  0  0  0  0  0  0  0  0  0  0  0
   19.3755  -14.5848   40.9640 C   0  0  0  0  0  0  0  0  0  0  0  0
   18.3250  -14.7977   42.0619 C   0  0  2  0  0  0  0  0  0  0  0  0
   17.2513  -15.5521   41.4562 N   0  0  0  0  0  0  0  0  0  0  0  0
   17.8829  -13.4776   42.5505 C   0  0  0  0  0  0  0  0  0  0  0  0
   18.5565  -12.9472   43.4666 O   0  0  0  0  0  0  0  0  0  0  0  0
   16.7838  -12.7920   42.0690 O   0  0  0  0  0  0  0  0  0  0  0  0
  1  2  1  0
  2  3  1  0
  3  4  2  0
  5  6  1  0
  5  3  1  0
  7  8  1  0
  6  7  1  1
  9 14  1  0
  9  6  1  0
 10  9  2  0
 12 11  1  0
 13 14  1  0
 13 12  1  6
 15 13  1  0
 16 15  2  0
 17 15  1  0
M  END
$$$$
