GCS.pdb
     RDKit          3D

 17 16  0  0  1  0  0  0  0  0999 V2000
   -1.3765  -26.4830   25.8335 N   0  0  0  0  0  0  0  0  0  0  0  0
   -2.6275  -26.7797   26.4855 C   0  0  0  0  0  0  0  0  0  0  0  0
   -3.0215  -25.5640   27.2681 C   0  0  0  0  0  0  0  0  0  0  0  0
   -2.7280  -25.4316   28.4916 O   0  0  0  0  0  0  0  0  0  0  0  0
   -3.7471  -24.4934   26.6767 N   0  0  0  0  0  0  0  0  0  0  0  0
   -4.1455  -23.3425   27.4627 C   0  0  1  0  0  0  0  0  0  0  0  0
   -3.8649  -22.1159   26.5855 C   0  0  0  0  0  0  0  0  0  0  0  0
   -4.3981  -20.6721   27.5522 S   0  0  0  0  0  0  0  0  0  0  0  0
   -5.5857  -23.3867   27.7229 C   0  0  0  0  0  0  0  0  0  0  0  0
   -6.3918  -23.4702   26.7490 O   0  0  0  0  0  0  0  0  0  0  0  0
   -6.9749  -24.3895   31.3055 O   0  0  0  0  0  0  0  0  0  0  0  0
   -7.8449  -24.5373   30.2303 C   0  0  0  0  0  0  0  0  0  0  0  0
   -7.6047  -23.3791   29.2529 C   0  0  2  0  0  0  0  0  0  0  0  0
   -6.1809  -23.3430   29.0076 N   0  0  0  0  0  0  0  0  0  0  0  0
   -8.1041  -22.1347   29.8684 C   0  0  0  0  0  0  0  0  0  0  0  0
   -7.2517  -21.2841   30.2212 O   0  0  0  0  0  0  0  0  0  0  0  0
   -9.4389  -21.8464   30.0804 O   0  0  0  0  0  0  0  0  0  0  0  0
  1  2  1  0
  2  3  1  0
  3  4  2  0
  5  6  1  0
  5  3  1  0
  7  8  1  0
  6  7  1  6
  9 14  1  0
  9  6  1  0
 10  9  2  0
 12 11  1  0
 13 14  1  0
 13 12  1  1
 15 13  1  0
 16 15  2  0
 17 15  1  0
M  END
$$$$
