GCS.pdb
     RDKit          3D

 17 16  0  0  1  0  0  0  0  0999 V2000
    4.6847  -18.9274   23.0550 N   0  0  0  0  0  0  0  0  0  0  0  0
    5.1174  -18.3823   24.3173 C   0  0  0  0  0  0  0  0  0  0  0  0
    6.0977  -17.2890   24.0181 C   0  0  0  0  0  0  0  0  0  0  0  0
    6.5647  -17.1084   22.8562 O   0  0  0  0  0  0  0  0  0  0  0  0
    6.5558  -16.3955   25.0252 N   0  0  0  0  0  0  0  0  0  0  0  0
    7.5931  -15.4239   24.7402 C   0  0  1  0  0  0  0  0  0  0  0  0
    7.6263  -14.4773   25.9467 C   0  0  0  0  0  0  0  0  0  0  0  0
    6.0280  -13.6119   25.9526 S   0  0  0  0  0  0  0  0  0  0  0  0
    8.8948  -16.0892   24.6574 C   0  0  0  0  0  0  0  0  0  0  0  0
    9.2762  -16.8313   25.6109 O   0  0  0  0  0  0  0  0  0  0  0  0
   11.4417  -15.3839   21.5419 O   0  0  0  0  0  0  0  0  0  0  0  0
   11.3511  -16.7191   21.9215 C   0  0  0  0  0  0  0  0  0  0  0  0
   10.9922  -16.7733   23.4123 C   0  0  2  0  0  0  0  0  0  0  0  0
    9.7978  -15.9754   23.5720 N   0  0  0  0  0  0  0  0  0  0  0  0
   12.1314  -16.2473   24.1885 C   0  0  0  0  0  0  0  0  0  0  0  0
   11.9420  -15.1986   24.8509 O   0  0  0  0  0  0  0  0  0  0  0  0
   13.3839  -16.8295   24.2336 O   0  0  0  0  0  0  0  0  0  0  0  0
  1  2  1  0
  2  3  1  0
  3  4  2  0
  5  6  1  0
  5  3  1  0
  7  8  1  0
  6  7  1  1
  9 14  1  0
  9  6  1  0
 10  9  2  0
 12 11  1  0
 13 14  1  0
 13 12  1  6
 15 13  1  0
 16 15  2  0
 17 15  1  0
M  END
$$$$
