RGG.pdb
     RDKit          3D

 20 19  0  0  1  0  0  0  0  0999 V2000
    7.7482  -13.8384   17.9794 N   0  0  0  0  0  0  0  0  0  0  0  0
    8.5510  -12.8774   18.7025 C   0  0  0  0  0  0  0  0  0  0  0  0
    9.6082  -12.3788   18.2137 N   0  0  0  0  0  0  0  0  0  0  0  0
    8.1158  -12.5027   19.9954 N   0  0  0  0  0  0  0  0  0  0  0  0
    8.2679  -13.4008   21.1478 C   0  0  0  0  0  0  0  0  0  0  0  0
    7.1771  -14.4306   21.1304 C   0  0  0  0  0  0  0  0  0  0  0  0
    7.2794  -15.4521   22.2035 C   0  0  0  0  0  0  0  0  0  0  0  0
    8.5577  -15.4047   22.9704 C   0  0  2  0  0  0  0  0  0  0  0  0
    9.5686  -16.3137   22.4645 N   0  0  0  0  0  0  0  0  0  0  0  0
    8.2283  -15.9185   24.3499 C   0  0  0  0  0  0  0  0  0  0  0  0
    7.4499  -15.2972   25.0810 O   0  0  0  0  0  0  0  0  0  0  0  0
   10.1422  -11.6110   18.6118 N   0  0  0  0  0  0  0  0  0  0  0  0
    8.8406  -17.1267   24.7667 C   0  0  0  0  0  0  0  0  0  0  0  0
    8.6327  -17.5408   26.1368 C   0  0  0  0  0  0  0  0  0  0  0  0
    9.9452  -17.4199   26.8403 O   0  0  0  0  0  0  0  0  0  0  0  0
   10.7280  -16.4551   26.6617 N   0  0  0  0  0  0  0  0  0  0  0  0
   10.3466  -18.4398   27.7632 C   0  0  0  0  0  0  0  0  0  0  0  0
   11.6406  -18.3876   28.3804 C   0  0  0  0  0  0  0  0  0  0  0  0
   11.8457  -19.4103   29.4086 O   0  0  0  0  0  0  0  0  0  0  0  0
   10.8592  -20.3387   29.6723 O   0  0  0  0  0  0  0  0  0  0  0  0
  2  1  1  0
  3  2  2  0
  4  2  1  0
  5  4  1  0
  6  5  1  0
  7  6  1  0
  8 10  1  0
  8  7  1  0
  8  9  1  6
 10 12  1  0
 11 10  2  0
 12 13  1  0
 13 14  1  0
 14 16  1  0
 14 15  2  0
 16 17  1  0
 17 18  1  0
 18 19  1  0
 20 18  2  0
M  END
$$$$
