RGG.pdb
     RDKit          3D

 20 19  0  0  1  0  0  0  0  0999 V2000
    5.4682  -22.7342   24.9694 N   0  0  0  0  0  0  0  0  0  0  0  0
    5.0735  -22.6386   23.5816 C   0  0  0  0  0  0  0  0  0  0  0  0
    5.0416  -23.6497   22.8188 N   0  0  0  0  0  0  0  0  0  0  0  0
    4.7178  -21.3608   23.0894 N   0  0  0  0  0  0  0  0  0  0  0  0
    5.6323  -20.2160   23.1917 C   0  0  0  0  0  0  0  0  0  0  0  0
    4.9572  -18.9842   22.6650 C   0  0  0  0  0  0  0  0  0  0  0  0
    5.8232  -17.7783   22.6251 C   0  0  0  0  0  0  0  0  0  0  0  0
    6.3681  -17.4637   21.2729 C   0  0  2  0  0  0  0  0  0  0  0  0
    7.2091  -18.5139   20.7307 N   0  0  0  0  0  0  0  0  0  0  0  0
    7.2918  -16.2869   21.4660 C   0  0  0  0  0  0  0  0  0  0  0  0
    6.8568  -15.2117   21.8919 O   0  0  0  0  0  0  0  0  0  0  0  0
    4.7401  -23.6525   21.8481 N   0  0  0  0  0  0  0  0  0  0  0  0
    8.6603  -16.4633   21.1429 C   0  0  0  0  0  0  0  0  0  0  0  0
    9.5787  -15.4193   21.5409 C   0  0  0  0  0  0  0  0  0  0  0  0
   10.1265  -15.7972   22.8785 O   0  0  0  0  0  0  0  0  0  0  0  0
    9.3960  -16.0577   23.8655 N   0  0  0  0  0  0  0  0  0  0  0  0
   11.5454  -15.8711   23.0638 C   0  0  0  0  0  0  0  0  0  0  0  0
   12.0890  -16.3203   24.3131 C   0  0  0  0  0  0  0  0  0  0  0  0
   13.5506  -16.4140   24.3211 O   0  0  0  0  0  0  0  0  0  0  0  0
   14.2159  -16.8043   25.4656 O   0  0  0  0  0  0  0  0  0  0  0  0
  2  1  1  0
  3  2  2  0
  4  2  1  0
  5  4  1  0
  6  5  1  0
  7  6  1  0
  8 10  1  0
  8  7  1  0
  8  9  1  1
 10 12  1  0
 11 10  2  0
 12 13  1  0
 13 14  1  0
 14 16  1  0
 14 15  2  0
 16 17  1  0
 17 18  1  0
 18 19  1  0
 20 18  2  0
M  END
$$$$
