RGG.pdb
     RDKit          3D

 20 19  0  0  1  0  0  0  0  0999 V2000
    8.6962  -13.2078   17.4070 N   0  0  0  0  0  0  0  0  0  0  0  0
    7.9908  -13.5697   18.6162 C   0  0  0  0  0  0  0  0  0  0  0  0
    8.1635  -12.9507   19.7081 N   0  0  0  0  0  0  0  0  0  0  0  0
    7.0860  -14.6550   18.5456 N   0  0  0  0  0  0  0  0  0  0  0  0
    7.1680  -15.7859   19.4794 C   0  0  0  0  0  0  0  0  0  0  0  0
    6.7801  -15.3313   20.8554 C   0  0  0  0  0  0  0  0  0  0  0  0
    6.7813  -16.4058   21.8806 C   0  0  0  0  0  0  0  0  0  0  0  0
    6.2949  -15.9695   23.2213 C   0  0  2  0  0  0  0  0  0  0  0  0
    7.0930  -14.9100   23.8085 N   0  0  0  0  0  0  0  0  0  0  0  0
    6.4896  -17.1544   24.1343 C   0  0  0  0  0  0  0  0  0  0  0  0
    5.8243  -18.1834   23.9767 O   0  0  0  0  0  0  0  0  0  0  0  0
    7.7224  -13.1767   20.5955 N   0  0  0  0  0  0  0  0  0  0  0  0
    7.4542  -17.0396   25.1663 C   0  0  0  0  0  0  0  0  0  0  0  0
    7.6531  -18.1879   26.0229 C   0  0  0  0  0  0  0  0  0  0  0  0
    8.6666  -17.8036   27.0511 O   0  0  0  0  0  0  0  0  0  0  0  0
    9.0487  -16.6202   27.2226 N   0  0  0  0  0  0  0  0  0  0  0  0
    9.2400  -18.8153   27.8882 C   0  0  0  0  0  0  0  0  0  0  0  0
   10.4909  -18.5820   28.5506 C   0  0  0  0  0  0  0  0  0  0  0  0
   10.9850  -19.7377   29.3026 O   0  0  0  0  0  0  0  0  0  0  0  0
   12.0786  -19.6097   30.1348 O   0  0  0  0  0  0  0  0  0  0  0  0
  2  1  1  0
  3  2  2  0
  4  2  1  0
  5  4  1  0
  6  5  1  0
  7  6  1  0
  8 10  1  0
  8  7  1  0
  8  9  1  1
 10 12  1  0
 11 10  2  0
 12 13  1  0
 13 14  1  0
 14 16  1  0
 14 15  2  0
 16 17  1  0
 17 18  1  0
 18 19  1  0
 20 18  2  0
M  END
$$$$
