RGG.pdb
     RDKit          3D

 20 19  0  0  1  0  0  0  0  0999 V2000
    6.5240  -12.6957   19.6746 N   0  0  0  0  0  0  0  0  0  0  0  0
    7.7420  -13.2850   19.1647 C   0  0  0  0  0  0  0  0  0  0  0  0
    8.0456  -13.2475   17.9352 N   0  0  0  0  0  0  0  0  0  0  0  0
    8.6014  -13.9173   20.0938 N   0  0  0  0  0  0  0  0  0  0  0  0
    9.8300  -14.5982   19.6642 C   0  0  0  0  0  0  0  0  0  0  0  0
    9.5362  -16.0448   19.3967 C   0  0  0  0  0  0  0  0  0  0  0  0
   10.3797  -16.9954   20.1650 C   0  0  0  0  0  0  0  0  0  0  0  0
   10.0539  -18.4309   19.9248 C   0  0  2  0  0  0  0  0  0  0  0  0
    8.7307  -18.8074   20.3846 N   0  0  0  0  0  0  0  0  0  0  0  0
   11.0052  -19.2184   20.7909 C   0  0  0  0  0  0  0  0  0  0  0  0
   10.6622  -19.5958   21.9163 O   0  0  0  0  0  0  0  0  0  0  0  0
    8.8282  -13.7296   17.5014 N   0  0  0  0  0  0  0  0  0  0  0  0
   12.2909  -19.5034   20.2674 C   0  0  0  0  0  0  0  0  0  0  0  0
   13.2128  -20.2219   21.1194 C   0  0  0  0  0  0  0  0  0  0  0  0
   14.1876  -19.2256   21.6571 O   0  0  0  0  0  0  0  0  0  0  0  0
   14.0864  -17.9919   21.4488 N   0  0  0  0  0  0  0  0  0  0  0  0
   15.2940  -19.6778   22.4474 C   0  0  0  0  0  0  0  0  0  0  0  0
   16.3108  -18.7549   22.8627 C   0  0  0  0  0  0  0  0  0  0  0  0
   16.0860  -18.1895   24.1950 O   0  0  0  0  0  0  0  0  0  0  0  0
   17.0581  -17.4144   24.7944 O   0  0  0  0  0  0  0  0  0  0  0  0
  2  1  1  0
  3  2  2  0
  4  2  1  0
  5  4  1  0
  6  5  1  0
  7  6  1  0
  8 10  1  0
  8  7  1  0
  8  9  1  1
 10 12  1  0
 11 10  2  0
 12 13  1  0
 13 14  1  0
 14 16  1  0
 14 15  2  0
 16 17  1  0
 17 18  1  0
 18 19  1  0
 20 18  2  0
M  END
$$$$
