RGG.pdb
     RDKit          3D

 20 19  0  0  1  0  0  0  0  0999 V2000
   12.0824  -15.2211   17.0753 N   0  0  0  0  0  0  0  0  0  0  0  0
   12.2724  -16.3168   16.1511 C   0  0  0  0  0  0  0  0  0  0  0  0
   13.3699  -16.9442   16.0661 N   0  0  0  0  0  0  0  0  0  0  0  0
   11.1789  -16.6754   15.3283 N   0  0  0  0  0  0  0  0  0  0  0  0
    9.9209  -15.9174   15.3485 C   0  0  0  0  0  0  0  0  0  0  0  0
    9.3075  -15.9970   16.7152 C   0  0  0  0  0  0  0  0  0  0  0  0
    8.0351  -15.2455   16.8624 C   0  0  0  0  0  0  0  0  0  0  0  0
    8.2146  -13.7948   17.1580 C   0  0  2  0  0  0  0  0  0  0  0  0
    9.6004  -13.4119   17.3506 N   0  0  0  0  0  0  0  0  0  0  0  0
    7.5580  -13.5640   18.4963 C   0  0  0  0  0  0  0  0  0  0  0  0
    6.3552  -13.7988   18.6533 O   0  0  0  0  0  0  0  0  0  0  0  0
   13.5741  -17.6989   15.4167 N   0  0  0  0  0  0  0  0  0  0  0  0
    8.3670  -13.0734   19.5514 C   0  0  0  0  0  0  0  0  0  0  0  0
    7.7486  -12.9222   20.8501 C   0  0  0  0  0  0  0  0  0  0  0  0
    8.3188  -13.9796   21.7383 O   0  0  0  0  0  0  0  0  0  0  0  0
    8.1358  -13.9985   22.9800 N   0  0  0  0  0  0  0  0  0  0  0  0
    9.1125  -15.0270   21.1672 C   0  0  0  0  0  0  0  0  0  0  0  0
    9.6516  -16.0622   22.0014 C   0  0  0  0  0  0  0  0  0  0  0  0
   11.0170  -15.7985   22.4611 O   0  0  0  0  0  0  0  0  0  0  0  0
   11.6899  -16.7376   23.2162 O   0  0  0  0  0  0  0  0  0  0  0  0
  2  1  1  0
  3  2  2  0
  4  2  1  0
  5  4  1  0
  6  5  1  0
  7  6  1  0
  8 10  1  0
  8  7  1  0
  8  9  1  1
 10 12  1  0
 11 10  2  0
 12 13  1  0
 13 14  1  0
 14 16  1  0
 14 15  2  0
 16 17  1  0
 17 18  1  0
 18 19  1  0
 20 18  2  0
M  END
$$$$
