RGG.pdb
     RDKit          3D

 20 19  0  0  1  0  0  0  0  0999 V2000
    8.9688  -11.2681   20.2463 N   0  0  0  0  0  0  0  0  0  0  0  0
    8.5601  -12.6522   20.1560 C   0  0  0  0  0  0  0  0  0  0  0  0
    8.8760  -13.3854   19.1722 N   0  0  0  0  0  0  0  0  0  0  0  0
    7.7825  -13.1750   21.2159 N   0  0  0  0  0  0  0  0  0  0  0  0
    6.9120  -14.3429   21.0270 C   0  0  0  0  0  0  0  0  0  0  0  0
    7.5975  -15.5710   21.5488 C   0  0  0  0  0  0  0  0  0  0  0  0
    7.1392  -16.0066   22.8925 C   0  0  0  0  0  0  0  0  0  0  0  0
    7.7093  -17.3107   23.3380 C   0  0  2  0  0  0  0  0  0  0  0  0
    7.4261  -18.4053   22.4291 N   0  0  0  0  0  0  0  0  0  0  0  0
    6.9811  -17.6640   24.6108 C   0  0  0  0  0  0  0  0  0  0  0  0
    5.7707  -17.4428   24.7228 O   0  0  0  0  0  0  0  0  0  0  0  0
    8.6319  -14.3655   19.0590 N   0  0  0  0  0  0  0  0  0  0  0  0
    7.7327  -18.2521   25.6586 C   0  0  0  0  0  0  0  0  0  0  0  0
    7.3162  -17.9729   27.0152 C   0  0  0  0  0  0  0  0  0  0  0  0
    8.5262  -18.0907   27.8834 O   0  0  0  0  0  0  0  0  0  0  0  0
    8.4897  -17.9348   29.1284 N   0  0  0  0  0  0  0  0  0  0  0  0
    9.7938  -18.3942   27.2884 C   0  0  0  0  0  0  0  0  0  0  0  0
   10.9750  -18.4645   28.0995 C   0  0  0  0  0  0  0  0  0  0  0  0
   11.3182  -19.8231   28.5258 O   0  0  0  0  0  0  0  0  0  0  0  0
   12.4686  -20.0540   29.2524 O   0  0  0  0  0  0  0  0  0  0  0  0
  2  1  1  0
  3  2  2  0
  4  2  1  0
  5  4  1  0
  6  5  1  0
  7  6  1  0
  8 10  1  0
  8  7  1  0
  8  9  1  6
 10 12  1  0
 11 10  2  0
 12 13  1  0
 13 14  1  0
 14 16  1  0
 14 15  2  0
 16 17  1  0
 17 18  1  0
 18 19  1  0
 20 18  2  0
M  END
$$$$
