RGG.pdb
     RDKit          3D

 20 19  0  0  1  0  0  0  0  0999 V2000
    8.4557  -12.2287   19.9123 N   0  0  0  0  0  0  0  0  0  0  0  0
    8.5950  -13.0864   18.7566 C   0  0  0  0  0  0  0  0  0  0  0  0
    8.4496  -12.6537   17.5748 N   0  0  0  0  0  0  0  0  0  0  0  0
    8.9033  -14.4480   18.9860 N   0  0  0  0  0  0  0  0  0  0  0  0
    8.7730  -15.0515   20.3188 C   0  0  0  0  0  0  0  0  0  0  0  0
    7.3272  -15.3316   20.6050 C   0  0  0  0  0  0  0  0  0  0  0  0
    7.0847  -16.0893   21.8591 C   0  0  0  0  0  0  0  0  0  0  0  0
    7.5914  -17.4917   21.8316 C   0  0  2  0  0  0  0  0  0  0  0  0
    6.5700  -18.4684   21.5047 N   0  0  0  0  0  0  0  0  0  0  0  0
    7.9945  -17.8106   23.2498 C   0  0  0  0  0  0  0  0  0  0  0  0
    7.1585  -17.7881   24.1593 O   0  0  0  0  0  0  0  0  0  0  0  0
    8.5572  -13.2001   16.7245 N   0  0  0  0  0  0  0  0  0  0  0  0
    9.3531  -18.1326   23.4922 C   0  0  0  0  0  0  0  0  0  0  0  0
    9.7278  -18.4618   24.8499 C   0  0  0  0  0  0  0  0  0  0  0  0
   11.2072  -18.2838   24.9569 O   0  0  0  0  0  0  0  0  0  0  0  0
   11.8899  -17.7063   24.0759 N   0  0  0  0  0  0  0  0  0  0  0  0
   11.8963  -18.7876   26.1078 C   0  0  0  0  0  0  0  0  0  0  0  0
   13.3293  -18.7535   26.1648 C   0  0  0  0  0  0  0  0  0  0  0  0
   13.8824  -19.2678   27.4198 O   0  0  0  0  0  0  0  0  0  0  0  0
   15.2485  -19.3115   27.6111 O   0  0  0  0  0  0  0  0  0  0  0  0
  2  1  1  0
  3  2  2  0
  4  2  1  0
  5  4  1  0
  6  5  1  0
  7  6  1  0
  8 10  1  0
  8  7  1  0
  8  9  1  1
 10 12  1  0
 11 10  2  0
 12 13  1  0
 13 14  1  0
 14 16  1  0
 14 15  2  0
 16 17  1  0
 17 18  1  0
 18 19  1  0
 20 18  2  0
M  END
$$$$
