RGG.pdb
     RDKit          3D

 20 19  0  0  1  0  0  0  0  0999 V2000
    7.8920  -13.3054   16.1353 N   0  0  0  0  0  0  0  0  0  0  0  0
    8.8318  -14.0909   16.9038 C   0  0  0  0  0  0  0  0  0  0  0  0
    9.1159  -15.2879   16.6011 N   0  0  0  0  0  0  0  0  0  0  0  0
    9.4363  -13.4748   18.0248 N   0  0  0  0  0  0  0  0  0  0  0  0
    8.6329  -12.8807   19.1014 C   0  0  0  0  0  0  0  0  0  0  0  0
    7.4836  -13.7870   19.4304 C   0  0  0  0  0  0  0  0  0  0  0  0
    7.2891  -14.0303   20.8824 C   0  0  0  0  0  0  0  0  0  0  0  0
    8.5296  -14.4359   21.6041 C   0  0  2  0  0  0  0  0  0  0  0  0
    9.2547  -15.5078   20.9487 N   0  0  0  0  0  0  0  0  0  0  0  0
    8.0689  -15.0231   22.9149 C   0  0  0  0  0  0  0  0  0  0  0  0
    7.3018  -14.3919   23.6496 O   0  0  0  0  0  0  0  0  0  0  0  0
    9.7780  -15.8836   17.0909 N   0  0  0  0  0  0  0  0  0  0  0  0
    8.5459  -16.3112   23.2640 C   0  0  0  0  0  0  0  0  0  0  0  0
    8.2060  -16.8143   24.5767 C   0  0  0  0  0  0  0  0  0  0  0  0
    9.4641  -16.8370   25.3820 O   0  0  0  0  0  0  0  0  0  0  0  0
   10.5733  -16.4686   24.9242 N   0  0  0  0  0  0  0  0  0  0  0  0
    9.4244  -17.2964   26.7387 C   0  0  0  0  0  0  0  0  0  0  0  0
   10.5980  -17.2254   27.5606 C   0  0  0  0  0  0  0  0  0  0  0  0
   11.5719  -18.2858   27.2916 O   0  0  0  0  0  0  0  0  0  0  0  0
   12.7098  -18.3970   28.0647 O   0  0  0  0  0  0  0  0  0  0  0  0
  2  1  1  0
  3  2  2  0
  4  2  1  0
  5  4  1  0
  6  5  1  0
  7  6  1  0
  8 10  1  0
  8  7  1  0
  8  9  1  6
 10 12  1  0
 11 10  2  0
 12 13  1  0
 13 14  1  0
 14 16  1  0
 14 15  2  0
 16 17  1  0
 17 18  1  0
 18 19  1  0
 20 18  2  0
M  END
$$$$
