RGG.pdb
     RDKit          3D

 20 19  0  0  1  0  0  0  0  0999 V2000
    6.8590  -13.8118   15.1835 N   0  0  0  0  0  0  0  0  0  0  0  0
    7.5823  -13.6930   16.4299 C   0  0  0  0  0  0  0  0  0  0  0  0
    8.8230  -13.4391   16.4676 N   0  0  0  0  0  0  0  0  0  0  0  0
    6.8530  -13.8722   17.6289 N   0  0  0  0  0  0  0  0  0  0  0  0
    7.4968  -13.7591   18.9443 C   0  0  0  0  0  0  0  0  0  0  0  0
    8.4038  -14.9338   19.1631 C   0  0  0  0  0  0  0  0  0  0  0  0
    9.0303  -14.9841   20.5087 C   0  0  0  0  0  0  0  0  0  0  0  0
    9.8584  -16.2007   20.7505 C   0  0  2  0  0  0  0  0  0  0  0  0
    9.0848  -17.3493   21.1823 N   0  0  0  0  0  0  0  0  0  0  0  0
   10.7463  -15.8668   21.9233 C   0  0  0  0  0  0  0  0  0  0  0  0
   11.4873  -14.8788   21.8874 O   0  0  0  0  0  0  0  0  0  0  0  0
    9.3761  -13.3016   17.3092 N   0  0  0  0  0  0  0  0  0  0  0  0
   10.6958  -16.7217   23.0525 C   0  0  0  0  0  0  0  0  0  0  0  0
   11.6272  -16.4607   24.1278 C   0  0  0  0  0  0  0  0  0  0  0  0
   12.9964  -16.7597   23.6105 O   0  0  0  0  0  0  0  0  0  0  0  0
   13.2054  -17.2231   22.4628 N   0  0  0  0  0  0  0  0  0  0  0  0
   14.1346  -16.5140   24.4456 C   0  0  0  0  0  0  0  0  0  0  0  0
   15.4616  -16.6755   23.9250 C   0  0  0  0  0  0  0  0  0  0  0  0
   16.5143  -16.5040   24.9288 O   0  0  0  0  0  0  0  0  0  0  0  0
   17.8332  -16.7445   24.6011 O   0  0  0  0  0  0  0  0  0  0  0  0
  2  1  1  0
  3  2  2  0
  4  2  1  0
  5  4  1  0
  6  5  1  0
  7  6  1  0
  8 10  1  0
  8  7  1  0
  8  9  1  1
 10 12  1  0
 11 10  2  0
 12 13  1  0
 13 14  1  0
 14 16  1  0
 14 15  2  0
 16 17  1  0
 17 18  1  0
 18 19  1  0
 20 18  2  0
M  END
$$$$
