RGG.pdb
     RDKit          3D

 20 19  0  0  1  0  0  0  0  0999 V2000
    7.4661  -14.2275   16.1606 N   0  0  0  0  0  0  0  0  0  0  0  0
    7.7686  -13.7133   17.4778 C   0  0  0  0  0  0  0  0  0  0  0  0
    8.4934  -12.6888   17.6513 N   0  0  0  0  0  0  0  0  0  0  0  0
    7.2234  -14.3991   18.5886 N   0  0  0  0  0  0  0  0  0  0  0  0
    7.6509  -14.1003   19.9617 C   0  0  0  0  0  0  0  0  0  0  0  0
    8.9442  -14.8037   20.2502 C   0  0  0  0  0  0  0  0  0  0  0  0
    9.5220  -14.5044   21.5851 C   0  0  0  0  0  0  0  0  0  0  0  0
    9.1523  -15.4877   22.6437 C   0  0  2  0  0  0  0  0  0  0  0  0
    7.8910  -16.1590   22.3932 N   0  0  0  0  0  0  0  0  0  0  0  0
    8.9193  -14.6768   23.8942 C   0  0  0  0  0  0  0  0  0  0  0  0
    9.2126  -13.4771   23.9272 O   0  0  0  0  0  0  0  0  0  0  0  0
    8.7290  -12.2724   18.5480 N   0  0  0  0  0  0  0  0  0  0  0  0
    8.3578  -15.3393   25.0141 C   0  0  0  0  0  0  0  0  0  0  0  0
    8.1643  -14.5632   26.2192 C   0  0  0  0  0  0  0  0  0  0  0  0
    9.3240  -14.8442   27.1182 O   0  0  0  0  0  0  0  0  0  0  0  0
   10.3000  -15.5528   26.7706 N   0  0  0  0  0  0  0  0  0  0  0  0
    9.3420  -14.2900   28.4394 C   0  0  0  0  0  0  0  0  0  0  0  0
   10.4521  -14.5398   29.3131 C   0  0  0  0  0  0  0  0  0  0  0  0
   10.5189  -15.9185   29.8030 O   0  0  0  0  0  0  0  0  0  0  0  0
   11.4652  -16.2779   30.7411 O   0  0  0  0  0  0  0  0  0  0  0  0
  2  1  1  0
  3  2  2  0
  4  2  1  0
  5  4  1  0
  6  5  1  0
  7  6  1  0
  8 10  1  0
  8  7  1  0
  8  9  1  6
 10 12  1  0
 11 10  2  0
 12 13  1  0
 13 14  1  0
 14 16  1  0
 14 15  2  0
 16 17  1  0
 17 18  1  0
 18 19  1  0
 20 18  2  0
M  END
$$$$
