RGG.pdb
     RDKit          3D

 20 19  0  0  1  0  0  0  0  0999 V2000
    9.6654  -13.6919   18.5504 N   0  0  0  0  0  0  0  0  0  0  0  0
    8.8007  -12.6058   18.9549 C   0  0  0  0  0  0  0  0  0  0  0  0
    9.1784  -11.3969   18.9253 N   0  0  0  0  0  0  0  0  0  0  0  0
    7.4970  -12.9365   19.3935 N   0  0  0  0  0  0  0  0  0  0  0  0
    7.2534  -13.4865   20.7336 C   0  0  0  0  0  0  0  0  0  0  0  0
    7.5784  -14.9510   20.7431 C   0  0  0  0  0  0  0  0  0  0  0  0
    7.3610  -15.6202   22.0509 C   0  0  0  0  0  0  0  0  0  0  0  0
    8.5275  -16.4168   22.5294 C   0  0  2  0  0  0  0  0  0  0  0  0
    8.5346  -17.7820   22.0393 N   0  0  0  0  0  0  0  0  0  0  0  0
    8.3553  -16.5408   24.0229 C   0  0  0  0  0  0  0  0  0  0  0  0
    7.6260  -17.4170   24.4993 O   0  0  0  0  0  0  0  0  0  0  0  0
    8.6482  -10.6002   19.2677 N   0  0  0  0  0  0  0  0  0  0  0  0
    9.0551  -15.6231   24.8454 C   0  0  0  0  0  0  0  0  0  0  0  0
   10.4995  -15.6286   24.7706 C   0  0  0  0  0  0  0  0  0  0  0  0
   10.9661  -16.9413   25.3103 O   0  0  0  0  0  0  0  0  0  0  0  0
   10.5214  -17.4380   26.3738 N   0  0  0  0  0  0  0  0  0  0  0  0
   11.9648  -17.6814   24.5976 C   0  0  0  0  0  0  0  0  0  0  0  0
   12.7584  -17.0394   23.5896 C   0  0  0  0  0  0  0  0  0  0  0  0
   12.6155  -17.6338   22.2586 O   0  0  0  0  0  0  0  0  0  0  0  0
   12.1108  -16.8863   21.2140 O   0  0  0  0  0  0  0  0  0  0  0  0
  2  1  1  0
  3  2  2  0
  4  2  1  0
  5  4  1  0
  6  5  1  0
  7  6  1  0
  8 10  1  0
  8  7  1  0
  8  9  1  6
 10 12  1  0
 11 10  2  0
 12 13  1  0
 13 14  1  0
 14 16  1  0
 14 15  2  0
 16 17  1  0
 17 18  1  0
 18 19  1  0
 20 18  2  0
M  END
$$$$
