RGG.pdb
     RDKit          3D

 20 19  0  0  1  0  0  0  0  0999 V2000
    8.3195  -13.2353   17.8145 N   0  0  0  0  0  0  0  0  0  0  0  0
    9.1205  -13.2150   19.0182 C   0  0  0  0  0  0  0  0  0  0  0  0
   10.3820  -13.1019   18.9863 N   0  0  0  0  0  0  0  0  0  0  0  0
    8.4444  -13.3277   20.2557 N   0  0  0  0  0  0  0  0  0  0  0  0
    8.0484  -14.6337   20.7989 C   0  0  0  0  0  0  0  0  0  0  0  0
    6.7003  -14.5211   21.4475 C   0  0  0  0  0  0  0  0  0  0  0  0
    6.1187  -15.8157   21.8847 C   0  0  0  0  0  0  0  0  0  0  0  0
    7.0921  -16.7264   22.5535 C   0  0  2  0  0  0  0  0  0  0  0  0
    7.1060  -18.0659   21.9970 N   0  0  0  0  0  0  0  0  0  0  0  0
    6.5908  -16.8975   23.9659 C   0  0  0  0  0  0  0  0  0  0  0  0
    5.3796  -16.8734   24.2086 O   0  0  0  0  0  0  0  0  0  0  0  0
   10.9984  -13.0933   19.7944 N   0  0  0  0  0  0  0  0  0  0  0  0
    7.5537  -17.0844   24.9888 C   0  0  0  0  0  0  0  0  0  0  0  0
    7.1045  -16.9577   26.3578 C   0  0  0  0  0  0  0  0  0  0  0  0
    8.2850  -17.2133   27.2371 O   0  0  0  0  0  0  0  0  0  0  0  0
    9.2360  -16.4024   27.3542 N   0  0  0  0  0  0  0  0  0  0  0  0
    8.3539  -18.4317   27.9879 C   0  0  0  0  0  0  0  0  0  0  0  0
    9.4866  -18.7014   28.8259 C   0  0  0  0  0  0  0  0  0  0  0  0
   10.7503  -18.8091   28.0933 O   0  0  0  0  0  0  0  0  0  0  0  0
   11.8939  -19.2341   28.7386 O   0  0  0  0  0  0  0  0  0  0  0  0
  2  1  1  0
  3  2  2  0
  4  2  1  0
  5  4  1  0
  6  5  1  0
  7  6  1  0
  8 10  1  0
  8  7  1  0
  8  9  1  6
 10 12  1  0
 11 10  2  0
 12 13  1  0
 13 14  1  0
 14 16  1  0
 14 15  2  0
 16 17  1  0
 17 18  1  0
 18 19  1  0
 20 18  2  0
M  END
$$$$
