CLA.pdb
     RDKit          3D

 20 19  0  0  1  0  0  0  0  0999 V2000
   20.8276  -11.4080  -20.6953 N   0  0  0  0  0  0  0  0  0  0  0  0
   21.6582  -10.2412  -20.5962 C   0  0  1  0  0  0  0  0  0  0  0  0
   20.9512   -9.0356  -21.1569 C   0  0  0  0  0  0  0  0  0  0  0  0
   20.7802   -9.2363  -22.9515 S   0  0  0  0  0  0  0  0  0  0  0  0
   22.1326  -10.0593  -19.2236 C   0  0  0  0  0  0  0  0  0  0  0  0
   21.3088  -10.1801  -18.2816 O   0  0  0  0  0  0  0  0  0  0  0  0
   27.0837  -10.3793  -15.5492 C   0  0  0  0  0  0  0  0  0  0  0  0
   25.6403   -9.8628  -15.7290 C   0  0  2  0  0  0  0  0  0  0  0  0
   24.8157  -10.6187  -14.7212 C   0  0  0  0  0  0  0  0  0  0  0  0
   25.1970  -10.1037  -17.1425 C   0  0  0  0  0  0  0  0  0  0  0  0
   23.9050   -9.5086  -17.5313 C   0  0  2  0  0  0  0  0  0  0  0  0
   23.4824   -9.7503  -18.8743 N   0  0  0  0  0  0  0  0  0  0  0  0
   23.8532   -8.0356  -17.2479 C   0  0  0  0  0  0  0  0  0  0  0  0
   24.4220   -7.2085  -17.9945 O   0  0  0  0  0  0  0  0  0  0  0  0
   22.1361   -5.4285  -16.8070 C   0  0  0  0  0  0  0  0  0  0  0  0
   23.0249   -6.1419  -15.8048 C   0  0  2  0  0  0  0  0  0  0  0  0
   23.1488   -7.5477  -16.1128 N   0  0  0  0  0  0  0  0  0  0  0  0
   22.5013   -5.9309  -14.4272 C   0  0  0  0  0  0  0  0  0  0  0  0
   21.9296   -6.8506  -13.7994 O   0  0  0  0  0  0  0  0  0  0  0  0
   22.6433   -4.7016  -13.8204 O   0  0  0  0  0  0  0  0  0  0  0  0
  2  1  1  1
  2  3  1  0
  4  3  1  0
  5  2  1  0
  5  6  2  0
  8  7  1  6
  8 10  1  0
  9  8  1  0
 11 10  1  6
 11 12  1  0
 11 13  1  0
 12  5  1  0
 13 14  2  0
 16 15  1  6
 17 13  1  0
 17 16  1  0
 18 16  1  0
 19 18  2  0
 20 18  1  0
M  END
$$$$
