CLA.pdb
     RDKit          3D

 20 19  0  0  1  0  0  0  0  0999 V2000
   26.4200  -21.0649  -11.2049 N   0  0  0  0  0  0  0  0  0  0  0  0
   24.9951  -21.2346  -11.1595 C   0  0  1  0  0  0  0  0  0  0  0  0
   24.4012  -20.4457  -10.0225 C   0  0  0  0  0  0  0  0  0  0  0  0
   22.6315  -20.8256   -9.9050 S   0  0  0  0  0  0  0  0  0  0  0  0
   24.3967  -20.9326  -12.4606 C   0  0  0  0  0  0  0  0  0  0  0  0
   24.7776  -19.9029  -13.0732 O   0  0  0  0  0  0  0  0  0  0  0  0
   22.1282  -23.3649  -17.5822 C   0  0  0  0  0  0  0  0  0  0  0  0
   22.2826  -22.0926  -16.7221 C   0  0  2  0  0  0  0  0  0  0  0  0
   23.2212  -21.2008  -17.4907 C   0  0  0  0  0  0  0  0  0  0  0  0
   22.8124  -22.4669  -15.3687 C   0  0  0  0  0  0  0  0  0  0  0  0
   22.8086  -21.4014  -14.3492 C   0  0  2  0  0  0  0  0  0  0  0  0
   23.3980  -21.7352  -13.0915 N   0  0  0  0  0  0  0  0  0  0  0  0
   21.4352  -20.8391  -14.1246 C   0  0  0  0  0  0  0  0  0  0  0  0
   20.6259  -21.3891  -13.3452 O   0  0  0  0  0  0  0  0  0  0  0  0
   19.5493  -17.8320  -15.5015 C   0  0  0  0  0  0  0  0  0  0  0  0
   19.7110  -19.0760  -14.6473 C   0  0  2  0  0  0  0  0  0  0  0  0
   21.0242  -19.6577  -14.8013 N   0  0  0  0  0  0  0  0  0  0  0  0
   18.6399  -20.0560  -14.9766 C   0  0  0  0  0  0  0  0  0  0  0  0
   17.5711  -20.0965  -14.3262 O   0  0  0  0  0  0  0  0  0  0  0  0
   18.8175  -20.9422  -16.0173 O   0  0  0  0  0  0  0  0  0  0  0  0
  2  1  1  6
  2  3  1  0
  4  3  1  0
  5  2  1  0
  5  6  2  0
  8  7  1  6
  8 10  1  0
  9  8  1  0
 11 10  1  6
 11 12  1  0
 11 13  1  0
 12  5  1  0
 13 14  2  0
 16 15  1  6
 17 13  1  0
 17 16  1  0
 18 16  1  0
 19 18  2  0
 20 18  1  0
M  END
$$$$
