CLA.pdb
     RDKit          3D

 20 19  0  0  1  0  0  0  0  0999 V2000
   25.8664  -11.8404  -17.9557 N   0  0  0  0  0  0  0  0  0  0  0  0
   25.6025  -11.1882  -16.7043 C   0  0  1  0  0  0  0  0  0  0  0  0
   26.8714  -10.6275  -16.1184 C   0  0  0  0  0  0  0  0  0  0  0  0
   27.9167  -11.9999  -15.5581 S   0  0  0  0  0  0  0  0  0  0  0  0
   24.5352  -10.1977  -16.8524 C   0  0  0  0  0  0  0  0  0  0  0  0
   24.5655   -9.4247  -17.8435 O   0  0  0  0  0  0  0  0  0  0  0  0
   20.2792   -9.8421  -18.2048 C   0  0  0  0  0  0  0  0  0  0  0  0
   20.4880  -10.5291  -16.8385 C   0  0  2  0  0  0  0  0  0  0  0  0
   19.1324  -11.0497  -16.4404 C   0  0  0  0  0  0  0  0  0  0  0  0
   21.0403   -9.5346  -15.8595 C   0  0  0  0  0  0  0  0  0  0  0  0
   22.4177   -9.0703  -16.1083 C   0  0  2  0  0  0  0  0  0  0  0  0
   23.4480  -10.0452  -15.9390 N   0  0  0  0  0  0  0  0  0  0  0  0
   22.7533   -7.8439  -15.3108 C   0  0  0  0  0  0  0  0  0  0  0  0
   23.0143   -7.9130  -14.0892 O   0  0  0  0  0  0  0  0  0  0  0  0
   23.2659   -4.1786  -16.1804 C   0  0  0  0  0  0  0  0  0  0  0  0
   23.0963   -5.3479  -15.2279 C   0  0  2  0  0  0  0  0  0  0  0  0
   22.7812   -6.5668  -15.9360 N   0  0  0  0  0  0  0  0  0  0  0  0
   22.0566   -5.0241  -14.2128 C   0  0  0  0  0  0  0  0  0  0  0  0
   20.8559   -5.3311  -14.3889 O   0  0  0  0  0  0  0  0  0  0  0  0
   22.4117   -4.3729  -13.0511 O   0  0  0  0  0  0  0  0  0  0  0  0
  2  1  1  6
  2  3  1  0
  4  3  1  0
  5  2  1  0
  5  6  2  0
  8  7  1  6
  8 10  1  0
  9  8  1  0
 11 10  1  1
 11 12  1  0
 11 13  1  0
 12  5  1  0
 13 14  2  0
 16 15  1  6
 17 13  1  0
 17 16  1  0
 18 16  1  0
 19 18  2  0
 20 18  1  0
M  END
$$$$
