CLA.pdb
     RDKit          3D

 20 19  0  0  1  0  0  0  0  0999 V2000
   21.4153  -13.6980  -16.9617 N   0  0  0  0  0  0  0  0  0  0  0  0
   20.7354  -12.5083  -17.3900 C   0  0  1  0  0  0  0  0  0  0  0  0
   19.2428  -12.7020  -17.3426 C   0  0  0  0  0  0  0  0  0  0  0  0
   18.7816  -14.0045  -18.5177 S   0  0  0  0  0  0  0  0  0  0  0  0
   21.2019  -11.3455  -16.6334 C   0  0  0  0  0  0  0  0  0  0  0  0
   20.5832  -11.0204  -15.5884 O   0  0  0  0  0  0  0  0  0  0  0  0
   24.5133  -10.1813  -13.8517 C   0  0  0  0  0  0  0  0  0  0  0  0
   24.9072  -10.2653  -15.3418 C   0  0  2  0  0  0  0  0  0  0  0  0
   26.4028  -10.0935  -15.3712 C   0  0  0  0  0  0  0  0  0  0  0  0
   24.1833   -9.1982  -16.1097 C   0  0  0  0  0  0  0  0  0  0  0  0
   22.7296   -9.3846  -16.2732 C   0  0  2  0  0  0  0  0  0  0  0  0
   22.3245  -10.5438  -17.0031 N   0  0  0  0  0  0  0  0  0  0  0  0
   22.0660   -8.1703  -16.8544 C   0  0  0  0  0  0  0  0  0  0  0  0
   22.4553   -7.6686  -17.9322 O   0  0  0  0  0  0  0  0  0  0  0  0
   18.8823   -6.7188  -17.1469 C   0  0  0  0  0  0  0  0  0  0  0  0
   20.2898   -6.3896  -16.6843 C   0  0  2  0  0  0  0  0  0  0  0  0
   20.9704   -7.5609  -16.1829 N   0  0  0  0  0  0  0  0  0  0  0  0
   20.2442   -5.3079  -15.6625 C   0  0  0  0  0  0  0  0  0  0  0  0
   20.5530   -5.5252  -14.4691 O   0  0  0  0  0  0  0  0  0  0  0  0
   19.8554   -4.0367  -16.0266 O   0  0  0  0  0  0  0  0  0  0  0  0
  2  1  1  1
  2  3  1  0
  4  3  1  0
  5  2  1  0
  5  6  2  0
  8  7  1  1
  8 10  1  0
  9  8  1  0
 11 10  1  6
 11 12  1  0
 11 13  1  0
 12  5  1  0
 13 14  2  0
 16 15  1  1
 17 13  1  0
 17 16  1  0
 18 16  1  0
 19 18  2  0
 20 18  1  0
M  END
$$$$
