CLA.pdb
     RDKit          3D

 20 19  0  0  1  0  0  0  0  0999 V2000
   17.9416   -9.7552  -13.1615 N   0  0  0  0  0  0  0  0  0  0  0  0
   18.2158   -8.6040  -12.3486 C   0  0  1  0  0  0  0  0  0  0  0  0
   19.0031   -7.5806  -13.1236 C   0  0  0  0  0  0  0  0  0  0  0  0
   20.6305   -8.2730  -13.5266 S   0  0  0  0  0  0  0  0  0  0  0  0
   16.9812   -8.0775  -11.7648 C   0  0  0  0  0  0  0  0  0  0  0  0
   15.9550   -8.0103  -12.4879 O   0  0  0  0  0  0  0  0  0  0  0  0
   14.0581   -6.8440   -6.4239 C   0  0  0  0  0  0  0  0  0  0  0  0
   14.1416   -6.5917   -7.9443 C   0  0  2  0  0  0  0  0  0  0  0  0
   12.8464   -7.1126   -8.5086 C   0  0  0  0  0  0  0  0  0  0  0  0
   15.3443   -7.2957   -8.5012 C   0  0  0  0  0  0  0  0  0  0  0  0
   15.6819   -6.9986   -9.9057 C   0  0  2  0  0  0  0  0  0  0  0  0
   16.8584   -7.6290  -10.4145 N   0  0  0  0  0  0  0  0  0  0  0  0
   15.7508   -5.5228  -10.1702 C   0  0  0  0  0  0  0  0  0  0  0  0
   16.6845   -4.8233   -9.7187 O   0  0  0  0  0  0  0  0  0  0  0  0
   13.7731   -3.1494  -12.3761 C   0  0  0  0  0  0  0  0  0  0  0  0
   14.7859   -3.4844  -11.2966 C   0  0  2  0  0  0  0  0  0  0  0  0
   14.7447   -4.8854  -10.9475 N   0  0  0  0  0  0  0  0  0  0  0  0
   14.5576   -2.6202  -10.1060 C   0  0  0  0  0  0  0  0  0  0  0  0
   15.1145   -1.5048   -9.9939 O   0  0  0  0  0  0  0  0  0  0  0  0
   13.7177   -3.0469   -9.0999 O   0  0  0  0  0  0  0  0  0  0  0  0
  2  1  1  6
  2  3  1  0
  4  3  1  0
  5  2  1  0
  5  6  2  0
  8  7  1  1
  8 10  1  0
  9  8  1  0
 11 10  1  1
 11 12  1  0
 11 13  1  0
 12  5  1  0
 13 14  2  0
 16 15  1  6
 17 13  1  0
 17 16  1  0
 18 16  1  0
 19 18  2  0
 20 18  1  0
M  END
$$$$
