CLA.pdb
     RDKit          3D

 20 19  0  0  1  0  0  0  0  0999 V2000
   17.8463  -11.8414  -17.3580 N   0  0  0  0  0  0  0  0  0  0  0  0
   18.4381  -10.6868  -17.9726 C   0  0  1  0  0  0  0  0  0  0  0  0
   17.5261  -10.1194  -19.0281 C   0  0  0  0  0  0  0  0  0  0  0  0
   17.4463  -11.2788  -20.4208 S   0  0  0  0  0  0  0  0  0  0  0  0
   18.8426   -9.7117  -16.9589 C   0  0  0  0  0  0  0  0  0  0  0  0
   17.9716   -9.2720  -16.1660 O   0  0  0  0  0  0  0  0  0  0  0  0
   21.3975   -9.5639  -13.0698 C   0  0  0  0  0  0  0  0  0  0  0  0
   22.1498   -9.6852  -14.4121 C   0  0  2  0  0  0  0  0  0  0  0  0
   23.5986   -9.8670  -14.0444 C   0  0  0  0  0  0  0  0  0  0  0  0
   21.9076   -8.4521  -15.2326 C   0  0  0  0  0  0  0  0  0  0  0  0
   20.5492   -8.2919  -15.7839 C   0  0  2  0  0  0  0  0  0  0  0  0
   20.1738   -9.2179  -16.8048 N   0  0  0  0  0  0  0  0  0  0  0  0
   20.2943   -6.8916  -16.2604 C   0  0  0  0  0  0  0  0  0  0  0  0
   21.0030   -6.3666  -17.1476 O   0  0  0  0  0  0  0  0  0  0  0  0
   18.0299   -4.6346  -17.2315 C   0  0  0  0  0  0  0  0  0  0  0  0
   18.9833   -4.7482  -16.0561 C   0  0  2  0  0  0  0  0  0  0  0  0
   19.2308   -6.1275  -15.7058 N   0  0  0  0  0  0  0  0  0  0  0  0
   18.4492   -3.9802  -14.8981 C   0  0  0  0  0  0  0  0  0  0  0  0
   18.3693   -2.7313  -14.9254 O   0  0  0  0  0  0  0  0  0  0  0  0
   18.0310   -4.6474  -13.7669 O   0  0  0  0  0  0  0  0  0  0  0  0
  2  1  1  1
  2  3  1  0
  4  3  1  0
  5  2  1  0
  5  6  2  0
  8  7  1  1
  8 10  1  0
  9  8  1  0
 11 10  1  6
 11 12  1  0
 11 13  1  0
 12  5  1  0
 13 14  2  0
 16 15  1  6
 17 13  1  0
 17 16  1  0
 18 16  1  0
 19 18  2  0
 20 18  1  0
M  END
$$$$
