CLA.pdb
     RDKit          3D

 20 19  0  0  1  0  0  0  0  0999 V2000
   16.1699  -11.6926  -12.5807 N   0  0  0  0  0  0  0  0  0  0  0  0
   17.0479  -10.5661  -12.4353 C   0  0  1  0  0  0  0  0  0  0  0  0
   17.9656  -10.4497  -13.6236 C   0  0  0  0  0  0  0  0  0  0  0  0
   19.1266  -11.8433  -13.6082 S   0  0  0  0  0  0  0  0  0  0  0  0
   16.2847   -9.3479  -12.1601 C   0  0  0  0  0  0  0  0  0  0  0  0
   15.2467   -9.1236  -12.8331 O   0  0  0  0  0  0  0  0  0  0  0  0
   13.4450   -7.4532   -9.0176 C   0  0  0  0  0  0  0  0  0  0  0  0
   14.9221   -7.6200   -8.6020 C   0  0  2  0  0  0  0  0  0  0  0  0
   14.9843   -7.1869   -7.1612 C   0  0  0  0  0  0  0  0  0  0  0  0
   15.7896   -6.7860   -9.4987 C   0  0  0  0  0  0  0  0  0  0  0  0
   15.8681   -7.2102  -10.9089 C   0  0  2  0  0  0  0  0  0  0  0  0
   16.6403   -8.3837  -11.1684 N   0  0  0  0  0  0  0  0  0  0  0  0
   16.3277   -6.0999  -11.8082 C   0  0  0  0  0  0  0  0  0  0  0  0
   17.5333   -5.7726  -11.8747 O   0  0  0  0  0  0  0  0  0  0  0  0
   14.6409   -3.9023  -14.4041 C   0  0  0  0  0  0  0  0  0  0  0  0
   15.7518   -4.2620  -13.4346 C   0  0  2  0  0  0  0  0  0  0  0  0
   15.3907   -5.3918  -12.6102 N   0  0  0  0  0  0  0  0  0  0  0  0
   16.1026   -3.0750  -12.6074 C   0  0  0  0  0  0  0  0  0  0  0  0
   16.8413   -2.1669  -13.0509 O   0  0  0  0  0  0  0  0  0  0  0  0
   15.6096   -2.9628  -11.3252 O   0  0  0  0  0  0  0  0  0  0  0  0
  2  1  1  6
  2  3  1  0
  4  3  1  0
  5  2  1  0
  5  6  2  0
  8  7  1  6
  8 10  1  0
  9  8  1  0
 11 10  1  1
 11 12  1  0
 11 13  1  0
 12  5  1  0
 13 14  2  0
 16 15  1  6
 17 13  1  0
 17 16  1  0
 18 16  1  0
 19 18  2  0
 20 18  1  0
M  END
$$$$
