CLA.pdb
     RDKit          3D

 20 19  0  0  1  0  0  0  0  0999 V2000
   18.8614  -12.4945  -18.4443 N   0  0  0  0  0  0  0  0  0  0  0  0
   19.8060  -11.4172  -18.5349 C   0  0  1  0  0  0  0  0  0  0  0  0
   19.2410  -10.2807  -19.3454 C   0  0  0  0  0  0  0  0  0  0  0  0
   19.2563  -10.7448  -21.0988 S   0  0  0  0  0  0  0  0  0  0  0  0
   20.2651  -11.0188  -17.2035 C   0  0  0  0  0  0  0  0  0  0  0  0
   19.4660  -11.1163  -16.2378 O   0  0  0  0  0  0  0  0  0  0  0  0
   22.4810  -12.7289  -13.9508 C   0  0  0  0  0  0  0  0  0  0  0  0
   23.3812  -12.2261  -15.0993 C   0  0  2  0  0  0  0  0  0  0  0  0
   24.7648  -12.7201  -14.7696 C   0  0  0  0  0  0  0  0  0  0  0  0
   23.3004  -10.7296  -15.1775 C   0  0  0  0  0  0  0  0  0  0  0  0
   22.0059  -10.1677  -15.6054 C   0  0  2  0  0  0  0  0  0  0  0  0
   21.5732  -10.5206  -16.9202 N   0  0  0  0  0  0  0  0  0  0  0  0
   21.9570   -8.6760  -15.4462 C   0  0  0  0  0  0  0  0  0  0  0  0
   22.1793   -8.1314  -14.3421 O   0  0  0  0  0  0  0  0  0  0  0  0
   21.8034   -5.7575  -17.8317 C   0  0  0  0  0  0  0  0  0  0  0  0
   21.5891   -6.4046  -16.4757 C   0  0  2  0  0  0  0  0  0  0  0  0
   21.6535   -7.8452  -16.5598 N   0  0  0  0  0  0  0  0  0  0  0  0
   20.2933   -5.9507  -15.9001 C   0  0  0  0  0  0  0  0  0  0  0  0
   19.3316   -6.7392  -15.7579 O   0  0  0  0  0  0  0  0  0  0  0  0
   20.1378   -4.6374  -15.5122 O   0  0  0  0  0  0  0  0  0  0  0  0
  2  1  1  1
  2  3  1  0
  4  3  1  0
  5  2  1  0
  5  6  2  0
  8  7  1  1
  8 10  1  0
  9  8  1  0
 11 10  1  6
 11 12  1  0
 11 13  1  0
 12  5  1  0
 13 14  2  0
 16 15  1  6
 17 13  1  0
 17 16  1  0
 18 16  1  0
 19 18  2  0
 20 18  1  0
M  END
$$$$
