CLA.pdb
     RDKit          3D

 20 19  0  0  1  0  0  0  0  0999 V2000
   16.8643  -10.1015  -17.7248 N   0  0  0  0  0  0  0  0  0  0  0  0
   17.7592   -8.9900  -17.8826 C   0  0  1  0  0  0  0  0  0  0  0  0
   17.0651   -7.8405  -18.5642 C   0  0  0  0  0  0  0  0  0  0  0  0
   16.6200   -8.3391  -20.2504 S   0  0  0  0  0  0  0  0  0  0  0  0
   18.3700   -8.6321  -16.6016 C   0  0  0  0  0  0  0  0  0  0  0  0
   17.6267   -8.5054  -15.5955 O   0  0  0  0  0  0  0  0  0  0  0  0
   22.9543   -9.7748  -12.8918 C   0  0  0  0  0  0  0  0  0  0  0  0
   21.9293   -8.6879  -13.2795 C   0  0  2  0  0  0  0  0  0  0  0  0
   20.9796   -8.5988  -12.1144 C   0  0  0  0  0  0  0  0  0  0  0  0
   21.2474   -9.0788  -14.5580 C   0  0  0  0  0  0  0  0  0  0  0  0
   20.3404   -8.0760  -15.1466 C   0  0  2  0  0  0  0  0  0  0  0  0
   19.7685   -8.4138  -16.4112 N   0  0  0  0  0  0  0  0  0  0  0  0
   20.9767   -6.7193  -15.2316 C   0  0  0  0  0  0  0  0  0  0  0  0
   22.0143   -6.5278  -15.9035 O   0  0  0  0  0  0  0  0  0  0  0  0
   19.9758   -3.2454  -14.0929 C   0  0  0  0  0  0  0  0  0  0  0  0
   20.9703   -4.2855  -14.5751 C   0  0  2  0  0  0  0  0  0  0  0  0
   20.4053   -5.6144  -14.5421 N   0  0  0  0  0  0  0  0  0  0  0  0
   22.2169   -4.2041  -13.7653 C   0  0  0  0  0  0  0  0  0  0  0  0
   22.3389   -4.8358  -12.6915 O   0  0  0  0  0  0  0  0  0  0  0  0
   23.2650   -3.4200  -14.1968 O   0  0  0  0  0  0  0  0  0  0  0  0
  2  1  1  1
  2  3  1  0
  4  3  1  0
  5  2  1  0
  5  6  2  0
  8  7  1  1
  8 10  1  0
  9  8  1  0
 11 10  1  6
 11 12  1  0
 11 13  1  0
 12  5  1  0
 13 14  2  0
 16 15  1  1
 17 13  1  0
 17 16  1  0
 18 16  1  0
 19 18  2  0
 20 18  1  0
M  END
$$$$
