CLA.pdb
     RDKit          3D

 20 19  0  0  1  0  0  0  0  0999 V2000
   16.4668  -10.6414  -17.7552 N   0  0  0  0  0  0  0  0  0  0  0  0
   17.5494   -9.8295  -18.2345 C   0  0  1  0  0  0  0  0  0  0  0  0
   17.0255   -8.6100  -18.9460 C   0  0  0  0  0  0  0  0  0  0  0  0
   16.1893   -9.1319  -20.4687 S   0  0  0  0  0  0  0  0  0  0  0  0
   18.4840   -9.5220  -17.1510 C   0  0  0  0  0  0  0  0  0  0  0  0
   18.0256   -9.0668  -16.0724 O   0  0  0  0  0  0  0  0  0  0  0  0
   23.9679  -11.0142  -14.7555 C   0  0  0  0  0  0  0  0  0  0  0  0
   22.8252   -9.9776  -14.8006 C   0  0  2  0  0  0  0  0  0  0  0  0
   22.1927  -10.0189  -13.4348 C   0  0  0  0  0  0  0  0  0  0  0  0
   21.8668  -10.3396  -15.8973 C   0  0  0  0  0  0  0  0  0  0  0  0
   20.7915   -9.3681  -16.1708 C   0  0  2  0  0  0  0  0  0  0  0  0
   19.8981   -9.7047  -17.2334 N   0  0  0  0  0  0  0  0  0  0  0  0
   21.3240   -7.9813  -16.3852 C   0  0  0  0  0  0  0  0  0  0  0  0
   21.9920   -7.6903  -17.4021 O   0  0  0  0  0  0  0  0  0  0  0  0
   20.5762   -4.6528  -16.0730 C   0  0  0  0  0  0  0  0  0  0  0  0
   21.6119   -5.6246  -15.5380 C   0  0  2  0  0  0  0  0  0  0  0  0
   21.0762   -6.9613  -15.4256 N   0  0  0  0  0  0  0  0  0  0  0  0
   22.1339   -5.1362  -14.2321 C   0  0  0  0  0  0  0  0  0  0  0  0
   22.9170   -4.1618  -14.1666 O   0  0  0  0  0  0  0  0  0  0  0  0
   21.7539   -5.7620  -13.0644 O   0  0  0  0  0  0  0  0  0  0  0  0
  2  1  1  1
  2  3  1  0
  4  3  1  0
  5  2  1  0
  5  6  2  0
  8  7  1  1
  8 10  1  0
  9  8  1  0
 11 10  1  6
 11 12  1  0
 11 13  1  0
 12  5  1  0
 13 14  2  0
 16 15  1  1
 17 13  1  0
 17 16  1  0
 18 16  1  0
 19 18  2  0
 20 18  1  0
M  END
$$$$
