CLA.pdb
     RDKit          3D

 20 19  0  0  1  0  0  0  0  0999 V2000
   28.0923  -20.1242  -16.1445 N   0  0  0  0  0  0  0  0  0  0  0  0
   27.0780  -19.2610  -15.6087 C   0  0  1  0  0  0  0  0  0  0  0  0
   26.5711  -18.3155  -16.6655 C   0  0  0  0  0  0  0  0  0  0  0  0
   27.7602  -16.9597  -16.8604 S   0  0  0  0  0  0  0  0  0  0  0  0
   26.0221  -20.0424  -14.9633 C   0  0  0  0  0  0  0  0  0  0  0  0
   25.6115  -21.0849  -15.5336 O   0  0  0  0  0  0  0  0  0  0  0  0
   26.1926  -22.0972  -11.1276 C   0  0  0  0  0  0  0  0  0  0  0  0
   25.7036  -20.6506  -10.9029 C   0  0  2  0  0  0  0  0  0  0  0  0
   25.5949  -20.4918   -9.4095 C   0  0  0  0  0  0  0  0  0  0  0  0
   24.3929  -20.4524  -11.6065 C   0  0  0  0  0  0  0  0  0  0  0  0
   24.4280  -20.5107  -13.0796 C   0  0  2  0  0  0  0  0  0  0  0  0
   25.4174  -19.7001  -13.7156 N   0  0  0  0  0  0  0  0  0  0  0  0
   23.0850  -20.2307  -13.6884 C   0  0  0  0  0  0  0  0  0  0  0  0
   22.7068  -19.0613  -13.9214 O   0  0  0  0  0  0  0  0  0  0  0  0
   20.7581  -21.5812  -15.9691 C   0  0  0  0  0  0  0  0  0  0  0  0
   20.8753  -21.1003  -14.5344 C   0  0  2  0  0  0  0  0  0  0  0  0
   22.2080  -21.3016  -14.0150 N   0  0  0  0  0  0  0  0  0  0  0  0
   19.8541  -21.7795  -13.6904 C   0  0  0  0  0  0  0  0  0  0  0  0
   20.1591  -22.7338  -12.9399 O   0  0  0  0  0  0  0  0  0  0  0  0
   18.5426  -21.3574  -13.7279 O   0  0  0  0  0  0  0  0  0  0  0  0
  2  1  1  6
  2  3  1  0
  4  3  1  0
  5  2  1  0
  5  6  2  0
  8  7  1  1
  8 10  1  0
  9  8  1  0
 11 10  1  1
 11 12  1  0
 11 13  1  0
 12  5  1  0
 13 14  2  0
 16 15  1  6
 17 13  1  0
 17 16  1  0
 18 16  1  0
 19 18  2  0
 20 18  1  0
M  END
$$$$
