CLA.pdb
     RDKit          3D

 20 19  0  0  1  0  0  0  0  0999 V2000
   27.7200  -21.4213  -15.1498 N   0  0  0  0  0  0  0  0  0  0  0  0
   26.9306  -20.3753  -14.5635 C   0  0  1  0  0  0  0  0  0  0  0  0
   26.3248  -19.5035  -15.6316 C   0  0  0  0  0  0  0  0  0  0  0  0
   27.6522  -18.6026  -16.4779 S   0  0  0  0  0  0  0  0  0  0  0  0
   25.9491  -20.9296  -13.6301 C   0  0  0  0  0  0  0  0  0  0  0  0
   25.4931  -22.0804  -13.8501 O   0  0  0  0  0  0  0  0  0  0  0  0
   26.6374  -21.9227   -9.4842 C   0  0  0  0  0  0  0  0  0  0  0  0
   26.1554  -20.4610   -9.6006 C   0  0  2  0  0  0  0  0  0  0  0  0
   26.2704  -19.8893   -8.2124 C   0  0  0  0  0  0  0  0  0  0  0  0
   24.7491  -20.4400  -10.1244 C   0  0  0  0  0  0  0  0  0  0  0  0
   24.5712  -20.8426  -11.5318 C   0  0  2  0  0  0  0  0  0  0  0  0
   25.4665  -20.2470  -12.4721 N   0  0  0  0  0  0  0  0  0  0  0  0
   23.1573  -20.6547  -11.9989 C   0  0  0  0  0  0  0  0  0  0  0  0
   22.1870  -21.0369  -11.3079 O   0  0  0  0  0  0  0  0  0  0  0  0
   21.5186  -18.8715  -14.9130 C   0  0  0  0  0  0  0  0  0  0  0  0
   21.5629  -19.9039  -13.8014 C   0  0  2  0  0  0  0  0  0  0  0  0
   22.8917  -20.0318  -13.2496 N   0  0  0  0  0  0  0  0  0  0  0  0
   21.0553  -21.2094  -14.3058 C   0  0  0  0  0  0  0  0  0  0  0  0
   21.8281  -22.1709  -14.5182 O   0  0  0  0  0  0  0  0  0  0  0  0
   19.7085  -21.3743  -14.5476 O   0  0  0  0  0  0  0  0  0  0  0  0
  2  1  1  6
  2  3  1  0
  4  3  1  0
  5  2  1  0
  5  6  2  0
  8  7  1  1
  8 10  1  0
  9  8  1  0
 11 10  1  1
 11 12  1  0
 11 13  1  0
 12  5  1  0
 13 14  2  0
 16 15  1  6
 17 13  1  0
 17 16  1  0
 18 16  1  0
 19 18  2  0
 20 18  1  0
M  END
$$$$
