CLA.pdb
     RDKit          3D

 20 19  0  0  1  0  0  0  0  0999 V2000
   17.7311  -10.9884  -18.6972 N   0  0  0  0  0  0  0  0  0  0  0  0
   18.6526   -9.9161  -18.9460 C   0  0  1  0  0  0  0  0  0  0  0  0
   17.9252   -8.6924  -19.4370 C   0  0  0  0  0  0  0  0  0  0  0  0
   17.2446   -9.0342  -21.0832 S   0  0  0  0  0  0  0  0  0  0  0  0
   19.4898   -9.6707  -17.7708 C   0  0  0  0  0  0  0  0  0  0  0  0
   18.9290   -9.3944  -16.6801 O   0  0  0  0  0  0  0  0  0  0  0  0
   25.0834  -10.8170  -15.3506 C   0  0  0  0  0  0  0  0  0  0  0  0
   23.7525  -10.0429  -15.2424 C   0  0  2  0  0  0  0  0  0  0  0  0
   23.0830  -10.5686  -14.0004 C   0  0  0  0  0  0  0  0  0  0  0  0
   22.9401  -10.2721  -16.4833 C   0  0  0  0  0  0  0  0  0  0  0  0
   21.7111   -9.4679  -16.6161 C   0  0  2  0  0  0  0  0  0  0  0  0
   20.9170   -9.7236  -17.7756 N   0  0  0  0  0  0  0  0  0  0  0  0
   21.9850   -7.9959  -16.5119 C   0  0  0  0  0  0  0  0  0  0  0  0
   22.7058   -7.4070  -17.3478 O   0  0  0  0  0  0  0  0  0  0  0  0
   20.3880   -5.0174  -15.3663 C   0  0  0  0  0  0  0  0  0  0  0  0
   21.6710   -5.8229  -15.2734 C   0  0  2  0  0  0  0  0  0  0  0  0
   21.4240   -7.2352  -15.4493 N   0  0  0  0  0  0  0  0  0  0  0  0
   22.3467   -5.5462  -13.9760 C   0  0  0  0  0  0  0  0  0  0  0  0
   22.1754   -6.2865  -12.9812 O   0  0  0  0  0  0  0  0  0  0  0  0
   23.1803   -4.4552  -13.8559 O   0  0  0  0  0  0  0  0  0  0  0  0
  2  1  1  1
  2  3  1  0
  4  3  1  0
  5  2  1  0
  5  6  2  0
  8  7  1  6
  8 10  1  0
  9  8  1  0
 11 10  1  6
 11 12  1  0
 11 13  1  0
 12  5  1  0
 13 14  2  0
 16 15  1  1
 17 13  1  0
 17 16  1  0
 18 16  1  0
 19 18  2  0
 20 18  1  0
M  END
$$$$
