NYI.pdb
     RDKit          3D

 29 29  0  0  1  0  0  0  0  0999 V2000
   27.2792  -22.9370  -20.2233 N   0  0  0  0  0  0  0  0  0  0  0  0
   27.7508  -23.4999  -19.0091 C   0  0  0  0  0  0  0  0  0  0  0  0
   28.8465  -24.1121  -19.0512 O   0  0  0  0  0  0  0  0  0  0  0  0
   26.9845  -23.3746  -17.7323 C   0  0  0  0  0  0  0  0  0  0  0  0
   27.4945  -22.1551  -16.9547 C   0  0  2  0  0  0  0  0  0  0  0  0
   28.9205  -22.1914  -16.8934 N   0  0  0  0  0  0  0  0  0  0  0  0
   26.8346  -22.1156  -15.6246 C   0  0  0  0  0  0  0  0  0  0  0  0
   25.7200  -22.6536  -15.4941 O   0  0  0  0  0  0  0  0  0  0  0  0
   24.7241  -20.3867   -7.1962 O   0  0  0  0  0  0  0  0  0  0  0  0
   25.4230  -20.4936   -8.4045 C   0  0  0  0  0  0  0  0  0  0  0  0
   25.1591  -21.5227   -9.2830 C   0  0  0  0  0  0  0  0  0  0  0  0
   25.8490  -21.6350  -10.4841 C   0  0  0  0  0  0  0  0  0  0  0  0
   26.8225  -20.7283  -10.8493 C   0  0  0  0  0  0  0  0  0  0  0  0
   27.5509  -20.8439  -12.1139 C   0  0  0  0  0  0  0  0  0  0  0  0
   26.6800  -21.3549  -13.2619 C   0  0  2  0  0  0  0  0  0  0  0  0
   27.4173  -21.4870  -14.4776 N   0  0  0  0  0  0  0  0  0  0  0  0
   25.4537  -20.5309  -13.4005 C   0  0  0  0  0  0  0  0  0  0  0  0
   25.6146  -19.3154  -13.6945 O   0  0  0  0  0  0  0  0  0  0  0  0
   27.0812  -19.6997   -9.9634 C   0  0  0  0  0  0  0  0  0  0  0  0
   26.3943  -19.5830   -8.7615 C   0  0  0  0  0  0  0  0  0  0  0  0
   21.2471  -18.4905  -16.3455 C   0  0  0  0  0  0  0  0  0  0  0  0
   21.4776  -18.8731  -14.8966 C   0  0  0  0  0  0  0  0  0  0  0  0
   22.6670  -19.7953  -14.7549 C   0  0  2  0  0  0  0  0  0  0  0  0
   22.4498  -20.9884  -15.6224 C   0  0  0  0  0  0  0  0  0  0  0  0
   22.9893  -20.1166  -13.3134 C   0  0  2  0  0  0  0  0  0  0  0  0
   24.1500  -21.0032  -13.2300 N   0  0  0  0  0  0  0  0  0  0  0  0
   21.8638  -20.7768  -12.6079 C   0  0  0  0  0  0  0  0  0  0  0  0
   21.8659  -22.0279  -12.3494 O   0  0  0  0  0  0  0  0  0  0  0  0
   20.7367  -20.0908  -12.1803 O   0  0  0  0  0  0  0  0  0  0  0  0
  2  1  1  0
  3  2  2  0
  4  5  1  0
  4  2  1  0
  5  6  1  1
  7  5  1  0
  7  8  2  0
  9 10  1  0
 10 11  2  0
 11 12  1  0
 13 12  2  0
 13 14  1  0
 15 14  1  1
 15 16  1  0
 16  7  1  0
 17 18  2  0
 17 15  1  0
 19 13  1  0
 20 10  1  0
 20 19  2  0
 22 21  1  0
 23 22  1  0
 23 24  1  6
 25 26  1  6
 25 23  1  0
 26 17  1  0
 27 25  1  0
 28 27  2  0
 29 27  1  0
M  END
$$$$
