NYI.pdb
     RDKit          3D

 29 29  0  0  1  0  0  0  0  0999 V2000
   29.3334  -23.1990  -17.6867 N   0  0  0  0  0  0  0  0  0  0  0  0
   29.7629  -22.9213  -16.3632 C   0  0  0  0  0  0  0  0  0  0  0  0
   30.7388  -23.5819  -15.9291 O   0  0  0  0  0  0  0  0  0  0  0  0
   29.0901  -21.8902  -15.5163 C   0  0  0  0  0  0  0  0  0  0  0  0
   27.8039  -21.4267  -16.2111 C   0  0  2  0  0  0  0  0  0  0  0  0
   28.1290  -20.4961  -17.2439 N   0  0  0  0  0  0  0  0  0  0  0  0
   26.8657  -20.8920  -15.1912 C   0  0  0  0  0  0  0  0  0  0  0  0
   26.9701  -19.6999  -14.8497 O   0  0  0  0  0  0  0  0  0  0  0  0
   19.7575  -19.1439  -10.3322 O   0  0  0  0  0  0  0  0  0  0  0  0
   20.6712  -19.6884  -11.2425 C   0  0  0  0  0  0  0  0  0  0  0  0
   21.1111  -20.9879  -11.1080 C   0  0  0  0  0  0  0  0  0  0  0  0
   22.0179  -21.5349  -12.0078 C   0  0  0  0  0  0  0  0  0  0  0  0
   22.5158  -20.8073  -13.0691 C   0  0  0  0  0  0  0  0  0  0  0  0
   23.4711  -21.3807  -14.0186 C   0  0  0  0  0  0  0  0  0  0  0  0
   24.9272  -21.0986  -13.6471 C   0  0  2  0  0  0  0  0  0  0  0  0
   25.8411  -21.6812  -14.5767 N   0  0  0  0  0  0  0  0  0  0  0  0
   25.1948  -21.4782  -12.2378 C   0  0  0  0  0  0  0  0  0  0  0  0
   25.3796  -22.7031  -12.0031 O   0  0  0  0  0  0  0  0  0  0  0  0
   22.0701  -19.5055  -13.1970 C   0  0  0  0  0  0  0  0  0  0  0  0
   21.1636  -18.9542  -12.3001 C   0  0  0  0  0  0  0  0  0  0  0  0
   27.8839  -19.6971   -7.0732 C   0  0  0  0  0  0  0  0  0  0  0  0
   26.8289  -20.5835   -7.7057 C   0  0  0  0  0  0  0  0  0  0  0  0
   26.5145  -20.1416   -9.1167 C   0  0  2  0  0  0  0  0  0  0  0  0
   26.1518  -18.6955   -9.0924 C   0  0  0  0  0  0  0  0  0  0  0  0
   25.5001  -21.0327   -9.7962 C   0  0  2  0  0  0  0  0  0  0  0  0
   25.2553  -20.5832  -11.1667 N   0  0  0  0  0  0  0  0  0  0  0  0
   24.1964  -21.0601   -9.0891 C   0  0  0  0  0  0  0  0  0  0  0  0
   24.0454  -21.6537   -7.9679 O   0  0  0  0  0  0  0  0  0  0  0  0
   23.0559  -20.4485   -9.5879 O   0  0  0  0  0  0  0  0  0  0  0  0
  2  1  1  0
  3  2  2  0
  4  5  1  0
  4  2  1  0
  5  6  1  6
  7  5  1  0
  7  8  2  0
  9 10  1  0
 10 11  2  0
 11 12  1  0
 13 12  2  0
 13 14  1  0
 15 14  1  6
 15 16  1  0
 16  7  1  0
 17 18  2  0
 17 15  1  0
 19 13  1  0
 20 10  1  0
 20 19  2  0
 22 21  1  0
 23 22  1  0
 23 24  1  1
 25 26  1  6
 25 23  1  0
 26 17  1  0
 27 25  1  0
 28 27  2  0
 29 27  1  0
M  END
$$$$
