NYI.pdb
     RDKit          3D

 29 29  0  0  1  0  0  0  0  0999 V2000
   29.3019  -20.2327  -17.3561 N   0  0  0  0  0  0  0  0  0  0  0  0
   28.3636  -19.1794  -17.2031 C   0  0  0  0  0  0  0  0  0  0  0  0
   28.2867  -18.3431  -18.1369 O   0  0  0  0  0  0  0  0  0  0  0  0
   27.5009  -19.0626  -15.9885 C   0  0  0  0  0  0  0  0  0  0  0  0
   27.8392  -20.2003  -15.0174 C   0  0  2  0  0  0  0  0  0  0  0  0
   27.5725  -21.4557  -15.6428 N   0  0  0  0  0  0  0  0  0  0  0  0
   27.0997  -19.9908  -13.7463 C   0  0  0  0  0  0  0  0  0  0  0  0
   27.1575  -18.8750  -13.1982 O   0  0  0  0  0  0  0  0  0  0  0  0
   21.3534  -18.5807  -16.5577 O   0  0  0  0  0  0  0  0  0  0  0  0
   22.0076  -19.2270  -15.5021 C   0  0  0  0  0  0  0  0  0  0  0  0
   22.7081  -20.3949  -15.7162 C   0  0  0  0  0  0  0  0  0  0  0  0
   23.3597  -21.0417  -14.6730 C   0  0  0  0  0  0  0  0  0  0  0  0
   23.3354  -20.5482  -13.3849 C   0  0  0  0  0  0  0  0  0  0  0  0
   24.0209  -21.2273  -12.2841 C   0  0  0  0  0  0  0  0  0  0  0  0
   25.4336  -20.6961  -12.0400 C   0  0  2  0  0  0  0  0  0  0  0  0
   26.3192  -21.0116  -13.1147 N   0  0  0  0  0  0  0  0  0  0  0  0
   25.9372  -21.1279  -10.7126 C   0  0  0  0  0  0  0  0  0  0  0  0
   26.3086  -22.3282  -10.6073 O   0  0  0  0  0  0  0  0  0  0  0  0
   22.6312  -19.3772  -13.1786 C   0  0  0  0  0  0  0  0  0  0  0  0
   21.9781  -18.7268  -14.2180 C   0  0  0  0  0  0  0  0  0  0  0  0
   28.4714  -19.3927   -5.3850 C   0  0  0  0  0  0  0  0  0  0  0  0
   27.6243  -20.4003   -6.1374 C   0  0  0  0  0  0  0  0  0  0  0  0
   27.2193  -19.8725   -7.4947 C   0  0  2  0  0  0  0  0  0  0  0  0
   26.6299  -18.5140   -7.3203 C   0  0  0  0  0  0  0  0  0  0  0  0
   26.3495  -20.8411   -8.2630 C   0  0  2  0  0  0  0  0  0  0  0  0
   26.0271  -20.3065   -9.5861 N   0  0  0  0  0  0  0  0  0  0  0  0
   25.0714  -21.1371   -7.5706 C   0  0  0  0  0  0  0  0  0  0  0  0
   23.9634  -20.6212   -7.9425 O   0  0  0  0  0  0  0  0  0  0  0  0
   24.9858  -21.9882   -6.4789 O   0  0  0  0  0  0  0  0  0  0  0  0
  2  1  1  0
  3  2  2  0
  4  5  1  0
  4  2  1  0
  5  6  1  6
  7  5  1  0
  7  8  2  0
  9 10  1  0
 10 11  2  0
 11 12  1  0
 13 12  2  0
 13 14  1  0
 15 14  1  6
 15 16  1  0
 16  7  1  0
 17 18  2  0
 17 15  1  0
 19 13  1  0
 20 10  1  0
 20 19  2  0
 22 21  1  0
 23 22  1  0
 23 24  1  1
 25 26  1  6
 25 23  1  0
 26 17  1  0
 27 25  1  0
 28 27  2  0
 29 27  1  0
M  END
$$$$
