NYI.pdb
     RDKit          3D

 29 29  0  0  1  0  0  0  0  0999 V2000
   25.8696  -17.8277  -18.2330 N   0  0  0  0  0  0  0  0  0  0  0  0
   25.2501  -19.0595  -18.5681 C   0  0  0  0  0  0  0  0  0  0  0  0
   24.4264  -19.0452  -19.5160 O   0  0  0  0  0  0  0  0  0  0  0  0
   25.5583  -20.3227  -17.8315 C   0  0  0  0  0  0  0  0  0  0  0  0
   26.4966  -20.0082  -16.6600 C   0  0  2  0  0  0  0  0  0  0  0  0
   27.7488  -20.6634  -16.8631 N   0  0  0  0  0  0  0  0  0  0  0  0
   25.8244  -20.3737  -15.3868 C   0  0  0  0  0  0  0  0  0  0  0  0
   25.4677  -21.5538  -15.2166 O   0  0  0  0  0  0  0  0  0  0  0  0
   30.9361  -21.5263  -11.2808 O   0  0  0  0  0  0  0  0  0  0  0  0
   29.6544  -20.9826  -11.4275 C   0  0  0  0  0  0  0  0  0  0  0  0
   29.4288  -19.9320  -12.2911 C   0  0  0  0  0  0  0  0  0  0  0  0
   28.1592  -19.3874  -12.4416 C   0  0  0  0  0  0  0  0  0  0  0  0
   27.0745  -19.8699  -11.7387 C   0  0  0  0  0  0  0  0  0  0  0  0
   25.7359  -19.2983  -11.8952 C   0  0  0  0  0  0  0  0  0  0  0  0
   24.9842  -19.8563  -13.1040 C   0  0  2  0  0  0  0  0  0  0  0  0
   25.5638  -19.4337  -14.3387 N   0  0  0  0  0  0  0  0  0  0  0  0
   23.5326  -19.5661  -13.0021 C   0  0  0  0  0  0  0  0  0  0  0  0
   23.1812  -18.3631  -13.1400 O   0  0  0  0  0  0  0  0  0  0  0  0
   27.3088  -20.9230  -10.8751 C   0  0  0  0  0  0  0  0  0  0  0  0
   28.5762  -21.4709  -10.7211 C   0  0  0  0  0  0  0  0  0  0  0  0
   18.1004  -21.1939  -14.8373 C   0  0  0  0  0  0  0  0  0  0  0  0
   18.8618  -20.4992  -13.7253 C   0  0  0  0  0  0  0  0  0  0  0  0
   20.3307  -20.8545  -13.7605 C   0  0  2  0  0  0  0  0  0  0  0  0
   20.4606  -22.3399  -13.7717 C   0  0  0  0  0  0  0  0  0  0  0  0
   21.1259  -20.1621  -12.6773 C   0  0  2  0  0  0  0  0  0  0  0  0
   22.5411  -20.5219  -12.7670 N   0  0  0  0  0  0  0  0  0  0  0  0
   20.6568  -20.5066  -11.3129 C   0  0  0  0  0  0  0  0  0  0  0  0
   21.2077  -21.4267  -10.6186 O   0  0  0  0  0  0  0  0  0  0  0  0
   19.5957  -19.8609  -10.6958 O   0  0  0  0  0  0  0  0  0  0  0  0
  2  1  1  0
  3  2  2  0
  4  5  1  0
  4  2  1  0
  5  6  1  6
  7  5  1  0
  7  8  2  0
  9 10  1  0
 10 11  2  0
 11 12  1  0
 13 12  2  0
 13 14  1  0
 15 14  1  1
 15 16  1  0
 16  7  1  0
 17 18  2  0
 17 15  1  0
 19 13  1  0
 20 10  1  0
 20 19  2  0
 22 21  1  0
 23 22  1  0
 23 24  1  1
 25 26  1  1
 25 23  1  0
 26 17  1  0
 27 25  1  0
 28 27  2  0
 29 27  1  0
M  END
$$$$
