NYI.pdb
     RDKit          3D

 29 29  0  0  1  0  0  0  0  0999 V2000
   19.1682  -10.9805  -21.5934 N   0  0  0  0  0  0  0  0  0  0  0  0
   18.0162  -10.8197  -20.7807 C   0  0  0  0  0  0  0  0  0  0  0  0
   16.8996  -10.9203  -21.3466 O   0  0  0  0  0  0  0  0  0  0  0  0
   18.1176  -10.5431  -19.3157 C   0  0  0  0  0  0  0  0  0  0  0  0
   19.5964  -10.4471  -18.9209 C   0  0  2  0  0  0  0  0  0  0  0  0
   20.0532  -11.7226  -18.4704 N   0  0  0  0  0  0  0  0  0  0  0  0
   19.7639   -9.3597  -17.9230 C   0  0  0  0  0  0  0  0  0  0  0  0
   19.1571   -9.4440  -16.8398 O   0  0  0  0  0  0  0  0  0  0  0  0
   24.1580  -11.7337  -14.1994 O   0  0  0  0  0  0  0  0  0  0  0  0
   23.6530  -10.5712  -14.7942 C   0  0  0  0  0  0  0  0  0  0  0  0
   23.9159  -10.2847  -16.1167 C   0  0  0  0  0  0  0  0  0  0  0  0
   23.4179   -9.1326  -16.7136 C   0  0  0  0  0  0  0  0  0  0  0  0
   22.6434   -8.2298  -16.0146 C   0  0  0  0  0  0  0  0  0  0  0  0
   22.1174   -7.0155  -16.6406 C   0  0  0  0  0  0  0  0  0  0  0  0
   20.6894   -7.1807  -17.1612 C   0  0  2  0  0  0  0  0  0  0  0  0
   20.5919   -8.2126  -18.1434 N   0  0  0  0  0  0  0  0  0  0  0  0
   20.1396   -5.8791  -17.6143 C   0  0  0  0  0  0  0  0  0  0  0  0
   20.4139   -5.5242  -18.7926 O   0  0  0  0  0  0  0  0  0  0  0  0
   22.3844   -8.5243  -14.6895 C   0  0  0  0  0  0  0  0  0  0  0  0
   22.8799   -9.6746  -14.0883 C   0  0  0  0  0  0  0  0  0  0  0  0
   15.3417   -2.5981  -18.4108 C   0  0  0  0  0  0  0  0  0  0  0  0
   16.7984   -2.4721  -18.0095 C   0  0  0  0  0  0  0  0  0  0  0  0
   17.3832   -3.8151  -17.6359 C   0  0  2  0  0  0  0  0  0  0  0  0
   16.5588   -4.4051  -16.5425 C   0  0  0  0  0  0  0  0  0  0  0  0
   18.8638   -3.7461  -17.3396 C   0  0  2  0  0  0  0  0  0  0  0  0
   19.3489   -5.0308  -16.8352 N   0  0  0  0  0  0  0  0  0  0  0  0
   19.1993   -2.7089  -16.3336 C   0  0  0  0  0  0  0  0  0  0  0  0
   19.1433   -1.4610  -16.6016 O   0  0  0  0  0  0  0  0  0  0  0  0
   19.5943   -3.0144  -15.0397 O   0  0  0  0  0  0  0  0  0  0  0  0
  2  1  1  0
  3  2  2  0
  4  5  1  0
  4  2  1  0
  5  6  1  1
  7  5  1  0
  7  8  2  0
  9 10  1  0
 10 11  2  0
 11 12  1  0
 13 12  2  0
 13 14  1  0
 15 14  1  6
 15 16  1  0
 16  7  1  0
 17 18  2  0
 17 15  1  0
 19 13  1  0
 20 10  1  0
 20 19  2  0
 22 21  1  0
 23 22  1  0
 23 24  1  1
 25 26  1  1
 25 23  1  0
 26 17  1  0
 27 25  1  0
 28 27  2  0
 29 27  1  0
M  END
$$$$
