NYI.pdb
     RDKit          3D

 29 29  0  0  1  0  0  0  0  0999 V2000
   29.5175  -21.4209  -18.6431 N   0  0  0  0  0  0  0  0  0  0  0  0
   28.1499  -21.3086  -19.0044 C   0  0  0  0  0  0  0  0  0  0  0  0
   27.8974  -21.0000  -20.1953 O   0  0  0  0  0  0  0  0  0  0  0  0
   27.0523  -21.5454  -18.0183 C   0  0  0  0  0  0  0  0  0  0  0  0
   27.6638  -21.8903  -16.6549 C   0  0  2  0  0  0  0  0  0  0  0  0
   28.2173  -23.2057  -16.6999 N   0  0  0  0  0  0  0  0  0  0  0  0
   26.6353  -21.7046  -15.5995 C   0  0  0  0  0  0  0  0  0  0  0  0
   26.0860  -22.7115  -15.1165 O   0  0  0  0  0  0  0  0  0  0  0  0
   29.9984  -21.5911   -9.7470 O   0  0  0  0  0  0  0  0  0  0  0  0
   28.9833  -21.0364  -10.5355 C   0  0  0  0  0  0  0  0  0  0  0  0
   27.6614  -21.1392  -10.1578 C   0  0  0  0  0  0  0  0  0  0  0  0
   26.6487  -20.5911  -10.9357 C   0  0  0  0  0  0  0  0  0  0  0  0
   26.9181  -19.9239  -12.1129 C   0  0  0  0  0  0  0  0  0  0  0  0
   25.8534  -19.3454  -12.9344 C   0  0  0  0  0  0  0  0  0  0  0  0
   25.3361  -20.3049  -14.0065 C   0  0  2  0  0  0  0  0  0  0  0  0
   26.2402  -20.4200  -15.1056 N   0  0  0  0  0  0  0  0  0  0  0  0
   23.9544  -19.9467  -14.4123 C   0  0  0  0  0  0  0  0  0  0  0  0
   23.7809  -18.7899  -14.8828 O   0  0  0  0  0  0  0  0  0  0  0  0
   28.2454  -19.8252  -12.4846 C   0  0  0  0  0  0  0  0  0  0  0  0
   29.2615  -20.3714  -11.7104 C   0  0  0  0  0  0  0  0  0  0  0  0
   19.6858  -20.2100  -17.6230 C   0  0  0  0  0  0  0  0  0  0  0  0
   19.5978  -20.9105  -16.2812 C   0  0  0  0  0  0  0  0  0  0  0  0
   20.9659  -21.3171  -15.7833 C   0  0  2  0  0  0  0  0  0  0  0  0
   20.9130  -22.7463  -15.3613 C   0  0  0  0  0  0  0  0  0  0  0  0
   21.5119  -20.3726  -14.7370 C   0  0  2  0  0  0  0  0  0  0  0  0
   22.8469  -20.7921  -14.3103 N   0  0  0  0  0  0  0  0  0  0  0  0
   20.6537  -20.2968  -13.5295 C   0  0  0  0  0  0  0  0  0  0  0  0
   19.4913  -19.7673  -13.5558 O   0  0  0  0  0  0  0  0  0  0  0  0
   21.0459  -20.7912  -12.2944 O   0  0  0  0  0  0  0  0  0  0  0  0
  2  1  1  0
  3  2  2  0
  4  5  1  0
  4  2  1  0
  5  6  1  6
  7  5  1  0
  7  8  2  0
  9 10  1  0
 10 11  2  0
 11 12  1  0
 13 12  2  0
 13 14  1  0
 15 14  1  1
 15 16  1  0
 16  7  1  0
 17 18  2  0
 17 15  1  0
 19 13  1  0
 20 10  1  0
 20 19  2  0
 22 21  1  0
 23 22  1  0
 23 24  1  1
 25 26  1  1
 25 23  1  0
 26 17  1  0
 27 25  1  0
 28 27  2  0
 29 27  1  0
M  END
$$$$
