NYI.pdb
     RDKit          3D

 29 29  0  0  1  0  0  0  0  0999 V2000
   24.8785  -12.0529  -16.6166 N   0  0  0  0  0  0  0  0  0  0  0  0
   24.3835  -11.0285  -17.4646 C   0  0  0  0  0  0  0  0  0  0  0  0
   25.0135  -10.8148  -18.5297 O   0  0  0  0  0  0  0  0  0  0  0  0
   23.1670  -10.2345  -17.1140 C   0  0  0  0  0  0  0  0  0  0  0  0
   22.6236  -10.7132  -15.7622 C   0  0  2  0  0  0  0  0  0  0  0  0
   22.0261  -12.0005  -15.9177 N   0  0  0  0  0  0  0  0  0  0  0  0
   21.7033   -9.6833  -15.2157 C   0  0  0  0  0  0  0  0  0  0  0  0
   20.5429   -9.6218  -15.6612 O   0  0  0  0  0  0  0  0  0  0  0  0
   17.1781   -4.4404   -9.8595 O   0  0  0  0  0  0  0  0  0  0  0  0
   18.0741   -5.3531  -10.4288 C   0  0  0  0  0  0  0  0  0  0  0  0
   17.7030   -6.1250  -11.5090 C   0  0  0  0  0  0  0  0  0  0  0  0
   18.5872   -7.0331  -12.0790 C   0  0  0  0  0  0  0  0  0  0  0  0
   19.8674   -7.2022  -11.5932 C   0  0  0  0  0  0  0  0  0  0  0  0
   20.8011   -8.1578  -12.1916 C   0  0  0  0  0  0  0  0  0  0  0  0
   21.1331   -7.8377  -13.6493 C   0  0  2  0  0  0  0  0  0  0  0  0
   22.0836   -8.7520  -14.1968 N   0  0  0  0  0  0  0  0  0  0  0  0
   21.5264   -6.4149  -13.8003 C   0  0  0  0  0  0  0  0  0  0  0  0
   22.6355   -6.0750  -13.3063 O   0  0  0  0  0  0  0  0  0  0  0  0
   20.2317   -6.4248  -10.5103 C   0  0  0  0  0  0  0  0  0  0  0  0
   19.3514   -5.5156   -9.9370 C   0  0  0  0  0  0  0  0  0  0  0  0
   22.4114   -2.2102  -17.5385 C   0  0  0  0  0  0  0  0  0  0  0  0
   21.3765   -2.2581  -16.4314 C   0  0  0  0  0  0  0  0  0  0  0  0
   20.9576   -3.6794  -16.1325 C   0  0  2  0  0  0  0  0  0  0  0  0
   19.5239   -3.8418  -16.5086 C   0  0  0  0  0  0  0  0  0  0  0  0
   21.2883   -4.1015  -14.7191 C   0  0  2  0  0  0  0  0  0  0  0  0
   20.7621   -5.4385  -14.4440 N   0  0  0  0  0  0  0  0  0  0  0  0
   20.7326   -3.1777  -13.7002 C   0  0  0  0  0  0  0  0  0  0  0  0
   21.4010   -2.1887  -13.2450 O   0  0  0  0  0  0  0  0  0  0  0  0
   19.4579   -3.3179  -13.1718 O   0  0  0  0  0  0  0  0  0  0  0  0
  2  1  1  0
  3  2  2  0
  4  5  1  0
  4  2  1  0
  5  6  1  6
  7  5  1  0
  7  8  2  0
  9 10  1  0
 10 11  2  0
 11 12  1  0
 13 12  2  0
 13 14  1  0
 15 14  1  1
 15 16  1  0
 16  7  1  0
 17 18  2  0
 17 15  1  0
 19 13  1  0
 20 10  1  0
 20 19  2  0
 22 21  1  0
 23 22  1  0
 23 24  1  1
 25 26  1  1
 25 23  1  0
 26 17  1  0
 27 25  1  0
 28 27  2  0
 29 27  1  0
M  END
$$$$
