TQH.pdb
     RDKit          3D

 27 27  0  0  1  0  0  0  0  0999 V2000
   28.2848  -17.2677  -17.3436 C   0  0  0  0  0  0  0  0  0  0  0  0
   26.9159  -17.7927  -16.9204 C   0  0  1  0  0  0  0  0  0  0  0  0
   26.0323  -17.4607  -17.9364 O   0  0  0  0  0  0  0  0  0  0  0  0
   27.0103  -19.2880  -16.8481 C   0  0  2  0  0  0  0  0  0  0  0  0
   27.3417  -19.8065  -18.1571 N   0  0  0  0  0  0  0  0  0  0  0  0
   25.8207  -19.9479  -16.3346 C   0  0  0  0  0  0  0  0  0  0  0  0
   24.9825  -20.4131  -17.1803 O   0  0  0  0  0  0  0  0  0  0  0  0
   24.8568  -24.1470  -13.4488 N   0  0  0  0  0  0  0  0  0  0  0  0
   23.6740  -23.6856  -12.8319 C   0  0  0  0  0  0  0  0  0  0  0  0
   22.8058  -24.5265  -12.4995 O   0  0  0  0  0  0  0  0  0  0  0  0
   23.5016  -22.2011  -12.5971 C   0  0  0  0  0  0  0  0  0  0  0  0
   24.6530  -21.5488  -13.3091 C   0  0  0  0  0  0  0  0  0  0  0  0
   24.2785  -20.8255  -14.5815 C   0  0  2  0  0  0  0  0  0  0  0  0
   25.5156  -20.1169  -14.9633 N   0  0  0  0  0  0  0  0  0  0  0  0
   23.2571  -19.7832  -14.4133 C   0  0  0  0  0  0  0  0  0  0  0  0
   23.5721  -18.5867  -14.0730 O   0  0  0  0  0  0  0  0  0  0  0  0
   21.8601  -19.9758  -14.6051 N   0  0  0  0  0  0  0  0  0  0  0  0
   20.9464  -18.8642  -14.9260 C   0  0  1  0  0  0  0  0  0  0  0  0
   21.4722  -18.0699  -16.0721 C   0  0  0  0  0  0  0  0  0  0  0  0
   20.5810  -16.9420  -16.3848 C   0  0  0  0  0  0  0  0  0  0  0  0
   20.1158  -15.9377  -15.5571 C   0  0  0  0  0  0  0  0  0  0  0  0
   19.2981  -15.1031  -16.2155 N   0  0  0  0  0  0  0  0  0  0  0  0
   19.2434  -15.5848  -17.4799 C   0  0  0  0  0  0  0  0  0  0  0  0
   20.0027  -16.6782  -17.5917 N   0  0  0  0  0  0  0  0  0  0  0  0
   19.5874  -19.3454  -15.1470 C   0  0  0  0  0  0  0  0  0  0  0  0
   18.4699  -18.6641  -14.6857 O   0  0  0  0  0  0  0  0  0  0  0  0
   19.3815  -20.4074  -15.7709 O   0  0  0  0  0  0  0  0  0  0  0  0
  2  1  1  6
  2  4  1  0
  3  2  1  0
  4  6  1  0
  4  5  1  6
  6  7  2  0
  6 14  1  0
  8  9  1  0
  9 10  2  0
 11  9  1  0
 12 11  1  0
 13 15  1  0
 13 12  1  1
 14 13  1  0
 15 16  2  0
 17 18  1  0
 17 15  1  0
 18 19  1  6
 20 19  1  0
 21 20  2  0
 22 21  1  0
 23 22  1  0
 23 24  2  0
 24 20  1  0
 25 18  1  0
 26 25  1  0
 27 25  2  0
M  END
$$$$
