TQH.pdb
     RDKit          3D

 27 27  0  0  1  0  0  0  0  0999 V2000
   30.9472  -25.9284  -17.1008 C   0  0  0  0  0  0  0  0  0  0  0  0
   31.6329  -25.1934  -18.2488 C   0  0  1  0  0  0  0  0  0  0  0  0
   31.8697  -23.9004  -17.8067 O   0  0  0  0  0  0  0  0  0  0  0  0
   32.9557  -25.8606  -18.4838 C   0  0  2  0  0  0  0  0  0  0  0  0
   33.6424  -25.1862  -19.5634 N   0  0  0  0  0  0  0  0  0  0  0  0
   32.8772  -27.2872  -18.7541 C   0  0  0  0  0  0  0  0  0  0  0  0
   32.5948  -27.6558  -19.9451 O   0  0  0  0  0  0  0  0  0  0  0  0
   36.8649  -30.9781  -17.7249 N   0  0  0  0  0  0  0  0  0  0  0  0
   35.9723  -32.0481  -17.9501 C   0  0  0  0  0  0  0  0  0  0  0  0
   36.4274  -33.2161  -17.9520 O   0  0  0  0  0  0  0  0  0  0  0  0
   34.5081  -31.7444  -18.1793 C   0  0  0  0  0  0  0  0  0  0  0  0
   34.3864  -30.2519  -18.0540 C   0  0  0  0  0  0  0  0  0  0  0  0
   32.9812  -29.7192  -18.2096 C   0  0  2  0  0  0  0  0  0  0  0  0
   33.0903  -28.3066  -17.7962 N   0  0  0  0  0  0  0  0  0  0  0  0
   31.9951  -30.3250  -17.3050 C   0  0  0  0  0  0  0  0  0  0  0  0
   31.7247  -29.8033  -16.1641 O   0  0  0  0  0  0  0  0  0  0  0  0
   31.2562  -31.5090  -17.5836 N   0  0  0  0  0  0  0  0  0  0  0  0
   30.1980  -32.0089  -16.6870 C   0  0  1  0  0  0  0  0  0  0  0  0
   29.1962  -30.9399  -16.4143 C   0  0  0  0  0  0  0  0  0  0  0  0
   28.1570  -31.4151  -15.4877 C   0  0  0  0  0  0  0  0  0  0  0  0
   28.2813  -31.8555  -14.1835 C   0  0  0  0  0  0  0  0  0  0  0  0
   27.0958  -32.2299  -13.6805 N   0  0  0  0  0  0  0  0  0  0  0  0
   26.2058  -32.0242  -14.6801 C   0  0  0  0  0  0  0  0  0  0  0  0
   26.8261  -31.5398  -15.7595 N   0  0  0  0  0  0  0  0  0  0  0  0
   29.5952  -33.2291  -17.2113 C   0  0  0  0  0  0  0  0  0  0  0  0
   28.9918  -34.1746  -16.3941 O   0  0  0  0  0  0  0  0  0  0  0  0
   29.6029  -33.4672  -18.4372 O   0  0  0  0  0  0  0  0  0  0  0  0
  2  1  1  1
  2  4  1  0
  3  2  1  0
  4  6  1  0
  4  5  1  6
  6  7  2  0
  6 14  1  0
  8  9  1  0
  9 10  2  0
 11  9  1  0
 12 11  1  0
 13 15  1  0
 13 12  1  1
 14 13  1  0
 15 16  2  0
 17 18  1  0
 17 15  1  0
 18 19  1  6
 20 19  1  0
 21 20  2  0
 22 21  1  0
 23 22  1  0
 23 24  2  0
 24 20  1  0
 25 18  1  0
 26 25  1  0
 27 25  2  0
M  END
$$$$
