TQH.pdb
     RDKit          3D

 27 27  0  0  1  0  0  0  0  0999 V2000
   29.9549  -17.4564  -17.5584 C   0  0  0  0  0  0  0  0  0  0  0  0
   28.8698  -18.5268  -17.6327 C   0  0  1  0  0  0  0  0  0  0  0  0
   27.9287  -18.0748  -18.5456 O   0  0  0  0  0  0  0  0  0  0  0  0
   29.5018  -19.7704  -18.1842 C   0  0  2  0  0  0  0  0  0  0  0  0
   29.9883  -19.5034  -19.5199 N   0  0  0  0  0  0  0  0  0  0  0  0
   28.6375  -20.9397  -18.1905 C   0  0  0  0  0  0  0  0  0  0  0  0
   27.9152  -21.1442  -19.2252 O   0  0  0  0  0  0  0  0  0  0  0  0
   29.7061  -26.2778  -16.2769 N   0  0  0  0  0  0  0  0  0  0  0  0
   28.3157  -26.5188  -16.2440 C   0  0  0  0  0  0  0  0  0  0  0  0
   27.9155  -27.6741  -15.9675 O   0  0  0  0  0  0  0  0  0  0  0  0
   27.3676  -25.3783  -16.5424 C   0  0  0  0  0  0  0  0  0  0  0  0
   28.2458  -24.1840  -16.7879 C   0  0  0  0  0  0  0  0  0  0  0  0
   27.5074  -22.9349  -17.2088 C   0  0  2  0  0  0  0  0  0  0  0  0
   28.5323  -21.8756  -17.1345 N   0  0  0  0  0  0  0  0  0  0  0  0
   26.4372  -22.5202  -16.2920 C   0  0  0  0  0  0  0  0  0  0  0  0
   26.6917  -21.8568  -15.2233 O   0  0  0  0  0  0  0  0  0  0  0  0
   25.0535  -22.7939  -16.4812 N   0  0  0  0  0  0  0  0  0  0  0  0
   24.0227  -22.3491  -15.5255 C   0  0  1  0  0  0  0  0  0  0  0  0
   24.0207  -20.8631  -15.4132 C   0  0  0  0  0  0  0  0  0  0  0  0
   22.9244  -20.4012  -14.5477 C   0  0  0  0  0  0  0  0  0  0  0  0
   22.8475  -20.3796  -13.1679 C   0  0  0  0  0  0  0  0  0  0  0  0
   21.6640  -19.9041  -12.7532 N   0  0  0  0  0  0  0  0  0  0  0  0
   20.9795  -19.6197  -13.8865 C   0  0  0  0  0  0  0  0  0  0  0  0
   21.7197  -19.9115  -14.9596 N   0  0  0  0  0  0  0  0  0  0  0  0
   22.7139  -22.8923  -15.8707 C   0  0  0  0  0  0  0  0  0  0  0  0
   22.2403  -22.9276  -17.1746 O   0  0  0  0  0  0  0  0  0  0  0  0
   21.9620  -23.3525  -14.9860 O   0  0  0  0  0  0  0  0  0  0  0  0
  2  1  1  6
  2  4  1  0
  3  2  1  0
  4  6  1  0
  4  5  1  6
  6  7  2  0
  6 14  1  0
  8  9  1  0
  9 10  2  0
 11  9  1  0
 12 11  1  0
 13 15  1  0
 13 12  1  1
 14 13  1  0
 15 16  2  0
 17 18  1  0
 17 15  1  0
 18 19  1  6
 20 19  1  0
 21 20  2  0
 22 21  1  0
 23 22  1  0
 23 24  2  0
 24 20  1  0
 25 18  1  0
 26 25  1  0
 27 25  2  0
M  END
$$$$
