TQH.pdb
     RDKit          3D

 27 27  0  0  1  0  0  0  0  0999 V2000
   26.4500  -13.5225  -15.7321 C   0  0  0  0  0  0  0  0  0  0  0  0
   25.8176  -14.9043  -15.5937 C   0  0  1  0  0  0  0  0  0  0  0  0
   24.7106  -14.9194  -16.4289 O   0  0  0  0  0  0  0  0  0  0  0  0
   26.8090  -15.9061  -16.1073 C   0  0  2  0  0  0  0  0  0  0  0  0
   27.1299  -15.5942  -17.4827 N   0  0  0  0  0  0  0  0  0  0  0  0
   26.3859  -17.2927  -15.9940 C   0  0  0  0  0  0  0  0  0  0  0  0
   26.0143  -17.8938  -17.0592 O   0  0  0  0  0  0  0  0  0  0  0  0
   28.7909  -21.6251  -12.8901 N   0  0  0  0  0  0  0  0  0  0  0  0
   28.1930  -20.6586  -12.0530 C   0  0  0  0  0  0  0  0  0  0  0  0
   28.5467  -20.6071  -10.8515 O   0  0  0  0  0  0  0  0  0  0  0  0
   27.1535  -19.7270  -12.6364 C   0  0  0  0  0  0  0  0  0  0  0  0
   26.9596  -20.1844  -14.0545 C   0  0  0  0  0  0  0  0  0  0  0  0
   25.8918  -19.4359  -14.8174 C   0  0  2  0  0  0  0  0  0  0  0  0
   26.3531  -18.0343  -14.7893 N   0  0  0  0  0  0  0  0  0  0  0  0
   24.5705  -19.4343  -14.1755 C   0  0  0  0  0  0  0  0  0  0  0  0
   24.2210  -18.5015  -13.3665 O   0  0  0  0  0  0  0  0  0  0  0  0
   23.5692  -20.4260  -14.3742 N   0  0  0  0  0  0  0  0  0  0  0  0
   22.2768  -20.3964  -13.6653 C   0  0  1  0  0  0  0  0  0  0  0  0
   22.3464  -19.4831  -12.4899 C   0  0  0  0  0  0  0  0  0  0  0  0
   23.1495  -20.0752  -11.4088 C   0  0  0  0  0  0  0  0  0  0  0  0
   23.8231  -21.2816  -11.3782 C   0  0  0  0  0  0  0  0  0  0  0  0
   24.4228  -21.4750  -10.1943 N   0  0  0  0  0  0  0  0  0  0  0  0
   24.1254  -20.3751   -9.4625 C   0  0  0  0  0  0  0  0  0  0  0  0
   23.3686  -19.5360  -10.1752 N   0  0  0  0  0  0  0  0  0  0  0  0
   21.1843  -20.0673  -14.5739 C   0  0  0  0  0  0  0  0  0  0  0  0
   20.7894  -18.7607  -14.8244 O   0  0  0  0  0  0  0  0  0  0  0  0
   20.5564  -20.9689  -15.1676 O   0  0  0  0  0  0  0  0  0  0  0  0
  2  1  1  6
  2  4  1  0
  3  2  1  0
  4  6  1  0
  4  5  1  6
  6  7  2  0
  6 14  1  0
  8  9  1  0
  9 10  2  0
 11  9  1  0
 12 11  1  0
 13 15  1  0
 13 12  1  1
 14 13  1  0
 15 16  2  0
 17 18  1  0
 17 15  1  0
 18 19  1  1
 20 19  1  0
 21 20  2  0
 22 21  1  0
 23 22  1  0
 23 24  2  0
 24 20  1  0
 25 18  1  0
 26 25  1  0
 27 25  2  0
M  END
$$$$
