TQH.pdb
     RDKit          3D

 27 27  0  0  1  0  0  0  0  0999 V2000
   23.1560   -9.3737  -14.5998 C   0  0  0  0  0  0  0  0  0  0  0  0
   23.0497  -10.1072  -15.9336 C   0  0  1  0  0  0  0  0  0  0  0  0
   24.1471  -10.9516  -16.0105 O   0  0  0  0  0  0  0  0  0  0  0  0
   21.8095  -10.9497  -15.8860 C   0  0  2  0  0  0  0  0  0  0  0  0
   21.7033  -11.7079  -17.1132 N   0  0  0  0  0  0  0  0  0  0  0  0
   20.5809  -10.2097  -15.6467 C   0  0  0  0  0  0  0  0  0  0  0  0
   20.0648   -9.5736  -16.6282 O   0  0  0  0  0  0  0  0  0  0  0  0
   16.5190   -9.5869  -10.1882 N   0  0  0  0  0  0  0  0  0  0  0  0
   16.1597   -9.8303  -11.5313 C   0  0  0  0  0  0  0  0  0  0  0  0
   15.3064  -10.7169  -11.7707 O   0  0  0  0  0  0  0  0  0  0  0  0
   16.8158   -9.0154  -12.6241 C   0  0  0  0  0  0  0  0  0  0  0  0
   17.9602   -9.8560  -13.1156 C   0  0  0  0  0  0  0  0  0  0  0  0
   18.7260   -9.2620  -14.2745 C   0  0  2  0  0  0  0  0  0  0  0  0
   19.9069  -10.1375  -14.4047 N   0  0  0  0  0  0  0  0  0  0  0  0
   19.2539   -7.9131  -14.0302 C   0  0  0  0  0  0  0  0  0  0  0  0
   20.3836   -7.7321  -13.4487 O   0  0  0  0  0  0  0  0  0  0  0  0
   18.5991   -6.7048  -14.3996 N   0  0  0  0  0  0  0  0  0  0  0  0
   19.2627   -5.3907  -14.3198 C   0  0  1  0  0  0  0  0  0  0  0  0
   20.5986   -5.4391  -14.9784 C   0  0  0  0  0  0  0  0  0  0  0  0
   21.2502   -4.1205  -14.9470 C   0  0  0  0  0  0  0  0  0  0  0  0
   21.6193   -3.3516  -13.8594 C   0  0  0  0  0  0  0  0  0  0  0  0
   22.1687   -2.1912  -14.2469 N   0  0  0  0  0  0  0  0  0  0  0  0
   22.1481   -2.2239  -15.6005 C   0  0  0  0  0  0  0  0  0  0  0  0
   21.6039   -3.3668  -16.0274 N   0  0  0  0  0  0  0  0  0  0  0  0
   18.4079   -4.3349  -14.8508 C   0  0  0  0  0  0  0  0  0  0  0  0
   17.7721   -4.4365  -16.0801 O   0  0  0  0  0  0  0  0  0  0  0  0
   18.2169   -3.2843  -14.2032 O   0  0  0  0  0  0  0  0  0  0  0  0
  2  1  1  1
  2  4  1  0
  3  2  1  0
  4  6  1  0
  4  5  1  6
  6  7  2  0
  6 14  1  0
  8  9  1  0
  9 10  2  0
 11  9  1  0
 12 11  1  0
 13 15  1  0
 13 12  1  1
 14 13  1  0
 15 16  2  0
 17 18  1  0
 17 15  1  0
 18 19  1  6
 20 19  1  0
 21 20  2  0
 22 21  1  0
 23 22  1  0
 23 24  2  0
 24 20  1  0
 25 18  1  0
 26 25  1  0
 27 25  2  0
M  END
$$$$
