TQH.pdb
     RDKit          3D

 27 27  0  0  1  0  0  0  0  0999 V2000
   14.2253  -14.4635  -10.9848 C   0  0  0  0  0  0  0  0  0  0  0  0
   13.8542  -12.9871  -11.0905 C   0  0  1  0  0  0  0  0  0  0  0  0
   13.2669  -12.6383   -9.8835 O   0  0  0  0  0  0  0  0  0  0  0  0
   15.1302  -12.2119  -11.2349 C   0  0  2  0  0  0  0  0  0  0  0  0
   15.9445  -12.4142  -10.0567 N   0  0  0  0  0  0  0  0  0  0  0  0
   14.9528  -10.7901  -11.4827 C   0  0  0  0  0  0  0  0  0  0  0  0
   14.2874  -10.4415  -12.5170 O   0  0  0  0  0  0  0  0  0  0  0  0
   13.1080   -6.5459   -8.0305 N   0  0  0  0  0  0  0  0  0  0  0  0
   14.5034   -6.4133   -7.8639 C   0  0  0  0  0  0  0  0  0  0  0  0
   14.9288   -5.7514   -6.8880 O   0  0  0  0  0  0  0  0  0  0  0  0
   15.4263   -7.0723   -8.8652 C   0  0  0  0  0  0  0  0  0  0  0  0
   14.5217   -7.7590   -9.8491 C   0  0  0  0  0  0  0  0  0  0  0  0
   15.2270   -8.3493  -11.0477 C   0  0  2  0  0  0  0  0  0  0  0  0
   15.4621   -9.7548  -10.6635 N   0  0  0  0  0  0  0  0  0  0  0  0
   16.5549   -7.7812  -11.3156 C   0  0  0  0  0  0  0  0  0  0  0  0
   17.5985   -8.1989  -10.6964 O   0  0  0  0  0  0  0  0  0  0  0  0
   16.8219   -6.7477  -12.2570 N   0  0  0  0  0  0  0  0  0  0  0  0
   18.1834   -6.2409  -12.5082 C   0  0  1  0  0  0  0  0  0  0  0  0
   18.8735   -7.0801  -13.5280 C   0  0  0  0  0  0  0  0  0  0  0  0
   20.2138   -6.5521  -13.8261 C   0  0  0  0  0  0  0  0  0  0  0  0
   21.3724   -6.6297  -13.0765 C   0  0  0  0  0  0  0  0  0  0  0  0
   22.3884   -5.9983  -13.6829 N   0  0  0  0  0  0  0  0  0  0  0  0
   21.8671   -5.5128  -14.8345 C   0  0  0  0  0  0  0  0  0  0  0  0
   20.5745   -5.8363  -14.9298 N   0  0  0  0  0  0  0  0  0  0  0  0
   18.1628   -4.8255  -12.8598 C   0  0  0  0  0  0  0  0  0  0  0  0
   19.2888   -4.0188  -12.7756 O   0  0  0  0  0  0  0  0  0  0  0  0
   17.1099   -4.2831  -13.2559 O   0  0  0  0  0  0  0  0  0  0  0  0
  2  1  1  1
  2  4  1  0
  3  2  1  0
  4  6  1  0
  4  5  1  1
  6  7  2  0
  6 14  1  0
  8  9  1  0
  9 10  2  0
 11  9  1  0
 12 11  1  0
 13 15  1  0
 13 12  1  1
 14 13  1  0
 15 16  2  0
 17 18  1  0
 17 15  1  0
 18 19  1  6
 20 19  1  0
 21 20  2  0
 22 21  1  0
 23 22  1  0
 23 24  2  0
 24 20  1  0
 25 18  1  0
 26 25  1  0
 27 25  2  0
M  END
$$$$
