TQH.pdb
     RDKit          3D

 27 27  0  0  1  0  0  0  0  0999 V2000
   26.5258  -14.0066  -15.3542 C   0  0  0  0  0  0  0  0  0  0  0  0
   25.3851  -13.1353  -15.8721 C   0  0  1  0  0  0  0  0  0  0  0  0
   25.7459  -12.7261  -17.1471 O   0  0  0  0  0  0  0  0  0  0  0  0
   24.1688  -14.0062  -15.9835 C   0  0  2  0  0  0  0  0  0  0  0  0
   24.4173  -15.0464  -16.9573 N   0  0  0  0  0  0  0  0  0  0  0  0
   22.9418  -13.2975  -16.3099 C   0  0  0  0  0  0  0  0  0  0  0  0
   22.5354  -13.3316  -17.5215 O   0  0  0  0  0  0  0  0  0  0  0  0
   17.9197  -14.1291  -15.0197 N   0  0  0  0  0  0  0  0  0  0  0  0
   17.4928  -12.7967  -15.2066 C   0  0  0  0  0  0  0  0  0  0  0  0
   16.2705  -12.5792  -15.3801 O   0  0  0  0  0  0  0  0  0  0  0  0
   18.5228  -11.6886  -15.1903 C   0  0  0  0  0  0  0  0  0  0  0  0
   19.8449  -12.3765  -14.9988 C   0  0  0  0  0  0  0  0  0  0  0  0
   20.9625  -11.8459  -15.8660 C   0  0  2  0  0  0  0  0  0  0  0  0
   22.1567  -12.5681  -15.3859 N   0  0  0  0  0  0  0  0  0  0  0  0
   21.2563  -10.4190  -15.6778 C   0  0  0  0  0  0  0  0  0  0  0  0
   21.8069   -9.9855  -14.6027 O   0  0  0  0  0  0  0  0  0  0  0  0
   20.9775   -9.3992  -16.6307 N   0  0  0  0  0  0  0  0  0  0  0  0
   21.3532   -7.9904  -16.4123 C   0  0  1  0  0  0  0  0  0  0  0  0
   20.8919   -7.1444  -17.5490 C   0  0  0  0  0  0  0  0  0  0  0  0
   21.3083   -5.7451  -17.3678 C   0  0  0  0  0  0  0  0  0  0  0  0
   20.7500   -4.7609  -16.5742 C   0  0  0  0  0  0  0  0  0  0  0  0
   21.4087   -3.5997  -16.7022 N   0  0  0  0  0  0  0  0  0  0  0  0
   22.3998   -3.8505  -17.5902 C   0  0  0  0  0  0  0  0  0  0  0  0
   22.3494   -5.1233  -17.9925 N   0  0  0  0  0  0  0  0  0  0  0  0
   20.8757   -7.5114  -15.1201 C   0  0  0  0  0  0  0  0  0  0  0  0
   21.6329   -6.6817  -14.3051 O   0  0  0  0  0  0  0  0  0  0  0  0
   19.7474   -7.8391  -14.6968 O   0  0  0  0  0  0  0  0  0  0  0  0
  2  1  1  6
  2  4  1  0
  3  2  1  0
  4  6  1  0
  4  5  1  6
  6  7  2  0
  6 14  1  0
  8  9  1  0
  9 10  2  0
 11  9  1  0
 12 11  1  0
 13 15  1  0
 13 12  1  1
 14 13  1  0
 15 16  2  0
 17 18  1  0
 17 15  1  0
 18 19  1  6
 20 19  1  0
 21 20  2  0
 22 21  1  0
 23 22  1  0
 23 24  2  0
 24 20  1  0
 25 18  1  0
 26 25  1  0
 27 25  2  0
M  END
$$$$
