TQH.pdb
     RDKit          3D

 27 27  0  0  1  0  0  0  0  0999 V2000
   26.3566  -14.6496  -15.2325 C   0  0  0  0  0  0  0  0  0  0  0  0
   25.4357  -13.5206  -15.6863 C   0  0  1  0  0  0  0  0  0  0  0  0
   26.0612  -12.9061  -16.7607 O   0  0  0  0  0  0  0  0  0  0  0  0
   24.1641  -14.1470  -16.1767 C   0  0  2  0  0  0  0  0  0  0  0  0
   24.4687  -15.0509  -17.2641 N   0  0  0  0  0  0  0  0  0  0  0  0
   23.1384  -13.2005  -16.5848 C   0  0  0  0  0  0  0  0  0  0  0  0
   22.9949  -12.9760  -17.8351 O   0  0  0  0  0  0  0  0  0  0  0  0
   17.8209  -13.3657  -14.8498 N   0  0  0  0  0  0  0  0  0  0  0  0
   17.5881  -12.0828  -15.3905 C   0  0  0  0  0  0  0  0  0  0  0  0
   16.4224  -11.6230  -15.3584 O   0  0  0  0  0  0  0  0  0  0  0  0
   18.7494  -11.3168  -15.9849 C   0  0  0  0  0  0  0  0  0  0  0  0
   19.9505  -12.1980  -15.7877 C   0  0  0  0  0  0  0  0  0  0  0  0
   21.2558  -11.5977  -16.2552 C   0  0  2  0  0  0  0  0  0  0  0  0
   22.2808  -12.5036  -15.7011 N   0  0  0  0  0  0  0  0  0  0  0  0
   21.5520  -10.2712  -15.6981 C   0  0  0  0  0  0  0  0  0  0  0  0
   22.1239  -10.1374  -14.5571 O   0  0  0  0  0  0  0  0  0  0  0  0
   21.2528   -9.0357  -16.3379 N   0  0  0  0  0  0  0  0  0  0  0  0
   21.5053   -7.7326  -15.6961 C   0  0  1  0  0  0  0  0  0  0  0  0
   21.3205   -6.6238  -16.6744 C   0  0  0  0  0  0  0  0  0  0  0  0
   21.6808   -5.3284  -16.0775 C   0  0  0  0  0  0  0  0  0  0  0  0
   22.7128   -5.0198  -15.2115 C   0  0  0  0  0  0  0  0  0  0  0  0
   22.6931   -3.7224  -14.8725 N   0  0  0  0  0  0  0  0  0  0  0  0
   21.6329   -3.1996  -15.5330 C   0  0  0  0  0  0  0  0  0  0  0  0
   21.0237   -4.1459  -16.2527 N   0  0  0  0  0  0  0  0  0  0  0  0
   20.6930   -7.5695  -14.4958 C   0  0  0  0  0  0  0  0  0  0  0  0
   21.2117   -7.0847  -13.3034 O   0  0  0  0  0  0  0  0  0  0  0  0
   19.4801   -7.8671  -14.5024 O   0  0  0  0  0  0  0  0  0  0  0  0
  2  1  1  6
  2  4  1  0
  3  2  1  0
  4  6  1  0
  4  5  1  6
  6  7  2  0
  6 14  1  0
  8  9  1  0
  9 10  2  0
 11  9  1  0
 12 11  1  0
 13 15  1  0
 13 12  1  1
 14 13  1  0
 15 16  2  0
 17 18  1  0
 17 15  1  0
 18 19  1  6
 20 19  1  0
 21 20  2  0
 22 21  1  0
 23 22  1  0
 23 24  2  0
 24 20  1  0
 25 18  1  0
 26 25  1  0
 27 25  2  0
M  END
$$$$
