TQH.pdb
     RDKit          3D

 27 27  0  0  1  0  0  0  0  0999 V2000
   24.9570  -10.4467  -15.0683 C   0  0  0  0  0  0  0  0  0  0  0  0
   25.3396  -11.0995  -16.3935 C   0  0  1  0  0  0  0  0  0  0  0  0
   26.5397  -11.7602  -16.1784 O   0  0  0  0  0  0  0  0  0  0  0  0
   24.2891  -12.1221  -16.7110 C   0  0  2  0  0  0  0  0  0  0  0  0
   24.6590  -12.8226  -17.9212 N   0  0  0  0  0  0  0  0  0  0  0  0
   22.9409  -11.5909  -16.8321 C   0  0  0  0  0  0  0  0  0  0  0  0
   22.6777  -10.8510  -17.8408 O   0  0  0  0  0  0  0  0  0  0  0  0
   18.0467  -13.8947  -14.3744 N   0  0  0  0  0  0  0  0  0  0  0  0
   17.3661  -12.7717  -14.8922 C   0  0  0  0  0  0  0  0  0  0  0  0
   16.1156  -12.7404  -14.8108 O   0  0  0  0  0  0  0  0  0  0  0  0
   18.1692  -11.6551  -15.5223 C   0  0  0  0  0  0  0  0  0  0  0  0
   19.5921  -12.1381  -15.5211 C   0  0  0  0  0  0  0  0  0  0  0  0
   20.5852  -11.1736  -16.1262 C   0  0  2  0  0  0  0  0  0  0  0  0
   21.8901  -11.8301  -15.9152 N   0  0  0  0  0  0  0  0  0  0  0  0
   20.6743   -9.8782  -15.4393 C   0  0  0  0  0  0  0  0  0  0  0  0
   21.6064   -9.6331  -14.5919 O   0  0  0  0  0  0  0  0  0  0  0  0
   19.7747   -8.7924  -15.6322 N   0  0  0  0  0  0  0  0  0  0  0  0
   20.0553   -7.4354  -15.1289 C   0  0  1  0  0  0  0  0  0  0  0  0
   21.3644   -6.9464  -15.6465 C   0  0  0  0  0  0  0  0  0  0  0  0
   21.6639   -5.5999  -15.1351 C   0  0  0  0  0  0  0  0  0  0  0  0
   20.9437   -4.8183  -14.2517 C   0  0  0  0  0  0  0  0  0  0  0  0
   21.5392   -3.6333  -14.0521 N   0  0  0  0  0  0  0  0  0  0  0  0
   22.6540   -3.6631  -14.8203 C   0  0  0  0  0  0  0  0  0  0  0  0
   22.7380   -4.8281  -15.4686 N   0  0  0  0  0  0  0  0  0  0  0  0
   18.9544   -6.5252  -15.4237 C   0  0  0  0  0  0  0  0  0  0  0  0
   18.4370   -5.6490  -14.4802 O   0  0  0  0  0  0  0  0  0  0  0  0
   18.4314   -6.5048  -16.5576 O   0  0  0  0  0  0  0  0  0  0  0  0
  2  1  1  1
  2  4  1  0
  3  2  1  0
  4  6  1  0
  4  5  1  6
  6  7  2  0
  6 14  1  0
  8  9  1  0
  9 10  2  0
 11  9  1  0
 12 11  1  0
 13 15  1  0
 13 12  1  1
 14 13  1  0
 15 16  2  0
 17 18  1  0
 17 15  1  0
 18 19  1  6
 20 19  1  0
 21 20  2  0
 22 21  1  0
 23 22  1  0
 23 24  2  0
 24 20  1  0
 25 18  1  0
 26 25  1  0
 27 25  2  0
M  END
$$$$
