TQH.pdb
     RDKit          3D

 27 27  0  0  1  0  0  0  0  0999 V2000
   13.5432   -8.7739  -14.9369 C   0  0  0  0  0  0  0  0  0  0  0  0
   14.1766   -9.2251  -16.2498 C   0  0  1  0  0  0  0  0  0  0  0  0
   14.5430   -8.0733  -16.9299 O   0  0  0  0  0  0  0  0  0  0  0  0
   15.4226   -9.9877  -15.9094 C   0  0  2  0  0  0  0  0  0  0  0  0
   15.0599  -11.2058  -15.2189 N   0  0  0  0  0  0  0  0  0  0  0  0
   16.3978   -9.2419  -15.1302 C   0  0  0  0  0  0  0  0  0  0  0  0
   16.1835   -9.1040  -13.8775 O   0  0  0  0  0  0  0  0  0  0  0  0
   21.9724  -10.0851  -15.5595 N   0  0  0  0  0  0  0  0  0  0  0  0
   22.1799   -9.0377  -14.6363 C   0  0  0  0  0  0  0  0  0  0  0  0
   23.3280   -8.8808  -14.1581 O   0  0  0  0  0  0  0  0  0  0  0  0
   21.0135   -8.1499  -14.2619 C   0  0  0  0  0  0  0  0  0  0  0  0
   19.8307   -8.7153  -14.9960 C   0  0  0  0  0  0  0  0  0  0  0  0
   18.5253   -8.0023  -14.7313 C   0  0  2  0  0  0  0  0  0  0  0  0
   17.5733   -8.6526  -15.6528 N   0  0  0  0  0  0  0  0  0  0  0  0
   18.5228   -6.5788  -15.0939 C   0  0  0  0  0  0  0  0  0  0  0  0
   18.7940   -6.1919  -16.2871 O   0  0  0  0  0  0  0  0  0  0  0  0
   18.2273   -5.5126  -14.1986 N   0  0  0  0  0  0  0  0  0  0  0  0
   18.7135   -4.1384  -14.4194 C   0  0  1  0  0  0  0  0  0  0  0  0
   20.1955   -4.1272  -14.5752 C   0  0  0  0  0  0  0  0  0  0  0  0
   20.6899   -2.7631  -14.8184 C   0  0  0  0  0  0  0  0  0  0  0  0
   20.0091   -1.5616  -14.7613 C   0  0  0  0  0  0  0  0  0  0  0  0
   20.8098   -0.5324  -15.0747 N   0  0  0  0  0  0  0  0  0  0  0  0
   22.0167   -1.0888  -15.3346 C   0  0  0  0  0  0  0  0  0  0  0  0
   21.9567   -2.4149  -15.1852 N   0  0  0  0  0  0  0  0  0  0  0  0
   18.0221   -3.5076  -15.5380 C   0  0  0  0  0  0  0  0  0  0  0  0
   17.3166   -2.3199  -15.4057 O   0  0  0  0  0  0  0  0  0  0  0  0
   18.0429   -4.0265  -16.6738 O   0  0  0  0  0  0  0  0  0  0  0  0
  2  1  1  1
  2  4  1  0
  3  2  1  0
  4  6  1  0
  4  5  1  1
  6  7  2  0
  6 14  1  0
  8  9  1  0
  9 10  2  0
 11  9  1  0
 12 11  1  0
 13 15  1  0
 13 12  1  6
 14 13  1  0
 15 16  2  0
 17 18  1  0
 17 15  1  0
 18 19  1  6
 20 19  1  0
 21 20  2  0
 22 21  1  0
 23 22  1  0
 23 24  2  0
 24 20  1  0
 25 18  1  0
 26 25  1  0
 27 25  2  0
M  END
$$$$
