TQH.pdb
     RDKit          3D

 27 27  0  0  1  0  0  0  0  0999 V2000
   17.5725  -14.7075  -18.2739 C   0  0  0  0  0  0  0  0  0  0  0  0
   17.3132  -14.8906  -16.7813 C   0  0  1  0  0  0  0  0  0  0  0  0
   18.5545  -14.9172  -16.1635 O   0  0  0  0  0  0  0  0  0  0  0  0
   16.5739  -13.6769  -16.3011 C   0  0  2  0  0  0  0  0  0  0  0  0
   15.2283  -13.7002  -16.8311 N   0  0  0  0  0  0  0  0  0  0  0  0
   17.2147  -12.4104  -16.6171 C   0  0  0  0  0  0  0  0  0  0  0  0
   17.3389  -12.0938  -17.8494 O   0  0  0  0  0  0  0  0  0  0  0  0
   16.0108   -6.9313  -17.8186 N   0  0  0  0  0  0  0  0  0  0  0  0
   16.2477   -7.3898  -16.5048 C   0  0  0  0  0  0  0  0  0  0  0  0
   16.4488   -6.5427  -15.6029 O   0  0  0  0  0  0  0  0  0  0  0  0
   16.2494   -8.8790  -16.2381 C   0  0  0  0  0  0  0  0  0  0  0  0
   17.5403   -9.1536  -15.5197 C   0  0  0  0  0  0  0  0  0  0  0  0
   18.3751  -10.2582  -16.1242 C   0  0  2  0  0  0  0  0  0  0  0  0
   17.7151  -11.4945  -15.6617 N   0  0  0  0  0  0  0  0  0  0  0  0
   19.7528  -10.3282  -15.6194 C   0  0  0  0  0  0  0  0  0  0  0  0
   20.0065  -10.6943  -14.4159 O   0  0  0  0  0  0  0  0  0  0  0  0
   20.9140  -10.0138  -16.3799 N   0  0  0  0  0  0  0  0  0  0  0  0
   22.2597   -9.9585  -15.7802 C   0  0  1  0  0  0  0  0  0  0  0  0
   23.2838  -10.4414  -16.7490 C   0  0  0  0  0  0  0  0  0  0  0  0
   24.6418  -10.2703  -16.2098 C   0  0  0  0  0  0  0  0  0  0  0  0
   25.1924  -10.7750  -15.0469 C   0  0  0  0  0  0  0  0  0  0  0  0
   26.4621  -10.3710  -14.8935 N   0  0  0  0  0  0  0  0  0  0  0  0
   26.7212   -9.5984  -15.9750 C   0  0  0  0  0  0  0  0  0  0  0  0
   25.6456   -9.5318  -16.7644 N   0  0  0  0  0  0  0  0  0  0  0  0
   22.5527   -8.6263  -15.2639 C   0  0  0  0  0  0  0  0  0  0  0  0
   23.1665   -8.4195  -14.0365 O   0  0  0  0  0  0  0  0  0  0  0  0
   22.2547   -7.6082  -15.9229 O   0  0  0  0  0  0  0  0  0  0  0  0
  2  1  1  6
  2  4  1  0
  3  2  1  0
  4  6  1  0
  4  5  1  6
  6  7  2  0
  6 14  1  0
  8  9  1  0
  9 10  2  0
 11  9  1  0
 12 11  1  0
 13 15  1  0
 13 12  1  1
 14 13  1  0
 15 16  2  0
 17 18  1  0
 17 15  1  0
 18 19  1  6
 20 19  1  0
 21 20  2  0
 22 21  1  0
 23 22  1  0
 23 24  2  0
 24 20  1  0
 25 18  1  0
 26 25  1  0
 27 25  2  0
M  END
$$$$
