TQH.pdb
     RDKit          3D

 27 27  0  0  1  0  0  0  0  0999 V2000
   15.5700  -10.4135  -15.6419 C   0  0  0  0  0  0  0  0  0  0  0  0
   15.3293  -11.8281  -15.1228 C   0  0  1  0  0  0  0  0  0  0  0  0
   14.0106  -12.1400  -15.4181 O   0  0  0  0  0  0  0  0  0  0  0  0
   16.2178  -12.7508  -15.9034 C   0  0  2  0  0  0  0  0  0  0  0  0
   15.9173  -14.1185  -15.5409 N   0  0  0  0  0  0  0  0  0  0  0  0
   17.6413  -12.4945  -15.7540 C   0  0  0  0  0  0  0  0  0  0  0  0
   18.2337  -12.9855  -14.7332 O   0  0  0  0  0  0  0  0  0  0  0  0
   21.4141  -13.0882  -19.9243 N   0  0  0  0  0  0  0  0  0  0  0  0
   22.4138  -12.5828  -19.0656 C   0  0  0  0  0  0  0  0  0  0  0  0
   23.6114  -12.6707  -19.4252 O   0  0  0  0  0  0  0  0  0  0  0  0
   22.0022  -11.9576  -17.7508 C   0  0  0  0  0  0  0  0  0  0  0  0
   20.5079  -12.1032  -17.6909 C   0  0  0  0  0  0  0  0  0  0  0  0
   19.8772  -11.6056  -16.4114 C   0  0  2  0  0  0  0  0  0  0  0  0
   18.4278  -11.7392  -16.6557 N   0  0  0  0  0  0  0  0  0  0  0  0
   20.1054  -10.1816  -16.1319 C   0  0  0  0  0  0  0  0  0  0  0  0
   19.4543   -9.2656  -16.7513 O   0  0  0  0  0  0  0  0  0  0  0  0
   21.0347   -9.6794  -15.1780 N   0  0  0  0  0  0  0  0  0  0  0  0
   21.2488   -8.2359  -14.9686 C   0  0  1  0  0  0  0  0  0  0  0  0
   21.0798   -7.4914  -16.2484 C   0  0  0  0  0  0  0  0  0  0  0  0
   21.3579   -6.0584  -16.0655 C   0  0  0  0  0  0  0  0  0  0  0  0
   22.5192   -5.3525  -16.3171 C   0  0  0  0  0  0  0  0  0  0  0  0
   22.3819   -4.0578  -15.9953 N   0  0  0  0  0  0  0  0  0  0  0  0
   21.1147   -3.9401  -15.5328 C   0  0  0  0  0  0  0  0  0  0  0  0
   20.4967   -5.1238  -15.5701 N   0  0  0  0  0  0  0  0  0  0  0  0
   20.3968   -7.7257  -13.9003 C   0  0  0  0  0  0  0  0  0  0  0  0
   19.0285   -7.9539  -13.8633 O   0  0  0  0  0  0  0  0  0  0  0  0
   20.8810   -7.0535  -12.9658 O   0  0  0  0  0  0  0  0  0  0  0  0
  2  1  1  6
  2  4  1  0
  3  2  1  0
  4  6  1  0
  4  5  1  1
  6  7  2  0
  6 14  1  0
  8  9  1  0
  9 10  2  0
 11  9  1  0
 12 11  1  0
 13 15  1  0
 13 12  1  6
 14 13  1  0
 15 16  2  0
 17 18  1  0
 17 15  1  0
 18 19  1  6
 20 19  1  0
 21 20  2  0
 22 21  1  0
 23 22  1  0
 23 24  2  0
 24 20  1  0
 25 18  1  0
 26 25  1  0
 27 25  2  0
M  END
$$$$
