TQH.pdb
     RDKit          3D

 27 27  0  0  1  0  0  0  0  0999 V2000
   25.7279  -21.8230  -14.1779 C   0  0  0  0  0  0  0  0  0  0  0  0
   24.2060  -21.7906  -14.0720 C   0  0  1  0  0  0  0  0  0  0  0  0
   23.7425  -21.1511  -15.2119 O   0  0  0  0  0  0  0  0  0  0  0  0
   23.7230  -23.2105  -14.0991 C   0  0  2  0  0  0  0  0  0  0  0  0
   24.2164  -23.8570  -15.2952 N   0  0  0  0  0  0  0  0  0  0  0  0
   22.2799  -23.3634  -14.0063 C   0  0  0  0  0  0  0  0  0  0  0  0
   21.7084  -24.1584  -14.8282 O   0  0  0  0  0  0  0  0  0  0  0  0
   19.7599  -24.2713   -9.0642 N   0  0  0  0  0  0  0  0  0  0  0  0
   18.4919  -24.1264   -9.6672 C   0  0  0  0  0  0  0  0  0  0  0  0
   17.4735  -24.4093   -8.9933 O   0  0  0  0  0  0  0  0  0  0  0  0
   18.4125  -23.6374  -11.0967 C   0  0  0  0  0  0  0  0  0  0  0  0
   19.8295  -23.3320  -11.4926 C   0  0  0  0  0  0  0  0  0  0  0  0
   20.0301  -23.0763  -12.9681 C   0  0  2  0  0  0  0  0  0  0  0  0
   21.4527  -22.6970  -13.0715 N   0  0  0  0  0  0  0  0  0  0  0  0
   19.2730  -21.9346  -13.4982 C   0  0  0  0  0  0  0  0  0  0  0  0
   17.9897  -21.9249  -13.4980 O   0  0  0  0  0  0  0  0  0  0  0  0
   19.8552  -20.7572  -14.0462 N   0  0  0  0  0  0  0  0  0  0  0  0
   19.5686  -20.2994  -15.4180 C   0  0  1  0  0  0  0  0  0  0  0  0
   20.1540  -21.2390  -16.4155 C   0  0  0  0  0  0  0  0  0  0  0  0
   19.9323  -20.7569  -17.7876 C   0  0  0  0  0  0  0  0  0  0  0  0
   19.3032  -19.6048  -18.2202 C   0  0  0  0  0  0  0  0  0  0  0  0
   19.2819  -19.5346  -19.5593 N   0  0  0  0  0  0  0  0  0  0  0  0
   19.9066  -20.6588  -19.9831 C   0  0  0  0  0  0  0  0  0  0  0  0
   20.2975  -21.3929  -18.9377 N   0  0  0  0  0  0  0  0  0  0  0  0
   18.1395  -20.0837  -15.6143 C   0  0  0  0  0  0  0  0  0  0  0  0
   17.6151  -18.8570  -15.9962 O   0  0  0  0  0  0  0  0  0  0  0  0
   17.3254  -21.0149  -15.4416 O   0  0  0  0  0  0  0  0  0  0  0  0
  2  1  1  6
  2  4  1  0
  3  2  1  0
  4  6  1  0
  4  5  1  6
  6  7  2  0
  6 14  1  0
  8  9  1  0
  9 10  2  0
 11  9  1  0
 12 11  1  0
 13 15  1  0
 13 12  1  1
 14 13  1  0
 15 16  2  0
 17 18  1  0
 17 15  1  0
 18 19  1  6
 20 19  1  0
 21 20  2  0
 22 21  1  0
 23 22  1  0
 23 24  2  0
 24 20  1  0
 25 18  1  0
 26 25  1  0
 27 25  2  0
M  END
$$$$
