TQH.pdb
     RDKit          3D

 27 27  0  0  1  0  0  0  0  0999 V2000
   25.1303  -13.0727  -15.1956 C   0  0  0  0  0  0  0  0  0  0  0  0
   24.2066  -13.0863  -16.4102 C   0  0  1  0  0  0  0  0  0  0  0  0
   24.0240  -14.4172  -16.7547 O   0  0  0  0  0  0  0  0  0  0  0  0
   22.8845  -12.5263  -15.9761 C   0  0  2  0  0  0  0  0  0  0  0  0
   21.9342  -12.6594  -17.0584 N   0  0  0  0  0  0  0  0  0  0  0  0
   22.9300  -11.1475  -15.5164 C   0  0  0  0  0  0  0  0  0  0  0  0
   23.4382  -10.9167  -14.3664 O   0  0  0  0  0  0  0  0  0  0  0  0
   23.1680   -6.2204  -18.8566 N   0  0  0  0  0  0  0  0  0  0  0  0
   24.3354   -6.9014  -18.4493 C   0  0  0  0  0  0  0  0  0  0  0  0
   25.3889   -6.7275  -19.1059 O   0  0  0  0  0  0  0  0  0  0  0  0
   24.2692   -7.8102  -17.2416 C   0  0  0  0  0  0  0  0  0  0  0  0
   22.8339   -7.7792  -16.7978 C   0  0  0  0  0  0  0  0  0  0  0  0
   22.5138   -8.6910  -15.6365 C   0  0  2  0  0  0  0  0  0  0  0  0
   22.4527  -10.0335  -16.2467 N   0  0  0  0  0  0  0  0  0  0  0  0
   21.1946   -8.4675  -15.0304 C   0  0  0  0  0  0  0  0  0  0  0  0
   20.1140   -8.7948  -15.6404 O   0  0  0  0  0  0  0  0  0  0  0  0
   20.9766   -7.8893  -13.7483 N   0  0  0  0  0  0  0  0  0  0  0  0
   19.6255   -7.6303  -13.2183 C   0  0  1  0  0  0  0  0  0  0  0  0
   19.4132   -8.3721  -11.9434 C   0  0  0  0  0  0  0  0  0  0  0  0
   18.0724   -8.1100  -11.3977 C   0  0  0  0  0  0  0  0  0  0  0  0
   17.0717   -7.2924  -11.8880 C   0  0  0  0  0  0  0  0  0  0  0  0
   15.9972   -7.3024  -11.0855 N   0  0  0  0  0  0  0  0  0  0  0  0
   16.3205   -8.1388  -10.0708 C   0  0  0  0  0  0  0  0  0  0  0  0
   17.5525   -8.6247  -10.2465 N   0  0  0  0  0  0  0  0  0  0  0  0
   19.3750   -6.1993  -13.0888 C   0  0  0  0  0  0  0  0  0  0  0  0
   18.1129   -5.6447  -13.2481 O   0  0  0  0  0  0  0  0  0  0  0  0
   20.3071   -5.4110  -12.8253 O   0  0  0  0  0  0  0  0  0  0  0  0
  2  1  1  1
  2  4  1  0
  3  2  1  0
  4  6  1  0
  4  5  1  6
  6  7  2  0
  6 14  1  0
  8  9  1  0
  9 10  2  0
 11  9  1  0
 12 11  1  0
 13 15  1  0
 13 12  1  6
 14 13  1  0
 15 16  2  0
 17 18  1  0
 17 15  1  0
 18 19  1  1
 20 19  1  0
 21 20  2  0
 22 21  1  0
 23 22  1  0
 23 24  2  0
 24 20  1  0
 25 18  1  0
 26 25  1  0
 27 25  2  0
M  END
$$$$
