TQH.pdb
     RDKit          3D

 27 27  0  0  1  0  0  0  0  0999 V2000
   28.6017   -9.1575  -17.1634 C   0  0  0  0  0  0  0  0  0  0  0  0
   28.4935  -10.5769  -17.7130 C   0  0  1  0  0  0  0  0  0  0  0  0
   29.7043  -11.1986  -17.4471 O   0  0  0  0  0  0  0  0  0  0  0  0
   27.4218  -11.2803  -16.9341 C   0  0  2  0  0  0  0  0  0  0  0  0
   27.4521  -12.6910  -17.2521 N   0  0  0  0  0  0  0  0  0  0  0  0
   26.0815  -10.7515  -17.1304 C   0  0  0  0  0  0  0  0  0  0  0  0
   25.4568  -11.0848  -18.1947 O   0  0  0  0  0  0  0  0  0  0  0  0
   22.1322   -9.4834  -12.9888 N   0  0  0  0  0  0  0  0  0  0  0  0
   21.4022   -8.7849  -13.9745 C   0  0  0  0  0  0  0  0  0  0  0  0
   20.2785   -8.3205  -13.6695 O   0  0  0  0  0  0  0  0  0  0  0  0
   22.0022   -8.6251  -15.3541 C   0  0  0  0  0  0  0  0  0  0  0  0
   23.3164   -9.3518  -15.3036 C   0  0  0  0  0  0  0  0  0  0  0  0
   24.0893   -9.3468  -16.6018 C   0  0  2  0  0  0  0  0  0  0  0  0
   25.4097   -9.8913  -16.2299 N   0  0  0  0  0  0  0  0  0  0  0  0
   24.3493   -8.0099  -17.1523 C   0  0  0  0  0  0  0  0  0  0  0  0
   25.1867   -7.2101  -16.5993 O   0  0  0  0  0  0  0  0  0  0  0  0
   23.7287   -7.4755  -18.3162 N   0  0  0  0  0  0  0  0  0  0  0  0
   23.9920   -6.1056  -18.7932 C   0  0  1  0  0  0  0  0  0  0  0  0
   23.7972   -6.0192  -20.2680 C   0  0  0  0  0  0  0  0  0  0  0  0
   24.2019   -4.6996  -20.7771 C   0  0  0  0  0  0  0  0  0  0  0  0
   25.4690   -4.2101  -21.0319 C   0  0  0  0  0  0  0  0  0  0  0  0
   25.4232   -2.9428  -21.4683 N   0  0  0  0  0  0  0  0  0  0  0  0
   24.1076   -2.6230  -21.4907 C   0  0  0  0  0  0  0  0  0  0  0  0
   23.3723   -3.6606  -21.0816 N   0  0  0  0  0  0  0  0  0  0  0  0
   23.1954   -5.1291  -18.0589 C   0  0  0  0  0  0  0  0  0  0  0  0
   23.7352   -3.9568  -17.5490 O   0  0  0  0  0  0  0  0  0  0  0  0
   21.9772   -5.3205  -17.8613 O   0  0  0  0  0  0  0  0  0  0  0  0
  2  1  1  1
  2  4  1  0
  3  2  1  0
  4  6  1  0
  4  5  1  6
  6  7  2  0
  6 14  1  0
  8  9  1  0
  9 10  2  0
 11  9  1  0
 12 11  1  0
 13 15  1  0
 13 12  1  1
 14 13  1  0
 15 16  2  0
 17 18  1  0
 17 15  1  0
 18 19  1  6
 20 19  1  0
 21 20  2  0
 22 21  1  0
 23 22  1  0
 23 24  2  0
 24 20  1  0
 25 18  1  0
 26 25  1  0
 27 25  2  0
M  END
$$$$
