IID.pdb
     RDKit          3D

 25 24  0  0  1  0  0  0  0  0999 V2000
   27.7795  -17.0932  -17.3504 C   0  0  0  0  0  0  0  0  0  0  0  0
   27.4612  -18.4695  -17.9241 C   0  0  0  0  0  0  0  0  0  0  0  0
   26.5055  -19.2390  -17.0590 C   0  0  2  0  0  0  0  0  0  0  0  0
   25.1893  -18.5029  -17.0296 C   0  0  0  0  0  0  0  0  0  0  0  0
   27.0273  -19.5472  -15.6848 C   0  0  2  0  0  0  0  0  0  0  0  0
   28.2601  -20.3550  -15.8243 N   0  0  0  0  0  0  0  0  0  0  0  0
   26.1200  -20.3384  -14.8378 C   0  0  0  0  0  0  0  0  0  0  0  0
   25.6971  -21.4732  -15.2656 O   0  0  0  0  0  0  0  0  0  0  0  0
   26.8181  -20.9812   -9.5795 C   0  0  0  0  0  0  0  0  0  0  0  0
   26.4662  -21.2188  -11.0454 C   0  0  0  0  0  0  0  0  0  0  0  0
   25.1074  -20.6875  -11.3720 C   0  0  2  0  0  0  0  0  0  0  0  0
   24.0501  -21.1320  -10.3919 C   0  0  0  0  0  0  0  0  0  0  0  0
   24.6937  -20.8175  -12.8030 C   0  0  2  0  0  0  0  0  0  0  0  0
   25.6436  -19.9847  -13.5598 N   0  0  0  0  0  0  0  0  0  0  0  0
   23.3411  -20.3670  -13.1220 C   0  0  0  0  0  0  0  0  0  0  0  0
   23.0070  -19.1489  -12.9077 O   0  0  0  0  0  0  0  0  0  0  0  0
   22.3068  -21.1719  -13.6721 N   0  0  0  0  0  0  0  0  0  0  0  0
   20.9715  -20.6417  -13.9260 C   0  0  1  0  0  0  0  0  0  0  0  0
   20.6390  -20.6400  -15.3751 C   0  0  0  0  0  0  0  0  0  0  0  0
   19.2863  -20.0900  -15.5909 C   0  0  0  0  0  0  0  0  0  0  0  0
   18.9874  -18.8714  -15.5869 O   0  0  0  0  0  0  0  0  0  0  0  0
   19.9472  -21.3973  -13.1728 C   0  0  0  0  0  0  0  0  0  0  0  0
   18.8069  -20.6972  -12.7666 O   0  0  0  0  0  0  0  0  0  0  0  0
   18.2339  -20.9920  -15.8214 O   0  0  0  0  0  0  0  0  0  0  0  0
   20.0271  -22.6095  -12.8749 O   0  0  0  0  0  0  0  0  0  0  0  0
  2  1  1  0
  3  2  1  0
  3  5  1  0
  3  4  1  1
  5  7  1  0
  5  6  1  6
  7  8  2  0
 10  9  1  0
 11 12  1  1
 11 13  1  0
 11 10  1  0
 13 14  1  6
 14  7  1  0
 15 17  1  0
 15 13  1  0
 16 15  2  0
 18 19  1  6
 18 17  1  0
 19 20  1  0
 20 24  1  0
 20 21  2  0
 22 23  1  0
 22 18  1  0
 25 22  2  0
M  END
$$$$
