IID.pdb
     RDKit          3D

 25 24  0  0  1  0  0  0  0  0999 V2000
   27.1707  -22.4799  -15.3176 C   0  0  0  0  0  0  0  0  0  0  0  0
   26.6331  -22.9418  -13.9676 C   0  0  0  0  0  0  0  0  0  0  0  0
   25.1770  -22.6193  -13.7950 C   0  0  2  0  0  0  0  0  0  0  0  0
   24.4371  -23.0767  -15.0272 C   0  0  0  0  0  0  0  0  0  0  0  0
   24.8988  -21.1837  -13.4521 C   0  0  2  0  0  0  0  0  0  0  0  0
   25.5757  -20.8699  -12.1734 N   0  0  0  0  0  0  0  0  0  0  0  0
   23.4782  -20.8571  -13.2474 C   0  0  0  0  0  0  0  0  0  0  0  0
   22.9772  -20.9601  -12.0693 O   0  0  0  0  0  0  0  0  0  0  0  0
   19.6429  -18.7951  -17.0740 C   0  0  0  0  0  0  0  0  0  0  0  0
   20.8508  -19.3489  -16.3234 C   0  0  0  0  0  0  0  0  0  0  0  0
   20.7919  -19.0064  -14.8692 C   0  0  2  0  0  0  0  0  0  0  0  0
   21.4593  -17.6925  -14.5463 C   0  0  0  0  0  0  0  0  0  0  0  0
   21.1585  -20.1133  -13.9332 C   0  0  2  0  0  0  0  0  0  0  0  0
   22.5668  -20.4243  -14.2310 N   0  0  0  0  0  0  0  0  0  0  0  0
   20.3843  -21.3453  -14.0640 C   0  0  0  0  0  0  0  0  0  0  0  0
   20.8393  -22.3131  -14.7694 O   0  0  0  0  0  0  0  0  0  0  0  0
   19.1214  -21.5990  -13.4632 N   0  0  0  0  0  0  0  0  0  0  0  0
   18.4107  -22.8567  -13.6675 C   0  0  1  0  0  0  0  0  0  0  0  0
   18.4872  -23.7400  -12.4740 C   0  0  0  0  0  0  0  0  0  0  0  0
   17.6448  -24.9368  -12.6660 C   0  0  0  0  0  0  0  0  0  0  0  0
   16.9419  -25.1770  -13.6773 O   0  0  0  0  0  0  0  0  0  0  0  0
   16.9969  -22.6161  -14.0289 C   0  0  0  0  0  0  0  0  0  0  0  0
   16.5304  -21.3006  -13.9428 O   0  0  0  0  0  0  0  0  0  0  0  0
   17.6157  -25.8973  -11.6409 O   0  0  0  0  0  0  0  0  0  0  0  0
   16.1938  -23.4988  -14.4036 O   0  0  0  0  0  0  0  0  0  0  0  0
  2  1  1  0
  3  2  1  0
  3  5  1  0
  3  4  1  6
  5  7  1  0
  5  6  1  1
  7  8  2  0
 10  9  1  0
 11 12  1  6
 11 13  1  0
 11 10  1  0
 13 14  1  6
 14  7  1  0
 15 17  1  0
 15 13  1  0
 16 15  2  0
 18 19  1  1
 18 17  1  0
 19 20  1  0
 20 24  1  0
 20 21  2  0
 22 23  1  0
 22 18  1  0
 25 22  2  0
M  END
$$$$
