IID.pdb
     RDKit          3D

 25 24  0  0  1  0  0  0  0  0999 V2000
   16.4974  -15.9212  -17.2568 C   0  0  0  0  0  0  0  0  0  0  0  0
   17.1210  -15.1551  -16.0954 C   0  0  0  0  0  0  0  0  0  0  0  0
   16.3484  -13.9143  -15.7526 C   0  0  2  0  0  0  0  0  0  0  0  0
   15.3607  -13.6454  -16.8603 C   0  0  0  0  0  0  0  0  0  0  0  0
   17.2045  -12.7210  -15.4378 C   0  0  2  0  0  0  0  0  0  0  0  0
   18.1304  -13.0871  -14.3422 N   0  0  0  0  0  0  0  0  0  0  0  0
   16.4701  -11.5357  -14.9662 C   0  0  0  0  0  0  0  0  0  0  0  0
   15.5725  -11.0151  -15.7232 O   0  0  0  0  0  0  0  0  0  0  0  0
   14.0624   -9.2905   -9.9502 C   0  0  0  0  0  0  0  0  0  0  0  0
   14.5517   -8.8870  -11.3383 C   0  0  0  0  0  0  0  0  0  0  0  0
   15.3994   -9.9566  -11.9489 C   0  0  2  0  0  0  0  0  0  0  0  0
   16.4922  -10.4395  -11.0276 C   0  0  0  0  0  0  0  0  0  0  0  0
   15.8639   -9.6896  -13.3448 C   0  0  2  0  0  0  0  0  0  0  0  0
   16.6405  -10.8797  -13.7309 N   0  0  0  0  0  0  0  0  0  0  0  0
   16.7146   -8.5153  -13.5230 C   0  0  0  0  0  0  0  0  0  0  0  0
   17.9369   -8.5488  -13.1409 O   0  0  0  0  0  0  0  0  0  0  0  0
   16.3140   -7.2814  -14.1037 N   0  0  0  0  0  0  0  0  0  0  0  0
   17.2462   -6.1716  -14.2724 C   0  0  1  0  0  0  0  0  0  0  0  0
   17.8283   -6.1360  -15.6400 C   0  0  0  0  0  0  0  0  0  0  0  0
   18.7290   -4.9755  -15.7846 C   0  0  0  0  0  0  0  0  0  0  0  0
   19.0281   -4.1686  -14.8715 O   0  0  0  0  0  0  0  0  0  0  0  0
   16.5956   -4.8794  -13.9656 C   0  0  0  0  0  0  0  0  0  0  0  0
   17.1759   -4.0935  -12.9649 O   0  0  0  0  0  0  0  0  0  0  0  0
   19.3083   -4.7399  -17.0429 O   0  0  0  0  0  0  0  0  0  0  0  0
   15.5704   -4.4417  -14.5331 O   0  0  0  0  0  0  0  0  0  0  0  0
  2  1  1  0
  3  2  1  0
  3  5  1  0
  3  4  1  6
  5  7  1  0
  5  6  1  1
  7  8  2  0
 10  9  1  0
 11 12  1  1
 11 13  1  0
 11 10  1  0
 13 14  1  1
 14  7  1  0
 15 17  1  0
 15 13  1  0
 16 15  2  0
 18 19  1  6
 18 17  1  0
 19 20  1  0
 20 24  1  0
 20 21  2  0
 22 23  1  0
 22 18  1  0
 25 22  2  0
M  END
$$$$
