IID.pdb
     RDKit          3D

 25 24  0  0  1  0  0  0  0  0999 V2000
   15.5412  -11.8668  -19.5821 C   0  0  0  0  0  0  0  0  0  0  0  0
   16.8994  -12.4938  -19.2872 C   0  0  0  0  0  0  0  0  0  0  0  0
   17.6331  -11.7729  -18.1936 C   0  0  2  0  0  0  0  0  0  0  0  0
   17.7092  -10.3101  -18.5534 C   0  0  0  0  0  0  0  0  0  0  0  0
   18.9758  -12.3580  -17.8609 C   0  0  2  0  0  0  0  0  0  0  0  0
   18.7834  -13.7712  -17.4639 N   0  0  0  0  0  0  0  0  0  0  0  0
   19.6733  -11.7142  -16.7359 C   0  0  0  0  0  0  0  0  0  0  0  0
   19.2284  -11.8876  -15.5436 O   0  0  0  0  0  0  0  0  0  0  0  0
   24.9850  -10.9253  -14.3398 C   0  0  0  0  0  0  0  0  0  0  0  0
   23.6249  -10.2374  -14.4182 C   0  0  0  0  0  0  0  0  0  0  0  0
   22.7861  -10.8132  -15.5137 C   0  0  2  0  0  0  0  0  0  0  0  0
   23.5234  -10.9206  -16.8255 C   0  0  0  0  0  0  0  0  0  0  0  0
   21.4123  -10.2369  -15.6414 C   0  0  2  0  0  0  0  0  0  0  0  0
   20.8200  -10.8992  -16.8157 N   0  0  0  0  0  0  0  0  0  0  0  0
   21.3407   -8.7928  -15.8507 C   0  0  0  0  0  0  0  0  0  0  0  0
   21.6683   -8.2953  -16.9849 O   0  0  0  0  0  0  0  0  0  0  0  0
   20.9254   -7.8345  -14.8866 N   0  0  0  0  0  0  0  0  0  0  0  0
   20.9713   -6.4014  -15.1566 C   0  0  1  0  0  0  0  0  0  0  0  0
   19.6128   -5.8243  -15.3353 C   0  0  0  0  0  0  0  0  0  0  0  0
   19.7046   -4.3922  -15.6809 C   0  0  0  0  0  0  0  0  0  0  0  0
   19.9115   -3.9330  -16.8301 O   0  0  0  0  0  0  0  0  0  0  0  0
   21.6899   -5.6808  -14.0835 C   0  0  0  0  0  0  0  0  0  0  0  0
   22.2161   -4.4241  -14.3990 O   0  0  0  0  0  0  0  0  0  0  0  0
   19.5498   -3.4509  -14.6491 O   0  0  0  0  0  0  0  0  0  0  0  0
   21.8598   -6.1118  -12.9216 O   0  0  0  0  0  0  0  0  0  0  0  0
  2  1  1  0
  3  2  1  0
  3  5  1  0
  3  4  1  6
  5  7  1  0
  5  6  1  1
  7  8  2  0
 10  9  1  0
 11 12  1  6
 11 13  1  0
 11 10  1  0
 13 14  1  6
 14  7  1  0
 15 17  1  0
 15 13  1  0
 16 15  2  0
 18 19  1  1
 18 17  1  0
 19 20  1  0
 20 24  1  0
 20 21  2  0
 22 23  1  0
 22 18  1  0
 25 22  2  0
M  END
$$$$
