IID.pdb
     RDKit          3D

 25 24  0  0  1  0  0  0  0  0999 V2000
   25.5137  -17.0460  -59.2818 C   0  0  0  0  0  0  0  0  0  0  0  0
   24.9242  -17.0725  -57.8758 C   0  0  0  0  0  0  0  0  0  0  0  0
   23.4379  -16.8613  -57.8784 C   0  0  2  0  0  0  0  0  0  0  0  0
   22.8172  -17.8225  -56.8955 C   0  0  0  0  0  0  0  0  0  0  0  0
   22.8058  -16.9356  -59.2388 C   0  0  2  0  0  0  0  0  0  0  0  0
   22.1212  -18.2422  -59.3644 N   0  0  0  0  0  0  0  0  0  0  0  0
   23.7482  -16.8637  -60.3672 C   0  0  0  0  0  0  0  0  0  0  0  0
   24.6747  -15.9743  -60.3515 O   0  0  0  0  0  0  0  0  0  0  0  0
   26.6270  -17.9349  -62.0848 C   0  0  0  0  0  0  0  0  0  0  0  0
   25.6685  -18.3824  -63.1849 C   0  0  0  0  0  0  0  0  0  0  0  0
   24.7603  -17.2702  -63.6012 C   0  0  2  0  0  0  0  0  0  0  0  0
   25.4712  -15.9456  -63.7282 C   0  0  0  0  0  0  0  0  0  0  0  0
   23.4638  -17.1883  -62.8609 C   0  0  2  0  0  0  0  0  0  0  0  0
   23.7558  -17.6909  -61.5079 N   0  0  0  0  0  0  0  0  0  0  0  0
   22.3623  -17.9758  -63.4095 C   0  0  0  0  0  0  0  0  0  0  0  0
   21.1654  -17.5222  -63.3570 O   0  0  0  0  0  0  0  0  0  0  0  0
   22.4810  -19.2509  -64.0263 N   0  0  0  0  0  0  0  0  0  0  0  0
   21.4968  -20.3058  -63.8084 C   0  0  1  0  0  0  0  0  0  0  0  0
   22.0850  -21.6605  -63.9800 C   0  0  0  0  0  0  0  0  0  0  0  0
   23.4754  -21.6831  -63.4847 C   0  0  0  0  0  0  0  0  0  0  0  0
   24.4891  -21.3555  -64.1476 O   0  0  0  0  0  0  0  0  0  0  0  0
   20.8788  -20.1884  -62.4699 C   0  0  0  0  0  0  0  0  0  0  0  0
   19.5412  -19.7838  -62.4170 O   0  0  0  0  0  0  0  0  0  0  0  0
   23.7007  -22.1042  -62.1633 O   0  0  0  0  0  0  0  0  0  0  0  0
   21.4627  -20.4233  -61.3890 O   0  0  0  0  0  0  0  0  0  0  0  0
  2  1  1  0
  3  2  1  0
  3  5  1  0
  3  4  1  1
  5  7  1  0
  5  6  1  1
  7  8  2  0
 10  9  1  0
 11 12  1  1
 11 13  1  0
 11 10  1  0
 13 14  1  1
 14  7  1  0
 15 17  1  0
 15 13  1  0
 16 15  2  0
 18 19  1  1
 18 17  1  0
 19 20  1  0
 20 24  1  0
 20 21  2  0
 22 23  1  0
 22 18  1  0
 25 22  2  0
M  END
$$$$
