IID.pdb
     RDKit          3D

 25 24  0  0  1  0  0  0  0  0999 V2000
   23.3199  -10.6483  -22.9142 C   0  0  0  0  0  0  0  0  0  0  0  0
   23.6834  -11.2255  -21.5506 C   0  0  0  0  0  0  0  0  0  0  0  0
   22.8351  -10.6591  -20.4490 C   0  0  2  0  0  0  0  0  0  0  0  0
   22.8772   -9.1541  -20.5395 C   0  0  0  0  0  0  0  0  0  0  0  0
   23.1826  -11.1668  -19.0788 C   0  0  2  0  0  0  0  0  0  0  0  0
   23.0269  -12.6390  -19.0734 N   0  0  0  0  0  0  0  0  0  0  0  0
   22.3234  -10.6661  -17.9936 C   0  0  0  0  0  0  0  0  0  0  0  0
   21.1320  -11.1310  -17.8754 O   0  0  0  0  0  0  0  0  0  0  0  0
   23.2123  -11.0538  -13.0692 C   0  0  0  0  0  0  0  0  0  0  0  0
   22.5058  -10.8776  -14.4105 C   0  0  0  0  0  0  0  0  0  0  0  0
   22.2726   -9.4330  -14.7172 C   0  0  2  0  0  0  0  0  0  0  0  0
   21.5815   -8.6971  -13.5961 C   0  0  0  0  0  0  0  0  0  0  0  0
   21.6982   -9.1477  -16.0679 C   0  0  2  0  0  0  0  0  0  0  0  0
   22.6688   -9.6998  -17.0280 N   0  0  0  0  0  0  0  0  0  0  0  0
   21.4918   -7.7380  -16.3912 C   0  0  0  0  0  0  0  0  0  0  0  0
   22.4674   -6.9128  -16.2999 O   0  0  0  0  0  0  0  0  0  0  0  0
   20.2675   -7.1556  -16.8182 N   0  0  0  0  0  0  0  0  0  0  0  0
   20.1689   -5.7434  -17.1714 C   0  0  1  0  0  0  0  0  0  0  0  0
   19.2547   -5.5196  -18.3223 C   0  0  0  0  0  0  0  0  0  0  0  0
   19.1427   -4.0774  -18.6161 C   0  0  0  0  0  0  0  0  0  0  0  0
   20.0114   -3.3839  -19.1982 O   0  0  0  0  0  0  0  0  0  0  0  0
   19.7315   -4.9348  -16.0130 C   0  0  0  0  0  0  0  0  0  0  0  0
   19.2513   -5.6259  -14.8961 O   0  0  0  0  0  0  0  0  0  0  0  0
   17.9724   -3.4095  -18.2177 O   0  0  0  0  0  0  0  0  0  0  0  0
   19.7598   -3.6854  -15.9608 O   0  0  0  0  0  0  0  0  0  0  0  0
  2  1  1  0
  3  2  1  0
  3  5  1  0
  3  4  1  1
  5  7  1  0
  5  6  1  6
  7  8  2  0
 10  9  1  0
 11 12  1  1
 11 13  1  0
 11 10  1  0
 13 14  1  6
 14  7  1  0
 15 17  1  0
 15 13  1  0
 16 15  2  0
 18 19  1  6
 18 17  1  0
 19 20  1  0
 20 24  1  0
 20 21  2  0
 22 23  1  0
 22 18  1  0
 25 22  2  0
M  END
$$$$
