IID.pdb
     RDKit          3D

 25 24  0  0  1  0  0  0  0  0999 V2000
   18.3519  -26.3730   -9.1011 C   0  0  0  0  0  0  0  0  0  0  0  0
   17.5570  -25.1668   -8.6132 C   0  0  0  0  0  0  0  0  0  0  0  0
   18.0699  -23.8778   -9.1872 C   0  0  2  0  0  0  0  0  0  0  0  0
   17.9854  -23.9577  -10.6911 C   0  0  0  0  0  0  0  0  0  0  0  0
   19.4373  -23.4873   -8.7040 C   0  0  2  0  0  0  0  0  0  0  0  0
   19.3645  -23.2429   -7.2457 N   0  0  0  0  0  0  0  0  0  0  0  0
   19.9760  -22.2511   -9.2940 C   0  0  0  0  0  0  0  0  0  0  0  0
   19.4536  -21.1241   -8.9676 O   0  0  0  0  0  0  0  0  0  0  0  0
   24.9277  -20.9017   -9.0463 C   0  0  0  0  0  0  0  0  0  0  0  0
   23.4099  -20.7870   -9.1567 C   0  0  0  0  0  0  0  0  0  0  0  0
   22.9627  -20.8341  -10.5825 C   0  0  2  0  0  0  0  0  0  0  0  0
   23.6710  -19.8279  -11.4553 C   0  0  0  0  0  0  0  0  0  0  0  0
   21.4825  -20.8744  -10.7905 C   0  0  2  0  0  0  0  0  0  0  0  0
   21.0426  -22.1540  -10.2097 N   0  0  0  0  0  0  0  0  0  0  0  0
   21.0294  -20.8265  -12.1786 C   0  0  0  0  0  0  0  0  0  0  0  0
   21.1926  -21.8447  -12.9387 O   0  0  0  0  0  0  0  0  0  0  0  0
   20.3954  -19.7201  -12.8065 N   0  0  0  0  0  0  0  0  0  0  0  0
   19.9715  -19.7661  -14.2018 C   0  0  1  0  0  0  0  0  0  0  0  0
   18.8456  -18.8338  -14.4731 C   0  0  0  0  0  0  0  0  0  0  0  0
   18.4826  -18.8693  -15.9034 C   0  0  0  0  0  0  0  0  0  0  0  0
   18.2663  -19.9079  -16.5734 O   0  0  0  0  0  0  0  0  0  0  0  0
   21.1009  -19.4734  -15.1107 C   0  0  0  0  0  0  0  0  0  0  0  0
   21.1180  -20.1353  -16.3424 O   0  0  0  0  0  0  0  0  0  0  0  0
   18.3653  -17.6474  -16.5872 O   0  0  0  0  0  0  0  0  0  0  0  0
   22.0358  -18.6816  -14.8584 O   0  0  0  0  0  0  0  0  0  0  0  0
  2  1  1  0
  3  2  1  0
  3  5  1  0
  3  4  1  6
  5  7  1  0
  5  6  1  1
  7  8  2  0
 10  9  1  0
 11 12  1  6
 11 13  1  0
 11 10  1  0
 13 14  1  6
 14  7  1  0
 15 17  1  0
 15 13  1  0
 16 15  2  0
 18 19  1  1
 18 17  1  0
 19 20  1  0
 20 24  1  0
 20 21  2  0
 22 23  1  0
 22 18  1  0
 25 22  2  0
M  END
$$$$
