IID.pdb
     RDKit          3D

 25 24  0  0  1  0  0  0  0  0999 V2000
   28.7127  -18.1089  -16.8671 C   0  0  0  0  0  0  0  0  0  0  0  0
   29.1841  -18.8799  -15.6389 C   0  0  0  0  0  0  0  0  0  0  0  0
   28.0391  -19.4331  -14.8409 C   0  0  2  0  0  0  0  0  0  0  0  0
   27.1199  -18.2954  -14.4725 C   0  0  0  0  0  0  0  0  0  0  0  0
   28.4537  -20.2510  -13.6513 C   0  0  2  0  0  0  0  0  0  0  0  0
   29.2313  -21.4148  -14.1335 N   0  0  0  0  0  0  0  0  0  0  0  0
   27.3432  -20.8069  -12.8612 C   0  0  0  0  0  0  0  0  0  0  0  0
   26.7197  -21.8400  -13.3010 O   0  0  0  0  0  0  0  0  0  0  0  0
   27.2101  -19.9216   -7.5033 C   0  0  0  0  0  0  0  0  0  0  0  0
   27.0625  -20.7619   -8.7687 C   0  0  0  0  0  0  0  0  0  0  0  0
   25.8169  -20.4071   -9.5156 C   0  0  2  0  0  0  0  0  0  0  0  0
   24.5624  -20.6289   -8.7075 C   0  0  0  0  0  0  0  0  0  0  0  0
   25.7335  -20.9337  -10.9125 C   0  0  2  0  0  0  0  0  0  0  0  0
   26.8659  -20.3214  -11.6275 N   0  0  0  0  0  0  0  0  0  0  0  0
   24.5096  -20.6162  -11.6445 C   0  0  0  0  0  0  0  0  0  0  0  0
   24.2641  -19.4051  -11.9823 O   0  0  0  0  0  0  0  0  0  0  0  0
   23.5153  -21.5505  -12.0428 N   0  0  0  0  0  0  0  0  0  0  0  0
   22.3361  -21.1438  -12.7997 C   0  0  1  0  0  0  0  0  0  0  0  0
   21.9996  -22.1170  -13.8721 C   0  0  0  0  0  0  0  0  0  0  0  0
   20.7784  -21.6936  -14.5851 C   0  0  0  0  0  0  0  0  0  0  0  0
   20.6585  -20.6443  -15.2626 O   0  0  0  0  0  0  0  0  0  0  0  0
   21.1722  -20.9510  -11.9080 C   0  0  0  0  0  0  0  0  0  0  0  0
   20.2182  -20.0056  -12.2977 O   0  0  0  0  0  0  0  0  0  0  0  0
   19.6465  -22.5226  -14.5093 O   0  0  0  0  0  0  0  0  0  0  0  0
   20.9809  -21.5687  -10.8372 O   0  0  0  0  0  0  0  0  0  0  0  0
  2  1  1  0
  3  2  1  0
  3  5  1  0
  3  4  1  1
  5  7  1  0
  5  6  1  6
  7  8  2  0
 10  9  1  0
 11 12  1  1
 11 13  1  0
 11 10  1  0
 13 14  1  6
 14  7  1  0
 15 17  1  0
 15 13  1  0
 16 15  2  0
 18 19  1  6
 18 17  1  0
 19 20  1  0
 20 24  1  0
 20 21  2  0
 22 23  1  0
 22 18  1  0
 25 22  2  0
M  END
$$$$
