IID.pdb
     RDKit          3D

 25 24  0  0  1  0  0  0  0  0999 V2000
   26.8301  -18.8756   -7.5404 C   0  0  0  0  0  0  0  0  0  0  0  0
   26.9011  -20.1691   -8.3444 C   0  0  0  0  0  0  0  0  0  0  0  0
   26.1355  -20.0805   -9.6328 C   0  0  2  0  0  0  0  0  0  0  0  0
   24.6827  -19.8363   -9.3093 C   0  0  0  0  0  0  0  0  0  0  0  0
   26.3352  -21.2517  -10.5517 C   0  0  2  0  0  0  0  0  0  0  0  0
   27.7896  -21.4809  -10.7060 N   0  0  0  0  0  0  0  0  0  0  0  0
   25.8084  -21.0703  -11.9141 C   0  0  0  0  0  0  0  0  0  0  0  0
   26.4271  -20.2886  -12.7239 O   0  0  0  0  0  0  0  0  0  0  0  0
   26.2744  -23.3653  -15.3047 C   0  0  0  0  0  0  0  0  0  0  0  0
   25.1843  -23.8014  -14.3298 C   0  0  0  0  0  0  0  0  0  0  0  0
   24.0076  -22.8806  -14.3815 C   0  0  2  0  0  0  0  0  0  0  0  0
   23.2937  -22.9115  -15.7101 C   0  0  0  0  0  0  0  0  0  0  0  0
   24.2488  -21.5001  -13.8602 C   0  0  2  0  0  0  0  0  0  0  0  0
   24.6604  -21.6801  -12.4578 N   0  0  0  0  0  0  0  0  0  0  0  0
   23.1006  -20.5971  -13.8838 C   0  0  0  0  0  0  0  0  0  0  0  0
   22.6396  -20.1221  -12.7869 O   0  0  0  0  0  0  0  0  0  0  0  0
   22.4077  -20.1666  -15.0477 N   0  0  0  0  0  0  0  0  0  0  0  0
   21.5192  -19.0094  -15.0307 C   0  0  1  0  0  0  0  0  0  0  0  0
   22.2071  -17.7860  -14.5403 C   0  0  0  0  0  0  0  0  0  0  0  0
   21.2865  -16.6326  -14.5693 C   0  0  0  0  0  0  0  0  0  0  0  0
   20.2373  -16.5220  -13.8900 O   0  0  0  0  0  0  0  0  0  0  0  0
   20.9414  -18.7627  -16.3696 C   0  0  0  0  0  0  0  0  0  0  0  0
   19.5558  -18.5899  -16.4456 O   0  0  0  0  0  0  0  0  0  0  0  0
   21.5953  -15.5603  -15.4232 O   0  0  0  0  0  0  0  0  0  0  0  0
   21.5988  -18.6980  -17.4318 O   0  0  0  0  0  0  0  0  0  0  0  0
  2  1  1  0
  3  2  1  0
  3  5  1  0
  3  4  1  1
  5  7  1  0
  5  6  1  6
  7  8  2  0
 10  9  1  0
 11 12  1  6
 11 13  1  0
 11 10  1  0
 13 14  1  1
 14  7  1  0
 15 17  1  0
 15 13  1  0
 16 15  2  0
 18 19  1  6
 18 17  1  0
 19 20  1  0
 20 24  1  0
 20 21  2  0
 22 23  1  0
 22 18  1  0
 25 22  2  0
M  END
$$$$
