IID.pdb
     RDKit          3D

 25 24  0  0  1  0  0  0  0  0999 V2000
   14.7335  -28.1099   -3.1172 C   0  0  0  0  0  0  0  0  0  0  0  0
   16.0585  -27.3559   -3.1444 C   0  0  0  0  0  0  0  0  0  0  0  0
   16.8059  -27.4725   -1.8476 C   0  0  2  0  0  0  0  0  0  0  0  0
   15.8939  -27.0328   -0.7296 C   0  0  0  0  0  0  0  0  0  0  0  0
   18.1280  -26.7601   -1.8305 C   0  0  2  0  0  0  0  0  0  0  0  0
   18.9909  -27.3528   -2.8773 N   0  0  0  0  0  0  0  0  0  0  0  0
   18.8818  -26.8778   -0.5717 C   0  0  0  0  0  0  0  0  0  0  0  0
   19.4773  -27.9833   -0.3015 O   0  0  0  0  0  0  0  0  0  0  0  0
   22.7320  -23.7736    0.5379 C   0  0  0  0  0  0  0  0  0  0  0  0
   21.8279  -25.0029    0.5146 C   0  0  0  0  0  0  0  0  0  0  0  0
   20.8377  -24.9718    1.6344 C   0  0  2  0  0  0  0  0  0  0  0  0
   21.4775  -24.7345    2.9798 C   0  0  0  0  0  0  0  0  0  0  0  0
   19.8318  -26.0781    1.6334 C   0  0  2  0  0  0  0  0  0  0  0  0
   19.0359  -25.8793    0.4104 N   0  0  0  0  0  0  0  0  0  0  0  0
   18.9155  -26.1114    2.7707 C   0  0  0  0  0  0  0  0  0  0  0  0
   17.6530  -26.0142    2.5761 O   0  0  0  0  0  0  0  0  0  0  0  0
   19.2910  -26.2482    4.1347 N   0  0  0  0  0  0  0  0  0  0  0  0
   18.3140  -26.5508    5.1753 C   0  0  1  0  0  0  0  0  0  0  0  0
   17.5935  -27.8239    4.9098 C   0  0  0  0  0  0  0  0  0  0  0  0
   16.5871  -28.0731    5.9604 C   0  0  0  0  0  0  0  0  0  0  0  0
   16.2264  -27.2467    6.8330 O   0  0  0  0  0  0  0  0  0  0  0  0
   18.9542  -26.6001    6.5076 C   0  0  0  0  0  0  0  0  0  0  0  0
   20.3060  -26.9552    6.5543 O   0  0  0  0  0  0  0  0  0  0  0  0
   15.9717  -29.3356    6.0016 O   0  0  0  0  0  0  0  0  0  0  0  0
   18.3772  -26.3486    7.5886 O   0  0  0  0  0  0  0  0  0  0  0  0
  2  1  1  0
  3  2  1  0
  3  5  1  0
  3  4  1  1
  5  7  1  0
  5  6  1  6
  7  8  2  0
 10  9  1  0
 11 12  1  1
 11 13  1  0
 11 10  1  0
 13 14  1  6
 14  7  1  0
 15 17  1  0
 15 13  1  0
 16 15  2  0
 18 19  1  6
 18 17  1  0
 19 20  1  0
 20 24  1  0
 20 21  2  0
 22 23  1  0
 22 18  1  0
 25 22  2  0
M  END
$$$$
