IID.pdb
     RDKit          3D

 25 24  0  0  1  0  0  0  0  0999 V2000
   27.5610  -19.7127   -3.9715 C   0  0  0  0  0  0  0  0  0  0  0  0
   27.1328  -20.7888   -4.9632 C   0  0  0  0  0  0  0  0  0  0  0  0
   27.2438  -20.3264   -6.3871 C   0  0  2  0  0  0  0  0  0  0  0  0
   27.9614  -18.9998   -6.4039 C   0  0  0  0  0  0  0  0  0  0  0  0
   25.9376  -20.2876   -7.1275 C   0  0  2  0  0  0  0  0  0  0  0  0
   25.3019  -21.6204   -7.0220 N   0  0  0  0  0  0  0  0  0  0  0  0
   26.0473  -20.0056   -8.5680 C   0  0  0  0  0  0  0  0  0  0  0  0
   26.1592  -18.7874   -8.9592 O   0  0  0  0  0  0  0  0  0  0  0  0
   29.9593  -21.4289  -11.2612 C   0  0  0  0  0  0  0  0  0  0  0  0
   28.7006  -20.7513  -10.7268 C   0  0  0  0  0  0  0  0  0  0  0  0
   27.4827  -21.2044  -11.4663 C   0  0  2  0  0  0  0  0  0  0  0  0
   27.6727  -21.2154  -12.9629 C   0  0  0  0  0  0  0  0  0  0  0  0
   26.1961  -20.5815  -11.0278 C   0  0  2  0  0  0  0  0  0  0  0  0
   26.0468  -20.9533   -9.6108 N   0  0  0  0  0  0  0  0  0  0  0  0
   24.9977  -21.0183  -11.7402 C   0  0  0  0  0  0  0  0  0  0  0  0
   24.5833  -22.2238  -11.6128 O   0  0  0  0  0  0  0  0  0  0  0  0
   24.2030  -20.2114  -12.5991 N   0  0  0  0  0  0  0  0  0  0  0  0
   22.8920  -20.6467  -13.0687 C   0  0  1  0  0  0  0  0  0  0  0  0
   21.8310  -20.4134  -12.0536 C   0  0  0  0  0  0  0  0  0  0  0  0
   20.5335  -20.9211  -12.5410 C   0  0  0  0  0  0  0  0  0  0  0  0
   20.2887  -22.1118  -12.8519 O   0  0  0  0  0  0  0  0  0  0  0  0
   22.5331  -19.9785  -14.3383 C   0  0  0  0  0  0  0  0  0  0  0  0
   21.5453  -20.5836  -15.1218 O   0  0  0  0  0  0  0  0  0  0  0  0
   19.4733  -20.0086  -12.6739 O   0  0  0  0  0  0  0  0  0  0  0  0
   23.0462  -18.9182  -14.7590 O   0  0  0  0  0  0  0  0  0  0  0  0
  2  1  1  0
  3  2  1  0
  3  5  1  0
  3  4  1  1
  5  7  1  0
  5  6  1  6
  7  8  2  0
 10  9  1  0
 11 12  1  6
 11 13  1  0
 11 10  1  0
 13 14  1  1
 14  7  1  0
 15 17  1  0
 15 13  1  0
 16 15  2  0
 18 19  1  1
 18 17  1  0
 19 20  1  0
 20 24  1  0
 20 21  2  0
 22 23  1  0
 22 18  1  0
 25 22  2  0
M  END
$$$$
