IID.pdb
     RDKit          3D

 25 24  0  0  1  0  0  0  0  0999 V2000
   28.4005  -17.9916  -17.9465 C   0  0  0  0  0  0  0  0  0  0  0  0
   28.8102  -18.7628  -16.6965 C   0  0  0  0  0  0  0  0  0  0  0  0
   27.6330  -19.3769  -15.9959 C   0  0  2  0  0  0  0  0  0  0  0  0
   26.5792  -18.3137  -15.8112 C   0  0  0  0  0  0  0  0  0  0  0  0
   27.9756  -20.0815  -14.7145 C   0  0  2  0  0  0  0  0  0  0  0  0
   28.9429  -21.1600  -15.0193 N   0  0  0  0  0  0  0  0  0  0  0  0
   26.8414  -20.7350  -14.0415 C   0  0  0  0  0  0  0  0  0  0  0  0
   26.3489  -21.8079  -14.5474 O   0  0  0  0  0  0  0  0  0  0  0  0
   26.4641  -20.7241   -8.6343 C   0  0  0  0  0  0  0  0  0  0  0  0
   26.4174  -21.2047  -10.0820 C   0  0  0  0  0  0  0  0  0  0  0  0
   25.1820  -20.7262  -10.7749 C   0  0  2  0  0  0  0  0  0  0  0  0
   23.9194  -21.0408  -10.0114 C   0  0  0  0  0  0  0  0  0  0  0  0
   25.0985  -21.0461  -12.2331 C   0  0  2  0  0  0  0  0  0  0  0  0
   26.2081  -20.3066  -12.8578 N   0  0  0  0  0  0  0  0  0  0  0  0
   23.8601  -20.6581  -12.9039 C   0  0  0  0  0  0  0  0  0  0  0  0
   23.4852  -19.4331  -12.8930 O   0  0  0  0  0  0  0  0  0  0  0  0
   22.9852  -21.5342  -13.6020 N   0  0  0  0  0  0  0  0  0  0  0  0
   21.7569  -21.0571  -14.2285 C   0  0  1  0  0  0  0  0  0  0  0  0
   21.3703  -21.8870  -15.3999 C   0  0  0  0  0  0  0  0  0  0  0  0
   20.1607  -21.3367  -16.0423 C   0  0  0  0  0  0  0  0  0  0  0  0
   19.5474  -20.3053  -15.6755 O   0  0  0  0  0  0  0  0  0  0  0  0
   20.6461  -21.0098  -13.2532 C   0  0  0  0  0  0  0  0  0  0  0  0
   19.7296  -19.9611  -13.3789 O   0  0  0  0  0  0  0  0  0  0  0  0
   19.6388  -22.0114  -17.1589 O   0  0  0  0  0  0  0  0  0  0  0  0
   20.4688  -21.8350  -12.3300 O   0  0  0  0  0  0  0  0  0  0  0  0
  2  1  1  0
  3  2  1  0
  3  5  1  0
  3  4  1  1
  5  7  1  0
  5  6  1  6
  7  8  2  0
 10  9  1  0
 11 12  1  1
 11 13  1  0
 11 10  1  0
 13 14  1  6
 14  7  1  0
 15 17  1  0
 15 13  1  0
 16 15  2  0
 18 19  1  6
 18 17  1  0
 19 20  1  0
 20 24  1  0
 20 21  2  0
 22 23  1  0
 22 18  1  0
 25 22  2  0
M  END
$$$$
