IID.pdb
     RDKit          3D

 25 24  0  0  1  0  0  0  0  0999 V2000
   13.3772   -7.6784   -8.3491 C   0  0  0  0  0  0  0  0  0  0  0  0
   13.7973   -8.4306   -9.6071 C   0  0  0  0  0  0  0  0  0  0  0  0
   15.1673   -8.0341  -10.0758 C   0  0  2  0  0  0  0  0  0  0  0  0
   15.2143   -6.5314  -10.1971 C   0  0  0  0  0  0  0  0  0  0  0  0
   15.6171   -8.7304  -11.3283 C   0  0  2  0  0  0  0  0  0  0  0  0
   15.4876  -10.1908  -11.1223 N   0  0  0  0  0  0  0  0  0  0  0  0
   17.0226   -8.4982  -11.6986 C   0  0  0  0  0  0  0  0  0  0  0  0
   17.7786   -7.8377  -10.8974 O   0  0  0  0  0  0  0  0  0  0  0  0
   18.9694  -12.1047  -14.6837 C   0  0  0  0  0  0  0  0  0  0  0  0
   19.4045  -11.1343  -13.5891 C   0  0  0  0  0  0  0  0  0  0  0  0
   19.5074   -9.7366  -14.1101 C   0  0  2  0  0  0  0  0  0  0  0  0
   20.8244   -9.4575  -14.7910 C   0  0  0  0  0  0  0  0  0  0  0  0
   19.0827   -8.6638  -13.1592 C   0  0  2  0  0  0  0  0  0  0  0  0
   17.6635   -8.9352  -12.8749 N   0  0  0  0  0  0  0  0  0  0  0  0
   19.1928   -7.2923  -13.6505 C   0  0  0  0  0  0  0  0  0  0  0  0
   18.5059   -6.9212  -14.6661 O   0  0  0  0  0  0  0  0  0  0  0  0
   20.0178   -6.2763  -13.0960 N   0  0  0  0  0  0  0  0  0  0  0  0
   20.1748   -4.9761  -13.7390 C   0  0  1  0  0  0  0  0  0  0  0  0
   19.4030   -3.9133  -13.0424 C   0  0  0  0  0  0  0  0  0  0  0  0
   19.5794   -2.6178  -13.7274 C   0  0  0  0  0  0  0  0  0  0  0  0
   20.0389   -2.4635  -14.8848 O   0  0  0  0  0  0  0  0  0  0  0  0
   21.6008   -4.5931  -13.8232 C   0  0  0  0  0  0  0  0  0  0  0  0
   22.5154   -5.3745  -13.1101 O   0  0  0  0  0  0  0  0  0  0  0  0
   19.2072   -1.4497  -13.0408 O   0  0  0  0  0  0  0  0  0  0  0  0
   22.0446   -3.6268  -14.4819 O   0  0  0  0  0  0  0  0  0  0  0  0
  2  1  1  0
  3  2  1  0
  3  5  1  0
  3  4  1  6
  5  7  1  0
  5  6  1  1
  7  8  2  0
 10  9  1  0
 11 12  1  1
 11 13  1  0
 11 10  1  0
 13 14  1  6
 14  7  1  0
 15 17  1  0
 15 13  1  0
 16 15  2  0
 18 19  1  1
 18 17  1  0
 19 20  1  0
 20 24  1  0
 20 21  2  0
 22 23  1  0
 22 18  1  0
 25 22  2  0
M  END
$$$$
