IID.pdb
     RDKit          3D

 25 24  0  0  1  0  0  0  0  0999 V2000
   20.0106  -21.2314   -8.7098 C   0  0  0  0  0  0  0  0  0  0  0  0
   21.5197  -21.4472   -8.7394 C   0  0  0  0  0  0  0  0  0  0  0  0
   22.1583  -20.8320   -9.9509 C   0  0  2  0  0  0  0  0  0  0  0  0
   21.4350  -21.3304  -11.1771 C   0  0  0  0  0  0  0  0  0  0  0  0
   23.6446  -21.0317  -10.0342 C   0  0  2  0  0  0  0  0  0  0  0  0
   24.2632  -20.4398   -8.8264 N   0  0  0  0  0  0  0  0  0  0  0  0
   24.2964  -20.3802  -11.1819 C   0  0  0  0  0  0  0  0  0  0  0  0
   24.5672  -19.1264  -11.1173 O   0  0  0  0  0  0  0  0  0  0  0  0
   28.5371  -21.4632  -15.2705 C   0  0  0  0  0  0  0  0  0  0  0  0
   27.3230  -20.5766  -15.0074 C   0  0  0  0  0  0  0  0  0  0  0  0
   26.5728  -21.0267  -13.7950 C   0  0  2  0  0  0  0  0  0  0  0  0
   26.3973  -22.5238  -13.7333 C   0  0  0  0  0  0  0  0  0  0  0  0
   25.3245  -20.2617  -13.4913 C   0  0  2  0  0  0  0  0  0  0  0  0
   24.6764  -20.9954  -12.3913 N   0  0  0  0  0  0  0  0  0  0  0  0
   24.3639  -20.1432  -14.5857 C   0  0  0  0  0  0  0  0  0  0  0  0
   23.6105  -21.1356  -14.8838 O   0  0  0  0  0  0  0  0  0  0  0  0
   24.1641  -18.9904  -15.3928 N   0  0  0  0  0  0  0  0  0  0  0  0
   23.1113  -18.9300  -16.4012 C   0  0  1  0  0  0  0  0  0  0  0  0
   22.6974  -17.5318  -16.6913 C   0  0  0  0  0  0  0  0  0  0  0  0
   23.8626  -16.7275  -17.1088 C   0  0  0  0  0  0  0  0  0  0  0  0
   25.0510  -17.1289  -17.1373 O   0  0  0  0  0  0  0  0  0  0  0  0
   23.5314  -19.6027  -17.6495 C   0  0  0  0  0  0  0  0  0  0  0  0
   24.9054  -19.7447  -17.8676 O   0  0  0  0  0  0  0  0  0  0  0  0
   23.6405  -15.3995  -17.5107 O   0  0  0  0  0  0  0  0  0  0  0  0
   22.7512  -20.0507  -18.5186 O   0  0  0  0  0  0  0  0  0  0  0  0
  2  1  1  0
  3  2  1  0
  3  5  1  0
  3  4  1  6
  5  7  1  0
  5  6  1  1
  7  8  2  0
 10  9  1  0
 11 12  1  6
 11 13  1  0
 11 10  1  0
 13 14  1  1
 14  7  1  0
 15 17  1  0
 15 13  1  0
 16 15  2  0
 18 19  1  6
 18 17  1  0
 19 20  1  0
 20 24  1  0
 20 21  2  0
 22 23  1  0
 22 18  1  0
 25 22  2  0
M  END
$$$$
