RVE.pdb
     RDKit          3D

 28 27  0  0  1  0  0  0  0  0999 V2000
    6.6691  -14.3252   14.4659 N   0  0  0  0  0  0  0  0  0  0  0  0
    7.4739  -14.3079   15.6340 C   0  0  0  0  0  0  0  0  0  0  0  0
    8.0379  -13.2028   15.9882 N   0  0  0  0  0  0  0  0  0  0  0  0
    7.6561  -15.5071   16.4084 N   0  0  0  0  0  0  0  0  0  0  0  0
    7.2555  -15.5356   17.7930 C   0  0  0  0  0  0  0  0  0  0  0  0
    8.3095  -14.9393   18.6932 C   0  0  0  0  0  0  0  0  0  0  0  0
    7.9330  -15.0055   20.1523 C   0  0  0  0  0  0  0  0  0  0  0  0
    8.1820  -13.6813   20.8542 C   0  0  2  0  0  0  0  0  0  0  0  0
    9.4015  -13.1510   20.2524 N   0  0  0  0  0  0  0  0  0  0  0  0
    8.4546  -13.8789   22.2962 C   0  0  0  0  0  0  0  0  0  0  0  0
    9.4934  -14.4714   22.6641 O   0  0  0  0  0  0  0  0  0  0  0  0
    8.6259  -13.0887   16.8343 C   0  0  0  0  0  0  0  0  0  0  0  0
    7.5446  -12.4599   26.9518 C   0  0  1  0  0  0  0  0  0  0  0  0
    7.0636  -12.5433   25.5205 C   0  0  0  0  0  0  0  0  0  0  0  0
    5.5832  -12.7980   25.4953 C   0  0  2  0  0  0  0  0  0  0  0  0
    7.8682  -13.5290   24.7242 N   0  0  0  0  0  0  0  0  0  0  0  0
    7.5566  -13.4085   23.3135 C   0  0  0  0  0  0  0  0  0  0  0  0
    7.7678  -14.9183   25.2070 O   0  0  0  0  0  0  0  0  0  0  0  0
    7.0730  -15.7459   24.5647 N   0  0  0  0  0  0  0  0  0  0  0  0
    8.4067  -15.4119   26.3644 C   0  0  1  0  0  0  0  0  0  0  0  0
    9.1734  -16.6463   26.3281 C   0  0  0  0  0  0  0  0  0  0  0  0
   10.2050  -16.6873   25.2946 C   0  0  0  0  0  0  0  0  0  0  0  0
   11.0216  -17.9403   25.3244 C   0  0  0  0  0  0  0  0  0  0  0  0
   12.1034  -18.0349   24.3546 O   0  0  0  0  0  0  0  0  0  0  0  0
   11.8488  -17.9555   23.1297 C   0  0  0  0  0  0  0  0  0  0  0  0
    9.6950  -16.9734   27.6769 O   0  0  0  0  0  0  0  0  0  0  0  0
    9.7197  -16.1205   28.5851 O   0  0  0  0  0  0  0  0  0  0  0  0
   13.4055  -18.2132   24.7553 O   0  0  0  0  0  0  0  0  0  0  0  0
  2  1  1  0
  3  2  2  0
  4  2  1  0
  5  4  1  0
  6  7  1  0
  6  5  1  0
  7  8  1  0
  8 10  1  0
  8  9  1  6
 10 11  2  0
 13 14  1  1
 13 12  1  0
 15 13  1  0
 15 16  1  1
 16 10  1  0
 17 15  1  0
 18 17  2  0
 19 17  1  0
 20 19  1  0
 20 21  1  1
 21 22  1  0
 23 22  1  0
 23 27  1  0
 24 23  2  0
 25 20  1  0
 25 28  1  0
 26 25  2  0
M  END
$$$$
