RVE.pdb
     RDKit          3D

 28 27  0  0  1  0  0  0  0  0999 V2000
    9.7367  -20.1766   12.8439 N   0  0  0  0  0  0  0  0  0  0  0  0
   11.1020  -20.0809   13.2171 C   0  0  0  0  0  0  0  0  0  0  0  0
   12.0095  -20.3769   12.3489 N   0  0  0  0  0  0  0  0  0  0  0  0
   11.4646  -19.6606   14.5447 N   0  0  0  0  0  0  0  0  0  0  0  0
   10.4358  -19.3582   15.5083 C   0  0  0  0  0  0  0  0  0  0  0  0
    9.7363  -18.0593   15.1916 C   0  0  0  0  0  0  0  0  0  0  0  0
   10.2113  -16.9175   16.0553 C   0  0  0  0  0  0  0  0  0  0  0  0
    9.0465  -16.1223   16.6204 C   0  0  2  0  0  0  0  0  0  0  0  0
    8.5330  -15.3431   15.4980 N   0  0  0  0  0  0  0  0  0  0  0  0
    9.5005  -15.1605   17.6507 C   0  0  0  0  0  0  0  0  0  0  0  0
    9.6594  -13.9545   17.3582 O   0  0  0  0  0  0  0  0  0  0  0  0
   13.0298  -20.3172   12.5225 C   0  0  0  0  0  0  0  0  0  0  0  0
    8.0353  -13.1004   18.8871 C   0  0  1  0  0  0  0  0  0  0  0  0
    8.1140  -14.1129   20.0076 C   0  0  0  0  0  0  0  0  0  0  0  0
    7.5900  -13.5071   21.2786 C   0  0  2  0  0  0  0  0  0  0  0  0
    9.4921  -14.6955   20.1296 N   0  0  0  0  0  0  0  0  0  0  0  0
    9.7722  -15.5629   19.0024 C   0  0  0  0  0  0  0  0  0  0  0  0
    9.7569  -15.3496   21.4239 O   0  0  0  0  0  0  0  0  0  0  0  0
    8.9986  -16.2727   21.8151 N   0  0  0  0  0  0  0  0  0  0  0  0
   10.8236  -15.0169   22.2858 C   0  0  1  0  0  0  0  0  0  0  0  0
   11.4194  -16.0138   23.1599 C   0  0  0  0  0  0  0  0  0  0  0  0
   12.8316  -15.7898   23.4587 C   0  0  0  0  0  0  0  0  0  0  0  0
   13.6922  -15.7328   22.2365 C   0  0  0  0  0  0  0  0  0  0  0  0
   15.1070  -15.4630   22.4491 O   0  0  0  0  0  0  0  0  0  0  0  0
   15.5958  -15.5769   23.5980 C   0  0  0  0  0  0  0  0  0  0  0  0
   10.5940  -16.1962   24.3781 O   0  0  0  0  0  0  0  0  0  0  0  0
    9.6421  -15.4339   24.6343 O   0  0  0  0  0  0  0  0  0  0  0  0
   15.9230  -15.0813   21.4117 O   0  0  0  0  0  0  0  0  0  0  0  0
  2  1  1  0
  3  2  2  0
  4  2  1  0
  5  4  1  0
  6  7  1  0
  6  5  1  0
  7  8  1  0
  8 10  1  0
  8  9  1  6
 10 11  2  0
 13 14  1  1
 13 12  1  0
 15 13  1  0
 15 16  1  1
 16 10  1  0
 17 15  1  0
 18 17  2  0
 19 17  1  0
 20 19  1  0
 20 21  1  1
 21 22  1  0
 23 22  1  0
 23 27  1  0
 24 23  2  0
 25 20  1  0
 25 28  1  0
 26 25  2  0
M  END
$$$$
