RVE.pdb
     RDKit          3D

 28 27  0  0  1  0  0  0  0  0999 V2000
    7.9241  -12.7905   16.6078 N   0  0  0  0  0  0  0  0  0  0  0  0
    7.7164  -14.0314   15.9526 C   0  0  0  0  0  0  0  0  0  0  0  0
    7.3251  -14.0313   14.7231 N   0  0  0  0  0  0  0  0  0  0  0  0
    7.9392  -15.2688   16.6526 N   0  0  0  0  0  0  0  0  0  0  0  0
    7.3407  -15.4795   17.9471 C   0  0  0  0  0  0  0  0  0  0  0  0
    8.0512  -14.6998   19.0260 C   0  0  0  0  0  0  0  0  0  0  0  0
    7.4179  -14.8763   20.3837 C   0  0  0  0  0  0  0  0  0  0  0  0
    7.2824  -13.5507   21.1135 C   0  0  2  0  0  0  0  0  0  0  0  0
    8.0589  -12.5978   20.3264 N   0  0  0  0  0  0  0  0  0  0  0  0
    7.8970  -13.6116   22.4593 C   0  0  0  0  0  0  0  0  0  0  0  0
    9.1417  -13.5836   22.5838 O   0  0  0  0  0  0  0  0  0  0  0  0
    7.1563  -14.8855   14.1606 C   0  0  0  0  0  0  0  0  0  0  0  0
    6.7782  -11.6217   25.6282 C   0  0  1  0  0  0  0  0  0  0  0  0
    6.9103  -13.0846   25.9876 C   0  0  0  0  0  0  0  0  0  0  0  0
    7.4273  -13.2189   27.3918 C   0  0  2  0  0  0  0  0  0  0  0  0
    7.7139  -13.8341   24.9650 N   0  0  0  0  0  0  0  0  0  0  0  0
    7.1067  -13.7034   23.6551 C   0  0  0  0  0  0  0  0  0  0  0  0
    7.9851  -15.2382   25.3231 O   0  0  0  0  0  0  0  0  0  0  0  0
    7.3218  -16.1540   24.7742 N   0  0  0  0  0  0  0  0  0  0  0  0
    8.9576  -15.6525   26.2580 C   0  0  1  0  0  0  0  0  0  0  0  0
    9.4878  -17.0058   26.2375 C   0  0  0  0  0  0  0  0  0  0  0  0
   10.0209  -17.4270   24.9443 C   0  0  0  0  0  0  0  0  0  0  0  0
   11.5067  -17.6002   24.9459 C   0  0  0  0  0  0  0  0  0  0  0  0
   12.1173  -17.9913   23.6834 O   0  0  0  0  0  0  0  0  0  0  0  0
   12.5553  -17.1109   22.9057 C   0  0  0  0  0  0  0  0  0  0  0  0
   10.4481  -17.2041   27.3496 O   0  0  0  0  0  0  0  0  0  0  0  0
   11.1101  -16.2538   27.8096 O   0  0  0  0  0  0  0  0  0  0  0  0
   12.2224  -19.3127   23.3222 O   0  0  0  0  0  0  0  0  0  0  0  0
  2  1  1  0
  3  2  2  0
  4  2  1  0
  5  4  1  0
  6  7  1  0
  6  5  1  0
  7  8  1  0
  8 10  1  0
  8  9  1  6
 10 11  2  0
 13 14  1  6
 13 12  1  0
 15 13  1  0
 15 16  1  6
 16 10  1  0
 17 15  1  0
 18 17  2  0
 19 17  1  0
 20 19  1  0
 20 21  1  1
 21 22  1  0
 23 22  1  0
 23 27  1  0
 24 23  2  0
 25 20  1  0
 25 28  1  0
 26 25  2  0
M  END
$$$$
