RVE.pdb
     RDKit          3D

 28 27  0  0  1  0  0  0  0  0999 V2000
    8.2552  -14.0431   16.6098 N   0  0  0  0  0  0  0  0  0  0  0  0
    8.5944  -13.5207   17.8842 C   0  0  0  0  0  0  0  0  0  0  0  0
    8.5067  -12.2486   18.0820 N   0  0  0  0  0  0  0  0  0  0  0  0
    9.0299  -14.3996   18.9372 N   0  0  0  0  0  0  0  0  0  0  0  0
    8.0582  -15.1413   19.7015 C   0  0  0  0  0  0  0  0  0  0  0  0
    7.1703  -14.2301   20.5128 C   0  0  0  0  0  0  0  0  0  0  0  0
    6.1779  -14.9880   21.3591 C   0  0  0  0  0  0  0  0  0  0  0  0
    6.8740  -15.9187   22.3377 C   0  0  2  0  0  0  0  0  0  0  0  0
    5.8003  -16.6575   22.9949 N   0  0  0  0  0  0  0  0  0  0  0  0
    7.5898  -15.1585   23.3876 C   0  0  0  0  0  0  0  0  0  0  0  0
    8.6894  -14.6183   23.1335 O   0  0  0  0  0  0  0  0  0  0  0  0
    8.8043  -11.7677   18.9508 C   0  0  0  0  0  0  0  0  0  0  0  0
    6.5946  -12.4275   25.7213 C   0  0  1  0  0  0  0  0  0  0  0  0
    7.1591  -13.5105   26.6131 C   0  0  0  0  0  0  0  0  0  0  0  0
    7.9806  -12.8913   27.7080 C   0  0  2  0  0  0  0  0  0  0  0  0
    7.8860  -14.5565   25.8189 N   0  0  0  0  0  0  0  0  0  0  0  0
    7.0630  -15.0116   24.7157 C   0  0  0  0  0  0  0  0  0  0  0  0
    8.4101  -15.6714   26.6287 O   0  0  0  0  0  0  0  0  0  0  0  0
    7.6080  -16.4961   27.1353 N   0  0  0  0  0  0  0  0  0  0  0  0
    9.7783  -15.8976   26.8895 C   0  0  1  0  0  0  0  0  0  0  0  0
   10.2174  -17.0772   27.6166 C   0  0  0  0  0  0  0  0  0  0  0  0
   11.0726  -17.9780   26.8479 C   0  0  0  0  0  0  0  0  0  0  0  0
   12.4172  -17.3984   26.5419 C   0  0  0  0  0  0  0  0  0  0  0  0
   13.1854  -18.0548   25.4937 O   0  0  0  0  0  0  0  0  0  0  0  0
   13.4848  -17.4222   24.4536 C   0  0  0  0  0  0  0  0  0  0  0  0
   10.8090  -16.6930   28.9207 O   0  0  0  0  0  0  0  0  0  0  0  0
   11.0022  -15.4979   29.2162 O   0  0  0  0  0  0  0  0  0  0  0  0
   13.5896  -19.3620   25.6193 O   0  0  0  0  0  0  0  0  0  0  0  0
  2  1  1  0
  3  2  2  0
  4  2  1  0
  5  4  1  0
  6  7  1  0
  6  5  1  0
  7  8  1  0
  8 10  1  0
  8  9  1  1
 10 11  2  0
 13 14  1  1
 13 12  1  0
 15 13  1  0
 15 16  1  6
 16 10  1  0
 17 15  1  0
 18 17  2  0
 19 17  1  0
 20 19  1  0
 20 21  1  1
 21 22  1  0
 23 22  1  0
 23 27  1  0
 24 23  2  0
 25 20  1  0
 25 28  1  0
 26 25  2  0
M  END
$$$$
