RVE.pdb
     RDKit          3D

 28 27  0  0  1  0  0  0  0  0999 V2000
    6.4418  -20.6552   19.0812 N   0  0  0  0  0  0  0  0  0  0  0  0
    6.5508  -20.3800   20.4686 C   0  0  0  0  0  0  0  0  0  0  0  0
    5.6887  -20.8963   21.2779 N   0  0  0  0  0  0  0  0  0  0  0  0
    7.6078  -19.5368   20.9611 N   0  0  0  0  0  0  0  0  0  0  0  0
    8.3121  -18.6645   20.0547 C   0  0  0  0  0  0  0  0  0  0  0  0
    7.8915  -17.2252   20.2226 C   0  0  0  0  0  0  0  0  0  0  0  0
    8.0353  -16.7393   21.6433 C   0  0  0  0  0  0  0  0  0  0  0  0
    7.6471  -15.2764   21.7755 C   0  0  2  0  0  0  0  0  0  0  0  0
    8.3369  -14.5959   20.6839 N   0  0  0  0  0  0  0  0  0  0  0  0
    8.1518  -14.6976   23.0416 C   0  0  0  0  0  0  0  0  0  0  0  0
    9.3787  -14.5135   23.2036 O   0  0  0  0  0  0  0  0  0  0  0  0
    5.6850  -20.7488   22.3040 C   0  0  0  0  0  0  0  0  0  0  0  0
    6.3276  -11.8671   25.0969 C   0  0  2  0  0  0  0  0  0  0  0  0
    6.7863  -12.9514   26.0460 C   0  0  0  0  0  0  0  0  0  0  0  0
    7.2722  -12.3344   27.3268 C   0  0  2  0  0  0  0  0  0  0  0  0
    7.7774  -13.8719   25.3952 N   0  0  0  0  0  0  0  0  0  0  0  0
    7.2723  -14.3303   24.1160 C   0  0  0  0  0  0  0  0  0  0  0  0
    8.2234  -14.9825   26.2560 O   0  0  0  0  0  0  0  0  0  0  0  0
    7.9772  -16.1663   25.9126 N   0  0  0  0  0  0  0  0  0  0  0  0
    8.9259  -14.8227   27.4694 C   0  0  1  0  0  0  0  0  0  0  0  0
   10.0447  -15.6872   27.8067 C   0  0  0  0  0  0  0  0  0  0  0  0
   11.0685  -15.7840   26.7692 C   0  0  0  0  0  0  0  0  0  0  0  0
   12.1940  -16.6996   27.1333 C   0  0  0  0  0  0  0  0  0  0  0  0
   12.5068  -17.7563   26.1819 O   0  0  0  0  0  0  0  0  0  0  0  0
   13.5867  -18.3848   26.2838 C   0  0  0  0  0  0  0  0  0  0  0  0
   10.5999  -15.3243   29.1328 O   0  0  0  0  0  0  0  0  0  0  0  0
   10.6141  -14.1421   29.5264 O   0  0  0  0  0  0  0  0  0  0  0  0
   11.6396  -18.0801   25.1666 O   0  0  0  0  0  0  0  0  0  0  0  0
  2  1  1  0
  3  2  2  0
  4  2  1  0
  5  4  1  0
  6  7  1  0
  6  5  1  0
  7  8  1  0
  8 10  1  0
  8  9  1  6
 10 11  2  0
 13 14  1  6
 13 12  1  0
 15 13  1  0
 15 16  1  6
 16 10  1  0
 17 15  1  0
 18 17  2  0
 19 17  1  0
 20 19  1  0
 20 21  1  1
 21 22  1  0
 23 22  1  0
 23 27  1  0
 24 23  2  0
 25 20  1  0
 25 28  1  0
 26 25  2  0
M  END
$$$$
