RVE.pdb
     RDKit          3D

 28 27  0  0  1  0  0  0  0  0999 V2000
    8.5472  -14.7139   16.5047 N   0  0  0  0  0  0  0  0  0  0  0  0
    7.9955  -13.6326   17.2387 C   0  0  0  0  0  0  0  0  0  0  0  0
    8.4441  -12.4412   17.0288 N   0  0  0  0  0  0  0  0  0  0  0  0
    6.9521  -13.8658   18.2020 N   0  0  0  0  0  0  0  0  0  0  0  0
    6.6781  -15.2072   18.6533 C   0  0  0  0  0  0  0  0  0  0  0  0
    7.8795  -15.8298   19.3209 C   0  0  0  0  0  0  0  0  0  0  0  0
    8.2730  -15.1176   20.5910 C   0  0  0  0  0  0  0  0  0  0  0  0
    8.2254  -16.0482   21.7911 C   0  0  2  0  0  0  0  0  0  0  0  0
    6.8167  -16.3951   21.9524 N   0  0  0  0  0  0  0  0  0  0  0  0
    8.6506  -15.3541   23.0280 C   0  0  0  0  0  0  0  0  0  0  0  0
    9.8103  -14.8943   23.1239 O   0  0  0  0  0  0  0  0  0  0  0  0
    8.0688  -11.5851   17.4770 C   0  0  0  0  0  0  0  0  0  0  0  0
    6.7540  -12.6199   24.7999 C   0  0  1  0  0  0  0  0  0  0  0  0
    7.1678  -13.5974   25.8770 C   0  0  0  0  0  0  0  0  0  0  0  0
    7.5672  -12.8491   27.1170 C   0  0  2  0  0  0  0  0  0  0  0  0
    8.2081  -14.5588   25.3802 N   0  0  0  0  0  0  0  0  0  0  0  0
    7.7679  -15.1825   24.1479 C   0  0  0  0  0  0  0  0  0  0  0  0
    8.6468  -15.5439   26.3854 O   0  0  0  0  0  0  0  0  0  0  0  0
    7.7898  -16.2614   26.9608 N   0  0  0  0  0  0  0  0  0  0  0  0
    9.9889  -15.7561   26.7662 C   0  0  1  0  0  0  0  0  0  0  0  0
   10.3926  -16.9807   27.4373 C   0  0  0  0  0  0  0  0  0  0  0  0
   11.5645  -17.6308   26.8561 C   0  0  0  0  0  0  0  0  0  0  0  0
   11.9650  -18.8796   27.5755 C   0  0  0  0  0  0  0  0  0  0  0  0
   13.3735  -19.2429   27.5135 O   0  0  0  0  0  0  0  0  0  0  0  0
   13.8595  -19.6659   26.4380 C   0  0  0  0  0  0  0  0  0  0  0  0
   10.5231  -16.7542   28.8968 O   0  0  0  0  0  0  0  0  0  0  0  0
   10.5257  -17.7059   29.7012 O   0  0  0  0  0  0  0  0  0  0  0  0
   14.1864  -19.1339   28.6158 O   0  0  0  0  0  0  0  0  0  0  0  0
  2  1  1  0
  3  2  2  0
  4  2  1  0
  5  4  1  0
  6  7  1  0
  6  5  1  0
  7  8  1  0
  8 10  1  0
  8  9  1  1
 10 11  2  0
 13 14  1  1
 13 12  1  0
 15 13  1  0
 15 16  1  6
 16 10  1  0
 17 15  1  0
 18 17  2  0
 19 17  1  0
 20 19  1  0
 20 21  1  1
 21 22  1  0
 23 22  1  0
 23 27  1  0
 24 23  2  0
 25 20  1  0
 25 28  1  0
 26 25  2  0
M  END
$$$$
