RVE.pdb
     RDKit          3D

 28 27  0  0  1  0  0  0  0  0999 V2000
   10.2045  -22.2073   18.9621 N   0  0  0  0  0  0  0  0  0  0  0  0
   10.2512  -22.7898   17.6695 C   0  0  0  0  0  0  0  0  0  0  0  0
   10.2392  -24.0756   17.5624 N   0  0  0  0  0  0  0  0  0  0  0  0
   10.3116  -21.9556   16.4985 N   0  0  0  0  0  0  0  0  0  0  0  0
   10.1827  -20.5256   16.6280 C   0  0  0  0  0  0  0  0  0  0  0  0
    8.7387  -20.1007   16.7328 C   0  0  0  0  0  0  0  0  0  0  0  0
    8.4709  -19.2452   17.9460 C   0  0  0  0  0  0  0  0  0  0  0  0
    8.2338  -17.7937   17.5647 C   0  0  2  0  0  0  0  0  0  0  0  0
    8.9943  -17.5904   16.3355 N   0  0  0  0  0  0  0  0  0  0  0  0
    8.7896  -16.8721   18.5817 C   0  0  0  0  0  0  0  0  0  0  0  0
   10.0189  -16.6418   18.6166 O   0  0  0  0  0  0  0  0  0  0  0  0
   10.2671  -24.5901   16.6629 C   0  0  0  0  0  0  0  0  0  0  0  0
    6.7896  -13.5816   19.8116 C   0  0  1  0  0  0  0  0  0  0  0  0
    7.4184  -14.3273   20.9672 C   0  0  0  0  0  0  0  0  0  0  0  0
    7.8652  -13.3522   22.0191 C   0  0  2  0  0  0  0  0  0  0  0  0
    8.4968  -15.2613   20.5003 N   0  0  0  0  0  0  0  0  0  0  0  0
    7.9581  -16.2164   19.5521 C   0  0  0  0  0  0  0  0  0  0  0  0
    9.2449  -15.9111   21.5919 O   0  0  0  0  0  0  0  0  0  0  0  0
    8.7760  -16.9457   22.1303 N   0  0  0  0  0  0  0  0  0  0  0  0
   10.4812  -15.4556   22.0972 C   0  0  1  0  0  0  0  0  0  0  0  0
   11.2383  -16.2485   23.0516 C   0  0  0  0  0  0  0  0  0  0  0  0
   12.6749  -15.9838   23.0530 C   0  0  0  0  0  0  0  0  0  0  0  0
   13.4261  -16.8053   24.0523 C   0  0  0  0  0  0  0  0  0  0  0  0
   14.8564  -16.5547   24.1570 O   0  0  0  0  0  0  0  0  0  0  0  0
   15.3941  -16.4845   25.2872 C   0  0  0  0  0  0  0  0  0  0  0  0
   10.6329  -16.1535   24.4017 O   0  0  0  0  0  0  0  0  0  0  0  0
   10.0692  -15.1105   24.7856 O   0  0  0  0  0  0  0  0  0  0  0  0
   15.6344  -16.3897   23.0366 O   0  0  0  0  0  0  0  0  0  0  0  0
  2  1  1  0
  3  2  2  0
  4  2  1  0
  5  4  1  0
  6  7  1  0
  6  5  1  0
  7  8  1  0
  8 10  1  0
  8  9  1  6
 10 11  2  0
 13 14  1  6
 13 12  1  0
 15 13  1  0
 15 16  1  6
 16 10  1  0
 17 15  1  0
 18 17  2  0
 19 17  1  0
 20 19  1  0
 20 21  1  1
 21 22  1  0
 23 22  1  0
 23 27  1  0
 24 23  2  0
 25 20  1  0
 25 28  1  0
 26 25  2  0
M  END
$$$$
