RVE.pdb
     RDKit          3D

 28 27  0  0  1  0  0  0  0  0999 V2000
    9.2977  -22.1989   17.0601 N   0  0  0  0  0  0  0  0  0  0  0  0
   10.5742  -22.2345   16.4423 C   0  0  0  0  0  0  0  0  0  0  0  0
   10.9823  -23.3385   15.9137 N   0  0  0  0  0  0  0  0  0  0  0  0
   11.3980  -21.0551   16.4085 N   0  0  0  0  0  0  0  0  0  0  0  0
   10.8459  -19.8064   15.9457 C   0  0  0  0  0  0  0  0  0  0  0  0
    9.6725  -19.3672   16.7865 C   0  0  0  0  0  0  0  0  0  0  0  0
   10.0057  -18.2041   17.6873 C   0  0  0  0  0  0  0  0  0  0  0  0
    9.3543  -16.9191   17.2046 C   0  0  2  0  0  0  0  0  0  0  0  0
   10.0247  -16.5970   15.9486 N   0  0  0  0  0  0  0  0  0  0  0  0
    9.6129  -15.8002   18.1393 C   0  0  0  0  0  0  0  0  0  0  0  0
   10.7530  -15.2895   18.2085 O   0  0  0  0  0  0  0  0  0  0  0  0
   11.9223  -23.4790   15.4998 C   0  0  0  0  0  0  0  0  0  0  0  0
    7.0729  -12.7668   19.1116 C   0  0  1  0  0  0  0  0  0  0  0  0
    7.6252  -13.4858   20.3219 C   0  0  0  0  0  0  0  0  0  0  0  0
    7.7877  -12.5173   21.4589 C   0  0  2  0  0  0  0  0  0  0  0  0
    8.8718  -14.2523   19.9876 N   0  0  0  0  0  0  0  0  0  0  0  0
    8.5867  -15.2639   18.9892 C   0  0  0  0  0  0  0  0  0  0  0  0
    9.5744  -14.8011   21.1617 O   0  0  0  0  0  0  0  0  0  0  0  0
   10.0023  -14.0174   22.0465 N   0  0  0  0  0  0  0  0  0  0  0  0
    9.8128  -16.1743   21.3826 C   0  0  1  0  0  0  0  0  0  0  0  0
   10.5458  -16.6287   22.5527 C   0  0  0  0  0  0  0  0  0  0  0  0
   10.3104  -18.0257   22.9090 C   0  0  0  0  0  0  0  0  0  0  0  0
   11.0605  -18.4588   24.1285 C   0  0  0  0  0  0  0  0  0  0  0  0
   10.9577  -19.8654   24.4901 O   0  0  0  0  0  0  0  0  0  0  0  0
   10.2074  -20.6234   23.8311 C   0  0  0  0  0  0  0  0  0  0  0  0
   11.9861  -16.3014   22.4226 O   0  0  0  0  0  0  0  0  0  0  0  0
   12.5613  -16.3421   21.3179 O   0  0  0  0  0  0  0  0  0  0  0  0
   11.6676  -20.3830   25.5465 O   0  0  0  0  0  0  0  0  0  0  0  0
  2  1  1  0
  3  2  2  0
  4  2  1  0
  5  4  1  0
  6  7  1  0
  6  5  1  0
  7  8  1  0
  8 10  1  0
  8  9  1  6
 10 11  2  0
 13 14  1  6
 13 12  1  0
 15 13  1  0
 15 16  1  6
 16 10  1  0
 17 15  1  0
 18 17  2  0
 19 17  1  0
 20 19  1  0
 20 21  1  6
 21 22  1  0
 23 22  1  0
 23 27  1  0
 24 23  2  0
 25 20  1  0
 25 28  1  0
 26 25  2  0
M  END
$$$$
