RVE.pdb
     RDKit          3D

 28 27  0  0  1  0  0  0  0  0999 V2000
    7.7655  -15.0212   15.6392 N   0  0  0  0  0  0  0  0  0  0  0  0
    8.1221  -14.1139   16.6698 C   0  0  0  0  0  0  0  0  0  0  0  0
    8.2158  -12.8574   16.3917 N   0  0  0  0  0  0  0  0  0  0  0  0
    8.3753  -14.5922   18.0032 N   0  0  0  0  0  0  0  0  0  0  0  0
    8.3874  -16.0093   18.2677 C   0  0  0  0  0  0  0  0  0  0  0  0
    7.7477  -16.3367   19.5945 C   0  0  0  0  0  0  0  0  0  0  0  0
    7.9646  -15.2580   20.6263 C   0  0  0  0  0  0  0  0  0  0  0  0
    7.3568  -15.6364   21.9664 C   0  0  2  0  0  0  0  0  0  0  0  0
    5.9210  -15.4247   21.8104 N   0  0  0  0  0  0  0  0  0  0  0  0
    7.8193  -14.7304   23.0425 C   0  0  0  0  0  0  0  0  0  0  0  0
    8.4830  -13.7077   22.7613 O   0  0  0  0  0  0  0  0  0  0  0  0
    8.4537  -12.1199   17.0803 C   0  0  0  0  0  0  0  0  0  0  0  0
    6.1302  -13.6179   26.6073 C   0  0  1  0  0  0  0  0  0  0  0  0
    7.4420  -13.1554   26.0140 C   0  0  0  0  0  0  0  0  0  0  0  0
    7.1895  -12.0754   25.0007 C   0  0  1  0  0  0  0  0  0  0  0  0
    8.2489  -14.3085   25.4918 N   0  0  0  0  0  0  0  0  0  0  0  0
    7.5317  -14.9819   24.4271 C   0  0  0  0  0  0  0  0  0  0  0  0
    8.7136  -15.2400   26.5356 O   0  0  0  0  0  0  0  0  0  0  0  0
    7.9480  -16.1553   26.9307 N   0  0  0  0  0  0  0  0  0  0  0  0
    9.9850  -15.1892   27.1458 C   0  0  1  0  0  0  0  0  0  0  0  0
   10.5135  -16.3320   27.8722 C   0  0  0  0  0  0  0  0  0  0  0  0
   11.7299  -16.9029   27.2993 C   0  0  0  0  0  0  0  0  0  0  0  0
   12.2082  -18.1216   28.0229 C   0  0  0  0  0  0  0  0  0  0  0  0
   13.4135  -18.7540   27.5060 O   0  0  0  0  0  0  0  0  0  0  0  0
   13.9229  -18.3409   26.4376 C   0  0  0  0  0  0  0  0  0  0  0  0
   10.6493  -16.0133   29.3138 O   0  0  0  0  0  0  0  0  0  0  0  0
   10.5468  -14.8431   29.7299 O   0  0  0  0  0  0  0  0  0  0  0  0
   14.0071  -19.8024   28.1666 O   0  0  0  0  0  0  0  0  0  0  0  0
  2  1  1  0
  3  2  2  0
  4  2  1  0
  5  4  1  0
  6  7  1  0
  6  5  1  0
  7  8  1  0
  8 10  1  0
  8  9  1  6
 10 11  2  0
 13 14  1  6
 13 12  1  0
 15 13  1  0
 15 16  1  6
 16 10  1  0
 17 15  1  0
 18 17  2  0
 19 17  1  0
 20 19  1  0
 20 21  1  1
 21 22  1  0
 23 22  1  0
 23 27  1  0
 24 23  2  0
 25 20  1  0
 25 28  1  0
 26 25  2  0
M  END
$$$$
