RVE.pdb
     RDKit          3D

 28 27  0  0  1  0  0  0  0  0999 V2000
    8.5639  -12.7431   19.0805 N   0  0  0  0  0  0  0  0  0  0  0  0
    8.1299  -13.5051   17.9654 C   0  0  0  0  0  0  0  0  0  0  0  0
    7.6758  -12.8896   16.9263 N   0  0  0  0  0  0  0  0  0  0  0  0
    8.1964  -14.9422   17.9975 N   0  0  0  0  0  0  0  0  0  0  0  0
    7.4563  -15.6733   18.9955 C   0  0  0  0  0  0  0  0  0  0  0  0
    8.3129  -16.7099   19.6800 C   0  0  0  0  0  0  0  0  0  0  0  0
    9.0686  -16.1523   20.8604 C   0  0  0  0  0  0  0  0  0  0  0  0
    8.5144  -16.6737   22.1755 C   0  0  2  0  0  0  0  0  0  0  0  0
    7.0649  -16.6859   22.0035 N   0  0  0  0  0  0  0  0  0  0  0  0
    8.8157  -15.7484   23.2915 C   0  0  0  0  0  0  0  0  0  0  0  0
    9.9845  -15.3394   23.4709 O   0  0  0  0  0  0  0  0  0  0  0  0
    7.3934  -13.3559   16.0446 C   0  0  0  0  0  0  0  0  0  0  0  0
    6.6196  -12.6810   24.4830 C   0  0  1  0  0  0  0  0  0  0  0  0
    6.9745  -13.5519   25.6673 C   0  0  0  0  0  0  0  0  0  0  0  0
    7.1950  -12.6949   26.8813 C   0  0  2  0  0  0  0  0  0  0  0  0
    8.1170  -14.4732   25.3524 N   0  0  0  0  0  0  0  0  0  0  0  0
    7.7999  -15.2901   24.1975 C   0  0  0  0  0  0  0  0  0  0  0  0
    8.5782  -15.2749   26.5005 O   0  0  0  0  0  0  0  0  0  0  0  0
    7.8030  -16.1214   27.0128 N   0  0  0  0  0  0  0  0  0  0  0  0
    9.8563  -15.1689   27.0892 C   0  0  1  0  0  0  0  0  0  0  0  0
   10.3546  -16.1968   27.9881 C   0  0  0  0  0  0  0  0  0  0  0  0
   11.3920  -17.0506   27.4148 C   0  0  0  0  0  0  0  0  0  0  0  0
   11.8753  -18.1070   28.3572 C   0  0  0  0  0  0  0  0  0  0  0  0
   12.9239  -18.9884   27.8639 O   0  0  0  0  0  0  0  0  0  0  0  0
   13.9945  -19.1012   28.5063 C   0  0  0  0  0  0  0  0  0  0  0  0
   10.7495  -15.6029   29.2880 O   0  0  0  0  0  0  0  0  0  0  0  0
   11.1028  -16.3184   30.2452 O   0  0  0  0  0  0  0  0  0  0  0  0
   12.7655  -19.7021   26.7005 O   0  0  0  0  0  0  0  0  0  0  0  0
  2  1  1  0
  3  2  2  0
  4  2  1  0
  5  4  1  0
  6  7  1  0
  6  5  1  0
  7  8  1  0
  8 10  1  0
  8  9  1  6
 10 11  2  0
 13 14  1  6
 13 12  1  0
 15 13  1  0
 15 16  1  6
 16 10  1  0
 17 15  1  0
 18 17  2  0
 19 17  1  0
 20 19  1  0
 20 21  1  1
 21 22  1  0
 23 22  1  0
 23 27  1  0
 24 23  2  0
 25 20  1  0
 25 28  1  0
 26 25  2  0
M  END
$$$$
