RVE.pdb
     RDKit          3D

 28 27  0  0  1  0  0  0  0  0999 V2000
    7.3062  -16.2374   15.4652 N   0  0  0  0  0  0  0  0  0  0  0  0
    8.1918  -17.1065   16.1527 C   0  0  0  0  0  0  0  0  0  0  0  0
    9.1747  -17.6367   15.5063 N   0  0  0  0  0  0  0  0  0  0  0  0
    7.9927  -17.3903   17.5494 N   0  0  0  0  0  0  0  0  0  0  0  0
    7.0704  -16.5939   18.3197 C   0  0  0  0  0  0  0  0  0  0  0  0
    7.5823  -15.1901   18.5292 C   0  0  0  0  0  0  0  0  0  0  0  0
    8.1433  -14.9763   19.9131 C   0  0  0  0  0  0  0  0  0  0  0  0
    7.3920  -13.8861   20.6582 C   0  0  2  0  0  0  0  0  0  0  0  0
    7.6637  -12.6577   19.9179 N   0  0  0  0  0  0  0  0  0  0  0  0
    7.9278  -13.7013   22.0261 C   0  0  0  0  0  0  0  0  0  0  0  0
    9.0914  -13.2726   22.1929 O   0  0  0  0  0  0  0  0  0  0  0  0
    9.8495  -18.3103   15.9131 C   0  0  0  0  0  0  0  0  0  0  0  0
    5.9808  -12.0048   24.9021 C   0  0  1  0  0  0  0  0  0  0  0  0
    6.5938  -13.2785   25.4395 C   0  0  0  0  0  0  0  0  0  0  0  0
    7.0345  -13.0709   26.8607 C   0  0  2  0  0  0  0  0  0  0  0  0
    7.6724  -13.7972   24.5335 N   0  0  0  0  0  0  0  0  0  0  0  0
    7.1506  -14.0002   23.1964 C   0  0  0  0  0  0  0  0  0  0  0  0
    8.3740  -14.9859   25.0514 O   0  0  0  0  0  0  0  0  0  0  0  0
    7.7469  -16.0688   25.1712 N   0  0  0  0  0  0  0  0  0  0  0  0
    9.7319  -15.0106   25.4344 C   0  0  1  0  0  0  0  0  0  0  0  0
   10.4004  -16.2639   25.7435 C   0  0  0  0  0  0  0  0  0  0  0  0
   11.8061  -16.3128   25.3493 C   0  0  0  0  0  0  0  0  0  0  0  0
   12.4762  -17.6008   25.7094 C   0  0  0  0  0  0  0  0  0  0  0  0
   13.8952  -17.7044   25.4003 O   0  0  0  0  0  0  0  0  0  0  0  0
   14.6229  -16.6861   25.4714 C   0  0  0  0  0  0  0  0  0  0  0  0
   10.1867  -16.6297   27.1643 O   0  0  0  0  0  0  0  0  0  0  0  0
    9.9254  -15.7648   28.0226 O   0  0  0  0  0  0  0  0  0  0  0  0
   14.4572  -18.9014   25.0273 O   0  0  0  0  0  0  0  0  0  0  0  0
  2  1  1  0
  3  2  2  0
  4  2  1  0
  5  4  1  0
  6  7  1  0
  6  5  1  0
  7  8  1  0
  8 10  1  0
  8  9  1  6
 10 11  2  0
 13 14  1  6
 13 12  1  0
 15 13  1  0
 15 16  1  6
 16 10  1  0
 17 15  1  0
 18 17  2  0
 19 17  1  0
 20 19  1  0
 20 21  1  1
 21 22  1  0
 23 22  1  0
 23 27  1  0
 24 23  2  0
 25 20  1  0
 25 28  1  0
 26 25  2  0
M  END
$$$$
