RVE.pdb
     RDKit          3D

 28 27  0  0  1  0  0  0  0  0999 V2000
    6.9990  -19.9299   19.2866 N   0  0  0  0  0  0  0  0  0  0  0  0
    6.5413  -19.1823   18.1713 C   0  0  0  0  0  0  0  0  0  0  0  0
    5.6900  -19.7206   17.3647 N   0  0  0  0  0  0  0  0  0  0  0  0
    7.0222  -17.8448   17.9464 N   0  0  0  0  0  0  0  0  0  0  0  0
    7.8097  -17.1852   18.9579 C   0  0  0  0  0  0  0  0  0  0  0  0
    6.9820  -16.8295   20.1683 C   0  0  0  0  0  0  0  0  0  0  0  0
    7.8079  -16.2405   21.2847 C   0  0  0  0  0  0  0  0  0  0  0  0
    7.4235  -14.7970   21.5623 C   0  0  2  0  0  0  0  0  0  0  0  0
    7.9967  -14.0285   20.4616 N   0  0  0  0  0  0  0  0  0  0  0  0
    8.0466  -14.3046   22.8121 C   0  0  0  0  0  0  0  0  0  0  0  0
    9.2887  -14.1730   22.8858 O   0  0  0  0  0  0  0  0  0  0  0  0
    5.2930  -19.2502   16.5307 C   0  0  0  0  0  0  0  0  0  0  0  0
    6.7323  -11.6427   25.4808 C   0  0  1  0  0  0  0  0  0  0  0  0
    7.0325  -12.9599   26.1603 C   0  0  0  0  0  0  0  0  0  0  0  0
    7.6238  -12.7087   27.5184 C   0  0  2  0  0  0  0  0  0  0  0  0
    7.8627  -13.8551   25.2871 N   0  0  0  0  0  0  0  0  0  0  0  0
    7.2676  -13.9640   23.9697 C   0  0  0  0  0  0  0  0  0  0  0  0
    8.1591  -15.1709   25.8824 O   0  0  0  0  0  0  0  0  0  0  0  0
    7.6914  -16.2086   25.3490 N   0  0  0  0  0  0  0  0  0  0  0  0
    8.9487  -15.3686   27.0350 C   0  0  1  0  0  0  0  0  0  0  0  0
    9.9690  -16.4033   27.0757 C   0  0  0  0  0  0  0  0  0  0  0  0
   10.8358  -16.4443   25.9006 C   0  0  0  0  0  0  0  0  0  0  0  0
   11.3057  -17.8233   25.5610 C   0  0  0  0  0  0  0  0  0  0  0  0
   12.1897  -17.9444   24.4105 O   0  0  0  0  0  0  0  0  0  0  0  0
   11.7532  -18.4280   23.3394 C   0  0  0  0  0  0  0  0  0  0  0  0
   10.7259  -16.3364   28.3488 O   0  0  0  0  0  0  0  0  0  0  0  0
   11.0464  -15.2432   28.8540 O   0  0  0  0  0  0  0  0  0  0  0  0
   13.5013  -17.5399   24.4744 O   0  0  0  0  0  0  0  0  0  0  0  0
  2  1  1  0
  3  2  2  0
  4  2  1  0
  5  4  1  0
  6  7  1  0
  6  5  1  0
  7  8  1  0
  8 10  1  0
  8  9  1  6
 10 11  2  0
 13 14  1  6
 13 12  1  0
 15 13  1  0
 15 16  1  6
 16 10  1  0
 17 15  1  0
 18 17  2  0
 19 17  1  0
 20 19  1  0
 20 21  1  1
 21 22  1  0
 23 22  1  0
 23 27  1  0
 24 23  2  0
 25 20  1  0
 25 28  1  0
 26 25  2  0
M  END
$$$$
