RVE.pdb
     RDKit          3D

 28 27  0  0  1  0  0  0  0  0999 V2000
    6.5974  -14.4172   16.3299 N   0  0  0  0  0  0  0  0  0  0  0  0
    7.9910  -14.3637   16.0708 C   0  0  0  0  0  0  0  0  0  0  0  0
    8.4266  -13.5651   15.1556 N   0  0  0  0  0  0  0  0  0  0  0  0
    8.9013  -15.1896   16.8191 N   0  0  0  0  0  0  0  0  0  0  0  0
    9.3932  -14.7405   18.0977 C   0  0  0  0  0  0  0  0  0  0  0  0
    8.4612  -15.1217   19.2214 C   0  0  0  0  0  0  0  0  0  0  0  0
    8.9850  -14.7121   20.5754 C   0  0  0  0  0  0  0  0  0  0  0  0
    8.0188  -13.7830   21.2906 C   0  0  2  0  0  0  0  0  0  0  0  0
    8.0370  -12.5432   20.5204 N   0  0  0  0  0  0  0  0  0  0  0  0
    8.4938  -13.4587   22.6550 C   0  0  0  0  0  0  0  0  0  0  0  0
    8.9904  -12.3362   22.8975 O   0  0  0  0  0  0  0  0  0  0  0  0
    9.4269  -13.4369   14.9159 C   0  0  0  0  0  0  0  0  0  0  0  0
    7.5239  -11.7040   24.4086 C   0  0  2  0  0  0  0  0  0  0  0  0
    7.2090  -12.9273   25.2400 C   0  0  0  0  0  0  0  0  0  0  0  0
    6.9131  -12.5184   26.6551 C   0  0  2  0  0  0  0  0  0  0  0  0
    8.2811  -13.9705   25.1156 N   0  0  0  0  0  0  0  0  0  0  0  0
    8.4066  -14.3997   23.7366 C   0  0  0  0  0  0  0  0  0  0  0  0
    8.1304  -15.1031   26.0471 O   0  0  0  0  0  0  0  0  0  0  0  0
    8.0837  -14.8827   27.2838 N   0  0  0  0  0  0  0  0  0  0  0  0
    8.0299  -16.4548   25.6544 C   0  0  2  0  0  0  0  0  0  0  0  0
    9.1827  -17.3386   25.7095 C   0  0  0  0  0  0  0  0  0  0  0  0
   10.1705  -17.1105   24.6578 C   0  0  0  0  0  0  0  0  0  0  0  0
   11.3537  -18.0209   24.7510 C   0  0  0  0  0  0  0  0  0  0  0  0
   12.4086  -17.8195   23.7680 O   0  0  0  0  0  0  0  0  0  0  0  0
   13.4117  -17.1289   24.0654 C   0  0  0  0  0  0  0  0  0  0  0  0
    9.7756  -17.3346   27.0685 O   0  0  0  0  0  0  0  0  0  0  0  0
    9.8338  -18.3750   27.7518 O   0  0  0  0  0  0  0  0  0  0  0  0
   12.3267  -18.3711   22.5123 O   0  0  0  0  0  0  0  0  0  0  0  0
  2  1  1  0
  3  2  2  0
  4  2  1  0
  5  4  1  0
  6  7  1  0
  6  5  1  0
  7  8  1  0
  8 10  1  0
  8  9  1  6
 10 11  2  0
 13 14  1  1
 13 12  1  0
 15 13  1  0
 15 16  1  1
 16 10  1  0
 17 15  1  0
 18 17  2  0
 19 17  1  0
 20 19  1  0
 20 21  1  6
 21 22  1  0
 23 22  1  0
 23 27  1  0
 24 23  2  0
 25 20  1  0
 25 28  1  0
 26 25  2  0
M  END
$$$$
