RVE.pdb
     RDKit          3D

 28 27  0  0  1  0  0  0  0  0999 V2000
   11.8130  -19.2565   16.9619 N   0  0  0  0  0  0  0  0  0  0  0  0
   11.6566  -20.4504   17.7118 C   0  0  0  0  0  0  0  0  0  0  0  0
   12.5559  -21.3708   17.6165 N   0  0  0  0  0  0  0  0  0  0  0  0
   10.5106  -20.6284   18.5639 N   0  0  0  0  0  0  0  0  0  0  0  0
    9.5302  -19.5777   18.6776 C   0  0  0  0  0  0  0  0  0  0  0  0
    8.7495  -19.3997   17.3986 C   0  0  0  0  0  0  0  0  0  0  0  0
    7.6253  -18.4036   17.5376 C   0  0  0  0  0  0  0  0  0  0  0  0
    8.0878  -16.9914   17.2212 C   0  0  2  0  0  0  0  0  0  0  0  0
    9.1861  -17.1504   16.2730 N   0  0  0  0  0  0  0  0  0  0  0  0
    8.6388  -16.3234   18.4224 C   0  0  0  0  0  0  0  0  0  0  0  0
    9.8634  -16.3872   18.6711 O   0  0  0  0  0  0  0  0  0  0  0  0
   12.5049  -22.2926   18.0880 C   0  0  0  0  0  0  0  0  0  0  0  0
    7.3340  -12.7309   19.8173 C   0  0  1  0  0  0  0  0  0  0  0  0
    7.4550  -13.7773   20.9024 C   0  0  0  0  0  0  0  0  0  0  0  0
    7.8454  -13.1243   22.1978 C   0  0  2  0  0  0  0  0  0  0  0  0
    8.3583  -14.9019   20.4869 N   0  0  0  0  0  0  0  0  0  0  0  0
    7.8080  -15.5886   19.3349 C   0  0  0  0  0  0  0  0  0  0  0  0
    8.7103  -15.8268   21.5795 O   0  0  0  0  0  0  0  0  0  0  0  0
    7.8841  -16.7052   21.9343 N   0  0  0  0  0  0  0  0  0  0  0  0
    9.9347  -15.8086   22.2807 C   0  0  1  0  0  0  0  0  0  0  0  0
   10.2212  -16.7906   23.3135 C   0  0  0  0  0  0  0  0  0  0  0  0
   11.5027  -17.4746   23.1589 C   0  0  0  0  0  0  0  0  0  0  0  0
   12.6703  -16.5403   23.1214 C   0  0  0  0  0  0  0  0  0  0  0  0
   13.9752  -17.1392   22.8804 O   0  0  0  0  0  0  0  0  0  0  0  0
   14.2399  -18.2667   23.3604 C   0  0  0  0  0  0  0  0  0  0  0  0
   10.0439  -16.1951   24.6597 O   0  0  0  0  0  0  0  0  0  0  0  0
    9.8095  -14.9797   24.8035 O   0  0  0  0  0  0  0  0  0  0  0  0
   14.9302  -16.4902   22.1357 O   0  0  0  0  0  0  0  0  0  0  0  0
  2  1  1  0
  3  2  2  0
  4  2  1  0
  5  4  1  0
  6  7  1  0
  6  5  1  0
  7  8  1  0
  8 10  1  0
  8  9  1  6
 10 11  2  0
 13 14  1  6
 13 12  1  0
 15 13  1  0
 15 16  1  6
 16 10  1  0
 17 15  1  0
 18 17  2  0
 19 17  1  0
 20 19  1  0
 20 21  1  1
 21 22  1  0
 23 22  1  0
 23 27  1  0
 24 23  2  0
 25 20  1  0
 25 28  1  0
 26 25  2  0
M  END
$$$$
