RVE.pdb
     RDKit          3D

 28 27  0  0  1  0  0  0  0  0999 V2000
   11.6831  -22.2729   16.3128 N   0  0  0  0  0  0  0  0  0  0  0  0
   10.7137  -21.5302   15.5910 C   0  0  0  0  0  0  0  0  0  0  0  0
   11.0610  -20.9518   14.4911 N   0  0  0  0  0  0  0  0  0  0  0  0
    9.3651  -21.4256   16.0820 N   0  0  0  0  0  0  0  0  0  0  0  0
    9.0772  -20.5843   17.2168 C   0  0  0  0  0  0  0  0  0  0  0  0
    8.3747  -19.3131   16.8074 C   0  0  0  0  0  0  0  0  0  0  0  0
    7.9508  -18.4768   17.9890 C   0  0  0  0  0  0  0  0  0  0  0  0
    8.0950  -16.9917   17.7028 C   0  0  2  0  0  0  0  0  0  0  0  0
    8.9561  -16.9090   16.5270 N   0  0  0  0  0  0  0  0  0  0  0  0
    8.7933  -16.2956   18.8075 C   0  0  0  0  0  0  0  0  0  0  0  0
   10.0395  -16.3569   18.9010 O   0  0  0  0  0  0  0  0  0  0  0  0
   11.9446  -21.1397   13.9826 C   0  0  0  0  0  0  0  0  0  0  0  0
    6.7227  -14.1715   22.1080 C   0  0  1  0  0  0  0  0  0  0  0  0
    7.9347  -13.6811   21.3482 C   0  0  0  0  0  0  0  0  0  0  0  0
    7.5076  -12.7240   20.2718 C   0  0  1  0  0  0  0  0  0  0  0  0
    8.7759  -14.8222   20.8545 N   0  0  0  0  0  0  0  0  0  0  0  0
    8.0844  -15.5359   19.7990 C   0  0  0  0  0  0  0  0  0  0  0  0
    9.2582  -15.7198   21.9198 O   0  0  0  0  0  0  0  0  0  0  0  0
    8.5561  -16.7049   22.2613 N   0  0  0  0  0  0  0  0  0  0  0  0
   10.4799  -15.5614   22.6082 C   0  0  1  0  0  0  0  0  0  0  0  0
   10.9467  -16.5681   23.5471 C   0  0  0  0  0  0  0  0  0  0  0  0
   12.3697  -16.8808   23.4406 C   0  0  0  0  0  0  0  0  0  0  0  0
   13.2534  -15.6940   23.6602 C   0  0  0  0  0  0  0  0  0  0  0  0
   14.6515  -15.8454   23.2834 O   0  0  0  0  0  0  0  0  0  0  0  0
   15.0790  -15.2895   22.2442 C   0  0  0  0  0  0  0  0  0  0  0  0
   10.5342  -16.2211   24.9283 O   0  0  0  0  0  0  0  0  0  0  0  0
   10.0064  -15.1227   25.1889 O   0  0  0  0  0  0  0  0  0  0  0  0
   15.5178  -16.5914   24.0456 O   0  0  0  0  0  0  0  0  0  0  0  0
  2  1  1  0
  3  2  2  0
  4  2  1  0
  5  4  1  0
  6  7  1  0
  6  5  1  0
  7  8  1  0
  8 10  1  0
  8  9  1  6
 10 11  2  0
 13 14  1  6
 13 12  1  0
 15 13  1  0
 15 16  1  6
 16 10  1  0
 17 15  1  0
 18 17  2  0
 19 17  1  0
 20 19  1  0
 20 21  1  1
 21 22  1  0
 23 22  1  0
 23 27  1  0
 24 23  2  0
 25 20  1  0
 25 28  1  0
 26 25  2  0
M  END
$$$$
