PPS.pdb
     RDKit          3D

 21 22  0  0  1  0  0  0  0  0999 V2000
   21.5125  -13.1225  -18.2387 N   0  0  0  0  0  0  0  0  0  0  0  0
   20.9000  -12.8141  -19.5046 C   0  0  0  0  0  0  0  0  0  0  0  0
   22.0564  -12.5304  -20.4047 C   0  0  0  0  0  0  0  0  0  0  0  0
   22.9816  -11.7570  -19.4607 C   0  0  0  0  0  0  0  0  0  0  0  0
   22.7488  -12.4245  -18.1187 C   0  0  1  0  0  0  0  0  0  0  0  0
   22.8163  -11.4313  -17.0401 C   0  0  0  0  0  0  0  0  0  0  0  0
   21.7240  -10.9578  -16.5698 O   0  0  0  0  0  0  0  0  0  0  0  0
   24.0152  -10.9391  -16.4606 N   0  0  0  0  0  0  0  0  0  0  0  0
   25.3270  -11.3974  -16.8521 C   0  0  0  0  0  0  0  0  0  0  0  0
   26.3460  -10.5953  -16.0746 C   0  0  0  0  0  0  0  0  0  0  0  0
   25.5298   -9.9722  -14.9350 C   0  0  0  0  0  0  0  0  0  0  0  0
   24.1244   -9.9290  -15.4196 C   0  0  1  0  0  0  0  0  0  0  0  0
   23.6753   -8.6055  -15.8901 C   0  0  0  0  0  0  0  0  0  0  0  0
   23.6535   -8.4042  -17.1316 O   0  0  0  0  0  0  0  0  0  0  0  0
   20.6788   -5.3289  -16.2469 O   0  0  0  0  0  0  0  0  0  0  0  0
   21.1697   -6.5546  -15.8119 C   0  0  0  0  0  0  0  0  0  0  0  0
   22.6403   -6.3502  -15.4748 C   0  0  2  0  0  0  0  0  0  0  0  0
   23.2710   -7.5568  -15.0426 N   0  0  0  0  0  0  0  0  0  0  0  0
   22.7004   -5.3587  -14.3756 C   0  0  0  0  0  0  0  0  0  0  0  0
   22.7604   -5.7866  -13.1958 O   0  0  0  0  0  0  0  0  0  0  0  0
   22.6922   -3.9842  -14.6188 O   0  0  0  0  0  0  0  0  0  0  0  0
  1  2  1  0
  3  2  1  0
  4  5  1  0
  4  3  1  0
  5  1  1  0
  6  8  1  0
  5  6  1  1
  7  6  2  0
  8 12  1  0
  9 10  1  0
  9  8  1  0
 10 11  1  0
 11 12  1  0
 12 13  1  6
 13 14  2  0
 13 18  1  0
 15 16  1  0
 17 19  1  0
 17 16  1  1
 18 17  1  0
 19 21  1  0
 20 19  2  0
M  END
$$$$
