PPS.pdb
     RDKit          3D

 21 22  0  0  1  0  0  0  0  0999 V2000
   19.1072  -12.7280  -15.8251 N   0  0  0  0  0  0  0  0  0  0  0  0
   18.0396  -12.9845  -14.8940 C   0  0  0  0  0  0  0  0  0  0  0  0
   16.8430  -12.3684  -15.5392 C   0  0  0  0  0  0  0  0  0  0  0  0
   17.4502  -11.0912  -16.1270 C   0  0  0  0  0  0  0  0  0  0  0  0
   18.8432  -11.5253  -16.5419 C   0  0  1  0  0  0  0  0  0  0  0  0
   19.7997  -10.4332  -16.3260 C   0  0  0  0  0  0  0  0  0  0  0  0
   20.4313  -10.3786  -15.2140 O   0  0  0  0  0  0  0  0  0  0  0  0
   20.0914   -9.4090  -17.2650 N   0  0  0  0  0  0  0  0  0  0  0  0
   19.5354   -9.3779  -18.5969 C   0  0  0  0  0  0  0  0  0  0  0  0
   20.0129   -8.1086  -19.2656 C   0  0  0  0  0  0  0  0  0  0  0  0
   21.1907   -7.6557  -18.3934 C   0  0  0  0  0  0  0  0  0  0  0  0
   20.9605   -8.2617  -17.0549 C   0  0  1  0  0  0  0  0  0  0  0  0
   20.4132   -7.3363  -16.0455 C   0  0  0  0  0  0  0  0  0  0  0  0
   19.1622   -7.2694  -15.9328 O   0  0  0  0  0  0  0  0  0  0  0  0
   22.8667   -5.2631  -13.4236 O   0  0  0  0  0  0  0  0  0  0  0  0
   21.6052   -5.6199  -12.9614 C   0  0  0  0  0  0  0  0  0  0  0  0
   20.6869   -5.6765  -14.1745 C   0  0  2  0  0  0  0  0  0  0  0  0
   21.1977   -6.5261  -15.2030 N   0  0  0  0  0  0  0  0  0  0  0  0
   20.5797   -4.2967  -14.7032 C   0  0  0  0  0  0  0  0  0  0  0  0
   20.0586   -3.4206  -13.9684 O   0  0  0  0  0  0  0  0  0  0  0  0
   21.0372   -3.9556  -15.9771 O   0  0  0  0  0  0  0  0  0  0  0  0
  1  2  1  0
  3  2  1  0
  4  5  1  0
  4  3  1  0
  5  1  1  0
  6  8  1  0
  5  6  1  1
  7  6  2  0
  8 12  1  0
  9 10  1  0
  9  8  1  0
 10 11  1  0
 11 12  1  0
 12 13  1  1
 13 14  2  0
 13 18  1  0
 15 16  1  0
 17 19  1  0
 17 16  1  1
 18 17  1  0
 19 21  1  0
 20 19  2  0
M  END
$$$$
