PPS.pdb
     RDKit          3D

 21 22  0  0  1  0  0  0  0  0999 V2000
   18.5929  -12.8451  -16.5563 N   0  0  0  0  0  0  0  0  0  0  0  0
   17.6086  -12.5152  -17.5538 C   0  0  0  0  0  0  0  0  0  0  0  0
   18.4114  -12.2927  -18.7922 C   0  0  0  0  0  0  0  0  0  0  0  0
   19.6302  -11.5590  -18.2254 C   0  0  0  0  0  0  0  0  0  0  0  0
   19.8279  -12.2066  -16.8680 C   0  0  1  0  0  0  0  0  0  0  0  0
   20.2928  -11.2114  -15.8945 C   0  0  0  0  0  0  0  0  0  0  0  0
   19.4239  -10.5633  -15.2137 O   0  0  0  0  0  0  0  0  0  0  0  0
   21.6534  -10.8982  -15.6371 N   0  0  0  0  0  0  0  0  0  0  0  0
   22.7536  -11.5507  -16.3064 C   0  0  0  0  0  0  0  0  0  0  0  0
   24.0332  -10.9025  -15.8283 C   0  0  0  0  0  0  0  0  0  0  0  0
   23.6120  -10.1540  -14.5572 C   0  0  0  0  0  0  0  0  0  0  0  0
   22.1523   -9.9061  -14.6976 C   0  0  1  0  0  0  0  0  0  0  0  0
   21.7969   -8.5349  -15.1075 C   0  0  0  0  0  0  0  0  0  0  0  0
   21.6115   -8.3219  -16.3334 O   0  0  0  0  0  0  0  0  0  0  0  0
   19.5191   -4.5603  -14.6722 O   0  0  0  0  0  0  0  0  0  0  0  0
   19.8255   -5.8183  -14.1664 C   0  0  0  0  0  0  0  0  0  0  0  0
   21.2530   -6.1330  -14.5919 C   0  0  2  0  0  0  0  0  0  0  0  0
   21.6524   -7.4528  -14.2187 N   0  0  0  0  0  0  0  0  0  0  0  0
   22.1347   -5.1561  -13.9115 C   0  0  0  0  0  0  0  0  0  0  0  0
   22.6847   -5.5042  -12.8367 O   0  0  0  0  0  0  0  0  0  0  0  0
   22.3632   -3.8803  -14.4299 O   0  0  0  0  0  0  0  0  0  0  0  0
  1  2  1  0
  3  2  1  0
  4  5  1  0
  4  3  1  0
  5  1  1  0
  6  8  1  0
  5  6  1  1
  7  6  2  0
  8 12  1  0
  9 10  1  0
  9  8  1  0
 10 11  1  0
 11 12  1  0
 12 13  1  6
 13 14  2  0
 13 18  1  0
 15 16  1  0
 17 19  1  0
 17 16  1  1
 18 17  1  0
 19 21  1  0
 20 19  2  0
M  END
$$$$
