PPS.pdb
     RDKit          3D

 21 22  0  0  1  0  0  0  0  0999 V2000
   26.7601  -21.2628   -9.6820 N   0  0  0  0  0  0  0  0  0  0  0  0
   25.3818  -21.4104  -10.0707 C   0  0  0  0  0  0  0  0  0  0  0  0
   24.7747  -20.0836   -9.7563 C   0  0  0  0  0  0  0  0  0  0  0  0
   25.4709  -19.7470   -8.4345 C   0  0  0  0  0  0  0  0  0  0  0  0
   26.8622  -20.3235   -8.6155 C   0  0  1  0  0  0  0  0  0  0  0  0
   27.3588  -20.8587   -7.3421 C   0  0  0  0  0  0  0  0  0  0  0  0
   27.2043  -22.1053   -7.0961 O   0  0  0  0  0  0  0  0  0  0  0  0
   28.0099  -20.0960   -6.3372 N   0  0  0  0  0  0  0  0  0  0  0  0
   28.2509  -18.6775   -6.4551 C   0  0  0  0  0  0  0  0  0  0  0  0
   28.8911  -18.2106   -5.1674 C   0  0  0  0  0  0  0  0  0  0  0  0
   29.3731  -19.5082   -4.5063 C   0  0  0  0  0  0  0  0  0  0  0  0
   28.5214  -20.5901   -5.0683 C   0  0  1  0  0  0  0  0  0  0  0  0
   27.4364  -21.0448   -4.1791 C   0  0  0  0  0  0  0  0  0  0  0  0
   26.2860  -20.5751   -4.3750 O   0  0  0  0  0  0  0  0  0  0  0  0
   27.5519  -24.4471   -2.1360 O   0  0  0  0  0  0  0  0  0  0  0  0
   26.3212  -23.8008   -2.1274 C   0  0  0  0  0  0  0  0  0  0  0  0
   26.6042  -22.3053   -2.1669 C   0  0  2  0  0  0  0  0  0  0  0  0
   27.6044  -21.9672   -3.1290 N   0  0  0  0  0  0  0  0  0  0  0  0
   27.0857  -21.9185   -0.8202 C   0  0  0  0  0  0  0  0  0  0  0  0
   26.2991  -22.0532    0.1503 O   0  0  0  0  0  0  0  0  0  0  0  0
   28.3713  -21.4168   -0.6108 O   0  0  0  0  0  0  0  0  0  0  0  0
  1  2  1  0
  3  2  1  0
  4  5  1  0
  4  3  1  0
  5  1  1  0
  6  8  1  0
  5  6  1  1
  7  6  2  0
  8 12  1  0
  9 10  1  0
  9  8  1  0
 10 11  1  0
 11 12  1  0
 12 13  1  1
 13 14  2  0
 13 18  1  0
 15 16  1  0
 17 19  1  0
 17 16  1  1
 18 17  1  0
 19 21  1  0
 20 19  2  0
M  END
$$$$
