PPS.pdb
     RDKit          3D

 21 22  0  0  1  0  0  0  0  0999 V2000
   38.3320  -10.2233   -6.5735 N   0  0  0  0  0  0  0  0  0  0  0  0
   37.6374   -8.9815   -6.7925 C   0  0  0  0  0  0  0  0  0  0  0  0
   38.1090   -8.5373   -8.1372 C   0  0  0  0  0  0  0  0  0  0  0  0
   39.5892   -8.9244   -8.0729 C   0  0  0  0  0  0  0  0  0  0  0  0
   39.5806  -10.2048   -7.2596 C   0  0  1  0  0  0  0  0  0  0  0  0
   40.7748  -10.2729   -6.4089 C   0  0  0  0  0  0  0  0  0  0  0  0
   40.6745   -9.9341   -5.1785 O   0  0  0  0  0  0  0  0  0  0  0  0
   42.0604  -10.6911   -6.8424 N   0  0  0  0  0  0  0  0  0  0  0  0
   42.3570  -11.0382   -8.2119 C   0  0  0  0  0  0  0  0  0  0  0  0
   43.8327  -11.3564   -8.2970 C   0  0  0  0  0  0  0  0  0  0  0  0
   44.2451  -11.5760   -6.8359 C   0  0  0  0  0  0  0  0  0  0  0  0
   43.2502  -10.8324   -6.0178 C   0  0  1  0  0  0  0  0  0  0  0  0
   43.7215   -9.5318   -5.5070 C   0  0  0  0  0  0  0  0  0  0  0  0
   43.5165   -8.5160   -6.2201 O   0  0  0  0  0  0  0  0  0  0  0  0
   43.9580   -8.6947   -1.6131 O   0  0  0  0  0  0  0  0  0  0  0  0
   45.0873   -8.1830   -2.2416 C   0  0  0  0  0  0  0  0  0  0  0  0
   44.7669   -8.0930   -3.7273 C   0  0  2  0  0  0  0  0  0  0  0  0
   44.3835   -9.3543   -4.2774 N   0  0  0  0  0  0  0  0  0  0  0  0
   45.9968   -7.6276   -4.4097 C   0  0  0  0  0  0  0  0  0  0  0  0
   46.7143   -8.4840   -4.9847 O   0  0  0  0  0  0  0  0  0  0  0  0
   46.3684   -6.2822   -4.4271 O   0  0  0  0  0  0  0  0  0  0  0  0
  1  2  1  0
  3  2  1  0
  4  5  1  0
  4  3  1  0
  5  1  1  0
  6  8  1  0
  5  6  1  1
  7  6  2  0
  8 12  1  0
  9 10  1  0
  9  8  1  0
 10 11  1  0
 11 12  1  0
 12 13  1  6
 13 14  2  0
 13 18  1  0
 15 16  1  0
 17 19  1  0
 17 16  1  1
 18 17  1  0
 19 21  1  0
 20 19  2  0
M  END
$$$$
