PPS.pdb
     RDKit          3D

 21 22  0  0  1  0  0  0  0  0999 V2000
   27.9593  -19.4757  -15.6690 N   0  0  0  0  0  0  0  0  0  0  0  0
   27.7261  -18.2655  -16.4130 C   0  0  0  0  0  0  0  0  0  0  0  0
   27.7940  -17.1894  -15.3809 C   0  0  0  0  0  0  0  0  0  0  0  0
   27.0796  -17.8630  -14.2057 C   0  0  0  0  0  0  0  0  0  0  0  0
   27.4937  -19.3168  -14.3318 C   0  0  1  0  0  0  0  0  0  0  0  0
   26.3869  -20.1953  -13.9351 C   0  0  0  0  0  0  0  0  0  0  0  0
   25.7569  -20.8406  -14.8435 O   0  0  0  0  0  0  0  0  0  0  0  0
   25.9444  -20.3955  -12.6010 N   0  0  0  0  0  0  0  0  0  0  0  0
   26.5898  -19.7959  -11.4573 C   0  0  0  0  0  0  0  0  0  0  0  0
   25.7949  -20.1758  -10.2284 C   0  0  0  0  0  0  0  0  0  0  0  0
   24.9310  -21.3523  -10.7001 C   0  0  0  0  0  0  0  0  0  0  0  0
   24.8112  -21.2016  -12.1748 C   0  0  1  0  0  0  0  0  0  0  0  0
   23.5302  -20.6335  -12.6340 C   0  0  0  0  0  0  0  0  0  0  0  0
   23.4334  -19.3805  -12.6876 O   0  0  0  0  0  0  0  0  0  0  0  0
   19.6546  -20.9893  -15.3295 O   0  0  0  0  0  0  0  0  0  0  0  0
   20.8084  -21.6046  -14.8579 C   0  0  0  0  0  0  0  0  0  0  0  0
   21.2132  -20.8741  -13.5849 C   0  0  2  0  0  0  0  0  0  0  0  0
   22.4127  -21.4002  -13.0149 N   0  0  0  0  0  0  0  0  0  0  0  0
   20.1069  -21.0463  -12.6145 C   0  0  0  0  0  0  0  0  0  0  0  0
   20.2265  -21.9334  -11.7327 O   0  0  0  0  0  0  0  0  0  0  0  0
   18.9557  -20.2582  -12.6585 O   0  0  0  0  0  0  0  0  0  0  0  0
  1  2  1  0
  3  2  1  0
  4  5  1  0
  4  3  1  0
  5  1  1  0
  6  8  1  0
  5  6  1  6
  7  6  2  0
  8 12  1  0
  9 10  1  0
  9  8  1  0
 10 11  1  0
 11 12  1  0
 12 13  1  1
 13 14  2  0
 13 18  1  0
 15 16  1  0
 17 19  1  0
 17 16  1  6
 18 17  1  0
 19 21  1  0
 20 19  2  0
M  END
$$$$
