PPS.pdb
     RDKit          3D

 21 22  0  0  1  0  0  0  0  0999 V2000
   12.9187  -22.9557   -0.4469 N   0  0  0  0  0  0  0  0  0  0  0  0
   13.0958  -22.4864   -1.7964 C   0  0  0  0  0  0  0  0  0  0  0  0
   14.5551  -22.6677   -2.0522 C   0  0  0  0  0  0  0  0  0  0  0  0
   15.1448  -22.2518   -0.7015 C   0  0  0  0  0  0  0  0  0  0  0  0
   14.1161  -22.7481    0.2967 C   0  0  1  0  0  0  0  0  0  0  0  0
   14.0111  -21.8133    1.4235 C   0  0  0  0  0  0  0  0  0  0  0  0
   13.0464  -20.9720    1.4376 O   0  0  0  0  0  0  0  0  0  0  0  0
   14.9071  -21.7602    2.5234 N   0  0  0  0  0  0  0  0  0  0  0  0
   16.0887  -22.5840    2.6191 C   0  0  0  0  0  0  0  0  0  0  0  0
   16.8217  -22.1927    3.8823 C   0  0  0  0  0  0  0  0  0  0  0  0
   15.7737  -21.4144    4.6880 C   0  0  0  0  0  0  0  0  0  0  0  0
   14.7959  -20.9010    3.6918 C   0  0  1  0  0  0  0  0  0  0  0  0
   14.9607  -19.4775    3.3438 C   0  0  0  0  0  0  0  0  0  0  0  0
   15.8729  -19.1774    2.5312 O   0  0  0  0  0  0  0  0  0  0  0  0
   12.1940  -16.6557    4.4941 O   0  0  0  0  0  0  0  0  0  0  0  0
   12.9023  -16.4050    3.3246 C   0  0  0  0  0  0  0  0  0  0  0  0
   14.2663  -17.0631    3.4812 C   0  0  2  0  0  0  0  0  0  0  0  0
   14.1661  -18.4367    3.8604 N   0  0  0  0  0  0  0  0  0  0  0  0
   14.9857  -16.3245    4.5450 C   0  0  0  0  0  0  0  0  0  0  0  0
   15.1559  -15.0886    4.3954 O   0  0  0  0  0  0  0  0  0  0  0  0
   15.4693  -16.9611    5.6893 O   0  0  0  0  0  0  0  0  0  0  0  0
  1  2  1  0
  3  2  1  0
  4  5  1  0
  4  3  1  0
  5  1  1  0
  6  8  1  0
  5  6  1  1
  7  6  2  0
  8 12  1  0
  9 10  1  0
  9  8  1  0
 10 11  1  0
 11 12  1  0
 12 13  1  6
 13 14  2  0
 13 18  1  0
 15 16  1  0
 17 19  1  0
 17 16  1  1
 18 17  1  0
 19 21  1  0
 20 19  2  0
M  END
$$$$
