PPS.pdb
     RDKit          3D

 21 22  0  0  1  0  0  0  0  0999 V2000
   22.7023  -12.8673  -19.0811 N   0  0  0  0  0  0  0  0  0  0  0  0
   22.1281  -12.5393  -20.3599 C   0  0  0  0  0  0  0  0  0  0  0  0
   23.2634  -11.9400  -21.1215 C   0  0  0  0  0  0  0  0  0  0  0  0
   23.9499  -11.1170  -20.0277 C   0  0  0  0  0  0  0  0  0  0  0  0
   23.7640  -11.9649  -18.7837 C   0  0  1  0  0  0  0  0  0  0  0  0
   23.5592  -11.1062  -17.6110 C   0  0  0  0  0  0  0  0  0  0  0  0
   22.3625  -10.8668  -17.2247 O   0  0  0  0  0  0  0  0  0  0  0  0
   24.5967  -10.5046  -16.8514 N   0  0  0  0  0  0  0  0  0  0  0  0
   25.9972  -10.6629  -17.1641 C   0  0  0  0  0  0  0  0  0  0  0  0
   26.7853   -9.8207  -16.1864 C   0  0  0  0  0  0  0  0  0  0  0  0
   25.7821   -9.5275  -15.0636 C   0  0  0  0  0  0  0  0  0  0  0  0
   24.4347   -9.6583  -15.6795 C   0  0  1  0  0  0  0  0  0  0  0  0
   23.7828   -8.3783  -16.0129 C   0  0  0  0  0  0  0  0  0  0  0  0
   23.9732   -7.9092  -17.1645 O   0  0  0  0  0  0  0  0  0  0  0  0
   20.2616   -5.2396  -15.2673 O   0  0  0  0  0  0  0  0  0  0  0  0
   20.8518   -6.4330  -14.8677 C   0  0  0  0  0  0  0  0  0  0  0  0
   22.2523   -6.4581  -15.4645 C   0  0  2  0  0  0  0  0  0  0  0  0
   22.9642   -7.6502  -15.1289 N   0  0  0  0  0  0  0  0  0  0  0  0
   22.9816   -5.2935  -14.9106 C   0  0  0  0  0  0  0  0  0  0  0  0
   23.8111   -5.4987  -13.9895 O   0  0  0  0  0  0  0  0  0  0  0  0
   22.7705   -3.9968  -15.3822 O   0  0  0  0  0  0  0  0  0  0  0  0
  1  2  1  0
  3  2  1  0
  4  5  1  0
  4  3  1  0
  5  1  1  0
  6  8  1  0
  5  6  1  1
  7  6  2  0
  8 12  1  0
  9 10  1  0
  9  8  1  0
 10 11  1  0
 11 12  1  0
 12 13  1  6
 13 14  2  0
 13 18  1  0
 15 16  1  0
 17 19  1  0
 17 16  1  1
 18 17  1  0
 19 21  1  0
 20 19  2  0
M  END
$$$$
