PPS.pdb
     RDKit          3D

 21 22  0  0  1  0  0  0  0  0999 V2000
   24.0190  -21.1519  -15.3632 N   0  0  0  0  0  0  0  0  0  0  0  0
   22.9339  -20.2192  -15.5228 C   0  0  0  0  0  0  0  0  0  0  0  0
   23.6143  -18.9148  -15.7747 C   0  0  0  0  0  0  0  0  0  0  0  0
   24.7961  -19.0070  -14.8052 C   0  0  0  0  0  0  0  0  0  0  0  0
   25.1588  -20.4795  -14.8353 C   0  0  1  0  0  0  0  0  0  0  0  0
   25.5983  -20.9205  -13.5061 C   0  0  0  0  0  0  0  0  0  0  0  0
   24.7388  -21.4457  -12.7162 O   0  0  0  0  0  0  0  0  0  0  0  0
   26.9240  -20.8122  -13.0095 N   0  0  0  0  0  0  0  0  0  0  0  0
   28.0125  -20.2593  -13.7799 C   0  0  0  0  0  0  0  0  0  0  0  0
   29.2395  -20.2419  -12.8966 C   0  0  0  0  0  0  0  0  0  0  0  0
   28.8794  -21.1955  -11.7503 C   0  0  0  0  0  0  0  0  0  0  0  0
   27.3934  -21.2189  -11.6942 C   0  0  1  0  0  0  0  0  0  0  0  0
   26.8042  -20.3950  -10.6225 C   0  0  0  0  0  0  0  0  0  0  0  0
   26.5065  -19.2044  -10.8986 O   0  0  0  0  0  0  0  0  0  0  0  0
   25.1412  -21.9278   -7.2023 O   0  0  0  0  0  0  0  0  0  0  0  0
   24.8232  -20.6322   -7.5929 C   0  0  0  0  0  0  0  0  0  0  0  0
   26.0691  -20.0450   -8.2418 C   0  0  2  0  0  0  0  0  0  0  0  0
   26.5545  -20.8532   -9.3150 N   0  0  0  0  0  0  0  0  0  0  0  0
   27.1111  -19.9685   -7.1915 C   0  0  0  0  0  0  0  0  0  0  0  0
   28.1393  -20.6781   -7.3257 O   0  0  0  0  0  0  0  0  0  0  0  0
   26.9771  -19.1396   -6.0764 O   0  0  0  0  0  0  0  0  0  0  0  0
  1  2  1  0
  3  2  1  0
  4  5  1  0
  4  3  1  0
  5  1  1  0
  6  8  1  0
  5  6  1  1
  7  6  2  0
  8 12  1  0
  9 10  1  0
  9  8  1  0
 10 11  1  0
 11 12  1  0
 12 13  1  1
 13 14  2  0
 13 18  1  0
 15 16  1  0
 17 19  1  0
 17 16  1  1
 18 17  1  0
 19 21  1  0
 20 19  2  0
M  END
$$$$
