PPS.pdb
     RDKit          3D

 21 22  0  0  1  0  0  0  0  0999 V2000
   28.8895  -20.5627   -6.0073 N   0  0  0  0  0  0  0  0  0  0  0  0
   29.5352  -19.5698   -5.1890 C   0  0  0  0  0  0  0  0  0  0  0  0
   28.4185  -18.9722   -4.3992 C   0  0  0  0  0  0  0  0  0  0  0  0
   27.3093  -18.9158   -5.4535 C   0  0  0  0  0  0  0  0  0  0  0  0
   27.5487  -20.1652   -6.2798 C   0  0  1  0  0  0  0  0  0  0  0  0
   27.2360  -19.9074   -7.6905 C   0  0  0  0  0  0  0  0  0  0  0  0
   26.3117  -19.0681   -7.9729 O   0  0  0  0  0  0  0  0  0  0  0  0
   27.8844  -20.5225   -8.7936 N   0  0  0  0  0  0  0  0  0  0  0  0
   29.0271  -21.3932   -8.6520 C   0  0  0  0  0  0  0  0  0  0  0  0
   29.3862  -21.9091  -10.0271 C   0  0  0  0  0  0  0  0  0  0  0  0
   28.6540  -20.9548  -10.9792 C   0  0  0  0  0  0  0  0  0  0  0  0
   27.5226  -20.3902  -10.1962 C   0  0  1  0  0  0  0  0  0  0  0  0
   26.2102  -20.9980  -10.4841 C   0  0  0  0  0  0  0  0  0  0  0  0
   25.8219  -21.9302   -9.7340 O   0  0  0  0  0  0  0  0  0  0  0  0
   21.7807  -20.5291  -11.0264 O   0  0  0  0  0  0  0  0  0  0  0  0
   23.0763  -20.0530  -10.8615 C   0  0  0  0  0  0  0  0  0  0  0  0
   23.9908  -20.9640  -11.6688 C   0  0  2  0  0  0  0  0  0  0  0  0
   25.3671  -20.6037  -11.5402 N   0  0  0  0  0  0  0  0  0  0  0  0
   23.5923  -20.8313  -13.0895 C   0  0  0  0  0  0  0  0  0  0  0  0
   24.3319  -20.1589  -13.8509 O   0  0  0  0  0  0  0  0  0  0  0  0
   22.4338  -21.4270  -13.5910 O   0  0  0  0  0  0  0  0  0  0  0  0
  1  2  1  0
  3  2  1  0
  4  5  1  0
  4  3  1  0
  5  1  1  0
  6  8  1  0
  5  6  1  6
  7  6  2  0
  8 12  1  0
  9 10  1  0
  9  8  1  0
 10 11  1  0
 11 12  1  0
 12 13  1  1
 13 14  2  0
 13 18  1  0
 15 16  1  0
 17 19  1  0
 17 16  1  1
 18 17  1  0
 19 21  1  0
 20 19  2  0
M  END
$$$$
