PPS.pdb
     RDKit          3D

 21 22  0  0  1  0  0  0  0  0999 V2000
   22.9832  -12.1676  -17.6282 N   0  0  0  0  0  0  0  0  0  0  0  0
   24.1983  -12.0527  -18.3917 C   0  0  0  0  0  0  0  0  0  0  0  0
   25.2771  -12.0998  -17.3612 C   0  0  0  0  0  0  0  0  0  0  0  0
   24.6496  -11.2669  -16.2397 C   0  0  0  0  0  0  0  0  0  0  0  0
   23.1756  -11.6136  -16.3297 C   0  0  1  0  0  0  0  0  0  0  0  0
   22.3578  -10.4366  -16.0128 C   0  0  0  0  0  0  0  0  0  0  0  0
   21.8593   -9.7560  -16.9755 O   0  0  0  0  0  0  0  0  0  0  0  0
   22.0657   -9.9774  -14.7016 N   0  0  0  0  0  0  0  0  0  0  0  0
   22.4675  -10.6858  -13.5096 C   0  0  0  0  0  0  0  0  0  0  0  0
   22.0468   -9.8565  -12.3173 C   0  0  0  0  0  0  0  0  0  0  0  0
   21.0267   -8.8695  -12.8990 C   0  0  0  0  0  0  0  0  0  0  0  0
   21.3453   -8.7643  -14.3479 C   0  0  1  0  0  0  0  0  0  0  0  0
   22.0933   -7.5515  -14.7277 C   0  0  0  0  0  0  0  0  0  0  0  0
   23.3459   -7.5793  -14.6153 O   0  0  0  0  0  0  0  0  0  0  0  0
   22.4845   -3.7612  -17.5200 O   0  0  0  0  0  0  0  0  0  0  0  0
   21.6612   -4.7886  -17.0740 C   0  0  0  0  0  0  0  0  0  0  0  0
   22.2101   -5.2465  -15.7297 C   0  0  2  0  0  0  0  0  0  0  0  0
   21.4982   -6.3689  -15.2063 N   0  0  0  0  0  0  0  0  0  0  0  0
   22.0664   -4.1090  -14.7914 C   0  0  0  0  0  0  0  0  0  0  0  0
   20.9680   -3.9669  -14.1980 O   0  0  0  0  0  0  0  0  0  0  0  0
   23.1068   -3.2083  -14.5569 O   0  0  0  0  0  0  0  0  0  0  0  0
  1  2  1  0
  3  2  1  0
  4  5  1  0
  4  3  1  0
  5  1  1  0
  6  8  1  0
  5  6  1  6
  7  6  2  0
  8 12  1  0
  9 10  1  0
  9  8  1  0
 10 11  1  0
 11 12  1  0
 12 13  1  1
 13 14  2  0
 13 18  1  0
 15 16  1  0
 17 19  1  0
 17 16  1  6
 18 17  1  0
 19 21  1  0
 20 19  2  0
M  END
$$$$
