PPS.pdb
     RDKit          3D

 21 22  0  0  1  0  0  0  0  0999 V2000
   27.8619  -19.7412  -15.3422 N   0  0  0  0  0  0  0  0  0  0  0  0
   27.6634  -18.5856  -16.1775 C   0  0  0  0  0  0  0  0  0  0  0  0
   27.6758  -17.4417  -15.2187 C   0  0  0  0  0  0  0  0  0  0  0  0
   26.9046  -18.0386  -14.0380 C   0  0  0  0  0  0  0  0  0  0  0  0
   27.3286  -19.4950  -14.0441 C   0  0  1  0  0  0  0  0  0  0  0  0
   26.2055  -20.3516  -13.6450 C   0  0  0  0  0  0  0  0  0  0  0  0
   25.6490  -21.0896  -14.5305 O   0  0  0  0  0  0  0  0  0  0  0  0
   25.6707  -20.4338  -12.3324 N   0  0  0  0  0  0  0  0  0  0  0  0
   26.2292  -19.7228  -11.2069 C   0  0  0  0  0  0  0  0  0  0  0  0
   25.3516  -19.9984  -10.0068 C   0  0  0  0  0  0  0  0  0  0  0  0
   24.5313  -21.2248  -10.4266 C   0  0  0  0  0  0  0  0  0  0  0  0
   24.5156  -21.2123  -11.9137 C   0  0  1  0  0  0  0  0  0  0  0  0
   23.2666  -20.7060  -12.5123 C   0  0  0  0  0  0  0  0  0  0  0  0
   23.1420  -19.4604  -12.6363 O   0  0  0  0  0  0  0  0  0  0  0  0
   20.4025  -23.2964  -13.9074 O   0  0  0  0  0  0  0  0  0  0  0  0
   20.4908  -22.0974  -14.6052 C   0  0  0  0  0  0  0  0  0  0  0  0
   21.0445  -21.0600  -13.6382 C   0  0  2  0  0  0  0  0  0  0  0  0
   22.2086  -21.5238  -12.9524 N   0  0  0  0  0  0  0  0  0  0  0  0
   19.9822  -20.7823  -12.6436 C   0  0  0  0  0  0  0  0  0  0  0  0
   20.2092  -21.0664  -11.4408 O   0  0  0  0  0  0  0  0  0  0  0  0
   18.7568  -20.2218  -13.0079 O   0  0  0  0  0  0  0  0  0  0  0  0
  1  2  1  0
  3  2  1  0
  4  5  1  0
  4  3  1  0
  5  1  1  0
  6  8  1  0
  5  6  1  6
  7  6  2  0
  8 12  1  0
  9 10  1  0
  9  8  1  0
 10 11  1  0
 11 12  1  0
 12 13  1  1
 13 14  2  0
 13 18  1  0
 15 16  1  0
 17 19  1  0
 17 16  1  6
 18 17  1  0
 19 21  1  0
 20 19  2  0
M  END
$$$$
