PPS.pdb
     RDKit          3D

 21 22  0  0  1  0  0  0  0  0999 V2000
   39.1555  -23.3776  -17.7973 N   0  0  0  0  0  0  0  0  0  0  0  0
   37.8110  -22.9278  -18.0477 C   0  0  0  0  0  0  0  0  0  0  0  0
   37.9093  -22.2063  -19.3506 C   0  0  0  0  0  0  0  0  0  0  0  0
   39.2523  -21.4883  -19.1891 C   0  0  0  0  0  0  0  0  0  0  0  0
   40.0841  -22.4775  -18.3951 C   0  0  1  0  0  0  0  0  0  0  0  0
   40.9678  -21.7647  -17.4647 C   0  0  0  0  0  0  0  0  0  0  0  0
   40.5790  -21.5902  -16.2577 O   0  0  0  0  0  0  0  0  0  0  0  0
   42.2449  -21.2400  -17.7954 N   0  0  0  0  0  0  0  0  0  0  0  0
   42.8558  -21.4093  -19.0924 C   0  0  0  0  0  0  0  0  0  0  0  0
   44.1655  -20.6537  -19.0866 C   0  0  0  0  0  0  0  0  0  0  0  0
   44.4436  -20.4139  -17.5972 C   0  0  0  0  0  0  0  0  0  0  0  0
   43.1191  -20.4715  -16.9231 C   0  0  1  0  0  0  0  0  0  0  0  0
   42.5412  -19.1571  -16.5871 C   0  0  0  0  0  0  0  0  0  0  0  0
   41.5555  -18.7633  -17.2622 O   0  0  0  0  0  0  0  0  0  0  0  0
   42.0402  -15.5422  -13.4487 O   0  0  0  0  0  0  0  0  0  0  0  0
   42.6590  -16.7605  -13.7040 C   0  0  0  0  0  0  0  0  0  0  0  0
   42.4255  -17.0781  -15.1746 C   0  0  2  0  0  0  0  0  0  0  0  0
   43.0197  -18.3176  -15.5634 N   0  0  0  0  0  0  0  0  0  0  0  0
   43.0443  -15.9842  -15.9590 C   0  0  0  0  0  0  0  0  0  0  0  0
   44.2507  -16.1027  -16.2896 O   0  0  0  0  0  0  0  0  0  0  0  0
   42.3282  -14.8455  -16.3319 O   0  0  0  0  0  0  0  0  0  0  0  0
  1  2  1  0
  3  2  1  0
  4  5  1  0
  4  3  1  0
  5  1  1  0
  6  8  1  0
  5  6  1  1
  7  6  2  0
  8 12  1  0
  9 10  1  0
  9  8  1  0
 10 11  1  0
 11 12  1  0
 12 13  1  6
 13 14  2  0
 13 18  1  0
 15 16  1  0
 17 19  1  0
 17 16  1  1
 18 17  1  0
 19 21  1  0
 20 19  2  0
M  END
$$$$
