PPS.pdb
     RDKit          3D

 21 22  0  0  1  0  0  0  0  0999 V2000
   19.7749  -12.4888  -18.3225 N   0  0  0  0  0  0  0  0  0  0  0  0
   19.6509  -12.1866  -19.7246 C   0  0  0  0  0  0  0  0  0  0  0  0
   21.0619  -12.1398  -20.2091 C   0  0  0  0  0  0  0  0  0  0  0  0
   21.7539  -11.4431  -19.0339 C   0  0  0  0  0  0  0  0  0  0  0  0
   21.0055  -11.9712  -17.8248 C   0  0  1  0  0  0  0  0  0  0  0  0
   20.8882  -10.9233  -16.8038 C   0  0  0  0  0  0  0  0  0  0  0  0
   19.8658  -10.1535  -16.8262 O   0  0  0  0  0  0  0  0  0  0  0  0
   21.8321  -10.6841  -15.7706 N   0  0  0  0  0  0  0  0  0  0  0  0
   23.0465  -11.4497  -15.6184 C   0  0  0  0  0  0  0  0  0  0  0  0
   23.8228  -10.8572  -14.4641 C   0  0  0  0  0  0  0  0  0  0  0  0
   22.7855  -10.0014  -13.7258 C   0  0  0  0  0  0  0  0  0  0  0  0
   21.7440   -9.6678  -14.7337 C   0  0  1  0  0  0  0  0  0  0  0  0
   21.8396   -8.3058  -15.2908 C   0  0  0  0  0  0  0  0  0  0  0  0
   22.4733   -8.1590  -16.3675 O   0  0  0  0  0  0  0  0  0  0  0  0
   19.1817   -5.4430  -14.3945 O   0  0  0  0  0  0  0  0  0  0  0  0
   19.9493   -5.2777  -15.5416 C   0  0  0  0  0  0  0  0  0  0  0  0
   21.3302   -5.8424  -15.2377 C   0  0  2  0  0  0  0  0  0  0  0  0
   21.2696   -7.1635  -14.6976 N   0  0  0  0  0  0  0  0  0  0  0  0
   21.9563   -4.9454  -14.2387 C   0  0  0  0  0  0  0  0  0  0  0  0
   22.1753   -3.7531  -14.5695 O   0  0  0  0  0  0  0  0  0  0  0  0
   22.3017   -5.3887  -12.9610 O   0  0  0  0  0  0  0  0  0  0  0  0
  1  2  1  0
  3  2  1  0
  4  5  1  0
  4  3  1  0
  5  1  1  0
  6  8  1  0
  5  6  1  1
  7  6  2  0
  8 12  1  0
  9 10  1  0
  9  8  1  0
 10 11  1  0
 11 12  1  0
 12 13  1  6
 13 14  2  0
 13 18  1  0
 15 16  1  0
 17 19  1  0
 17 16  1  1
 18 17  1  0
 19 21  1  0
 20 19  2  0
M  END
$$$$
