RVL.pdb
     RDKit          3D

 27 26  0  0  1  0  0  0  0  0999 V2000
   21.8374  -30.0258   -9.1099 N   0  0  0  0  0  0  0  0  0  0  0  0
   22.5114  -30.4481  -10.3387 C   0  0  0  0  0  0  0  0  0  0  0  0
   23.3527  -31.3912  -10.2977 N   0  0  0  0  0  0  0  0  0  0  0  0
   22.2153  -29.8170  -11.5622 N   0  0  0  0  0  0  0  0  0  0  0  0
   21.2584  -28.8170  -11.7977 C   0  0  0  0  0  0  0  0  0  0  0  0
   19.9143  -28.8973  -11.2001 C   0  0  0  0  0  0  0  0  0  0  0  0
   19.7246  -27.8659  -10.1240 C   0  0  0  0  0  0  0  0  0  0  0  0
   18.6549  -26.8487  -10.3285 C   0  0  2  0  0  0  0  0  0  0  0  0
   18.9887  -25.9344  -11.4154 N   0  0  0  0  0  0  0  0  0  0  0  0
   18.6069  -25.9824   -9.1050 C   0  0  0  0  0  0  0  0  0  0  0  0
   18.9517  -24.7689   -9.1950 O   0  0  0  0  0  0  0  0  0  0  0  0
   23.8351  -31.8125  -11.0653 C   0  0  0  0  0  0  0  0  0  0  0  0
   16.1538  -23.9793   -5.9150 C   0  0  2  0  0  0  0  0  0  0  0  0
   16.5950  -24.8064   -7.0907 C   0  0  0  0  0  0  0  0  0  0  0  0
   16.7699  -24.0215   -8.3450 C   0  0  1  0  0  0  0  0  0  0  0  0
   17.8096  -25.6463   -6.7485 N   0  0  0  0  0  0  0  0  0  0  0  0
   18.1865  -26.4897   -7.8601 C   0  0  0  0  0  0  0  0  0  0  0  0
   17.5124  -26.4872   -5.5281 O   0  0  0  0  0  0  0  0  0  0  0  0
   16.5539  -27.2977   -5.5319 C   0  0  0  0  0  0  0  0  0  0  0  0
   21.0216  -27.4579   -0.6904 C   0  0  2  0  0  0  0  0  0  0  0  0
   19.5354  -27.7673   -1.0777 C   0  0  0  0  0  0  0  0  0  0  0  0
   18.7846  -27.4392    0.1295 C   0  0  0  0  0  0  0  0  0  0  0  0
   19.3167  -27.1479   -2.3641 C   0  0  1  0  0  0  0  0  0  0  0  0
   18.0901  -27.1927   -3.1467 N   0  0  0  0  0  0  0  0  0  0  0  0
   18.3068  -26.3735   -4.3708 C   0  0  0  0  0  0  0  0  0  0  0  0
   16.8491  -26.7477   -2.4895 O   0  0  0  0  0  0  0  0  0  0  0  0
   16.4464  -25.4454   -2.3709 O   0  0  0  0  0  0  0  0  0  0  0  0
  1  2  1  0
  2  3  2  0
  4  2  1  0
  5  4  1  0
  6  5  1  0
  7  6  1  0
  8 10  1  0
  8  7  1  0
  8  9  1  6
 10 11  2  0
 10 16  1  0
 13 12  1  6
 13 14  1  0
 15 13  1  0
 15 16  1  6
 17 18  2  0
 17 15  1  0
 20 22  1  0
 20 19  1  1
 21 20  1  0
 23 22  1  6
 23 24  1  0
 24 17  1  0
 25 23  1  0
 26 25  1  0
 27 25  2  0
M  END
$$$$
