RVL.pdb
     RDKit          3D

 27 26  0  0  1  0  0  0  0  0999 V2000
   25.6097  -16.2859  -19.3940 N   0  0  0  0  0  0  0  0  0  0  0  0
   26.9314  -16.5305  -19.9737 C   0  0  0  0  0  0  0  0  0  0  0  0
   27.2437  -15.9844  -21.0705 N   0  0  0  0  0  0  0  0  0  0  0  0
   27.8552  -17.3585  -19.3074 N   0  0  0  0  0  0  0  0  0  0  0  0
   27.6678  -18.0471  -18.0983 C   0  0  0  0  0  0  0  0  0  0  0  0
   26.5432  -18.9826  -17.9245 C   0  0  0  0  0  0  0  0  0  0  0  0
   26.6259  -19.7096  -16.6121 C   0  0  0  0  0  0  0  0  0  0  0  0
   27.9110  -20.3884  -16.2827 C   0  0  2  0  0  0  0  0  0  0  0  0
   28.1412  -21.5426  -17.1450 N   0  0  0  0  0  0  0  0  0  0  0  0
   27.7845  -20.9641  -14.9036 C   0  0  0  0  0  0  0  0  0  0  0  0
   27.0864  -22.0046  -14.7316 O   0  0  0  0  0  0  0  0  0  0  0  0
   28.1212  -16.0306  -21.5472 C   0  0  0  0  0  0  0  0  0  0  0  0
   29.3974  -21.0966  -10.2282 C   0  0  2  0  0  0  0  0  0  0  0  0
   29.5729  -20.7005  -11.6681 C   0  0  0  0  0  0  0  0  0  0  0  0
   30.7332  -21.3563  -12.3341 C   0  0  1  0  0  0  0  0  0  0  0  0
   28.2812  -20.8615  -12.4451 N   0  0  0  0  0  0  0  0  0  0  0  0
   28.4254  -20.3726  -13.7976 C   0  0  0  0  0  0  0  0  0  0  0  0
   27.1711  -20.1215  -11.7345 O   0  0  0  0  0  0  0  0  0  0  0  0
   26.8862  -18.9417  -12.0547 C   0  0  0  0  0  0  0  0  0  0  0  0
   22.4185  -19.8911  -12.9778 C   0  0  2  0  0  0  0  0  0  0  0  0
   22.8694  -19.7794  -11.4816 C   0  0  0  0  0  0  0  0  0  0  0  0
   21.7736  -20.3944  -10.7400 C   0  0  0  0  0  0  0  0  0  0  0  0
   24.2384  -20.2380  -11.4377 C   0  0  1  0  0  0  0  0  0  0  0  0
   25.0955  -20.2864  -10.2622 N   0  0  0  0  0  0  0  0  0  0  0  0
   26.4409  -20.7454  -10.7045 C   0  0  0  0  0  0  0  0  0  0  0  0
   24.6537  -21.1243   -9.1341 O   0  0  0  0  0  0  0  0  0  0  0  0
   23.9292  -20.6798   -8.0619 O   0  0  0  0  0  0  0  0  0  0  0  0
  1  2  1  0
  2  3  2  0
  4  2  1  0
  5  4  1  0
  6  5  1  0
  7  6  1  0
  8 10  1  0
  8  7  1  0
  8  9  1  6
 10 11  2  0
 10 16  1  0
 13 12  1  1
 13 14  1  0
 15 13  1  0
 15 16  1  1
 17 18  2  0
 17 15  1  0
 20 22  1  0
 20 19  1  1
 21 20  1  0
 23 22  1  6
 23 24  1  0
 24 17  1  0
 25 23  1  0
 26 25  1  0
 27 25  2  0
M  END
$$$$
