RVL.pdb
     RDKit          3D

 27 26  0  0  1  0  0  0  0  0999 V2000
   47.3252  -10.5650   -3.1375 N   0  0  0  0  0  0  0  0  0  0  0  0
   46.4600   -9.4006   -2.9415 C   0  0  0  0  0  0  0  0  0  0  0  0
   46.9764   -8.2712   -2.7038 N   0  0  0  0  0  0  0  0  0  0  0  0
   45.0611   -9.5344   -3.0304 N   0  0  0  0  0  0  0  0  0  0  0  0
   44.2752   -9.5336   -4.1938 C   0  0  0  0  0  0  0  0  0  0  0  0
   44.8286   -9.0837   -5.4828 C   0  0  0  0  0  0  0  0  0  0  0  0
   43.7676   -9.0067   -6.5439 C   0  0  0  0  0  0  0  0  0  0  0  0
   43.1014  -10.2787   -6.9428 C   0  0  2  0  0  0  0  0  0  0  0  0
   43.9564  -11.0785   -7.8135 N   0  0  0  0  0  0  0  0  0  0  0  0
   41.9163   -9.9281   -7.7925 C   0  0  0  0  0  0  0  0  0  0  0  0
   42.0455   -9.9027   -9.0503 O   0  0  0  0  0  0  0  0  0  0  0  0
   46.5028   -7.4119   -2.5118 C   0  0  0  0  0  0  0  0  0  0  0  0
   37.0459   -8.9719   -8.0410 C   0  0  1  0  0  0  0  0  0  0  0  0
   38.2265   -9.5800   -7.3358 C   0  0  0  0  0  0  0  0  0  0  0  0
   38.1135  -11.0521   -7.1359 C   0  0  1  0  0  0  0  0  0  0  0  0
   39.5303   -9.1746   -7.9944 N   0  0  0  0  0  0  0  0  0  0  0  0
   40.6644   -9.6275   -7.2213 C   0  0  0  0  0  0  0  0  0  0  0  0
   39.5684   -7.6718   -8.1522 O   0  0  0  0  0  0  0  0  0  0  0  0
   39.4967   -6.9244   -7.1463 C   0  0  0  0  0  0  0  0  0  0  0  0
   42.9840   -4.7813  -11.2870 C   0  0  2  0  0  0  0  0  0  0  0  0
   42.1484   -5.2940  -10.0650 C   0  0  0  0  0  0  0  0  0  0  0  0
   42.6933   -4.5514   -8.9334 C   0  0  0  0  0  0  0  0  0  0  0  0
   40.7644   -5.2492  -10.4757 C   0  0  2  0  0  0  0  0  0  0  0  0
   39.6117   -5.6222   -9.6687 N   0  0  0  0  0  0  0  0  0  0  0  0
   39.6855   -7.0896   -9.4292 C   0  0  0  0  0  0  0  0  0  0  0  0
   38.2772   -5.2928  -10.1985 O   0  0  0  0  0  0  0  0  0  0  0  0
   37.6685   -4.0721  -10.0906 O   0  0  0  0  0  0  0  0  0  0  0  0
  1  2  1  0
  2  3  2  0
  4  2  1  0
  5  4  1  0
  6  5  1  0
  7  6  1  0
  8 10  1  0
  8  7  1  0
  8  9  1  6
 10 11  2  0
 10 16  1  0
 13 12  1  1
 13 14  1  0
 15 13  1  0
 15 16  1  1
 17 18  2  0
 17 15  1  0
 20 22  1  0
 20 19  1  1
 21 20  1  0
 23 22  1  1
 23 24  1  0
 24 17  1  0
 25 23  1  0
 26 25  1  0
 27 25  2  0
M  END
$$$$
