RVL.pdb
     RDKit          3D

 27 26  0  0  1  0  0  0  0  0999 V2000
   29.4050  -17.5034  -19.4312 N   0  0  0  0  0  0  0  0  0  0  0  0
   28.8574  -18.7177  -20.0379 C   0  0  0  0  0  0  0  0  0  0  0  0
   29.4443  -19.2410  -21.0281 N   0  0  0  0  0  0  0  0  0  0  0  0
   27.6911  -19.3077  -19.5139 N   0  0  0  0  0  0  0  0  0  0  0  0
   26.9373  -18.8763  -18.4108 C   0  0  0  0  0  0  0  0  0  0  0  0
   27.5389  -18.7870  -17.0691 C   0  0  0  0  0  0  0  0  0  0  0  0
   26.7229  -19.5261  -16.0465 C   0  0  0  0  0  0  0  0  0  0  0  0
   27.4318  -20.5154  -15.1865 C   0  0  2  0  0  0  0  0  0  0  0  0
   27.8895  -21.6642  -15.9608 N   0  0  0  0  0  0  0  0  0  0  0  0
   26.4332  -21.0817  -14.2212 C   0  0  0  0  0  0  0  0  0  0  0  0
   25.7566  -22.0956  -14.5581 O   0  0  0  0  0  0  0  0  0  0  0  0
   29.1528  -20.0356  -21.5603 C   0  0  0  0  0  0  0  0  0  0  0  0
   24.3441  -20.8704   -9.7073 C   0  0  2  0  0  0  0  0  0  0  0  0
   25.4954  -20.5592  -10.6232 C   0  0  0  0  0  0  0  0  0  0  0  0
   26.7945  -21.1309  -10.1702 C   0  0  1  0  0  0  0  0  0  0  0  0
   25.1670  -20.9122  -12.0603 N   0  0  0  0  0  0  0  0  0  0  0  0
   26.2332  -20.5101  -12.9495 C   0  0  0  0  0  0  0  0  0  0  0  0
   23.8707  -20.2446  -12.4589 O   0  0  0  0  0  0  0  0  0  0  0  0
   23.8651  -19.0564  -12.8636 C   0  0  0  0  0  0  0  0  0  0  0  0
   21.5865  -19.9119  -16.8403 C   0  0  2  0  0  0  0  0  0  0  0  0
   20.8195  -19.7979  -15.4790 C   0  0  0  0  0  0  0  0  0  0  0  0
   19.4857  -20.3031  -15.7866 C   0  0  0  0  0  0  0  0  0  0  0  0
   21.6915  -20.3638  -14.4762 C   0  0  1  0  0  0  0  0  0  0  0  0
   21.4038  -20.4929  -13.0552 N   0  0  0  0  0  0  0  0  0  0  0  0
   22.6521  -20.9463  -12.3824 C   0  0  0  0  0  0  0  0  0  0  0  0
   20.3006  -21.3875  -12.6645 O   0  0  0  0  0  0  0  0  0  0  0  0
   20.4102  -22.7401  -12.4900 O   0  0  0  0  0  0  0  0  0  0  0  0
  1  2  1  0
  2  3  2  0
  4  2  1  0
  5  4  1  0
  6  5  1  0
  7  6  1  0
  8 10  1  0
  8  7  1  0
  8  9  1  6
 10 11  2  0
 10 16  1  0
 13 12  1  1
 13 14  1  0
 15 13  1  0
 15 16  1  1
 17 18  2  0
 17 15  1  0
 20 22  1  0
 20 19  1  6
 21 20  1  0
 23 22  1  1
 23 24  1  0
 24 17  1  0
 25 23  1  0
 26 25  1  0
 27 25  2  0
M  END
$$$$
