RVL.pdb
     RDKit          3D

 27 26  0  0  1  0  0  0  0  0999 V2000
   29.6473  -24.2120  -16.1635 N   0  0  0  0  0  0  0  0  0  0  0  0
   28.3366  -23.9458  -16.7584 C   0  0  0  0  0  0  0  0  0  0  0  0
   27.8692  -22.7710  -16.7409 N   0  0  0  0  0  0  0  0  0  0  0  0
   27.6058  -24.9891  -17.3587 N   0  0  0  0  0  0  0  0  0  0  0  0
   28.1084  -26.1851  -17.8953 C   0  0  0  0  0  0  0  0  0  0  0  0
   29.3376  -26.1948  -18.7071 C   0  0  0  0  0  0  0  0  0  0  0  0
   29.5919  -27.5475  -19.3101 C   0  0  0  0  0  0  0  0  0  0  0  0
   30.7942  -27.6978  -20.1775 C   0  0  2  0  0  0  0  0  0  0  0  0
   30.4518  -27.5728  -21.5903 N   0  0  0  0  0  0  0  0  0  0  0  0
   31.2918  -29.1051  -20.0307 C   0  0  0  0  0  0  0  0  0  0  0  0
   30.8113  -30.0094  -20.7728 O   0  0  0  0  0  0  0  0  0  0  0  0
   27.0266  -22.4430  -17.1674 C   0  0  0  0  0  0  0  0  0  0  0  0
   34.8666  -32.1255  -18.5780 C   0  0  2  0  0  0  0  0  0  0  0  0
   34.3075  -30.8004  -19.0166 C   0  0  0  0  0  0  0  0  0  0  0  0
   34.8082  -30.3475  -20.3448 C   0  0  1  0  0  0  0  0  0  0  0  0
   32.7947  -30.7819  -18.9212 N   0  0  0  0  0  0  0  0  0  0  0  0
   32.2812  -29.4409  -19.0862 C   0  0  0  0  0  0  0  0  0  0  0  0
   32.3678  -31.3474  -17.5860 O   0  0  0  0  0  0  0  0  0  0  0  0
   32.7233  -30.7932  -16.5173 C   0  0  0  0  0  0  0  0  0  0  0  0
   27.2721  -33.0816  -16.6340 C   0  0  2  0  0  0  0  0  0  0  0  0
   28.6343  -32.3156  -16.5257 C   0  0  0  0  0  0  0  0  0  0  0  0
   28.3677  -31.2662  -15.5476 C   0  0  0  0  0  0  0  0  0  0  0  0
   29.6546  -33.3267  -16.3747 C   0  0  2  0  0  0  0  0  0  0  0  0
   31.0860  -33.0964  -16.2441 N   0  0  0  0  0  0  0  0  0  0  0  0
   31.5651  -32.5028  -17.5226 C   0  0  0  0  0  0  0  0  0  0  0  0
   31.9322  -34.2551  -15.9106 O   0  0  0  0  0  0  0  0  0  0  0  0
   32.8534  -34.8222  -16.7485 O   0  0  0  0  0  0  0  0  0  0  0  0
  1  2  1  0
  2  3  2  0
  4  2  1  0
  5  4  1  0
  6  5  1  0
  7  6  1  0
  8 10  1  0
  8  7  1  0
  8  9  1  6
 10 11  2  0
 10 16  1  0
 13 12  1  1
 13 14  1  0
 15 13  1  0
 15 16  1  1
 17 18  2  0
 17 15  1  0
 20 22  1  0
 20 19  1  6
 21 20  1  0
 23 22  1  1
 23 24  1  0
 24 17  1  0
 25 23  1  0
 26 25  1  0
 27 25  2  0
M  END
$$$$
