RVL.pdb
     RDKit          3D

 27 26  0  0  1  0  0  0  0  0999 V2000
   32.9629  -25.9128  -17.6931 N   0  0  0  0  0  0  0  0  0  0  0  0
   32.0825  -27.0674  -17.8788 C   0  0  0  0  0  0  0  0  0  0  0  0
   32.5816  -28.1961  -18.1543 N   0  0  0  0  0  0  0  0  0  0  0  0
   30.6886  -26.9254  -17.7386 N   0  0  0  0  0  0  0  0  0  0  0  0
   29.9780  -25.7617  -17.4040 C   0  0  0  0  0  0  0  0  0  0  0  0
   30.5537  -24.7568  -16.4936 C   0  0  0  0  0  0  0  0  0  0  0  0
   29.5638  -23.6745  -16.1670 C   0  0  0  0  0  0  0  0  0  0  0  0
   28.9144  -22.9704  -17.3086 C   0  0  2  0  0  0  0  0  0  0  0  0
   29.8937  -22.2603  -18.1243 N   0  0  0  0  0  0  0  0  0  0  0  0
   28.0383  -21.8923  -16.7430 C   0  0  0  0  0  0  0  0  0  0  0  0
   28.5615  -20.7991  -16.3817 O   0  0  0  0  0  0  0  0  0  0  0  0
   32.0961  -29.0545  -18.3182 C   0  0  0  0  0  0  0  0  0  0  0  0
   23.6040  -19.8821  -16.2128 C   0  0  2  0  0  0  0  0  0  0  0  0
   24.5744  -20.8127  -16.8861 C   0  0  0  0  0  0  0  0  0  0  0  0
   24.9489  -20.3939  -18.2660 C   0  0  1  0  0  0  0  0  0  0  0  0
   25.7791  -21.0830  -16.0065 N   0  0  0  0  0  0  0  0  0  0  0  0
   26.6478  -22.0703  -16.6062 C   0  0  0  0  0  0  0  0  0  0  0  0
   25.3142  -21.5494  -14.6459 O   0  0  0  0  0  0  0  0  0  0  0  0
   25.7607  -22.6131  -14.1511 C   0  0  0  0  0  0  0  0  0  0  0  0
   26.8490  -21.0498   -9.9215 C   0  0  2  0  0  0  0  0  0  0  0  0
   25.4022  -21.4783  -10.3427 C   0  0  0  0  0  0  0  0  0  0  0  0
   24.5595  -20.9664   -9.2672 C   0  0  0  0  0  0  0  0  0  0  0  0
   25.2606  -21.1088  -11.7319 C   0  0  1  0  0  0  0  0  0  0  0  0
   24.0226  -21.0842  -12.4969 N   0  0  0  0  0  0  0  0  0  0  0  0
   24.3748  -20.7970  -13.9146 C   0  0  0  0  0  0  0  0  0  0  0  0
   22.9769  -20.1405  -12.0657 O   0  0  0  0  0  0  0  0  0  0  0  0
   21.9332  -20.4497  -11.2366 O   0  0  0  0  0  0  0  0  0  0  0  0
  1  2  1  0
  2  3  2  0
  4  2  1  0
  5  4  1  0
  6  5  1  0
  7  6  1  0
  8 10  1  0
  8  7  1  0
  8  9  1  6
 10 11  2  0
 10 16  1  0
 13 12  1  6
 13 14  1  0
 15 13  1  0
 15 16  1  6
 17 18  2  0
 17 15  1  0
 20 22  1  0
 20 19  1  1
 21 20  1  0
 23 22  1  6
 23 24  1  0
 24 17  1  0
 25 23  1  0
 26 25  1  0
 27 25  2  0
M  END
$$$$
