RVL.pdb
     RDKit          3D

 27 26  0  0  1  0  0  0  0  0999 V2000
   24.7109  -16.2829  -17.2318 N   0  0  0  0  0  0  0  0  0  0  0  0
   23.5223  -17.0533  -17.6011 C   0  0  0  0  0  0  0  0  0  0  0  0
   22.9118  -16.7841  -18.6752 N   0  0  0  0  0  0  0  0  0  0  0  0
   23.0686  -18.0971  -16.7720 N   0  0  0  0  0  0  0  0  0  0  0  0
   23.6071  -18.5061  -15.5416 C   0  0  0  0  0  0  0  0  0  0  0  0
   25.0317  -18.8597  -15.4171 C   0  0  0  0  0  0  0  0  0  0  0  0
   25.3454  -20.1493  -16.1216 C   0  0  0  0  0  0  0  0  0  0  0  0
   26.7529  -20.6361  -16.0688 C   0  0  2  0  0  0  0  0  0  0  0  0
   26.9375  -21.8252  -16.8940 N   0  0  0  0  0  0  0  0  0  0  0  0
   27.0248  -21.0998  -14.6686 C   0  0  0  0  0  0  0  0  0  0  0  0
   26.4560  -22.1468  -14.2445 O   0  0  0  0  0  0  0  0  0  0  0  0
   22.1001  -17.2353  -19.0454 C   0  0  0  0  0  0  0  0  0  0  0  0
   29.7895  -20.8311  -10.5864 C   0  0  2  0  0  0  0  0  0  0  0  0
   29.5778  -20.6001  -12.0570 C   0  0  0  0  0  0  0  0  0  0  0  0
   30.4892  -21.3954  -12.9270 C   0  0  1  0  0  0  0  0  0  0  0  0
   28.1183  -20.7578  -12.4350 N   0  0  0  0  0  0  0  0  0  0  0  0
   27.8988  -20.3962  -13.8171 C   0  0  0  0  0  0  0  0  0  0  0  0
   27.2676  -19.9005  -11.5261 O   0  0  0  0  0  0  0  0  0  0  0  0
   26.7390  -18.8467  -11.9568 C   0  0  0  0  0  0  0  0  0  0  0  0
   22.4536  -20.7194  -10.9789 C   0  0  2  0  0  0  0  0  0  0  0  0
   23.2988  -20.1598   -9.7843 C   0  0  0  0  0  0  0  0  0  0  0  0
   22.6450  -20.7151   -8.6040 C   0  0  0  0  0  0  0  0  0  0  0  0
   24.6831  -20.3866  -10.1287 C   0  0  1  0  0  0  0  0  0  0  0  0
   25.8451  -19.8848   -9.4098 N   0  0  0  0  0  0  0  0  0  0  0  0
   27.0559  -20.2725  -10.1844 C   0  0  0  0  0  0  0  0  0  0  0  0
   26.0163  -20.3157   -8.0116 O   0  0  0  0  0  0  0  0  0  0  0  0
   25.6311  -19.5944   -6.9145 O   0  0  0  0  0  0  0  0  0  0  0  0
  1  2  1  0
  2  3  2  0
  4  2  1  0
  5  4  1  0
  6  5  1  0
  7  6  1  0
  8 10  1  0
  8  7  1  0
  8  9  1  6
 10 11  2  0
 10 16  1  0
 13 12  1  1
 13 14  1  0
 15 13  1  0
 15 16  1  6
 17 18  2  0
 17 15  1  0
 20 22  1  0
 20 19  1  1
 21 20  1  0
 23 22  1  6
 23 24  1  0
 24 17  1  0
 25 23  1  0
 26 25  1  0
 27 25  2  0
M  END
$$$$
