RVL.pdb
     RDKit          3D

 27 26  0  0  1  0  0  0  0  0999 V2000
   17.0342  -29.6669   -8.6849 N   0  0  0  0  0  0  0  0  0  0  0  0
   18.3581  -30.2763   -8.8219 C   0  0  0  0  0  0  0  0  0  0  0  0
   18.5859  -31.4018   -8.2927 N   0  0  0  0  0  0  0  0  0  0  0  0
   19.3685  -29.6193   -9.5501 N   0  0  0  0  0  0  0  0  0  0  0  0
   19.2763  -28.3885  -10.2193 C   0  0  0  0  0  0  0  0  0  0  0  0
   19.5169  -28.2937  -11.6695 C   0  0  0  0  0  0  0  0  0  0  0  0
   20.5956  -27.2971  -11.9874 C   0  0  0  0  0  0  0  0  0  0  0  0
   21.6433  -27.7072  -12.9646 C   0  0  2  0  0  0  0  0  0  0  0  0
   22.5183  -28.7342  -12.4092 N   0  0  0  0  0  0  0  0  0  0  0  0
   22.5410  -26.5280  -13.1955 C   0  0  0  0  0  0  0  0  0  0  0  0
   23.5796  -26.3957  -12.4862 O   0  0  0  0  0  0  0  0  0  0  0  0
   19.4083  -31.9631   -8.3824 C   0  0  0  0  0  0  0  0  0  0  0  0
   24.5405  -23.2295  -16.0622 C   0  0  2  0  0  0  0  0  0  0  0  0
   23.7116  -24.4554  -15.7953 C   0  0  0  0  0  0  0  0  0  0  0  0
   24.4317  -25.7344  -16.0514 C   0  0  1  0  0  0  0  0  0  0  0  0
   23.0778  -24.4030  -14.4193 N   0  0  0  0  0  0  0  0  0  0  0  0
   22.2532  -25.5665  -14.1837 C   0  0  0  0  0  0  0  0  0  0  0  0
   22.2549  -23.1415  -14.2920 O   0  0  0  0  0  0  0  0  0  0  0  0
   21.0100  -23.2060  -14.1451 C   0  0  0  0  0  0  0  0  0  0  0  0
   21.8438  -19.9721  -10.1530 C   0  0  2  0  0  0  0  0  0  0  0  0
   21.3494  -19.7483  -11.6227 C   0  0  0  0  0  0  0  0  0  0  0  0
   21.3185  -18.2963  -11.7632 C   0  0  0  0  0  0  0  0  0  0  0  0
   22.1392  -20.6282  -12.4522 C   0  0  1  0  0  0  0  0  0  0  0  0
   22.1984  -20.6214  -13.9066 N   0  0  0  0  0  0  0  0  0  0  0  0
   22.8734  -21.8770  -14.3358 C   0  0  0  0  0  0  0  0  0  0  0  0
   22.8646  -19.4777  -14.5533 O   0  0  0  0  0  0  0  0  0  0  0  0
   24.1926  -19.4233  -14.8785 O   0  0  0  0  0  0  0  0  0  0  0  0
  1  2  1  0
  2  3  2  0
  4  2  1  0
  5  4  1  0
  6  5  1  0
  7  6  1  0
  8 10  1  0
  8  7  1  0
  8  9  1  1
 10 11  2  0
 10 16  1  0
 13 12  1  6
 13 14  1  0
 15 13  1  0
 15 16  1  6
 17 18  2  0
 17 15  1  0
 20 22  1  0
 20 19  1  1
 21 20  1  0
 23 22  1  6
 23 24  1  0
 24 17  1  0
 25 23  1  0
 26 25  1  0
 27 25  2  0
M  END
$$$$
