RVL.pdb
     RDKit          3D

 27 26  0  0  1  0  0  0  0  0999 V2000
   28.8029  -22.3659  -18.2533 N   0  0  0  0  0  0  0  0  0  0  0  0
   29.3800  -23.3724  -17.3608 C   0  0  0  0  0  0  0  0  0  0  0  0
   29.9421  -24.3936  -17.8507 N   0  0  0  0  0  0  0  0  0  0  0  0
   29.3215  -23.1984  -15.9646 N   0  0  0  0  0  0  0  0  0  0  0  0
   28.7136  -22.1475  -15.2596 C   0  0  0  0  0  0  0  0  0  0  0  0
   29.1668  -20.7564  -15.4320 C   0  0  0  0  0  0  0  0  0  0  0  0
   28.2731  -19.7895  -14.7079 C   0  0  0  0  0  0  0  0  0  0  0  0
   26.8028  -19.9367  -14.9010 C   0  0  2  0  0  0  0  0  0  0  0  0
   26.3209  -19.0952  -15.9912 N   0  0  0  0  0  0  0  0  0  0  0  0
   26.1239  -19.3976  -13.6769 C   0  0  0  0  0  0  0  0  0  0  0  0
   25.4665  -18.3205  -13.7606 O   0  0  0  0  0  0  0  0  0  0  0  0
   30.3905  -25.1389  -17.3579 C   0  0  0  0  0  0  0  0  0  0  0  0
   23.4100  -19.6006  -13.1121 C   0  0  2  0  0  0  0  0  0  0  0  0
   23.8419  -20.3930  -11.9094 C   0  0  0  0  0  0  0  0  0  0  0  0
   23.7637  -21.8682  -12.1026 C   0  0  2  0  0  0  0  0  0  0  0  0
   25.1976  -19.9370  -11.4071 N   0  0  0  0  0  0  0  0  0  0  0  0
   26.2021  -20.0639  -12.4385 C   0  0  0  0  0  0  0  0  0  0  0  0
   25.5845  -20.7513  -10.1938 O   0  0  0  0  0  0  0  0  0  0  0  0
   25.6293  -22.0041  -10.2562 C   0  0  0  0  0  0  0  0  0  0  0  0
   28.3832  -18.4536   -5.8369 C   0  0  2  0  0  0  0  0  0  0  0  0
   28.0862  -19.4132   -7.0391 C   0  0  0  0  0  0  0  0  0  0  0  0
   29.3188  -20.1799   -7.1864 C   0  0  0  0  0  0  0  0  0  0  0  0
   26.7917  -19.9982   -6.7777 C   0  0  2  0  0  0  0  0  0  0  0  0
   26.0267  -20.8422   -7.6840 N   0  0  0  0  0  0  0  0  0  0  0  0
   25.9007  -20.1158   -8.9774 C   0  0  0  0  0  0  0  0  0  0  0  0
   24.6868  -21.2692   -7.2454 O   0  0  0  0  0  0  0  0  0  0  0  0
   24.4339  -22.3071   -6.3904 O   0  0  0  0  0  0  0  0  0  0  0  0
  1  2  1  0
  2  3  2  0
  4  2  1  0
  5  4  1  0
  6  5  1  0
  7  6  1  0
  8 10  1  0
  8  7  1  0
  8  9  1  6
 10 11  2  0
 10 16  1  0
 13 12  1  1
 13 14  1  0
 15 13  1  0
 15 16  1  1
 17 18  2  0
 17 15  1  0
 20 22  1  0
 20 19  1  6
 21 20  1  0
 23 22  1  6
 23 24  1  0
 24 17  1  0
 25 23  1  0
 26 25  1  0
 27 25  2  0
M  END
$$$$
