RVL.pdb
     RDKit          3D

 27 26  0  0  1  0  0  0  0  0999 V2000
   18.4113  -23.2815  -10.8352 N   0  0  0  0  0  0  0  0  0  0  0  0
   19.0688  -22.8627  -12.0742 C   0  0  0  0  0  0  0  0  0  0  0  0
   18.7870  -23.4468  -13.1596 N   0  0  0  0  0  0  0  0  0  0  0  0
   20.0000  -21.8065  -12.0602 N   0  0  0  0  0  0  0  0  0  0  0  0
   20.4299  -21.0616  -10.9506 C   0  0  0  0  0  0  0  0  0  0  0  0
   21.6418  -21.4424  -10.2047 C   0  0  0  0  0  0  0  0  0  0  0  0
   22.8645  -20.7602  -10.7502 C   0  0  0  0  0  0  0  0  0  0  0  0
   24.1790  -21.1224  -10.1488 C   0  0  2  0  0  0  0  0  0  0  0  0
   24.2605  -20.7046   -8.7532 N   0  0  0  0  0  0  0  0  0  0  0  0
   25.2381  -20.3221  -10.8470 C   0  0  0  0  0  0  0  0  0  0  0  0
   25.5796  -19.2020  -10.3694 O   0  0  0  0  0  0  0  0  0  0  0  0
   19.1300  -23.2339  -14.0742 C   0  0  0  0  0  0  0  0  0  0  0  0
   29.0397  -20.2564  -13.9618 C   0  0  1  0  0  0  0  0  0  0  0  0
   28.0799  -20.9369  -13.0255 C   0  0  0  0  0  0  0  0  0  0  0  0
   28.7240  -21.4825  -11.7977 C   0  0  1  0  0  0  0  0  0  0  0  0
   26.8874  -20.0523  -12.7201 N   0  0  0  0  0  0  0  0  0  0  0  0
   25.8600  -20.7903  -12.0209 C   0  0  0  0  0  0  0  0  0  0  0  0
   26.3403  -19.4827  -14.0089 O   0  0  0  0  0  0  0  0  0  0  0  0
   25.6019  -20.1777  -14.7488 C   0  0  0  0  0  0  0  0  0  0  0  0
   25.1762  -13.7848  -15.2504 C   0  0  2  0  0  0  0  0  0  0  0  0
   25.2376  -15.0992  -16.1006 C   0  0  0  0  0  0  0  0  0  0  0  0
   25.8400  -14.6728  -17.3593 C   0  0  0  0  0  0  0  0  0  0  0  0
   25.7942  -16.1133  -15.2358 C   0  0  1  0  0  0  0  0  0  0  0  0
   26.0539  -17.5015  -15.5886 N   0  0  0  0  0  0  0  0  0  0  0  0
   26.6505  -18.1649  -14.3969 C   0  0  0  0  0  0  0  0  0  0  0  0
   26.9155  -17.7553  -16.7561 O   0  0  0  0  0  0  0  0  0  0  0  0
   26.4690  -17.9466  -18.0352 O   0  0  0  0  0  0  0  0  0  0  0  0
  1  2  1  0
  2  3  2  0
  4  2  1  0
  5  4  1  0
  6  5  1  0
  7  6  1  0
  8 10  1  0
  8  7  1  0
  8  9  1  1
 10 11  2  0
 10 16  1  0
 13 12  1  6
 13 14  1  0
 15 13  1  0
 15 16  1  6
 17 18  2  0
 17 15  1  0
 20 22  1  0
 20 19  1  6
 21 20  1  0
 23 22  1  1
 23 24  1  0
 24 17  1  0
 25 23  1  0
 26 25  1  0
 27 25  2  0
M  END
$$$$
