RVL.pdb
     RDKit          3D

 27 26  0  0  1  0  0  0  0  0999 V2000
   16.6437  -21.5812  -18.8179 N   0  0  0  0  0  0  0  0  0  0  0  0
   16.0593  -21.5386  -17.4765 C   0  0  0  0  0  0  0  0  0  0  0  0
   15.0232  -22.2180  -17.2243 N   0  0  0  0  0  0  0  0  0  0  0  0
   16.6548  -20.7558  -16.4688 N   0  0  0  0  0  0  0  0  0  0  0  0
   17.8189  -19.9774  -16.5679 C   0  0  0  0  0  0  0  0  0  0  0  0
   19.1023  -20.5795  -16.9687 C   0  0  0  0  0  0  0  0  0  0  0  0
   20.2167  -19.5718  -16.9481 C   0  0  0  0  0  0  0  0  0  0  0  0
   21.0041  -19.4441  -15.6894 C   0  0  2  0  0  0  0  0  0  0  0  0
   20.8676  -18.1131  -15.1075 N   0  0  0  0  0  0  0  0  0  0  0  0
   22.4570  -19.5559  -16.0447 C   0  0  0  0  0  0  0  0  0  0  0  0
   22.8697  -20.5974  -16.6315 O   0  0  0  0  0  0  0  0  0  0  0  0
   14.5677  -22.3315  -16.3415 C   0  0  0  0  0  0  0  0  0  0  0  0
   24.5433  -17.4645  -18.2931 C   0  0  2  0  0  0  0  0  0  0  0  0
   25.1795  -17.4033  -16.9320 C   0  0  0  0  0  0  0  0  0  0  0  0
   24.9857  -16.0998  -16.2368 C   0  0  2  0  0  0  0  0  0  0  0  0
   24.7736  -18.5898  -16.0803 N   0  0  0  0  0  0  0  0  0  0  0  0
   23.3702  -18.5278  -15.7400 C   0  0  0  0  0  0  0  0  0  0  0  0
   25.6174  -18.6213  -14.8265 O   0  0  0  0  0  0  0  0  0  0  0  0
   25.4203  -17.7910  -13.9060 C   0  0  0  0  0  0  0  0  0  0  0  0
   26.4257  -19.6403  -10.2487 C   0  0  2  0  0  0  0  0  0  0  0  0
   26.0472  -20.8555  -11.1622 C   0  0  0  0  0  0  0  0  0  0  0  0
   24.9105  -21.4644  -10.4795 C   0  0  0  0  0  0  0  0  0  0  0  0
   26.0063  -20.3469  -12.5134 C   0  0  1  0  0  0  0  0  0  0  0  0
   27.1531  -20.0213  -13.3486 N   0  0  0  0  0  0  0  0  0  0  0  0
   26.6352  -19.5825  -14.6736 C   0  0  0  0  0  0  0  0  0  0  0  0
   28.1619  -21.0744  -13.5568 O   0  0  0  0  0  0  0  0  0  0  0  0
   29.3918  -21.1133  -12.9585 O   0  0  0  0  0  0  0  0  0  0  0  0
  1  2  1  0
  2  3  2  0
  4  2  1  0
  5  4  1  0
  6  5  1  0
  7  6  1  0
  8 10  1  0
  8  7  1  0
  8  9  1  6
 10 11  2  0
 10 16  1  0
 13 12  1  6
 13 14  1  0
 15 13  1  0
 15 16  1  1
 17 18  2  0
 17 15  1  0
 20 22  1  0
 20 19  1  1
 21 20  1  0
 23 22  1  1
 23 24  1  0
 24 17  1  0
 25 23  1  0
 26 25  1  0
 27 25  2  0
M  END
$$$$
