RVL.pdb
     RDKit          3D

 27 26  0  0  1  0  0  0  0  0999 V2000
   17.8783  -18.2722  -12.3424 N   0  0  0  0  0  0  0  0  0  0  0  0
   18.3443  -18.1142  -13.7210 C   0  0  0  0  0  0  0  0  0  0  0  0
   17.8766  -17.1820  -14.4359 N   0  0  0  0  0  0  0  0  0  0  0  0
   19.3177  -18.9869  -14.2443 N   0  0  0  0  0  0  0  0  0  0  0  0
   20.2966  -19.6994  -13.5336 C   0  0  0  0  0  0  0  0  0  0  0  0
   20.6537  -19.3270  -12.1538 C   0  0  0  0  0  0  0  0  0  0  0  0
   21.7150  -20.2313  -11.5936 C   0  0  0  0  0  0  0  0  0  0  0  0
   22.7557  -20.7339  -12.5344 C   0  0  2  0  0  0  0  0  0  0  0  0
   22.3029  -21.9256  -13.2440 N   0  0  0  0  0  0  0  0  0  0  0  0
   23.9246  -21.1996  -11.7179 C   0  0  0  0  0  0  0  0  0  0  0  0
   23.8800  -22.3394  -11.1718 O   0  0  0  0  0  0  0  0  0  0  0  0
   18.0804  -16.9877  -15.3952 C   0  0  0  0  0  0  0  0  0  0  0  0
   28.6647  -21.0924  -10.6466 C   0  0  2  0  0  0  0  0  0  0  0  0
   27.4935  -20.6758  -11.4926 C   0  0  0  0  0  0  0  0  0  0  0  0
   27.4395  -21.3533  -12.8186 C   0  0  1  0  0  0  0  0  0  0  0  0
   26.1918  -20.7849  -10.7234 N   0  0  0  0  0  0  0  0  0  0  0  0
   25.0691  -20.3967  -11.5467 C   0  0  0  0  0  0  0  0  0  0  0  0
   26.2629  -19.9163   -9.4883 O   0  0  0  0  0  0  0  0  0  0  0  0
   25.7444  -18.7732   -9.4837 C   0  0  0  0  0  0  0  0  0  0  0  0
   27.9613  -21.8889   -4.2540 C   0  0  2  0  0  0  0  0  0  0  0  0
   26.9485  -21.0455   -5.1010 C   0  0  0  0  0  0  0  0  0  0  0  0
   26.1243  -20.3795   -4.0979 C   0  0  0  0  0  0  0  0  0  0  0  0
   27.7334  -20.3541   -6.0970 C   0  0  2  0  0  0  0  0  0  0  0  0
   27.2220  -19.5036   -7.1619 N   0  0  0  0  0  0  0  0  0  0  0  0
   26.9108  -20.3777   -8.3261 C   0  0  0  0  0  0  0  0  0  0  0  0
   28.0786  -18.3941   -7.6150 O   0  0  0  0  0  0  0  0  0  0  0  0
   28.0177  -17.1113   -7.1430 O   0  0  0  0  0  0  0  0  0  0  0  0
  1  2  1  0
  2  3  2  0
  4  2  1  0
  5  4  1  0
  6  5  1  0
  7  6  1  0
  8 10  1  0
  8  7  1  0
  8  9  1  1
 10 11  2  0
 10 16  1  0
 13 12  1  6
 13 14  1  0
 15 13  1  0
 15 16  1  6
 17 18  2  0
 17 15  1  0
 20 22  1  0
 20 19  1  6
 21 20  1  0
 23 22  1  1
 23 24  1  0
 24 17  1  0
 25 23  1  0
 26 25  1  0
 27 25  2  0
M  END
$$$$
