RVL.pdb
     RDKit          3D

 27 26  0  0  1  0  0  0  0  0999 V2000
   17.3136  -30.6271   -3.9987 N   0  0  0  0  0  0  0  0  0  0  0  0
   15.8875  -30.7405   -4.3091 C   0  0  0  0  0  0  0  0  0  0  0  0
   15.1735  -31.5684   -3.6740 N   0  0  0  0  0  0  0  0  0  0  0  0
   15.3109  -29.9229   -5.3001 N   0  0  0  0  0  0  0  0  0  0  0  0
   15.9144  -28.8562   -5.9849 C   0  0  0  0  0  0  0  0  0  0  0  0
   15.3856  -27.4859   -5.8718 C   0  0  0  0  0  0  0  0  0  0  0  0
   16.1815  -26.5157   -6.6981 C   0  0  0  0  0  0  0  0  0  0  0  0
   15.8037  -25.0762   -6.6208 C   0  0  2  0  0  0  0  0  0  0  0  0
   16.6284  -24.2599   -7.5053 N   0  0  0  0  0  0  0  0  0  0  0  0
   16.1317  -24.5902   -5.2403 C   0  0  0  0  0  0  0  0  0  0  0  0
   17.2805  -24.1136   -5.0113 O   0  0  0  0  0  0  0  0  0  0  0  0
   14.1901  -31.7228   -3.7659 C   0  0  0  0  0  0  0  0  0  0  0  0
   14.3504  -21.9128   -3.3279 C   0  0  2  0  0  0  0  0  0  0  0  0
   14.3357  -23.1489   -2.4719 C   0  0  0  0  0  0  0  0  0  0  0  0
   12.9990  -23.8010   -2.3819 C   0  0  2  0  0  0  0  0  0  0  0  0
   15.4337  -24.1125   -2.8768 N   0  0  0  0  0  0  0  0  0  0  0  0
   15.1895  -24.6524   -4.1951 C   0  0  0  0  0  0  0  0  0  0  0  0
   15.5242  -25.2279   -1.8607 O   0  0  0  0  0  0  0  0  0  0  0  0
   14.7817  -26.2357   -1.9544 C   0  0  0  0  0  0  0  0  0  0  0  0
   20.3032  -27.1223   -0.2146 C   0  0  1  0  0  0  0  0  0  0  0  0
   18.8253  -27.1501   -0.7336 C   0  0  0  0  0  0  0  0  0  0  0  0
   18.6507  -28.5158   -1.2166 C   0  0  0  0  0  0  0  0  0  0  0  0
   18.0221  -26.5462    0.3039 C   0  0  2  0  0  0  0  0  0  0  0  0
   16.6044  -26.2264    0.2223 N   0  0  0  0  0  0  0  0  0  0  0  0
   16.4429  -25.1524   -0.7960 C   0  0  0  0  0  0  0  0  0  0  0  0
   15.9299  -25.8103    1.4641 O   0  0  0  0  0  0  0  0  0  0  0  0
   15.5354  -26.6558    2.4649 O   0  0  0  0  0  0  0  0  0  0  0  0
  1  2  1  0
  2  3  2  0
  4  2  1  0
  5  4  1  0
  6  5  1  0
  7  6  1  0
  8 10  1  0
  8  7  1  0
  8  9  1  6
 10 11  2  0
 10 16  1  0
 13 12  1  1
 13 14  1  0
 15 13  1  0
 15 16  1  1
 17 18  2  0
 17 15  1  0
 20 22  1  0
 20 19  1  6
 21 20  1  0
 23 22  1  6
 23 24  1  0
 24 17  1  0
 25 23  1  0
 26 25  1  0
 27 25  2  0
M  END
$$$$
