RVL.pdb
     RDKit          3D

 27 26  0  0  1  0  0  0  0  0999 V2000
   26.5193  -19.8884  -20.0197 N   0  0  0  0  0  0  0  0  0  0  0  0
   25.2638  -20.2294  -19.3489 C   0  0  0  0  0  0  0  0  0  0  0  0
   24.4778  -21.0649  -19.8809 N   0  0  0  0  0  0  0  0  0  0  0  0
   24.9388  -19.6407  -18.1117 N   0  0  0  0  0  0  0  0  0  0  0  0
   25.7263  -18.7623  -17.3507 C   0  0  0  0  0  0  0  0  0  0  0  0
   27.1257  -19.0871  -17.0246 C   0  0  0  0  0  0  0  0  0  0  0  0
   27.3630  -19.0845  -15.5408 C   0  0  0  0  0  0  0  0  0  0  0  0
   27.7565  -20.3740  -14.9060 C   0  0  2  0  0  0  0  0  0  0  0  0
   28.0786  -21.3853  -15.9071 N   0  0  0  0  0  0  0  0  0  0  0  0
   26.5555  -20.9174  -14.1904 C   0  0  0  0  0  0  0  0  0  0  0  0
   25.9024  -21.8653  -14.7143 O   0  0  0  0  0  0  0  0  0  0  0  0
   23.5867  -21.3660  -19.5421 C   0  0  0  0  0  0  0  0  0  0  0  0
   26.7806  -21.6992  -10.4840 C   0  0  2  0  0  0  0  0  0  0  0  0
   25.4542  -21.0221  -10.6919 C   0  0  0  0  0  0  0  0  0  0  0  0
   25.3503  -19.6899  -10.0328 C   0  0  2  0  0  0  0  0  0  0  0  0
   25.0802  -20.9821  -12.1604 N   0  0  0  0  0  0  0  0  0  0  0  0
   26.1401  -20.3964  -12.9495 C   0  0  0  0  0  0  0  0  0  0  0  0
   23.8008  -20.1957  -12.3326 O   0  0  0  0  0  0  0  0  0  0  0  0
   23.8332  -18.9469  -12.4552 C   0  0  0  0  0  0  0  0  0  0  0  0
   21.6146  -19.6759  -16.8091 C   0  0  2  0  0  0  0  0  0  0  0  0
   20.8214  -19.5708  -15.4623 C   0  0  0  0  0  0  0  0  0  0  0  0
   19.4851  -20.0450  -15.8064 C   0  0  0  0  0  0  0  0  0  0  0  0
   21.6612  -20.1708  -14.4518 C   0  0  1  0  0  0  0  0  0  0  0  0
   21.3516  -20.2970  -13.0351 N   0  0  0  0  0  0  0  0  0  0  0  0
   22.5556  -20.8530  -12.3588 C   0  0  0  0  0  0  0  0  0  0  0  0
   20.1801  -21.1103  -12.6662 O   0  0  0  0  0  0  0  0  0  0  0  0
   20.1680  -22.4757  -12.5782 O   0  0  0  0  0  0  0  0  0  0  0  0
  1  2  1  0
  2  3  2  0
  4  2  1  0
  5  4  1  0
  6  5  1  0
  7  6  1  0
  8 10  1  0
  8  7  1  0
  8  9  1  6
 10 11  2  0
 10 16  1  0
 13 12  1  1
 13 14  1  0
 15 13  1  0
 15 16  1  6
 17 18  2  0
 17 15  1  0
 20 22  1  0
 20 19  1  6
 21 20  1  0
 23 22  1  1
 23 24  1  0
 24 17  1  0
 25 23  1  0
 26 25  1  0
 27 25  2  0
M  END
$$$$
