RVL.pdb
     RDKit          3D

 27 26  0  0  1  0  0  0  0  0999 V2000
   20.8345  -18.6089  -15.3088 N   0  0  0  0  0  0  0  0  0  0  0  0
   19.6638  -17.7695  -15.0487 C   0  0  0  0  0  0  0  0  0  0  0  0
   18.9138  -17.4284  -16.0078 N   0  0  0  0  0  0  0  0  0  0  0  0
   19.3667  -17.3551  -13.7362 N   0  0  0  0  0  0  0  0  0  0  0  0
   20.1507  -17.5351  -12.5855 C   0  0  0  0  0  0  0  0  0  0  0  0
   19.8526  -18.6118  -11.6253 C   0  0  0  0  0  0  0  0  0  0  0  0
   21.1072  -19.1838  -11.0282 C   0  0  0  0  0  0  0  0  0  0  0  0
   21.9899  -19.9853  -11.9222 C   0  0  2  0  0  0  0  0  0  0  0  0
   21.2729  -21.1122  -12.5093 N   0  0  0  0  0  0  0  0  0  0  0  0
   23.0537  -20.6137  -11.0719 C   0  0  0  0  0  0  0  0  0  0  0  0
   22.7468  -21.5777  -10.3130 O   0  0  0  0  0  0  0  0  0  0  0  0
   18.1119  -16.8323  -15.9733 C   0  0  0  0  0  0  0  0  0  0  0  0
   27.6526  -22.0374  -11.0908 C   0  0  2  0  0  0  0  0  0  0  0  0
   26.5159  -21.2182  -11.6364 C   0  0  0  0  0  0  0  0  0  0  0  0
   25.9030  -21.7877  -12.8692 C   0  0  1  0  0  0  0  0  0  0  0  0
   25.4935  -20.9090  -10.5606 N   0  0  0  0  0  0  0  0  0  0  0  0
   24.3850  -20.1547  -11.1003 C   0  0  0  0  0  0  0  0  0  0  0  0
   26.1575  -20.1395   -9.4418 O   0  0  0  0  0  0  0  0  0  0  0  0
   25.5711  -19.1704   -8.9008 C   0  0  0  0  0  0  0  0  0  0  0  0
   27.6142  -20.5003   -4.3854 C   0  0  2  0  0  0  0  0  0  0  0  0
   27.4553  -19.3176   -5.4005 C   0  0  0  0  0  0  0  0  0  0  0  0
   28.5717  -18.4332   -5.0835 C   0  0  0  0  0  0  0  0  0  0  0  0
   27.2402  -19.9228   -6.6942 C   0  0  2  0  0  0  0  0  0  0  0  0
   28.1238  -19.8325   -7.8474 N   0  0  0  0  0  0  0  0  0  0  0  0
   27.4421  -20.4995   -8.9905 C   0  0  0  0  0  0  0  0  0  0  0  0
   29.4794  -20.3922   -7.7093 O   0  0  0  0  0  0  0  0  0  0  0  0
   29.8455  -21.6612   -8.0669 O   0  0  0  0  0  0  0  0  0  0  0  0
  1  2  1  0
  2  3  2  0
  4  2  1  0
  5  4  1  0
  6  5  1  0
  7  6  1  0
  8 10  1  0
  8  7  1  0
  8  9  1  1
 10 11  2  0
 10 16  1  0
 13 12  1  6
 13 14  1  0
 15 13  1  0
 15 16  1  6
 17 18  2  0
 17 15  1  0
 20 22  1  0
 20 19  1  1
 21 20  1  0
 23 22  1  6
 23 24  1  0
 24 17  1  0
 25 23  1  0
 26 25  1  0
 27 25  2  0
M  END
$$$$
