GRF.pdb
     RDKit          3D

 27 27  0  0  1  0  0  0  0  0999 V2000
   29.2853  -21.6211  -17.2569 N   0  0  0  0  0  0  0  0  0  0  0  0
   29.5073  -22.8227  -16.5191 C   0  0  0  0  0  0  0  0  0  0  0  0
   28.5589  -23.9132  -16.9303 C   0  0  0  0  0  0  0  0  0  0  0  0
   27.6131  -23.6375  -17.6765 O   0  0  0  0  0  0  0  0  0  0  0  0
   29.0127  -30.8875  -19.9248 N   0  0  0  0  0  0  0  0  0  0  0  0
   29.9744  -30.6014  -18.9096 C   0  0  0  0  0  0  0  0  0  0  0  0
   31.2430  -30.7304  -19.1332 N   0  0  0  0  0  0  0  0  0  0  0  0
   29.5683  -30.1668  -17.6223 N   0  0  0  0  0  0  0  0  0  0  0  0
   28.1344  -30.1804  -17.2592 C   0  0  0  0  0  0  0  0  0  0  0  0
   27.5862  -28.8033  -17.2578 C   0  0  0  0  0  0  0  0  0  0  0  0
   28.4302  -27.6958  -16.7859 C   0  0  0  0  0  0  0  0  0  0  0  0
   27.8420  -26.3144  -16.8048 C   0  0  2  0  0  0  0  0  0  0  0  0
   28.7324  -25.2460  -16.4770 N   0  0  0  0  0  0  0  0  0  0  0  0
   26.5590  -26.2836  -16.0839 C   0  0  0  0  0  0  0  0  0  0  0  0
   26.5482  -26.4289  -14.8468 O   0  0  0  0  0  0  0  0  0  0  0  0
   31.9031  -30.5443  -18.3472 N   0  0  0  0  0  0  0  0  0  0  0  0
   25.3550  -26.0907  -16.7889 C   0  0  1  0  0  0  0  0  0  0  0  0
   24.0750  -25.9871  -16.0757 C   0  0  0  0  0  0  0  0  0  0  0  0
   24.1041  -24.7982  -15.1361 C   0  0  0  0  0  0  0  0  0  0  0  0
   22.8020  -24.5154  -14.5049 C   0  0  0  0  0  0  0  0  0  0  0  0
   21.9309  -23.5523  -14.9817 C   0  0  0  0  0  0  0  0  0  0  0  0
   20.7340  -23.3133  -14.3904 C   0  0  0  0  0  0  0  0  0  0  0  0
   20.3803  -24.0527  -13.2845 C   0  0  0  0  0  0  0  0  0  0  0  0
   21.2414  -25.0221  -12.7933 C   0  0  0  0  0  0  0  0  0  0  0  0
   22.4488  -25.2574  -13.3968 C   0  0  0  0  0  0  0  0  0  0  0  0
   22.9949  -25.9140  -17.0682 O   0  0  0  0  0  0  0  0  0  0  0  0
   23.1554  -25.2894  -18.1728 O   0  0  0  0  0  0  0  0  0  0  0  0
  2  1  1  0
  3  2  1  0
  3 13  1  0
  4  3  2  0
  5  6  1  0
  6  8  1  0
  6  7  2  0
  8  9  1  0
  9 10  1  0
 12 11  1  1
 11 10  1  0
 13 12  1  0
 14 15  2  0
 14 12  1  0
 16 14  1  0
 17 16  1  0
 17 25  1  0
 17 18  1  6
 19 18  1  0
 20 19  2  0
 21 20  1  0
 22 23  1  0
 22 21  2  0
 23 24  2  0
 24 19  1  0
 25 26  2  0
 25 27  1  0
M  END
$$$$
