GRF.pdb
     RDKit          3D

 27 27  0  0  1  0  0  0  0  0999 V2000
   20.7478  -31.9969   -2.8293 N   0  0  0  0  0  0  0  0  0  0  0  0
   19.6171  -31.2994   -3.3513 C   0  0  0  0  0  0  0  0  0  0  0  0
   19.4315  -29.9633   -2.6896 C   0  0  0  0  0  0  0  0  0  0  0  0
   20.0856  -29.6990   -1.6748 O   0  0  0  0  0  0  0  0  0  0  0  0
   16.4501  -23.6309   -7.6318 N   0  0  0  0  0  0  0  0  0  0  0  0
   17.5326  -24.5171   -7.9151 C   0  0  0  0  0  0  0  0  0  0  0  0
   18.1465  -24.4820   -9.0545 N   0  0  0  0  0  0  0  0  0  0  0  0
   17.9691  -25.4651   -6.9552 N   0  0  0  0  0  0  0  0  0  0  0  0
   17.3896  -25.4548   -5.5942 C   0  0  0  0  0  0  0  0  0  0  0  0
   18.0608  -26.4604   -4.7367 C   0  0  0  0  0  0  0  0  0  0  0  0
   17.5186  -26.7386   -3.3987 C   0  0  0  0  0  0  0  0  0  0  0  0
   18.2213  -27.7690   -2.5625 C   0  0  2  0  0  0  0  0  0  0  0  0
   18.5220  -29.0070   -3.2095 N   0  0  0  0  0  0  0  0  0  0  0  0
   17.5705  -27.9079   -1.2496 C   0  0  0  0  0  0  0  0  0  0  0  0
   16.5127  -28.5592   -1.1566 O   0  0  0  0  0  0  0  0  0  0  0  0
   18.8533  -25.2223   -9.2561 N   0  0  0  0  0  0  0  0  0  0  0  0
   18.1409  -27.3092   -0.1095 C   0  0  2  0  0  0  0  0  0  0  0  0
   17.4854  -27.4127    1.2010 C   0  0  0  0  0  0  0  0  0  0  0  0
   18.5239  -27.6524    2.2785 C   0  0  0  0  0  0  0  0  0  0  0  0
   19.5236  -26.5737    2.3823 C   0  0  0  0  0  0  0  0  0  0  0  0
   20.5341  -26.3959    1.4544 C   0  0  0  0  0  0  0  0  0  0  0  0
   21.4392  -25.3920    1.5647 C   0  0  0  0  0  0  0  0  0  0  0  0
   21.3457  -24.5277    2.6320 C   0  0  0  0  0  0  0  0  0  0  0  0
   20.3389  -24.6913    3.5713 C   0  0  0  0  0  0  0  0  0  0  0  0
   19.4283  -25.7082    3.4525 C   0  0  0  0  0  0  0  0  0  0  0  0
   16.6931  -26.1959    1.4213 O   0  0  0  0  0  0  0  0  0  0  0  0
   15.8693  -26.1128    2.3963 O   0  0  0  0  0  0  0  0  0  0  0  0
  2  1  1  0
  3  2  1  0
  3 13  1  0
  4  3  2  0
  5  6  1  0
  6  8  1  0
  6  7  2  0
  8  9  1  0
  9 10  1  0
 12 11  1  6
 11 10  1  0
 13 12  1  0
 14 15  2  0
 14 12  1  0
 16 14  1  0
 17 16  1  0
 17 25  1  0
 17 18  1  6
 19 18  1  0
 20 19  2  0
 21 20  1  0
 22 23  1  0
 22 21  2  0
 23 24  2  0
 24 19  1  0
 25 26  2  0
 25 27  1  0
M  END
$$$$
