GRF.pdb
     RDKit          3D

 27 27  0  0  1  0  0  0  0  0999 V2000
   25.3576  -26.7052  -13.3348 N   0  0  0  0  0  0  0  0  0  0  0  0
   24.1881  -26.0829  -13.8664 C   0  0  0  0  0  0  0  0  0  0  0  0
   24.3063  -24.5850  -13.8708 C   0  0  0  0  0  0  0  0  0  0  0  0
   24.7246  -24.0120  -12.8588 O   0  0  0  0  0  0  0  0  0  0  0  0
   26.7822  -20.0675  -19.4055 N   0  0  0  0  0  0  0  0  0  0  0  0
   25.6436  -20.8781  -19.6953 C   0  0  0  0  0  0  0  0  0  0  0  0
   25.6670  -21.7477  -20.6541 N   0  0  0  0  0  0  0  0  0  0  0  0
   24.4497  -20.7548  -18.9402 N   0  0  0  0  0  0  0  0  0  0  0  0
   24.3456  -19.7163  -17.8920 C   0  0  0  0  0  0  0  0  0  0  0  0
   24.2513  -20.3402  -16.5508 C   0  0  0  0  0  0  0  0  0  0  0  0
   24.2121  -21.8060  -16.4427 C   0  0  0  0  0  0  0  0  0  0  0  0
   24.0401  -22.3994  -15.0742 C   0  0  2  0  0  0  0  0  0  0  0  0
   23.9467  -23.8240  -15.0125 N   0  0  0  0  0  0  0  0  0  0  0  0
   22.9946  -21.6855  -14.3234 C   0  0  0  0  0  0  0  0  0  0  0  0
   21.8297  -22.1266  -14.3259 O   0  0  0  0  0  0  0  0  0  0  0  0
   24.7887  -22.2681  -20.8686 N   0  0  0  0  0  0  0  0  0  0  0  0
   23.3110  -20.5140  -13.6085 C   0  0  2  0  0  0  0  0  0  0  0  0
   22.3002  -19.8430  -12.7803 C   0  0  0  0  0  0  0  0  0  0  0  0
   22.9803  -18.9984  -11.7214 C   0  0  0  0  0  0  0  0  0  0  0  0
   23.4602  -19.7783  -10.5658 C   0  0  0  0  0  0  0  0  0  0  0  0
   22.6278  -20.1882   -9.5398 C   0  0  0  0  0  0  0  0  0  0  0  0
   23.0885  -20.9117   -8.4893 C   0  0  0  0  0  0  0  0  0  0  0  0
   24.4233  -21.2454   -8.4472 C   0  0  0  0  0  0  0  0  0  0  0  0
   25.2718  -20.8428   -9.4673 C   0  0  0  0  0  0  0  0  0  0  0  0
   24.7983  -20.1121  -10.5252 C   0  0  0  0  0  0  0  0  0  0  0  0
   21.4186  -19.0665  -13.6616 O   0  0  0  0  0  0  0  0  0  0  0  0
   21.8495  -18.5801  -14.7633 O   0  0  0  0  0  0  0  0  0  0  0  0
  2  1  1  0
  3  2  1  0
  3 13  1  0
  4  3  2  0
  5  6  1  0
  6  8  1  0
  6  7  2  0
  8  9  1  0
  9 10  1  0
 12 11  1  6
 11 10  1  0
 13 12  1  0
 14 15  2  0
 14 12  1  0
 16 14  1  0
 17 16  1  0
 17 25  1  0
 17 18  1  1
 19 18  1  0
 20 19  2  0
 21 20  1  0
 22 23  1  0
 22 21  2  0
 23 24  2  0
 24 19  1  0
 25 26  2  0
 25 27  1  0
M  END
$$$$
