GRF.pdb
     RDKit          3D

 27 27  0  0  1  0  0  0  0  0999 V2000
   24.2544  -31.1352  -15.9359 N   0  0  0  0  0  0  0  0  0  0  0  0
   24.8788  -30.4481  -17.0201 C   0  0  0  0  0  0  0  0  0  0  0  0
   25.2377  -29.0359  -16.6531 C   0  0  0  0  0  0  0  0  0  0  0  0
   24.4279  -28.3572  -16.0118 O   0  0  0  0  0  0  0  0  0  0  0  0
   32.3574  -26.0156  -17.6628 N   0  0  0  0  0  0  0  0  0  0  0  0
   31.7303  -25.3033  -16.5966 C   0  0  0  0  0  0  0  0  0  0  0  0
   31.8764  -24.0232  -16.4690 N   0  0  0  0  0  0  0  0  0  0  0  0
   30.9267  -25.9778  -15.6426 N   0  0  0  0  0  0  0  0  0  0  0  0
   30.6508  -27.4223  -15.8022 C   0  0  0  0  0  0  0  0  0  0  0  0
   29.1899  -27.6706  -15.8387 C   0  0  0  0  0  0  0  0  0  0  0  0
   28.3450  -26.8522  -16.7206 C   0  0  0  0  0  0  0  0  0  0  0  0
   26.8697  -27.1316  -16.7282 C   0  0  2  0  0  0  0  0  0  0  0  0
   26.4844  -28.4742  -17.0298 N   0  0  0  0  0  0  0  0  0  0  0  0
   26.1475  -26.1021  -17.4930 C   0  0  0  0  0  0  0  0  0  0  0  0
   26.0315  -26.2251  -18.7272 O   0  0  0  0  0  0  0  0  0  0  0  0
   31.3677  -23.5442  -15.6944 N   0  0  0  0  0  0  0  0  0  0  0  0
   25.5926  -24.9885  -16.8330 C   0  0  2  0  0  0  0  0  0  0  0  0
   24.8246  -23.9806  -17.5759 C   0  0  0  0  0  0  0  0  0  0  0  0
   23.3661  -24.3881  -17.6390 C   0  0  0  0  0  0  0  0  0  0  0  0
   22.7234  -24.4804  -16.3153 C   0  0  0  0  0  0  0  0  0  0  0  0
   22.2631  -23.3727  -15.6262 C   0  0  0  0  0  0  0  0  0  0  0  0
   21.6677  -23.4807  -14.4125 C   0  0  0  0  0  0  0  0  0  0  0  0
   21.5193  -24.7302  -13.8544 C   0  0  0  0  0  0  0  0  0  0  0  0
   21.9748  -25.8513  -14.5314 C   0  0  0  0  0  0  0  0  0  0  0  0
   22.5752  -25.7335  -15.7574 C   0  0  0  0  0  0  0  0  0  0  0  0
   25.0333  -22.6743  -16.9379 O   0  0  0  0  0  0  0  0  0  0  0  0
   25.7311  -22.5652  -15.8715 O   0  0  0  0  0  0  0  0  0  0  0  0
  2  1  1  0
  3  2  1  0
  3 13  1  0
  4  3  2  0
  5  6  1  0
  6  8  1  0
  6  7  2  0
  8  9  1  0
  9 10  1  0
 12 11  1  6
 11 10  1  0
 13 12  1  0
 14 15  2  0
 14 12  1  0
 16 14  1  0
 17 16  1  0
 17 25  1  0
 17 18  1  1
 19 18  1  0
 20 19  2  0
 21 20  1  0
 22 23  1  0
 22 21  2  0
 23 24  2  0
 24 19  1  0
 25 26  2  0
 25 27  1  0
M  END
$$$$
