GRF.pdb
     RDKit          3D

 27 27  0  0  1  0  0  0  0  0999 V2000
   25.5388  -15.4774  -17.2103 N   0  0  0  0  0  0  0  0  0  0  0  0
   25.9060  -16.2495  -16.0673 C   0  0  0  0  0  0  0  0  0  0  0  0
   25.1432  -17.5422  -15.9987 C   0  0  0  0  0  0  0  0  0  0  0  0
   23.9276  -17.5354  -16.2219 O   0  0  0  0  0  0  0  0  0  0  0  0
   26.5390  -24.8148  -15.7311 N   0  0  0  0  0  0  0  0  0  0  0  0
   26.2441  -24.6032  -17.1115 C   0  0  0  0  0  0  0  0  0  0  0  0
   25.4214  -25.3751  -17.7468 N   0  0  0  0  0  0  0  0  0  0  0  0
   26.8449  -23.5389  -17.8306 N   0  0  0  0  0  0  0  0  0  0  0  0
   27.6378  -22.5189  -17.1099 C   0  0  0  0  0  0  0  0  0  0  0  0
   26.8267  -21.3004  -16.8768 C   0  0  0  0  0  0  0  0  0  0  0  0
   25.9326  -21.2460  -15.7110 C   0  0  0  0  0  0  0  0  0  0  0  0
   25.1079  -20.0054  -15.5225 C   0  0  2  0  0  0  0  0  0  0  0  0
   25.7940  -18.7624  -15.6833 N   0  0  0  0  0  0  0  0  0  0  0  0
   24.2940  -20.1006  -14.2998 C   0  0  0  0  0  0  0  0  0  0  0  0
   24.8281  -19.9026  -13.1920 O   0  0  0  0  0  0  0  0  0  0  0  0
   25.1879  -25.1386  -18.7355 N   0  0  0  0  0  0  0  0  0  0  0  0
   22.9231  -20.4123  -14.3840 C   0  0  2  0  0  0  0  0  0  0  0  0
   22.0960  -20.4968  -13.1730 C   0  0  0  0  0  0  0  0  0  0  0  0
   21.3437  -19.1965  -12.9717 C   0  0  0  0  0  0  0  0  0  0  0  0
   20.3615  -19.2492  -11.8733 C   0  0  0  0  0  0  0  0  0  0  0  0
   20.7058  -19.0463  -10.5489 C   0  0  0  0  0  0  0  0  0  0  0  0
   19.7849  -19.0917   -9.5544 C   0  0  0  0  0  0  0  0  0  0  0  0
   18.4713  -19.3471   -9.8769 C   0  0  0  0  0  0  0  0  0  0  0  0
   18.1086  -19.5527  -11.1993 C   0  0  0  0  0  0  0  0  0  0  0  0
   19.0453  -19.5051  -12.1982 C   0  0  0  0  0  0  0  0  0  0  0  0
   21.2125  -21.6637  -13.2945 O   0  0  0  0  0  0  0  0  0  0  0  0
   20.8290  -22.0842  -14.4399 O   0  0  0  0  0  0  0  0  0  0  0  0
  2  1  1  0
  3  2  1  0
  3 13  1  0
  4  3  2  0
  5  6  1  0
  6  8  1  0
  6  7  2  0
  8  9  1  0
  9 10  1  0
 12 11  1  1
 11 10  1  0
 13 12  1  0
 14 15  2  0
 14 12  1  0
 16 14  1  0
 17 16  1  0
 17 25  1  0
 17 18  1  6
 19 18  1  0
 20 19  2  0
 21 20  1  0
 22 23  1  0
 22 21  2  0
 23 24  2  0
 24 19  1  0
 25 26  2  0
 25 27  1  0
M  END
$$$$
