GRF.pdb
     RDKit          3D

 27 27  0  0  1  0  0  0  0  0999 V2000
   20.6433  -20.8882  -12.0645 N   0  0  0  0  0  0  0  0  0  0  0  0
   21.7950  -20.0938  -12.3473 C   0  0  0  0  0  0  0  0  0  0  0  0
   23.0327  -20.6587  -11.7097 C   0  0  0  0  0  0  0  0  0  0  0  0
   22.9170  -21.5272  -10.8381 O   0  0  0  0  0  0  0  0  0  0  0  0
   26.8415  -21.9226  -16.2869 N   0  0  0  0  0  0  0  0  0  0  0  0
   28.0798  -22.1568  -15.6168 C   0  0  0  0  0  0  0  0  0  0  0  0
   28.7488  -23.2486  -15.8078 N   0  0  0  0  0  0  0  0  0  0  0  0
   28.6158  -21.1986  -14.7194 N   0  0  0  0  0  0  0  0  0  0  0  0
   27.8915  -19.9319  -14.4763 C   0  0  0  0  0  0  0  0  0  0  0  0
   26.6673  -20.1790  -13.6779 C   0  0  0  0  0  0  0  0  0  0  0  0
   26.7936  -20.4680  -12.2420 C   0  0  0  0  0  0  0  0  0  0  0  0
   25.5284  -20.6379  -11.4514 C   0  0  2  0  0  0  0  0  0  0  0  0
   24.3238  -20.2121  -12.0913 N   0  0  0  0  0  0  0  0  0  0  0  0
   25.7002  -20.1382  -10.0777 C   0  0  0  0  0  0  0  0  0  0  0  0
   25.3610  -18.9713   -9.8039 O   0  0  0  0  0  0  0  0  0  0  0  0
   29.6297  -23.3876  -15.2667 N   0  0  0  0  0  0  0  0  0  0  0  0
   26.2432  -20.9741   -9.0827 C   0  0  2  0  0  0  0  0  0  0  0  0
   26.5519  -20.4486   -7.7461 C   0  0  0  0  0  0  0  0  0  0  0  0
   27.3138  -21.4876   -6.9479 C   0  0  0  0  0  0  0  0  0  0  0  0
   27.8644  -20.9694   -5.6821 C   0  0  0  0  0  0  0  0  0  0  0  0
   27.1552  -20.9832   -4.4944 C   0  0  0  0  0  0  0  0  0  0  0  0
   27.6835  -20.5083   -3.3392 C   0  0  0  0  0  0  0  0  0  0  0  0
   28.9623  -19.9991   -3.3538 C   0  0  0  0  0  0  0  0  0  0  0  0
   29.6874  -19.9777   -4.5355 C   0  0  0  0  0  0  0  0  0  0  0  0
   29.1462  -20.4596   -5.6983 C   0  0  0  0  0  0  0  0  0  0  0  0
   27.2856  -19.1859   -7.9016 O   0  0  0  0  0  0  0  0  0  0  0  0
   28.2852  -19.0972   -8.6947 O   0  0  0  0  0  0  0  0  0  0  0  0
  2  1  1  0
  3  2  1  0
  3 13  1  0
  4  3  2  0
  5  6  1  0
  6  8  1  0
  6  7  2  0
  8  9  1  0
  9 10  1  0
 12 11  1  6
 11 10  1  0
 13 12  1  0
 14 15  2  0
 14 12  1  0
 16 14  1  0
 17 16  1  0
 17 25  1  0
 17 18  1  1
 19 18  1  0
 20 19  2  0
 21 20  1  0
 22 23  1  0
 22 21  2  0
 23 24  2  0
 24 19  1  0
 25 26  2  0
 25 27  1  0
M  END
$$$$
