GRF.pdb
     RDKit          3D

 27 27  0  0  1  0  0  0  0  0999 V2000
   27.1004  -19.3801   -6.5675 N   0  0  0  0  0  0  0  0  0  0  0  0
   26.7924  -20.5540   -7.3188 C   0  0  0  0  0  0  0  0  0  0  0  0
   26.4652  -20.2311   -8.7493 C   0  0  0  0  0  0  0  0  0  0  0  0
   25.7542  -19.2509   -8.9967 O   0  0  0  0  0  0  0  0  0  0  0  0
   31.3984  -23.2728  -12.5911 N   0  0  0  0  0  0  0  0  0  0  0  0
   31.8440  -22.5448  -11.4470 C   0  0  0  0  0  0  0  0  0  0  0  0
   33.0746  -22.6091  -11.0497 N   0  0  0  0  0  0  0  0  0  0  0  0
   30.9504  -21.7276  -10.7092 N   0  0  0  0  0  0  0  0  0  0  0  0
   29.4950  -21.9845  -10.7728 C   0  0  0  0  0  0  0  0  0  0  0  0
   28.9088  -21.3532  -11.9790 C   0  0  0  0  0  0  0  0  0  0  0  0
   27.4608  -21.4573  -12.2113 C   0  0  0  0  0  0  0  0  0  0  0  0
   26.5449  -20.8772  -11.1724 C   0  0  2  0  0  0  0  0  0  0  0  0
   26.9573  -21.0301   -9.8129 N   0  0  0  0  0  0  0  0  0  0  0  0
   25.1485  -21.2618  -11.4344 C   0  0  0  0  0  0  0  0  0  0  0  0
   24.4401  -21.6721  -10.4955 O   0  0  0  0  0  0  0  0  0  0  0  0
   33.3432  -22.0806  -10.1914 N   0  0  0  0  0  0  0  0  0  0  0  0
   24.6197  -21.1654  -12.7362 C   0  0  1  0  0  0  0  0  0  0  0  0
   23.1828  -20.9472  -12.9493 C   0  0  0  0  0  0  0  0  0  0  0  0
   22.7452  -19.6774  -12.2470 C   0  0  0  0  0  0  0  0  0  0  0  0
   21.3199  -19.3565  -12.4459 C   0  0  0  0  0  0  0  0  0  0  0  0
   20.3148  -19.8850  -11.6559 C   0  0  0  0  0  0  0  0  0  0  0  0
   19.0102  -19.5706  -11.8512 C   0  0  0  0  0  0  0  0  0  0  0  0
   18.6816  -18.7001  -12.8656 C   0  0  0  0  0  0  0  0  0  0  0  0
   19.6764  -18.1608  -13.6669 C   0  0  0  0  0  0  0  0  0  0  0  0
   20.9923  -18.4836  -13.4629 C   0  0  0  0  0  0  0  0  0  0  0  0
   22.9254  -20.9270  -14.3951 O   0  0  0  0  0  0  0  0  0  0  0  0
   23.7627  -20.4017  -15.2068 O   0  0  0  0  0  0  0  0  0  0  0  0
  2  1  1  0
  3  2  1  0
  3 13  1  0
  4  3  2  0
  5  6  1  0
  6  8  1  0
  6  7  2  0
  8  9  1  0
  9 10  1  0
 12 11  1  6
 11 10  1  0
 13 12  1  0
 14 15  2  0
 14 12  1  0
 16 14  1  0
 17 16  1  0
 17 25  1  0
 17 18  1  1
 19 18  1  0
 20 19  2  0
 21 20  1  0
 22 23  1  0
 22 21  2  0
 23 24  2  0
 24 19  1  0
 25 26  2  0
 25 27  1  0
M  END
$$$$
