GRF.pdb
     RDKit          3D

 27 27  0  0  1  0  0  0  0  0999 V2000
   26.5955  -25.7793  -16.8660 N   0  0  0  0  0  0  0  0  0  0  0  0
   26.7524  -24.4122  -16.4866 C   0  0  0  0  0  0  0  0  0  0  0  0
   25.5144  -23.8696  -15.8303 C   0  0  0  0  0  0  0  0  0  0  0  0
   24.4091  -24.2840  -16.1965 O   0  0  0  0  0  0  0  0  0  0  0  0
   23.6647  -20.6361   -8.8948 N   0  0  0  0  0  0  0  0  0  0  0  0
   25.0566  -20.7903   -9.1707 C   0  0  0  0  0  0  0  0  0  0  0  0
   25.8860  -21.1580   -8.2470 N   0  0  0  0  0  0  0  0  0  0  0  0
   25.5744  -20.5447  -10.4678 N   0  0  0  0  0  0  0  0  0  0  0  0
   24.8670  -19.6191  -11.3795 C   0  0  0  0  0  0  0  0  0  0  0  0
   24.6448  -20.2586  -12.6982 C   0  0  0  0  0  0  0  0  0  0  0  0
   24.6937  -21.7243  -12.8020 C   0  0  0  0  0  0  0  0  0  0  0  0
   24.4531  -22.3357  -14.1521 C   0  0  2  0  0  0  0  0  0  0  0  0
   25.5956  -22.8947  -14.8032 N   0  0  0  0  0  0  0  0  0  0  0  0
   23.6476  -21.4378  -14.9956 C   0  0  0  0  0  0  0  0  0  0  0  0
   24.2078  -20.5135  -15.6149 O   0  0  0  0  0  0  0  0  0  0  0  0
   26.9001  -21.2067   -8.4865 N   0  0  0  0  0  0  0  0  0  0  0  0
   22.2555  -21.6242  -15.1005 C   0  0  2  0  0  0  0  0  0  0  0  0
   21.4436  -20.7538  -15.9613 C   0  0  0  0  0  0  0  0  0  0  0  0
   20.9244  -21.5421  -17.1471 C   0  0  0  0  0  0  0  0  0  0  0  0
   19.9269  -22.5647  -16.7823 C   0  0  0  0  0  0  0  0  0  0  0  0
   20.2476  -23.9003  -16.6181 C   0  0  0  0  0  0  0  0  0  0  0  0
   19.3155  -24.8237  -16.2748 C   0  0  0  0  0  0  0  0  0  0  0  0
   18.0147  -24.4156  -16.0853 C   0  0  0  0  0  0  0  0  0  0  0  0
   17.6758  -23.0806  -16.2456 C   0  0  0  0  0  0  0  0  0  0  0  0
   18.6235  -22.1540  -16.5925 C   0  0  0  0  0  0  0  0  0  0  0  0
   20.3743  -20.1621  -15.1469 O   0  0  0  0  0  0  0  0  0  0  0  0
   19.5400  -19.3355  -15.6535 O   0  0  0  0  0  0  0  0  0  0  0  0
  2  1  1  0
  3  2  1  0
  3 13  1  0
  4  3  2  0
  5  6  1  0
  6  8  1  0
  6  7  2  0
  8  9  1  0
  9 10  1  0
 12 11  1  1
 11 10  1  0
 13 12  1  0
 14 15  2  0
 14 12  1  0
 16 14  1  0
 17 16  1  0
 17 25  1  0
 17 18  1  6
 19 18  1  0
 20 19  2  0
 21 20  1  0
 22 23  1  0
 22 21  2  0
 23 24  2  0
 24 19  1  0
 25 26  2  0
 25 27  1  0
M  END
$$$$
