GRF.pdb
     RDKit          3D

 27 27  0  0  1  0  0  0  0  0999 V2000
   15.0380   -7.0999   -7.2336 N   0  0  0  0  0  0  0  0  0  0  0  0
   14.8324   -6.8215   -8.6184 C   0  0  0  0  0  0  0  0  0  0  0  0
   15.7800   -7.5961   -9.4900 C   0  0  0  0  0  0  0  0  0  0  0  0
   16.9642   -7.6957   -9.1502 O   0  0  0  0  0  0  0  0  0  0  0  0
   11.9496  -12.3852  -15.1023 N   0  0  0  0  0  0  0  0  0  0  0  0
   13.3421  -12.1771  -15.3372 C   0  0  0  0  0  0  0  0  0  0  0  0
   13.8770  -12.4551  -16.4830 N   0  0  0  0  0  0  0  0  0  0  0  0
   14.1836  -11.6589  -14.3204 N   0  0  0  0  0  0  0  0  0  0  0  0
   13.6177  -11.3286  -12.9941 C   0  0  0  0  0  0  0  0  0  0  0  0
   14.6675  -10.7771  -12.1048 C   0  0  0  0  0  0  0  0  0  0  0  0
   15.5837   -9.7523  -12.6262 C   0  0  0  0  0  0  0  0  0  0  0  0
   16.2182   -8.8169  -11.6378 C   0  0  2  0  0  0  0  0  0  0  0  0
   15.3380   -8.2105  -10.6895 N   0  0  0  0  0  0  0  0  0  0  0  0
   17.1260   -7.8778  -12.3165 C   0  0  0  0  0  0  0  0  0  0  0  0
   16.6894   -6.7782  -12.7065 O   0  0  0  0  0  0  0  0  0  0  0  0
   14.9096  -12.3468  -16.5837 N   0  0  0  0  0  0  0  0  0  0  0  0
   18.4764   -8.2213  -12.5216 C   0  0  2  0  0  0  0  0  0  0  0  0
   19.3900   -7.2995  -13.2097 C   0  0  0  0  0  0  0  0  0  0  0  0
   20.8181   -7.5778  -12.7852 C   0  0  0  0  0  0  0  0  0  0  0  0
   21.8232   -6.8868  -13.6135 C   0  0  0  0  0  0  0  0  0  0  0  0
   22.5322   -7.5215  -14.6176 C   0  0  0  0  0  0  0  0  0  0  0  0
   23.4473   -6.8650  -15.3732 C   0  0  0  0  0  0  0  0  0  0  0  0
   23.6735   -5.5291  -15.1306 C   0  0  0  0  0  0  0  0  0  0  0  0
   22.9715   -4.8772  -14.1281 C   0  0  0  0  0  0  0  0  0  0  0  0
   22.0486   -5.5478  -13.3692 C   0  0  0  0  0  0  0  0  0  0  0  0
   19.1803   -7.4321  -14.6573 O   0  0  0  0  0  0  0  0  0  0  0  0
   18.9376   -8.5708  -15.1870 O   0  0  0  0  0  0  0  0  0  0  0  0
  2  1  1  0
  3  2  1  0
  3 13  1  0
  4  3  2  0
  5  6  1  0
  6  8  1  0
  6  7  2  0
  8  9  1  0
  9 10  1  0
 12 11  1  6
 11 10  1  0
 13 12  1  0
 14 15  2  0
 14 12  1  0
 16 14  1  0
 17 16  1  0
 17 25  1  0
 17 18  1  1
 19 18  1  0
 20 19  2  0
 21 20  1  0
 22 23  1  0
 22 21  2  0
 23 24  2  0
 24 19  1  0
 25 26  2  0
 25 27  1  0
M  END
$$$$
