GRF.pdb
     RDKit          3D

 27 27  0  0  1  0  0  0  0  0999 V2000
   18.6677  -20.8507  -11.1603 N   0  0  0  0  0  0  0  0  0  0  0  0
   19.5547  -20.0739  -11.9647 C   0  0  0  0  0  0  0  0  0  0  0  0
   20.9241  -20.6879  -12.0377 C   0  0  0  0  0  0  0  0  0  0  0  0
   21.3577  -21.3081  -11.0606 O   0  0  0  0  0  0  0  0  0  0  0  0
   27.8368  -20.7078  -15.5190 N   0  0  0  0  0  0  0  0  0  0  0  0
   27.8789  -22.1137  -15.7616 C   0  0  0  0  0  0  0  0  0  0  0  0
   28.9719  -22.7888  -15.6008 N   0  0  0  0  0  0  0  0  0  0  0  0
   26.7223  -22.8151  -16.1873 N   0  0  0  0  0  0  0  0  0  0  0  0
   25.4192  -22.1177  -16.2477 C   0  0  0  0  0  0  0  0  0  0  0  0
   24.8888  -21.8898  -14.8825 C   0  0  0  0  0  0  0  0  0  0  0  0
   23.5477  -21.3092  -14.7217 C   0  0  0  0  0  0  0  0  0  0  0  0
   23.0364  -21.1129  -13.3236 C   0  0  2  0  0  0  0  0  0  0  0  0
   21.7214  -20.5666  -13.2046 N   0  0  0  0  0  0  0  0  0  0  0  0
   24.0503  -20.4533  -12.4849 C   0  0  0  0  0  0  0  0  0  0  0  0
   24.1608  -19.2131  -12.5195 O   0  0  0  0  0  0  0  0  0  0  0  0
   28.9420  -23.8194  -15.7592 N   0  0  0  0  0  0  0  0  0  0  0  0
   24.8870  -21.2199  -11.6507 C   0  0  2  0  0  0  0  0  0  0  0  0
   25.9668  -20.5860  -10.8826 C   0  0  0  0  0  0  0  0  0  0  0  0
   26.0617  -21.2192   -9.5089 C   0  0  0  0  0  0  0  0  0  0  0  0
   27.0827  -20.5991   -8.6446 C   0  0  0  0  0  0  0  0  0  0  0  0
   26.8042  -19.5462   -7.7917 C   0  0  0  0  0  0  0  0  0  0  0  0
   27.7569  -18.9951   -6.9993 C   0  0  0  0  0  0  0  0  0  0  0  0
   29.0360  -19.5015   -7.0484 C   0  0  0  0  0  0  0  0  0  0  0  0
   29.3325  -20.5568   -7.8975 C   0  0  0  0  0  0  0  0  0  0  0  0
   28.3641  -21.1079   -8.6948 C   0  0  0  0  0  0  0  0  0  0  0  0
   27.2109  -20.6920  -11.6558 O   0  0  0  0  0  0  0  0  0  0  0  0
   27.5166  -21.7722  -12.2687 O   0  0  0  0  0  0  0  0  0  0  0  0
  2  1  1  0
  3  2  1  0
  3 13  1  0
  4  3  2  0
  5  6  1  0
  6  8  1  0
  6  7  2  0
  8  9  1  0
  9 10  1  0
 12 11  1  6
 11 10  1  0
 13 12  1  0
 14 15  2  0
 14 12  1  0
 16 14  1  0
 17 16  1  0
 17 25  1  0
 17 18  1  1
 19 18  1  0
 20 19  2  0
 21 20  1  0
 22 23  1  0
 22 21  2  0
 23 24  2  0
 24 19  1  0
 25 26  2  0
 25 27  1  0
M  END
$$$$
