ITL.pdb
     RDKit          3D

 24 23  0  0  1  0  0  0  0  0999 V2000
    7.6870  -11.8291   18.1565 C   0  0  0  0  0  0  0  0  0  0  0  0
    8.3113  -13.1900   18.2524 C   0  0  0  0  0  0  0  0  0  0  0  0
    7.8745  -13.9223   19.4777 C   0  0  2  0  0  0  0  0  0  0  0  0
    8.0705  -13.0146   20.6822 C   0  0  0  0  0  0  0  0  0  0  0  0
    8.5605  -15.2469   19.6668 C   0  0  2  0  0  0  0  0  0  0  0  0
    8.1324  -16.0987   18.5410 N   0  0  0  0  0  0  0  0  0  0  0  0
    8.1502  -15.9380   20.9061 C   0  0  0  0  0  0  0  0  0  0  0  0
    6.9496  -16.2875   21.0389 O   0  0  0  0  0  0  0  0  0  0  0  0
    8.3804  -19.0934   22.4620 C   0  0  0  0  0  0  0  0  0  0  0  0
    8.9560  -18.1621   23.5026 C   0  0  1  0  0  0  0  0  0  0  0  0
   10.3551  -18.1900   23.3234 O   0  0  0  0  0  0  0  0  0  0  0  0
    8.4619  -16.7310   23.2665 C   0  0  2  0  0  0  0  0  0  0  0  0
    9.0073  -16.2560   21.9926 N   0  0  0  0  0  0  0  0  0  0  0  0
    8.9693  -15.8843   24.3780 C   0  0  0  0  0  0  0  0  0  0  0  0
   10.1027  -15.3134   24.3181 O   0  0  0  0  0  0  0  0  0  0  0  0
    8.3433  -12.0243   25.7832 C   0  0  0  0  0  0  0  0  0  0  0  0
    7.2204  -12.8985   26.3066 C   0  0  2  0  0  0  0  0  0  0  0  0
    6.0209  -12.1189   26.7777 C   0  0  0  0  0  0  0  0  0  0  0  0
    7.6614  -14.0074   27.1636 C   0  0  0  0  0  0  0  0  0  0  0  0
    8.6899  -14.9517   26.7254 C   0  0  2  0  0  0  0  0  0  0  0  0
    8.2078  -15.6876   25.5353 N   0  0  0  0  0  0  0  0  0  0  0  0
    9.2345  -15.9211   27.6484 C   0  0  0  0  0  0  0  0  0  0  0  0
    9.0524  -17.2956   27.5714 O   0  0  0  0  0  0  0  0  0  0  0  0
    9.9422  -15.5568   28.6297 O   0  0  0  0  0  0  0  0  0  0  0  0
  2  1  1  0
  3  5  1  0
  3  2  1  0
  3  4  1  1
  5  6  1  6
  7  5  1  0
  8  7  2  0
 10  9  1  6
 10 12  1  0
 11 10  1  0
 12 14  1  0
 12 13  1  6
 13  7  1  0
 14 15  2  0
 17 16  1  1
 17 19  1  0
 18 17  1  0
 20 19  1  1
 20 21  1  0
 20 22  1  0
 21 14  1  0
 22 24  2  0
 22 23  1  0
M  END
$$$$
