ITL.pdb
     RDKit          3D

 24 23  0  0  1  0  0  0  0  0999 V2000
   11.4055  -20.6309   22.3638 C   0  0  0  0  0  0  0  0  0  0  0  0
   10.6133  -19.6193   21.5892 C   0  0  0  0  0  0  0  0  0  0  0  0
   11.4673  -18.8450   20.6407 C   0  0  2  0  0  0  0  0  0  0  0  0
   12.6794  -18.3208   21.3952 C   0  0  0  0  0  0  0  0  0  0  0  0
   10.7351  -17.7379   19.9343 C   0  0  2  0  0  0  0  0  0  0  0  0
   11.7075  -17.1218   19.0117 N   0  0  0  0  0  0  0  0  0  0  0  0
   10.2789  -16.6717   20.8491 C   0  0  0  0  0  0  0  0  0  0  0  0
   11.1318  -15.9009   21.3587 O   0  0  0  0  0  0  0  0  0  0  0  0
    7.3018  -14.0246   20.3547 C   0  0  0  0  0  0  0  0  0  0  0  0
    7.2024  -14.7725   21.6631 C   0  0  1  0  0  0  0  0  0  0  0  0
    6.3567  -15.8756   21.4214 O   0  0  0  0  0  0  0  0  0  0  0  0
    8.5802  -15.2962   22.0820 C   0  0  2  0  0  0  0  0  0  0  0  0
    8.9298  -16.4260   21.2176 N   0  0  0  0  0  0  0  0  0  0  0  0
    8.4844  -15.7533   23.4933 C   0  0  0  0  0  0  0  0  0  0  0  0
    8.5242  -16.9856   23.7997 O   0  0  0  0  0  0  0  0  0  0  0  0
    8.1435  -11.5049   26.7872 C   0  0  0  0  0  0  0  0  0  0  0  0
    7.4476  -12.8098   26.4526 C   0  0  2  0  0  0  0  0  0  0  0  0
    5.9849  -12.8207   26.8114 C   0  0  0  0  0  0  0  0  0  0  0  0
    8.2167  -14.0144   26.7932 C   0  0  0  0  0  0  0  0  0  0  0  0
    8.1708  -15.2144   25.9568 C   0  0  2  0  0  0  0  0  0  0  0  0
    8.3463  -14.8325   24.5378 N   0  0  0  0  0  0  0  0  0  0  0  0
    7.0435  -16.1156   26.0313 C   0  0  0  0  0  0  0  0  0  0  0  0
    6.0922  -16.2976   25.0361 O   0  0  0  0  0  0  0  0  0  0  0  0
    6.8465  -16.8250   27.0581 O   0  0  0  0  0  0  0  0  0  0  0  0
  2  1  1  0
  3  5  1  0
  3  2  1  0
  3  4  1  1
  5  6  1  6
  7  5  1  0
  8  7  2  0
 10  9  1  6
 10 12  1  0
 11 10  1  0
 12 14  1  0
 12 13  1  6
 13  7  1  0
 14 15  2  0
 17 16  1  1
 17 19  1  0
 18 17  1  0
 20 19  1  1
 20 21  1  0
 20 22  1  0
 21 14  1  0
 22 24  2  0
 22 23  1  0
M  END
$$$$
