ITL.pdb
     RDKit          3D

 24 23  0  0  1  0  0  0  0  0999 V2000
    7.6080  -12.0668   18.2468 C   0  0  0  0  0  0  0  0  0  0  0  0
    8.2852  -13.3953   18.4121 C   0  0  0  0  0  0  0  0  0  0  0  0
    7.9867  -14.0160   19.7366 C   0  0  2  0  0  0  0  0  0  0  0  0
    8.4540  -13.0707   20.8325 C   0  0  0  0  0  0  0  0  0  0  0  0
    8.5725  -15.3904   19.9056 C   0  0  2  0  0  0  0  0  0  0  0  0
    7.9270  -16.2429   18.8894 N   0  0  0  0  0  0  0  0  0  0  0  0
    8.2695  -15.9894   21.2214 C   0  0  0  0  0  0  0  0  0  0  0  0
    7.0821  -16.3073   21.4864 O   0  0  0  0  0  0  0  0  0  0  0  0
    8.9394  -19.1236   22.7670 C   0  0  0  0  0  0  0  0  0  0  0  0
    9.4512  -18.1241   23.7771 C   0  0  1  0  0  0  0  0  0  0  0  0
   10.8368  -18.0022   23.5415 O   0  0  0  0  0  0  0  0  0  0  0  0
    8.7956  -16.7575   23.5518 C   0  0  2  0  0  0  0  0  0  0  0  0
    9.2190  -16.2496   22.2447 N   0  0  0  0  0  0  0  0  0  0  0  0
    9.2680  -15.8428   24.6241 C   0  0  0  0  0  0  0  0  0  0  0  0
   10.3674  -15.2135   24.5279 O   0  0  0  0  0  0  0  0  0  0  0  0
    8.2078  -12.0382   25.7618 C   0  0  0  0  0  0  0  0  0  0  0  0
    7.2459  -13.0028   26.4276 C   0  0  2  0  0  0  0  0  0  0  0  0
    5.9668  -12.3547   26.8883 C   0  0  0  0  0  0  0  0  0  0  0  0
    7.8780  -13.9456   27.3606 C   0  0  0  0  0  0  0  0  0  0  0  0
    8.9612  -14.8331   26.9359 C   0  0  2  0  0  0  0  0  0  0  0  0
    8.5099  -15.6444   25.7834 N   0  0  0  0  0  0  0  0  0  0  0  0
    9.5879  -15.7277   27.8821 C   0  0  0  0  0  0  0  0  0  0  0  0
    9.5761  -17.1143   27.8074 O   0  0  0  0  0  0  0  0  0  0  0  0
   10.2131  -15.2784   28.8840 O   0  0  0  0  0  0  0  0  0  0  0  0
  2  1  1  0
  3  5  1  0
  3  2  1  0
  3  4  1  1
  5  6  1  6
  7  5  1  0
  8  7  2  0
 10  9  1  6
 10 12  1  0
 11 10  1  0
 12 14  1  0
 12 13  1  6
 13  7  1  0
 14 15  2  0
 17 16  1  1
 17 19  1  0
 18 17  1  0
 20 19  1  1
 20 21  1  0
 20 22  1  0
 21 14  1  0
 22 24  2  0
 22 23  1  0
M  END
$$$$
