ITL.pdb
     RDKit          3D

 24 23  0  0  1  0  0  0  0  0999 V2000
    7.2324  -11.9714   18.7048 C   0  0  0  0  0  0  0  0  0  0  0  0
    7.8856  -13.3149   18.5654 C   0  0  0  0  0  0  0  0  0  0  0  0
    7.9374  -14.0506   19.8633 C   0  0  2  0  0  0  0  0  0  0  0  0
    8.6554  -13.1828   20.8854 C   0  0  0  0  0  0  0  0  0  0  0  0
    8.5622  -15.4144   19.7603 C   0  0  2  0  0  0  0  0  0  0  0  0
    7.7429  -16.1727   18.7960 N   0  0  0  0  0  0  0  0  0  0  0  0
    8.5272  -16.1631   21.0331 C   0  0  0  0  0  0  0  0  0  0  0  0
    7.4174  -16.5461   21.4835 O   0  0  0  0  0  0  0  0  0  0  0  0
    9.8572  -19.3315   22.2366 C   0  0  0  0  0  0  0  0  0  0  0  0
   10.3184  -18.3364   23.2751 C   0  0  1  0  0  0  0  0  0  0  0  0
   11.6643  -18.0450   22.9691 O   0  0  0  0  0  0  0  0  0  0  0  0
    9.5030  -17.0432   23.1711 C   0  0  2  0  0  0  0  0  0  0  0  0
    9.6603  -16.5030   21.8186 N   0  0  0  0  0  0  0  0  0  0  0  0
   10.0471  -16.0800   24.1640 C   0  0  0  0  0  0  0  0  0  0  0  0
   10.6338  -15.0118   23.8052 O   0  0  0  0  0  0  0  0  0  0  0  0
    9.1451  -12.7718   27.8575 C   0  0  0  0  0  0  0  0  0  0  0  0
    8.2211  -13.1638   26.7209 C   0  0  2  0  0  0  0  0  0  0  0  0
    6.7732  -12.8446   26.9856 C   0  0  0  0  0  0  0  0  0  0  0  0
    8.5069  -14.4783   26.1302 C   0  0  0  0  0  0  0  0  0  0  0  0
    9.6692  -15.2665   26.5417 C   0  0  2  0  0  0  0  0  0  0  0  0
    9.9291  -16.3218   25.5372 N   0  0  0  0  0  0  0  0  0  0  0  0
    9.7088  -15.8854   27.8469 C   0  0  0  0  0  0  0  0  0  0  0  0
   10.5544  -15.5187   28.8856 O   0  0  0  0  0  0  0  0  0  0  0  0
    8.9392  -16.8456   28.1335 O   0  0  0  0  0  0  0  0  0  0  0  0
  2  1  1  0
  3  5  1  0
  3  2  1  0
  3  4  1  1
  5  6  1  6
  7  5  1  0
  8  7  2  0
 10  9  1  6
 10 12  1  0
 11 10  1  0
 12 14  1  0
 12 13  1  6
 13  7  1  0
 14 15  2  0
 17 16  1  1
 17 19  1  0
 18 17  1  0
 20 19  1  6
 20 21  1  0
 20 22  1  0
 21 14  1  0
 22 24  2  0
 22 23  1  0
M  END
$$$$
