ITL.pdb
     RDKit          3D

 24 23  0  0  1  0  0  0  0  0999 V2000
    7.8365  -11.8603   17.9866 C   0  0  0  0  0  0  0  0  0  0  0  0
    8.4039  -13.2478   17.9254 C   0  0  0  0  0  0  0  0  0  0  0  0
    8.1712  -14.0051   19.1907 C   0  0  2  0  0  0  0  0  0  0  0  0
    8.7286  -13.1954   20.3512 C   0  0  0  0  0  0  0  0  0  0  0  0
    8.7310  -15.4005   19.1714 C   0  0  2  0  0  0  0  0  0  0  0  0
    8.0558  -16.1016   18.0629 N   0  0  0  0  0  0  0  0  0  0  0  0
    8.4321  -16.1597   20.4027 C   0  0  0  0  0  0  0  0  0  0  0  0
    7.2391  -16.4685   20.6526 O   0  0  0  0  0  0  0  0  0  0  0  0
    9.6305  -19.4161   21.9013 C   0  0  0  0  0  0  0  0  0  0  0  0
    9.8274  -18.3614   22.9644 C   0  0  1  0  0  0  0  0  0  0  0  0
   11.1878  -17.9927   22.9044 O   0  0  0  0  0  0  0  0  0  0  0  0
    8.9730  -17.1279   22.6539 C   0  0  2  0  0  0  0  0  0  0  0  0
    9.3914  -16.5878   21.3580 N   0  0  0  0  0  0  0  0  0  0  0  0
    9.2189  -16.1225   23.7209 C   0  0  0  0  0  0  0  0  0  0  0  0
   10.0928  -15.2098   23.5892 O   0  0  0  0  0  0  0  0  0  0  0  0
    5.8360  -12.6223   26.9937 C   0  0  0  0  0  0  0  0  0  0  0  0
    7.2630  -13.1089   26.8328 C   0  0  2  0  0  0  0  0  0  0  0  0
    8.2669  -11.9942   26.6978 C   0  0  0  0  0  0  0  0  0  0  0  0
    7.4181  -14.2474   25.9172 C   0  0  0  0  0  0  0  0  0  0  0  0
    8.5934  -15.1177   25.9697 C   0  0  2  0  0  0  0  0  0  0  0  0
    8.4892  -16.1502   24.9145 N   0  0  0  0  0  0  0  0  0  0  0  0
    8.9564  -15.7840   27.1996 C   0  0  0  0  0  0  0  0  0  0  0  0
    8.5681  -17.0664   27.5644 O   0  0  0  0  0  0  0  0  0  0  0  0
    9.6830  -15.2097   28.0590 O   0  0  0  0  0  0  0  0  0  0  0  0
  2  1  1  0
  3  5  1  0
  3  2  1  0
  3  4  1  1
  5  6  1  6
  7  5  1  0
  8  7  2  0
 10  9  1  6
 10 12  1  0
 11 10  1  0
 12 14  1  0
 12 13  1  6
 13  7  1  0
 14 15  2  0
 17 16  1  6
 17 19  1  0
 18 17  1  0
 20 19  1  1
 20 21  1  0
 20 22  1  0
 21 14  1  0
 22 24  2  0
 22 23  1  0
M  END
$$$$
