ITL.pdb
     RDKit          3D

 24 23  0  0  1  0  0  0  0  0999 V2000
    7.4601  -11.9960   18.5787 C   0  0  0  0  0  0  0  0  0  0  0  0
    8.1689  -13.3167   18.6451 C   0  0  0  0  0  0  0  0  0  0  0  0
    7.9887  -13.9840   19.9684 C   0  0  2  0  0  0  0  0  0  0  0  0
    8.5262  -13.0641   21.0537 C   0  0  0  0  0  0  0  0  0  0  0  0
    8.6099  -15.3511   20.0452 C   0  0  2  0  0  0  0  0  0  0  0  0
    7.9209  -16.1758   19.0347 N   0  0  0  0  0  0  0  0  0  0  0  0
    8.3981  -16.0089   21.3507 C   0  0  0  0  0  0  0  0  0  0  0  0
    7.2334  -16.3527   21.6771 O   0  0  0  0  0  0  0  0  0  0  0  0
    9.3370  -19.1990   22.7890 C   0  0  0  0  0  0  0  0  0  0  0  0
    9.8330  -18.1788   23.7862 C   0  0  1  0  0  0  0  0  0  0  0  0
   11.1941  -17.9638   23.4836 O   0  0  0  0  0  0  0  0  0  0  0  0
    9.0794  -16.8559   23.6126 C   0  0  2  0  0  0  0  0  0  0  0  0
    9.4139  -16.3001   22.2992 N   0  0  0  0  0  0  0  0  0  0  0  0
    9.5339  -15.9286   24.6818 C   0  0  0  0  0  0  0  0  0  0  0  0
   10.6064  -15.2567   24.5709 O   0  0  0  0  0  0  0  0  0  0  0  0
    8.2104  -12.1782   25.6813 C   0  0  0  0  0  0  0  0  0  0  0  0
    7.3081  -13.1740   26.3835 C   0  0  2  0  0  0  0  0  0  0  0  0
    5.9971  -12.5846   26.8334 C   0  0  0  0  0  0  0  0  0  0  0  0
    7.9973  -14.0505   27.3402 C   0  0  0  0  0  0  0  0  0  0  0  0
    9.1636  -14.8434   26.9497 C   0  0  2  0  0  0  0  0  0  0  0  0
    8.7881  -15.7652   25.8545 N   0  0  0  0  0  0  0  0  0  0  0  0
    9.8917  -15.6089   27.9357 C   0  0  0  0  0  0  0  0  0  0  0  0
   10.0025  -16.9929   27.9581 O   0  0  0  0  0  0  0  0  0  0  0  0
   10.4990  -15.0354   28.8838 O   0  0  0  0  0  0  0  0  0  0  0  0
  2  1  1  0
  3  5  1  0
  3  2  1  0
  3  4  1  1
  5  6  1  6
  7  5  1  0
  8  7  2  0
 10  9  1  6
 10 12  1  0
 11 10  1  0
 12 14  1  0
 12 13  1  6
 13  7  1  0
 14 15  2  0
 17 16  1  1
 17 19  1  0
 18 17  1  0
 20 19  1  1
 20 21  1  0
 20 22  1  0
 21 14  1  0
 22 24  2  0
 22 23  1  0
M  END
$$$$
