ITL.pdb
     RDKit          3D

 24 23  0  0  1  0  0  0  0  0999 V2000
    7.8522  -11.9835   18.2788 C   0  0  0  0  0  0  0  0  0  0  0  0
    8.3270  -13.3987   18.4286 C   0  0  0  0  0  0  0  0  0  0  0  0
    7.9593  -13.9761   19.7553 C   0  0  2  0  0  0  0  0  0  0  0  0
    8.4802  -13.0547   20.8474 C   0  0  0  0  0  0  0  0  0  0  0  0
    8.4339  -15.3892   19.9517 C   0  0  2  0  0  0  0  0  0  0  0  0
    7.7360  -16.2044   18.9395 N   0  0  0  0  0  0  0  0  0  0  0  0
    8.0693  -15.9425   21.2719 C   0  0  0  0  0  0  0  0  0  0  0  0
    6.8527  -16.0700   21.5633 O   0  0  0  0  0  0  0  0  0  0  0  0
    8.3957  -19.1563   22.9547 C   0  0  0  0  0  0  0  0  0  0  0  0
    9.0307  -18.1641   23.9000 C   0  0  1  0  0  0  0  0  0  0  0  0
   10.4169  -18.2075   23.6416 O   0  0  0  0  0  0  0  0  0  0  0  0
    8.5230  -16.7488   23.6046 C   0  0  2  0  0  0  0  0  0  0  0  0
    8.9881  -16.3577   22.2717 N   0  0  0  0  0  0  0  0  0  0  0  0
    9.0988  -15.8354   24.6264 C   0  0  0  0  0  0  0  0  0  0  0  0
   10.1946  -15.2226   24.4320 O   0  0  0  0  0  0  0  0  0  0  0  0
    8.0645  -12.1085   25.5814 C   0  0  0  0  0  0  0  0  0  0  0  0
    7.1854  -12.9882   26.4487 C   0  0  2  0  0  0  0  0  0  0  0  0
    5.9771  -12.2760   26.9978 C   0  0  0  0  0  0  0  0  0  0  0  0
    7.9211  -13.8504   27.3836 C   0  0  0  0  0  0  0  0  0  0  0  0
    8.9754  -14.7549   26.9232 C   0  0  2  0  0  0  0  0  0  0  0  0
    8.4461  -15.6198   25.8452 N   0  0  0  0  0  0  0  0  0  0  0  0
    9.6733  -15.6033   27.8620 C   0  0  0  0  0  0  0  0  0  0  0  0
   10.5789  -15.1677   28.8204 O   0  0  0  0  0  0  0  0  0  0  0  0
    9.4929  -16.8539   27.8651 O   0  0  0  0  0  0  0  0  0  0  0  0
  2  1  1  0
  3  5  1  0
  3  2  1  0
  3  4  1  1
  5  6  1  6
  7  5  1  0
  8  7  2  0
 10  9  1  6
 10 12  1  0
 11 10  1  0
 12 14  1  0
 12 13  1  6
 13  7  1  0
 14 15  2  0
 17 16  1  1
 17 19  1  0
 18 17  1  0
 20 19  1  1
 20 21  1  0
 20 22  1  0
 21 14  1  0
 22 24  2  0
 22 23  1  0
M  END
$$$$
