ITL.pdb
     RDKit          3D

 24 23  0  0  1  0  0  0  0  0999 V2000
    7.7393  -11.9193   19.1291 C   0  0  0  0  0  0  0  0  0  0  0  0
    7.6039  -13.4130   19.1656 C   0  0  0  0  0  0  0  0  0  0  0  0
    8.8710  -14.1007   18.7782 C   0  0  2  0  0  0  0  0  0  0  0  0
    9.3173  -13.5705   17.4243 C   0  0  0  0  0  0  0  0  0  0  0  0
    8.7687  -15.6008   18.7777 C   0  0  2  0  0  0  0  0  0  0  0  0
    7.7705  -15.9468   17.7481 N   0  0  0  0  0  0  0  0  0  0  0  0
    8.2702  -16.1459   20.0568 C   0  0  0  0  0  0  0  0  0  0  0  0
    7.0291  -16.2427   20.2346 O   0  0  0  0  0  0  0  0  0  0  0  0
    8.7382  -19.4084   21.7667 C   0  0  0  0  0  0  0  0  0  0  0  0
    9.0850  -18.3609   22.7980 C   0  0  1  0  0  0  0  0  0  0  0  0
   10.4912  -18.2484   22.7859 O   0  0  0  0  0  0  0  0  0  0  0  0
    8.4835  -17.0077   22.4041 C   0  0  2  0  0  0  0  0  0  0  0  0
    9.0823  -16.5853   21.1356 N   0  0  0  0  0  0  0  0  0  0  0  0
    8.8231  -16.0298   23.4709 C   0  0  0  0  0  0  0  0  0  0  0  0
    9.8483  -15.2837   23.3905 O   0  0  0  0  0  0  0  0  0  0  0  0
    5.5736  -12.4288   27.0303 C   0  0  0  0  0  0  0  0  0  0  0  0
    6.9669  -12.9823   26.8031 C   0  0  2  0  0  0  0  0  0  0  0  0
    8.0282  -11.9181   26.7052 C   0  0  0  0  0  0  0  0  0  0  0  0
    7.0360  -14.0717   25.8197 C   0  0  0  0  0  0  0  0  0  0  0  0
    8.2401  -14.8889   25.6655 C   0  0  2  0  0  0  0  0  0  0  0  0
    8.0173  -15.8993   24.6074 N   0  0  0  0  0  0  0  0  0  0  0  0
    8.8149  -15.5675   26.8046 C   0  0  0  0  0  0  0  0  0  0  0  0
    8.4326  -16.8176   27.2731 O   0  0  0  0  0  0  0  0  0  0  0  0
    9.7441  -15.0359   27.4758 O   0  0  0  0  0  0  0  0  0  0  0  0
  2  1  1  0
  3  5  1  0
  3  2  1  0
  3  4  1  6
  5  6  1  6
  7  5  1  0
  8  7  2  0
 10  9  1  6
 10 12  1  0
 11 10  1  0
 12 14  1  0
 12 13  1  6
 13  7  1  0
 14 15  2  0
 17 16  1  6
 17 19  1  0
 18 17  1  0
 20 19  1  1
 20 21  1  0
 20 22  1  0
 21 14  1  0
 22 24  2  0
 22 23  1  0
M  END
$$$$
