ITL.pdb
     RDKit          3D

 24 23  0  0  1  0  0  0  0  0999 V2000
    8.0936  -11.6013   18.2728 C   0  0  0  0  0  0  0  0  0  0  0  0
    8.7000  -12.9727   18.3220 C   0  0  0  0  0  0  0  0  0  0  0  0
    8.2674  -13.7340   19.5311 C   0  0  2  0  0  0  0  0  0  0  0  0
    8.6617  -12.9441   20.7695 C   0  0  0  0  0  0  0  0  0  0  0  0
    8.7971  -15.1404   19.5811 C   0  0  2  0  0  0  0  0  0  0  0  0
    8.2179  -15.8419   18.4198 N   0  0  0  0  0  0  0  0  0  0  0  0
    8.3645  -15.8778   20.7856 C   0  0  0  0  0  0  0  0  0  0  0  0
    7.1438  -16.1420   20.9316 O   0  0  0  0  0  0  0  0  0  0  0  0
    8.5896  -19.1880   22.0622 C   0  0  0  0  0  0  0  0  0  0  0  0
    9.1553  -18.3477   23.1825 C   0  0  1  0  0  0  0  0  0  0  0  0
   10.5566  -18.3689   23.0201 O   0  0  0  0  0  0  0  0  0  0  0  0
    8.6712  -16.8993   23.0572 C   0  0  2  0  0  0  0  0  0  0  0  0
    9.2206  -16.3315   21.8236 N   0  0  0  0  0  0  0  0  0  0  0  0
    9.1836  -16.1441   24.2305 C   0  0  0  0  0  0  0  0  0  0  0  0
   10.3008  -15.5399   24.1991 O   0  0  0  0  0  0  0  0  0  0  0  0
    8.0870  -12.3618   25.9014 C   0  0  0  0  0  0  0  0  0  0  0  0
    7.1096  -13.4380   26.3323 C   0  0  2  0  0  0  0  0  0  0  0  0
    5.8009  -12.8931   26.8411 C   0  0  0  0  0  0  0  0  0  0  0  0
    7.7115  -14.5318   27.1069 C   0  0  0  0  0  0  0  0  0  0  0  0
    8.8577  -15.2880   26.6009 C   0  0  2  0  0  0  0  0  0  0  0  0
    8.4451  -16.0743   25.4170 N   0  0  0  0  0  0  0  0  0  0  0  0
    9.5968  -16.1693   27.4757 C   0  0  0  0  0  0  0  0  0  0  0  0
   10.5242  -15.7659   28.4273 O   0  0  0  0  0  0  0  0  0  0  0  0
    9.4359  -17.4214   27.4224 O   0  0  0  0  0  0  0  0  0  0  0  0
  2  1  1  0
  3  5  1  0
  3  2  1  0
  3  4  1  1
  5  6  1  6
  7  5  1  0
  8  7  2  0
 10  9  1  6
 10 12  1  0
 11 10  1  0
 12 14  1  0
 12 13  1  6
 13  7  1  0
 14 15  2  0
 17 16  1  1
 17 19  1  0
 18 17  1  0
 20 19  1  1
 20 21  1  0
 20 22  1  0
 21 14  1  0
 22 24  2  0
 22 23  1  0
M  END
$$$$
