ITL.pdb
     RDKit          3D

 24 23  0  0  1  0  0  0  0  0999 V2000
    7.8037  -11.8720   17.4926 C   0  0  0  0  0  0  0  0  0  0  0  0
    8.4537  -13.2222   17.5664 C   0  0  0  0  0  0  0  0  0  0  0  0
    8.1183  -13.9375   18.8330 C   0  0  2  0  0  0  0  0  0  0  0  0
    8.5354  -13.0665   20.0080 C   0  0  0  0  0  0  0  0  0  0  0  0
    8.7163  -15.3140   18.9261 C   0  0  2  0  0  0  0  0  0  0  0  0
    8.1806  -16.0757   17.7819 N   0  0  0  0  0  0  0  0  0  0  0  0
    8.3119  -16.0377   20.1486 C   0  0  0  0  0  0  0  0  0  0  0  0
    7.0992  -16.3280   20.3109 O   0  0  0  0  0  0  0  0  0  0  0  0
    9.0511  -19.3017   21.6691 C   0  0  0  0  0  0  0  0  0  0  0  0
    9.3479  -18.2995   22.7594 C   0  0  1  0  0  0  0  0  0  0  0  0
   10.7446  -18.1018   22.7413 O   0  0  0  0  0  0  0  0  0  0  0  0
    8.6616  -16.9638   22.4546 C   0  0  2  0  0  0  0  0  0  0  0  0
    9.1875  -16.4504   21.1875 N   0  0  0  0  0  0  0  0  0  0  0  0
    8.9910  -16.0204   23.5552 C   0  0  0  0  0  0  0  0  0  0  0  0
    9.9511  -15.1937   23.4605 O   0  0  0  0  0  0  0  0  0  0  0  0
    5.8087  -12.6222   27.2596 C   0  0  0  0  0  0  0  0  0  0  0  0
    7.2143  -13.0884   26.9342 C   0  0  2  0  0  0  0  0  0  0  0  0
    8.1994  -11.9608   26.7710 C   0  0  0  0  0  0  0  0  0  0  0  0
    7.2824  -14.1692   25.9412 C   0  0  0  0  0  0  0  0  0  0  0  0
    8.4529  -15.0414   25.8377 C   0  0  2  0  0  0  0  0  0  0  0  0
    8.2474  -16.0131   24.7405 N   0  0  0  0  0  0  0  0  0  0  0  0
    8.9227  -15.7757   26.9903 C   0  0  0  0  0  0  0  0  0  0  0  0
    9.8963  -15.3400   27.8794 O   0  0  0  0  0  0  0  0  0  0  0  0
    8.4529  -16.9149   27.2698 O   0  0  0  0  0  0  0  0  0  0  0  0
  2  1  1  0
  3  5  1  0
  3  2  1  0
  3  4  1  1
  5  6  1  6
  7  5  1  0
  8  7  2  0
 10  9  1  6
 10 12  1  0
 11 10  1  0
 12 14  1  0
 12 13  1  6
 13  7  1  0
 14 15  2  0
 17 16  1  6
 17 19  1  0
 18 17  1  0
 20 19  1  1
 20 21  1  0
 20 22  1  0
 21 14  1  0
 22 24  2  0
 22 23  1  0
M  END
$$$$
