ITL.pdb
     RDKit          3D

 24 23  0  0  1  0  0  0  0  0999 V2000
    8.0651  -11.6854   18.0872 C   0  0  0  0  0  0  0  0  0  0  0  0
    8.5678  -13.0935   18.2119 C   0  0  0  0  0  0  0  0  0  0  0  0
    8.1658  -13.7199   19.5060 C   0  0  2  0  0  0  0  0  0  0  0  0
    8.6441  -12.8324   20.6447 C   0  0  0  0  0  0  0  0  0  0  0  0
    8.6484  -15.1347   19.6680 C   0  0  2  0  0  0  0  0  0  0  0  0
    7.9955  -15.9189   18.6026 N   0  0  0  0  0  0  0  0  0  0  0  0
    8.2432  -15.7392   20.9534 C   0  0  0  0  0  0  0  0  0  0  0  0
    7.0206  -15.9282   21.1785 O   0  0  0  0  0  0  0  0  0  0  0  0
    8.4462  -18.9840   22.2788 C   0  0  0  0  0  0  0  0  0  0  0  0
    9.0760  -18.1450   23.3654 C   0  0  1  0  0  0  0  0  0  0  0  0
   10.4682  -18.1957   23.1433 O   0  0  0  0  0  0  0  0  0  0  0  0
    8.6152  -16.6885   23.2465 C   0  0  2  0  0  0  0  0  0  0  0  0
    9.1284  -16.1406   21.9886 N   0  0  0  0  0  0  0  0  0  0  0  0
    9.1860  -15.9346   24.3935 C   0  0  0  0  0  0  0  0  0  0  0  0
   10.2453  -15.2429   24.2766 O   0  0  0  0  0  0  0  0  0  0  0  0
    7.5803  -12.5149   26.1546 C   0  0  0  0  0  0  0  0  0  0  0  0
    6.9694  -13.7412   26.8042 C   0  0  2  0  0  0  0  0  0  0  0  0
    5.6651  -13.4642   27.5045 C   0  0  0  0  0  0  0  0  0  0  0  0
    7.9299  -14.5943   27.5172 C   0  0  0  0  0  0  0  0  0  0  0  0
    9.0612  -15.2158   26.8278 C   0  0  2  0  0  0  0  0  0  0  0  0
    8.5692  -15.9634   25.6492 N   0  0  0  0  0  0  0  0  0  0  0  0
    9.9708  -16.0795   27.5455 C   0  0  0  0  0  0  0  0  0  0  0  0
   10.8884  -15.6644   28.5015 O   0  0  0  0  0  0  0  0  0  0  0  0
    9.9866  -17.3250   27.3334 O   0  0  0  0  0  0  0  0  0  0  0  0
  2  1  1  0
  3  5  1  0
  3  2  1  0
  3  4  1  1
  5  6  1  6
  7  5  1  0
  8  7  2  0
 10  9  1  6
 10 12  1  0
 11 10  1  0
 12 14  1  0
 12 13  1  6
 13  7  1  0
 14 15  2  0
 17 16  1  1
 17 19  1  0
 18 17  1  0
 20 19  1  1
 20 21  1  0
 20 22  1  0
 21 14  1  0
 22 24  2  0
 22 23  1  0
M  END
$$$$
