WNF.pdb
     RDKit          3D

 34 36  0  0  1  0  0  0  0  0999 V2000
   23.6744  -19.7076  -18.3995 N   0  0  0  0  0  0  0  0  0  0  0  0
   23.5214  -19.2331  -17.0612 C   0  0  1  0  0  0  0  0  0  0  0  0
   22.2093  -19.6931  -16.4282 C   0  0  0  0  0  0  0  0  0  0  0  0
   21.0347  -18.9841  -16.9815 C   0  0  0  0  0  0  0  0  0  0  0  0
   20.0951  -19.5216  -17.8501 C   0  0  0  0  0  0  0  0  0  0  0  0
   19.1721  -18.5850  -18.1314 N   0  0  0  0  0  0  0  0  0  0  0  0
   19.4629  -17.4413  -17.4815 C   0  0  0  0  0  0  0  0  0  0  0  0
   18.8188  -16.2106  -17.4513 C   0  0  0  0  0  0  0  0  0  0  0  0
   19.3560  -15.2023  -16.6805 C   0  0  0  0  0  0  0  0  0  0  0  0
   20.5067  -15.4362  -15.9650 C   0  0  0  0  0  0  0  0  0  0  0  0
   21.1530  -16.6691  -15.9941 C   0  0  0  0  0  0  0  0  0  0  0  0
   20.6173  -17.6804  -16.7656 C   0  0  0  0  0  0  0  0  0  0  0  0
   24.6366  -19.6442  -16.1718 C   0  0  0  0  0  0  0  0  0  0  0  0
   24.9805  -20.8717  -16.2522 O   0  0  0  0  0  0  0  0  0  0  0  0
   28.8784  -18.6802  -15.6065 N   0  0  0  0  0  0  0  0  0  0  0  0
   27.9844  -17.7977  -14.9635 C   0  0  0  0  0  0  0  0  0  0  0  0
   27.8321  -16.5960  -15.3428 O   0  0  0  0  0  0  0  0  0  0  0  0
   27.1657  -18.2441  -13.7944 C   0  0  0  0  0  0  0  0  0  0  0  0
   26.2603  -19.3565  -14.3090 C   0  0  2  0  0  0  0  0  0  0  0  0
   25.3199  -18.8016  -15.2748 N   0  0  0  0  0  0  0  0  0  0  0  0
   25.5516  -19.9521  -13.1515 C   0  0  0  0  0  0  0  0  0  0  0  0
   24.3421  -19.6558  -12.9619 O   0  0  0  0  0  0  0  0  0  0  0  0
   26.1821  -20.8447  -12.2482 N   0  0  0  0  0  0  0  0  0  0  0  0
   25.4867  -21.4544  -11.1077 C   0  0  1  0  0  0  0  0  0  0  0  0
   26.4365  -22.1963  -10.2369 C   0  0  0  0  0  0  0  0  0  0  0  0
   27.4074  -21.2753   -9.6165 C   0  0  0  0  0  0  0  0  0  0  0  0
   27.0768  -20.5893   -8.4399 C   0  0  0  0  0  0  0  0  0  0  0  0
   27.9585  -19.7457   -7.8242 C   0  0  0  0  0  0  0  0  0  0  0  0
   29.2154  -19.5210   -8.3208 C   0  0  0  0  0  0  0  0  0  0  0  0
   29.5751  -20.1807   -9.4797 C   0  0  0  0  0  0  0  0  0  0  0  0
   28.6827  -21.0327  -10.0990 C   0  0  0  0  0  0  0  0  0  0  0  0
   24.8170  -20.3833  -10.3583 C   0  0  0  0  0  0  0  0  0  0  0  0
   25.1976  -19.1978  -10.4007 O   0  0  0  0  0  0  0  0  0  0  0  0
   23.6939  -20.6733   -9.5465 O   0  0  0  0  0  0  0  0  0  0  0  0
  2  1  1  6
  3  2  1  0
  4  5  2  0
  4  3  1  0
  6  5  1  0
  7 12  2  0
  7  6  1  0
  8  7  1  0
  9 10  1  0
  9  8  2  0
 10 11  2  0
 11 12  1  0
 12  4  1  0
 13  2  1  0
 14 13  2  0
 16 15  1  0
 17 16  2  0
 19 18  1  1
 18 16  1  0
 19 20  1  0
 20 13  1  0
 21 19  1  0
 22 21  2  0
 23 21  1  0
 24 23  1  0
 24 25  1  1
 25 26  1  0
 26 31  1  0
 27 26  2  0
 27 28  1  0
 28 29  2  0
 29 30  1  0
 31 30  2  0
 32 34  1  0
 32 24  1  0
 33 32  2  0
M  END
$$$$
