WNF.pdb
     RDKit          3D

 34 36  0  0  1  0  0  0  0  0999 V2000
   29.9118  -20.9893  -21.9637 N   0  0  0  0  0  0  0  0  0  0  0  0
   28.6179  -20.5828  -21.5160 C   0  0  1  0  0  0  0  0  0  0  0  0
   27.7835  -19.9641  -22.6362 C   0  0  0  0  0  0  0  0  0  0  0  0
   28.4220  -18.7647  -23.2214 C   0  0  0  0  0  0  0  0  0  0  0  0
   29.4347  -18.7637  -24.1703 C   0  0  0  0  0  0  0  0  0  0  0  0
   29.7568  -17.4920  -24.4660 N   0  0  0  0  0  0  0  0  0  0  0  0
   28.9951  -16.6445  -23.7473 C   0  0  0  0  0  0  0  0  0  0  0  0
   28.9539  -15.2564  -23.7029 C   0  0  0  0  0  0  0  0  0  0  0  0
   28.0525  -14.6489  -22.8556 C   0  0  0  0  0  0  0  0  0  0  0  0
   27.2218  -15.4242  -22.0812 C   0  0  0  0  0  0  0  0  0  0  0  0
   27.2619  -16.8152  -22.1251 C   0  0  0  0  0  0  0  0  0  0  0  0
   28.1641  -17.4262  -22.9723 C   0  0  0  0  0  0  0  0  0  0  0  0
   27.8392  -21.6946  -20.9151 C   0  0  0  0  0  0  0  0  0  0  0  0
   27.8666  -22.7968  -21.5600 O   0  0  0  0  0  0  0  0  0  0  0  0
   27.5904  -24.1785  -16.3142 N   0  0  0  0  0  0  0  0  0  0  0  0
   27.9076  -23.4481  -17.4792 C   0  0  0  0  0  0  0  0  0  0  0  0
   28.6502  -22.4191  -17.4498 O   0  0  0  0  0  0  0  0  0  0  0  0
   27.3787  -23.8591  -18.8163 C   0  0  0  0  0  0  0  0  0  0  0  0
   26.3762  -22.7869  -19.2252 C   0  0  2  0  0  0  0  0  0  0  0  0
   27.0965  -21.6208  -19.7216 N   0  0  0  0  0  0  0  0  0  0  0  0
   25.5526  -22.4447  -18.0414 C   0  0  0  0  0  0  0  0  0  0  0  0
   24.7990  -23.3265  -17.5503 O   0  0  0  0  0  0  0  0  0  0  0  0
   25.5803  -21.1619  -17.4380 N   0  0  0  0  0  0  0  0  0  0  0  0
   24.7551  -20.0398  -17.9030 C   0  0  1  0  0  0  0  0  0  0  0  0
   25.1602  -19.6075  -19.2667 C   0  0  0  0  0  0  0  0  0  0  0  0
   26.2676  -18.6353  -19.2008 C   0  0  0  0  0  0  0  0  0  0  0  0
   27.1575  -18.6519  -18.1181 C   0  0  0  0  0  0  0  0  0  0  0  0
   28.2084  -17.7820  -18.0342 C   0  0  0  0  0  0  0  0  0  0  0  0
   28.4528  -16.8436  -19.0020 C   0  0  0  0  0  0  0  0  0  0  0  0
   27.5953  -16.7987  -20.0837 C   0  0  0  0  0  0  0  0  0  0  0  0
   26.5351  -17.6790  -20.1661 C   0  0  0  0  0  0  0  0  0  0  0  0
   23.3509  -20.4708  -17.8860 C   0  0  0  0  0  0  0  0  0  0  0  0
   22.8827  -21.2595  -18.7290 O   0  0  0  0  0  0  0  0  0  0  0  0
   22.4680  -19.9909  -16.8887 O   0  0  0  0  0  0  0  0  0  0  0  0
  2  1  1  6
  3  2  1  0
  4  5  2  0
  4  3  1  0
  6  5  1  0
  7 12  2  0
  7  6  1  0
  8  7  1  0
  9 10  1  0
  9  8  2  0
 10 11  2  0
 11 12  1  0
 12  4  1  0
 13  2  1  0
 14 13  2  0
 16 15  1  0
 17 16  2  0
 19 18  1  1
 18 16  1  0
 19 20  1  0
 20 13  1  0
 21 19  1  0
 22 21  2  0
 23 21  1  0
 24 23  1  0
 24 25  1  6
 25 26  1  0
 26 31  1  0
 27 26  2  0
 27 28  1  0
 28 29  2  0
 29 30  1  0
 31 30  2  0
 32 34  1  0
 32 24  1  0
 33 32  2  0
M  END
$$$$
