WNF.pdb
     RDKit          3D

 34 36  0  0  1  0  0  0  0  0999 V2000
   24.7492  -15.3946  -16.9559 N   0  0  0  0  0  0  0  0  0  0  0  0
   25.7751  -16.2484  -16.4479 C   0  0  1  0  0  0  0  0  0  0  0  0
   26.4694  -15.6567  -15.2225 C   0  0  0  0  0  0  0  0  0  0  0  0
   27.3633  -14.5295  -15.5675 C   0  0  0  0  0  0  0  0  0  0  0  0
   27.1891  -13.2069  -15.1847 C   0  0  0  0  0  0  0  0  0  0  0  0
   28.2004  -12.4709  -15.6786 N   0  0  0  0  0  0  0  0  0  0  0  0
   29.0430  -13.2558  -16.3780 C   0  0  0  0  0  0  0  0  0  0  0  0
   30.2151  -12.9650  -17.0650 C   0  0  0  0  0  0  0  0  0  0  0  0
   30.8808  -13.9911  -17.7000 C   0  0  0  0  0  0  0  0  0  0  0  0
   30.3739  -15.2679  -17.6388 C   0  0  0  0  0  0  0  0  0  0  0  0
   29.1996  -15.5607  -16.9504 C   0  0  0  0  0  0  0  0  0  0  0  0
   28.5308  -14.5348  -16.3140 C   0  0  0  0  0  0  0  0  0  0  0  0
   25.2774  -17.6012  -16.0931 C   0  0  0  0  0  0  0  0  0  0  0  0
   24.1857  -17.6294  -15.4306 O   0  0  0  0  0  0  0  0  0  0  0  0
   23.7728  -20.0085  -17.9846 N   0  0  0  0  0  0  0  0  0  0  0  0
   24.6950  -21.0765  -17.9632 C   0  0  0  0  0  0  0  0  0  0  0  0
   24.7085  -21.9750  -18.8597 O   0  0  0  0  0  0  0  0  0  0  0  0
   25.7106  -21.1980  -16.8723 C   0  0  0  0  0  0  0  0  0  0  0  0
   25.4108  -20.0767  -15.8851 C   0  0  2  0  0  0  0  0  0  0  0  0
   25.9050  -18.8164  -16.4259 N   0  0  0  0  0  0  0  0  0  0  0  0
   26.0686  -20.4026  -14.5975 C   0  0  0  0  0  0  0  0  0  0  0  0
   27.2932  -20.6975  -14.5986 O   0  0  0  0  0  0  0  0  0  0  0  0
   25.3728  -20.3945  -13.3621 N   0  0  0  0  0  0  0  0  0  0  0  0
   26.0459  -20.5156  -12.0627 C   0  0  1  0  0  0  0  0  0  0  0  0
   25.4535  -19.5856  -11.0651 C   0  0  0  0  0  0  0  0  0  0  0  0
   24.0132  -19.8520  -10.8910 C   0  0  0  0  0  0  0  0  0  0  0  0
   23.5361  -20.3947   -9.6901 C   0  0  0  0  0  0  0  0  0  0  0  0
   22.2063  -20.6338   -9.4841 C   0  0  0  0  0  0  0  0  0  0  0  0
   21.2628  -20.3578  -10.4384 C   0  0  0  0  0  0  0  0  0  0  0  0
   21.6977  -19.8220  -11.6348 C   0  0  0  0  0  0  0  0  0  0  0  0
   23.0414  -19.5811  -11.8399 C   0  0  0  0  0  0  0  0  0  0  0  0
   25.9238  -21.9094  -11.6158 C   0  0  0  0  0  0  0  0  0  0  0  0
   25.2064  -22.7406  -12.2044 O   0  0  0  0  0  0  0  0  0  0  0  0
   26.6336  -22.3595  -10.4764 O   0  0  0  0  0  0  0  0  0  0  0  0
  2  1  1  1
  3  2  1  0
  4  5  2  0
  4  3  1  0
  6  5  1  0
  7 12  2  0
  7  6  1  0
  8  7  1  0
  9 10  1  0
  9  8  2  0
 10 11  2  0
 11 12  1  0
 12  4  1  0
 13  2  1  0
 14 13  2  0
 16 15  1  0
 17 16  2  0
 19 18  1  6
 18 16  1  0
 19 20  1  0
 20 13  1  0
 21 19  1  0
 22 21  2  0
 23 21  1  0
 24 23  1  0
 24 25  1  1
 25 26  1  0
 26 31  1  0
 27 26  2  0
 27 28  1  0
 28 29  2  0
 29 30  1  0
 31 30  2  0
 32 34  1  0
 32 24  1  0
 33 32  2  0
M  END
$$$$
