WNF.pdb
     RDKit          3D

 34 36  0  0  1  0  0  0  0  0999 V2000
   23.4350  -19.8377  -15.8553 N   0  0  0  0  0  0  0  0  0  0  0  0
   23.5673  -19.3970  -14.5032 C   0  0  1  0  0  0  0  0  0  0  0  0
   22.2240  -19.3362  -13.7781 C   0  0  0  0  0  0  0  0  0  0  0  0
   21.2485  -18.4620  -14.4657 C   0  0  0  0  0  0  0  0  0  0  0  0
   21.5573  -17.4247  -15.3344 C   0  0  0  0  0  0  0  0  0  0  0  0
   20.4156  -16.8608  -15.7668 N   0  0  0  0  0  0  0  0  0  0  0  0
   19.3560  -17.4850  -15.2168 C   0  0  0  0  0  0  0  0  0  0  0  0
   17.9898  -17.2718  -15.3528 C   0  0  0  0  0  0  0  0  0  0  0  0
   17.1217  -18.0832  -14.6546 C   0  0  0  0  0  0  0  0  0  0  0  0
   17.6237  -19.0765  -13.8471 C   0  0  0  0  0  0  0  0  0  0  0  0
   18.9926  -19.2914  -13.7102 C   0  0  0  0  0  0  0  0  0  0  0  0
   19.8641  -18.4799  -14.4080 C   0  0  0  0  0  0  0  0  0  0  0  0
   24.4883  -20.2460  -13.7067 C   0  0  0  0  0  0  0  0  0  0  0  0
   24.2471  -21.4999  -13.7389 O   0  0  0  0  0  0  0  0  0  0  0  0
   28.4084  -22.3966  -11.4954 N   0  0  0  0  0  0  0  0  0  0  0  0
   28.7277  -21.7209  -12.6925 C   0  0  0  0  0  0  0  0  0  0  0  0
   29.8119  -21.9314  -13.3181 O   0  0  0  0  0  0  0  0  0  0  0  0
   27.7917  -20.7166  -13.2856 C   0  0  0  0  0  0  0  0  0  0  0  0
   26.5523  -20.7148  -12.3992 C   0  0  2  0  0  0  0  0  0  0  0  0
   25.5750  -19.7798  -12.9429 N   0  0  0  0  0  0  0  0  0  0  0  0
   26.9615  -20.3264  -11.0286 C   0  0  0  0  0  0  0  0  0  0  0  0
   28.0114  -19.6470  -10.8777 O   0  0  0  0  0  0  0  0  0  0  0  0
   26.2158  -20.6892   -9.8785 N   0  0  0  0  0  0  0  0  0  0  0  0
   26.7853  -20.7004   -8.5251 C   0  0  1  0  0  0  0  0  0  0  0  0
   27.4652  -19.4136   -8.2205 C   0  0  0  0  0  0  0  0  0  0  0  0
   28.0229  -19.4261   -6.8550 C   0  0  0  0  0  0  0  0  0  0  0  0
   29.1215  -20.2407   -6.5489 C   0  0  0  0  0  0  0  0  0  0  0  0
   29.6794  -20.2614   -5.3013 C   0  0  0  0  0  0  0  0  0  0  0  0
   29.1976  -19.4885   -4.2779 C   0  0  0  0  0  0  0  0  0  0  0  0
   28.1150  -18.6732   -4.5441 C   0  0  0  0  0  0  0  0  0  0  0  0
   27.5540  -18.6539   -5.8053 C   0  0  0  0  0  0  0  0  0  0  0  0
   25.6942  -20.9536   -7.5750 C   0  0  0  0  0  0  0  0  0  0  0  0
   24.5011  -20.7223   -7.8489 O   0  0  0  0  0  0  0  0  0  0  0  0
   25.9727  -21.4793   -6.2902 O   0  0  0  0  0  0  0  0  0  0  0  0
  2  1  1  6
  3  2  1  0
  4  5  2  0
  4  3  1  0
  6  5  1  0
  7 12  2  0
  7  6  1  0
  8  7  1  0
  9 10  1  0
  9  8  2  0
 10 11  2  0
 11 12  1  0
 12  4  1  0
 13  2  1  0
 14 13  2  0
 16 15  1  0
 17 16  2  0
 19 18  1  6
 18 16  1  0
 19 20  1  0
 20 13  1  0
 21 19  1  0
 22 21  2  0
 23 21  1  0
 24 23  1  0
 24 25  1  1
 25 26  1  0
 26 31  1  0
 27 26  2  0
 27 28  1  0
 28 29  2  0
 29 30  1  0
 31 30  2  0
 32 34  1  0
 32 24  1  0
 33 32  2  0
M  END
$$$$
