WNF.pdb
     RDKit          3D

 34 36  0  0  1  0  0  0  0  0999 V2000
   25.0419  -18.0560  -17.4647 N   0  0  0  0  0  0  0  0  0  0  0  0
   25.5893  -17.6622  -16.2057 C   0  0  1  0  0  0  0  0  0  0  0  0
   25.7043  -16.1447  -16.0715 C   0  0  0  0  0  0  0  0  0  0  0  0
   26.5545  -15.5461  -17.1238 C   0  0  0  0  0  0  0  0  0  0  0  0
   26.2417  -14.4275  -17.8834 C   0  0  0  0  0  0  0  0  0  0  0  0
   27.2542  -14.1771  -18.7322 N   0  0  0  0  0  0  0  0  0  0  0  0
   28.2314  -15.0895  -18.5660 C   0  0  0  0  0  0  0  0  0  0  0  0
   29.4585  -15.2493  -19.1978 C   0  0  0  0  0  0  0  0  0  0  0  0
   30.2692  -16.2949  -18.8121 C   0  0  0  0  0  0  0  0  0  0  0  0
   29.8484  -17.1480  -17.8191 C   0  0  0  0  0  0  0  0  0  0  0  0
   28.6191  -16.9889  -17.1850 C   0  0  0  0  0  0  0  0  0  0  0  0
   27.8051  -15.9428  -17.5697 C   0  0  0  0  0  0  0  0  0  0  0  0
   24.8089  -18.1739  -15.0513 C   0  0  0  0  0  0  0  0  0  0  0  0
   25.0257  -17.5875  -13.9375 O   0  0  0  0  0  0  0  0  0  0  0  0
   20.3874  -19.8709  -12.7575 N   0  0  0  0  0  0  0  0  0  0  0  0
   20.8867  -20.1617  -14.0450 C   0  0  0  0  0  0  0  0  0  0  0  0
   20.2274  -19.9047  -15.0988 O   0  0  0  0  0  0  0  0  0  0  0  0
   22.2308  -20.7910  -14.2280 C   0  0  0  0  0  0  0  0  0  0  0  0
   23.2542  -19.7190  -13.8744 C   0  0  2  0  0  0  0  0  0  0  0  0
   23.8759  -19.2269  -15.0977 N   0  0  0  0  0  0  0  0  0  0  0  0
   24.2598  -20.3179  -12.9651 C   0  0  0  0  0  0  0  0  0  0  0  0
   24.8856  -21.3438  -13.3428 O   0  0  0  0  0  0  0  0  0  0  0  0
   24.5465  -19.7802  -11.6848 N   0  0  0  0  0  0  0  0  0  0  0  0
   25.5294  -20.3727  -10.7688 C   0  0  1  0  0  0  0  0  0  0  0  0
   26.1616  -19.3311   -9.9166 C   0  0  0  0  0  0  0  0  0  0  0  0
   27.0513  -19.9445   -8.9126 C   0  0  0  0  0  0  0  0  0  0  0  0
   28.2568  -20.5401   -9.3081 C   0  0  0  0  0  0  0  0  0  0  0  0
   29.1169  -21.0979   -8.4041 C   0  0  0  0  0  0  0  0  0  0  0  0
   28.8512  -21.1081   -7.0602 C   0  0  0  0  0  0  0  0  0  0  0  0
   27.6713  -20.5297   -6.6348 C   0  0  0  0  0  0  0  0  0  0  0  0
   26.8047  -19.9665   -7.5500 C   0  0  0  0  0  0  0  0  0  0  0  0
   24.8378  -21.3735   -9.9456 C   0  0  0  0  0  0  0  0  0  0  0  0
   23.6465  -21.2505   -9.6027 O   0  0  0  0  0  0  0  0  0  0  0  0
   25.5206  -22.5336   -9.5071 O   0  0  0  0  0  0  0  0  0  0  0  0
  2  1  1  6
  3  2  1  0
  4  5  2  0
  4  3  1  0
  6  5  1  0
  7 12  2  0
  7  6  1  0
  8  7  1  0
  9 10  1  0
  9  8  2  0
 10 11  2  0
 11 12  1  0
 12  4  1  0
 13  2  1  0
 14 13  2  0
 16 15  1  0
 17 16  2  0
 19 18  1  6
 18 16  1  0
 19 20  1  0
 20 13  1  0
 21 19  1  0
 22 21  2  0
 23 21  1  0
 24 23  1  0
 24 25  1  1
 25 26  1  0
 26 31  1  0
 27 26  2  0
 27 28  1  0
 28 29  2  0
 29 30  1  0
 31 30  2  0
 32 34  1  0
 32 24  1  0
 33 32  2  0
M  END
$$$$
