WNF.pdb
     RDKit          3D

 34 36  0  0  1  0  0  0  0  0999 V2000
   25.6055  -20.9881  -16.3236 N   0  0  0  0  0  0  0  0  0  0  0  0
   25.5335  -21.8128  -15.1598 C   0  0  1  0  0  0  0  0  0  0  0  0
   26.7721  -22.6915  -14.9930 C   0  0  0  0  0  0  0  0  0  0  0  0
   26.8375  -23.7744  -15.9988 C   0  0  0  0  0  0  0  0  0  0  0  0
   27.6712  -23.8049  -17.1079 C   0  0  0  0  0  0  0  0  0  0  0  0
   27.4555  -24.9455  -17.7869 N   0  0  0  0  0  0  0  0  0  0  0  0
   26.5069  -25.6768  -17.1702 C   0  0  0  0  0  0  0  0  0  0  0  0
   25.9489  -26.9106  -17.4813 C   0  0  0  0  0  0  0  0  0  0  0  0
   24.9771  -27.4247  -16.6502 C   0  0  0  0  0  0  0  0  0  0  0  0
   24.5864  -26.7110  -15.5418 C   0  0  0  0  0  0  0  0  0  0  0  0
   25.1451  -25.4746  -15.2287 C   0  0  0  0  0  0  0  0  0  0  0  0
   26.1181  -24.9572  -16.0596 C   0  0  0  0  0  0  0  0  0  0  0  0
   25.3440  -21.0335  -13.9107 C   0  0  0  0  0  0  0  0  0  0  0  0
   26.0554  -19.9776  -13.8077 O   0  0  0  0  0  0  0  0  0  0  0  0
   21.0275  -20.5444  -12.8199 N   0  0  0  0  0  0  0  0  0  0  0  0
   22.0469  -19.8737  -12.1110 C   0  0  0  0  0  0  0  0  0  0  0  0
   22.2654  -18.6318  -12.2563 O   0  0  0  0  0  0  0  0  0  0  0  0
   22.9241  -20.6035  -11.1445 C   0  0  0  0  0  0  0  0  0  0  0  0
   24.3408  -20.5036  -11.6966 C   0  0  2  0  0  0  0  0  0  0  0  0
   24.4623  -21.3666  -12.8652 N   0  0  0  0  0  0  0  0  0  0  0  0
   25.2855  -20.9098  -10.6293 C   0  0  0  0  0  0  0  0  0  0  0  0
   25.4410  -22.1367  -10.3904 O   0  0  0  0  0  0  0  0  0  0  0  0
   26.0234  -19.9701   -9.8658 N   0  0  0  0  0  0  0  0  0  0  0  0
   26.7403  -20.3248   -8.6343 C   0  0  1  0  0  0  0  0  0  0  0  0
   27.6641  -19.2354   -8.2210 C   0  0  0  0  0  0  0  0  0  0  0  0
   28.2353  -19.5100   -6.8891 C   0  0  0  0  0  0  0  0  0  0  0  0
   29.1188  -20.5828   -6.7077 C   0  0  0  0  0  0  0  0  0  0  0  0
   29.6854  -20.8538   -5.4937 C   0  0  0  0  0  0  0  0  0  0  0  0
   29.4228  -20.0941   -4.3843 C   0  0  0  0  0  0  0  0  0  0  0  0
   28.5560  -19.0283   -4.5267 C   0  0  0  0  0  0  0  0  0  0  0  0
   27.9857  -18.7565   -5.7541 C   0  0  0  0  0  0  0  0  0  0  0  0
   25.7436  -20.5906   -7.5887 C   0  0  0  0  0  0  0  0  0  0  0  0
   24.6592  -19.9803   -7.5270 O   0  0  0  0  0  0  0  0  0  0  0  0
   25.9918  -21.5701   -6.5970 O   0  0  0  0  0  0  0  0  0  0  0  0
  2  1  1  6
  3  2  1  0
  4  5  2  0
  4  3  1  0
  6  5  1  0
  7 12  2  0
  7  6  1  0
  8  7  1  0
  9 10  1  0
  9  8  2  0
 10 11  2  0
 11 12  1  0
 12  4  1  0
 13  2  1  0
 14 13  2  0
 16 15  1  0
 17 16  2  0
 19 18  1  1
 18 16  1  0
 19 20  1  0
 20 13  1  0
 21 19  1  0
 22 21  2  0
 23 21  1  0
 24 23  1  0
 24 25  1  1
 25 26  1  0
 26 31  1  0
 27 26  2  0
 27 28  1  0
 28 29  2  0
 29 30  1  0
 31 30  2  0
 32 34  1  0
 32 24  1  0
 33 32  2  0
M  END
$$$$
