WNF.pdb
     RDKit          3D

 34 36  0  0  1  0  0  0  0  0999 V2000
   28.4914  -21.6495  -13.8029 N   0  0  0  0  0  0  0  0  0  0  0  0
   27.3853  -21.2437  -12.9958 C   0  0  1  0  0  0  0  0  0  0  0  0
   27.7633  -20.1477  -12.0008 C   0  0  0  0  0  0  0  0  0  0  0  0
   28.7787  -20.5966  -11.0230 C   0  0  0  0  0  0  0  0  0  0  0  0
   30.0279  -21.1181  -11.3291 C   0  0  0  0  0  0  0  0  0  0  0  0
   30.6737  -21.4082  -10.1858 N   0  0  0  0  0  0  0  0  0  0  0  0
   29.8993  -21.0991   -9.1277 C   0  0  0  0  0  0  0  0  0  0  0  0
   30.1206  -21.2130   -7.7607 C   0  0  0  0  0  0  0  0  0  0  0  0
   29.1281  -20.8081   -6.8946 C   0  0  0  0  0  0  0  0  0  0  0  0
   27.9522  -20.3047   -7.3993 C   0  0  0  0  0  0  0  0  0  0  0  0
   27.7293  -20.1897   -8.7688 C   0  0  0  0  0  0  0  0  0  0  0  0
   28.7215  -20.5949   -9.6384 C   0  0  0  0  0  0  0  0  0  0  0  0
   26.2302  -20.7669  -13.7969 C   0  0  0  0  0  0  0  0  0  0  0  0
   26.5166  -19.9780  -14.7598 O   0  0  0  0  0  0  0  0  0  0  0  0
   23.6145  -21.4022  -17.7931 N   0  0  0  0  0  0  0  0  0  0  0  0
   23.5422  -22.3918  -16.7896 C   0  0  0  0  0  0  0  0  0  0  0  0
   22.6987  -23.3392  -16.8351 O   0  0  0  0  0  0  0  0  0  0  0  0
   24.4677  -22.3697  -15.6152 C   0  0  0  0  0  0  0  0  0  0  0  0
   23.9646  -21.2618  -14.6979 C   0  0  2  0  0  0  0  0  0  0  0  0
   24.8837  -21.1131  -13.5762 N   0  0  0  0  0  0  0  0  0  0  0  0
   22.6049  -21.6246  -14.2328 C   0  0  0  0  0  0  0  0  0  0  0  0
   21.7360  -21.9443  -15.0869 O   0  0  0  0  0  0  0  0  0  0  0  0
   22.2432  -21.6272  -12.8619 N   0  0  0  0  0  0  0  0  0  0  0  0
   21.3120  -20.6540  -12.2772 C   0  0  1  0  0  0  0  0  0  0  0  0
   22.0451  -19.5198  -11.6550 C   0  0  0  0  0  0  0  0  0  0  0  0
   22.8854  -19.9893  -10.5373 C   0  0  0  0  0  0  0  0  0  0  0  0
   24.2693  -19.7678  -10.5536 C   0  0  0  0  0  0  0  0  0  0  0  0
   25.0764  -20.1680   -9.5257 C   0  0  0  0  0  0  0  0  0  0  0  0
   24.5807  -20.8087   -8.4208 C   0  0  0  0  0  0  0  0  0  0  0  0
   23.2207  -21.0436   -8.3713 C   0  0  0  0  0  0  0  0  0  0  0  0
   22.4078  -20.6378   -9.4107 C   0  0  0  0  0  0  0  0  0  0  0  0
   20.4215  -20.1791  -13.3444 C   0  0  0  0  0  0  0  0  0  0  0  0
   19.1810  -20.2642  -13.2683 O   0  0  0  0  0  0  0  0  0  0  0  0
   20.9592  -19.5980  -14.5182 O   0  0  0  0  0  0  0  0  0  0  0  0
  2  1  1  6
  3  2  1  0
  4  5  2  0
  4  3  1  0
  6  5  1  0
  7 12  2  0
  7  6  1  0
  8  7  1  0
  9 10  1  0
  9  8  2  0
 10 11  2  0
 11 12  1  0
 12  4  1  0
 13  2  1  0
 14 13  2  0
 16 15  1  0
 17 16  2  0
 19 18  1  6
 18 16  1  0
 19 20  1  0
 20 13  1  0
 21 19  1  0
 22 21  2  0
 23 21  1  0
 24 23  1  0
 24 25  1  6
 25 26  1  0
 26 31  1  0
 27 26  2  0
 27 28  1  0
 28 29  2  0
 29 30  1  0
 31 30  2  0
 32 34  1  0
 32 24  1  0
 33 32  2  0
M  END
$$$$
