WNF.pdb
     RDKit          3D

 34 36  0  0  1  0  0  0  0  0999 V2000
   26.7311  -22.7606  -11.9089 N   0  0  0  0  0  0  0  0  0  0  0  0
   26.0337  -21.5147  -11.8755 C   0  0  1  0  0  0  0  0  0  0  0  0
   26.9790  -20.3237  -11.7284 C   0  0  0  0  0  0  0  0  0  0  0  0
   27.9112  -20.4780  -10.5901 C   0  0  0  0  0  0  0  0  0  0  0  0
   29.2723  -20.7332  -10.6825 C   0  0  0  0  0  0  0  0  0  0  0  0
   29.7901  -20.8029   -9.4433 N   0  0  0  0  0  0  0  0  0  0  0  0
   28.8224  -20.6037   -8.5275 C   0  0  0  0  0  0  0  0  0  0  0  0
   28.8604  -20.5802   -7.1388 C   0  0  0  0  0  0  0  0  0  0  0  0
   27.6898  -20.3473   -6.4496 C   0  0  0  0  0  0  0  0  0  0  0  0
   26.5219  -20.1448   -7.1465 C   0  0  0  0  0  0  0  0  0  0  0  0
   26.4826  -20.1679   -8.5381 C   0  0  0  0  0  0  0  0  0  0  0  0
   27.6533  -20.4014   -9.2308 C   0  0  0  0  0  0  0  0  0  0  0  0
   25.1893  -21.2934  -13.0762 C   0  0  0  0  0  0  0  0  0  0  0  0
   25.1966  -22.2382  -13.9356 O   0  0  0  0  0  0  0  0  0  0  0  0
   19.7914  -20.4444  -12.8888 N   0  0  0  0  0  0  0  0  0  0  0  0
   20.8742  -21.2780  -13.2412 C   0  0  0  0  0  0  0  0  0  0  0  0
   20.7428  -22.2518  -14.0448 O   0  0  0  0  0  0  0  0  0  0  0  0
   22.2407  -21.0480  -12.6791 C   0  0  0  0  0  0  0  0  0  0  0  0
   23.0161  -20.2839  -13.7452 C   0  0  2  0  0  0  0  0  0  0  0  0
   24.4057  -20.1508  -13.3250 N   0  0  0  0  0  0  0  0  0  0  0  0
   22.3797  -18.9570  -13.9217 C   0  0  0  0  0  0  0  0  0  0  0  0
   22.3538  -18.1612  -12.9457 O   0  0  0  0  0  0  0  0  0  0  0  0
   21.7986  -18.5469  -15.1483 N   0  0  0  0  0  0  0  0  0  0  0  0
   22.4321  -17.5766  -16.0502 C   0  0  1  0  0  0  0  0  0  0  0  0
   23.5994  -18.1781  -16.7476 C   0  0  0  0  0  0  0  0  0  0  0  0
   24.8093  -18.0993  -15.9076 C   0  0  0  0  0  0  0  0  0  0  0  0
   25.1951  -16.8779  -15.3387 C   0  0  0  0  0  0  0  0  0  0  0  0
   26.2966  -16.7710  -14.5367 C   0  0  0  0  0  0  0  0  0  0  0  0
   27.0877  -17.8502  -14.2426 C   0  0  0  0  0  0  0  0  0  0  0  0
   26.7370  -19.0703  -14.7865 C   0  0  0  0  0  0  0  0  0  0  0  0
   25.6236  -19.1754  -15.5958 C   0  0  0  0  0  0  0  0  0  0  0  0
   21.4209  -17.1259  -17.0155 C   0  0  0  0  0  0  0  0  0  0  0  0
   20.6462  -17.9141  -17.5903 O   0  0  0  0  0  0  0  0  0  0  0  0
   21.2945  -15.7510  -17.3286 O   0  0  0  0  0  0  0  0  0  0  0  0
  2  1  1  6
  3  2  1  0
  4  5  2  0
  4  3  1  0
  6  5  1  0
  7 12  2  0
  7  6  1  0
  8  7  1  0
  9 10  1  0
  9  8  2  0
 10 11  2  0
 11 12  1  0
 12  4  1  0
 13  2  1  0
 14 13  2  0
 16 15  1  0
 17 16  2  0
 19 18  1  1
 18 16  1  0
 19 20  1  0
 20 13  1  0
 21 19  1  0
 22 21  2  0
 23 21  1  0
 24 23  1  0
 24 25  1  6
 25 26  1  0
 26 31  1  0
 27 26  2  0
 27 28  1  0
 28 29  2  0
 29 30  1  0
 31 30  2  0
 32 34  1  0
 32 24  1  0
 33 32  2  0
M  END
$$$$
