WNF.pdb
     RDKit          3D

 34 36  0  0  1  0  0  0  0  0999 V2000
   26.0209  -21.1010  -14.9488 N   0  0  0  0  0  0  0  0  0  0  0  0
   26.5112  -20.3078  -13.8670 C   0  0  1  0  0  0  0  0  0  0  0  0
   25.4004  -19.5207  -13.1739 C   0  0  0  0  0  0  0  0  0  0  0  0
   24.8547  -18.4416  -14.0261 C   0  0  0  0  0  0  0  0  0  0  0  0
   23.5384  -18.3282  -14.4513 C   0  0  0  0  0  0  0  0  0  0  0  0
   23.4147  -17.2201  -15.2032 N   0  0  0  0  0  0  0  0  0  0  0  0
   24.6022  -16.5905  -15.2951 C   0  0  0  0  0  0  0  0  0  0  0  0
   24.9771  -15.4243  -15.9506 C   0  0  0  0  0  0  0  0  0  0  0  0
   26.2895  -15.0120  -15.8671 C   0  0  0  0  0  0  0  0  0  0  0  0
   27.1893  -15.7579  -15.1428 C   0  0  0  0  0  0  0  0  0  0  0  0
   26.8148  -16.9267  -14.4851 C   0  0  0  0  0  0  0  0  0  0  0  0
   25.5012  -17.3420  -14.5675 C   0  0  0  0  0  0  0  0  0  0  0  0
   27.2243  -21.1088  -12.8406 C   0  0  0  0  0  0  0  0  0  0  0  0
   26.7568  -22.2792  -12.6335 O   0  0  0  0  0  0  0  0  0  0  0  0
   30.1735  -23.1662   -9.3757 N   0  0  0  0  0  0  0  0  0  0  0  0
   30.9955  -22.2052  -10.0021 C   0  0  0  0  0  0  0  0  0  0  0  0
   32.2422  -22.1319   -9.7747 O   0  0  0  0  0  0  0  0  0  0  0  0
   30.4290  -21.2201  -10.9741 C   0  0  0  0  0  0  0  0  0  0  0  0
   28.9474  -21.5524  -11.1018 C   0  0  2  0  0  0  0  0  0  0  0  0
   28.3449  -20.6815  -12.1035 N   0  0  0  0  0  0  0  0  0  0  0  0
   28.3127  -21.3641   -9.7757 C   0  0  0  0  0  0  0  0  0  0  0  0
   28.9027  -21.8015   -8.7523 O   0  0  0  0  0  0  0  0  0  0  0  0
   27.0657  -20.7091   -9.6131 N   0  0  0  0  0  0  0  0  0  0  0  0
   26.3589  -20.6393   -8.3279 C   0  0  1  0  0  0  0  0  0  0  0  0
   26.6337  -19.3521   -7.6360 C   0  0  0  0  0  0  0  0  0  0  0  0
   27.5266  -19.5587   -6.4803 C   0  0  0  0  0  0  0  0  0  0  0  0
   28.6751  -18.7702   -6.3261 C   0  0  0  0  0  0  0  0  0  0  0  0
   29.5133  -18.9174   -5.2566 C   0  0  0  0  0  0  0  0  0  0  0  0
   29.2808  -19.8434   -4.2741 C   0  0  0  0  0  0  0  0  0  0  0  0
   28.1576  -20.6381   -4.3940 C   0  0  0  0  0  0  0  0  0  0  0  0
   27.3123  -20.4869   -5.4750 C   0  0  0  0  0  0  0  0  0  0  0  0
   24.9223  -20.7963   -8.5902 C   0  0  0  0  0  0  0  0  0  0  0  0
   24.0800  -20.8782   -7.6760 O   0  0  0  0  0  0  0  0  0  0  0  0
   24.4415  -20.8613   -9.9203 O   0  0  0  0  0  0  0  0  0  0  0  0
  2  1  1  6
  3  2  1  0
  4  5  2  0
  4  3  1  0
  6  5  1  0
  7 12  2  0
  7  6  1  0
  8  7  1  0
  9 10  1  0
  9  8  2  0
 10 11  2  0
 11 12  1  0
 12  4  1  0
 13  2  1  0
 14 13  2  0
 16 15  1  0
 17 16  2  0
 19 18  1  1
 18 16  1  0
 19 20  1  0
 20 13  1  0
 21 19  1  0
 22 21  2  0
 23 21  1  0
 24 23  1  0
 24 25  1  6
 25 26  1  0
 26 31  1  0
 27 26  2  0
 27 28  1  0
 28 29  2  0
 29 30  1  0
 31 30  2  0
 32 34  1  0
 32 24  1  0
 33 32  2  0
M  END
$$$$
