WNF.pdb
     RDKit          3D

 34 36  0  0  1  0  0  0  0  0999 V2000
   34.4489  -24.5221    7.3982 N   0  0  0  0  0  0  0  0  0  0  0  0
   35.1629  -23.9868    6.2832 C   0  0  1  0  0  0  0  0  0  0  0  0
   35.3114  -22.4684    6.3633 C   0  0  0  0  0  0  0  0  0  0  0  0
   34.0080  -21.7770    6.4706 C   0  0  0  0  0  0  0  0  0  0  0  0
   33.3828  -21.3986    7.6505 C   0  0  0  0  0  0  0  0  0  0  0  0
   32.2198  -20.7916    7.3550 N   0  0  0  0  0  0  0  0  0  0  0  0
   32.0467  -20.7520    6.0195 C   0  0  0  0  0  0  0  0  0  0  0  0
   31.0196  -20.2352    5.2396 C   0  0  0  0  0  0  0  0  0  0  0  0
   31.1147  -20.3387    3.8686 C   0  0  0  0  0  0  0  0  0  0  0  0
   32.2147  -20.9454    3.3095 C   0  0  0  0  0  0  0  0  0  0  0  0
   33.2449  -21.4634    4.0899 C   0  0  0  0  0  0  0  0  0  0  0  0
   33.1519  -21.3615    5.4632 C   0  0  0  0  0  0  0  0  0  0  0  0
   36.5148  -24.5791    6.1250 C   0  0  0  0  0  0  0  0  0  0  0  0
   36.9947  -25.1409    7.1669 O   0  0  0  0  0  0  0  0  0  0  0  0
   38.3022  -28.6618    3.9667 N   0  0  0  0  0  0  0  0  0  0  0  0
   38.3542  -27.5774    3.0651 C   0  0  0  0  0  0  0  0  0  0  0  0
   39.0744  -27.6019    2.0202 O   0  0  0  0  0  0  0  0  0  0  0  0
   37.5527  -26.3373    3.3019 C   0  0  0  0  0  0  0  0  0  0  0  0
   38.1004  -25.7143    4.5801 C   0  0  2  0  0  0  0  0  0  0  0  0
   37.2801  -24.5654    4.9436 N   0  0  0  0  0  0  0  0  0  0  0  0
   39.5066  -25.3141    4.3368 C   0  0  0  0  0  0  0  0  0  0  0  0
   40.3523  -26.2052    4.0590 O   0  0  0  0  0  0  0  0  0  0  0  0
   39.9380  -23.9651    4.4037 N   0  0  0  0  0  0  0  0  0  0  0  0
   40.8472  -23.4652    5.4428 C   0  0  1  0  0  0  0  0  0  0  0  0
   40.1702  -23.4136    6.7656 C   0  0  0  0  0  0  0  0  0  0  0  0
   41.1078  -22.9770    7.8173 C   0  0  0  0  0  0  0  0  0  0  0  0
   41.7186  -23.9208    8.6543 C   0  0  0  0  0  0  0  0  0  0  0  0
   42.6097  -23.5558    9.6243 C   0  0  0  0  0  0  0  0  0  0  0  0
   42.9572  -22.2475    9.8354 C   0  0  0  0  0  0  0  0  0  0  0  0
   42.3742  -21.2902    9.0285 C   0  0  0  0  0  0  0  0  0  0  0  0
   41.4750  -21.6618    8.0492 C   0  0  0  0  0  0  0  0  0  0  0  0
   42.0172  -24.3520    5.4879 C   0  0  0  0  0  0  0  0  0  0  0  0
   43.1851  -23.9228    5.4263 O   0  0  0  0  0  0  0  0  0  0  0  0
   41.8483  -25.7528    5.6045 O   0  0  0  0  0  0  0  0  0  0  0  0
  2  1  1  1
  3  2  1  0
  4  5  2  0
  4  3  1  0
  6  5  1  0
  7 12  2  0
  7  6  1  0
  8  7  1  0
  9 10  1  0
  9  8  2  0
 10 11  2  0
 11 12  1  0
 12  4  1  0
 13  2  1  0
 14 13  2  0
 16 15  1  0
 17 16  2  0
 19 18  1  6
 18 16  1  0
 19 20  1  0
 20 13  1  0
 21 19  1  0
 22 21  2  0
 23 21  1  0
 24 23  1  0
 24 25  1  1
 25 26  1  0
 26 31  1  0
 27 26  2  0
 27 28  1  0
 28 29  2  0
 29 30  1  0
 31 30  2  0
 32 34  1  0
 32 24  1  0
 33 32  2  0
M  END
$$$$
