WNF.pdb
     RDKit          3D

 34 36  0  0  1  0  0  0  0  0999 V2000
   24.5143  -19.4495  -17.5914 N   0  0  0  0  0  0  0  0  0  0  0  0
   24.4022  -20.6023  -16.7558 C   0  0  1  0  0  0  0  0  0  0  0  0
   25.6249  -21.5129  -16.8553 C   0  0  0  0  0  0  0  0  0  0  0  0
   25.9334  -21.8961  -18.2505 C   0  0  0  0  0  0  0  0  0  0  0  0
   27.1001  -21.5927  -18.9381 C   0  0  0  0  0  0  0  0  0  0  0  0
   27.0251  -22.1090  -20.1775 N   0  0  0  0  0  0  0  0  0  0  0  0
   25.8492  -22.7458  -20.3412 C   0  0  0  0  0  0  0  0  0  0  0  0
   25.3155  -23.4278  -21.4277 C   0  0  0  0  0  0  0  0  0  0  0  0
   24.0639  -23.9914  -21.3041 C   0  0  0  0  0  0  0  0  0  0  0  0
   23.3788  -23.8670  -20.1184 C   0  0  0  0  0  0  0  0  0  0  0  0
   23.9127  -23.1841  -19.0288 C   0  0  0  0  0  0  0  0  0  0  0  0
   25.1657  -22.6184  -19.1501 C   0  0  0  0  0  0  0  0  0  0  0  0
   24.1908  -20.2612  -15.3266 C   0  0  0  0  0  0  0  0  0  0  0  0
   24.7328  -19.1730  -14.9348 O   0  0  0  0  0  0  0  0  0  0  0  0
   20.8186  -20.7773  -10.3204 N   0  0  0  0  0  0  0  0  0  0  0  0
   21.4014  -20.1652  -11.4505 C   0  0  0  0  0  0  0  0  0  0  0  0
   21.6465  -18.9205  -11.4930 O   0  0  0  0  0  0  0  0  0  0  0  0
   21.7621  -20.9646  -12.6617 C   0  0  0  0  0  0  0  0  0  0  0  0
   23.1526  -20.5014  -13.0786 C   0  0  2  0  0  0  0  0  0  0  0  0
   23.4573  -21.0293  -14.4028 N   0  0  0  0  0  0  0  0  0  0  0  0
   24.1256  -20.9859  -12.0710 C   0  0  0  0  0  0  0  0  0  0  0  0
   24.0178  -22.1647  -11.6402 O   0  0  0  0  0  0  0  0  0  0  0  0
   25.1756  -20.1739  -11.5726 N   0  0  0  0  0  0  0  0  0  0  0  0
   25.9174  -20.4876  -10.3447 C   0  0  1  0  0  0  0  0  0  0  0  0
   26.8591  -19.3916   -9.9943 C   0  0  0  0  0  0  0  0  0  0  0  0
   27.5132  -19.6569   -8.6991 C   0  0  0  0  0  0  0  0  0  0  0  0
   27.0330  -19.0526   -7.5292 C   0  0  0  0  0  0  0  0  0  0  0  0
   27.5989  -19.2924   -6.3084 C   0  0  0  0  0  0  0  0  0  0  0  0
   28.6676  -20.1360   -6.1569 C   0  0  0  0  0  0  0  0  0  0  0  0
   29.1671  -20.7490   -7.2893 C   0  0  0  0  0  0  0  0  0  0  0  0
   28.5932  -20.5054   -8.5210 C   0  0  0  0  0  0  0  0  0  0  0  0
   24.9424  -20.7043   -9.2677 C   0  0  0  0  0  0  0  0  0  0  0  0
   23.9175  -20.0073   -9.1424 O   0  0  0  0  0  0  0  0  0  0  0  0
   25.1438  -21.7349   -8.3180 O   0  0  0  0  0  0  0  0  0  0  0  0
  2  1  1  6
  3  2  1  0
  4  5  2  0
  4  3  1  0
  6  5  1  0
  7 12  2  0
  7  6  1  0
  8  7  1  0
  9 10  1  0
  9  8  2  0
 10 11  2  0
 11 12  1  0
 12  4  1  0
 13  2  1  0
 14 13  2  0
 16 15  1  0
 17 16  2  0
 19 18  1  1
 18 16  1  0
 19 20  1  0
 20 13  1  0
 21 19  1  0
 22 21  2  0
 23 21  1  0
 24 23  1  0
 24 25  1  1
 25 26  1  0
 26 31  1  0
 27 26  2  0
 27 28  1  0
 28 29  2  0
 29 30  1  0
 31 30  2  0
 32 34  1  0
 32 24  1  0
 33 32  2  0
M  END
$$$$
