WNF.pdb
     RDKit          3D

 34 36  0  0  1  0  0  0  0  0999 V2000
   22.9435  -20.8140  -17.2032 N   0  0  0  0  0  0  0  0  0  0  0  0
   22.7210  -21.1804  -15.8409 C   0  0  1  0  0  0  0  0  0  0  0  0
   21.8412  -22.4225  -15.7097 C   0  0  0  0  0  0  0  0  0  0  0  0
   20.5094  -22.2408  -16.3278 C   0  0  0  0  0  0  0  0  0  0  0  0
   20.0908  -22.7872  -17.5329 C   0  0  0  0  0  0  0  0  0  0  0  0
   18.8217  -22.4096  -17.7678 N   0  0  0  0  0  0  0  0  0  0  0  0
   18.3790  -21.6301  -16.7621 C   0  0  0  0  0  0  0  0  0  0  0  0
   17.1553  -21.0067  -16.5512 C   0  0  0  0  0  0  0  0  0  0  0  0
   16.9842  -20.2569  -15.4076 C   0  0  0  0  0  0  0  0  0  0  0  0
   18.0194  -20.1447  -14.5096 C   0  0  0  0  0  0  0  0  0  0  0  0
   19.2460  -20.7692  -14.7196 C   0  0  0  0  0  0  0  0  0  0  0  0
   19.4202  -21.5203  -15.8643 C   0  0  0  0  0  0  0  0  0  0  0  0
   23.9812  -21.4217  -15.0945 C   0  0  0  0  0  0  0  0  0  0  0  0
   24.4393  -22.6123  -15.1587 O   0  0  0  0  0  0  0  0  0  0  0  0
   28.9626  -21.4865  -13.1952 N   0  0  0  0  0  0  0  0  0  0  0  0
   28.1947  -20.3025  -13.1838 C   0  0  0  0  0  0  0  0  0  0  0  0
   28.4109  -19.3656  -12.3551 O   0  0  0  0  0  0  0  0  0  0  0  0
   27.0806  -20.0952  -14.1595 C   0  0  0  0  0  0  0  0  0  0  0  0
   25.8750  -20.8341  -13.5919 C   0  0  2  0  0  0  0  0  0  0  0  0
   24.6844  -20.4597  -14.3451 N   0  0  0  0  0  0  0  0  0  0  0  0
   25.7399  -20.4732  -12.1607 C   0  0  0  0  0  0  0  0  0  0  0  0
   25.0328  -19.4783  -11.8494 O   0  0  0  0  0  0  0  0  0  0  0  0
   26.3754  -21.2055  -11.1262 N   0  0  0  0  0  0  0  0  0  0  0  0
   26.1123  -20.9712   -9.7007 C   0  0  1  0  0  0  0  0  0  0  0  0
   26.6257  -19.6427   -9.2736 C   0  0  0  0  0  0  0  0  0  0  0  0
   27.3503  -19.7479   -7.9931 C   0  0  0  0  0  0  0  0  0  0  0  0
   26.9833  -18.9426   -6.9064 C   0  0  0  0  0  0  0  0  0  0  0  0
   27.6164  -19.0284   -5.6981 C   0  0  0  0  0  0  0  0  0  0  0  0
   28.6460  -19.9052   -5.4788 C   0  0  0  0  0  0  0  0  0  0  0  0
   29.0342  -20.7146   -6.5283 C   0  0  0  0  0  0  0  0  0  0  0  0
   28.3926  -20.6262   -7.7474 C   0  0  0  0  0  0  0  0  0  0  0  0
   24.6626  -21.0663   -9.4845 C   0  0  0  0  0  0  0  0  0  0  0  0
   23.8385  -20.4644  -10.1989 O   0  0  0  0  0  0  0  0  0  0  0  0
   24.1474  -21.8626   -8.4332 O   0  0  0  0  0  0  0  0  0  0  0  0
  2  1  1  6
  3  2  1  0
  4  5  2  0
  4  3  1  0
  6  5  1  0
  7 12  2  0
  7  6  1  0
  8  7  1  0
  9 10  1  0
  9  8  2  0
 10 11  2  0
 11 12  1  0
 12  4  1  0
 13  2  1  0
 14 13  2  0
 16 15  1  0
 17 16  2  0
 19 18  1  6
 18 16  1  0
 19 20  1  0
 20 13  1  0
 21 19  1  0
 22 21  2  0
 23 21  1  0
 24 23  1  0
 24 25  1  6
 25 26  1  0
 26 31  1  0
 27 26  2  0
 27 28  1  0
 28 29  2  0
 29 30  1  0
 31 30  2  0
 32 34  1  0
 32 24  1  0
 33 32  2  0
M  END
$$$$
