WNF.pdb
     RDKit          3D

 34 36  0  0  1  0  0  0  0  0999 V2000
   15.9368  -20.2400  -16.0401 N   0  0  0  0  0  0  0  0  0  0  0  0
   15.8314  -19.6401  -14.7483 C   0  0  1  0  0  0  0  0  0  0  0  0
   15.3619  -18.1880  -14.8188 C   0  0  0  0  0  0  0  0  0  0  0  0
   16.3156  -17.3192  -15.5429 C   0  0  0  0  0  0  0  0  0  0  0  0
   17.5790  -17.6883  -15.9832 C   0  0  0  0  0  0  0  0  0  0  0  0
   18.1503  -16.6406  -16.6033 N   0  0  0  0  0  0  0  0  0  0  0  0
   17.3127  -15.5854  -16.5918 C   0  0  0  0  0  0  0  0  0  0  0  0
   17.4465  -14.2988  -17.0989 C   0  0  0  0  0  0  0  0  0  0  0  0
   16.4032  -13.4129  -16.9371 C   0  0  0  0  0  0  0  0  0  0  0  0
   15.2639  -13.8200  -16.2837 C   0  0  0  0  0  0  0  0  0  0  0  0
   15.1284  -15.1091  -15.7753 C   0  0  0  0  0  0  0  0  0  0  0  0
   16.1719  -15.9981  -15.9356 C   0  0  0  0  0  0  0  0  0  0  0  0
   14.9199  -20.3805  -13.8403 C   0  0  0  0  0  0  0  0  0  0  0  0
   13.6740  -20.1539  -14.0070 O   0  0  0  0  0  0  0  0  0  0  0  0
   14.5711  -24.6603  -14.1075 N   0  0  0  0  0  0  0  0  0  0  0  0
   13.8563  -23.8262  -13.2216 C   0  0  0  0  0  0  0  0  0  0  0  0
   12.6777  -23.4273  -13.4726 O   0  0  0  0  0  0  0  0  0  0  0  0
   14.4611  -23.3710  -11.9319 C   0  0  0  0  0  0  0  0  0  0  0  0
   14.3426  -21.8520  -11.9192 C   0  0  2  0  0  0  0  0  0  0  0  0
   15.3207  -21.2866  -12.8404 N   0  0  0  0  0  0  0  0  0  0  0  0
   14.5747  -21.3791  -10.5338 C   0  0  0  0  0  0  0  0  0  0  0  0
   15.7584  -21.2914  -10.1122 O   0  0  0  0  0  0  0  0  0  0  0  0
   13.5150  -21.0199   -9.6629 N   0  0  0  0  0  0  0  0  0  0  0  0
   13.7335  -20.4934   -8.3097 C   0  0  1  0  0  0  0  0  0  0  0  0
   14.0341  -19.0377   -8.3445 C   0  0  0  0  0  0  0  0  0  0  0  0
   12.9076  -18.2838   -8.9263 C   0  0  0  0  0  0  0  0  0  0  0  0
   12.8361  -18.0787  -10.3109 C   0  0  0  0  0  0  0  0  0  0  0  0
   11.7961  -17.4051  -10.8880 C   0  0  0  0  0  0  0  0  0  0  0  0
   10.7642  -16.8913  -10.1478 C   0  0  0  0  0  0  0  0  0  0  0  0
   10.8023  -17.0748   -8.7794 C   0  0  0  0  0  0  0  0  0  0  0  0
   11.8536  -17.7560   -8.1993 C   0  0  0  0  0  0  0  0  0  0  0  0
   12.5252  -20.7596   -7.5179 C   0  0  0  0  0  0  0  0  0  0  0  0
   11.4543  -21.1304   -8.0352 O   0  0  0  0  0  0  0  0  0  0  0  0
   12.5424  -20.5980   -6.1115 O   0  0  0  0  0  0  0  0  0  0  0  0
  2  1  1  6
  3  2  1  0
  4  5  2  0
  4  3  1  0
  6  5  1  0
  7 12  2  0
  7  6  1  0
  8  7  1  0
  9 10  1  0
  9  8  2  0
 10 11  2  0
 11 12  1  0
 12  4  1  0
 13  2  1  0
 14 13  2  0
 16 15  1  0
 17 16  2  0
 19 18  1  1
 18 16  1  0
 19 20  1  0
 20 13  1  0
 21 19  1  0
 22 21  2  0
 23 21  1  0
 24 23  1  0
 24 25  1  6
 25 26  1  0
 26 31  1  0
 27 26  2  0
 27 28  1  0
 28 29  2  0
 29 30  1  0
 31 30  2  0
 32 34  1  0
 32 24  1  0
 33 32  2  0
M  END
$$$$
