VAE.pdb
     RDKit          3D

 22 21  0  0  1  0  0  0  0  0999 V2000
    7.9695  -15.4973   26.7509 C   0  0  0  0  0  0  0  0  0  0  0  0
    8.2296  -15.5651   25.2805 C   0  0  2  0  0  0  0  0  0  0  0  0
    9.3144  -14.5421   24.9711 C   0  0  0  0  0  0  0  0  0  0  0  0
    7.0144  -15.3385   24.4488 C   0  0  2  0  0  0  0  0  0  0  0  0
    5.9728  -16.3062   24.8480 N   0  0  0  0  0  0  0  0  0  0  0  0
    7.2510  -15.5308   23.0243 C   0  0  0  0  0  0  0  0  0  0  0  0
    7.1526  -16.6877   22.5180 O   0  0  0  0  0  0  0  0  0  0  0  0
    7.7242  -13.4242   19.9659 C   0  0  0  0  0  0  0  0  0  0  0  0
    7.7552  -14.7353   20.7475 C   0  0  2  0  0  0  0  0  0  0  0  0
    7.5868  -14.4490   22.1797 N   0  0  0  0  0  0  0  0  0  0  0  0
    9.0795  -15.3506   20.5593 C   0  0  0  0  0  0  0  0  0  0  0  0
    9.4786  -15.6581   19.4176 O   0  0  0  0  0  0  0  0  0  0  0  0
    9.8950  -15.5904   21.6828 N   0  0  0  0  0  0  0  0  0  0  0  0
   11.2034  -16.2543   21.4898 C   0  0  1  0  0  0  0  0  0  0  0  0
   12.2152  -15.2586   21.0423 C   0  0  0  0  0  0  0  0  0  0  0  0
   13.5954  -15.8127   20.9494 C   0  0  0  0  0  0  0  0  0  0  0  0
   14.5430  -14.7670   20.5114 C   0  0  0  0  0  0  0  0  0  0  0  0
   15.5626  -14.5010   21.2220 O   0  0  0  0  0  0  0  0  0  0  0  0
   11.5328  -16.8879   22.7983 C   0  0  0  0  0  0  0  0  0  0  0  0
   12.4943  -17.8662   22.8383 O   0  0  0  0  0  0  0  0  0  0  0  0
   14.3095  -14.0868   19.3342 O   0  0  0  0  0  0  0  0  0  0  0  0
   10.9426  -16.5420   23.8638 O   0  0  0  0  0  0  0  0  0  0  0  0
  2  3  1  6
  2  1  1  0
  4  6  1  0
  4  2  1  0
  4  5  1  1
  6 10  1  0
  7  6  2  0
  9  8  1  6
  9 11  1  0
 10  9  1  0
 11 13  1  0
 11 12  2  0
 13 14  1  0
 14 15  1  1
 14 19  1  0
 16 17  1  0
 16 15  1  0
 17 21  1  0
 18 17  2  0
 19 20  1  0
 22 19  2  0
M  END
$$$$
