VAE.pdb
     RDKit          3D

 22 21  0  0  1  0  0  0  0  0999 V2000
    6.9577  -16.5866   20.5842 C   0  0  0  0  0  0  0  0  0  0  0  0
    7.5628  -16.0261   21.8307 C   0  0  2  0  0  0  0  0  0  0  0  0
    6.9284  -16.7603   23.0044 C   0  0  0  0  0  0  0  0  0  0  0  0
    7.4022  -14.5506   21.9606 C   0  0  2  0  0  0  0  0  0  0  0  0
    8.0992  -13.8918   20.8377 N   0  0  0  0  0  0  0  0  0  0  0  0
    7.9754  -14.0176   23.1893 C   0  0  0  0  0  0  0  0  0  0  0  0
    9.2327  -13.9903   23.3400 O   0  0  0  0  0  0  0  0  0  0  0  0
    6.8238  -12.3571   26.3517 C   0  0  0  0  0  0  0  0  0  0  0  0
    7.8233  -13.1049   25.4728 C   0  0  2  0  0  0  0  0  0  0  0  0
    7.1583  -13.5198   24.2290 N   0  0  0  0  0  0  0  0  0  0  0  0
    8.2462  -14.3194   26.1896 C   0  0  0  0  0  0  0  0  0  0  0  0
    7.4377  -15.2477   26.3946 O   0  0  0  0  0  0  0  0  0  0  0  0
    9.5756  -14.4250   26.6438 N   0  0  0  0  0  0  0  0  0  0  0  0
    9.9634  -15.5981   27.4583 C   0  0  1  0  0  0  0  0  0  0  0  0
   11.2211  -16.1902   26.9264 C   0  0  0  0  0  0  0  0  0  0  0  0
   11.0732  -16.7790   25.5655 C   0  0  0  0  0  0  0  0  0  0  0  0
   12.3616  -17.3325   25.0998 C   0  0  0  0  0  0  0  0  0  0  0  0
   13.3688  -17.3259   25.8749 O   0  0  0  0  0  0  0  0  0  0  0  0
   10.0885  -15.0968   28.8565 C   0  0  0  0  0  0  0  0  0  0  0  0
   10.3201  -15.9970   29.8659 O   0  0  0  0  0  0  0  0  0  0  0  0
   12.4590  -17.8498   23.8247 O   0  0  0  0  0  0  0  0  0  0  0  0
    9.9830  -13.8638   29.1251 O   0  0  0  0  0  0  0  0  0  0  0  0
  2  3  1  1
  2  1  1  0
  4  6  1  0
  4  2  1  0
  4  5  1  6
  6 10  1  0
  7  6  2  0
  9  8  1  1
  9 11  1  0
 10  9  1  0
 11 13  1  0
 11 12  2  0
 13 14  1  0
 14 15  1  6
 14 19  1  0
 16 17  1  0
 16 15  1  0
 17 21  1  0
 18 17  2  0
 19 20  1  0
 22 19  2  0
M  END
$$$$
