VAE.pdb
     RDKit          3D

 22 21  0  0  1  0  0  0  0  0999 V2000
    7.5769  -15.7348   20.1775 C   0  0  0  0  0  0  0  0  0  0  0  0
    6.8620  -14.4241   20.2492 C   0  0  2  0  0  0  0  0  0  0  0  0
    6.4303  -14.0726   18.8317 C   0  0  0  0  0  0  0  0  0  0  0  0
    7.6753  -13.3336   20.8567 C   0  0  2  0  0  0  0  0  0  0  0  0
    8.8898  -13.1301   20.0416 N   0  0  0  0  0  0  0  0  0  0  0  0
    8.1174  -13.6351   22.2117 C   0  0  0  0  0  0  0  0  0  0  0  0
    9.2421  -14.1859   22.4014 O   0  0  0  0  0  0  0  0  0  0  0  0
    6.9552  -13.0309   25.7332 C   0  0  0  0  0  0  0  0  0  0  0  0
    7.8778  -13.6105   24.6638 C   0  0  2  0  0  0  0  0  0  0  0  0
    7.3189  -13.3226   23.3348 N   0  0  0  0  0  0  0  0  0  0  0  0
    7.9165  -15.0724   24.8341 C   0  0  0  0  0  0  0  0  0  0  0  0
    6.9515  -15.7776   24.4752 O   0  0  0  0  0  0  0  0  0  0  0  0
    9.0559  -15.6704   25.4076 N   0  0  0  0  0  0  0  0  0  0  0  0
    9.0965  -17.1427   25.5516 C   0  0  1  0  0  0  0  0  0  0  0  0
    9.9036  -17.7368   24.4511 C   0  0  0  0  0  0  0  0  0  0  0  0
   11.3287  -17.3014   24.4558 C   0  0  0  0  0  0  0  0  0  0  0  0
   12.0717  -17.9550   23.3584 C   0  0  0  0  0  0  0  0  0  0  0  0
   11.5277  -18.8966   22.7007 O   0  0  0  0  0  0  0  0  0  0  0  0
    9.6600  -17.4016   26.9071 C   0  0  0  0  0  0  0  0  0  0  0  0
    9.6542  -18.6844   27.3941 O   0  0  0  0  0  0  0  0  0  0  0  0
   13.3520  -17.5370   23.0599 O   0  0  0  0  0  0  0  0  0  0  0  0
   10.1378  -16.4636   27.6110 O   0  0  0  0  0  0  0  0  0  0  0  0
  2  3  1  6
  2  1  1  0
  4  6  1  0
  4  2  1  0
  4  5  1  6
  6 10  1  0
  7  6  2  0
  9  8  1  1
  9 11  1  0
 10  9  1  0
 11 13  1  0
 11 12  2  0
 13 14  1  0
 14 15  1  6
 14 19  1  0
 16 17  1  0
 16 15  1  0
 17 21  1  0
 18 17  2  0
 19 20  1  0
 22 19  2  0
M  END
$$$$
