VAE.pdb
     RDKit          3D

 22 21  0  0  1  0  0  0  0  0999 V2000
    6.4764  -18.6836   16.4465 C   0  0  0  0  0  0  0  0  0  0  0  0
    7.5969  -17.8802   17.0239 C   0  0  2  0  0  0  0  0  0  0  0  0
    7.5515  -18.0711   18.5340 C   0  0  0  0  0  0  0  0  0  0  0  0
    7.5476  -16.4373   16.6559 C   0  0  2  0  0  0  0  0  0  0  0  0
    7.7038  -16.3100   15.1929 N   0  0  0  0  0  0  0  0  0  0  0  0
    8.6121  -15.6532   17.2677 C   0  0  0  0  0  0  0  0  0  0  0  0
    9.8079  -15.7965   16.8752 O   0  0  0  0  0  0  0  0  0  0  0  0
    8.9215  -12.7935   19.6809 C   0  0  0  0  0  0  0  0  0  0  0  0
    9.4602  -13.8823   18.7561 C   0  0  2  0  0  0  0  0  0  0  0  0
    8.3446  -14.7223   18.2964 N   0  0  0  0  0  0  0  0  0  0  0  0
   10.3788  -14.7312   19.5328 C   0  0  0  0  0  0  0  0  0  0  0  0
    9.9441  -15.4707   20.4393 O   0  0  0  0  0  0  0  0  0  0  0  0
   11.7572  -14.7015   19.2433 N   0  0  0  0  0  0  0  0  0  0  0  0
   12.6717  -15.5657   20.0221 C   0  0  1  0  0  0  0  0  0  0  0  0
   13.2806  -16.5910   19.1313 C   0  0  0  0  0  0  0  0  0  0  0  0
   12.3141  -17.6255   18.6663 C   0  0  0  0  0  0  0  0  0  0  0  0
   12.9766  -18.5757   17.7491 C   0  0  0  0  0  0  0  0  0  0  0  0
   12.2875  -19.2061   16.8871 O   0  0  0  0  0  0  0  0  0  0  0  0
   13.6705  -14.6467   20.6384 C   0  0  0  0  0  0  0  0  0  0  0  0
   14.5006  -15.1300   21.6184 O   0  0  0  0  0  0  0  0  0  0  0  0
   14.3392  -18.7711   17.8394 O   0  0  0  0  0  0  0  0  0  0  0  0
   13.7625  -13.4368   20.2763 O   0  0  0  0  0  0  0  0  0  0  0  0
  2  3  1  1
  2  1  1  0
  4  6  1  0
  4  2  1  0
  4  5  1  6
  6 10  1  0
  7  6  2  0
  9  8  1  1
  9 11  1  0
 10  9  1  0
 11 13  1  0
 11 12  2  0
 13 14  1  0
 14 15  1  6
 14 19  1  0
 16 17  1  0
 16 15  1  0
 17 21  1  0
 18 17  2  0
 19 20  1  0
 22 19  2  0
M  END
$$$$
