VAE.pdb
     RDKit          3D

 22 21  0  0  1  0  0  0  0  0999 V2000
    7.9219  -16.6707   22.4572 C   0  0  0  0  0  0  0  0  0  0  0  0
    6.9366  -15.6038   22.1035 C   0  0  2  0  0  0  0  0  0  0  0  0
    6.3548  -15.9662   20.7435 C   0  0  0  0  0  0  0  0  0  0  0  0
    7.5186  -14.2323   22.0987 C   0  0  2  0  0  0  0  0  0  0  0  0
    8.6271  -14.1852   21.1240 N   0  0  0  0  0  0  0  0  0  0  0  0
    8.0689  -13.8387   23.3889 C   0  0  0  0  0  0  0  0  0  0  0  0
    9.2922  -14.0457   23.6436 O   0  0  0  0  0  0  0  0  0  0  0  0
    6.9057  -12.1863   26.5587 C   0  0  0  0  0  0  0  0  0  0  0  0
    7.8779  -12.9817   25.6909 C   0  0  2  0  0  0  0  0  0  0  0  0
    7.2675  -13.2207   24.3749 N   0  0  0  0  0  0  0  0  0  0  0  0
    8.1025  -14.2878   26.3322 C   0  0  0  0  0  0  0  0  0  0  0  0
    7.2259  -15.1749   26.2869 O   0  0  0  0  0  0  0  0  0  0  0  0
    9.3195  -14.5285   26.9999 N   0  0  0  0  0  0  0  0  0  0  0  0
    9.4787  -15.7824   27.7695 C   0  0  1  0  0  0  0  0  0  0  0  0
   10.2003  -16.7924   26.9481 C   0  0  0  0  0  0  0  0  0  0  0  0
   11.3511  -16.2291   26.1873 C   0  0  0  0  0  0  0  0  0  0  0  0
   12.0032  -17.2828   25.3825 C   0  0  0  0  0  0  0  0  0  0  0  0
   12.5925  -18.2473   25.9636 O   0  0  0  0  0  0  0  0  0  0  0  0
   10.2037  -15.4034   29.0156 C   0  0  0  0  0  0  0  0  0  0  0  0
   10.5445  -14.0887   29.2111 O   0  0  0  0  0  0  0  0  0  0  0  0
   11.9675  -17.2076   24.0055 O   0  0  0  0  0  0  0  0  0  0  0  0
   10.5094  -16.2690   29.8879 O   0  0  0  0  0  0  0  0  0  0  0  0
  2  3  1  6
  2  1  1  0
  4  6  1  0
  4  2  1  0
  4  5  1  6
  6 10  1  0
  7  6  2  0
  9  8  1  1
  9 11  1  0
 10  9  1  0
 11 13  1  0
 11 12  2  0
 13 14  1  0
 14 15  1  6
 14 19  1  0
 16 17  1  0
 16 15  1  0
 17 21  1  0
 18 17  2  0
 19 20  1  0
 22 19  2  0
M  END
$$$$
