VAE.pdb
     RDKit          3D

 22 21  0  0  1  0  0  0  0  0999 V2000
    1.6288  -21.3736   24.0447 C   0  0  0  0  0  0  0  0  0  0  0  0
    0.2672  -21.9856   24.1214 C   0  0  2  0  0  0  0  0  0  0  0  0
    0.4579  -23.4960   24.1603 C   0  0  0  0  0  0  0  0  0  0  0  0
   -0.6332  -21.5791   23.0062 C   0  0  2  0  0  0  0  0  0  0  0  0
   -0.7274  -20.1056   22.9788 N   0  0  0  0  0  0  0  0  0  0  0  0
   -1.9899  -22.0900   23.1496 C   0  0  0  0  0  0  0  0  0  0  0  0
   -2.6992  -21.7312   24.1358 O   0  0  0  0  0  0  0  0  0  0  0  0
   -4.5051  -23.9916   21.1510 C   0  0  0  0  0  0  0  0  0  0  0  0
   -3.9097  -23.4701   22.4565 C   0  0  2  0  0  0  0  0  0  0  0  0
   -2.5457  -22.9823   22.2055 N   0  0  0  0  0  0  0  0  0  0  0  0
   -3.8238  -24.5944   23.4033 C   0  0  0  0  0  0  0  0  0  0  0  0
   -2.7956  -25.2995   23.4576 O   0  0  0  0  0  0  0  0  0  0  0  0
   -4.9158  -24.8684   24.2501 N   0  0  0  0  0  0  0  0  0  0  0  0
   -4.8159  -25.9928   25.2070 C   0  0  1  0  0  0  0  0  0  0  0  0
   -5.2635  -25.5508   26.5560 C   0  0  0  0  0  0  0  0  0  0  0  0
   -5.3298  -26.6561   27.5532 C   0  0  0  0  0  0  0  0  0  0  0  0
   -5.8511  -26.1573   28.8426 C   0  0  0  0  0  0  0  0  0  0  0  0
   -6.8090  -26.7660   29.4145 O   0  0  0  0  0  0  0  0  0  0  0  0
   -5.6501  -27.0873   24.6342 C   0  0  0  0  0  0  0  0  0  0  0  0
   -5.3183  -28.3894   24.9123 O   0  0  0  0  0  0  0  0  0  0  0  0
   -5.2929  -25.0320   29.4129 O   0  0  0  0  0  0  0  0  0  0  0  0
   -6.6503  -26.8362   23.8993 O   0  0  0  0  0  0  0  0  0  0  0  0
  2  3  1  6
  2  1  1  0
  4  6  1  0
  4  2  1  0
  4  5  1  1
  6 10  1  0
  7  6  2  0
  9  8  1  6
  9 11  1  0
 10  9  1  0
 11 13  1  0
 11 12  2  0
 13 14  1  0
 14 15  1  1
 14 19  1  0
 16 17  1  0
 16 15  1  0
 17 21  1  0
 18 17  2  0
 19 20  1  0
 22 19  2  0
M  END
$$$$
