VAE.pdb
     RDKit          3D

 22 21  0  0  1  0  0  0  0  0999 V2000
    7.2608  -14.7207   18.1836 C   0  0  0  0  0  0  0  0  0  0  0  0
    7.7370  -14.8213   19.5969 C   0  0  2  0  0  0  0  0  0  0  0  0
    7.0134  -16.0029   20.2290 C   0  0  0  0  0  0  0  0  0  0  0  0
    7.5337  -13.5735   20.3851 C   0  0  2  0  0  0  0  0  0  0  0  0
    8.2655  -12.4694   19.7323 N   0  0  0  0  0  0  0  0  0  0  0  0
    8.0356  -13.6692   21.7494 C   0  0  0  0  0  0  0  0  0  0  0  0
    9.2838  -13.6977   21.9628 O   0  0  0  0  0  0  0  0  0  0  0  0
    6.7195  -13.4815   25.2466 C   0  0  0  0  0  0  0  0  0  0  0  0
    7.7608  -13.8466   24.1915 C   0  0  2  0  0  0  0  0  0  0  0  0
    7.1585  -13.7273   22.8556 N   0  0  0  0  0  0  0  0  0  0  0  0
    8.1451  -15.2534   24.3933 C   0  0  0  0  0  0  0  0  0  0  0  0
    7.3738  -16.1752   24.0574 O   0  0  0  0  0  0  0  0  0  0  0  0
    9.3951  -15.5513   24.9709 N   0  0  0  0  0  0  0  0  0  0  0  0
    9.7453  -16.9653   25.2313 C   0  0  1  0  0  0  0  0  0  0  0  0
   11.1051  -17.2561   24.7003 C   0  0  0  0  0  0  0  0  0  0  0  0
   11.1612  -17.3259   23.2129 C   0  0  0  0  0  0  0  0  0  0  0  0
   12.5436  -17.5847   22.7601 C   0  0  0  0  0  0  0  0  0  0  0  0
   13.2609  -18.4347   23.3751 O   0  0  0  0  0  0  0  0  0  0  0  0
    9.6336  -17.1450   26.7068 C   0  0  0  0  0  0  0  0  0  0  0  0
    9.5362  -18.4160   27.2150 O   0  0  0  0  0  0  0  0  0  0  0  0
   13.0437  -16.8977   21.6733 O   0  0  0  0  0  0  0  0  0  0  0  0
    9.6250  -16.1514   27.4917 O   0  0  0  0  0  0  0  0  0  0  0  0
  2  3  1  1
  2  1  1  0
  4  6  1  0
  4  2  1  0
  4  5  1  6
  6 10  1  0
  7  6  2  0
  9  8  1  1
  9 11  1  0
 10  9  1  0
 11 13  1  0
 11 12  2  0
 13 14  1  0
 14 15  1  1
 14 19  1  0
 16 17  1  0
 16 15  1  0
 17 21  1  0
 18 17  2  0
 19 20  1  0
 22 19  2  0
M  END
$$$$
