VAE.pdb
     RDKit          3D

 22 21  0  0  1  0  0  0  0  0999 V2000
    7.0810  -15.0124   17.7809 C   0  0  0  0  0  0  0  0  0  0  0  0
    7.6134  -15.0439   19.1773 C   0  0  2  0  0  0  0  0  0  0  0  0
    6.9737  -16.2384   19.8724 C   0  0  0  0  0  0  0  0  0  0  0  0
    7.3770  -13.7827   19.9344 C   0  0  2  0  0  0  0  0  0  0  0  0
    7.9586  -12.6543   19.1799 N   0  0  0  0  0  0  0  0  0  0  0  0
    7.9990  -13.7799   21.2517 C   0  0  0  0  0  0  0  0  0  0  0  0
    9.2608  -13.7392   21.3545 O   0  0  0  0  0  0  0  0  0  0  0  0
    6.9502  -13.5502   24.8462 C   0  0  0  0  0  0  0  0  0  0  0  0
    7.9445  -13.7999   23.7149 C   0  0  2  0  0  0  0  0  0  0  0  0
    7.2247  -13.8174   22.4331 N   0  0  0  0  0  0  0  0  0  0  0  0
    8.5456  -15.1286   23.9172 C   0  0  0  0  0  0  0  0  0  0  0  0
    7.8955  -16.1633   23.6637 O   0  0  0  0  0  0  0  0  0  0  0  0
    9.8654  -15.2226   24.4011 N   0  0  0  0  0  0  0  0  0  0  0  0
   10.5024  -16.5553   24.4912 C   0  0  1  0  0  0  0  0  0  0  0  0
   11.9520  -16.4461   24.1716 C   0  0  0  0  0  0  0  0  0  0  0  0
   12.7157  -17.6985   24.4341 C   0  0  0  0  0  0  0  0  0  0  0  0
   14.1461  -17.5067   24.1173 C   0  0  0  0  0  0  0  0  0  0  0  0
   14.6908  -18.2070   23.2073 O   0  0  0  0  0  0  0  0  0  0  0  0
   10.2348  -17.0393   25.8754 C   0  0  0  0  0  0  0  0  0  0  0  0
   10.3639  -18.3782   26.1466 O   0  0  0  0  0  0  0  0  0  0  0  0
   14.8781  -16.5690   24.8158 O   0  0  0  0  0  0  0  0  0  0  0  0
    9.8909  -16.2412   26.7963 O   0  0  0  0  0  0  0  0  0  0  0  0
  2  3  1  1
  2  1  1  0
  4  6  1  0
  4  2  1  0
  4  5  1  6
  6 10  1  0
  7  6  2  0
  9  8  1  1
  9 11  1  0
 10  9  1  0
 11 13  1  0
 11 12  2  0
 13 14  1  0
 14 15  1  1
 14 19  1  0
 16 17  1  0
 16 15  1  0
 17 21  1  0
 18 17  2  0
 19 20  1  0
 22 19  2  0
M  END
$$$$
