VAE.pdb
     RDKit          3D

 22 21  0  0  1  0  0  0  0  0999 V2000
    7.2726  -14.6628   17.7794 C   0  0  0  0  0  0  0  0  0  0  0  0
    7.8092  -14.7389   19.1725 C   0  0  2  0  0  0  0  0  0  0  0  0
    7.3299  -16.0577   19.7643 C   0  0  0  0  0  0  0  0  0  0  0  0
    7.4157  -13.5838   20.0271 C   0  0  2  0  0  0  0  0  0  0  0  0
    7.8805  -12.3354   19.3897 N   0  0  0  0  0  0  0  0  0  0  0  0
    8.0066  -13.6280   21.3580 C   0  0  0  0  0  0  0  0  0  0  0  0
    9.2585  -13.4959   21.4981 O   0  0  0  0  0  0  0  0  0  0  0  0
    6.8768  -13.7142   24.9302 C   0  0  0  0  0  0  0  0  0  0  0  0
    7.9031  -13.8574   23.8090 C   0  0  2  0  0  0  0  0  0  0  0  0
    7.2123  -13.8120   22.5119 N   0  0  0  0  0  0  0  0  0  0  0  0
    8.5425  -15.1773   23.9379 C   0  0  0  0  0  0  0  0  0  0  0  0
    7.9553  -16.2065   23.5465 O   0  0  0  0  0  0  0  0  0  0  0  0
    9.8273  -15.2689   24.5087 N   0  0  0  0  0  0  0  0  0  0  0  0
   10.4915  -16.5899   24.5701 C   0  0  1  0  0  0  0  0  0  0  0  0
   11.9091  -16.4644   24.1341 C   0  0  0  0  0  0  0  0  0  0  0  0
   12.7194  -17.6900   24.3829 C   0  0  0  0  0  0  0  0  0  0  0  0
   14.1127  -17.4873   23.9348 C   0  0  0  0  0  0  0  0  0  0  0  0
   14.4815  -16.3455   23.5158 O   0  0  0  0  0  0  0  0  0  0  0  0
   10.3429  -17.0527   25.9792 C   0  0  0  0  0  0  0  0  0  0  0  0
   10.6125  -18.3645   26.2786 O   0  0  0  0  0  0  0  0  0  0  0  0
   15.0005  -18.5425   23.9738 O   0  0  0  0  0  0  0  0  0  0  0  0
    9.9727  -16.2615   26.8959 O   0  0  0  0  0  0  0  0  0  0  0  0
  2  3  1  1
  2  1  1  0
  4  6  1  0
  4  2  1  0
  4  5  1  6
  6 10  1  0
  7  6  2  0
  9  8  1  1
  9 11  1  0
 10  9  1  0
 11 13  1  0
 11 12  2  0
 13 14  1  0
 14 15  1  1
 14 19  1  0
 16 17  1  0
 16 15  1  0
 17 21  1  0
 18 17  2  0
 19 20  1  0
 22 19  2  0
M  END
$$$$
