VAE.pdb
     RDKit          3D

 22 21  0  0  1  0  0  0  0  0999 V2000
    7.4187  -19.8910   17.6711 C   0  0  0  0  0  0  0  0  0  0  0  0
    8.0413  -18.9863   18.6850 C   0  0  2  0  0  0  0  0  0  0  0  0
    7.6544  -19.5204   20.0577 C   0  0  0  0  0  0  0  0  0  0  0  0
    7.6524  -17.5567   18.5277 C   0  0  2  0  0  0  0  0  0  0  0  0
    8.0122  -17.1089   17.1672 N   0  0  0  0  0  0  0  0  0  0  0  0
    8.3344  -16.6711   19.4619 C   0  0  0  0  0  0  0  0  0  0  0  0
    9.5746  -16.4491   19.3313 O   0  0  0  0  0  0  0  0  0  0  0  0
    7.4447  -14.3490   22.2718 C   0  0  0  0  0  0  0  0  0  0  0  0
    8.4092  -15.1330   21.3853 C   0  0  2  0  0  0  0  0  0  0  0  0
    7.6420  -16.0411   20.5203 N   0  0  0  0  0  0  0  0  0  0  0  0
    9.2697  -15.9519   22.2551 C   0  0  0  0  0  0  0  0  0  0  0  0
    8.8770  -17.0609   22.6715 O   0  0  0  0  0  0  0  0  0  0  0  0
   10.5442  -15.4714   22.6148 N   0  0  0  0  0  0  0  0  0  0  0  0
   11.4721  -16.3713   23.3354 C   0  0  1  0  0  0  0  0  0  0  0  0
   12.8767  -15.9290   23.1187 C   0  0  0  0  0  0  0  0  0  0  0  0
   13.8818  -16.7681   23.8302 C   0  0  0  0  0  0  0  0  0  0  0  0
   15.2459  -16.2531   23.5915 C   0  0  0  0  0  0  0  0  0  0  0  0
   16.1314  -16.3675   24.4960 O   0  0  0  0  0  0  0  0  0  0  0  0
   11.0502  -16.3280   24.7644 C   0  0  0  0  0  0  0  0  0  0  0  0
   11.4597  -17.3300   25.6078 O   0  0  0  0  0  0  0  0  0  0  0  0
   15.5447  -15.6497   22.3874 O   0  0  0  0  0  0  0  0  0  0  0  0
   10.3240  -15.3901   25.2077 O   0  0  0  0  0  0  0  0  0  0  0  0
  2  3  1  1
  2  1  1  0
  4  6  1  0
  4  2  1  0
  4  5  1  6
  6 10  1  0
  7  6  2  0
  9  8  1  1
  9 11  1  0
 10  9  1  0
 11 13  1  0
 11 12  2  0
 13 14  1  0
 14 15  1  1
 14 19  1  0
 16 17  1  0
 16 15  1  0
 17 21  1  0
 18 17  2  0
 19 20  1  0
 22 19  2  0
M  END
$$$$
