VAE.pdb
     RDKit          3D

 22 21  0  0  1  0  0  0  0  0999 V2000
    4.3075  -18.9123   22.5234 C   0  0  0  0  0  0  0  0  0  0  0  0
    3.8082  -17.9640   21.4815 C   0  0  2  0  0  0  0  0  0  0  0  0
    2.5389  -18.5698   20.8976 C   0  0  0  0  0  0  0  0  0  0  0  0
    4.8081  -17.6657   20.4181 C   0  0  2  0  0  0  0  0  0  0  0  0
    5.2179  -18.9312   19.7767 N   0  0  0  0  0  0  0  0  0  0  0  0
    6.0182  -17.0362   20.9297 C   0  0  0  0  0  0  0  0  0  0  0  0
    7.0077  -17.7510   21.2680 O   0  0  0  0  0  0  0  0  0  0  0  0
    7.3317  -13.5716   21.5656 C   0  0  0  0  0  0  0  0  0  0  0  0
    7.3599  -15.0961   21.6416 C   0  0  2  0  0  0  0  0  0  0  0  0
    6.1225  -15.6328   21.0565 N   0  0  0  0  0  0  0  0  0  0  0  0
    7.3974  -15.4843   23.0613 C   0  0  0  0  0  0  0  0  0  0  0  0
    6.4342  -15.2302   23.8131 O   0  0  0  0  0  0  0  0  0  0  0  0
    8.5336  -16.1471   23.5658 N   0  0  0  0  0  0  0  0  0  0  0  0
    8.5992  -16.4576   25.0112 C   0  0  1  0  0  0  0  0  0  0  0  0
    8.1676  -17.8624   25.2472 C   0  0  0  0  0  0  0  0  0  0  0  0
    8.2528  -18.2796   26.6752 C   0  0  0  0  0  0  0  0  0  0  0  0
    7.8175  -19.6831   26.8297 C   0  0  0  0  0  0  0  0  0  0  0  0
    7.4970  -20.3614   25.8039 O   0  0  0  0  0  0  0  0  0  0  0  0
   10.0086  -16.1935   25.4185 C   0  0  0  0  0  0  0  0  0  0  0  0
   10.3222  -16.1830   26.7544 O   0  0  0  0  0  0  0  0  0  0  0  0
    7.7612  -20.2435   28.0890 O   0  0  0  0  0  0  0  0  0  0  0  0
   10.9126  -15.9784   24.5584 O   0  0  0  0  0  0  0  0  0  0  0  0
  2  3  1  6
  2  1  1  0
  4  6  1  0
  4  2  1  0
  4  5  1  1
  6 10  1  0
  7  6  2  0
  9  8  1  1
  9 11  1  0
 10  9  1  0
 11 13  1  0
 11 12  2  0
 13 14  1  0
 14 15  1  6
 14 19  1  0
 16 17  1  0
 16 15  1  0
 17 21  1  0
 18 17  2  0
 19 20  1  0
 22 19  2  0
M  END
$$$$
