VAE.pdb
     RDKit          3D

 22 21  0  0  1  0  0  0  0  0999 V2000
    6.7944  -14.4337   18.2616 C   0  0  0  0  0  0  0  0  0  0  0  0
    7.3063  -14.6323   19.6518 C   0  0  2  0  0  0  0  0  0  0  0  0
    6.4746  -15.7428   20.2797 C   0  0  0  0  0  0  0  0  0  0  0  0
    7.2767  -13.3948   20.4809 C   0  0  2  0  0  0  0  0  0  0  0  0
    8.0893  -12.3546   19.8189 N   0  0  0  0  0  0  0  0  0  0  0  0
    7.8322  -13.5848   21.8142 C   0  0  0  0  0  0  0  0  0  0  0  0
    9.0761  -13.7745   21.9593 O   0  0  0  0  0  0  0  0  0  0  0  0
    6.6751  -13.3023   25.3714 C   0  0  0  0  0  0  0  0  0  0  0  0
    7.6801  -13.6396   24.2728 C   0  0  2  0  0  0  0  0  0  0  0  0
    7.0130  -13.5587   22.9651 N   0  0  0  0  0  0  0  0  0  0  0  0
    8.1272  -15.0284   24.4702 C   0  0  0  0  0  0  0  0  0  0  0  0
    7.3427  -15.9797   24.2780 O   0  0  0  0  0  0  0  0  0  0  0  0
    9.4525  -15.2752   24.8795 N   0  0  0  0  0  0  0  0  0  0  0  0
    9.9203  -16.6750   24.9869 C   0  0  1  0  0  0  0  0  0  0  0  0
   11.3134  -16.7839   24.4740 C   0  0  0  0  0  0  0  0  0  0  0  0
   11.9365  -18.1148   24.7207 C   0  0  0  0  0  0  0  0  0  0  0  0
   13.3338  -18.1275   24.2405 C   0  0  0  0  0  0  0  0  0  0  0  0
   14.2761  -17.8078   25.0311 O   0  0  0  0  0  0  0  0  0  0  0  0
    9.7882  -17.0368   26.4269 C   0  0  0  0  0  0  0  0  0  0  0  0
    9.6467  -16.0339   27.3527 O   0  0  0  0  0  0  0  0  0  0  0  0
   13.6017  -18.4848   22.9353 O   0  0  0  0  0  0  0  0  0  0  0  0
    9.8068  -18.2449   26.8059 O   0  0  0  0  0  0  0  0  0  0  0  0
  2  3  1  1
  2  1  1  0
  4  6  1  0
  4  2  1  0
  4  5  1  6
  6 10  1  0
  7  6  2  0
  9  8  1  1
  9 11  1  0
 10  9  1  0
 11 13  1  0
 11 12  2  0
 13 14  1  0
 14 15  1  1
 14 19  1  0
 16 17  1  0
 16 15  1  0
 17 21  1  0
 18 17  2  0
 19 20  1  0
 22 19  2  0
M  END
$$$$
