VAE.pdb
     RDKit          3D

 22 21  0  0  1  0  0  0  0  0999 V2000
    7.0211  -18.4956   15.9380 C   0  0  0  0  0  0  0  0  0  0  0  0
    7.5679  -17.8296   17.1594 C   0  0  2  0  0  0  0  0  0  0  0  0
    6.6641  -18.2175   18.3221 C   0  0  0  0  0  0  0  0  0  0  0  0
    7.6842  -16.3499   17.0305 C   0  0  2  0  0  0  0  0  0  0  0  0
    8.6020  -16.0363   15.9169 N   0  0  0  0  0  0  0  0  0  0  0  0
    8.2270  -15.7117   18.2223 C   0  0  0  0  0  0  0  0  0  0  0  0
    9.4319  -15.9160   18.5552 O   0  0  0  0  0  0  0  0  0  0  0  0
    7.1436  -13.2002   20.7966 C   0  0  0  0  0  0  0  0  0  0  0  0
    8.0839  -14.2411   20.1940 C   0  0  2  0  0  0  0  0  0  0  0  0
    7.4389  -14.8569   19.0252 N   0  0  0  0  0  0  0  0  0  0  0  0
    8.3067  -15.2944   21.1982 C   0  0  0  0  0  0  0  0  0  0  0  0
    7.4841  -16.2228   21.3357 O   0  0  0  0  0  0  0  0  0  0  0  0
    9.4602  -15.2454   22.0055 N   0  0  0  0  0  0  0  0  0  0  0  0
    9.7102  -16.3435   22.9655 C   0  0  1  0  0  0  0  0  0  0  0  0
   11.0767  -16.8959   22.7582 C   0  0  0  0  0  0  0  0  0  0  0  0
   12.1639  -15.9164   23.0393 C   0  0  0  0  0  0  0  0  0  0  0  0
   13.4867  -16.5338   22.8105 C   0  0  0  0  0  0  0  0  0  0  0  0
   13.9042  -17.4416   23.5958 O   0  0  0  0  0  0  0  0  0  0  0  0
    9.5083  -15.7520   24.3188 C   0  0  0  0  0  0  0  0  0  0  0  0
    9.5170  -16.5802   25.4129 O   0  0  0  0  0  0  0  0  0  0  0  0
   14.2578  -16.1159   21.7457 O   0  0  0  0  0  0  0  0  0  0  0  0
    9.3282  -14.5081   24.4729 O   0  0  0  0  0  0  0  0  0  0  0  0
  2  3  1  1
  2  1  1  0
  4  6  1  0
  4  2  1  0
  4  5  1  6
  6 10  1  0
  7  6  2  0
  9  8  1  1
  9 11  1  0
 10  9  1  0
 11 13  1  0
 11 12  2  0
 13 14  1  0
 14 15  1  1
 14 19  1  0
 16 17  1  0
 16 15  1  0
 17 21  1  0
 18 17  2  0
 19 20  1  0
 22 19  2  0
M  END
$$$$
