VAE.pdb
     RDKit          3D

 22 21  0  0  1  0  0  0  0  0999 V2000
    6.1019  -11.6051   27.0910 C   0  0  0  0  0  0  0  0  0  0  0  0
    6.8920  -12.5907   26.2919 C   0  0  2  0  0  0  0  0  0  0  0  0
    7.9328  -11.8001   25.5104 C   0  0  0  0  0  0  0  0  0  0  0  0
    6.0574  -13.4326   25.3895 C   0  0  2  0  0  0  0  0  0  0  0  0
    5.0958  -14.2017   26.2048 N   0  0  0  0  0  0  0  0  0  0  0  0
    6.8354  -14.3982   24.6248 C   0  0  0  0  0  0  0  0  0  0  0  0
    7.2176  -15.4755   25.1703 O   0  0  0  0  0  0  0  0  0  0  0  0
    8.0743  -14.8397   21.1032 C   0  0  0  0  0  0  0  0  0  0  0  0
    7.9311  -15.2171   22.5756 C   0  0  2  0  0  0  0  0  0  0  0  0
    7.1760  -14.1662   23.2733 N   0  0  0  0  0  0  0  0  0  0  0  0
    9.2781  -15.2783   23.1668 C   0  0  0  0  0  0  0  0  0  0  0  0
    9.8912  -14.2304   23.4558 O   0  0  0  0  0  0  0  0  0  0  0  0
    9.8712  -16.5340   23.4043 N   0  0  0  0  0  0  0  0  0  0  0  0
   11.1272  -16.5971   24.1843 C   0  0  1  0  0  0  0  0  0  0  0  0
   10.9761  -17.5592   25.3099 C   0  0  0  0  0  0  0  0  0  0  0  0
   12.2571  -17.8667   26.0064 C   0  0  0  0  0  0  0  0  0  0  0  0
   12.0264  -18.8138   27.1168 C   0  0  0  0  0  0  0  0  0  0  0  0
   12.1963  -20.0594   26.9301 O   0  0  0  0  0  0  0  0  0  0  0  0
   12.1887  -16.9836   23.2118 C   0  0  0  0  0  0  0  0  0  0  0  0
   11.8273  -17.6332   22.0584 O   0  0  0  0  0  0  0  0  0  0  0  0
   11.6257  -18.3355   28.3472 O   0  0  0  0  0  0  0  0  0  0  0  0
   13.4087  -16.7260   23.4329 O   0  0  0  0  0  0  0  0  0  0  0  0
  2  3  1  6
  2  1  1  0
  4  6  1  0
  4  2  1  0
  4  5  1  1
  6 10  1  0
  7  6  2  0
  9  8  1  6
  9 11  1  0
 10  9  1  0
 11 13  1  0
 11 12  2  0
 13 14  1  0
 14 15  1  1
 14 19  1  0
 16 17  1  0
 16 15  1  0
 17 21  1  0
 18 17  2  0
 19 20  1  0
 22 19  2  0
M  END
$$$$
