EAF.pdb
     RDKit          3D

 26 26  0  0  1  0  0  0  0  0999 V2000
    5.1216  -18.0042   20.3159 N   0  0  0  0  0  0  0  0  0  0  0  0
    6.4431  -17.9611   20.8133 C   0  0  1  0  0  0  0  0  0  0  0  0
    7.3059  -16.9926   20.0865 C   0  0  0  0  0  0  0  0  0  0  0  0
    8.2645  -17.6350   19.1600 C   0  0  0  0  0  0  0  0  0  0  0  0
    9.1306  -16.7799   18.3386 C   0  0  0  0  0  0  0  0  0  0  0  0
   10.3633  -16.6401   18.4745 O   0  0  0  0  0  0  0  0  0  0  0  0
    6.4140  -17.6889   22.2843 C   0  0  0  0  0  0  0  0  0  0  0  0
    5.7885  -16.6979   22.7305 O   0  0  0  0  0  0  0  0  0  0  0  0
    8.5852  -16.0160   17.2778 O   0  0  0  0  0  0  0  0  0  0  0  0
    6.8780  -19.5541   25.3435 C   0  0  0  0  0  0  0  0  0  0  0  0
    6.9821  -18.2198   24.6051 C   0  0  2  0  0  0  0  0  0  0  0  0
    7.0847  -18.5369   23.1842 N   0  0  0  0  0  0  0  0  0  0  0  0
    8.1418  -17.4489   25.1064 C   0  0  0  0  0  0  0  0  0  0  0  0
    9.2914  -17.4809   24.5996 O   0  0  0  0  0  0  0  0  0  0  0  0
    7.9290  -16.6246   26.2318 N   0  0  0  0  0  0  0  0  0  0  0  0
    9.0243  -15.9185   26.9038 C   0  0  1  0  0  0  0  0  0  0  0  0
    8.3246  -14.8346   27.7272 C   0  0  0  0  0  0  0  0  0  0  0  0
    7.7491  -13.8283   26.8306 C   0  0  0  0  0  0  0  0  0  0  0  0
    6.4377  -13.4217   26.8872 C   0  0  0  0  0  0  0  0  0  0  0  0
    5.9646  -12.4558   26.0097 C   0  0  0  0  0  0  0  0  0  0  0  0
    6.8022  -11.8940   25.0727 C   0  0  0  0  0  0  0  0  0  0  0  0
    8.1316  -12.2964   25.0042 C   0  0  0  0  0  0  0  0  0  0  0  0
    8.5915  -13.2529   25.8768 C   0  0  0  0  0  0  0  0  0  0  0  0
    9.7547  -16.8839   27.7316 C   0  0  0  0  0  0  0  0  0  0  0  0
    9.1833  -18.0877   28.0768 O   0  0  0  0  0  0  0  0  0  0  0  0
   10.9079  -16.6178   28.1314 O   0  0  0  0  0  0  0  0  0  0  0  0
  2  1  1  6
  3  2  1  0
  4  3  1  0
  5  9  1  0
  5  4  1  0
  6  5  2  0
  7  8  2  0
  7  2  1  0
 11 10  1  1
 11 12  1  0
 12  7  1  0
 13 11  1  0
 14 13  2  0
 15 13  1  0
 16 15  1  0
 17 18  1  0
 16 17  1  1
 18 23  2  0
 19 20  2  0
 19 18  1  0
 20 21  1  0
 21 22  2  0
 23 22  1  0
 24 25  1  0
 24 16  1  0
 26 24  2  0
M  END
$$$$
