EAF.pdb
     RDKit          3D

 26 26  0  0  1  0  0  0  0  0999 V2000
    7.8307  -13.4679   18.5437 N   0  0  0  0  0  0  0  0  0  0  0  0
    8.8833  -14.1917   19.1468 C   0  0  1  0  0  0  0  0  0  0  0  0
   10.1138  -13.3787   19.3349 C   0  0  0  0  0  0  0  0  0  0  0  0
   11.2314  -14.1314   19.9469 C   0  0  0  0  0  0  0  0  0  0  0  0
   12.4709  -14.3006   19.1781 C   0  0  0  0  0  0  0  0  0  0  0  0
   13.4345  -13.5078   19.1582 O   0  0  0  0  0  0  0  0  0  0  0  0
    8.4057  -14.7882   20.4333 C   0  0  0  0  0  0  0  0  0  0  0  0
    7.6756  -14.1220   21.2051 O   0  0  0  0  0  0  0  0  0  0  0  0
   12.6582  -15.4440   18.3634 O   0  0  0  0  0  0  0  0  0  0  0  0
    8.1996  -18.1785   21.8398 C   0  0  0  0  0  0  0  0  0  0  0  0
    8.1469  -16.6583   21.9909 C   0  0  2  0  0  0  0  0  0  0  0  0
    8.7669  -16.0989   20.7940 N   0  0  0  0  0  0  0  0  0  0  0  0
    8.8299  -16.2459   23.2375 C   0  0  0  0  0  0  0  0  0  0  0  0
   10.0359  -15.8995   23.3079 O   0  0  0  0  0  0  0  0  0  0  0  0
    8.0630  -16.2458   24.4220 N   0  0  0  0  0  0  0  0  0  0  0  0
    8.6502  -15.9621   25.7352 C   0  0  1  0  0  0  0  0  0  0  0  0
    7.4511  -15.5957   26.6128 C   0  0  0  0  0  0  0  0  0  0  0  0
    7.1996  -14.1544   26.5281 C   0  0  0  0  0  0  0  0  0  0  0  0
    5.9790  -13.6144   26.2012 C   0  0  0  0  0  0  0  0  0  0  0  0
    5.8130  -12.2372   26.1489 C   0  0  0  0  0  0  0  0  0  0  0  0
    6.8678  -11.3963   26.4232 C   0  0  0  0  0  0  0  0  0  0  0  0
    8.1086  -11.9294   26.7551 C   0  0  0  0  0  0  0  0  0  0  0  0
    8.2640  -13.2936   26.8047 C   0  0  0  0  0  0  0  0  0  0  0  0
    9.3502  -17.1656   26.1959 C   0  0  0  0  0  0  0  0  0  0  0  0
    9.0989  -18.3893   25.6179 O   0  0  0  0  0  0  0  0  0  0  0  0
   10.1846  -17.0870   27.1223 O   0  0  0  0  0  0  0  0  0  0  0  0
  2  1  1  1
  3  2  1  0
  4  3  1  0
  5  9  1  0
  5  4  1  0
  6  5  2  0
  7  8  2  0
  7  2  1  0
 11 10  1  6
 11 12  1  0
 12  7  1  0
 13 11  1  0
 14 13  2  0
 15 13  1  0
 16 15  1  0
 17 18  1  0
 16 17  1  1
 18 23  2  0
 19 20  2  0
 19 18  1  0
 20 21  1  0
 21 22  2  0
 23 22  1  0
 24 25  1  0
 24 16  1  0
 26 24  2  0
M  END
$$$$
