EAF.pdb
     RDKit          3D

 26 26  0  0  1  0  0  0  0  0999 V2000
    6.8687  -13.4275   19.7345 N   0  0  0  0  0  0  0  0  0  0  0  0
    7.2799  -14.7687   19.9007 C   0  0  1  0  0  0  0  0  0  0  0  0
    8.7272  -14.9706   19.6264 C   0  0  0  0  0  0  0  0  0  0  0  0
    9.5990  -13.9781   20.2934 C   0  0  0  0  0  0  0  0  0  0  0  0
   11.0373  -13.9935   19.9987 C   0  0  0  0  0  0  0  0  0  0  0  0
   11.6167  -14.7756   19.2176 O   0  0  0  0  0  0  0  0  0  0  0  0
    6.8993  -15.2415   21.2684 C   0  0  0  0  0  0  0  0  0  0  0  0
    6.4450  -14.4325   22.1120 O   0  0  0  0  0  0  0  0  0  0  0  0
   11.9063  -13.0643   20.6215 O   0  0  0  0  0  0  0  0  0  0  0  0
    6.1116  -18.5272   22.6903 C   0  0  0  0  0  0  0  0  0  0  0  0
    6.3944  -17.0343   22.8563 C   0  0  2  0  0  0  0  0  0  0  0  0
    7.0446  -16.5941   21.6262 N   0  0  0  0  0  0  0  0  0  0  0  0
    7.2253  -16.8036   24.0591 C   0  0  0  0  0  0  0  0  0  0  0  0
    6.9964  -17.3027   25.1896 O   0  0  0  0  0  0  0  0  0  0  0  0
    8.3496  -15.9633   23.9136 N   0  0  0  0  0  0  0  0  0  0  0  0
    9.4264  -15.9165   24.9075 C   0  0  1  0  0  0  0  0  0  0  0  0
    9.6576  -14.4219   25.1425 C   0  0  0  0  0  0  0  0  0  0  0  0
    8.4593  -13.8251   25.7389 C   0  0  0  0  0  0  0  0  0  0  0  0
    8.1408  -12.4927   25.6319 C   0  0  0  0  0  0  0  0  0  0  0  0
    6.9825  -11.9995   26.2167 C   0  0  0  0  0  0  0  0  0  0  0  0
    6.1396  -12.8380   26.9106 C   0  0  0  0  0  0  0  0  0  0  0  0
    6.4499  -14.1886   27.0269 C   0  0  0  0  0  0  0  0  0  0  0  0
    7.5983  -14.6683   26.4447 C   0  0  0  0  0  0  0  0  0  0  0  0
    8.9728  -16.6215   26.1108 C   0  0  0  0  0  0  0  0  0  0  0  0
    7.7220  -17.1940   26.1603 O   0  0  0  0  0  0  0  0  0  0  0  0
    9.7241  -16.7074   27.1052 O   0  0  0  0  0  0  0  0  0  0  0  0
  2  1  1  1
  3  2  1  0
  4  3  1  0
  5  9  1  0
  5  4  1  0
  6  5  2  0
  7  8  2  0
  7  2  1  0
 11 10  1  6
 11 12  1  0
 12  7  1  0
 13 11  1  0
 14 13  2  0
 15 13  1  0
 16 15  1  0
 17 18  1  0
 16 17  1  1
 18 23  2  0
 19 20  2  0
 19 18  1  0
 20 21  1  0
 21 22  2  0
 23 22  1  0
 24 25  1  0
 24 16  1  0
 26 24  2  0
M  END
$$$$
