EAF.pdb
     RDKit          3D

 26 26  0  0  1  0  0  0  0  0999 V2000
    7.6676  -18.7093   21.0386 N   0  0  0  0  0  0  0  0  0  0  0  0
    8.8915  -18.3068   20.4592 C   0  0  1  0  0  0  0  0  0  0  0  0
    8.9759  -18.6154   19.0072 C   0  0  0  0  0  0  0  0  0  0  0  0
   10.2121  -19.3344   18.6269 C   0  0  0  0  0  0  0  0  0  0  0  0
   10.6811  -19.2429   17.2385 C   0  0  0  0  0  0  0  0  0  0  0  0
   10.3990  -20.0350   16.3163 O   0  0  0  0  0  0  0  0  0  0  0  0
    9.1208  -16.8543   20.7358 C   0  0  0  0  0  0  0  0  0  0  0  0
   10.2081  -16.3155   20.4195 O   0  0  0  0  0  0  0  0  0  0  0  0
   11.5338  -18.1850   16.8385 O   0  0  0  0  0  0  0  0  0  0  0  0
    7.1966  -13.8786   21.5826 C   0  0  0  0  0  0  0  0  0  0  0  0
    8.4751  -14.7060   21.7148 C   0  0  2  0  0  0  0  0  0  0  0  0
    8.1246  -16.0754   21.3519 N   0  0  0  0  0  0  0  0  0  0  0  0
    9.0134  -14.5961   23.0890 C   0  0  0  0  0  0  0  0  0  0  0  0
    9.6704  -13.6155   23.5205 O   0  0  0  0  0  0  0  0  0  0  0  0
    8.7650  -15.6735   23.9659 N   0  0  0  0  0  0  0  0  0  0  0  0
    9.2365  -15.6782   25.3542 C   0  0  1  0  0  0  0  0  0  0  0  0
    7.9540  -15.7352   26.1874 C   0  0  0  0  0  0  0  0  0  0  0  0
    7.4734  -14.3753   26.4470 C   0  0  0  0  0  0  0  0  0  0  0  0
    8.2631  -13.3762   26.9632 C   0  0  0  0  0  0  0  0  0  0  0  0
    7.7404  -12.1078   27.1745 C   0  0  0  0  0  0  0  0  0  0  0  0
    6.4258  -11.8353   26.8702 C   0  0  0  0  0  0  0  0  0  0  0  0
    5.6152  -12.8370   26.3474 C   0  0  0  0  0  0  0  0  0  0  0  0
    6.1409  -14.0896   26.1413 C   0  0  0  0  0  0  0  0  0  0  0  0
   10.0952  -16.8518   25.5445 C   0  0  0  0  0  0  0  0  0  0  0  0
   10.8158  -17.0143   26.7059 O   0  0  0  0  0  0  0  0  0  0  0  0
   10.1784  -17.7171   24.6474 O   0  0  0  0  0  0  0  0  0  0  0  0
  2  1  1  6
  3  2  1  0
  4  3  1  0
  5  9  1  0
  5  4  1  0
  6  5  2  0
  7  8  2  0
  7  2  1  0
 11 10  1  1
 11 12  1  0
 12  7  1  0
 13 11  1  0
 14 13  2  0
 15 13  1  0
 16 15  1  0
 17 18  1  0
 16 17  1  1
 18 23  2  0
 19 20  2  0
 19 18  1  0
 20 21  1  0
 21 22  2  0
 23 22  1  0
 24 25  1  0
 24 16  1  0
 26 24  2  0
M  END
$$$$
