EAF.pdb
     RDKit          3D

 26 26  0  0  1  0  0  0  0  0999 V2000
   11.4182  -19.2618   19.7135 N   0  0  0  0  0  0  0  0  0  0  0  0
   10.7287  -18.0941   19.3174 C   0  0  1  0  0  0  0  0  0  0  0  0
    9.8512  -18.3102   18.1368 C   0  0  0  0  0  0  0  0  0  0  0  0
    8.8867  -19.4187   18.3124 C   0  0  0  0  0  0  0  0  0  0  0  0
    7.9439  -19.7107   17.2253 C   0  0  0  0  0  0  0  0  0  0  0  0
    6.9554  -19.0185   16.9073 O   0  0  0  0  0  0  0  0  0  0  0  0
    9.9704  -17.5427   20.4835 C   0  0  0  0  0  0  0  0  0  0  0  0
    9.5792  -16.3513   20.4755 O   0  0  0  0  0  0  0  0  0  0  0  0
    8.1107  -20.8663   16.4233 O   0  0  0  0  0  0  0  0  0  0  0  0
    7.9702  -18.8302   23.2015 C   0  0  0  0  0  0  0  0  0  0  0  0
    8.9138  -17.7457   22.6819 C   0  0  2  0  0  0  0  0  0  0  0  0
    9.6866  -18.3489   21.6007 N   0  0  0  0  0  0  0  0  0  0  0  0
    9.7643  -17.2400   23.7825 C   0  0  0  0  0  0  0  0  0  0  0  0
   10.9344  -17.6339   24.0174 O   0  0  0  0  0  0  0  0  0  0  0  0
    9.2118  -16.2468   24.6190 N   0  0  0  0  0  0  0  0  0  0  0  0
    9.9771  -15.6191   25.7006 C   0  0  1  0  0  0  0  0  0  0  0  0
    9.8229  -14.1174   25.4488 C   0  0  0  0  0  0  0  0  0  0  0  0
    8.4460  -13.7073   25.7383 C   0  0  0  0  0  0  0  0  0  0  0  0
    7.4049  -13.8658   24.8556 C   0  0  0  0  0  0  0  0  0  0  0  0
    6.1234  -13.4609   25.2029 C   0  0  0  0  0  0  0  0  0  0  0  0
    5.8799  -12.8959   26.4344 C   0  0  0  0  0  0  0  0  0  0  0  0
    6.9243  -12.7294   27.3373 C   0  0  0  0  0  0  0  0  0  0  0  0
    8.1896  -13.1332   26.9853 C   0  0  0  0  0  0  0  0  0  0  0  0
    9.4015  -16.0470   26.9798 C   0  0  0  0  0  0  0  0  0  0  0  0
   10.0941  -15.8702   28.1562 O   0  0  0  0  0  0  0  0  0  0  0  0
    8.2713  -16.5782   27.0098 O   0  0  0  0  0  0  0  0  0  0  0  0
  2  1  1  1
  3  2  1  0
  4  3  1  0
  5  9  1  0
  5  4  1  0
  6  5  2  0
  7  8  2  0
  7  2  1  0
 11 10  1  1
 11 12  1  0
 12  7  1  0
 13 11  1  0
 14 13  2  0
 15 13  1  0
 16 15  1  0
 17 18  1  0
 16 17  1  6
 18 23  2  0
 19 20  2  0
 19 18  1  0
 20 21  1  0
 21 22  2  0
 23 22  1  0
 24 25  1  0
 24 16  1  0
 26 24  2  0
M  END
$$$$
