EAF.pdb
     RDKit          3D

 26 26  0  0  1  0  0  0  0  0999 V2000
    7.4054  -18.5569   20.6370 N   0  0  0  0  0  0  0  0  0  0  0  0
    8.7407  -18.2115   20.3317 C   0  0  1  0  0  0  0  0  0  0  0  0
    9.0798  -18.4142   18.8983 C   0  0  0  0  0  0  0  0  0  0  0  0
    8.2433  -19.4373   18.2324 C   0  0  0  0  0  0  0  0  0  0  0  0
    8.4650  -19.7090   16.8065 C   0  0  0  0  0  0  0  0  0  0  0  0
    9.0208  -20.7203   16.3313 O   0  0  0  0  0  0  0  0  0  0  0  0
    9.0070  -16.8076   20.7757 C   0  0  0  0  0  0  0  0  0  0  0  0
   10.1273  -16.2828   20.5711 O   0  0  0  0  0  0  0  0  0  0  0  0
    8.0345  -18.7827   15.8252 O   0  0  0  0  0  0  0  0  0  0  0  0
    7.0542  -13.8740   21.6551 C   0  0  0  0  0  0  0  0  0  0  0  0
    8.3392  -14.6886   21.8026 C   0  0  2  0  0  0  0  0  0  0  0  0
    8.0090  -16.0594   21.4260 N   0  0  0  0  0  0  0  0  0  0  0  0
    8.8547  -14.5816   23.1857 C   0  0  0  0  0  0  0  0  0  0  0  0
    9.4478  -13.5751   23.6491 O   0  0  0  0  0  0  0  0  0  0  0  0
    8.6605  -15.6931   24.0331 N   0  0  0  0  0  0  0  0  0  0  0  0
    9.1941  -15.7403   25.3979 C   0  0  1  0  0  0  0  0  0  0  0  0
    7.9525  -15.6741   26.2903 C   0  0  0  0  0  0  0  0  0  0  0  0
    7.5328  -14.2789   26.4492 C   0  0  0  0  0  0  0  0  0  0  0  0
    6.2855  -13.8170   26.1041 C   0  0  0  0  0  0  0  0  0  0  0  0
    5.9556  -12.4818   26.2915 C   0  0  0  0  0  0  0  0  0  0  0  0
    6.8730  -11.6046   26.8246 C   0  0  0  0  0  0  0  0  0  0  0  0
    8.1391  -12.0586   27.1779 C   0  0  0  0  0  0  0  0  0  0  0  0
    8.4570  -13.3818   26.9892 C   0  0  0  0  0  0  0  0  0  0  0  0
    9.9458  -16.9897   25.5551 C   0  0  0  0  0  0  0  0  0  0  0  0
   10.5944  -17.2759   26.7350 O   0  0  0  0  0  0  0  0  0  0  0  0
   10.0025  -17.8075   24.6125 O   0  0  0  0  0  0  0  0  0  0  0  0
  2  1  1  6
  3  2  1  0
  4  3  1  0
  5  9  1  0
  5  4  1  0
  6  5  2  0
  7  8  2  0
  7  2  1  0
 11 10  1  1
 11 12  1  0
 12  7  1  0
 13 11  1  0
 14 13  2  0
 15 13  1  0
 16 15  1  0
 17 18  1  0
 16 17  1  1
 18 23  2  0
 19 20  2  0
 19 18  1  0
 20 21  1  0
 21 22  2  0
 23 22  1  0
 24 25  1  0
 24 16  1  0
 26 24  2  0
M  END
$$$$
