EAF.pdb
     RDKit          3D

 26 26  0  0  1  0  0  0  0  0999 V2000
    6.9884  -18.9302   21.4952 N   0  0  0  0  0  0  0  0  0  0  0  0
    8.1243  -18.6451   20.7051 C   0  0  1  0  0  0  0  0  0  0  0  0
    7.9433  -19.0098   19.2751 C   0  0  0  0  0  0  0  0  0  0  0  0
    9.1856  -18.9074   18.4775 C   0  0  0  0  0  0  0  0  0  0  0  0
    9.1243  -19.1937   17.0387 C   0  0  0  0  0  0  0  0  0  0  0  0
    9.8893  -19.9531   16.4097 O   0  0  0  0  0  0  0  0  0  0  0  0
    8.4994  -17.2062   20.8715 C   0  0  0  0  0  0  0  0  0  0  0  0
    9.5808  -16.7777   20.4029 O   0  0  0  0  0  0  0  0  0  0  0  0
    8.1321  -18.5882   16.2293 O   0  0  0  0  0  0  0  0  0  0  0  0
    6.8071  -14.0739   21.5622 C   0  0  0  0  0  0  0  0  0  0  0  0
    8.0743  -14.9245   21.6483 C   0  0  2  0  0  0  0  0  0  0  0  0
    7.6485  -16.3171   21.5528 N   0  0  0  0  0  0  0  0  0  0  0  0
    8.8007  -14.6311   22.9039 C   0  0  0  0  0  0  0  0  0  0  0  0
    9.5072  -13.6096   23.0962 O   0  0  0  0  0  0  0  0  0  0  0  0
    8.6840  -15.5709   23.9500 N   0  0  0  0  0  0  0  0  0  0  0  0
    9.4014  -15.4225   25.2200 C   0  0  1  0  0  0  0  0  0  0  0  0
    8.2933  -15.3645   26.2741 C   0  0  0  0  0  0  0  0  0  0  0  0
    7.8368  -13.9812   26.4346 C   0  0  0  0  0  0  0  0  0  0  0  0
    8.6882  -12.9122   26.5778 C   0  0  0  0  0  0  0  0  0  0  0  0
    8.1828  -11.6269   26.7166 C   0  0  0  0  0  0  0  0  0  0  0  0
    6.8237  -11.4074   26.7129 C   0  0  0  0  0  0  0  0  0  0  0  0
    5.9506  -12.4802   26.5691 C   0  0  0  0  0  0  0  0  0  0  0  0
    6.4596  -13.7490   26.4320 C   0  0  0  0  0  0  0  0  0  0  0  0
   10.2885  -16.5785   25.3852 C   0  0  0  0  0  0  0  0  0  0  0  0
   10.3765  -17.5423   24.4064 O   0  0  0  0  0  0  0  0  0  0  0  0
   10.9745  -16.6965   26.4226 O   0  0  0  0  0  0  0  0  0  0  0  0
  2  1  1  1
  3  2  1  0
  4  3  1  0
  5  9  1  0
  5  4  1  0
  6  5  2  0
  7  8  2  0
  7  2  1  0
 11 10  1  1
 11 12  1  0
 12  7  1  0
 13 11  1  0
 14 13  2  0
 15 13  1  0
 16 15  1  0
 17 18  1  0
 16 17  1  1
 18 23  2  0
 19 20  2  0
 19 18  1  0
 20 21  1  0
 21 22  2  0
 23 22  1  0
 24 25  1  0
 24 16  1  0
 26 24  2  0
M  END
$$$$
