EAF.pdb
     RDKit          3D

 26 26  0  0  1  0  0  0  0  0999 V2000
    6.0971  -18.1747   19.1949 N   0  0  0  0  0  0  0  0  0  0  0  0
    7.3028  -18.2107   19.9303 C   0  0  1  0  0  0  0  0  0  0  0  0
    8.4628  -17.6750   19.1701 C   0  0  0  0  0  0  0  0  0  0  0  0
    8.8797  -18.5380   18.0426 C   0  0  0  0  0  0  0  0  0  0  0  0
   10.0145  -18.1135   17.2130 C   0  0  0  0  0  0  0  0  0  0  0  0
   11.2205  -18.3134   17.4640 O   0  0  0  0  0  0  0  0  0  0  0  0
    7.1135  -17.5014   21.2340 C   0  0  0  0  0  0  0  0  0  0  0  0
    6.9404  -16.2596   21.2575 O   0  0  0  0  0  0  0  0  0  0  0  0
    9.7943  -17.4089   16.0042 O   0  0  0  0  0  0  0  0  0  0  0  0
    6.0603  -18.2555   24.5919 C   0  0  0  0  0  0  0  0  0  0  0  0
    6.9766  -17.4430   23.6771 C   0  0  2  0  0  0  0  0  0  0  0  0
    7.1268  -18.2137   22.4469 N   0  0  0  0  0  0  0  0  0  0  0  0
    8.2676  -17.1806   24.3514 C   0  0  0  0  0  0  0  0  0  0  0  0
    9.2747  -17.9289   24.2780 O   0  0  0  0  0  0  0  0  0  0  0  0
    8.3617  -16.0057   25.1273 N   0  0  0  0  0  0  0  0  0  0  0  0
    9.6211  -15.5692   25.7381 C   0  0  1  0  0  0  0  0  0  0  0  0
    9.5948  -14.0446   25.6072 C   0  0  0  0  0  0  0  0  0  0  0  0
    8.3254  -13.5267   26.1252 C   0  0  0  0  0  0  0  0  0  0  0  0
    8.1292  -13.1713   27.4380 C   0  0  0  0  0  0  0  0  0  0  0  0
    6.9002  -12.6791   27.8550 C   0  0  0  0  0  0  0  0  0  0  0  0
    5.8635  -12.5415   26.9597 C   0  0  0  0  0  0  0  0  0  0  0  0
    6.0481  -12.8976   25.6282 C   0  0  0  0  0  0  0  0  0  0  0  0
    7.2680  -13.3837   25.2241 C   0  0  0  0  0  0  0  0  0  0  0  0
    9.6380  -16.0237   27.1324 C   0  0  0  0  0  0  0  0  0  0  0  0
    8.5811  -16.7362   27.6521 O   0  0  0  0  0  0  0  0  0  0  0  0
   10.6185  -15.7651   27.8620 O   0  0  0  0  0  0  0  0  0  0  0  0
  2  1  1  6
  3  2  1  0
  4  3  1  0
  5  9  1  0
  5  4  1  0
  6  5  2  0
  7  8  2  0
  7  2  1  0
 11 10  1  1
 11 12  1  0
 12  7  1  0
 13 11  1  0
 14 13  2  0
 15 13  1  0
 16 15  1  0
 17 18  1  0
 16 17  1  1
 18 23  2  0
 19 20  2  0
 19 18  1  0
 20 21  1  0
 21 22  2  0
 23 22  1  0
 24 25  1  0
 24 16  1  0
 26 24  2  0
M  END
$$$$
