EAF.pdb
     RDKit          3D

 26 26  0  0  1  0  0  0  0  0999 V2000
    6.1590  -18.9802   22.6080 N   0  0  0  0  0  0  0  0  0  0  0  0
    7.2294  -19.0262   21.6872 C   0  0  1  0  0  0  0  0  0  0  0  0
    6.8220  -19.5267   20.3478 C   0  0  0  0  0  0  0  0  0  0  0  0
    5.4771  -19.0713   19.9308 C   0  0  0  0  0  0  0  0  0  0  0  0
    4.9534  -19.5173   18.6336 C   0  0  0  0  0  0  0  0  0  0  0  0
    3.9360  -20.2180   18.4562 O   0  0  0  0  0  0  0  0  0  0  0  0
    7.8769  -17.6796   21.6072 C   0  0  0  0  0  0  0  0  0  0  0  0
    9.0334  -17.5625   21.1367 O   0  0  0  0  0  0  0  0  0  0  0  0
    5.6120  -19.1565   17.4326 O   0  0  0  0  0  0  0  0  0  0  0  0
    6.8104  -14.1841   21.7724 C   0  0  0  0  0  0  0  0  0  0  0  0
    7.8929  -15.2527   21.9235 C   0  0  2  0  0  0  0  0  0  0  0  0
    7.2010  -16.5307   22.0564 N   0  0  0  0  0  0  0  0  0  0  0  0
    8.7558  -14.9434   23.0854 C   0  0  0  0  0  0  0  0  0  0  0  0
    9.6523  -14.0626   23.0925 O   0  0  0  0  0  0  0  0  0  0  0  0
    8.5477  -15.6964   24.2605 N   0  0  0  0  0  0  0  0  0  0  0  0
    9.3897  -15.5397   25.4506 C   0  0  1  0  0  0  0  0  0  0  0  0
    8.3921  -15.4316   26.6062 C   0  0  0  0  0  0  0  0  0  0  0  0
    7.7992  -14.0914   26.6227 C   0  0  0  0  0  0  0  0  0  0  0  0
    6.4579  -13.8521   26.4447 C   0  0  0  0  0  0  0  0  0  0  0  0
    5.9662  -12.5545   26.4817 C   0  0  0  0  0  0  0  0  0  0  0  0
    6.8154  -11.4925   26.6967 C   0  0  0  0  0  0  0  0  0  0  0  0
    8.1751  -11.7203   26.8782 C   0  0  0  0  0  0  0  0  0  0  0  0
    8.6532  -13.0079   26.8402 C   0  0  0  0  0  0  0  0  0  0  0  0
   10.2616  -16.7141   25.5552 C   0  0  0  0  0  0  0  0  0  0  0  0
   10.1416  -17.7597   24.6680 O   0  0  0  0  0  0  0  0  0  0  0  0
   11.1246  -16.7733   26.4565 O   0  0  0  0  0  0  0  0  0  0  0  0
  2  1  1  1
  3  2  1  0
  4  3  1  0
  5  9  1  0
  5  4  1  0
  6  5  2  0
  7  8  2  0
  7  2  1  0
 11 10  1  1
 11 12  1  0
 12  7  1  0
 13 11  1  0
 14 13  2  0
 15 13  1  0
 16 15  1  0
 17 18  1  0
 16 17  1  1
 18 23  2  0
 19 20  2  0
 19 18  1  0
 20 21  1  0
 21 22  2  0
 23 22  1  0
 24 25  1  0
 24 16  1  0
 26 24  2  0
M  END
$$$$
