EAF.pdb
     RDKit          3D

 26 26  0  0  1  0  0  0  0  0999 V2000
    7.3178  -18.6356   20.8509 N   0  0  0  0  0  0  0  0  0  0  0  0
    8.6914  -18.3857   20.6350 C   0  0  1  0  0  0  0  0  0  0  0  0
    9.1673  -18.8636   19.3100 C   0  0  0  0  0  0  0  0  0  0  0  0
    8.3686  -18.3499   18.1750 C   0  0  0  0  0  0  0  0  0  0  0  0
    8.7688  -18.7147   16.8101 C   0  0  0  0  0  0  0  0  0  0  0  0
    8.5370  -19.8030   16.2451 O   0  0  0  0  0  0  0  0  0  0  0  0
    8.9716  -16.9299   20.8375 C   0  0  0  0  0  0  0  0  0  0  0  0
   10.0516  -16.4335   20.4377 O   0  0  0  0  0  0  0  0  0  0  0  0
    9.4855  -17.7966   16.0040 O   0  0  0  0  0  0  0  0  0  0  0  0
    7.1614  -13.8685   21.4871 C   0  0  0  0  0  0  0  0  0  0  0  0
    8.4159  -14.7124   21.7118 C   0  0  2  0  0  0  0  0  0  0  0  0
    8.0320  -16.1006   21.4762 N   0  0  0  0  0  0  0  0  0  0  0  0
    8.9446  -14.4866   23.0756 C   0  0  0  0  0  0  0  0  0  0  0  0
    9.4274  -13.3995   23.4816 O   0  0  0  0  0  0  0  0  0  0  0  0
    8.8976  -15.5747   23.9728 N   0  0  0  0  0  0  0  0  0  0  0  0
    9.3963  -15.4780   25.3482 C   0  0  1  0  0  0  0  0  0  0  0  0
    8.1504  -15.6741   26.2152 C   0  0  0  0  0  0  0  0  0  0  0  0
    7.4688  -14.3895   26.3973 C   0  0  0  0  0  0  0  0  0  0  0  0
    6.1407  -14.1869   26.1088 C   0  0  0  0  0  0  0  0  0  0  0  0
    5.5601  -12.9431   26.3153 C   0  0  0  0  0  0  0  0  0  0  0  0
    6.3069  -11.8982   26.8110 C   0  0  0  0  0  0  0  0  0  0  0  0
    7.6521  -12.0893   27.1071 C   0  0  0  0  0  0  0  0  0  0  0  0
    8.2186  -13.3237   26.8998 C   0  0  0  0  0  0  0  0  0  0  0  0
   10.4028  -16.5258   25.5474 C   0  0  0  0  0  0  0  0  0  0  0  0
   11.1316  -16.5875   26.7135 O   0  0  0  0  0  0  0  0  0  0  0  0
   10.6064  -17.3746   24.6538 O   0  0  0  0  0  0  0  0  0  0  0  0
  2  1  1  6
  3  2  1  0
  4  3  1  0
  5  9  1  0
  5  4  1  0
  6  5  2  0
  7  8  2  0
  7  2  1  0
 11 10  1  1
 11 12  1  0
 12  7  1  0
 13 11  1  0
 14 13  2  0
 15 13  1  0
 16 15  1  0
 17 18  1  0
 16 17  1  1
 18 23  2  0
 19 20  2  0
 19 18  1  0
 20 21  1  0
 21 22  2  0
 23 22  1  0
 24 25  1  0
 24 16  1  0
 26 24  2  0
M  END
$$$$
