EAF.pdb
     RDKit          3D

 26 26  0  0  1  0  0  0  0  0999 V2000
    7.3249  -18.9964   21.7455 N   0  0  0  0  0  0  0  0  0  0  0  0
    7.8987  -18.4124   20.5942 C   0  0  1  0  0  0  0  0  0  0  0  0
    6.9715  -18.3874   19.4323 C   0  0  0  0  0  0  0  0  0  0  0  0
    7.6231  -17.9883   18.1650 C   0  0  0  0  0  0  0  0  0  0  0  0
    7.9604  -19.0311   17.1878 C   0  0  0  0  0  0  0  0  0  0  0  0
    9.0504  -19.6334   17.1060 O   0  0  0  0  0  0  0  0  0  0  0  0
    8.4109  -17.0472   20.9298 C   0  0  0  0  0  0  0  0  0  0  0  0
    9.5666  -16.7042   20.5844 O   0  0  0  0  0  0  0  0  0  0  0  0
    7.0103  -19.4410   16.2206 O   0  0  0  0  0  0  0  0  0  0  0  0
    6.9955  -13.8175   21.7132 C   0  0  0  0  0  0  0  0  0  0  0  0
    8.1561  -14.8004   21.8666 C   0  0  2  0  0  0  0  0  0  0  0  0
    7.6073  -16.1326   21.6343 N   0  0  0  0  0  0  0  0  0  0  0  0
    8.7710  -14.6582   23.2053 C   0  0  0  0  0  0  0  0  0  0  0  0
    9.4241  -13.6544   23.5863 O   0  0  0  0  0  0  0  0  0  0  0  0
    8.6053  -15.7308   24.1072 N   0  0  0  0  0  0  0  0  0  0  0  0
    9.2014  -15.7271   25.4467 C   0  0  1  0  0  0  0  0  0  0  0  0
    8.0005  -15.6621   26.3933 C   0  0  0  0  0  0  0  0  0  0  0  0
    7.5814  -14.2681   26.5637 C   0  0  0  0  0  0  0  0  0  0  0  0
    6.2851  -13.8402   26.4068 C   0  0  0  0  0  0  0  0  0  0  0  0
    5.9605  -12.5036   26.5933 C   0  0  0  0  0  0  0  0  0  0  0  0
    6.9322  -11.5910   26.9369 C   0  0  0  0  0  0  0  0  0  0  0  0
    8.2481  -12.0103   27.0986 C   0  0  0  0  0  0  0  0  0  0  0  0
    8.5605  -13.3352   26.9124 C   0  0  0  0  0  0  0  0  0  0  0  0
    9.9880  -16.9548   25.6036 C   0  0  0  0  0  0  0  0  0  0  0  0
   10.1121  -17.8476   24.5633 O   0  0  0  0  0  0  0  0  0  0  0  0
   10.5541  -17.1996   26.6900 O   0  0  0  0  0  0  0  0  0  0  0  0
  2  1  1  1
  3  2  1  0
  4  3  1  0
  5  9  1  0
  5  4  1  0
  6  5  2  0
  7  8  2  0
  7  2  1  0
 11 10  1  1
 11 12  1  0
 12  7  1  0
 13 11  1  0
 14 13  2  0
 15 13  1  0
 16 15  1  0
 17 18  1  0
 16 17  1  1
 18 23  2  0
 19 20  2  0
 19 18  1  0
 20 21  1  0
 21 22  2  0
 23 22  1  0
 24 25  1  0
 24 16  1  0
 26 24  2  0
M  END
$$$$
