EAF.pdb
     RDKit          3D

 26 26  0  0  1  0  0  0  0  0999 V2000
    8.3286  -12.7283   18.9918 N   0  0  0  0  0  0  0  0  0  0  0  0
    8.6157  -14.1045   19.1309 C   0  0  1  0  0  0  0  0  0  0  0  0
   10.0384  -14.4322   18.8502 C   0  0  0  0  0  0  0  0  0  0  0  0
   10.9896  -13.4192   19.3592 C   0  0  0  0  0  0  0  0  0  0  0  0
   12.4261  -13.6287   19.1391 C   0  0  0  0  0  0  0  0  0  0  0  0
   12.9753  -13.8409   18.0387 O   0  0  0  0  0  0  0  0  0  0  0  0
    8.1933  -14.5674   20.4897 C   0  0  0  0  0  0  0  0  0  0  0  0
    8.0770  -13.7446   21.4288 O   0  0  0  0  0  0  0  0  0  0  0  0
   13.3297  -13.6004   20.2295 O   0  0  0  0  0  0  0  0  0  0  0  0
    6.9291  -17.7441   21.9364 C   0  0  0  0  0  0  0  0  0  0  0  0
    7.3220  -16.2691   22.0179 C   0  0  2  0  0  0  0  0  0  0  0  0
    7.9218  -15.9261   20.7324 N   0  0  0  0  0  0  0  0  0  0  0  0
    8.2407  -16.0486   23.1571 C   0  0  0  0  0  0  0  0  0  0  0  0
    9.4946  -16.0510   23.0720 O   0  0  0  0  0  0  0  0  0  0  0  0
    7.6559  -15.8207   24.4210 N   0  0  0  0  0  0  0  0  0  0  0  0
    8.4571  -15.6804   25.6409 C   0  0  1  0  0  0  0  0  0  0  0  0
    7.4955  -15.0535   26.6531 C   0  0  0  0  0  0  0  0  0  0  0  0
    7.2605  -13.6491   26.3062 C   0  0  0  0  0  0  0  0  0  0  0  0
    8.2586  -12.7075   26.2336 C   0  0  0  0  0  0  0  0  0  0  0  0
    7.9614  -11.3959   25.8896 C   0  0  0  0  0  0  0  0  0  0  0  0
    6.6646  -11.0226   25.6175 C   0  0  0  0  0  0  0  0  0  0  0  0
    5.6447  -11.9653   25.6875 C   0  0  0  0  0  0  0  0  0  0  0  0
    5.9478  -13.2613   26.0286 C   0  0  0  0  0  0  0  0  0  0  0  0
    8.9218  -17.0123   26.0420 C   0  0  0  0  0  0  0  0  0  0  0  0
   10.0413  -17.1584   26.8294 O   0  0  0  0  0  0  0  0  0  0  0  0
    8.3000  -18.0295   25.6687 O   0  0  0  0  0  0  0  0  0  0  0  0
  2  1  1  1
  3  2  1  0
  4  3  1  0
  5  9  1  0
  5  4  1  0
  6  5  2  0
  7  8  2  0
  7  2  1  0
 11 10  1  6
 11 12  1  0
 12  7  1  0
 13 11  1  0
 14 13  2  0
 15 13  1  0
 16 15  1  0
 17 18  1  0
 16 17  1  1
 18 23  2  0
 19 20  2  0
 19 18  1  0
 20 21  1  0
 21 22  2  0
 23 22  1  0
 24 25  1  0
 24 16  1  0
 26 24  2  0
M  END
$$$$
