EAF.pdb
     RDKit          3D

 26 26  0  0  1  0  0  0  0  0999 V2000
   10.3617  -14.2650   19.1861 N   0  0  0  0  0  0  0  0  0  0  0  0
    8.9801  -14.1355   19.4507 C   0  0  1  0  0  0  0  0  0  0  0  0
    8.1406  -14.2641   18.2303 C   0  0  0  0  0  0  0  0  0  0  0  0
    8.6866  -13.5431   17.0590 C   0  0  0  0  0  0  0  0  0  0  0  0
    8.0906  -13.7896   15.7399 C   0  0  0  0  0  0  0  0  0  0  0  0
    6.9670  -13.4018   15.3597 O   0  0  0  0  0  0  0  0  0  0  0  0
    8.5808  -15.1148   20.5092 C   0  0  0  0  0  0  0  0  0  0  0  0
    7.3902  -15.1729   20.8984 O   0  0  0  0  0  0  0  0  0  0  0  0
    8.7992  -14.5273   14.7600 O   0  0  0  0  0  0  0  0  0  0  0  0
    9.6181  -18.2544   21.8304 C   0  0  0  0  0  0  0  0  0  0  0  0
    9.0746  -16.8620   22.1505 C   0  0  2  0  0  0  0  0  0  0  0  0
    9.5309  -15.9805   21.0806 N   0  0  0  0  0  0  0  0  0  0  0  0
    9.5377  -16.4291   23.4879 C   0  0  0  0  0  0  0  0  0  0  0  0
   10.7205  -16.1040   23.7614 O   0  0  0  0  0  0  0  0  0  0  0  0
    8.5750  -16.3820   24.5186 N   0  0  0  0  0  0  0  0  0  0  0  0
    8.9038  -15.9418   25.8779 C   0  0  1  0  0  0  0  0  0  0  0  0
    7.5635  -15.4887   26.4616 C   0  0  0  0  0  0  0  0  0  0  0  0
    7.3382  -14.0764   26.1417 C   0  0  0  0  0  0  0  0  0  0  0  0
    8.3113  -13.2470   25.6383 C   0  0  0  0  0  0  0  0  0  0  0  0
    8.0218  -11.9203   25.3503 C   0  0  0  0  0  0  0  0  0  0  0  0
    6.7577  -11.4195   25.5655 C   0  0  0  0  0  0  0  0  0  0  0  0
    5.7634  -12.2476   26.0748 C   0  0  0  0  0  0  0  0  0  0  0  0
    6.0587  -13.5595   26.3568 C   0  0  0  0  0  0  0  0  0  0  0  0
    9.4883  -17.0764   26.6002 C   0  0  0  0  0  0  0  0  0  0  0  0
   10.2554  -16.8734   27.7250 O   0  0  0  0  0  0  0  0  0  0  0  0
    9.2922  -18.2421   26.1964 O   0  0  0  0  0  0  0  0  0  0  0  0
  2  1  1  6
  3  2  1  0
  4  3  1  0
  5  9  1  0
  5  4  1  0
  6  5  2  0
  7  8  2  0
  7  2  1  0
 11 10  1  6
 11 12  1  0
 12  7  1  0
 13 11  1  0
 14 13  2  0
 15 13  1  0
 16 15  1  0
 17 18  1  0
 16 17  1  1
 18 23  2  0
 19 20  2  0
 19 18  1  0
 20 21  1  0
 21 22  2  0
 23 22  1  0
 24 25  1  0
 24 16  1  0
 26 24  2  0
M  END
$$$$
