EAF.pdb
     RDKit          3D

 26 26  0  0  1  0  0  0  0  0999 V2000
   10.2076  -17.2768   18.3062 N   0  0  0  0  0  0  0  0  0  0  0  0
    9.7440  -16.2242   19.1265 C   0  0  1  0  0  0  0  0  0  0  0  0
    8.7521  -15.3509   18.4453 C   0  0  0  0  0  0  0  0  0  0  0  0
    9.0757  -15.0847   17.0260 C   0  0  0  0  0  0  0  0  0  0  0  0
    8.2055  -14.1811   16.2629 C   0  0  0  0  0  0  0  0  0  0  0  0
    7.1754  -13.6214   16.6909 O   0  0  0  0  0  0  0  0  0  0  0  0
    9.2080  -16.7870   20.4050 C   0  0  0  0  0  0  0  0  0  0  0  0
    7.9704  -16.8459   20.5987 O   0  0  0  0  0  0  0  0  0  0  0  0
    8.5018  -13.8715   14.9129 O   0  0  0  0  0  0  0  0  0  0  0  0
   10.1604  -19.2282   22.7618 C   0  0  0  0  0  0  0  0  0  0  0  0
    9.4786  -17.8720   22.5822 C   0  0  2  0  0  0  0  0  0  0  0  0
   10.0803  -17.2560   21.4038 N   0  0  0  0  0  0  0  0  0  0  0  0
    9.6418  -17.0536   23.8044 C   0  0  0  0  0  0  0  0  0  0  0  0
   10.6503  -16.3487   24.0604 O   0  0  0  0  0  0  0  0  0  0  0  0
    8.5848  -17.0744   24.7391 N   0  0  0  0  0  0  0  0  0  0  0  0
    8.6574  -16.3637   26.0195 C   0  0  1  0  0  0  0  0  0  0  0  0
    7.2363  -15.8401   26.2408 C   0  0  0  0  0  0  0  0  0  0  0  0
    7.2234  -14.3800   26.1159 C   0  0  0  0  0  0  0  0  0  0  0  0
    6.9118  -13.5319   27.1513 C   0  0  0  0  0  0  0  0  0  0  0  0
    6.9288  -12.1571   26.9609 C   0  0  0  0  0  0  0  0  0  0  0  0
    7.2574  -11.6266   25.7338 C   0  0  0  0  0  0  0  0  0  0  0  0
    7.5746  -12.4733   24.6772 C   0  0  0  0  0  0  0  0  0  0  0  0
    7.5555  -13.8329   24.8746 C   0  0  0  0  0  0  0  0  0  0  0  0
    9.0837  -17.3154   27.0505 C   0  0  0  0  0  0  0  0  0  0  0  0
    8.9286  -18.6703   26.8634 O   0  0  0  0  0  0  0  0  0  0  0  0
    9.5936  -16.8995   28.1124 O   0  0  0  0  0  0  0  0  0  0  0  0
  2  1  1  6
  3  2  1  0
  4  3  1  0
  5  9  1  0
  5  4  1  0
  6  5  2  0
  7  8  2  0
  7  2  1  0
 11 10  1  1
 11 12  1  0
 12  7  1  0
 13 11  1  0
 14 13  2  0
 15 13  1  0
 16 15  1  0
 17 18  1  0
 16 17  1  1
 18 23  2  0
 19 20  2  0
 19 18  1  0
 20 21  1  0
 21 22  2  0
 23 22  1  0
 24 25  1  0
 24 16  1  0
 26 24  2  0
M  END
$$$$
