MHH.pdb
     RDKit          3D

 29 30  0  0  1  0  0  0  0  0999 V2000
   19.0137  -16.1877  -17.1833 C   0  0  0  0  0  0  0  0  0  0  0  0
   19.1027  -15.9337  -18.9619 S   0  0  0  0  0  0  0  0  0  0  0  0
   20.8439  -15.8913  -19.5306 C   0  0  0  0  0  0  0  0  0  0  0  0
   21.5322  -14.7678  -18.8147 C   0  0  0  0  0  0  0  0  0  0  0  0
   21.5721  -13.4756  -19.5764 C   0  0  2  0  0  0  0  0  0  0  0  0
   22.1871  -13.7767  -20.8611 N   0  0  0  0  0  0  0  0  0  0  0  0
   22.2952  -12.3918  -18.8806 C   0  0  0  0  0  0  0  0  0  0  0  0
   21.9306  -11.9676  -17.7757 O   0  0  0  0  0  0  0  0  0  0  0  0
   23.4291  -11.8269  -19.4911 N   0  0  0  0  0  0  0  0  0  0  0  0
   24.2303  -10.7790  -18.9128 C   0  0  1  0  0  0  0  0  0  0  0  0
   25.5722  -10.7665  -19.5612 C   0  0  0  0  0  0  0  0  0  0  0  0
   26.5187   -9.8138  -18.9564 C   0  0  0  0  0  0  0  0  0  0  0  0
   26.4932   -9.5149  -17.5971 C   0  0  0  0  0  0  0  0  0  0  0  0
   27.4693   -8.6225  -17.3529 N   0  0  0  0  0  0  0  0  0  0  0  0
   28.1022   -8.3527  -18.5040 C   0  0  0  0  0  0  0  0  0  0  0  0
   27.5090   -9.0858  -19.4613 N   0  0  0  0  0  0  0  0  0  0  0  0
   23.5595   -9.4580  -18.9533 C   0  0  0  0  0  0  0  0  0  0  0  0
   23.1614   -8.9051  -20.0100 O   0  0  0  0  0  0  0  0  0  0  0  0
   23.3530   -8.7746  -17.7244 N   0  0  0  0  0  0  0  0  0  0  0  0
   22.6854   -7.4865  -17.6408 C   0  0  1  0  0  0  0  0  0  0  0  0
   21.3124   -7.6795  -18.2648 C   0  0  0  0  0  0  0  0  0  0  0  0
   20.4786   -6.4870  -18.2482 C   0  0  0  0  0  0  0  0  0  0  0  0
   20.8678   -5.2321  -17.8499 C   0  0  0  0  0  0  0  0  0  0  0  0
   19.8305   -4.3834  -17.9722 N   0  0  0  0  0  0  0  0  0  0  0  0
   18.8058   -5.1185  -18.4455 C   0  0  0  0  0  0  0  0  0  0  0  0
   19.1943   -6.3929  -18.6140 N   0  0  0  0  0  0  0  0  0  0  0  0
   22.6047   -6.9868  -16.2602 C   0  0  0  0  0  0  0  0  0  0  0  0
   23.0987   -7.6576  -15.3282 O   0  0  0  0  0  0  0  0  0  0  0  0
   21.9909   -5.7906  -15.9928 O   0  0  0  0  0  0  0  0  0  0  0  0
  2  1  1  0
  3  4  1  0
  3  2  1  0
  4  5  1  0
  5  6  1  6
  7  8  2  0
  7  5  1  0
  9  7  1  0
 10  9  1  0
 10 11  1  6
 12 16  1  0
 12 11  1  0
 13 12  2  0
 14 13  1  0
 14 15  1  0
 15 16  2  0
 17 10  1  0
 18 17  2  0
 19 17  1  0
 20 21  1  1
 20 19  1  0
 21 22  1  0
 22 26  1  0
 22 23  2  0
 23 24  1  0
 25 24  1  0
 26 25  2  0
 27 20  1  0
 28 27  2  0
 29 27  1  0
M  END
$$$$
