MHH.pdb
     RDKit          3D

 29 30  0  0  1  0  0  0  0  0999 V2000
   27.6227  -18.5266   -7.0832 C   0  0  0  0  0  0  0  0  0  0  0  0
   27.6968  -20.2313   -6.5139 S   0  0  0  0  0  0  0  0  0  0  0  0
   27.9865  -21.3770   -7.9141 C   0  0  0  0  0  0  0  0  0  0  0  0
   27.1530  -20.9084   -9.0692 C   0  0  0  0  0  0  0  0  0  0  0  0
   27.3219  -21.7116  -10.3253 C   0  0  2  0  0  0  0  0  0  0  0  0
   28.7343  -21.6388  -10.6707 N   0  0  0  0  0  0  0  0  0  0  0  0
   26.4751  -21.2560  -11.4465 C   0  0  0  0  0  0  0  0  0  0  0  0
   26.7452  -20.2376  -12.0974 O   0  0  0  0  0  0  0  0  0  0  0  0
   25.3305  -22.0005  -11.7829 N   0  0  0  0  0  0  0  0  0  0  0  0
   24.5152  -21.7624  -12.9461 C   0  0  1  0  0  0  0  0  0  0  0  0
   24.2299  -23.0584  -13.6246 C   0  0  0  0  0  0  0  0  0  0  0  0
   23.4095  -22.9276  -14.8407 C   0  0  0  0  0  0  0  0  0  0  0  0
   22.7921  -21.7287  -15.1857 C   0  0  0  0  0  0  0  0  0  0  0  0
   22.1230  -21.9255  -16.3356 N   0  0  0  0  0  0  0  0  0  0  0  0
   22.2978  -23.1977  -16.7218 C   0  0  0  0  0  0  0  0  0  0  0  0
   23.0804  -23.7853  -15.8009 N   0  0  0  0  0  0  0  0  0  0  0  0
   23.2870  -20.9931  -12.6355 C   0  0  0  0  0  0  0  0  0  0  0  0
   22.6213  -21.1308  -11.5778 O   0  0  0  0  0  0  0  0  0  0  0  0
   22.8339  -20.0423  -13.5897 N   0  0  0  0  0  0  0  0  0  0  0  0
   21.6028  -19.2873  -13.4276 C   0  0  1  0  0  0  0  0  0  0  0  0
   21.9083  -17.8731  -13.8951 C   0  0  0  0  0  0  0  0  0  0  0  0
   20.7683  -16.9701  -13.8428 C   0  0  0  0  0  0  0  0  0  0  0  0
   19.9489  -16.7620  -12.7610 C   0  0  0  0  0  0  0  0  0  0  0  0
   19.0047  -15.8589  -13.0836 N   0  0  0  0  0  0  0  0  0  0  0  0
   19.2458  -15.5137  -14.3632 C   0  0  0  0  0  0  0  0  0  0  0  0
   20.3129  -16.1846  -14.8264 N   0  0  0  0  0  0  0  0  0  0  0  0
   20.4784  -19.8862  -14.1620 C   0  0  0  0  0  0  0  0  0  0  0  0
   20.6523  -20.3072  -15.3261 O   0  0  0  0  0  0  0  0  0  0  0  0
   19.2434  -19.9839  -13.5754 O   0  0  0  0  0  0  0  0  0  0  0  0
  2  1  1  0
  3  4  1  0
  3  2  1  0
  4  5  1  0
  5  6  1  6
  7  8  2  0
  7  5  1  0
  9  7  1  0
 10  9  1  0
 10 11  1  1
 12 16  1  0
 12 11  1  0
 13 12  2  0
 14 13  1  0
 14 15  1  0
 15 16  2  0
 17 10  1  0
 18 17  2  0
 19 17  1  0
 20 21  1  6
 20 19  1  0
 21 22  1  0
 22 26  1  0
 22 23  2  0
 23 24  1  0
 25 24  1  0
 26 25  2  0
 27 20  1  0
 28 27  2  0
 29 27  1  0
M  END
$$$$
