MHH.pdb
     RDKit          3D

 29 30  0  0  1  0  0  0  0  0999 V2000
   29.1978   -4.3580  -17.3346 C   0  0  0  0  0  0  0  0  0  0  0  0
   29.0310   -3.9729  -19.0838 S   0  0  0  0  0  0  0  0  0  0  0  0
   29.5106   -5.4070  -20.1184 C   0  0  0  0  0  0  0  0  0  0  0  0
   28.7069   -6.5886  -19.6640 C   0  0  0  0  0  0  0  0  0  0  0  0
   29.0030   -7.8629  -20.3989 C   0  0  2  0  0  0  0  0  0  0  0  0
   29.9544   -7.5198  -21.4460 N   0  0  0  0  0  0  0  0  0  0  0  0
   27.8069   -8.5225  -20.9610 C   0  0  0  0  0  0  0  0  0  0  0  0
   27.3479   -8.2098  -22.0678 O   0  0  0  0  0  0  0  0  0  0  0  0
   27.1728   -9.5335  -20.2172 N   0  0  0  0  0  0  0  0  0  0  0  0
   26.0256  -10.2795  -20.6666 C   0  0  1  0  0  0  0  0  0  0  0  0
   25.9320  -11.5539  -19.8997 C   0  0  0  0  0  0  0  0  0  0  0  0
   24.9120  -12.4850  -20.4113 C   0  0  0  0  0  0  0  0  0  0  0  0
   23.8800  -12.0603  -21.2433 C   0  0  0  0  0  0  0  0  0  0  0  0
   23.1207  -13.1305  -21.5377 N   0  0  0  0  0  0  0  0  0  0  0  0
   23.6368  -14.2052  -20.9235 C   0  0  0  0  0  0  0  0  0  0  0  0
   24.7212  -13.7898  -20.2472 N   0  0  0  0  0  0  0  0  0  0  0  0
   24.7742   -9.4867  -20.6198 C   0  0  0  0  0  0  0  0  0  0  0  0
   23.6647   -9.9009  -21.0423 O   0  0  0  0  0  0  0  0  0  0  0  0
   24.8304   -8.1800  -20.0639 N   0  0  0  0  0  0  0  0  0  0  0  0
   23.6859   -7.2850  -20.0356 C   0  0  1  0  0  0  0  0  0  0  0  0
   23.5036   -6.8759  -18.5826 C   0  0  0  0  0  0  0  0  0  0  0  0
   22.8716   -7.8914  -17.7536 C   0  0  0  0  0  0  0  0  0  0  0  0
   22.4837   -9.1435  -18.1615 C   0  0  0  0  0  0  0  0  0  0  0  0
   21.9373   -9.8020  -17.1227 N   0  0  0  0  0  0  0  0  0  0  0  0
   21.9905   -8.9529  -16.0782 C   0  0  0  0  0  0  0  0  0  0  0  0
   22.5557   -7.7948  -16.4564 N   0  0  0  0  0  0  0  0  0  0  0  0
   23.8602   -6.1255  -20.9231 C   0  0  0  0  0  0  0  0  0  0  0  0
   25.0108   -5.7140  -21.1866 O   0  0  0  0  0  0  0  0  0  0  0  0
   22.7677   -5.4963  -21.4610 O   0  0  0  0  0  0  0  0  0  0  0  0
  2  1  1  0
  3  4  1  0
  3  2  1  0
  4  5  1  0
  5  6  1  6
  7  8  2  0
  7  5  1  0
  9  7  1  0
 10  9  1  0
 10 11  1  1
 12 16  1  0
 12 11  1  0
 13 12  2  0
 14 13  1  0
 14 15  1  0
 15 16  2  0
 17 10  1  0
 18 17  2  0
 19 17  1  0
 20 21  1  1
 20 19  1  0
 21 22  1  0
 22 26  1  0
 22 23  2  0
 23 24  1  0
 25 24  1  0
 26 25  2  0
 27 20  1  0
 28 27  2  0
 29 27  1  0
M  END
$$$$
