MHH.pdb
     RDKit          3D

 29 30  0  0  1  0  0  0  0  0999 V2000
   20.4355  -27.0432    1.8628 C   0  0  0  0  0  0  0  0  0  0  0  0
   20.5849  -25.3450    2.4369 S   0  0  0  0  0  0  0  0  0  0  0  0
   18.9351  -24.5728    2.6330 C   0  0  0  0  0  0  0  0  0  0  0  0
   19.1410  -23.1713    3.1247 C   0  0  0  0  0  0  0  0  0  0  0  0
   17.8762  -22.4362    3.4587 C   0  0  2  0  0  0  0  0  0  0  0  0
   17.0985  -22.3804    2.2292 N   0  0  0  0  0  0  0  0  0  0  0  0
   18.0966  -21.0844    4.0115 C   0  0  0  0  0  0  0  0  0  0  0  0
   18.9344  -20.3102    3.5296 O   0  0  0  0  0  0  0  0  0  0  0  0
   17.3330  -20.6665    5.1159 N   0  0  0  0  0  0  0  0  0  0  0  0
   17.4120  -19.3587    5.7145 C   0  0  1  0  0  0  0  0  0  0  0  0
   16.0369  -18.8646    6.0078 C   0  0  0  0  0  0  0  0  0  0  0  0
   15.4213  -18.1180    4.8974 C   0  0  0  0  0  0  0  0  0  0  0  0
   16.1016  -17.8769    3.7072 C   0  0  0  0  0  0  0  0  0  0  0  0
   15.2837  -17.1796    2.8988 N   0  0  0  0  0  0  0  0  0  0  0  0
   14.1215  -16.9759    3.5361 C   0  0  0  0  0  0  0  0  0  0  0  0
   14.2283  -17.5532    4.7449 N   0  0  0  0  0  0  0  0  0  0  0  0
   18.3004  -19.3256    6.9003 C   0  0  0  0  0  0  0  0  0  0  0  0
   18.8274  -20.3465    7.4113 O   0  0  0  0  0  0  0  0  0  0  0  0
   18.5740  -18.0647    7.4963 N   0  0  0  0  0  0  0  0  0  0  0  0
   19.4218  -17.9129    8.6667 C   0  0  1  0  0  0  0  0  0  0  0  0
   20.7841  -18.4648    8.2777 C   0  0  0  0  0  0  0  0  0  0  0  0
   21.1088  -19.7400    8.8992 C   0  0  0  0  0  0  0  0  0  0  0  0
   20.3108  -20.4450    9.7658 C   0  0  0  0  0  0  0  0  0  0  0  0
   20.9412  -21.5759   10.1331 N   0  0  0  0  0  0  0  0  0  0  0  0
   22.1256  -21.5635    9.4914 C   0  0  0  0  0  0  0  0  0  0  0  0
   22.2308  -20.4533    8.7432 N   0  0  0  0  0  0  0  0  0  0  0  0
   19.4964  -16.5181    9.1264 C   0  0  0  0  0  0  0  0  0  0  0  0
   20.1447  -16.2392   10.1582 O   0  0  0  0  0  0  0  0  0  0  0  0
   18.8589  -15.5253    8.4286 O   0  0  0  0  0  0  0  0  0  0  0  0
  2  1  1  0
  3  4  1  0
  3  2  1  0
  4  5  1  0
  5  6  1  6
  7  8  2  0
  7  5  1  0
  9  7  1  0
 10  9  1  0
 10 11  1  1
 12 16  1  0
 12 11  1  0
 13 12  2  0
 14 13  1  0
 14 15  1  0
 15 16  2  0
 17 10  1  0
 18 17  2  0
 19 17  1  0
 20 21  1  6
 20 19  1  0
 21 22  1  0
 22 26  1  0
 22 23  2  0
 23 24  1  0
 25 24  1  0
 26 25  2  0
 27 20  1  0
 28 27  2  0
 29 27  1  0
M  END
$$$$
