MHH.pdb
     RDKit          3D

 29 30  0  0  1  0  0  0  0  0999 V2000
   28.8126  -14.8972  -15.5194 C   0  0  0  0  0  0  0  0  0  0  0  0
   27.9851  -13.5325  -16.3491 S   0  0  0  0  0  0  0  0  0  0  0  0
   26.1711  -13.6228  -16.1076 C   0  0  0  0  0  0  0  0  0  0  0  0
   25.5722  -12.3649  -16.6621 C   0  0  0  0  0  0  0  0  0  0  0  0
   25.3832  -12.3687  -18.1507 C   0  0  2  0  0  0  0  0  0  0  0  0
   26.7145  -12.4629  -18.7320 N   0  0  0  0  0  0  0  0  0  0  0  0
   24.6590  -11.1890  -18.6660 C   0  0  0  0  0  0  0  0  0  0  0  0
   25.2183  -10.0948  -18.8194 O   0  0  0  0  0  0  0  0  0  0  0  0
   23.2965  -11.3135  -18.9910 N   0  0  0  0  0  0  0  0  0  0  0  0
   22.4312  -10.2090  -19.3165 C   0  0  1  0  0  0  0  0  0  0  0  0
   21.2943  -10.6986  -20.1466 C   0  0  0  0  0  0  0  0  0  0  0  0
   20.4083   -9.6286  -20.6358 C   0  0  0  0  0  0  0  0  0  0  0  0
   20.9079   -8.4826  -21.2479 C   0  0  0  0  0  0  0  0  0  0  0  0
   19.8631   -7.7038  -21.5802 N   0  0  0  0  0  0  0  0  0  0  0  0
   18.7325   -8.3169  -21.2005 C   0  0  0  0  0  0  0  0  0  0  0  0
   19.0877   -9.4811  -20.6308 N   0  0  0  0  0  0  0  0  0  0  0  0
   21.9871   -9.4584  -18.1181 C   0  0  0  0  0  0  0  0  0  0  0  0
   21.5755  -10.0024  -17.0619 O   0  0  0  0  0  0  0  0  0  0  0  0
   22.0290   -8.0386  -18.1644 N   0  0  0  0  0  0  0  0  0  0  0  0
   21.5696   -7.1998  -17.0702 C   0  0  1  0  0  0  0  0  0  0  0  0
   22.3475   -7.6429  -15.8413 C   0  0  0  0  0  0  0  0  0  0  0  0
   21.5445   -8.3417  -14.8490 C   0  0  0  0  0  0  0  0  0  0  0  0
   20.2157   -8.6666  -14.9656 C   0  0  0  0  0  0  0  0  0  0  0  0
   19.8140   -9.3083  -13.8528 N   0  0  0  0  0  0  0  0  0  0  0  0
   20.8969   -9.3763  -13.0545 C   0  0  0  0  0  0  0  0  0  0  0  0
   21.9468   -8.7920  -13.6543 N   0  0  0  0  0  0  0  0  0  0  0  0
   21.7429   -5.7672  -17.3526 C   0  0  0  0  0  0  0  0  0  0  0  0
   20.8193   -4.9672  -17.0888 O   0  0  0  0  0  0  0  0  0  0  0  0
   22.9111   -5.3074  -17.9029 O   0  0  0  0  0  0  0  0  0  0  0  0
  2  1  1  0
  3  4  1  0
  3  2  1  0
  4  5  1  0
  5  6  1  6
  7  8  2  0
  7  5  1  0
  9  7  1  0
 10  9  1  0
 10 11  1  1
 12 16  1  0
 12 11  1  0
 13 12  2  0
 14 13  1  0
 14 15  1  0
 15 16  2  0
 17 10  1  0
 18 17  2  0
 19 17  1  0
 20 21  1  1
 20 19  1  0
 21 22  1  0
 22 26  1  0
 22 23  2  0
 23 24  1  0
 25 24  1  0
 26 25  2  0
 27 20  1  0
 28 27  2  0
 29 27  1  0
M  END
$$$$
