MHH.pdb
     RDKit          3D

 29 30  0  0  1  0  0  0  0  0999 V2000
   20.8726  -21.8035  -22.2319 C   0  0  0  0  0  0  0  0  0  0  0  0
   21.7348  -20.7980  -23.4490 S   0  0  0  0  0  0  0  0  0  0  0  0
   22.9923  -19.7341  -22.6467 C   0  0  0  0  0  0  0  0  0  0  0  0
   22.7476  -19.7715  -21.1678 C   0  0  0  0  0  0  0  0  0  0  0  0
   23.4480  -18.6940  -20.3932 C   0  0  2  0  0  0  0  0  0  0  0  0
   24.8458  -18.7423  -20.7972 N   0  0  0  0  0  0  0  0  0  0  0  0
   23.3120  -18.8241  -18.9282 C   0  0  0  0  0  0  0  0  0  0  0  0
   23.6170  -19.8669  -18.3338 O   0  0  0  0  0  0  0  0  0  0  0  0
   22.8225  -17.7325  -18.1891 N   0  0  0  0  0  0  0  0  0  0  0  0
   22.6331  -17.7330  -16.7613 C   0  0  1  0  0  0  0  0  0  0  0  0
   23.5008  -16.6889  -16.1463 C   0  0  0  0  0  0  0  0  0  0  0  0
   24.9430  -16.9538  -16.2846 C   0  0  0  0  0  0  0  0  0  0  0  0
   25.6197  -17.8087  -15.4193 C   0  0  0  0  0  0  0  0  0  0  0  0
   26.9091  -17.8443  -15.7997 N   0  0  0  0  0  0  0  0  0  0  0  0
   27.0643  -17.0467  -16.8665 C   0  0  0  0  0  0  0  0  0  0  0  0
   25.8599  -16.5181  -17.1420 N   0  0  0  0  0  0  0  0  0  0  0  0
   21.2090  -17.5992  -16.3735 C   0  0  0  0  0  0  0  0  0  0  0  0
   20.4420  -16.7065  -16.8159 O   0  0  0  0  0  0  0  0  0  0  0  0
   20.6772  -18.5357  -15.4461 N   0  0  0  0  0  0  0  0  0  0  0  0
   19.2849  -18.5298  -15.0297 C   0  0  1  0  0  0  0  0  0  0  0  0
   18.8363  -19.9825  -15.0302 C   0  0  0  0  0  0  0  0  0  0  0  0
   18.5796  -20.5252  -16.3559 C   0  0  0  0  0  0  0  0  0  0  0  0
   18.5580  -19.8158  -17.5311 C   0  0  0  0  0  0  0  0  0  0  0  0
   18.2887  -20.6510  -18.5515 N   0  0  0  0  0  0  0  0  0  0  0  0
   18.1454  -21.8722  -18.0012 C   0  0  0  0  0  0  0  0  0  0  0  0
   18.3208  -21.8000  -16.6717 N   0  0  0  0  0  0  0  0  0  0  0  0
   19.0955  -17.8887  -13.7199 C   0  0  0  0  0  0  0  0  0  0  0  0
   18.0081  -17.3327  -13.4534 O   0  0  0  0  0  0  0  0  0  0  0  0
   20.1051  -17.8989  -12.7928 O   0  0  0  0  0  0  0  0  0  0  0  0
  2  1  1  0
  3  4  1  0
  3  2  1  0
  4  5  1  0
  5  6  1  1
  7  8  2  0
  7  5  1  0
  9  7  1  0
 10  9  1  0
 10 11  1  1
 12 16  1  0
 12 11  1  0
 13 12  2  0
 14 13  1  0
 14 15  1  0
 15 16  2  0
 17 10  1  0
 18 17  2  0
 19 17  1  0
 20 21  1  1
 20 19  1  0
 21 22  1  0
 22 26  1  0
 22 23  2  0
 23 24  1  0
 25 24  1  0
 26 25  2  0
 27 20  1  0
 28 27  2  0
 29 27  1  0
M  END
$$$$
