MHH.pdb
     RDKit          3D

 29 30  0  0  1  0  0  0  0  0999 V2000
   29.4022  -25.0915  -16.9417 C   0  0  0  0  0  0  0  0  0  0  0  0
   27.9829  -25.9640  -16.2633 S   0  0  0  0  0  0  0  0  0  0  0  0
   26.4327  -25.0417  -16.5846 C   0  0  0  0  0  0  0  0  0  0  0  0
   26.6400  -23.6267  -16.1337 C   0  0  0  0  0  0  0  0  0  0  0  0
   26.1857  -22.5872  -17.1159 C   0  0  2  0  0  0  0  0  0  0  0  0
   27.3757  -22.1557  -17.8349 N   0  0  0  0  0  0  0  0  0  0  0  0
   25.4921  -21.4397  -16.4964 C   0  0  0  0  0  0  0  0  0  0  0  0
   26.0905  -20.6208  -15.7858 O   0  0  0  0  0  0  0  0  0  0  0  0
   24.1138  -21.2739  -16.7206 N   0  0  0  0  0  0  0  0  0  0  0  0
   23.3056  -20.2489  -16.1118 C   0  0  1  0  0  0  0  0  0  0  0  0
   22.5333  -19.5348  -17.1676 C   0  0  0  0  0  0  0  0  0  0  0  0
   23.3088  -18.5061  -17.8817 C   0  0  0  0  0  0  0  0  0  0  0  0
   24.6167  -18.1911  -17.5242 C   0  0  0  0  0  0  0  0  0  0  0  0
   25.0497  -17.2254  -18.3540 N   0  0  0  0  0  0  0  0  0  0  0  0
   24.0657  -16.9253  -19.2142 C   0  0  0  0  0  0  0  0  0  0  0  0
   23.0211  -17.7137  -18.9089 N   0  0  0  0  0  0  0  0  0  0  0  0
   22.4454  -20.7704  -15.0234 C   0  0  0  0  0  0  0  0  0  0  0  0
   21.8450  -21.8741  -15.0710 O   0  0  0  0  0  0  0  0  0  0  0  0
   22.2894  -19.9763  -13.8551 N   0  0  0  0  0  0  0  0  0  0  0  0
   21.5178  -20.4112  -12.7030 C   0  0  1  0  0  0  0  0  0  0  0  0
   22.2656  -19.9092  -11.4781 C   0  0  0  0  0  0  0  0  0  0  0  0
   23.5097  -20.6150  -11.2101 C   0  0  0  0  0  0  0  0  0  0  0  0
   24.0156  -21.6673  -11.9324 C   0  0  0  0  0  0  0  0  0  0  0  0
   25.1827  -22.0607  -11.3899 N   0  0  0  0  0  0  0  0  0  0  0  0
   25.3918  -21.2492  -10.3352 C   0  0  0  0  0  0  0  0  0  0  0  0
   24.3808  -20.3724  -10.2230 N   0  0  0  0  0  0  0  0  0  0  0  0
   20.1295  -19.9283  -12.7449 C   0  0  0  0  0  0  0  0  0  0  0  0
   19.3086  -20.3262  -11.8902 O   0  0  0  0  0  0  0  0  0  0  0  0
   19.7338  -19.0452  -13.7158 O   0  0  0  0  0  0  0  0  0  0  0  0
  2  1  1  0
  3  4  1  0
  3  2  1  0
  4  5  1  0
  5  6  1  1
  7  8  2  0
  7  5  1  0
  9  7  1  0
 10  9  1  0
 10 11  1  6
 12 16  1  0
 12 11  1  0
 13 12  2  0
 14 13  1  0
 14 15  1  0
 15 16  2  0
 17 10  1  0
 18 17  2  0
 19 17  1  0
 20 21  1  1
 20 19  1  0
 21 22  1  0
 22 26  1  0
 22 23  2  0
 23 24  1  0
 25 24  1  0
 26 25  2  0
 27 20  1  0
 28 27  2  0
 29 27  1  0
M  END
$$$$
