MHH.pdb
     RDKit          3D

 29 30  0  0  1  0  0  0  0  0999 V2000
   28.3925  -13.7052  -14.6523 C   0  0  0  0  0  0  0  0  0  0  0  0
   28.2949  -13.4768  -16.4338 S   0  0  0  0  0  0  0  0  0  0  0  0
   28.4040  -11.7014  -16.8731 C   0  0  0  0  0  0  0  0  0  0  0  0
   27.0683  -11.0784  -16.5970 C   0  0  0  0  0  0  0  0  0  0  0  0
   25.8996  -11.8403  -17.1496 C   0  0  2  0  0  0  0  0  0  0  0  0
   26.0259  -11.7888  -18.5989 N   0  0  0  0  0  0  0  0  0  0  0  0
   24.5867  -11.3253  -16.7106 C   0  0  0  0  0  0  0  0  0  0  0  0
   24.3035  -11.1952  -15.5120 O   0  0  0  0  0  0  0  0  0  0  0  0
   23.6328  -10.9732  -17.6820 N   0  0  0  0  0  0  0  0  0  0  0  0
   22.2889  -10.5462  -17.3886 C   0  0  1  0  0  0  0  0  0  0  0  0
   22.0009   -9.2798  -18.1198 C   0  0  0  0  0  0  0  0  0  0  0  0
   22.1526   -8.0677  -17.2969 C   0  0  0  0  0  0  0  0  0  0  0  0
   22.4028   -8.1341  -15.9292 C   0  0  0  0  0  0  0  0  0  0  0  0
   22.4894   -6.8752  -15.4643 N   0  0  0  0  0  0  0  0  0  0  0  0
   22.3034   -6.0265  -16.4858 C   0  0  0  0  0  0  0  0  0  0  0  0
   22.1012   -6.7717  -17.5856 N   0  0  0  0  0  0  0  0  0  0  0  0
   21.2833  -11.6031  -17.6505 C   0  0  0  0  0  0  0  0  0  0  0  0
   20.9131  -11.9500  -18.8009 O   0  0  0  0  0  0  0  0  0  0  0  0
   20.7024  -12.2650  -16.5351 N   0  0  0  0  0  0  0  0  0  0  0  0
   19.6503  -13.2586  -16.6677 C   0  0  1  0  0  0  0  0  0  0  0  0
   20.0773  -14.4441  -15.8167 C   0  0  0  0  0  0  0  0  0  0  0  0
   19.1011  -15.5221  -15.7660 C   0  0  0  0  0  0  0  0  0  0  0  0
   18.5083  -16.1292  -16.8453 C   0  0  0  0  0  0  0  0  0  0  0  0
   17.6617  -17.0817  -16.4122 N   0  0  0  0  0  0  0  0  0  0  0  0
   17.7360  -17.0579  -15.0674 C   0  0  0  0  0  0  0  0  0  0  0  0
   18.6066  -16.1148  -14.6723 N   0  0  0  0  0  0  0  0  0  0  0  0
   18.3337  -12.7354  -16.2738 C   0  0  0  0  0  0  0  0  0  0  0  0
   18.2567  -11.8447  -15.4001 O   0  0  0  0  0  0  0  0  0  0  0  0
   17.1935  -13.2203  -16.8603 O   0  0  0  0  0  0  0  0  0  0  0  0
  2  1  1  0
  3  4  1  0
  3  2  1  0
  4  5  1  0
  5  6  1  6
  7  8  2  0
  7  5  1  0
  9  7  1  0
 10  9  1  0
 10 11  1  6
 12 16  1  0
 12 11  1  0
 13 12  2  0
 14 13  1  0
 14 15  1  0
 15 16  2  0
 17 10  1  0
 18 17  2  0
 19 17  1  0
 20 21  1  1
 20 19  1  0
 21 22  1  0
 22 26  1  0
 22 23  2  0
 23 24  1  0
 25 24  1  0
 26 25  2  0
 27 20  1  0
 28 27  2  0
 29 27  1  0
M  END
$$$$
