MHH.pdb
     RDKit          3D

 29 30  0  0  1  0  0  0  0  0999 V2000
   29.2967  -11.1468  -23.3556 C   0  0  0  0  0  0  0  0  0  0  0  0
   28.7365  -11.9483  -21.8458 S   0  0  0  0  0  0  0  0  0  0  0  0
   28.1149  -10.7149  -20.6419 C   0  0  0  0  0  0  0  0  0  0  0  0
   27.6259  -11.4589  -19.4353 C   0  0  0  0  0  0  0  0  0  0  0  0
   26.8876  -10.6136  -18.4393 C   0  0  2  0  0  0  0  0  0  0  0  0
   27.3435  -11.0391  -17.1238 N   0  0  0  0  0  0  0  0  0  0  0  0
   25.4175  -10.7046  -18.5489 C   0  0  0  0  0  0  0  0  0  0  0  0
   24.8105  -10.2980  -19.5488 O   0  0  0  0  0  0  0  0  0  0  0  0
   24.6882  -11.2689  -17.4872 N   0  0  0  0  0  0  0  0  0  0  0  0
   23.2558  -11.4196  -17.4706 C   0  0  1  0  0  0  0  0  0  0  0  0
   22.8490  -12.1499  -16.2367 C   0  0  0  0  0  0  0  0  0  0  0  0
   21.4138  -12.4761  -16.1819 C   0  0  0  0  0  0  0  0  0  0  0  0
   20.6163  -12.4786  -17.3227 C   0  0  0  0  0  0  0  0  0  0  0  0
   19.3674  -12.8121  -16.9519 N   0  0  0  0  0  0  0  0  0  0  0  0
   19.3532  -13.0177  -15.6268 C   0  0  0  0  0  0  0  0  0  0  0  0
   20.6040  -12.8083  -15.1821 N   0  0  0  0  0  0  0  0  0  0  0  0
   22.5435  -10.1307  -17.6374 C   0  0  0  0  0  0  0  0  0  0  0  0
   22.3952   -9.5486  -18.7419 O   0  0  0  0  0  0  0  0  0  0  0  0
   21.9944   -9.5151  -16.4801 N   0  0  0  0  0  0  0  0  0  0  0  0
   21.2455   -8.2706  -16.5287 C   0  0  1  0  0  0  0  0  0  0  0  0
   20.0341   -8.5391  -17.4075 C   0  0  0  0  0  0  0  0  0  0  0  0
   19.1894   -7.3747  -17.6277 C   0  0  0  0  0  0  0  0  0  0  0  0
   19.5488   -6.0645  -17.4305 C   0  0  0  0  0  0  0  0  0  0  0  0
   18.5103   -5.2657  -17.7382 N   0  0  0  0  0  0  0  0  0  0  0  0
   17.5146   -6.0868  -18.1239 C   0  0  0  0  0  0  0  0  0  0  0  0
   17.9220   -7.3648  -18.0584 N   0  0  0  0  0  0  0  0  0  0  0  0
   20.8681   -7.7921  -15.1905 C   0  0  0  0  0  0  0  0  0  0  0  0
   20.7285   -8.6106  -14.2560 O   0  0  0  0  0  0  0  0  0  0  0  0
   20.6693   -6.4547  -14.9652 O   0  0  0  0  0  0  0  0  0  0  0  0
  2  1  1  0
  3  4  1  0
  3  2  1  0
  4  5  1  0
  5  6  1  1
  7  8  2  0
  7  5  1  0
  9  7  1  0
 10  9  1  0
 10 11  1  1
 12 16  1  0
 12 11  1  0
 13 12  2  0
 14 13  1  0
 14 15  1  0
 15 16  2  0
 17 10  1  0
 18 17  2  0
 19 17  1  0
 20 21  1  6
 20 19  1  0
 21 22  1  0
 22 26  1  0
 22 23  2  0
 23 24  1  0
 25 24  1  0
 26 25  2  0
 27 20  1  0
 28 27  2  0
 29 27  1  0
M  END
$$$$
