MHH.pdb
     RDKit          3D

 29 30  0  0  1  0  0  0  0  0999 V2000
   27.9780  -14.9796  -14.7137 C   0  0  0  0  0  0  0  0  0  0  0  0
   26.5658  -13.9354  -15.1020 S   0  0  0  0  0  0  0  0  0  0  0  0
   26.7034  -13.2517  -16.7963 C   0  0  0  0  0  0  0  0  0  0  0  0
   25.5538  -12.3121  -17.0057 C   0  0  0  0  0  0  0  0  0  0  0  0
   24.2032  -12.9135  -16.7491 C   0  0  2  0  0  0  0  0  0  0  0  0
   24.0584  -14.0121  -17.6933 N   0  0  0  0  0  0  0  0  0  0  0  0
   23.0867  -11.9543  -16.8725 C   0  0  0  0  0  0  0  0  0  0  0  0
   22.7740  -11.4522  -17.9605 O   0  0  0  0  0  0  0  0  0  0  0  0
   22.3596  -11.6025  -15.7214 N   0  0  0  0  0  0  0  0  0  0  0  0
   21.2719  -10.6585  -15.7002 C   0  0  1  0  0  0  0  0  0  0  0  0
   20.1604  -11.2024  -14.8696 C   0  0  0  0  0  0  0  0  0  0  0  0
   19.4955  -12.3777  -15.4577 C   0  0  0  0  0  0  0  0  0  0  0  0
   19.2059  -12.4551  -16.8170 C   0  0  0  0  0  0  0  0  0  0  0  0
   18.6057  -13.6369  -17.0440 N   0  0  0  0  0  0  0  0  0  0  0  0
   18.5091  -14.2997  -15.8823 C   0  0  0  0  0  0  0  0  0  0  0  0
   19.0547  -13.5173  -14.9356 N   0  0  0  0  0  0  0  0  0  0  0  0
   21.6985   -9.3044  -15.2749 C   0  0  0  0  0  0  0  0  0  0  0  0
   22.1074   -9.0283  -14.1184 O   0  0  0  0  0  0  0  0  0  0  0  0
   21.6429   -8.2543  -16.2310 N   0  0  0  0  0  0  0  0  0  0  0  0
   22.1133   -6.9079  -15.9520 C   0  0  1  0  0  0  0  0  0  0  0  0
   22.9616   -6.4996  -17.1459 C   0  0  0  0  0  0  0  0  0  0  0  0
   24.1472   -7.3205  -17.3417 C   0  0  0  0  0  0  0  0  0  0  0  0
   24.3680   -8.1891  -18.3817 C   0  0  0  0  0  0  0  0  0  0  0  0
   25.5718   -8.7712  -18.2290 N   0  0  0  0  0  0  0  0  0  0  0  0
   26.0883   -8.2592  -17.0952 C   0  0  0  0  0  0  0  0  0  0  0  0
   25.2286   -7.3803  -16.5550 N   0  0  0  0  0  0  0  0  0  0  0  0
   21.0085   -5.9690  -15.7064 C   0  0  0  0  0  0  0  0  0  0  0  0
   21.2591   -4.7827  -15.4023 O   0  0  0  0  0  0  0  0  0  0  0  0
   19.7079   -6.3897  -15.8098 O   0  0  0  0  0  0  0  0  0  0  0  0
  2  1  1  0
  3  4  1  0
  3  2  1  0
  4  5  1  0
  5  6  1  6
  7  8  2  0
  7  5  1  0
  9  7  1  0
 10  9  1  0
 10 11  1  1
 12 16  1  0
 12 11  1  0
 13 12  2  0
 14 13  1  0
 14 15  1  0
 15 16  2  0
 17 10  1  0
 18 17  2  0
 19 17  1  0
 20 21  1  6
 20 19  1  0
 21 22  1  0
 22 26  1  0
 22 23  2  0
 23 24  1  0
 25 24  1  0
 26 25  2  0
 27 20  1  0
 28 27  2  0
 29 27  1  0
M  END
$$$$
