MHH.pdb
     RDKit          3D

 29 30  0  0  1  0  0  0  0  0999 V2000
   28.8179  -14.0846  -15.0008 C   0  0  0  0  0  0  0  0  0  0  0  0
   27.8665  -12.6183  -15.4254 S   0  0  0  0  0  0  0  0  0  0  0  0
   28.6723  -11.6848  -16.7805 C   0  0  0  0  0  0  0  0  0  0  0  0
   27.9793  -10.3604  -16.8993 C   0  0  0  0  0  0  0  0  0  0  0  0
   26.4813  -10.4350  -16.8543 C   0  0  2  0  0  0  0  0  0  0  0  0
   26.0855  -11.3543  -17.9115 N   0  0  0  0  0  0  0  0  0  0  0  0
   25.8112   -9.1275  -17.0067 C   0  0  0  0  0  0  0  0  0  0  0  0
   26.0871   -8.1634  -16.2801 O   0  0  0  0  0  0  0  0  0  0  0  0
   24.8329   -8.9750  -18.0052 N   0  0  0  0  0  0  0  0  0  0  0  0
   24.1308   -7.7474  -18.2787 C   0  0  1  0  0  0  0  0  0  0  0  0
   24.0781   -7.5246  -19.7514 C   0  0  0  0  0  0  0  0  0  0  0  0
   25.4018   -7.3806  -20.3810 C   0  0  0  0  0  0  0  0  0  0  0  0
   26.0693   -6.1596  -20.4182 C   0  0  0  0  0  0  0  0  0  0  0  0
   27.2402   -6.3491  -21.0521 N   0  0  0  0  0  0  0  0  0  0  0  0
   27.3302   -7.6378  -21.4117 C   0  0  0  0  0  0  0  0  0  0  0  0
   26.2051   -8.2429  -20.9947 N   0  0  0  0  0  0  0  0  0  0  0  0
   22.7935   -7.6996  -17.6415 C   0  0  0  0  0  0  0  0  0  0  0  0
   21.7897   -8.3247  -18.0688 O   0  0  0  0  0  0  0  0  0  0  0  0
   22.6353   -6.8999  -16.4774 N   0  0  0  0  0  0  0  0  0  0  0  0
   21.3604   -6.7381  -15.7988 C   0  0  1  0  0  0  0  0  0  0  0  0
   21.4295   -7.6086  -14.5541 C   0  0  0  0  0  0  0  0  0  0  0  0
   21.2080   -9.0247  -14.8056 C   0  0  0  0  0  0  0  0  0  0  0  0
   21.0151   -9.6088  -16.0330 C   0  0  0  0  0  0  0  0  0  0  0  0
   20.8440  -10.9342  -15.8746 N   0  0  0  0  0  0  0  0  0  0  0  0
   20.9321  -11.1621  -14.5498 C   0  0  0  0  0  0  0  0  0  0  0  0
   21.1525  -10.0082  -13.8992 N   0  0  0  0  0  0  0  0  0  0  0  0
   21.0707   -5.3322  -15.4801 C   0  0  0  0  0  0  0  0  0  0  0  0
   22.0026   -4.4998  -15.4444 O   0  0  0  0  0  0  0  0  0  0  0  0
   19.7850   -4.9325  -15.2226 O   0  0  0  0  0  0  0  0  0  0  0  0
  2  1  1  0
  3  4  1  0
  3  2  1  0
  4  5  1  0
  5  6  1  6
  7  8  2  0
  7  5  1  0
  9  7  1  0
 10  9  1  0
 10 11  1  6
 12 16  1  0
 12 11  1  0
 13 12  2  0
 14 13  1  0
 14 15  1  0
 15 16  2  0
 17 10  1  0
 18 17  2  0
 19 17  1  0
 20 21  1  1
 20 19  1  0
 21 22  1  0
 22 26  1  0
 22 23  2  0
 23 24  1  0
 25 24  1  0
 26 25  2  0
 27 20  1  0
 28 27  2  0
 29 27  1  0
M  END
$$$$
