MHH.pdb
     RDKit          3D

 29 30  0  0  1  0  0  0  0  0999 V2000
   28.2010  -13.7219  -14.4635 C   0  0  0  0  0  0  0  0  0  0  0  0
   27.9414  -12.4998  -15.7575 S   0  0  0  0  0  0  0  0  0  0  0  0
   26.6516  -13.0560  -16.9340 C   0  0  0  0  0  0  0  0  0  0  0  0
   25.4033  -12.2762  -16.6474 C   0  0  0  0  0  0  0  0  0  0  0  0
   24.2050  -12.7047  -17.4423 C   0  0  2  0  0  0  0  0  0  0  0  0
   24.6732  -12.9220  -18.8035 N   0  0  0  0  0  0  0  0  0  0  0  0
   23.0881  -11.7386  -17.4108 C   0  0  0  0  0  0  0  0  0  0  0  0
   23.0692  -10.7380  -18.1401 O   0  0  0  0  0  0  0  0  0  0  0  0
   22.0172  -11.9629  -16.5274 N   0  0  0  0  0  0  0  0  0  0  0  0
   20.8718  -11.0992  -16.3979 C   0  0  1  0  0  0  0  0  0  0  0  0
   19.7251  -11.8766  -15.8486 C   0  0  0  0  0  0  0  0  0  0  0  0
   18.4718  -11.1082  -15.7579 C   0  0  0  0  0  0  0  0  0  0  0  0
   17.7635  -10.7203  -16.8917 C   0  0  0  0  0  0  0  0  0  0  0  0
   16.6760  -10.0411  -16.4861 N   0  0  0  0  0  0  0  0  0  0  0  0
   16.6769   -9.9895  -15.1461 C   0  0  0  0  0  0  0  0  0  0  0  0
   17.7742  -10.6425  -14.7272 N   0  0  0  0  0  0  0  0  0  0  0  0
   21.1646   -9.8751  -15.6152 C   0  0  0  0  0  0  0  0  0  0  0  0
   21.9012   -9.8528  -14.5965 O   0  0  0  0  0  0  0  0  0  0  0  0
   20.5783   -8.6525  -16.0411 N   0  0  0  0  0  0  0  0  0  0  0  0
   20.8067   -7.3890  -15.3605 C   0  0  1  0  0  0  0  0  0  0  0  0
   21.6476   -6.5449  -16.3050 C   0  0  0  0  0  0  0  0  0  0  0  0
   21.9110   -5.1972  -15.8234 C   0  0  0  0  0  0  0  0  0  0  0  0
   21.5224   -4.6794  -14.6128 C   0  0  0  0  0  0  0  0  0  0  0  0
   21.9438   -3.4048  -14.5166 N   0  0  0  0  0  0  0  0  0  0  0  0
   22.5906   -3.1419  -15.6686 C   0  0  0  0  0  0  0  0  0  0  0  0
   22.5729   -4.2249  -16.4626 N   0  0  0  0  0  0  0  0  0  0  0  0
   19.5517   -6.7213  -14.9843 C   0  0  0  0  0  0  0  0  0  0  0  0
   18.5777   -6.7454  -15.7675 O   0  0  0  0  0  0  0  0  0  0  0  0
   19.4469   -6.0744  -13.7803 O   0  0  0  0  0  0  0  0  0  0  0  0
  2  1  1  0
  3  4  1  0
  3  2  1  0
  4  5  1  0
  5  6  1  6
  7  8  2  0
  7  5  1  0
  9  7  1  0
 10  9  1  0
 10 11  1  1
 12 16  1  0
 12 11  1  0
 13 12  2  0
 14 13  1  0
 14 15  1  0
 15 16  2  0
 17 10  1  0
 18 17  2  0
 19 17  1  0
 20 21  1  6
 20 19  1  0
 21 22  1  0
 22 26  1  0
 22 23  2  0
 23 24  1  0
 25 24  1  0
 26 25  2  0
 27 20  1  0
 28 27  2  0
 29 27  1  0
M  END
$$$$
