FME.pdb
     RDKit          3D

 29 29  0  0  1  0  0  0  0  0999 V2000
    5.8502  -18.3881   25.5492 N   0  0  0  0  0  0  0  0  0  0  0  0
    6.2296  -16.9986   25.4309 C   0  0  1  0  0  0  0  0  0  0  0  0
    6.9607  -16.4990   26.6473 C   0  0  0  0  0  0  0  0  0  0  0  0
    7.1572  -15.0478   26.6082 C   0  0  0  0  0  0  0  0  0  0  0  0
    6.0624  -14.2265   26.5488 C   0  0  0  0  0  0  0  0  0  0  0  0
    6.2236  -12.8505   26.5126 C   0  0  0  0  0  0  0  0  0  0  0  0
    7.4974  -12.2854   26.5359 C   0  0  0  0  0  0  0  0  0  0  0  0
    8.5869  -13.1231   26.5955 C   0  0  0  0  0  0  0  0  0  0  0  0
    8.4386  -14.4932   26.6320 C   0  0  0  0  0  0  0  0  0  0  0  0
    7.1345  -16.7823   24.2666 C   0  0  0  0  0  0  0  0  0  0  0  0
    7.9744  -17.6758   23.9912 O   0  0  0  0  0  0  0  0  0  0  0  0
    7.6921  -11.5032   20.1909 C   0  0  0  0  0  0  0  0  0  0  0  0
    7.8282  -12.9720   19.1710 S   0  0  0  0  0  0  0  0  0  0  0  0
    8.3487  -14.4315   20.1156 C   0  0  0  0  0  0  0  0  0  0  0  0
    7.5202  -14.4486   21.3702 C   0  0  0  0  0  0  0  0  0  0  0  0
    7.9349  -15.5828   22.2568 C   0  0  2  0  0  0  0  0  0  0  0  0
    7.0934  -15.6268   23.4616 N   0  0  0  0  0  0  0  0  0  0  0  0
    9.3303  -15.5506   22.7197 C   0  0  0  0  0  0  0  0  0  0  0  0
    9.7792  -14.6932   23.5578 O   0  0  0  0  0  0  0  0  0  0  0  0
   10.2738  -16.5054   22.2384 N   0  0  0  0  0  0  0  0  0  0  0  0
   11.6721  -16.3906   22.6569 C   0  0  1  0  0  0  0  0  0  0  0  0
   12.2659  -17.7585   22.8550 C   0  0  0  0  0  0  0  0  0  0  0  0
   11.3658  -18.6149   23.6786 C   0  0  0  0  0  0  0  0  0  0  0  0
   11.9180  -20.0099   23.7869 C   0  0  0  0  0  0  0  0  0  0  0  0
   13.0211  -20.2527   23.2485 O   0  0  0  0  0  0  0  0  0  0  0  0
   12.4037  -15.5236   21.7134 C   0  0  0  0  0  0  0  0  0  0  0  0
   12.0386  -15.2373   20.5699 O   0  0  0  0  0  0  0  0  0  0  0  0
   11.2442  -21.0098   24.4564 O   0  0  0  0  0  0  0  0  0  0  0  0
   13.6263  -14.9721   22.1517 O   0  0  0  0  0  0  0  0  0  0  0  0
  2  1  1  1
  2  3  1  0
  3  4  1  0
  4  9  2  0
  5  4  1  0
  5  6  2  0
  6  7  1  0
  7  8  2  0
  9  8  1  0
 10 11  2  0
 10  2  1  0
 13 12  1  0
 14 15  1  0
 14 13  1  0
 16 15  1  1
 16 17  1  0
 17 10  1  0
 18 16  1  0
 18 20  1  0
 19 18  2  0
 21 20  1  0
 21 26  1  0
 21 22  1  6
 23 22  1  0
 24 23  1  0
 25 24  2  0
 26 27  2  0
 26 29  1  0
 28 24  1  0
M  END
$$$$
