FME.pdb
     RDKit          3D

 29 29  0  0  1  0  0  0  0  0999 V2000
    6.6748  -18.0426   26.3579 N   0  0  0  0  0  0  0  0  0  0  0  0
    7.5137  -16.9018   26.0691 C   0  0  1  0  0  0  0  0  0  0  0  0
    8.8577  -16.9949   26.7389 C   0  0  0  0  0  0  0  0  0  0  0  0
    9.2409  -15.7304   27.3716 C   0  0  0  0  0  0  0  0  0  0  0  0
    8.3750  -14.6699   27.3242 C   0  0  0  0  0  0  0  0  0  0  0  0
    8.7152  -13.4643   27.9170 C   0  0  0  0  0  0  0  0  0  0  0  0
    9.9388  -13.3147   28.5672 C   0  0  0  0  0  0  0  0  0  0  0  0
   10.7977  -14.3886   28.6063 C   0  0  0  0  0  0  0  0  0  0  0  0
   10.4699  -15.5925   28.0202 C   0  0  0  0  0  0  0  0  0  0  0  0
    7.7703  -16.7757   24.6064 C   0  0  0  0  0  0  0  0  0  0  0  0
    7.7171  -17.8145   23.9009 O   0  0  0  0  0  0  0  0  0  0  0  0
    7.8631  -12.0815   18.2698 C   0  0  0  0  0  0  0  0  0  0  0  0
    7.6333  -12.3615   20.0262 S   0  0  0  0  0  0  0  0  0  0  0  0
    8.0219  -14.0646   20.5178 C   0  0  0  0  0  0  0  0  0  0  0  0
    7.8239  -14.1374   22.0065 C   0  0  0  0  0  0  0  0  0  0  0  0
    8.1328  -15.5142   22.5097 C   0  0  2  0  0  0  0  0  0  0  0  0
    8.0688  -15.5505   23.9781 N   0  0  0  0  0  0  0  0  0  0  0  0
    9.4503  -16.0481   22.1332 C   0  0  0  0  0  0  0  0  0  0  0  0
    9.6894  -16.6190   21.0125 O   0  0  0  0  0  0  0  0  0  0  0  0
   10.5539  -15.9491   23.0308 N   0  0  0  0  0  0  0  0  0  0  0  0
   11.8405  -16.5256   22.6357 C   0  0  1  0  0  0  0  0  0  0  0  0
   12.7145  -15.4661   22.0222 C   0  0  0  0  0  0  0  0  0  0  0  0
   12.4416  -15.3305   20.5631 C   0  0  0  0  0  0  0  0  0  0  0  0
   13.5757  -14.6188   19.8777 C   0  0  0  0  0  0  0  0  0  0  0  0
   13.4978  -14.4345   18.6425 O   0  0  0  0  0  0  0  0  0  0  0  0
   12.4370  -17.2407   23.7802 C   0  0  0  0  0  0  0  0  0  0  0  0
   11.9494  -17.3198   24.9111 O   0  0  0  0  0  0  0  0  0  0  0  0
   14.6811  -14.1729   20.5715 O   0  0  0  0  0  0  0  0  0  0  0  0
   13.6709  -17.8916   23.5684 O   0  0  0  0  0  0  0  0  0  0  0  0
  2  1  1  6
  2  3  1  0
  3  4  1  0
  4  9  2  0
  5  4  1  0
  5  6  2  0
  6  7  1  0
  7  8  2  0
  9  8  1  0
 10 11  2  0
 10  2  1  0
 13 12  1  0
 14 15  1  0
 14 13  1  0
 16 15  1  1
 16 17  1  0
 17 10  1  0
 18 16  1  0
 18 20  1  0
 19 18  2  0
 21 20  1  0
 21 26  1  0
 21 22  1  1
 23 22  1  0
 24 23  1  0
 25 24  2  0
 26 27  2  0
 26 29  1  0
 28 24  1  0
M  END
$$$$
