FME.pdb
     RDKit          3D

 29 29  0  0  1  0  0  0  0  0999 V2000
    7.4116  -18.8223   27.5766 N   0  0  0  0  0  0  0  0  0  0  0  0
    7.8695  -17.5293   27.1213 C   0  0  1  0  0  0  0  0  0  0  0  0
    9.3527  -17.3515   27.2999 C   0  0  0  0  0  0  0  0  0  0  0  0
    9.6671  -16.1748   28.1140 C   0  0  0  0  0  0  0  0  0  0  0  0
    9.5468  -14.9275   27.5603 C   0  0  0  0  0  0  0  0  0  0  0  0
    9.8371  -13.7997   28.3116 C   0  0  0  0  0  0  0  0  0  0  0  0
   10.2541  -13.9186   29.6361 C   0  0  0  0  0  0  0  0  0  0  0  0
   10.3702  -15.1777   30.1780 C   0  0  0  0  0  0  0  0  0  0  0  0
   10.0841  -16.3066   29.4403 C   0  0  0  0  0  0  0  0  0  0  0  0
    7.5846  -17.3346   25.6715 C   0  0  0  0  0  0  0  0  0  0  0  0
    6.4411  -17.6333   25.2439 O   0  0  0  0  0  0  0  0  0  0  0  0
    5.6973  -12.3676   25.6981 C   0  0  0  0  0  0  0  0  0  0  0  0
    7.3927  -12.7459   26.1438 S   0  0  0  0  0  0  0  0  0  0  0  0
    8.2647  -13.6709   24.8487 C   0  0  0  0  0  0  0  0  0  0  0  0
    7.3249  -14.7489   24.3846 C   0  0  0  0  0  0  0  0  0  0  0  0
    8.0868  -15.8683   23.7436 C   0  0  2  0  0  0  0  0  0  0  0  0
    8.5337  -16.8329   24.7592 N   0  0  0  0  0  0  0  0  0  0  0  0
    9.2829  -15.4713   22.9858 C   0  0  0  0  0  0  0  0  0  0  0  0
    9.2430  -14.7701   21.9154 O   0  0  0  0  0  0  0  0  0  0  0  0
   10.5811  -15.8637   23.4264 N   0  0  0  0  0  0  0  0  0  0  0  0
   11.3564  -16.7930   22.6024 C   0  0  1  0  0  0  0  0  0  0  0  0
   12.8277  -16.5305   22.7733 C   0  0  0  0  0  0  0  0  0  0  0  0
   13.1034  -15.0670   22.8352 C   0  0  0  0  0  0  0  0  0  0  0  0
   14.4590  -14.7602   22.2599 C   0  0  0  0  0  0  0  0  0  0  0  0
   15.4249  -14.6513   23.0479 O   0  0  0  0  0  0  0  0  0  0  0  0
   10.9331  -18.1782   22.8833 C   0  0  0  0  0  0  0  0  0  0  0  0
   10.1780  -18.5279   23.7946 O   0  0  0  0  0  0  0  0  0  0  0  0
   14.6554  -14.5993   20.9044 O   0  0  0  0  0  0  0  0  0  0  0  0
   11.4318  -19.1940   22.0402 O   0  0  0  0  0  0  0  0  0  0  0  0
  2  1  1  6
  2  3  1  0
  3  4  1  0
  4  9  2  0
  5  4  1  0
  5  6  2  0
  6  7  1  0
  7  8  2  0
  9  8  1  0
 10 11  2  0
 10  2  1  0
 13 12  1  0
 14 15  1  0
 14 13  1  0
 16 15  1  1
 16 17  1  0
 17 10  1  0
 18 16  1  0
 18 20  1  0
 19 18  2  0
 21 20  1  0
 21 26  1  0
 21 22  1  1
 23 22  1  0
 24 23  1  0
 25 24  2  0
 26 27  2  0
 26 29  1  0
 28 24  1  0
M  END
$$$$
