FME.pdb
     RDKit          3D

 29 29  0  0  1  0  0  0  0  0999 V2000
    7.8274  -17.6757   27.1451 N   0  0  0  0  0  0  0  0  0  0  0  0
    7.2360  -16.9214   26.0636 C   0  0  1  0  0  0  0  0  0  0  0  0
    7.1595  -15.4497   26.3665 C   0  0  0  0  0  0  0  0  0  0  0  0
    8.3971  -14.9521   26.9722 C   0  0  0  0  0  0  0  0  0  0  0  0
    8.9035  -13.7466   26.5636 C   0  0  0  0  0  0  0  0  0  0  0  0
   10.0720  -13.2548   27.1234 C   0  0  0  0  0  0  0  0  0  0  0  0
   10.7457  -13.9775   28.1063 C   0  0  0  0  0  0  0  0  0  0  0  0
   10.2249  -15.1864   28.5060 C   0  0  0  0  0  0  0  0  0  0  0  0
    9.0634  -15.6854   27.9563 C   0  0  0  0  0  0  0  0  0  0  0  0
    8.0292  -17.0615   24.8096 C   0  0  0  0  0  0  0  0  0  0  0  0
    8.7653  -18.0720   24.6804 O   0  0  0  0  0  0  0  0  0  0  0  0
    8.3722  -11.5430   20.6244 C   0  0  0  0  0  0  0  0  0  0  0  0
    7.4335  -13.0346   20.9567 S   0  0  0  0  0  0  0  0  0  0  0  0
    8.4870  -14.5061   21.0918 C   0  0  0  0  0  0  0  0  0  0  0  0
    7.5751  -15.6593   21.4065 C   0  0  0  0  0  0  0  0  0  0  0  0
    8.2222  -16.5861   22.3897 C   0  0  2  0  0  0  0  0  0  0  0  0
    7.9934  -16.1175   23.7644 N   0  0  0  0  0  0  0  0  0  0  0  0
    9.6750  -16.7579   22.2405 C   0  0  0  0  0  0  0  0  0  0  0  0
   10.2244  -17.2807   21.2091 O   0  0  0  0  0  0  0  0  0  0  0  0
   10.5628  -16.3350   23.2732 N   0  0  0  0  0  0  0  0  0  0  0  0
   11.9982  -16.5757   23.1141 C   0  0  1  0  0  0  0  0  0  0  0  0
   12.6092  -15.5039   22.2533 C   0  0  0  0  0  0  0  0  0  0  0  0
   12.4466  -15.8259   20.8071 C   0  0  0  0  0  0  0  0  0  0  0  0
   13.2869  -14.9067   19.9637 C   0  0  0  0  0  0  0  0  0  0  0  0
   13.9874  -14.0473   20.5437 O   0  0  0  0  0  0  0  0  0  0  0  0
   12.6239  -16.7434   24.4397 C   0  0  0  0  0  0  0  0  0  0  0  0
   12.0343  -16.7016   25.5229 O   0  0  0  0  0  0  0  0  0  0  0  0
   13.3006  -14.9904   18.5871 O   0  0  0  0  0  0  0  0  0  0  0  0
   14.0160  -16.9714   24.4772 O   0  0  0  0  0  0  0  0  0  0  0  0
  2  1  1  1
  2  3  1  0
  3  4  1  0
  4  9  2  0
  5  4  1  0
  5  6  2  0
  6  7  1  0
  7  8  2  0
  9  8  1  0
 10 11  2  0
 10  2  1  0
 13 12  1  0
 14 15  1  0
 14 13  1  0
 16 15  1  6
 16 17  1  0
 17 10  1  0
 18 16  1  0
 18 20  1  0
 19 18  2  0
 21 20  1  0
 21 26  1  0
 21 22  1  1
 23 22  1  0
 24 23  1  0
 25 24  2  0
 26 27  2  0
 26 29  1  0
 28 24  1  0
M  END
$$$$
