FME.pdb
     RDKit          3D

 29 29  0  0  1  0  0  0  0  0999 V2000
    7.8063  -16.7324   21.3522 N   0  0  0  0  0  0  0  0  0  0  0  0
    9.2152  -16.4275   21.4559 C   0  0  1  0  0  0  0  0  0  0  0  0
    9.6480  -15.3769   20.4697 C   0  0  0  0  0  0  0  0  0  0  0  0
    8.5913  -14.3929   20.2217 C   0  0  0  0  0  0  0  0  0  0  0  0
    7.4838  -14.7673   19.5076 C   0  0  0  0  0  0  0  0  0  0  0  0
    6.4706  -13.8541   19.2620 C   0  0  0  0  0  0  0  0  0  0  0  0
    6.5643  -12.5470   19.7364 C   0  0  0  0  0  0  0  0  0  0  0  0
    7.6825  -12.1862   20.4518 C   0  0  0  0  0  0  0  0  0  0  0  0
    8.6964  -13.0860   20.7023 C   0  0  0  0  0  0  0  0  0  0  0  0
    9.5586  -15.9122   22.8115 C   0  0  0  0  0  0  0  0  0  0  0  0
   10.0327  -14.7519   22.9049 O   0  0  0  0  0  0  0  0  0  0  0  0
    6.8425  -11.3780   27.0787 C   0  0  0  0  0  0  0  0  0  0  0  0
    6.6939  -12.8830   26.1148 S   0  0  0  0  0  0  0  0  0  0  0  0
    8.2946  -13.6883   25.8274 C   0  0  0  0  0  0  0  0  0  0  0  0
    8.0103  -14.9430   25.0494 C   0  0  0  0  0  0  0  0  0  0  0  0
    9.1104  -15.9411   25.2440 C   0  0  2  0  0  0  0  0  0  0  0  0
    9.3777  -16.6616   23.9906 N   0  0  0  0  0  0  0  0  0  0  0  0
    8.8669  -16.9634   26.2727 C   0  0  0  0  0  0  0  0  0  0  0  0
    8.5722  -16.6893   27.4881 O   0  0  0  0  0  0  0  0  0  0  0  0
    8.9515  -18.3495   25.9488 N   0  0  0  0  0  0  0  0  0  0  0  0
   10.1040  -19.1175   26.4238 C   0  0  1  0  0  0  0  0  0  0  0  0
   11.3474  -18.6872   25.6946 C   0  0  0  0  0  0  0  0  0  0  0  0
   12.4870  -18.5176   26.6402 C   0  0  0  0  0  0  0  0  0  0  0  0
   13.7959  -18.7523   25.9372 C   0  0  0  0  0  0  0  0  0  0  0  0
   14.0584  -18.0589   24.9292 O   0  0  0  0  0  0  0  0  0  0  0  0
   10.1836  -19.0355   27.8949 C   0  0  0  0  0  0  0  0  0  0  0  0
   10.1935  -17.9942   28.5569 O   0  0  0  0  0  0  0  0  0  0  0  0
   14.6973  -19.7004   26.3739 O   0  0  0  0  0  0  0  0  0  0  0  0
   10.2546  -20.2495   28.6106 O   0  0  0  0  0  0  0  0  0  0  0  0
  2  1  1  1
  2  3  1  0
  3  4  1  0
  4  9  2  0
  5  4  1  0
  5  6  2  0
  6  7  1  0
  7  8  2  0
  9  8  1  0
 10 11  2  0
 10  2  1  0
 13 12  1  0
 14 15  1  0
 14 13  1  0
 16 15  1  6
 16 17  1  0
 17 10  1  0
 18 16  1  0
 18 20  1  0
 19 18  2  0
 21 20  1  0
 21 26  1  0
 21 22  1  6
 23 22  1  0
 24 23  1  0
 25 24  2  0
 26 27  2  0
 26 29  1  0
 28 24  1  0
M  END
$$$$
