FME.pdb
     RDKit          3D

 29 29  0  0  1  0  0  0  0  0999 V2000
    7.8819  -17.9795   20.9812 N   0  0  0  0  0  0  0  0  0  0  0  0
    8.2066  -16.5740   20.8918 C   0  0  1  0  0  0  0  0  0  0  0  0
    7.1105  -15.7731   20.2431 C   0  0  0  0  0  0  0  0  0  0  0  0
    7.4717  -14.3594   20.1127 C   0  0  0  0  0  0  0  0  0  0  0  0
    6.9912  -13.4597   21.0273 C   0  0  0  0  0  0  0  0  0  0  0  0
    7.3208  -12.1175   20.9251 C   0  0  0  0  0  0  0  0  0  0  0  0
    8.1426  -11.6661   19.8940 C   0  0  0  0  0  0  0  0  0  0  0  0
    8.6172  -12.5814   18.9834 C   0  0  0  0  0  0  0  0  0  0  0  0
    8.2961  -13.9189   19.0751 C   0  0  0  0  0  0  0  0  0  0  0  0
    8.4292  -15.9835   22.2419 C   0  0  0  0  0  0  0  0  0  0  0  0
    9.3315  -15.1182   22.3719 O   0  0  0  0  0  0  0  0  0  0  0  0
    8.4577  -12.2504   28.0126 C   0  0  0  0  0  0  0  0  0  0  0  0
    8.1964  -13.0766   26.4424 S   0  0  0  0  0  0  0  0  0  0  0  0
    7.0326  -14.4634   26.5691 C   0  0  0  0  0  0  0  0  0  0  0  0
    6.7913  -14.9505   25.1673 C   0  0  0  0  0  0  0  0  0  0  0  0
    7.9865  -15.6970   24.6587 C   0  0  2  0  0  0  0  0  0  0  0  0
    7.6782  -16.3478   23.3769 N   0  0  0  0  0  0  0  0  0  0  0  0
    8.5068  -16.7461   25.5483 C   0  0  0  0  0  0  0  0  0  0  0  0
    7.7619  -17.5806   26.1710 O   0  0  0  0  0  0  0  0  0  0  0  0
    9.9101  -16.8826   25.7616 N   0  0  0  0  0  0  0  0  0  0  0  0
   10.4142  -18.1055   26.3892 C   0  0  1  0  0  0  0  0  0  0  0  0
   11.5237  -18.6920   25.5597 C   0  0  0  0  0  0  0  0  0  0  0  0
   12.5215  -17.6478   25.1911 C   0  0  0  0  0  0  0  0  0  0  0  0
   13.6098  -18.2361   24.3354 C   0  0  0  0  0  0  0  0  0  0  0  0
   13.3229  -18.5790   23.1667 O   0  0  0  0  0  0  0  0  0  0  0  0
   10.7641  -17.8341   27.7966 C   0  0  0  0  0  0  0  0  0  0  0  0
   10.6608  -16.7437   28.3651 O   0  0  0  0  0  0  0  0  0  0  0  0
   14.8958  -18.4023   24.8051 O   0  0  0  0  0  0  0  0  0  0  0  0
   11.2598  -18.9107   28.5624 O   0  0  0  0  0  0  0  0  0  0  0  0
  2  1  1  1
  2  3  1  0
  3  4  1  0
  4  9  2  0
  5  4  1  0
  5  6  2  0
  6  7  1  0
  7  8  2  0
  9  8  1  0
 10 11  2  0
 10  2  1  0
 13 12  1  0
 14 15  1  0
 14 13  1  0
 16 15  1  1
 16 17  1  0
 17 10  1  0
 18 16  1  0
 18 20  1  0
 19 18  2  0
 21 20  1  0
 21 26  1  0
 21 22  1  6
 23 22  1  0
 24 23  1  0
 25 24  2  0
 26 27  2  0
 26 29  1  0
 28 24  1  0
M  END
$$$$
