FME.pdb
     RDKit          3D

 29 29  0  0  1  0  0  0  0  0999 V2000
    5.7076  -17.9345   25.0129 N   0  0  0  0  0  0  0  0  0  0  0  0
    6.3724  -16.6517   25.0446 C   0  0  1  0  0  0  0  0  0  0  0  0
    6.9636  -16.3461   26.3939 C   0  0  0  0  0  0  0  0  0  0  0  0
    7.1860  -14.9101   26.5798 C   0  0  0  0  0  0  0  0  0  0  0  0
    6.1414  -14.0428   26.3967 C   0  0  0  0  0  0  0  0  0  0  0  0
    6.3275  -12.6803   26.5686 C   0  0  0  0  0  0  0  0  0  0  0  0
    7.5756  -12.1755   26.9287 C   0  0  0  0  0  0  0  0  0  0  0  0
    8.6147  -13.0588   27.1088 C   0  0  0  0  0  0  0  0  0  0  0  0
    8.4413  -14.4160   26.9407 C   0  0  0  0  0  0  0  0  0  0  0  0
    7.4922  -16.5985   24.0626 C   0  0  0  0  0  0  0  0  0  0  0  0
    8.2445  -17.6004   23.9626 O   0  0  0  0  0  0  0  0  0  0  0  0
    6.0277  -12.5996   18.7663 C   0  0  0  0  0  0  0  0  0  0  0  0
    7.5931  -12.8860   19.5933 S   0  0  0  0  0  0  0  0  0  0  0  0
    7.5211  -14.2725   20.7620 C   0  0  0  0  0  0  0  0  0  0  0  0
    8.8830  -14.3749   21.3908 C   0  0  0  0  0  0  0  0  0  0  0  0
    8.9264  -15.5121   22.3650 C   0  0  2  0  0  0  0  0  0  0  0  0
    7.7474  -15.4815   23.2428 N   0  0  0  0  0  0  0  0  0  0  0  0
   10.1043  -15.5512   23.2447 C   0  0  0  0  0  0  0  0  0  0  0  0
   10.0431  -15.4211   24.5168 O   0  0  0  0  0  0  0  0  0  0  0  0
   11.4079  -15.7421   22.6992 N   0  0  0  0  0  0  0  0  0  0  0  0
   12.4598  -16.2911   23.5569 C   0  0  1  0  0  0  0  0  0  0  0  0
   12.0542  -17.6465   24.0682 C   0  0  0  0  0  0  0  0  0  0  0  0
   13.1155  -18.2257   24.9401 C   0  0  0  0  0  0  0  0  0  0  0  0
   12.5449  -18.6218   26.2742 C   0  0  0  0  0  0  0  0  0  0  0  0
   11.4462  -19.2204   26.2932 O   0  0  0  0  0  0  0  0  0  0  0  0
   13.7516  -16.2538   22.8449 C   0  0  0  0  0  0  0  0  0  0  0  0
   14.8584  -16.1119   23.3717 O   0  0  0  0  0  0  0  0  0  0  0  0
   13.1972  -18.3433   27.4570 O   0  0  0  0  0  0  0  0  0  0  0  0
   13.7241  -16.3920   21.4408 O   0  0  0  0  0  0  0  0  0  0  0  0
  2  1  1  1
  2  3  1  0
  3  4  1  0
  4  9  2  0
  5  4  1  0
  5  6  2  0
  6  7  1  0
  7  8  2  0
  9  8  1  0
 10 11  2  0
 10  2  1  0
 13 12  1  0
 14 15  1  0
 14 13  1  0
 16 15  1  1
 16 17  1  0
 17 10  1  0
 18 16  1  0
 18 20  1  0
 19 18  2  0
 21 20  1  0
 21 26  1  0
 21 22  1  6
 23 22  1  0
 24 23  1  0
 25 24  2  0
 26 27  2  0
 26 29  1  0
 28 24  1  0
M  END
$$$$
