FME.pdb
     RDKit          3D

 29 29  0  0  1  0  0  0  0  0999 V2000
    7.0919  -17.4525   26.3805 N   0  0  0  0  0  0  0  0  0  0  0  0
    6.6185  -16.9127   25.1263 C   0  0  1  0  0  0  0  0  0  0  0  0
    5.9186  -15.5921   25.2990 C   0  0  0  0  0  0  0  0  0  0  0  0
    6.7329  -14.6377   26.0554 C   0  0  0  0  0  0  0  0  0  0  0  0
    6.1460  -13.5026   26.5494 C   0  0  0  0  0  0  0  0  0  0  0  0
    6.8960  -12.5862   27.2693 C   0  0  0  0  0  0  0  0  0  0  0  0
    8.2528  -12.8059   27.4997 C   0  0  0  0  0  0  0  0  0  0  0  0
    8.8278  -13.9501   26.9972 C   0  0  0  0  0  0  0  0  0  0  0  0
    8.0917  -14.8687   26.2798 C   0  0  0  0  0  0  0  0  0  0  0  0
    7.7444  -16.6817   24.1776 C   0  0  0  0  0  0  0  0  0  0  0  0
    8.7339  -17.4550   24.2284 O   0  0  0  0  0  0  0  0  0  0  0  0
    8.2378  -11.8530   19.5719 C   0  0  0  0  0  0  0  0  0  0  0  0
    6.8311  -12.8809   19.9971 S   0  0  0  0  0  0  0  0  0  0  0  0
    7.1665  -13.9740   21.4064 C   0  0  0  0  0  0  0  0  0  0  0  0
    8.4772  -14.6530   21.1205 C   0  0  0  0  0  0  0  0  0  0  0  0
    8.8037  -15.6383   22.2007 C   0  0  2  0  0  0  0  0  0  0  0  0
    7.7527  -15.6403   23.2288 N   0  0  0  0  0  0  0  0  0  0  0  0
   10.0769  -15.4146   22.9018 C   0  0  0  0  0  0  0  0  0  0  0  0
   10.1618  -14.8878   24.0655 O   0  0  0  0  0  0  0  0  0  0  0  0
   11.3119  -15.7877   22.2944 N   0  0  0  0  0  0  0  0  0  0  0  0
   12.4111  -16.2417   23.1483 C   0  0  1  0  0  0  0  0  0  0  0  0
   11.9409  -17.3509   24.0492 C   0  0  0  0  0  0  0  0  0  0  0  0
   13.0371  -17.8040   24.9519 C   0  0  0  0  0  0  0  0  0  0  0  0
   12.5537  -18.9012   25.8601 C   0  0  0  0  0  0  0  0  0  0  0  0
   11.3336  -19.1793   25.8541 O   0  0  0  0  0  0  0  0  0  0  0  0
   13.5846  -16.5691   22.3159 C   0  0  0  0  0  0  0  0  0  0  0  0
   13.5572  -17.1805   21.2444 O   0  0  0  0  0  0  0  0  0  0  0  0
   13.4134  -19.5952   26.6855 O   0  0  0  0  0  0  0  0  0  0  0  0
   14.8489  -16.1490   22.7809 O   0  0  0  0  0  0  0  0  0  0  0  0
  2  1  1  1
  2  3  1  0
  3  4  1  0
  4  9  2  0
  5  4  1  0
  5  6  2  0
  6  7  1  0
  7  8  2  0
  9  8  1  0
 10 11  2  0
 10  2  1  0
 13 12  1  0
 14 15  1  0
 14 13  1  0
 16 15  1  6
 16 17  1  0
 17 10  1  0
 18 16  1  0
 18 20  1  0
 19 18  2  0
 21 20  1  0
 21 26  1  0
 21 22  1  6
 23 22  1  0
 24 23  1  0
 25 24  2  0
 26 27  2  0
 26 29  1  0
 28 24  1  0
M  END
$$$$
