FME.pdb
     RDKit          3D

 29 29  0  0  1  0  0  0  0  0999 V2000
    6.1644  -17.2910   25.6668 N   0  0  0  0  0  0  0  0  0  0  0  0
    6.8521  -16.1230   25.1651 C   0  0  1  0  0  0  0  0  0  0  0  0
    7.7282  -15.4827   26.2071 C   0  0  0  0  0  0  0  0  0  0  0  0
    7.3866  -14.0735   26.4164 C   0  0  0  0  0  0  0  0  0  0  0  0
    6.1486  -13.6230   26.0405 C   0  0  0  0  0  0  0  0  0  0  0  0
    5.8025  -12.2945   26.2302 C   0  0  0  0  0  0  0  0  0  0  0  0
    6.7059  -11.4018   26.8038 C   0  0  0  0  0  0  0  0  0  0  0  0
    7.9451  -11.8690   27.1759 C   0  0  0  0  0  0  0  0  0  0  0  0
    8.3004  -13.1883   26.9922 C   0  0  0  0  0  0  0  0  0  0  0  0
    7.7342  -16.4675   24.0144 C   0  0  0  0  0  0  0  0  0  0  0  0
    7.8358  -17.6756   23.6828 O   0  0  0  0  0  0  0  0  0  0  0  0
    6.6218  -13.5088   19.0021 C   0  0  0  0  0  0  0  0  0  0  0  0
    7.8721  -12.6022   19.9136 S   0  0  0  0  0  0  0  0  0  0  0  0
    8.5713  -13.5645   21.2842 C   0  0  0  0  0  0  0  0  0  0  0  0
    8.4568  -15.0121   20.8944 C   0  0  0  0  0  0  0  0  0  0  0  0
    9.0092  -15.8911   21.9745 C   0  0  2  0  0  0  0  0  0  0  0  0
    8.4580  -15.5060   23.2820 N   0  0  0  0  0  0  0  0  0  0  0  0
   10.4729  -15.8812   22.1160 C   0  0  0  0  0  0  0  0  0  0  0  0
   11.2660  -16.4925   21.3182 O   0  0  0  0  0  0  0  0  0  0  0  0
   11.0911  -15.1661   23.1837 N   0  0  0  0  0  0  0  0  0  0  0  0
   12.0431  -15.8679   24.0467 C   0  0  1  0  0  0  0  0  0  0  0  0
   11.3241  -16.8884   24.8861 C   0  0  0  0  0  0  0  0  0  0  0  0
   12.2217  -18.0307   25.2197 C   0  0  0  0  0  0  0  0  0  0  0  0
   11.7604  -18.7148   26.4774 C   0  0  0  0  0  0  0  0  0  0  0  0
   12.3020  -18.3927   27.5585 O   0  0  0  0  0  0  0  0  0  0  0  0
   13.1531  -16.3996   23.2330 C   0  0  0  0  0  0  0  0  0  0  0  0
   14.3438  -16.4032   23.5570 O   0  0  0  0  0  0  0  0  0  0  0  0
   10.7693  -19.6737   26.4633 O   0  0  0  0  0  0  0  0  0  0  0  0
   12.8304  -16.9526   21.9755 O   0  0  0  0  0  0  0  0  0  0  0  0
  2  1  1  1
  2  3  1  0
  3  4  1  0
  4  9  2  0
  5  4  1  0
  5  6  2  0
  6  7  1  0
  7  8  2  0
  9  8  1  0
 10 11  2  0
 10  2  1  0
 13 12  1  0
 14 15  1  0
 14 13  1  0
 16 15  1  6
 16 17  1  0
 17 10  1  0
 18 16  1  0
 18 20  1  0
 19 18  2  0
 21 20  1  0
 21 26  1  0
 21 22  1  6
 23 22  1  0
 24 23  1  0
 25 24  2  0
 26 27  2  0
 26 29  1  0
 28 24  1  0
M  END
$$$$
