FME.pdb
     RDKit          3D

 29 29  0  0  1  0  0  0  0  0999 V2000
    6.1027  -18.0727   25.6031 N   0  0  0  0  0  0  0  0  0  0  0  0
    6.6119  -16.7402   25.3713 C   0  0  1  0  0  0  0  0  0  0  0  0
    7.5904  -16.3088   26.4295 C   0  0  0  0  0  0  0  0  0  0  0  0
    7.6884  -14.8498   26.5201 C   0  0  0  0  0  0  0  0  0  0  0  0
    8.9201  -14.2712   26.6771 C   0  0  0  0  0  0  0  0  0  0  0  0
    9.0376  -12.8930   26.7634 C   0  0  0  0  0  0  0  0  0  0  0  0
    7.9081  -12.0797   26.6920 C   0  0  0  0  0  0  0  0  0  0  0  0
    6.6782  -12.6755   26.5343 C   0  0  0  0  0  0  0  0  0  0  0  0
    6.5493  -14.0452   26.4472 C   0  0  0  0  0  0  0  0  0  0  0  0
    7.3250  -16.6534   24.0655 C   0  0  0  0  0  0  0  0  0  0  0  0
    7.8422  -17.6996   23.5988 O   0  0  0  0  0  0  0  0  0  0  0  0
    6.5282  -11.7349   19.8848 C   0  0  0  0  0  0  0  0  0  0  0  0
    7.8212  -12.6777   19.0751 S   0  0  0  0  0  0  0  0  0  0  0  0
    8.0236  -14.3360   19.7841 C   0  0  0  0  0  0  0  0  0  0  0  0
    7.7338  -14.2125   21.2542 C   0  0  0  0  0  0  0  0  0  0  0  0
    7.9000  -15.5369   21.9343 C   0  0  2  0  0  0  0  0  0  0  0  0
    7.4469  -15.4575   23.3307 N   0  0  0  0  0  0  0  0  0  0  0  0
    9.2712  -16.0674   21.9669 C   0  0  0  0  0  0  0  0  0  0  0  0
    9.8214  -16.6698   20.9803 O   0  0  0  0  0  0  0  0  0  0  0  0
   10.0725  -15.9283   23.1382 N   0  0  0  0  0  0  0  0  0  0  0  0
   11.5177  -16.1388   23.0353 C   0  0  1  0  0  0  0  0  0  0  0  0
   12.1304  -15.0905   22.1473 C   0  0  0  0  0  0  0  0  0  0  0  0
   12.5267  -15.6718   20.8332 C   0  0  0  0  0  0  0  0  0  0  0  0
   13.4524  -14.7393   20.1010 C   0  0  0  0  0  0  0  0  0  0  0  0
   14.2444  -14.0429   20.7744 O   0  0  0  0  0  0  0  0  0  0  0  0
   12.1038  -16.2323   24.3861 C   0  0  0  0  0  0  0  0  0  0  0  0
   11.5005  -16.0420   25.4457 O   0  0  0  0  0  0  0  0  0  0  0  0
   13.4460  -14.6382   18.7256 O   0  0  0  0  0  0  0  0  0  0  0  0
   13.4712  -16.5678   24.4796 O   0  0  0  0  0  0  0  0  0  0  0  0
  2  1  1  1
  2  3  1  0
  3  4  1  0
  4  9  2  0
  5  4  1  0
  5  6  2  0
  6  7  1  0
  7  8  2  0
  9  8  1  0
 10 11  2  0
 10  2  1  0
 13 12  1  0
 14 15  1  0
 14 13  1  0
 16 15  1  1
 16 17  1  0
 17 10  1  0
 18 16  1  0
 18 20  1  0
 19 18  2  0
 21 20  1  0
 21 26  1  0
 21 22  1  1
 23 22  1  0
 24 23  1  0
 25 24  2  0
 26 27  2  0
 26 29  1  0
 28 24  1  0
M  END
$$$$
