DFE.pdb
     RDKit          3D

 29 29  0  0  1  0  0  0  0  0999 V2000
   28.7841  -22.9987  -17.6961 N   0  0  0  0  0  0  0  0  0  0  0  0
   28.3044  -21.7335  -17.2219 C   0  0  1  0  0  0  0  0  0  0  0  0
   27.5450  -21.0024  -18.2721 C   0  0  0  0  0  0  0  0  0  0  0  0
   28.3690  -20.5522  -19.3983 C   0  0  0  0  0  0  0  0  0  0  0  0
   28.1598  -20.9005  -20.5657 O   0  0  0  0  0  0  0  0  0  0  0  0
   27.5161  -21.9369  -15.9790 C   0  0  0  0  0  0  0  0  0  0  0  0
   26.7794  -22.9560  -15.8570 O   0  0  0  0  0  0  0  0  0  0  0  0
   29.4488  -19.6812  -19.1300 O   0  0  0  0  0  0  0  0  0  0  0  0
   27.6019  -20.9772  -14.9434 N   0  0  0  0  0  0  0  0  0  0  0  0
   26.8434  -21.0330  -13.7415 C   0  0  1  0  0  0  0  0  0  0  0  0
   27.4197  -20.2357  -12.5805 C   0  0  0  0  0  0  0  0  0  0  0  0
   26.5805  -20.3603  -11.3710 C   0  0  0  0  0  0  0  0  0  0  0  0
   25.6538  -19.3705  -11.1299 C   0  0  0  0  0  0  0  0  0  0  0  0
   24.8604  -19.4383  -10.0080 C   0  0  0  0  0  0  0  0  0  0  0  0
   24.9860  -20.4906   -9.1225 C   0  0  0  0  0  0  0  0  0  0  0  0
   25.9084  -21.4648   -9.3731 C   0  0  0  0  0  0  0  0  0  0  0  0
   26.7200  -21.4039  -10.5118 C   0  0  0  0  0  0  0  0  0  0  0  0
   25.3950  -20.7811  -13.8995 C   0  0  0  0  0  0  0  0  0  0  0  0
   25.0387  -19.6730  -14.3979 O   0  0  0  0  0  0  0  0  0  0  0  0
   24.3964  -21.6994  -13.5288 N   0  0  0  0  0  0  0  0  0  0  0  0
   22.9955  -21.3788  -13.8159 C   0  0  1  0  0  0  0  0  0  0  0  0
   22.2325  -22.6488  -14.0844 C   0  0  0  0  0  0  0  0  0  0  0  0
   20.7680  -22.3571  -14.2399 C   0  0  0  0  0  0  0  0  0  0  0  0
   20.1637  -23.2099  -15.3136 C   0  0  0  0  0  0  0  0  0  0  0  0
   18.9640  -23.0766  -15.5733 O   0  0  0  0  0  0  0  0  0  0  0  0
   22.4339  -20.6949  -12.6387 C   0  0  0  0  0  0  0  0  0  0  0  0
   22.8250  -21.0119  -11.4629 O   0  0  0  0  0  0  0  0  0  0  0  0
   20.9611  -24.1041  -15.9668 O   0  0  0  0  0  0  0  0  0  0  0  0
   21.4934  -19.7076  -12.7189 O   0  0  0  0  0  0  0  0  0  0  0  0
  2  1  1  6
  2  3  1  0
  4  3  1  0
  4  8  1  0
  5  4  2  0
  6  2  1  0
  6  7  2  0
  9  6  1  0
 10  9  1  0
 11 12  1  0
 10 11  1  1
 12 17  2  0
 13 12  1  0
 13 14  2  0
 14 15  1  0
 15 16  2  0
 17 16  1  0
 18 10  1  0
 19 18  2  0
 20 18  1  0
 21 20  1  0
 21 22  1  1
 22 23  1  0
 23 24  1  0
 24 28  1  0
 25 24  2  0
 26 21  1  0
 27 26  2  0
 29 26  1  0
M  END
$$$$
