DFE.pdb
     RDKit          3D

 29 29  0  0  1  0  0  0  0  0999 V2000
   29.0249  -19.7525  -14.0357 N   0  0  0  0  0  0  0  0  0  0  0  0
   27.7713  -19.8950  -14.7167 C   0  0  1  0  0  0  0  0  0  0  0  0
   27.9595  -20.1964  -16.1617 C   0  0  0  0  0  0  0  0  0  0  0  0
   28.7647  -19.2018  -16.8776 C   0  0  0  0  0  0  0  0  0  0  0  0
   29.7448  -19.5018  -17.5685 O   0  0  0  0  0  0  0  0  0  0  0  0
   26.9423  -20.9127  -14.0205 C   0  0  0  0  0  0  0  0  0  0  0  0
   26.4014  -21.8457  -14.6787 O   0  0  0  0  0  0  0  0  0  0  0  0
   28.3983  -17.8415  -16.7684 O   0  0  0  0  0  0  0  0  0  0  0  0
   26.7686  -20.8195  -12.6199 N   0  0  0  0  0  0  0  0  0  0  0  0
   25.6666  -21.3784  -11.9155 C   0  0  1  0  0  0  0  0  0  0  0  0
   26.0262  -22.0867  -10.6174 C   0  0  0  0  0  0  0  0  0  0  0  0
   26.8717  -21.2361   -9.7547 C   0  0  0  0  0  0  0  0  0  0  0  0
   26.2408  -20.3172   -8.9460 C   0  0  0  0  0  0  0  0  0  0  0  0
   26.9894  -19.4944   -8.1364 C   0  0  0  0  0  0  0  0  0  0  0  0
   28.3676  -19.5829   -8.1286 C   0  0  0  0  0  0  0  0  0  0  0  0
   28.9802  -20.4977   -8.9350 C   0  0  0  0  0  0  0  0  0  0  0  0
   28.2268  -21.3387   -9.7621 C   0  0  0  0  0  0  0  0  0  0  0  0
   24.5130  -20.4721  -11.7309 C   0  0  0  0  0  0  0  0  0  0  0  0
   24.7364  -19.2258  -11.7200 O   0  0  0  0  0  0  0  0  0  0  0  0
   23.1883  -20.9154  -11.5678 N   0  0  0  0  0  0  0  0  0  0  0  0
   22.1399  -20.3475  -12.4198 C   0  0  1  0  0  0  0  0  0  0  0  0
   22.4295  -20.6739  -13.8609 C   0  0  0  0  0  0  0  0  0  0  0  0
   22.5270  -19.4155  -14.6738 C   0  0  0  0  0  0  0  0  0  0  0  0
   21.6054  -19.4682  -15.8541 C   0  0  0  0  0  0  0  0  0  0  0  0
   20.7370  -18.5981  -15.9691 O   0  0  0  0  0  0  0  0  0  0  0  0
   20.8541  -20.9430  -12.0187 C   0  0  0  0  0  0  0  0  0  0  0  0
   19.8203  -20.2040  -11.8728 O   0  0  0  0  0  0  0  0  0  0  0  0
   21.7586  -20.4766  -16.7606 O   0  0  0  0  0  0  0  0  0  0  0  0
   20.6821  -22.2781  -11.7874 O   0  0  0  0  0  0  0  0  0  0  0  0
  2  1  1  1
  2  3  1  0
  4  3  1  0
  4  8  1  0
  5  4  2  0
  6  2  1  0
  6  7  2  0
  9  6  1  0
 10  9  1  0
 11 12  1  0
 10 11  1  1
 12 17  2  0
 13 12  1  0
 13 14  2  0
 14 15  1  0
 15 16  2  0
 17 16  1  0
 18 10  1  0
 19 18  2  0
 20 18  1  0
 21 20  1  0
 21 22  1  6
 22 23  1  0
 23 24  1  0
 24 28  1  0
 25 24  2  0
 26 21  1  0
 27 26  2  0
 29 26  1  0
M  END
$$$$
