DFE.pdb
     RDKit          3D

 29 29  0  0  1  0  0  0  0  0999 V2000
   19.8311  -12.3601  -19.3031 N   0  0  0  0  0  0  0  0  0  0  0  0
   20.7198  -11.2534  -19.5064 C   0  0  1  0  0  0  0  0  0  0  0  0
   20.6220  -10.7141  -20.8898 C   0  0  0  0  0  0  0  0  0  0  0  0
   21.0432  -11.6593  -21.9286 C   0  0  0  0  0  0  0  0  0  0  0  0
   20.2655  -12.1245  -22.7693 O   0  0  0  0  0  0  0  0  0  0  0  0
   20.4702  -10.2205  -18.4679 C   0  0  0  0  0  0  0  0  0  0  0  0
   19.3162   -9.7238  -18.3343 O   0  0  0  0  0  0  0  0  0  0  0  0
   22.4002  -12.0518  -21.9645 O   0  0  0  0  0  0  0  0  0  0  0  0
   21.5381   -9.8044  -17.6388 N   0  0  0  0  0  0  0  0  0  0  0  0
   21.4165   -8.8228  -16.6168 C   0  0  1  0  0  0  0  0  0  0  0  0
   22.5157   -8.8511  -15.5647 C   0  0  0  0  0  0  0  0  0  0  0  0
   22.2416   -7.8955  -14.4718 C   0  0  0  0  0  0  0  0  0  0  0  0
   22.6728   -6.5976  -14.6332 C   0  0  0  0  0  0  0  0  0  0  0  0
   22.4516   -5.6770  -13.6350 C   0  0  0  0  0  0  0  0  0  0  0  0
   21.8010   -6.0442  -12.4735 C   0  0  0  0  0  0  0  0  0  0  0  0
   21.3791   -7.3337  -12.3263 C   0  0  0  0  0  0  0  0  0  0  0  0
   21.5999   -8.2771  -13.3363 C   0  0  0  0  0  0  0  0  0  0  0  0
   21.1650   -7.4460  -17.0935 C   0  0  0  0  0  0  0  0  0  0  0  0
   21.9767   -6.9530  -17.9311 O   0  0  0  0  0  0  0  0  0  0  0  0
   20.0797   -6.6578  -16.6706 N   0  0  0  0  0  0  0  0  0  0  0  0
   19.9335   -5.3032  -17.2104 C   0  0  1  0  0  0  0  0  0  0  0  0
   18.6912   -5.2297  -18.0580 C   0  0  0  0  0  0  0  0  0  0  0  0
   18.5040   -3.8397  -18.5936 C   0  0  0  0  0  0  0  0  0  0  0  0
   17.3406   -3.7816  -19.5362 C   0  0  0  0  0  0  0  0  0  0  0  0
   16.6085   -4.7707  -19.6377 O   0  0  0  0  0  0  0  0  0  0  0  0
   19.8236   -4.3700  -16.0764 C   0  0  0  0  0  0  0  0  0  0  0  0
   19.2678   -4.7440  -14.9867 O   0  0  0  0  0  0  0  0  0  0  0  0
   17.1315   -2.6372  -20.2493 O   0  0  0  0  0  0  0  0  0  0  0  0
   20.2944   -3.0882  -16.1076 O   0  0  0  0  0  0  0  0  0  0  0  0
  2  1  1  6
  2  3  1  0
  4  3  1  0
  4  8  1  0
  5  4  2  0
  6  2  1  0
  6  7  2  0
  9  6  1  0
 10  9  1  0
 11 12  1  0
 10 11  1  6
 12 17  2  0
 13 12  1  0
 13 14  2  0
 14 15  1  0
 15 16  2  0
 17 16  1  0
 18 10  1  0
 19 18  2  0
 20 18  1  0
 21 20  1  0
 21 22  1  6
 22 23  1  0
 23 24  1  0
 24 28  1  0
 25 24  2  0
 26 21  1  0
 27 26  2  0
 29 26  1  0
M  END
$$$$
