DFE.pdb
     RDKit          3D

 29 29  0  0  1  0  0  0  0  0999 V2000
   19.0972  -13.3739  -17.9255 N   0  0  0  0  0  0  0  0  0  0  0  0
   19.8356  -12.2533  -18.4302 C   0  0  1  0  0  0  0  0  0  0  0  0
   19.3876  -11.8671  -19.7957 C   0  0  0  0  0  0  0  0  0  0  0  0
   19.5711  -12.9177  -20.8020 C   0  0  0  0  0  0  0  0  0  0  0  0
   18.6291  -13.4355  -21.4123 O   0  0  0  0  0  0  0  0  0  0  0  0
   19.7564  -11.1305  -17.4603 C   0  0  0  0  0  0  0  0  0  0  0  0
   18.6622  -10.8666  -16.8864 O   0  0  0  0  0  0  0  0  0  0  0  0
   20.8860  -13.3529  -21.0816 O   0  0  0  0  0  0  0  0  0  0  0  0
   20.9167  -10.3668  -17.1935 N   0  0  0  0  0  0  0  0  0  0  0  0
   20.9522   -9.2569  -16.3048 C   0  0  1  0  0  0  0  0  0  0  0  0
   22.1950   -9.1735  -15.4304 C   0  0  0  0  0  0  0  0  0  0  0  0
   22.1426   -8.0048  -14.5281 C   0  0  0  0  0  0  0  0  0  0  0  0
   21.5610   -8.1762  -13.2917 C   0  0  0  0  0  0  0  0  0  0  0  0
   21.4778   -7.1114  -12.4242 C   0  0  0  0  0  0  0  0  0  0  0  0
   21.9727   -5.8733  -12.7838 C   0  0  0  0  0  0  0  0  0  0  0  0
   22.5465   -5.7171  -14.0121 C   0  0  0  0  0  0  0  0  0  0  0  0
   22.6353   -6.7944  -14.9012 C   0  0  0  0  0  0  0  0  0  0  0  0
   20.6390   -7.9489  -16.9190 C   0  0  0  0  0  0  0  0  0  0  0  0
   21.3451   -7.5727  -17.9005 O   0  0  0  0  0  0  0  0  0  0  0  0
   19.6057   -7.1041  -16.4759 N   0  0  0  0  0  0  0  0  0  0  0  0
   19.3880   -5.8284  -17.1635 C   0  0  1  0  0  0  0  0  0  0  0  0
   17.9426   -5.7151  -17.5702 C   0  0  0  0  0  0  0  0  0  0  0  0
   17.1592   -4.9808  -16.5209 C   0  0  0  0  0  0  0  0  0  0  0  0
   15.8736   -5.6890  -16.2196 C   0  0  0  0  0  0  0  0  0  0  0  0
   15.4345   -5.6578  -15.0660 O   0  0  0  0  0  0  0  0  0  0  0  0
   19.7336   -4.7427  -16.2304 C   0  0  0  0  0  0  0  0  0  0  0  0
   19.9071   -3.5521  -16.6642 O   0  0  0  0  0  0  0  0  0  0  0  0
   15.2334   -6.3437  -17.2312 O   0  0  0  0  0  0  0  0  0  0  0  0
   19.8831   -4.9252  -14.8850 O   0  0  0  0  0  0  0  0  0  0  0  0
  2  1  1  1
  2  3  1  0
  4  3  1  0
  4  8  1  0
  5  4  2  0
  6  2  1  0
  6  7  2  0
  9  6  1  0
 10  9  1  0
 11 12  1  0
 10 11  1  6
 12 17  2  0
 13 12  1  0
 13 14  2  0
 14 15  1  0
 15 16  2  0
 17 16  1  0
 18 10  1  0
 19 18  2  0
 20 18  1  0
 21 20  1  0
 21 22  1  1
 22 23  1  0
 23 24  1  0
 24 28  1  0
 25 24  2  0
 26 21  1  0
 27 26  2  0
 29 26  1  0
M  END
$$$$
