DFE.pdb
     RDKit          3D

 29 29  0  0  1  0  0  0  0  0999 V2000
   28.7616  -22.2056  -18.4166 N   0  0  0  0  0  0  0  0  0  0  0  0
   28.1583  -21.0231  -17.8748 C   0  0  1  0  0  0  0  0  0  0  0  0
   27.2762  -20.3498  -18.8663 C   0  0  0  0  0  0  0  0  0  0  0  0
   27.9820  -19.8568  -20.0532 C   0  0  0  0  0  0  0  0  0  0  0  0
   27.6763  -20.1900  -21.2036 O   0  0  0  0  0  0  0  0  0  0  0  0
   27.4511  -21.3615  -16.6127 C   0  0  0  0  0  0  0  0  0  0  0  0
   26.8382  -22.4612  -16.5065 O   0  0  0  0  0  0  0  0  0  0  0  0
   29.0587  -18.9610  -19.8664 O   0  0  0  0  0  0  0  0  0  0  0  0
   27.4736  -20.4385  -15.5411 N   0  0  0  0  0  0  0  0  0  0  0  0
   26.7715  -20.6218  -14.3178 C   0  0  1  0  0  0  0  0  0  0  0  0
   27.3366  -19.8545  -13.1314 C   0  0  0  0  0  0  0  0  0  0  0  0
   26.6125  -20.1780  -11.8849 C   0  0  0  0  0  0  0  0  0  0  0  0
   25.5321  -19.3924  -11.5499 C   0  0  0  0  0  0  0  0  0  0  0  0
   24.8367  -19.6486  -10.3907 C   0  0  0  0  0  0  0  0  0  0  0  0
   25.2135  -20.6865   -9.5613 C   0  0  0  0  0  0  0  0  0  0  0  0
   26.2861  -21.4571   -9.9049 C   0  0  0  0  0  0  0  0  0  0  0  0
   26.9997  -21.2039  -11.0821 C   0  0  0  0  0  0  0  0  0  0  0  0
   25.3034  -20.4689  -14.4061 C   0  0  0  0  0  0  0  0  0  0  0  0
   24.8497  -19.3942  -14.8986 O   0  0  0  0  0  0  0  0  0  0  0  0
   24.3879  -21.4459  -13.9758 N   0  0  0  0  0  0  0  0  0  0  0  0
   22.9530  -21.1887  -14.1253 C   0  0  1  0  0  0  0  0  0  0  0  0
   22.2935  -22.3750  -14.7773 C   0  0  0  0  0  0  0  0  0  0  0  0
   20.8038  -22.1919  -14.8135 C   0  0  0  0  0  0  0  0  0  0  0  0
   20.3775  -21.5246  -16.0855 C   0  0  0  0  0  0  0  0  0  0  0  0
   20.5371  -22.1240  -17.1532 O   0  0  0  0  0  0  0  0  0  0  0  0
   22.3860  -20.9739  -12.7832 C   0  0  0  0  0  0  0  0  0  0  0  0
   22.8297  -21.6370  -11.7835 O   0  0  0  0  0  0  0  0  0  0  0  0
   19.8277  -20.2775  -16.0190 O   0  0  0  0  0  0  0  0  0  0  0  0
   21.3862  -20.0806  -12.5223 O   0  0  0  0  0  0  0  0  0  0  0  0
  2  1  1  6
  2  3  1  0
  4  3  1  0
  4  8  1  0
  5  4  2  0
  6  2  1  0
  6  7  2  0
  9  6  1  0
 10  9  1  0
 11 12  1  0
 10 11  1  1
 12 17  2  0
 13 12  1  0
 13 14  2  0
 14 15  1  0
 15 16  2  0
 17 16  1  0
 18 10  1  0
 19 18  2  0
 20 18  1  0
 21 20  1  0
 21 22  1  1
 22 23  1  0
 23 24  1  0
 24 28  1  0
 25 24  2  0
 26 21  1  0
 27 26  2  0
 29 26  1  0
M  END
$$$$
