DFE.pdb
     RDKit          3D

 29 29  0  0  1  0  0  0  0  0999 V2000
   23.0042  -10.5535  -19.1836 N   0  0  0  0  0  0  0  0  0  0  0  0
   22.5191   -9.2142  -19.3469 C   0  0  1  0  0  0  0  0  0  0  0  0
   21.4556   -9.1353  -20.3847 C   0  0  0  0  0  0  0  0  0  0  0  0
   21.9135   -9.4806  -21.7342 C   0  0  0  0  0  0  0  0  0  0  0  0
   21.4236  -10.4036  -22.3945 O   0  0  0  0  0  0  0  0  0  0  0  0
   22.0788   -8.6829  -18.0312 C   0  0  0  0  0  0  0  0  0  0  0  0
   21.2101   -9.3047  -17.3567 O   0  0  0  0  0  0  0  0  0  0  0  0
   22.9621   -8.7203  -22.2990 O   0  0  0  0  0  0  0  0  0  0  0  0
   22.6425   -7.4779  -17.5507 N   0  0  0  0  0  0  0  0  0  0  0  0
   22.3058   -6.8833  -16.3032 C   0  0  1  0  0  0  0  0  0  0  0  0
   23.4849   -6.6196  -15.3780 C   0  0  0  0  0  0  0  0  0  0  0  0
   24.2057   -7.8676  -15.0531 C   0  0  0  0  0  0  0  0  0  0  0  0
   25.3733   -8.1286  -15.7351 C   0  0  0  0  0  0  0  0  0  0  0  0
   26.0703   -9.2860  -15.4748 C   0  0  0  0  0  0  0  0  0  0  0  0
   25.6084  -10.1871  -14.5358 C   0  0  0  0  0  0  0  0  0  0  0  0
   24.4498   -9.9163  -13.8672 C   0  0  0  0  0  0  0  0  0  0  0  0
   23.7340   -8.7416  -14.1255 C   0  0  0  0  0  0  0  0  0  0  0  0
   21.4155   -5.7058  -16.3875 C   0  0  0  0  0  0  0  0  0  0  0  0
   21.8959   -4.6344  -16.8615 O   0  0  0  0  0  0  0  0  0  0  0  0
   20.0717   -5.7099  -15.9727 N   0  0  0  0  0  0  0  0  0  0  0  0
   19.2558   -4.5136  -16.1980 C   0  0  1  0  0  0  0  0  0  0  0  0
   18.0345   -4.8800  -16.9990 C   0  0  0  0  0  0  0  0  0  0  0  0
   17.1830   -3.6672  -17.2402 C   0  0  0  0  0  0  0  0  0  0  0  0
   17.1995   -3.2812  -18.6879 C   0  0  0  0  0  0  0  0  0  0  0  0
   18.1629   -2.6420  -19.1213 O   0  0  0  0  0  0  0  0  0  0  0  0
   18.8540   -3.9818  -14.8848 C   0  0  0  0  0  0  0  0  0  0  0  0
   18.6867   -2.7240  -14.7237 O   0  0  0  0  0  0  0  0  0  0  0  0
   16.1487   -3.6500  -19.4764 O   0  0  0  0  0  0  0  0  0  0  0  0
   18.6362   -4.7673  -13.7888 O   0  0  0  0  0  0  0  0  0  0  0  0
  2  1  1  1
  2  3  1  0
  4  3  1  0
  4  8  1  0
  5  4  2  0
  6  2  1  0
  6  7  2  0
  9  6  1  0
 10  9  1  0
 11 12  1  0
 10 11  1  6
 12 17  2  0
 13 12  1  0
 13 14  2  0
 14 15  1  0
 15 16  2  0
 17 16  1  0
 18 10  1  0
 19 18  2  0
 20 18  1  0
 21 20  1  0
 21 22  1  6
 22 23  1  0
 23 24  1  0
 24 28  1  0
 25 24  2  0
 26 21  1  0
 27 26  2  0
 29 26  1  0
M  END
$$$$
