DFE.pdb
     RDKit          3D

 29 29  0  0  1  0  0  0  0  0999 V2000
   20.0991  -10.8606  -19.2873 N   0  0  0  0  0  0  0  0  0  0  0  0
   20.4477   -9.4716  -19.3561 C   0  0  1  0  0  0  0  0  0  0  0  0
   19.5832   -8.7325  -20.3156 C   0  0  0  0  0  0  0  0  0  0  0  0
   19.7082   -9.1892  -21.7034 C   0  0  0  0  0  0  0  0  0  0  0  0
   20.7621   -9.1104  -22.3445 O   0  0  0  0  0  0  0  0  0  0  0  0
   20.4220   -8.8862  -17.9907 C   0  0  0  0  0  0  0  0  0  0  0  0
   19.4932   -9.1898  -17.1898 O   0  0  0  0  0  0  0  0  0  0  0  0
   18.5691   -9.7430  -22.3298 O   0  0  0  0  0  0  0  0  0  0  0  0
   21.4456   -7.9890  -17.6059 N   0  0  0  0  0  0  0  0  0  0  0  0
   21.4604   -7.2797  -16.3732 C   0  0  1  0  0  0  0  0  0  0  0  0
   22.7545   -7.3955  -15.5808 C   0  0  0  0  0  0  0  0  0  0  0  0
   22.5082   -7.2958  -14.1275 C   0  0  0  0  0  0  0  0  0  0  0  0
   22.4690   -8.4663  -13.4030 C   0  0  0  0  0  0  0  0  0  0  0  0
   22.2285   -8.4220  -12.0491 C   0  0  0  0  0  0  0  0  0  0  0  0
   22.0264   -7.2138  -11.4116 C   0  0  0  0  0  0  0  0  0  0  0  0
   22.0676   -6.0613  -12.1414 C   0  0  0  0  0  0  0  0  0  0  0  0
   22.3114   -6.0966  -13.5191 C   0  0  0  0  0  0  0  0  0  0  0  0
   21.0012   -5.8763  -16.4494 C   0  0  0  0  0  0  0  0  0  0  0  0
   21.5114   -5.1350  -17.3403 O   0  0  0  0  0  0  0  0  0  0  0  0
   20.0342   -5.3220  -15.5917 N   0  0  0  0  0  0  0  0  0  0  0  0
   19.6494   -3.9191  -15.7686 C   0  0  1  0  0  0  0  0  0  0  0  0
   18.2603   -3.7054  -15.2283 C   0  0  0  0  0  0  0  0  0  0  0  0
   17.8273   -2.2841  -15.4437 C   0  0  0  0  0  0  0  0  0  0  0  0
   16.7053   -2.2108  -16.4340 C   0  0  0  0  0  0  0  0  0  0  0  0
   16.8944   -2.6343  -17.5783 O   0  0  0  0  0  0  0  0  0  0  0  0
   20.6105   -3.0857  -15.0264 C   0  0  0  0  0  0  0  0  0  0  0  0
   21.2199   -3.5596  -14.0066 O   0  0  0  0  0  0  0  0  0  0  0  0
   15.5136   -1.6784  -16.0360 O   0  0  0  0  0  0  0  0  0  0  0  0
   20.9096   -1.7971  -15.3664 O   0  0  0  0  0  0  0  0  0  0  0  0
  2  1  1  1
  2  3  1  0
  4  3  1  0
  4  8  1  0
  5  4  2  0
  6  2  1  0
  6  7  2  0
  9  6  1  0
 10  9  1  0
 11 12  1  0
 10 11  1  6
 12 17  2  0
 13 12  1  0
 13 14  2  0
 14 15  1  0
 15 16  2  0
 17 16  1  0
 18 10  1  0
 19 18  2  0
 20 18  1  0
 21 20  1  0
 21 22  1  1
 22 23  1  0
 23 24  1  0
 24 28  1  0
 25 24  2  0
 26 21  1  0
 27 26  2  0
 29 26  1  0
M  END
$$$$
