DFE.pdb
     RDKit          3D

 29 29  0  0  1  0  0  0  0  0999 V2000
   28.4811  -10.4977  -20.2480 N   0  0  0  0  0  0  0  0  0  0  0  0
   28.1323   -9.3588  -19.4499 C   0  0  1  0  0  0  0  0  0  0  0  0
   27.9854   -8.1300  -20.2762 C   0  0  0  0  0  0  0  0  0  0  0  0
   29.2597   -7.5131  -20.6577 C   0  0  0  0  0  0  0  0  0  0  0  0
   29.3335   -6.4094  -21.2095 O   0  0  0  0  0  0  0  0  0  0  0  0
   26.9155   -9.6654  -18.6544 C   0  0  0  0  0  0  0  0  0  0  0  0
   25.9689  -10.3214  -19.1739 O   0  0  0  0  0  0  0  0  0  0  0  0
   30.4528   -8.2171  -20.3792 O   0  0  0  0  0  0  0  0  0  0  0  0
   26.8341   -9.2127  -17.3168 N   0  0  0  0  0  0  0  0  0  0  0  0
   25.7941   -9.5735  -16.4162 C   0  0  1  0  0  0  0  0  0  0  0  0
   26.2651  -10.1331  -15.0817 C   0  0  0  0  0  0  0  0  0  0  0  0
   26.8705  -11.4713  -15.2410 C   0  0  0  0  0  0  0  0  0  0  0  0
   26.0698  -12.5677  -15.0105 C   0  0  0  0  0  0  0  0  0  0  0  0
   26.5954  -13.8333  -15.1334 C   0  0  0  0  0  0  0  0  0  0  0  0
   27.9186  -14.0123  -15.4858 C   0  0  0  0  0  0  0  0  0  0  0  0
   28.7012  -12.9171  -15.7113 C   0  0  0  0  0  0  0  0  0  0  0  0
   28.1752  -11.6259  -15.5884 C   0  0  0  0  0  0  0  0  0  0  0  0
   24.7417   -8.5519  -16.2286 C   0  0  0  0  0  0  0  0  0  0  0  0
   25.1027   -7.3874  -15.8867 O   0  0  0  0  0  0  0  0  0  0  0  0
   23.3692   -8.8007  -16.4082 N   0  0  0  0  0  0  0  0  0  0  0  0
   22.4195   -7.6982  -16.2347 C   0  0  1  0  0  0  0  0  0  0  0  0
   21.3273   -7.8066  -17.2656 C   0  0  0  0  0  0  0  0  0  0  0  0
   20.3305   -6.6976  -17.0913 C   0  0  0  0  0  0  0  0  0  0  0  0
   19.2246   -6.8094  -18.0962 C   0  0  0  0  0  0  0  0  0  0  0  0
   19.2558   -7.7345  -18.9133 O   0  0  0  0  0  0  0  0  0  0  0  0
   21.8453   -7.7997  -14.8823 C   0  0  0  0  0  0  0  0  0  0  0  0
   21.7506   -8.9382  -14.3072 O   0  0  0  0  0  0  0  0  0  0  0  0
   18.2218   -5.8843  -18.0726 O   0  0  0  0  0  0  0  0  0  0  0  0
   21.3945   -6.7231  -14.1728 O   0  0  0  0  0  0  0  0  0  0  0  0
  2  1  1  6
  2  3  1  0
  4  3  1  0
  4  8  1  0
  5  4  2  0
  6  2  1  0
  6  7  2  0
  9  6  1  0
 10  9  1  0
 11 12  1  0
 10 11  1  1
 12 17  2  0
 13 12  1  0
 13 14  2  0
 14 15  1  0
 15 16  2  0
 17 16  1  0
 18 10  1  0
 19 18  2  0
 20 18  1  0
 21 20  1  0
 21 22  1  6
 22 23  1  0
 23 24  1  0
 24 28  1  0
 25 24  2  0
 26 21  1  0
 27 26  2  0
 29 26  1  0
M  END
$$$$
