DFE.pdb
     RDKit          3D

 29 29  0  0  1  0  0  0  0  0999 V2000
   27.4473  -22.6599  -16.9532 N   0  0  0  0  0  0  0  0  0  0  0  0
   27.1714  -21.4279  -16.2737 C   0  0  1  0  0  0  0  0  0  0  0  0
   26.4443  -20.4670  -17.1467 C   0  0  0  0  0  0  0  0  0  0  0  0
   27.2179  -20.0136  -18.3070 C   0  0  0  0  0  0  0  0  0  0  0  0
   27.0938  -20.5091  -19.4326 O   0  0  0  0  0  0  0  0  0  0  0  0
   26.4501  -21.7121  -15.0062 C   0  0  0  0  0  0  0  0  0  0  0  0
   25.4898  -22.5330  -14.9954 O   0  0  0  0  0  0  0  0  0  0  0  0
   28.1448  -18.9631  -18.1230 O   0  0  0  0  0  0  0  0  0  0  0  0
   26.8520  -21.0522  -13.8214 N   0  0  0  0  0  0  0  0  0  0  0  0
   26.0008  -20.8362  -12.7026 C   0  0  1  0  0  0  0  0  0  0  0  0
   26.5585  -19.8974  -11.6427 C   0  0  0  0  0  0  0  0  0  0  0  0
   26.0527  -20.2404  -10.2977 C   0  0  0  0  0  0  0  0  0  0  0  0
   25.1288  -21.2572  -10.2013 C   0  0  0  0  0  0  0  0  0  0  0  0
   24.6200  -21.6011   -8.9701 C   0  0  0  0  0  0  0  0  0  0  0  0
   25.0283  -20.9351   -7.8313 C   0  0  0  0  0  0  0  0  0  0  0  0
   25.9442  -19.9293   -7.9409 C   0  0  0  0  0  0  0  0  0  0  0  0
   26.4671  -19.5724   -9.1891 C   0  0  0  0  0  0  0  0  0  0  0  0
   24.5995  -20.5000  -13.0340 C   0  0  0  0  0  0  0  0  0  0  0  0
   24.3865  -19.4430  -13.6978 O   0  0  0  0  0  0  0  0  0  0  0  0
   23.4961  -21.2852  -12.6547 N   0  0  0  0  0  0  0  0  0  0  0  0
   22.1488  -20.8400  -13.0213 C   0  0  1  0  0  0  0  0  0  0  0  0
   21.4857  -21.8892  -13.8737 C   0  0  0  0  0  0  0  0  0  0  0  0
   20.0652  -21.5033  -14.1690 C   0  0  0  0  0  0  0  0  0  0  0  0
   20.0010  -20.5267  -15.3037 C   0  0  0  0  0  0  0  0  0  0  0  0
   20.6682  -20.7502  -16.3183 O   0  0  0  0  0  0  0  0  0  0  0  0
   21.3808  -20.6422  -11.7804 C   0  0  0  0  0  0  0  0  0  0  0  0
   20.3631  -19.8674  -11.7700 O   0  0  0  0  0  0  0  0  0  0  0  0
   19.2070  -19.4243  -15.1754 O   0  0  0  0  0  0  0  0  0  0  0  0
   21.6886  -21.2539  -10.5986 O   0  0  0  0  0  0  0  0  0  0  0  0
  2  1  1  6
  2  3  1  0
  4  3  1  0
  4  8  1  0
  5  4  2  0
  6  2  1  0
  6  7  2  0
  9  6  1  0
 10  9  1  0
 11 12  1  0
 10 11  1  6
 12 17  2  0
 13 12  1  0
 13 14  2  0
 14 15  1  0
 15 16  2  0
 17 16  1  0
 18 10  1  0
 19 18  2  0
 20 18  1  0
 21 20  1  0
 21 22  1  6
 22 23  1  0
 23 24  1  0
 24 28  1  0
 25 24  2  0
 26 21  1  0
 27 26  2  0
 29 26  1  0
M  END
$$$$
