DFE.pdb
     RDKit          3D

 29 29  0  0  1  0  0  0  0  0999 V2000
   29.7487  -40.5561   -7.1470 N   0  0  0  0  0  0  0  0  0  0  0  0
   28.3893  -40.3148   -6.7607 C   0  0  1  0  0  0  0  0  0  0  0  0
   27.7675  -41.5198   -6.1479 C   0  0  0  0  0  0  0  0  0  0  0  0
   27.5093  -42.6057   -7.0989 C   0  0  0  0  0  0  0  0  0  0  0  0
   27.3590  -42.4158   -8.3110 O   0  0  0  0  0  0  0  0  0  0  0  0
   28.3301  -39.1238   -5.8743 C   0  0  0  0  0  0  0  0  0  0  0  0
   29.0221  -39.0867   -4.8179 O   0  0  0  0  0  0  0  0  0  0  0  0
   27.4302  -43.9256   -6.6007 O   0  0  0  0  0  0  0  0  0  0  0  0
   27.4915  -38.0414   -6.2290 N   0  0  0  0  0  0  0  0  0  0  0  0
   27.3371  -36.8642   -5.4459 C   0  0  1  0  0  0  0  0  0  0  0  0
   26.9922  -35.6089   -6.2340 C   0  0  0  0  0  0  0  0  0  0  0  0
   26.8097  -34.4449   -5.3426 C   0  0  0  0  0  0  0  0  0  0  0  0
   27.9246  -33.9432   -4.7086 C   0  0  0  0  0  0  0  0  0  0  0  0
   27.7992  -32.8688   -3.8583 C   0  0  0  0  0  0  0  0  0  0  0  0
   26.5652  -32.2902   -3.6361 C   0  0  0  0  0  0  0  0  0  0  0  0
   25.4684  -32.7973   -4.2706 C   0  0  0  0  0  0  0  0  0  0  0  0
   25.5863  -33.8902   -5.1370 C   0  0  0  0  0  0  0  0  0  0  0  0
   26.4683  -37.0081   -4.2582 C   0  0  0  0  0  0  0  0  0  0  0  0
   25.3132  -37.4987   -4.4268 O   0  0  0  0  0  0  0  0  0  0  0  0
   26.8520  -36.6325   -2.9583 N   0  0  0  0  0  0  0  0  0  0  0  0
   25.9203  -36.8591   -1.8500 C   0  0  1  0  0  0  0  0  0  0  0  0
   26.6905  -37.2441   -0.6147 C   0  0  0  0  0  0  0  0  0  0  0  0
   25.7496  -37.5654    0.5102 C   0  0  0  0  0  0  0  0  0  0  0  0
   26.5049  -37.8969    1.7612 C   0  0  0  0  0  0  0  0  0  0  0  0
   27.0177  -39.0151    1.8668 O   0  0  0  0  0  0  0  0  0  0  0  0
   25.1821  -35.6073   -1.6117 C   0  0  0  0  0  0  0  0  0  0  0  0
   25.7777  -34.4798   -1.7122 O   0  0  0  0  0  0  0  0  0  0  0  0
   26.5991  -36.9508    2.7399 O   0  0  0  0  0  0  0  0  0  0  0  0
   23.8570  -35.5653   -1.2830 O   0  0  0  0  0  0  0  0  0  0  0  0
  2  1  1  1
  2  3  1  0
  4  3  1  0
  4  8  1  0
  5  4  2  0
  6  2  1  0
  6  7  2  0
  9  6  1  0
 10  9  1  0
 11 12  1  0
 10 11  1  6
 12 17  2  0
 13 12  1  0
 13 14  2  0
 14 15  1  0
 15 16  2  0
 17 16  1  0
 18 10  1  0
 19 18  2  0
 20 18  1  0
 21 20  1  0
 21 22  1  1
 22 23  1  0
 23 24  1  0
 24 28  1  0
 25 24  2  0
 26 21  1  0
 27 26  2  0
 29 26  1  0
M  END
$$$$
