AWI.pdb
     RDKit          3D

 28 29  0  0  1  0  0  0  0  0999 V2000
   28.3691  -25.4420  -16.8432 C   0  0  0  0  0  0  0  0  0  0  0  0
   28.7380  -24.1476  -17.5254 C   0  0  2  0  0  0  0  0  0  0  0  0
   30.1079  -24.2220  -17.9387 N   0  0  0  0  0  0  0  0  0  0  0  0
   28.5521  -22.9985  -16.5963 C   0  0  0  0  0  0  0  0  0  0  0  0
   29.4526  -22.7174  -15.7608 O   0  0  0  0  0  0  0  0  0  0  0  0
   27.3889  -22.1902  -16.6065 N   0  0  0  0  0  0  0  0  0  0  0  0
   27.2099  -20.9942  -15.8291 C   0  0  1  0  0  0  0  0  0  0  0  0
   26.8713  -19.8158  -16.6609 C   0  0  0  0  0  0  0  0  0  0  0  0
   26.5469  -18.5808  -15.9157 C   0  0  0  0  0  0  0  0  0  0  0  0
   27.4022  -17.9330  -15.0405 C   0  0  0  0  0  0  0  0  0  0  0  0
   26.7582  -16.8462  -14.5928 N   0  0  0  0  0  0  0  0  0  0  0  0
   25.5362  -16.7792  -15.1450 C   0  0  0  0  0  0  0  0  0  0  0  0
   24.5472  -15.8532  -14.9726 C   0  0  0  0  0  0  0  0  0  0  0  0
   23.3631  -16.0028  -15.6498 C   0  0  0  0  0  0  0  0  0  0  0  0
   23.1604  -17.0678  -16.4953 C   0  0  0  0  0  0  0  0  0  0  0  0
   24.1751  -18.0034  -16.6623 C   0  0  0  0  0  0  0  0  0  0  0  0
   25.3675  -17.8586  -15.9858 C   0  0  0  0  0  0  0  0  0  0  0  0
   26.3389  -21.2589  -14.6929 C   0  0  0  0  0  0  0  0  0  0  0  0
   25.3413  -22.0043  -14.8826 O   0  0  0  0  0  0  0  0  0  0  0  0
   25.9630  -20.8283   -8.4543 C   0  0  0  0  0  0  0  0  0  0  0  0
   25.3584  -21.0884   -9.8066 C   0  0  0  0  0  0  0  0  0  0  0  0
   26.2061  -20.7262  -10.9683 C   0  0  2  0  0  0  0  0  0  0  0  0
   26.6483  -19.2869  -10.7920 C   0  0  0  0  0  0  0  0  0  0  0  0
   25.6574  -20.9906  -12.3260 C   0  0  2  0  0  0  0  0  0  0  0  0
   26.5597  -20.7210  -13.3937 N   0  0  0  0  0  0  0  0  0  0  0  0
   24.3659  -20.3296  -12.5772 C   0  0  0  0  0  0  0  0  0  0  0  0
   23.1762  -20.7439  -11.9908 O   0  0  0  0  0  0  0  0  0  0  0  0
   24.2833  -19.3398  -13.3490 O   0  0  0  0  0  0  0  0  0  0  0  0
  2  4  1  0
  2  1  1  1
  2  3  1  0
  4  5  2  0
  6  7  1  0
  6  4  1  0
  7  8  1  6
  8  9  1  0
  9 17  1  0
 10  9  2  0
 10 11  1  0
 11 12  1  0
 12 17  2  0
 12 13  1  0
 13 14  2  0
 14 15  1  0
 16 15  2  0
 17 16  1  0
 18 19  2  0
 18  7  1  0
 21 22  1  0
 21 20  1  0
 22 23  1  6
 24 25  1  6
 24 22  1  0
 25 18  1  0
 26 24  1  0
 27 26  1  0
 28 26  2  0
M  END
$$$$
