AWI.pdb
     RDKit          3D

 28 29  0  0  1  0  0  0  0  0999 V2000
   27.8370  -23.4093  -16.1703 C   0  0  0  0  0  0  0  0  0  0  0  0
   27.6199  -21.9849  -15.7221 C   0  0  2  0  0  0  0  0  0  0  0  0
   28.8963  -21.3484  -15.5847 N   0  0  0  0  0  0  0  0  0  0  0  0
   26.8969  -21.9536  -14.4205 C   0  0  0  0  0  0  0  0  0  0  0  0
   25.7752  -22.5181  -14.3142 O   0  0  0  0  0  0  0  0  0  0  0  0
   27.4191  -21.3071  -13.2735 N   0  0  0  0  0  0  0  0  0  0  0  0
   26.7708  -21.2528  -11.9914 C   0  0  1  0  0  0  0  0  0  0  0  0
   27.6957  -20.8741  -10.8976 C   0  0  0  0  0  0  0  0  0  0  0  0
   27.0603  -20.6005   -9.5910 C   0  0  0  0  0  0  0  0  0  0  0  0
   25.7035  -20.6954   -9.3318 C   0  0  0  0  0  0  0  0  0  0  0  0
   25.5286  -20.3994   -8.0363 N   0  0  0  0  0  0  0  0  0  0  0  0
   26.7124  -20.1219   -7.4670 C   0  0  0  0  0  0  0  0  0  0  0  0
   27.0036  -19.7681   -6.1804 C   0  0  0  0  0  0  0  0  0  0  0  0
   28.3079  -19.5234   -5.8311 C   0  0  0  0  0  0  0  0  0  0  0  0
   29.3204  -19.6291   -6.7552 C   0  0  0  0  0  0  0  0  0  0  0  0
   29.0108  -19.9901   -8.0616 C   0  0  0  0  0  0  0  0  0  0  0  0
   27.7028  -20.2383   -8.4189 C   0  0  0  0  0  0  0  0  0  0  0  0
   25.5320  -20.4938  -12.0864 C   0  0  0  0  0  0  0  0  0  0  0  0
   25.6209  -19.2437  -12.2128 O   0  0  0  0  0  0  0  0  0  0  0  0
   21.5538  -21.5902  -15.6430 C   0  0  0  0  0  0  0  0  0  0  0  0
   22.0405  -21.6202  -14.2202 C   0  0  0  0  0  0  0  0  0  0  0  0
   22.6029  -20.3473  -13.7080 C   0  0  2  0  0  0  0  0  0  0  0  0
   23.6719  -19.8858  -14.6788 C   0  0  0  0  0  0  0  0  0  0  0  0
   23.0690  -20.3235  -12.2950 C   0  0  2  0  0  0  0  0  0  0  0  0
   24.2410  -21.0917  -12.0436 N   0  0  0  0  0  0  0  0  0  0  0  0
   22.0189  -20.6718  -11.3234 C   0  0  0  0  0  0  0  0  0  0  0  0
   20.8806  -19.8990  -11.1287 O   0  0  0  0  0  0  0  0  0  0  0  0
   22.1092  -21.7066  -10.6140 O   0  0  0  0  0  0  0  0  0  0  0  0
  2  4  1  0
  2  1  1  1
  2  3  1  0
  4  5  2  0
  6  7  1  0
  6  4  1  0
  7  8  1  1
  8  9  1  0
  9 17  1  0
 10  9  2  0
 10 11  1  0
 11 12  1  0
 12 17  2  0
 12 13  1  0
 13 14  2  0
 14 15  1  0
 16 15  2  0
 17 16  1  0
 18 19  2  0
 18  7  1  0
 21 22  1  0
 21 20  1  0
 22 23  1  6
 24 25  1  6
 24 22  1  0
 25 18  1  0
 26 24  1  0
 27 26  1  0
 28 26  2  0
M  END
$$$$
