AWI.pdb
     RDKit          3D

 28 29  0  0  1  0  0  0  0  0999 V2000
   30.2024  -20.5864  -12.6674 C   0  0  0  0  0  0  0  0  0  0  0  0
   30.1783  -20.8546  -11.1827 C   0  0  2  0  0  0  0  0  0  0  0  0
   31.0124  -21.9869  -10.9083 N   0  0  0  0  0  0  0  0  0  0  0  0
   28.7875  -21.1290  -10.7261 C   0  0  0  0  0  0  0  0  0  0  0  0
   28.3203  -22.2964  -10.8101 O   0  0  0  0  0  0  0  0  0  0  0  0
   27.9477  -20.1214  -10.1915 N   0  0  0  0  0  0  0  0  0  0  0  0
   26.6143  -20.3360   -9.6986 C   0  0  1  0  0  0  0  0  0  0  0  0
   26.2781  -19.4563   -8.5549 C   0  0  0  0  0  0  0  0  0  0  0  0
   27.2910  -19.3925   -7.4798 C   0  0  0  0  0  0  0  0  0  0  0  0
   28.3220  -18.4708   -7.4130 C   0  0  0  0  0  0  0  0  0  0  0  0
   29.0010  -18.7206   -6.2848 N   0  0  0  0  0  0  0  0  0  0  0  0
   28.4459  -19.7576   -5.6374 C   0  0  0  0  0  0  0  0  0  0  0  0
   28.8088  -20.3518   -4.4624 C   0  0  0  0  0  0  0  0  0  0  0  0
   28.0810  -21.4183   -3.9975 C   0  0  0  0  0  0  0  0  0  0  0  0
   26.9966  -21.8941   -4.6961 C   0  0  0  0  0  0  0  0  0  0  0  0
   26.6375  -21.2804   -5.8907 C   0  0  0  0  0  0  0  0  0  0  0  0
   27.3637  -20.2081   -6.3629 C   0  0  0  0  0  0  0  0  0  0  0  0
   25.6668  -20.3550  -10.8038 C   0  0  0  0  0  0  0  0  0  0  0  0
   25.8308  -19.5155  -11.7285 O   0  0  0  0  0  0  0  0  0  0  0  0
   24.8426  -24.5738  -13.7903 C   0  0  0  0  0  0  0  0  0  0  0  0
   24.9394  -23.1921  -13.2042 C   0  0  0  0  0  0  0  0  0  0  0  0
   23.6636  -22.6091  -12.7231 C   0  0  2  0  0  0  0  0  0  0  0  0
   22.6863  -22.6054  -13.8821 C   0  0  0  0  0  0  0  0  0  0  0  0
   23.7295  -21.2938  -12.0303 C   0  0  2  0  0  0  0  0  0  0  0  0
   24.5771  -21.2670  -10.8868 N   0  0  0  0  0  0  0  0  0  0  0  0
   22.4076  -20.7405  -11.6919 C   0  0  0  0  0  0  0  0  0  0  0  0
   21.5798  -20.1306  -12.6266 O   0  0  0  0  0  0  0  0  0  0  0  0
   21.9615  -20.7990  -10.5172 O   0  0  0  0  0  0  0  0  0  0  0  0
  2  4  1  0
  2  1  1  6
  2  3  1  0
  4  5  2  0
  6  7  1  0
  6  4  1  0
  7  8  1  1
  8  9  1  0
  9 17  1  0
 10  9  2  0
 10 11  1  0
 11 12  1  0
 12 17  2  0
 12 13  1  0
 13 14  2  0
 14 15  1  0
 16 15  2  0
 17 16  1  0
 18 19  2  0
 18  7  1  0
 21 22  1  0
 21 20  1  0
 22 23  1  6
 24 25  1  1
 24 22  1  0
 25 18  1  0
 26 24  1  0
 27 26  1  0
 28 26  2  0
M  END
$$$$
