AWI.pdb
     RDKit          3D

 28 29  0  0  1  0  0  0  0  0999 V2000
   27.6950  -19.7073  -15.0576 C   0  0  0  0  0  0  0  0  0  0  0  0
   28.3463  -20.8616  -14.3364 C   0  0  2  0  0  0  0  0  0  0  0  0
   28.3490  -22.0013  -15.2048 N   0  0  0  0  0  0  0  0  0  0  0  0
   27.6022  -21.1805  -13.0863 C   0  0  0  0  0  0  0  0  0  0  0  0
   26.6131  -21.9603  -13.1287 O   0  0  0  0  0  0  0  0  0  0  0  0
   27.9593  -20.6390  -11.8271 N   0  0  0  0  0  0  0  0  0  0  0  0
   27.2337  -20.8495  -10.6040 C   0  0  1  0  0  0  0  0  0  0  0  0
   28.0573  -20.5962   -9.3987 C   0  0  0  0  0  0  0  0  0  0  0  0
   27.3291  -20.6184   -8.1123 C   0  0  0  0  0  0  0  0  0  0  0  0
   26.0733  -21.1687   -7.9193 C   0  0  0  0  0  0  0  0  0  0  0  0
   25.7724  -21.0176   -6.6220 N   0  0  0  0  0  0  0  0  0  0  0  0
   26.7803  -20.3970   -5.9883 C   0  0  0  0  0  0  0  0  0  0  0  0
   26.8999  -20.0374   -4.6762 C   0  0  0  0  0  0  0  0  0  0  0  0
   28.0388  -19.3961   -4.2579 C   0  0  0  0  0  0  0  0  0  0  0  0
   29.0558  -19.1121   -5.1385 C   0  0  0  0  0  0  0  0  0  0  0  0
   28.9217  -19.4835   -6.4714 C   0  0  0  0  0  0  0  0  0  0  0  0
   27.7807  -20.1289   -6.8981 C   0  0  0  0  0  0  0  0  0  0  0  0
   25.9440  -20.1764  -10.6624 C   0  0  0  0  0  0  0  0  0  0  0  0
   25.9437  -18.9181  -10.7197 O   0  0  0  0  0  0  0  0  0  0  0  0
   22.1973  -22.0787  -14.2090 C   0  0  0  0  0  0  0  0  0  0  0  0
   22.6929  -21.8707  -12.8043 C   0  0  0  0  0  0  0  0  0  0  0  0
   23.0842  -20.4820  -12.4616 C   0  0  2  0  0  0  0  0  0  0  0  0
   24.1220  -20.0280  -13.4691 C   0  0  0  0  0  0  0  0  0  0  0  0
   23.4984  -20.2134  -11.0578 C   0  0  2  0  0  0  0  0  0  0  0  0
   24.6988  -20.8660  -10.6579 N   0  0  0  0  0  0  0  0  0  0  0  0
   22.4341  -20.4658  -10.0721 C   0  0  0  0  0  0  0  0  0  0  0  0
   21.1731  -19.8877  -10.1540 O   0  0  0  0  0  0  0  0  0  0  0  0
   22.6249  -21.2330   -9.0937 O   0  0  0  0  0  0  0  0  0  0  0  0
  2  4  1  0
  2  1  1  6
  2  3  1  0
  4  5  2  0
  6  7  1  0
  6  4  1  0
  7  8  1  1
  8  9  1  0
  9 17  1  0
 10  9  2  0
 10 11  1  0
 11 12  1  0
 12 17  2  0
 12 13  1  0
 13 14  2  0
 14 15  1  0
 16 15  2  0
 17 16  1  0
 18 19  2  0
 18  7  1  0
 21 22  1  0
 21 20  1  0
 22 23  1  6
 24 25  1  1
 24 22  1  0
 25 18  1  0
 26 24  1  0
 27 26  1  0
 28 26  2  0
M  END
$$$$
