AWI.pdb
     RDKit          3D

 28 29  0  0  1  0  0  0  0  0999 V2000
   28.0130  -19.0679  -15.0149 C   0  0  0  0  0  0  0  0  0  0  0  0
   28.4999  -20.3761  -14.4418 C   0  0  2  0  0  0  0  0  0  0  0  0
   28.4281  -21.3784  -15.4632 N   0  0  0  0  0  0  0  0  0  0  0  0
   27.6615  -20.7788  -13.2787 C   0  0  0  0  0  0  0  0  0  0  0  0
   26.5608  -21.3609  -13.4727 O   0  0  0  0  0  0  0  0  0  0  0  0
   28.0489  -20.5342  -11.9384 N   0  0  0  0  0  0  0  0  0  0  0  0
   27.2833  -20.9034  -10.7789 C   0  0  1  0  0  0  0  0  0  0  0  0
   28.0712  -20.8334   -9.5262 C   0  0  0  0  0  0  0  0  0  0  0  0
   27.2811  -20.7543   -8.2791 C   0  0  0  0  0  0  0  0  0  0  0  0
   25.9826  -21.2116   -8.1308 C   0  0  0  0  0  0  0  0  0  0  0  0
   25.6296  -20.9878   -6.8573 N   0  0  0  0  0  0  0  0  0  0  0  0
   26.6453  -20.4101   -6.1962 C   0  0  0  0  0  0  0  0  0  0  0  0
   26.7250  -20.0059   -4.8941 C   0  0  0  0  0  0  0  0  0  0  0  0
   27.8832  -19.4252   -4.4419 C   0  0  0  0  0  0  0  0  0  0  0  0
   28.9592  -19.2458   -5.2788 C   0  0  0  0  0  0  0  0  0  0  0  0
   28.8654  -19.6618   -6.6020 C   0  0  0  0  0  0  0  0  0  0  0  0
   27.7052  -20.2467   -7.0625 C   0  0  0  0  0  0  0  0  0  0  0  0
   26.0030  -20.2102  -10.7804 C   0  0  0  0  0  0  0  0  0  0  0  0
   26.0197  -18.9522  -10.8415 O   0  0  0  0  0  0  0  0  0  0  0  0
   21.9470  -19.3617  -14.5395 C   0  0  0  0  0  0  0  0  0  0  0  0
   22.1170  -19.4321  -13.0468 C   0  0  0  0  0  0  0  0  0  0  0  0
   23.3122  -20.1703  -12.5717 C   0  0  2  0  0  0  0  0  0  0  0  0
   23.2914  -21.5478  -13.2047 C   0  0  0  0  0  0  0  0  0  0  0  0
   23.5464  -20.2225  -11.1032 C   0  0  2  0  0  0  0  0  0  0  0  0
   24.7486  -20.8801  -10.7169 N   0  0  0  0  0  0  0  0  0  0  0  0
   22.4074  -20.7665  -10.3450 C   0  0  0  0  0  0  0  0  0  0  0  0
   22.3875  -22.0567   -9.8295 O   0  0  0  0  0  0  0  0  0  0  0  0
   21.3826  -20.0707  -10.1260 O   0  0  0  0  0  0  0  0  0  0  0  0
  2  4  1  0
  2  1  1  6
  2  3  1  0
  4  5  2  0
  6  7  1  0
  6  4  1  0
  7  8  1  1
  8  9  1  0
  9 17  1  0
 10  9  2  0
 10 11  1  0
 11 12  1  0
 12 17  2  0
 12 13  1  0
 13 14  2  0
 14 15  1  0
 16 15  2  0
 17 16  1  0
 18 19  2  0
 18  7  1  0
 21 22  1  0
 21 20  1  0
 22 23  1  1
 24 25  1  6
 24 22  1  0
 25 18  1  0
 26 24  1  0
 27 26  1  0
 28 26  2  0
M  END
$$$$
