AWI.pdb
     RDKit          3D

 28 29  0  0  1  0  0  0  0  0999 V2000
   28.9135  -21.9748  -14.9053 C   0  0  0  0  0  0  0  0  0  0  0  0
   27.6488  -21.1591  -15.0163 C   0  0  2  0  0  0  0  0  0  0  0  0
   27.9944  -19.7694  -14.9675 N   0  0  0  0  0  0  0  0  0  0  0  0
   26.7182  -21.4879  -13.9010 C   0  0  0  0  0  0  0  0  0  0  0  0
   26.2661  -22.6588  -13.7879 O   0  0  0  0  0  0  0  0  0  0  0  0
   26.3084  -20.5292  -12.9421 N   0  0  0  0  0  0  0  0  0  0  0  0
   25.3889  -20.7812  -11.8660 C   0  0  1  0  0  0  0  0  0  0  0  0
   25.7987  -20.1321  -10.5988 C   0  0  0  0  0  0  0  0  0  0  0  0
   27.0533  -20.6360  -10.0006 C   0  0  0  0  0  0  0  0  0  0  0  0
   27.9779  -21.4365  -10.6499 C   0  0  0  0  0  0  0  0  0  0  0  0
   28.9827  -21.6542   -9.7901 N   0  0  0  0  0  0  0  0  0  0  0  0
   28.7342  -21.0283   -8.6286 C   0  0  0  0  0  0  0  0  0  0  0  0
   29.4758  -20.9825   -7.4826 C   0  0  0  0  0  0  0  0  0  0  0  0
   29.0045  -20.2727   -6.4069 C   0  0  0  0  0  0  0  0  0  0  0  0
   27.8011  -19.6105   -6.4675 C   0  0  0  0  0  0  0  0  0  0  0  0
   27.0558  -19.6649   -7.6398 C   0  0  0  0  0  0  0  0  0  0  0  0
   27.5239  -20.3752   -8.7245 C   0  0  0  0  0  0  0  0  0  0  0  0
   24.0221  -20.5412  -12.3062 C   0  0  0  0  0  0  0  0  0  0  0  0
   23.6911  -19.3533  -12.5634 O   0  0  0  0  0  0  0  0  0  0  0  0
   22.2072  -22.7739  -16.6199 C   0  0  0  0  0  0  0  0  0  0  0  0
   22.4654  -21.9085  -15.4172 C   0  0  0  0  0  0  0  0  0  0  0  0
   21.5093  -22.0687  -14.2950 C   0  0  2  0  0  0  0  0  0  0  0  0
   20.1142  -21.8153  -14.8314 C   0  0  0  0  0  0  0  0  0  0  0  0
   21.7853  -21.3086  -13.0458 C   0  0  2  0  0  0  0  0  0  0  0  0
   23.0543  -21.5740  -12.4576 N   0  0  0  0  0  0  0  0  0  0  0  0
   20.7234  -21.4350  -12.0337 C   0  0  0  0  0  0  0  0  0  0  0  0
   19.5387  -20.7105  -12.0842 O   0  0  0  0  0  0  0  0  0  0  0  0
   20.8457  -22.2222  -11.0602 O   0  0  0  0  0  0  0  0  0  0  0  0
  2  4  1  0
  2  1  1  1
  2  3  1  0
  4  5  2  0
  6  7  1  0
  6  4  1  0
  7  8  1  1
  8  9  1  0
  9 17  1  0
 10  9  2  0
 10 11  1  0
 11 12  1  0
 12 17  2  0
 12 13  1  0
 13 14  2  0
 14 15  1  0
 16 15  2  0
 17 16  1  0
 18 19  2  0
 18  7  1  0
 21 22  1  0
 21 20  1  0
 22 23  1  6
 24 25  1  1
 24 22  1  0
 25 18  1  0
 26 24  1  0
 27 26  1  0
 28 26  2  0
M  END
$$$$
