AWI.pdb
     RDKit          3D

 28 29  0  0  1  0  0  0  0  0999 V2000
   18.0089  -11.8170  -20.4259 C   0  0  0  0  0  0  0  0  0  0  0  0
   19.2627  -12.1231  -19.6442 C   0  0  2  0  0  0  0  0  0  0  0  0
   19.3483  -13.5404  -19.4524 N   0  0  0  0  0  0  0  0  0  0  0  0
   19.2333  -11.4352  -18.3235 C   0  0  0  0  0  0  0  0  0  0  0  0
   18.4306  -11.8243  -17.4333 O   0  0  0  0  0  0  0  0  0  0  0  0
   20.0805  -10.3433  -18.0134 N   0  0  0  0  0  0  0  0  0  0  0  0
   20.0127   -9.5645  -16.8068 C   0  0  1  0  0  0  0  0  0  0  0  0
   21.3484   -9.1544  -16.3142 C   0  0  0  0  0  0  0  0  0  0  0  0
   21.3495   -8.3177  -15.0952 C   0  0  0  0  0  0  0  0  0  0  0  0
   21.1127   -8.7820  -13.8125 C   0  0  0  0  0  0  0  0  0  0  0  0
   21.2287   -7.7329  -12.9864 N   0  0  0  0  0  0  0  0  0  0  0  0
   21.5274   -6.6286  -13.6892 C   0  0  0  0  0  0  0  0  0  0  0  0
   21.7290   -5.3471  -13.2623 C   0  0  0  0  0  0  0  0  0  0  0  0
   22.0197   -4.3716  -14.1826 C   0  0  0  0  0  0  0  0  0  0  0  0
   22.1099   -4.6663  -15.5226 C   0  0  0  0  0  0  0  0  0  0  0  0
   21.9025   -5.9747  -15.9443 C   0  0  0  0  0  0  0  0  0  0  0  0
   21.6111   -6.9597  -15.0249 C   0  0  0  0  0  0  0  0  0  0  0  0
   19.0192   -8.5092  -16.9449 C   0  0  0  0  0  0  0  0  0  0  0  0
   19.0099   -7.8525  -18.0198 O   0  0  0  0  0  0  0  0  0  0  0  0
   14.1172   -6.0762  -17.4140 C   0  0  0  0  0  0  0  0  0  0  0  0
   14.7776   -6.2944  -16.0804 C   0  0  0  0  0  0  0  0  0  0  0  0
   15.7453   -7.4165  -16.0202 C   0  0  2  0  0  0  0  0  0  0  0  0
   15.3973   -8.2680  -14.8151 C   0  0  0  0  0  0  0  0  0  0  0  0
   17.1929   -7.0768  -16.0779 C   0  0  2  0  0  0  0  0  0  0  0  0
   18.0698   -8.1891  -15.9339 N   0  0  0  0  0  0  0  0  0  0  0  0
   17.5825   -6.0031  -15.1487 C   0  0  0  0  0  0  0  0  0  0  0  0
   18.2736   -6.2384  -13.9664 O   0  0  0  0  0  0  0  0  0  0  0  0
   17.3011   -4.8014  -15.3916 O   0  0  0  0  0  0  0  0  0  0  0  0
  2  4  1  0
  2  1  1  1
  2  3  1  0
  4  5  2  0
  6  7  1  0
  6  4  1  0
  7  8  1  6
  8  9  1  0
  9 17  1  0
 10  9  2  0
 10 11  1  0
 11 12  1  0
 12 17  2  0
 12 13  1  0
 13 14  2  0
 14 15  1  0
 16 15  2  0
 17 16  1  0
 18 19  2  0
 18  7  1  0
 21 22  1  0
 21 20  1  0
 22 23  1  1
 24 25  1  1
 24 22  1  0
 25 18  1  0
 26 24  1  0
 27 26  1  0
 28 26  2  0
M  END
$$$$
