AWI.pdb
     RDKit          3D

 28 29  0  0  1  0  0  0  0  0999 V2000
   27.3776  -19.8720  -17.3798 C   0  0  0  0  0  0  0  0  0  0  0  0
   28.0547  -20.8357  -16.4365 C   0  0  2  0  0  0  0  0  0  0  0  0
   28.3504  -22.0428  -17.1495 N   0  0  0  0  0  0  0  0  0  0  0  0
   27.1697  -21.1373  -15.2773 C   0  0  0  0  0  0  0  0  0  0  0  0
   26.1481  -21.8568  -15.4407 O   0  0  0  0  0  0  0  0  0  0  0  0
   27.4256  -20.6448  -13.9741 N   0  0  0  0  0  0  0  0  0  0  0  0
   26.6437  -20.9542  -12.8080 C   0  0  1  0  0  0  0  0  0  0  0  0
   27.4165  -20.8279  -11.5503 C   0  0  0  0  0  0  0  0  0  0  0  0
   26.6545  -21.0687  -10.3064 C   0  0  0  0  0  0  0  0  0  0  0  0
   25.7860  -22.1268  -10.0987 C   0  0  0  0  0  0  0  0  0  0  0  0
   25.3181  -22.0125   -8.8480 N   0  0  0  0  0  0  0  0  0  0  0  0
   25.8512  -20.9308   -8.2577 C   0  0  0  0  0  0  0  0  0  0  0  0
   25.6549  -20.4333   -7.0010 C   0  0  0  0  0  0  0  0  0  0  0  0
   26.3158  -19.2922   -6.6209 C   0  0  0  0  0  0  0  0  0  0  0  0
   27.1685  -18.6465   -7.4847 C   0  0  0  0  0  0  0  0  0  0  0  0
   27.3597  -19.1632   -8.7610 C   0  0  0  0  0  0  0  0  0  0  0  0
   26.6998  -20.3096   -9.1490 C   0  0  0  0  0  0  0  0  0  0  0  0
   25.3673  -20.2557  -12.8589 C   0  0  0  0  0  0  0  0  0  0  0  0
   25.3880  -19.0162  -13.0824 O   0  0  0  0  0  0  0  0  0  0  0  0
   22.3352  -19.8161  -16.6220 C   0  0  0  0  0  0  0  0  0  0  0  0
   23.0087  -19.6986  -15.2824 C   0  0  0  0  0  0  0  0  0  0  0  0
   22.2550  -20.2586  -14.1346 C   0  0  2  0  0  0  0  0  0  0  0  0
   20.8633  -19.6575  -14.1528 C   0  0  0  0  0  0  0  0  0  0  0  0
   22.8917  -20.1785  -12.7920 C   0  0  2  0  0  0  0  0  0  0  0  0
   24.1125  -20.9007  -12.6700 N   0  0  0  0  0  0  0  0  0  0  0  0
   21.9835  -20.5321  -11.6884 C   0  0  0  0  0  0  0  0  0  0  0  0
   21.1360  -19.6135  -11.0809 O   0  0  0  0  0  0  0  0  0  0  0  0
   21.9343  -21.7062  -11.2398 O   0  0  0  0  0  0  0  0  0  0  0  0
  2  4  1  0
  2  1  1  6
  2  3  1  0
  4  5  2  0
  6  7  1  0
  6  4  1  0
  7  8  1  1
  8  9  1  0
  9 17  1  0
 10  9  2  0
 10 11  1  0
 11 12  1  0
 12 17  2  0
 12 13  1  0
 13 14  2  0
 14 15  1  0
 16 15  2  0
 17 16  1  0
 18 19  2  0
 18  7  1  0
 21 22  1  0
 21 20  1  0
 22 23  1  1
 24 25  1  6
 24 22  1  0
 25 18  1  0
 26 24  1  0
 27 26  1  0
 28 26  2  0
M  END
$$$$
