AWI.pdb
     RDKit          3D

 28 29  0  0  1  0  0  0  0  0999 V2000
   27.9968  -21.8413  -17.2642 C   0  0  0  0  0  0  0  0  0  0  0  0
   28.6837  -21.8860  -15.9214 C   0  0  2  0  0  0  0  0  0  0  0  0
   29.3951  -23.1248  -15.8120 N   0  0  0  0  0  0  0  0  0  0  0  0
   27.6845  -21.7781  -14.8222 C   0  0  0  0  0  0  0  0  0  0  0  0
   26.5004  -22.1646  -15.0130 O   0  0  0  0  0  0  0  0  0  0  0  0
   28.0072  -21.2516  -13.5475 N   0  0  0  0  0  0  0  0  0  0  0  0
   27.1735  -21.3498  -12.3803 C   0  0  1  0  0  0  0  0  0  0  0  0
   27.9374  -21.2158  -11.1180 C   0  0  0  0  0  0  0  0  0  0  0  0
   27.1236  -21.0676   -9.8926 C   0  0  0  0  0  0  0  0  0  0  0  0
   25.8145  -21.4959   -9.7514 C   0  0  0  0  0  0  0  0  0  0  0  0
   25.4397  -21.2092   -8.4969 N   0  0  0  0  0  0  0  0  0  0  0  0
   26.4519  -20.6197   -7.8408 C   0  0  0  0  0  0  0  0  0  0  0  0
   26.5122  -20.1588   -6.5566 C   0  0  0  0  0  0  0  0  0  0  0  0
   27.6712  -19.5779   -6.1064 C   0  0  0  0  0  0  0  0  0  0  0  0
   28.7669  -19.4544   -6.9277 C   0  0  0  0  0  0  0  0  0  0  0  0
   28.6927  -19.9276   -8.2327 C   0  0  0  0  0  0  0  0  0  0  0  0
   27.5318  -20.5131   -8.6911 C   0  0  0  0  0  0  0  0  0  0  0  0
   26.0034  -20.4957  -12.5252 C   0  0  0  0  0  0  0  0  0  0  0  0
   26.1964  -19.2583  -12.6611 O   0  0  0  0  0  0  0  0  0  0  0  0
   21.4303  -21.8124  -15.5652 C   0  0  0  0  0  0  0  0  0  0  0  0
   22.0848  -21.6032  -14.2273 C   0  0  0  0  0  0  0  0  0  0  0  0
   22.8957  -20.3686  -14.0964 C   0  0  2  0  0  0  0  0  0  0  0  0
   23.8615  -20.3191  -15.2639 C   0  0  0  0  0  0  0  0  0  0  0  0
   23.5680  -20.1256  -12.7912 C   0  0  2  0  0  0  0  0  0  0  0  0
   24.6679  -20.9880  -12.5204 N   0  0  0  0  0  0  0  0  0  0  0  0
   22.6423  -20.1131  -11.6463 C   0  0  0  0  0  0  0  0  0  0  0  0
   21.7398  -19.0825  -11.4131 O   0  0  0  0  0  0  0  0  0  0  0  0
   22.6282  -21.0557  -10.8135 O   0  0  0  0  0  0  0  0  0  0  0  0
  2  4  1  0
  2  1  1  6
  2  3  1  0
  4  5  2  0
  6  7  1  0
  6  4  1  0
  7  8  1  1
  8  9  1  0
  9 17  1  0
 10  9  2  0
 10 11  1  0
 11 12  1  0
 12 17  2  0
 12 13  1  0
 13 14  2  0
 14 15  1  0
 16 15  2  0
 17 16  1  0
 18 19  2  0
 18  7  1  0
 21 22  1  0
 21 20  1  0
 22 23  1  6
 24 25  1  1
 24 22  1  0
 25 18  1  0
 26 24  1  0
 27 26  1  0
 28 26  2  0
M  END
$$$$
