AWI.pdb
     RDKit          3D

 28 29  0  0  1  0  0  0  0  0999 V2000
   27.0015  -21.4872  -16.7427 C   0  0  0  0  0  0  0  0  0  0  0  0
   27.7011  -21.8705  -15.4619 C   0  0  2  0  0  0  0  0  0  0  0  0
   28.3241  -23.1477  -15.6449 N   0  0  0  0  0  0  0  0  0  0  0  0
   26.7268  -21.9398  -14.3376 C   0  0  0  0  0  0  0  0  0  0  0  0
   26.0266  -22.9755  -14.1796 O   0  0  0  0  0  0  0  0  0  0  0  0
   26.5455  -20.8769  -13.4191 N   0  0  0  0  0  0  0  0  0  0  0  0
   25.6229  -20.8890  -12.3166 C   0  0  1  0  0  0  0  0  0  0  0  0
   26.0886  -20.0727  -11.1712 C   0  0  0  0  0  0  0  0  0  0  0  0
   27.2621  -20.6032  -10.4450 C   0  0  0  0  0  0  0  0  0  0  0  0
   28.3054  -21.3045  -11.0255 C   0  0  0  0  0  0  0  0  0  0  0  0
   29.1814  -21.5853  -10.0507 N   0  0  0  0  0  0  0  0  0  0  0  0
   28.7382  -21.0938   -8.8824 C   0  0  0  0  0  0  0  0  0  0  0  0
   29.3007  -21.1505   -7.6392 C   0  0  0  0  0  0  0  0  0  0  0  0
   28.6465  -20.5725   -6.5803 C   0  0  0  0  0  0  0  0  0  0  0  0
   27.4379  -19.9406   -6.7540 C   0  0  0  0  0  0  0  0  0  0  0  0
   26.8760  -19.8898   -8.0246 C   0  0  0  0  0  0  0  0  0  0  0  0
   27.5284  -20.4674   -9.0929 C   0  0  0  0  0  0  0  0  0  0  0  0
   24.2704  -20.6317  -12.7901 C   0  0  0  0  0  0  0  0  0  0  0  0
   24.0632  -19.5546  -13.4095 O   0  0  0  0  0  0  0  0  0  0  0  0
   21.7642  -23.6031  -16.2185 C   0  0  0  0  0  0  0  0  0  0  0  0
   22.2494  -22.5149  -15.3007 C   0  0  0  0  0  0  0  0  0  0  0  0
   21.4056  -22.2579  -14.1086 C   0  0  2  0  0  0  0  0  0  0  0  0
   19.9988  -21.9602  -14.5886 C   0  0  0  0  0  0  0  0  0  0  0  0
   21.8957  -21.2540  -13.1256 C   0  0  2  0  0  0  0  0  0  0  0  0
   23.1848  -21.5299  -12.5880 N   0  0  0  0  0  0  0  0  0  0  0  0
   20.9422  -20.9828  -12.0370 C   0  0  0  0  0  0  0  0  0  0  0  0
   20.9102  -21.7169  -10.8576 O   0  0  0  0  0  0  0  0  0  0  0  0
   20.0987  -20.0542  -12.1300 O   0  0  0  0  0  0  0  0  0  0  0  0
  2  4  1  0
  2  1  1  6
  2  3  1  0
  4  5  2  0
  6  7  1  0
  6  4  1  0
  7  8  1  1
  8  9  1  0
  9 17  1  0
 10  9  2  0
 10 11  1  0
 11 12  1  0
 12 17  2  0
 12 13  1  0
 13 14  2  0
 14 15  1  0
 16 15  2  0
 17 16  1  0
 18 19  2  0
 18  7  1  0
 21 22  1  0
 21 20  1  0
 22 23  1  6
 24 25  1  1
 24 22  1  0
 25 18  1  0
 26 24  1  0
 27 26  1  0
 28 26  2  0
M  END
$$$$
