AWI.pdb
     RDKit          3D

 28 29  0  0  1  0  0  0  0  0999 V2000
   28.4889  -19.4123  -15.1917 C   0  0  0  0  0  0  0  0  0  0  0  0
   28.7897  -20.7681  -14.6016 C   0  0  2  0  0  0  0  0  0  0  0  0
   28.6040  -21.7612  -15.6176 N   0  0  0  0  0  0  0  0  0  0  0  0
   27.8859  -21.0468  -13.4511 C   0  0  0  0  0  0  0  0  0  0  0  0
   26.7364  -21.5195  -13.6588 O   0  0  0  0  0  0  0  0  0  0  0  0
   28.2633  -20.8014  -12.1081 N   0  0  0  0  0  0  0  0  0  0  0  0
   27.4155  -21.0014  -10.9643 C   0  0  1  0  0  0  0  0  0  0  0  0
   28.1175  -20.7604   -9.6820 C   0  0  0  0  0  0  0  0  0  0  0  0
   27.2488  -20.6413   -8.4917 C   0  0  0  0  0  0  0  0  0  0  0  0
   25.8923  -20.9179   -8.4671 C   0  0  0  0  0  0  0  0  0  0  0  0
   25.4728  -20.7191   -7.2098 N   0  0  0  0  0  0  0  0  0  0  0  0
   26.5021  -20.3296   -6.4407 C   0  0  0  0  0  0  0  0  0  0  0  0
   26.5322  -20.0154   -5.1119 C   0  0  0  0  0  0  0  0  0  0  0  0
   27.7193  -19.6312   -4.5405 C   0  0  0  0  0  0  0  0  0  0  0  0
   28.8729  -19.5586   -5.2849 C   0  0  0  0  0  0  0  0  0  0  0  0
   28.8289  -19.8812   -6.6365 C   0  0  0  0  0  0  0  0  0  0  0  0
   27.6399  -20.2689   -7.2166 C   0  0  0  0  0  0  0  0  0  0  0  0
   26.1482  -20.3094  -11.1509 C   0  0  0  0  0  0  0  0  0  0  0  0
   26.1673  -19.0501  -11.1697 O   0  0  0  0  0  0  0  0  0  0  0  0
   22.1514  -19.2493  -15.0800 C   0  0  0  0  0  0  0  0  0  0  0  0
   22.3171  -19.3795  -13.5908 C   0  0  0  0  0  0  0  0  0  0  0  0
   23.5171  -20.1263  -13.1421 C   0  0  2  0  0  0  0  0  0  0  0  0
   23.5319  -21.4606  -13.8618 C   0  0  0  0  0  0  0  0  0  0  0  0
   23.7271  -20.2685  -11.6758 C   0  0  2  0  0  0  0  0  0  0  0  0
   24.9040  -20.9819  -11.3112 N   0  0  0  0  0  0  0  0  0  0  0  0
   22.5615  -20.8207  -10.9656 C   0  0  0  0  0  0  0  0  0  0  0  0
   22.5709  -22.0653  -10.3476 O   0  0  0  0  0  0  0  0  0  0  0  0
   21.4851  -20.1749  -10.8855 O   0  0  0  0  0  0  0  0  0  0  0  0
  2  4  1  0
  2  1  1  6
  2  3  1  0
  4  5  2  0
  6  7  1  0
  6  4  1  0
  7  8  1  1
  8  9  1  0
  9 17  1  0
 10  9  2  0
 10 11  1  0
 11 12  1  0
 12 17  2  0
 12 13  1  0
 13 14  2  0
 14 15  1  0
 16 15  2  0
 17 16  1  0
 18 19  2  0
 18  7  1  0
 21 22  1  0
 21 20  1  0
 22 23  1  6
 24 25  1  6
 24 22  1  0
 25 18  1  0
 26 24  1  0
 27 26  1  0
 28 26  2  0
M  END
$$$$
