AWI.pdb
     RDKit          3D

 28 29  0  0  1  0  0  0  0  0999 V2000
   28.0123  -20.6695  -15.5727 C   0  0  0  0  0  0  0  0  0  0  0  0
   28.6078  -21.2855  -14.3306 C   0  0  2  0  0  0  0  0  0  0  0  0
   29.1715  -22.5570  -14.6751 N   0  0  0  0  0  0  0  0  0  0  0  0
   27.5620  -21.4629  -13.2852 C   0  0  0  0  0  0  0  0  0  0  0  0
   26.8711  -22.5166  -13.2639 O   0  0  0  0  0  0  0  0  0  0  0  0
   27.3011  -20.4852  -12.2940 N   0  0  0  0  0  0  0  0  0  0  0  0
   26.3008  -20.5990  -11.2676 C   0  0  1  0  0  0  0  0  0  0  0  0
   26.6318  -19.8134  -10.0559 C   0  0  0  0  0  0  0  0  0  0  0  0
   27.6693  -20.3984   -9.1800 C   0  0  0  0  0  0  0  0  0  0  0  0
   28.7325  -21.1717   -9.6145 C   0  0  0  0  0  0  0  0  0  0  0  0
   29.4593  -21.4850   -8.5328 N   0  0  0  0  0  0  0  0  0  0  0  0
   28.9032  -20.9453   -7.4364 C   0  0  0  0  0  0  0  0  0  0  0  0
   29.2995  -21.0109   -6.1311 C   0  0  0  0  0  0  0  0  0  0  0  0
   28.5535  -20.3745   -5.1711 C   0  0  0  0  0  0  0  0  0  0  0  0
   27.4176  -19.6754   -5.5047 C   0  0  0  0  0  0  0  0  0  0  0  0
   27.0250  -19.6161   -6.8370 C   0  0  0  0  0  0  0  0  0  0  0  0
   27.7704  -20.2523   -7.8066 C   0  0  0  0  0  0  0  0  0  0  0  0
   24.9750  -20.3933  -11.8329 C   0  0  0  0  0  0  0  0  0  0  0  0
   24.7559  -19.3047  -12.4277 O   0  0  0  0  0  0  0  0  0  0  0  0
   22.9720  -23.5347  -15.4445 C   0  0  0  0  0  0  0  0  0  0  0  0
   23.3311  -22.4370  -14.4812 C   0  0  0  0  0  0  0  0  0  0  0  0
   22.3317  -22.1624  -13.4206 C   0  0  2  0  0  0  0  0  0  0  0  0
   21.0032  -21.8793  -14.0939 C   0  0  0  0  0  0  0  0  0  0  0  0
   22.6809  -21.1390  -12.3983 C   0  0  2  0  0  0  0  0  0  0  0  0
   23.9279  -21.3535  -11.7457 N   0  0  0  0  0  0  0  0  0  0  0  0
   21.6204  -20.9184  -11.4010 C   0  0  0  0  0  0  0  0  0  0  0  0
   20.6097  -19.9791  -11.5652 O   0  0  0  0  0  0  0  0  0  0  0  0
   21.5830  -21.5861  -10.3356 O   0  0  0  0  0  0  0  0  0  0  0  0
  2  4  1  0
  2  1  1  6
  2  3  1  0
  4  5  2  0
  6  7  1  0
  6  4  1  0
  7  8  1  1
  8  9  1  0
  9 17  1  0
 10  9  2  0
 10 11  1  0
 11 12  1  0
 12 17  2  0
 12 13  1  0
 13 14  2  0
 14 15  1  0
 16 15  2  0
 17 16  1  0
 18 19  2  0
 18  7  1  0
 21 22  1  0
 21 20  1  0
 22 23  1  6
 24 25  1  1
 24 22  1  0
 25 18  1  0
 26 24  1  0
 27 26  1  0
 28 26  2  0
M  END
$$$$
