AWI.pdb
     RDKit          3D

 28 29  0  0  1  0  0  0  0  0999 V2000
   20.9537  -21.0178  -14.2364 C   0  0  0  0  0  0  0  0  0  0  0  0
   21.1628  -20.6879  -12.7788 C   0  0  2  0  0  0  0  0  0  0  0  0
   20.3253  -19.5770  -12.4360 N   0  0  0  0  0  0  0  0  0  0  0  0
   22.5890  -20.3437  -12.5228 C   0  0  0  0  0  0  0  0  0  0  0  0
   23.0687  -19.2764  -12.9906 O   0  0  0  0  0  0  0  0  0  0  0  0
   23.4495  -21.1743  -11.7638 N   0  0  0  0  0  0  0  0  0  0  0  0
   24.8041  -20.8504  -11.4075 C   0  0  1  0  0  0  0  0  0  0  0  0
   25.2319  -21.4906  -10.1417 C   0  0  0  0  0  0  0  0  0  0  0  0
   26.6357  -21.2474   -9.7464 C   0  0  0  0  0  0  0  0  0  0  0  0
   27.7430  -21.5499  -10.5206 C   0  0  0  0  0  0  0  0  0  0  0  0
   28.8237  -21.1558   -9.8328 N   0  0  0  0  0  0  0  0  0  0  0  0
   28.4488  -20.6192   -8.6605 C   0  0  0  0  0  0  0  0  0  0  0  0
   29.2096  -20.0979   -7.6532 C   0  0  0  0  0  0  0  0  0  0  0  0
   28.5910  -19.6072   -6.5308 C   0  0  0  0  0  0  0  0  0  0  0  0
   27.2219  -19.6337   -6.4079 C   0  0  0  0  0  0  0  0  0  0  0  0
   26.4588  -20.1669   -7.4404 C   0  0  0  0  0  0  0  0  0  0  0  0
   27.0738  -20.6606   -8.5711 C   0  0  0  0  0  0  0  0  0  0  0  0
   25.6821  -21.0294  -12.5549 C   0  0  0  0  0  0  0  0  0  0  0  0
   25.5218  -22.0622  -13.2580 O   0  0  0  0  0  0  0  0  0  0  0  0
   27.2987  -16.2945  -15.1537 C   0  0  0  0  0  0  0  0  0  0  0  0
   26.7449  -17.6303  -14.7403 C   0  0  0  0  0  0  0  0  0  0  0  0
   27.7276  -18.7389  -14.6736 C   0  0  2  0  0  0  0  0  0  0  0  0
   28.4533  -18.7994  -16.0033 C   0  0  0  0  0  0  0  0  0  0  0  0
   27.2292  -20.0711  -14.2363 C   0  0  2  0  0  0  0  0  0  0  0  0
   26.7009  -20.1026  -12.9147 N   0  0  0  0  0  0  0  0  0  0  0  0
   28.2115  -21.1535  -14.4134 C   0  0  0  0  0  0  0  0  0  0  0  0
   28.2910  -21.9230  -15.5677 O   0  0  0  0  0  0  0  0  0  0  0  0
   29.0390  -21.4328  -13.5081 O   0  0  0  0  0  0  0  0  0  0  0  0
  2  4  1  0
  2  1  1  6
  2  3  1  0
  4  5  2  0
  6  7  1  0
  6  4  1  0
  7  8  1  1
  8  9  1  0
  9 17  1  0
 10  9  2  0
 10 11  1  0
 11 12  1  0
 12 17  2  0
 12 13  1  0
 13 14  2  0
 14 15  1  0
 16 15  2  0
 17 16  1  0
 18 19  2  0
 18  7  1  0
 21 22  1  0
 21 20  1  0
 22 23  1  6
 24 25  1  1
 24 22  1  0
 25 18  1  0
 26 24  1  0
 27 26  1  0
 28 26  2  0
M  END
$$$$
