AWI.pdb
     RDKit          3D

 28 29  0  0  1  0  0  0  0  0999 V2000
   28.1329  -18.2329  -14.6063 C   0  0  0  0  0  0  0  0  0  0  0  0
   28.6994  -19.6037  -14.3291 C   0  0  2  0  0  0  0  0  0  0  0  0
   29.1061  -20.1909  -15.5712 N   0  0  0  0  0  0  0  0  0  0  0  0
   27.6776  -20.4659  -13.6729 C   0  0  0  0  0  0  0  0  0  0  0  0
   26.8368  -21.0862  -14.3774 O   0  0  0  0  0  0  0  0  0  0  0  0
   27.6036  -20.6257  -12.2674 N   0  0  0  0  0  0  0  0  0  0  0  0
   26.6035  -21.3938  -11.5771 C   0  0  1  0  0  0  0  0  0  0  0  0
   27.0394  -21.8195  -10.2266 C   0  0  0  0  0  0  0  0  0  0  0  0
   26.8869  -20.8084   -9.1588 C   0  0  0  0  0  0  0  0  0  0  0  0
   25.9157  -19.8220   -9.1313 C   0  0  0  0  0  0  0  0  0  0  0  0
   26.0899  -19.1294   -7.9971 N   0  0  0  0  0  0  0  0  0  0  0  0
   27.1265  -19.6334   -7.3085 C   0  0  0  0  0  0  0  0  0  0  0  0
   27.6575  -19.2402   -6.1132 C   0  0  0  0  0  0  0  0  0  0  0  0
   28.7385  -19.9158   -5.6051 C   0  0  0  0  0  0  0  0  0  0  0  0
   29.2914  -20.9780   -6.2807 C   0  0  0  0  0  0  0  0  0  0  0  0
   28.7414  -21.3684   -7.4964 C   0  0  0  0  0  0  0  0  0  0  0  0
   27.6548  -20.6948   -8.0120 C   0  0  0  0  0  0  0  0  0  0  0  0
   25.3111  -20.7288  -11.6627 C   0  0  0  0  0  0  0  0  0  0  0  0
   25.2829  -19.4818  -11.4873 O   0  0  0  0  0  0  0  0  0  0  0  0
   22.1175  -18.6152  -15.5417 C   0  0  0  0  0  0  0  0  0  0  0  0
   21.9222  -19.2748  -14.2042 C   0  0  0  0  0  0  0  0  0  0  0  0
   23.0631  -20.0876  -13.7175 C   0  0  2  0  0  0  0  0  0  0  0  0
   23.4069  -21.0995  -14.7928 C   0  0  0  0  0  0  0  0  0  0  0  0
   22.9370  -20.7087  -12.3712 C   0  0  2  0  0  0  0  0  0  0  0  0
   24.0931  -21.4142  -11.9323 N   0  0  0  0  0  0  0  0  0  0  0  0
   21.7421  -21.5565  -12.2243 C   0  0  0  0  0  0  0  0  0  0  0  0
   21.7865  -22.9442  -12.2800 O   0  0  0  0  0  0  0  0  0  0  0  0
   20.6063  -21.0495  -12.0368 O   0  0  0  0  0  0  0  0  0  0  0  0
  2  4  1  0
  2  1  1  6
  2  3  1  0
  4  5  2  0
  6  7  1  0
  6  4  1  0
  7  8  1  1
  8  9  1  0
  9 17  1  0
 10  9  2  0
 10 11  1  0
 11 12  1  0
 12 17  2  0
 12 13  1  0
 13 14  2  0
 14 15  1  0
 16 15  2  0
 17 16  1  0
 18 19  2  0
 18  7  1  0
 21 22  1  0
 21 20  1  0
 22 23  1  6
 24 25  1  6
 24 22  1  0
 25 18  1  0
 26 24  1  0
 27 26  1  0
 28 26  2  0
M  END
$$$$
