DDT.pdb
     RDKit          3D

 24 23  0  0  1  0  0  0  0  0999 V2000
   18.7959  -11.2345  -18.4828 N   0  0  0  0  0  0  0  0  0  0  0  0
   19.4136  -10.6839  -17.3182 C   0  0  1  0  0  0  0  0  0  0  0  0
   20.8713  -11.0797  -17.2852 C   0  0  0  0  0  0  0  0  0  0  0  0
   20.9358  -12.5194  -16.9680 C   0  0  0  0  0  0  0  0  0  0  0  0
   20.0253  -13.0759  -16.3212 O   0  0  0  0  0  0  0  0  0  0  0  0
   19.1919   -9.2393  -17.2090 C   0  0  0  0  0  0  0  0  0  0  0  0
   19.6854   -8.4884  -18.0906 O   0  0  0  0  0  0  0  0  0  0  0  0
   22.0159  -13.2623  -17.3907 O   0  0  0  0  0  0  0  0  0  0  0  0
   18.4564   -8.6170  -16.1756 N   0  0  0  0  0  0  0  0  0  0  0  0
   18.2569   -7.2000  -16.0559 C   0  0  1  0  0  0  0  0  0  0  0  0
   16.8893   -6.8340  -15.5987 C   0  0  0  0  0  0  0  0  0  0  0  0
   16.6507   -5.3942  -15.4838 C   0  0  0  0  0  0  0  0  0  0  0  0
   17.1583   -4.5351  -16.2469 O   0  0  0  0  0  0  0  0  0  0  0  0
   19.2816   -6.5414  -15.2204 C   0  0  0  0  0  0  0  0  0  0  0  0
   19.4353   -6.9580  -14.0443 O   0  0  0  0  0  0  0  0  0  0  0  0
   15.8173   -4.9257  -14.4795 O   0  0  0  0  0  0  0  0  0  0  0  0
   23.5226   -4.5756  -14.3337 C   0  0  0  0  0  0  0  0  0  0  0  0
   22.4903   -5.2236  -15.2247 C   0  0  1  0  0  0  0  0  0  0  0  0
   22.7149   -6.5974  -15.1692 O   0  0  0  0  0  0  0  0  0  0  0  0
   21.0811   -4.9150  -14.7559 C   0  0  2  0  0  0  0  0  0  0  0  0
   20.1026   -5.4711  -15.6569 N   0  0  0  0  0  0  0  0  0  0  0  0
   20.8824   -3.4406  -14.6073 C   0  0  0  0  0  0  0  0  0  0  0  0
   20.6795   -2.9221  -13.4822 O   0  0  0  0  0  0  0  0  0  0  0  0
   20.9108   -2.5738  -15.6906 O   0  0  0  0  0  0  0  0  0  0  0  0
  2  1  1  6
  2  3  1  0
  3  4  1  0
  4  5  2  0
  4  8  1  0
  6  2  1  0
  6  7  2  0
  9  6  1  0
 10  9  1  0
 10 11  1  1
 12 11  1  0
 12 16  1  0
 13 12  2  0
 14 10  1  0
 14 21  1  0
 15 14  2  0
 18 17  1  1
 18 19  1  0
 18 20  1  0
 20 21  1  6
 20 22  1  0
 22 23  2  0
 22 24  1  0
M  END
$$$$
