DDT.pdb
     RDKit          3D

 24 23  0  0  1  0  0  0  0  0999 V2000
   20.6146  -11.0325  -16.3379 N   0  0  0  0  0  0  0  0  0  0  0  0
   19.3593  -10.4134  -16.0520 C   0  0  1  0  0  0  0  0  0  0  0  0
   18.5567  -11.3018  -15.1304 C   0  0  0  0  0  0  0  0  0  0  0  0
   18.3409  -12.5859  -15.8247 C   0  0  0  0  0  0  0  0  0  0  0  0
   19.1511  -12.9979  -16.6795 O   0  0  0  0  0  0  0  0  0  0  0  0
   19.5219   -9.0435  -15.5570 C   0  0  0  0  0  0  0  0  0  0  0  0
   18.4930   -8.4019  -15.2188 O   0  0  0  0  0  0  0  0  0  0  0  0
   17.2293  -13.3429  -15.5268 O   0  0  0  0  0  0  0  0  0  0  0  0
   20.7623   -8.3795  -15.4288 N   0  0  0  0  0  0  0  0  0  0  0  0
   20.9188   -7.0221  -14.9868 C   0  0  1  0  0  0  0  0  0  0  0  0
   22.0863   -6.8269  -14.0857 C   0  0  0  0  0  0  0  0  0  0  0  0
   22.2855   -5.4475  -13.6373 C   0  0  0  0  0  0  0  0  0  0  0  0
   21.7009   -4.9392  -12.6485 O   0  0  0  0  0  0  0  0  0  0  0  0
   20.9496   -6.0524  -16.1005 C   0  0  0  0  0  0  0  0  0  0  0  0
   21.9513   -6.0637  -16.8601 O   0  0  0  0  0  0  0  0  0  0  0  0
   23.1682   -4.6329  -14.3301 O   0  0  0  0  0  0  0  0  0  0  0  0
   19.0807   -5.6732  -19.1925 C   0  0  0  0  0  0  0  0  0  0  0  0
   18.9811   -4.3439  -18.4837 C   0  0  1  0  0  0  0  0  0  0  0  0
   17.7410   -4.3171  -17.8493 O   0  0  0  0  0  0  0  0  0  0  0  0
   20.0858   -4.1785  -17.4576 C   0  0  2  0  0  0  0  0  0  0  0  0
   19.9248   -5.1101  -16.3692 N   0  0  0  0  0  0  0  0  0  0  0  0
   20.1293   -2.7740  -16.9467 C   0  0  0  0  0  0  0  0  0  0  0  0
   19.7631   -2.4953  -15.7788 O   0  0  0  0  0  0  0  0  0  0  0  0
   20.5711   -1.7134  -17.7249 O   0  0  0  0  0  0  0  0  0  0  0  0
  2  1  1  1
  2  3  1  0
  3  4  1  0
  4  5  2  0
  4  8  1  0
  6  2  1  0
  6  7  2  0
  9  6  1  0
 10  9  1  0
 10 11  1  6
 12 11  1  0
 12 16  1  0
 13 12  2  0
 14 10  1  0
 14 21  1  0
 15 14  2  0
 18 17  1  1
 18 19  1  0
 18 20  1  0
 20 21  1  1
 20 22  1  0
 22 23  2  0
 22 24  1  0
M  END
$$$$
