DDT.pdb
     RDKit          3D

 24 23  0  0  1  0  0  0  0  0999 V2000
   13.2957  -14.7428  -11.8179 N   0  0  0  0  0  0  0  0  0  0  0  0
   13.0079  -13.3528  -11.6571 C   0  0  1  0  0  0  0  0  0  0  0  0
   12.2973  -13.1333  -10.3419 C   0  0  0  0  0  0  0  0  0  0  0  0
   10.9896  -13.8122  -10.4225 C   0  0  0  0  0  0  0  0  0  0  0  0
   10.5193  -14.1718  -11.5210 O   0  0  0  0  0  0  0  0  0  0  0  0
   14.2021  -12.5206  -11.8284 C   0  0  0  0  0  0  0  0  0  0  0  0
   15.2841  -12.9118  -11.3176 O   0  0  0  0  0  0  0  0  0  0  0  0
   10.2754  -14.0538   -9.2699 O   0  0  0  0  0  0  0  0  0  0  0  0
   14.2317  -11.2964  -12.5330 N   0  0  0  0  0  0  0  0  0  0  0  0
   15.3942  -10.4654  -12.6756 C   0  0  1  0  0  0  0  0  0  0  0  0
   15.8650  -10.3472  -14.0818 C   0  0  0  0  0  0  0  0  0  0  0  0
   17.1062   -9.5884  -14.2466 C   0  0  0  0  0  0  0  0  0  0  0  0
   17.3364   -8.8201  -15.2135 O   0  0  0  0  0  0  0  0  0  0  0  0
   15.2278   -9.1305  -12.0657 C   0  0  0  0  0  0  0  0  0  0  0  0
   14.1940   -8.4774  -12.3576 O   0  0  0  0  0  0  0  0  0  0  0  0
   18.1032   -9.7082  -13.2904 O   0  0  0  0  0  0  0  0  0  0  0  0
   15.1197   -8.0139   -8.3485 C   0  0  0  0  0  0  0  0  0  0  0  0
   16.1527   -7.2255   -9.1172 C   0  0  1  0  0  0  0  0  0  0  0  0
   17.3856   -7.8236   -8.8658 O   0  0  0  0  0  0  0  0  0  0  0  0
   15.8682   -7.2433  -10.6070 C   0  0  2  0  0  0  0  0  0  0  0  0
   16.1564   -8.5374  -11.1734 N   0  0  0  0  0  0  0  0  0  0  0  0
   16.6459   -6.1762  -11.3083 C   0  0  0  0  0  0  0  0  0  0  0  0
   16.4478   -4.9608  -11.0648 O   0  0  0  0  0  0  0  0  0  0  0  0
   17.6178   -6.4657  -12.2556 O   0  0  0  0  0  0  0  0  0  0  0  0
  2  1  1  1
  2  3  1  0
  3  4  1  0
  4  5  2  0
  4  8  1  0
  6  2  1  0
  6  7  2  0
  9  6  1  0
 10  9  1  0
 10 11  1  6
 12 11  1  0
 12 16  1  0
 13 12  2  0
 14 10  1  0
 14 21  1  0
 15 14  2  0
 18 17  1  1
 18 19  1  0
 18 20  1  0
 20 21  1  6
 20 22  1  0
 22 23  2  0
 22 24  1  0
M  END
$$$$
