DDT.pdb
     RDKit          3D

 24 23  0  0  1  0  0  0  0  0999 V2000
   16.4790  -12.8899  -15.2963 N   0  0  0  0  0  0  0  0  0  0  0  0
   15.8876  -11.6035  -15.1060 C   0  0  1  0  0  0  0  0  0  0  0  0
   14.4422  -11.7679  -14.6980 C   0  0  0  0  0  0  0  0  0  0  0  0
   13.7179  -12.3484  -15.8452 C   0  0  0  0  0  0  0  0  0  0  0  0
   12.9084  -13.2846  -15.6865 O   0  0  0  0  0  0  0  0  0  0  0  0
   16.6685  -10.7697  -14.1879 C   0  0  0  0  0  0  0  0  0  0  0  0
   16.9133  -11.2135  -13.0356 O   0  0  0  0  0  0  0  0  0  0  0  0
   13.9369  -11.8515  -17.1110 O   0  0  0  0  0  0  0  0  0  0  0  0
   17.1744   -9.4885  -14.5020 N   0  0  0  0  0  0  0  0  0  0  0  0
   17.8850   -8.6444  -13.5830 C   0  0  1  0  0  0  0  0  0  0  0  0
   19.0142   -7.9078  -14.2120 C   0  0  0  0  0  0  0  0  0  0  0  0
   19.7723   -7.0561  -13.2937 C   0  0  0  0  0  0  0  0  0  0  0  0
   20.1832   -7.4295  -12.1669 O   0  0  0  0  0  0  0  0  0  0  0  0
   17.0002   -7.7174  -12.8484 C   0  0  0  0  0  0  0  0  0  0  0  0
   16.0175   -7.2330  -13.4648 O   0  0  0  0  0  0  0  0  0  0  0  0
   20.0672   -5.7539  -13.6681 O   0  0  0  0  0  0  0  0  0  0  0  0
   15.4729   -5.4322   -8.7221 C   0  0  0  0  0  0  0  0  0  0  0  0
   16.4432   -6.3867   -9.3755 C   0  0  1  0  0  0  0  0  0  0  0  0
   16.1937   -7.6470   -8.8368 O   0  0  0  0  0  0  0  0  0  0  0  0
   16.2546   -6.4255  -10.8801 C   0  0  2  0  0  0  0  0  0  0  0  0
   17.1861   -7.3380  -11.4950 N   0  0  0  0  0  0  0  0  0  0  0  0
   16.3919   -5.0574  -11.4674 C   0  0  0  0  0  0  0  0  0  0  0  0
   17.4882   -4.6543  -11.9273 O   0  0  0  0  0  0  0  0  0  0  0  0
   15.3290   -4.1679  -11.5361 O   0  0  0  0  0  0  0  0  0  0  0  0
  2  1  1  1
  2  3  1  0
  3  4  1  0
  4  5  2  0
  4  8  1  0
  6  2  1  0
  6  7  2  0
  9  6  1  0
 10  9  1  0
 10 11  1  6
 12 11  1  0
 12 16  1  0
 13 12  2  0
 14 10  1  0
 14 21  1  0
 15 14  2  0
 18 17  1  1
 18 19  1  0
 18 20  1  0
 20 21  1  6
 20 22  1  0
 22 23  2  0
 22 24  1  0
M  END
$$$$
