DDT.pdb
     RDKit          3D

 24 23  0  0  1  0  0  0  0  0999 V2000
   17.5623  -11.0759  -16.7441 N   0  0  0  0  0  0  0  0  0  0  0  0
   18.7619  -10.7731  -16.0297 C   0  0  1  0  0  0  0  0  0  0  0  0
   19.9413  -10.8426  -16.9714 C   0  0  0  0  0  0  0  0  0  0  0  0
   20.1475  -12.2605  -17.3244 C   0  0  0  0  0  0  0  0  0  0  0  0
   19.7768  -13.1734  -16.5588 O   0  0  0  0  0  0  0  0  0  0  0  0
   18.6627   -9.5053  -15.3010 C   0  0  0  0  0  0  0  0  0  0  0  0
   18.2376   -8.4921  -15.9152 O   0  0  0  0  0  0  0  0  0  0  0  0
   20.7579  -12.5839  -18.5161 O   0  0  0  0  0  0  0  0  0  0  0  0
   19.0127   -9.3317  -13.9432 N   0  0  0  0  0  0  0  0  0  0  0  0
   19.0104   -8.0712  -13.2552 C   0  0  1  0  0  0  0  0  0  0  0  0
   18.6265   -8.1829  -11.8222 C   0  0  0  0  0  0  0  0  0  0  0  0
   17.1922   -8.3596  -11.5881 C   0  0  0  0  0  0  0  0  0  0  0  0
   16.3238   -8.3306  -12.4953 O   0  0  0  0  0  0  0  0  0  0  0  0
   20.2810   -7.3322  -13.4004 C   0  0  0  0  0  0  0  0  0  0  0  0
   21.3470   -7.9395  -13.1264 O   0  0  0  0  0  0  0  0  0  0  0  0
   16.7403   -8.5736  -10.2948 O   0  0  0  0  0  0  0  0  0  0  0  0
   21.3474   -6.0635  -16.5771 C   0  0  0  0  0  0  0  0  0  0  0  0
   22.2551   -6.1610  -15.3747 C   0  0  1  0  0  0  0  0  0  0  0  0
   23.4643   -5.5690  -15.7332 O   0  0  0  0  0  0  0  0  0  0  0  0
   21.6671   -5.4410  -14.1762 C   0  0  2  0  0  0  0  0  0  0  0  0
   20.3777   -5.9837  -13.8279 N   0  0  0  0  0  0  0  0  0  0  0  0
   21.5676   -3.9720  -14.4360 C   0  0  0  0  0  0  0  0  0  0  0  0
   22.5942   -3.2731  -14.6188 O   0  0  0  0  0  0  0  0  0  0  0  0
   20.3506   -3.3073  -14.4891 O   0  0  0  0  0  0  0  0  0  0  0  0
  2  1  1  6
  2  3  1  0
  3  4  1  0
  4  5  2  0
  4  8  1  0
  6  2  1  0
  6  7  2  0
  9  6  1  0
 10  9  1  0
 10 11  1  1
 12 11  1  0
 12 16  1  0
 13 12  2  0
 14 10  1  0
 14 21  1  0
 15 14  2  0
 18 17  1  6
 18 19  1  0
 18 20  1  0
 20 21  1  6
 20 22  1  0
 22 23  2  0
 22 24  1  0
M  END
$$$$
