DDT.pdb
     RDKit          3D

 24 23  0  0  1  0  0  0  0  0999 V2000
   44.7555  -10.4629   -6.4786 N   0  0  0  0  0  0  0  0  0  0  0  0
   43.4130   -9.9866   -6.3699 C   0  0  1  0  0  0  0  0  0  0  0  0
   43.3832   -8.7572   -5.4922 C   0  0  0  0  0  0  0  0  0  0  0  0
   43.7054   -9.1831   -4.1166 C   0  0  0  0  0  0  0  0  0  0  0  0
   44.6131  -10.0105   -3.8965 O   0  0  0  0  0  0  0  0  0  0  0  0
   42.7916   -9.7896   -7.6825 C   0  0  0  0  0  0  0  0  0  0  0  0
   43.5250   -9.4548   -8.6493 O   0  0  0  0  0  0  0  0  0  0  0  0
   42.9952   -8.6612   -3.0581 O   0  0  0  0  0  0  0  0  0  0  0  0
   41.4133   -9.9491   -7.9489 N   0  0  0  0  0  0  0  0  0  0  0  0
   40.7938   -9.6975   -9.2199 C   0  0  1  0  0  0  0  0  0  0  0  0
   39.9089  -10.8041   -9.6733 C   0  0  0  0  0  0  0  0  0  0  0  0
   39.3664  -10.6359  -11.0227 C   0  0  0  0  0  0  0  0  0  0  0  0
   38.3717   -9.9189  -11.2953 O   0  0  0  0  0  0  0  0  0  0  0  0
   40.0816   -8.4045   -9.2689 C   0  0  0  0  0  0  0  0  0  0  0  0
   39.2808   -8.1406   -8.3364 O   0  0  0  0  0  0  0  0  0  0  0  0
   39.9702  -11.2982  -12.0807 O   0  0  0  0  0  0  0  0  0  0  0  0
   39.5526   -3.7322  -10.3388 C   0  0  0  0  0  0  0  0  0  0  0  0
   40.3327   -5.0137  -10.5079 C   0  0  1  0  0  0  0  0  0  0  0  0
   41.3687   -4.9810   -9.5770 O   0  0  0  0  0  0  0  0  0  0  0  0
   39.4607   -6.2303  -10.2623 C   0  0  2  0  0  0  0  0  0  0  0  0
   40.2411   -7.4420  -10.2977 N   0  0  0  0  0  0  0  0  0  0  0  0
   38.3453   -6.2928  -11.2559 C   0  0  0  0  0  0  0  0  0  0  0  0
   38.4862   -6.8826  -12.3552 O   0  0  0  0  0  0  0  0  0  0  0  0
   37.1078   -5.7101  -11.0220 O   0  0  0  0  0  0  0  0  0  0  0  0
  2  1  1  6
  2  3  1  0
  3  4  1  0
  4  5  2  0
  4  8  1  0
  6  2  1  0
  6  7  2  0
  9  6  1  0
 10  9  1  0
 10 11  1  1
 12 11  1  0
 12 16  1  0
 13 12  2  0
 14 10  1  0
 14 21  1  0
 15 14  2  0
 18 17  1  1
 18 19  1  0
 18 20  1  0
 20 21  1  6
 20 22  1  0
 22 23  2  0
 22 24  1  0
M  END
$$$$
