DDT.pdb
     RDKit          3D

 24 23  0  0  1  0  0  0  0  0999 V2000
   18.2806  -11.2241  -14.9385 N   0  0  0  0  0  0  0  0  0  0  0  0
   18.8643  -10.3234  -15.8814 C   0  0  1  0  0  0  0  0  0  0  0  0
   18.0167  -10.2822  -17.1314 C   0  0  0  0  0  0  0  0  0  0  0  0
   18.0204  -11.6363  -17.7179 C   0  0  0  0  0  0  0  0  0  0  0  0
   19.0733  -12.3020  -17.7903 O   0  0  0  0  0  0  0  0  0  0  0  0
   19.1179   -9.0036  -15.2968 C   0  0  0  0  0  0  0  0  0  0  0  0
   18.1583   -8.3912  -14.7594 O   0  0  0  0  0  0  0  0  0  0  0  0
   16.8456  -12.1759  -18.1932 O   0  0  0  0  0  0  0  0  0  0  0  0
   20.3744   -8.3577  -15.2904 N   0  0  0  0  0  0  0  0  0  0  0  0
   20.6173   -7.0517  -14.7448 C   0  0  1  0  0  0  0  0  0  0  0  0
   21.8670   -6.9718  -13.9417 C   0  0  0  0  0  0  0  0  0  0  0  0
   22.0889   -5.6809  -13.2876 C   0  0  0  0  0  0  0  0  0  0  0  0
   21.3936   -5.2472  -12.3356 O   0  0  0  0  0  0  0  0  0  0  0  0
   20.5819   -5.9842  -15.7651 C   0  0  0  0  0  0  0  0  0  0  0  0
   21.2453   -6.1581  -16.8186 O   0  0  0  0  0  0  0  0  0  0  0  0
   23.1237   -4.8697  -13.7280 O   0  0  0  0  0  0  0  0  0  0  0  0
   18.4207   -2.4973  -18.2835 C   0  0  0  0  0  0  0  0  0  0  0  0
   18.4327   -3.4932  -17.1489 C   0  0  1  0  0  0  0  0  0  0  0  0
   17.7976   -4.6425  -17.6143 O   0  0  0  0  0  0  0  0  0  0  0  0
   19.8486   -3.8277  -16.7197 C   0  0  2  0  0  0  0  0  0  0  0  0
   19.8497   -4.7771  -15.6347 N   0  0  0  0  0  0  0  0  0  0  0  0
   20.5935   -2.5893  -16.3368 C   0  0  0  0  0  0  0  0  0  0  0  0
   20.4553   -2.0724  -15.2011 O   0  0  0  0  0  0  0  0  0  0  0  0
   21.4679   -1.9497  -17.2040 O   0  0  0  0  0  0  0  0  0  0  0  0
  2  1  1  1
  2  3  1  0
  3  4  1  0
  4  5  2  0
  4  8  1  0
  6  2  1  0
  6  7  2  0
  9  6  1  0
 10  9  1  0
 10 11  1  6
 12 11  1  0
 12 16  1  0
 13 12  2  0
 14 10  1  0
 14 21  1  0
 15 14  2  0
 18 17  1  6
 18 19  1  0
 18 20  1  0
 20 21  1  1
 20 22  1  0
 22 23  2  0
 22 24  1  0
M  END
$$$$
