DDT.pdb
     RDKit          3D

 24 23  0  0  1  0  0  0  0  0999 V2000
   25.1369  -21.9392  -13.8107 N   0  0  0  0  0  0  0  0  0  0  0  0
   24.6094  -20.7141  -14.3225 C   0  0  1  0  0  0  0  0  0  0  0  0
   25.2111  -20.4335  -15.6796 C   0  0  0  0  0  0  0  0  0  0  0  0
   26.6773  -20.3922  -15.5179 C   0  0  0  0  0  0  0  0  0  0  0  0
   27.4216  -20.1097  -16.4786 O   0  0  0  0  0  0  0  0  0  0  0  0
   23.1439  -20.6997  -14.3125 C   0  0  0  0  0  0  0  0  0  0  0  0
   22.5361  -20.7459  -15.4138 O   0  0  0  0  0  0  0  0  0  0  0  0
   27.2350  -20.6692  -14.2893 O   0  0  0  0  0  0  0  0  0  0  0  0
   22.3508  -20.6373  -13.1449 N   0  0  0  0  0  0  0  0  0  0  0  0
   20.9151  -20.6660  -13.1317 C   0  0  1  0  0  0  0  0  0  0  0  0
   20.3462  -21.0835  -11.8220 C   0  0  0  0  0  0  0  0  0  0  0  0
   18.9252  -21.4338  -11.8594 C   0  0  0  0  0  0  0  0  0  0  0  0
   18.2233  -21.4102  -12.9009 O   0  0  0  0  0  0  0  0  0  0  0  0
   20.3084  -19.3981  -13.5854 C   0  0  0  0  0  0  0  0  0  0  0  0
   20.7813  -18.3260  -13.1302 O   0  0  0  0  0  0  0  0  0  0  0  0
   18.2934  -21.8185  -10.6865 O   0  0  0  0  0  0  0  0  0  0  0  0
   18.3089  -16.4996  -16.8467 C   0  0  0  0  0  0  0  0  0  0  0  0
   18.8519  -17.8382  -16.4076 C   0  0  1  0  0  0  0  0  0  0  0  0
   20.1902  -17.8765  -16.7928 O   0  0  0  0  0  0  0  0  0  0  0  0
   18.7455  -18.0137  -14.9047 C   0  0  2  0  0  0  0  0  0  0  0  0
   19.2283  -19.3104  -14.4997 N   0  0  0  0  0  0  0  0  0  0  0  0
   17.3378  -17.8085  -14.4449 C   0  0  0  0  0  0  0  0  0  0  0  0
   16.4482  -18.6646  -14.6722 O   0  0  0  0  0  0  0  0  0  0  0  0
   16.9405  -16.6748  -13.7501 O   0  0  0  0  0  0  0  0  0  0  0  0
  2  1  1  6
  2  3  1  0
  3  4  1  0
  4  5  2  0
  4  8  1  0
  6  2  1  0
  6  7  2  0
  9  6  1  0
 10  9  1  0
 10 11  1  1
 12 11  1  0
 12 16  1  0
 13 12  2  0
 14 10  1  0
 14 21  1  0
 15 14  2  0
 18 17  1  1
 18 19  1  0
 18 20  1  0
 20 21  1  6
 20 22  1  0
 22 23  2  0
 22 24  1  0
M  END
$$$$
