DDT.pdb
     RDKit          3D

 24 23  0  0  1  0  0  0  0  0999 V2000
   20.0769  -12.3889  -16.6068 N   0  0  0  0  0  0  0  0  0  0  0  0
   19.9862  -11.1948  -17.3858 C   0  0  1  0  0  0  0  0  0  0  0  0
   18.9624  -11.3831  -18.4808 C   0  0  0  0  0  0  0  0  0  0  0  0
   19.4439  -12.4654  -19.3607 C   0  0  0  0  0  0  0  0  0  0  0  0
   20.4608  -12.3137  -20.0678 O   0  0  0  0  0  0  0  0  0  0  0  0
   19.7492  -10.0119  -16.5535 C   0  0  0  0  0  0  0  0  0  0  0  0
   18.7063   -9.9731  -15.8496 O   0  0  0  0  0  0  0  0  0  0  0  0
   18.7628  -13.6618  -19.4043 O   0  0  0  0  0  0  0  0  0  0  0  0
   20.6139   -8.8970  -16.4801 N   0  0  0  0  0  0  0  0  0  0  0  0
   20.3647   -7.7222  -15.6928 C   0  0  1  0  0  0  0  0  0  0  0  0
   21.3653   -7.5145  -14.6116 C   0  0  0  0  0  0  0  0  0  0  0  0
   21.2138   -8.4081  -13.4619 C   0  0  0  0  0  0  0  0  0  0  0  0
   20.1088   -8.8398  -13.0489 O   0  0  0  0  0  0  0  0  0  0  0  0
   20.2162   -6.5007  -16.5098 C   0  0  0  0  0  0  0  0  0  0  0  0
   21.2270   -6.0837  -17.1299 O   0  0  0  0  0  0  0  0  0  0  0  0
   22.3441   -8.8169  -12.7705 O   0  0  0  0  0  0  0  0  0  0  0  0
   17.7558   -5.8740  -19.3695 C   0  0  0  0  0  0  0  0  0  0  0  0
   17.7081   -4.7087  -18.4108 C   0  0  1  0  0  0  0  0  0  0  0  0
   16.5863   -4.8944  -17.6058 O   0  0  0  0  0  0  0  0  0  0  0  0
   18.9542   -4.6490  -17.5482 C   0  0  2  0  0  0  0  0  0  0  0  0
   19.0094   -5.7678  -16.6406 N   0  0  0  0  0  0  0  0  0  0  0  0
   19.0181   -3.3578  -16.7970 C   0  0  0  0  0  0  0  0  0  0  0  0
   19.1574   -2.2634  -17.3960 O   0  0  0  0  0  0  0  0  0  0  0  0
   18.9281   -3.2975  -15.4136 O   0  0  0  0  0  0  0  0  0  0  0  0
  2  1  1  1
  2  3  1  0
  3  4  1  0
  4  5  2  0
  4  8  1  0
  6  2  1  0
  6  7  2  0
  9  6  1  0
 10  9  1  0
 10 11  1  1
 12 11  1  0
 12 16  1  0
 13 12  2  0
 14 10  1  0
 14 21  1  0
 15 14  2  0
 18 17  1  6
 18 19  1  0
 18 20  1  0
 20 21  1  1
 20 22  1  0
 22 23  2  0
 22 24  1  0
M  END
$$$$
