FLC.pdb
     RDKit          3D

 26 26  0  0  1  0  0  0  0  0999 V2000
    9.7860  -17.6572   21.5682 N   0  0  0  0  0  0  0  0  0  0  0  0
    9.1894  -16.3687   21.8509 C   0  0  1  0  0  0  0  0  0  0  0  0
    7.8936  -16.1793   21.1118 C   0  0  0  0  0  0  0  0  0  0  0  0
    7.6467  -14.8214   20.6489 C   0  0  0  0  0  0  0  0  0  0  0  0
    8.3471  -14.3738   19.5458 C   0  0  0  0  0  0  0  0  0  0  0  0
    8.1818  -13.1197   19.0422 C   0  0  0  0  0  0  0  0  0  0  0  0
    7.3069  -12.2553   19.6203 C   0  0  0  0  0  0  0  0  0  0  0  0
    6.5832  -12.6485   20.7213 C   0  0  0  0  0  0  0  0  0  0  0  0
    6.7679  -13.9203   21.2113 C   0  0  0  0  0  0  0  0  0  0  0  0
    8.8747  -16.3369   23.3009 C   0  0  0  0  0  0  0  0  0  0  0  0
    9.4260  -17.1564   24.0748 O   0  0  0  0  0  0  0  0  0  0  0  0
    8.3552  -12.1461   25.3783 C   0  0  0  0  0  0  0  0  0  0  0  0
    7.2617  -12.8822   26.0498 C   0  0  1  0  0  0  0  0  0  0  0  0
    6.0073  -11.9826   26.1696 C   0  0  0  0  0  0  0  0  0  0  0  0
    6.8491  -14.1950   25.5356 C   0  0  0  0  0  0  0  0  0  0  0  0
    7.8235  -15.2909   25.3515 C   0  0  2  0  0  0  0  0  0  0  0  0
    7.9656  -15.4101   23.8699 N   0  0  0  0  0  0  0  0  0  0  0  0
    7.4774  -16.6247   25.8232 C   0  0  0  0  0  0  0  0  0  0  0  0
    6.3425  -17.1907   25.6653 O   0  0  0  0  0  0  0  0  0  0  0  0
    8.4399  -17.4126   26.5254 N   0  0  0  0  0  0  0  0  0  0  0  0
    8.0553  -18.7060   27.0870 C   0  0  1  0  0  0  0  0  0  0  0  0
    8.2710  -19.8026   26.0672 C   0  0  0  0  0  0  0  0  0  0  0  0
    8.1845  -21.4390   26.7911 S   0  0  0  0  0  0  0  0  0  0  0  0
    8.8212  -18.9184   28.3189 C   0  0  0  0  0  0  0  0  0  0  0  0
    9.8918  -18.0995   28.6247 O   0  0  0  0  0  0  0  0  0  0  0  0
    8.5694  -19.8270   29.1554 O   0  0  0  0  0  0  0  0  0  0  0  0
  2  1  1  6
  3  2  1  0
  4  3  1  0
  5  4  2  0
  6  7  2  0
  6  5  1  0
  7  8  1  0
  8  9  2  0
  9  4  1  0
 10  2  1  0
 10 17  1  0
 11 10  2  0
 13 14  1  6
 13 12  1  0
 15 13  1  0
 16 15  1  6
 16 17  1  0
 18 16  1  0
 19 18  2  0
 20 18  1  0
 21 20  1  0
 21 22  1  6
 23 22  1  0
 24 21  1  0
 24 25  1  0
 26 24  2  0
M  END
$$$$
