FLC.pdb
     RDKit          3D

 26 26  0  0  1  0  0  0  0  0999 V2000
   10.9024  -17.3057   21.4901 N   0  0  0  0  0  0  0  0  0  0  0  0
   10.0558  -16.1371   21.6064 C   0  0  1  0  0  0  0  0  0  0  0  0
    8.7754  -16.2963   20.8340 C   0  0  0  0  0  0  0  0  0  0  0  0
    8.1240  -15.0474   20.4665 C   0  0  0  0  0  0  0  0  0  0  0  0
    6.7541  -14.9597   20.6195 C   0  0  0  0  0  0  0  0  0  0  0  0
    6.0600  -13.8324   20.3021 C   0  0  0  0  0  0  0  0  0  0  0  0
    6.7059  -12.7399   19.8164 C   0  0  0  0  0  0  0  0  0  0  0  0
    8.0696  -12.7718   19.6439 C   0  0  0  0  0  0  0  0  0  0  0  0
    8.7483  -13.9222   19.9718 C   0  0  0  0  0  0  0  0  0  0  0  0
    9.6890  -15.9987   23.0378 C   0  0  0  0  0  0  0  0  0  0  0  0
   10.1224  -16.8283   23.8735 O   0  0  0  0  0  0  0  0  0  0  0  0
    6.2236  -12.3398   26.6824 C   0  0  0  0  0  0  0  0  0  0  0  0
    7.5739  -12.8178   26.3128 C   0  0  1  0  0  0  0  0  0  0  0  0
    8.2052  -13.5983   27.4915 C   0  0  0  0  0  0  0  0  0  0  0  0
    7.7544  -13.6004   25.0828 C   0  0  0  0  0  0  0  0  0  0  0  0
    8.7968  -14.6430   24.9794 C   0  0  2  0  0  0  0  0  0  0  0  0
    8.8578  -14.9571   23.5210 N   0  0  0  0  0  0  0  0  0  0  0  0
    8.5827  -15.9186   25.6491 C   0  0  0  0  0  0  0  0  0  0  0  0
    7.4794  -16.5632   25.6713 O   0  0  0  0  0  0  0  0  0  0  0  0
    9.6521  -16.5500   26.3546 N   0  0  0  0  0  0  0  0  0  0  0  0
    9.3998  -17.7629   27.1302 C   0  0  1  0  0  0  0  0  0  0  0  0
   10.1951  -18.9190   26.5643 C   0  0  0  0  0  0  0  0  0  0  0  0
   10.7494  -18.6149   24.8882 S   0  0  0  0  0  0  0  0  0  0  0  0
    9.7213  -17.4865   28.5335 C   0  0  0  0  0  0  0  0  0  0  0  0
    9.5380  -18.4611   29.4963 O   0  0  0  0  0  0  0  0  0  0  0  0
   10.1703  -16.3841   28.9479 O   0  0  0  0  0  0  0  0  0  0  0  0
  2  1  1  1
  3  2  1  0
  4  3  1  0
  5  4  2  0
  6  7  2  0
  6  5  1  0
  7  8  1  0
  8  9  2  0
  9  4  1  0
 10  2  1  0
 10 17  1  0
 11 10  2  0
 13 14  1  1
 13 12  1  0
 15 13  1  0
 16 15  1  6
 16 17  1  0
 18 16  1  0
 19 18  2  0
 20 18  1  0
 21 20  1  0
 21 22  1  6
 23 22  1  0
 24 21  1  0
 24 25  1  0
 26 24  2  0
M  END
$$$$
