FLC.pdb
     RDKit          3D

 26 26  0  0  1  0  0  0  0  0999 V2000
    8.5224  -16.4304   26.1512 N   0  0  0  0  0  0  0  0  0  0  0  0
    7.2061  -16.6272   25.5817 C   0  0  1  0  0  0  0  0  0  0  0  0
    6.2178  -15.6182   26.0980 C   0  0  0  0  0  0  0  0  0  0  0  0
    6.7724  -14.2979   26.3595 C   0  0  0  0  0  0  0  0  0  0  0  0
    5.8933  -13.2469   26.5336 C   0  0  0  0  0  0  0  0  0  0  0  0
    6.3203  -11.9783   26.7821 C   0  0  0  0  0  0  0  0  0  0  0  0
    7.6484  -11.7032   26.8680 C   0  0  0  0  0  0  0  0  0  0  0  0
    8.5680  -12.7118   26.7029 C   0  0  0  0  0  0  0  0  0  0  0  0
    8.1118  -13.9850   26.4527 C   0  0  0  0  0  0  0  0  0  0  0  0
    7.3228  -16.4155   24.1173 C   0  0  0  0  0  0  0  0  0  0  0  0
    6.6223  -17.0996   23.3326 O   0  0  0  0  0  0  0  0  0  0  0  0
    6.8541  -14.0604   19.5281 C   0  0  0  0  0  0  0  0  0  0  0  0
    8.0249  -13.5965   20.3041 C   0  0  1  0  0  0  0  0  0  0  0  0
    8.1386  -12.0543   20.2284 C   0  0  0  0  0  0  0  0  0  0  0  0
    8.1750  -14.0089   21.7060 C   0  0  0  0  0  0  0  0  0  0  0  0
    8.4286  -15.4184   22.0711 C   0  0  2  0  0  0  0  0  0  0  0  0
    8.2020  -15.4614   23.5464 N   0  0  0  0  0  0  0  0  0  0  0  0
    9.7602  -15.9695   21.8603 C   0  0  0  0  0  0  0  0  0  0  0  0
   10.2680  -16.2550   20.7228 O   0  0  0  0  0  0  0  0  0  0  0  0
   10.6145  -16.2346   22.9739 N   0  0  0  0  0  0  0  0  0  0  0  0
   12.0045  -16.6277   22.7507 C   0  0  1  0  0  0  0  0  0  0  0  0
   12.9382  -15.5367   23.2272 C   0  0  0  0  0  0  0  0  0  0  0  0
   14.6478  -16.0699   23.2757 S   0  0  0  0  0  0  0  0  0  0  0  0
   12.2349  -17.9072   23.4282 C   0  0  0  0  0  0  0  0  0  0  0  0
   13.2789  -18.7248   23.0387 O   0  0  0  0  0  0  0  0  0  0  0  0
   11.5261  -18.3378   24.3774 O   0  0  0  0  0  0  0  0  0  0  0  0
  2  1  1  1
  3  2  1  0
  4  3  1  0
  5  4  2  0
  6  7  2  0
  6  5  1  0
  7  8  1  0
  8  9  2  0
  9  4  1  0
 10  2  1  0
 10 17  1  0
 11 10  2  0
 13 14  1  1
 13 12  1  0
 15 13  1  0
 16 15  1  1
 16 17  1  0
 18 16  1  0
 19 18  2  0
 20 18  1  0
 21 20  1  0
 21 22  1  1
 23 22  1  0
 24 21  1  0
 24 25  1  0
 26 24  2  0
M  END
$$$$
