FLC.pdb
     RDKit          3D

 26 26  0  0  1  0  0  0  0  0999 V2000
    7.8699  -17.9205   26.0331 N   0  0  0  0  0  0  0  0  0  0  0  0
    7.2117  -16.6594   25.7641 C   0  0  1  0  0  0  0  0  0  0  0  0
    8.0429  -15.4891   26.2120 C   0  0  0  0  0  0  0  0  0  0  0  0
    7.2989  -14.2554   26.4214 C   0  0  0  0  0  0  0  0  0  0  0  0
    7.9944  -13.1427   26.8526 C   0  0  0  0  0  0  0  0  0  0  0  0
    7.3827  -11.9469   27.0749 C   0  0  0  0  0  0  0  0  0  0  0  0
    6.0454  -11.8099   26.8756 C   0  0  0  0  0  0  0  0  0  0  0  0
    5.3039  -12.8853   26.4466 C   0  0  0  0  0  0  0  0  0  0  0  0
    5.9448  -14.0827   26.2290 C   0  0  0  0  0  0  0  0  0  0  0  0
    7.0563  -16.5480   24.2923 C   0  0  0  0  0  0  0  0  0  0  0  0
    5.9090  -16.5706   23.7849 O   0  0  0  0  0  0  0  0  0  0  0  0
    8.5950  -13.0635   20.3088 C   0  0  0  0  0  0  0  0  0  0  0  0
    8.4836  -13.6071   21.6801 C   0  0  1  0  0  0  0  0  0  0  0  0
    8.2381  -12.4603   22.6908 C   0  0  0  0  0  0  0  0  0  0  0  0
    7.5272  -14.6874   21.9561 C   0  0  0  0  0  0  0  0  0  0  0  0
    7.9476  -16.1043   21.9658 C   0  0  2  0  0  0  0  0  0  0  0  0
    8.1585  -16.4142   23.4111 N   0  0  0  0  0  0  0  0  0  0  0  0
    9.1883  -16.4729   21.2981 C   0  0  0  0  0  0  0  0  0  0  0  0
    9.7037  -15.8534   20.3062 O   0  0  0  0  0  0  0  0  0  0  0  0
    9.9345  -17.6078   21.7403 N   0  0  0  0  0  0  0  0  0  0  0  0
   11.3216  -17.4467   22.1720 C   0  0  1  0  0  0  0  0  0  0  0  0
   11.4743  -16.1721   22.9728 C   0  0  0  0  0  0  0  0  0  0  0  0
   13.1650  -15.8862   23.4912 S   0  0  0  0  0  0  0  0  0  0  0  0
   11.7095  -18.6413   22.9281 C   0  0  0  0  0  0  0  0  0  0  0  0
   12.9227  -19.2572   22.6854 O   0  0  0  0  0  0  0  0  0  0  0  0
   10.9935  -19.1726   23.8191 O   0  0  0  0  0  0  0  0  0  0  0  0
  2  1  1  6
  3  2  1  0
  4  3  1  0
  5  4  2  0
  6  7  2  0
  6  5  1  0
  7  8  1  0
  8  9  2  0
  9  4  1  0
 10  2  1  0
 10 17  1  0
 11 10  2  0
 13 14  1  1
 13 12  1  0
 15 13  1  0
 16 15  1  1
 16 17  1  0
 18 16  1  0
 19 18  2  0
 20 18  1  0
 21 20  1  0
 21 22  1  1
 23 22  1  0
 24 21  1  0
 24 25  1  0
 26 24  2  0
M  END
$$$$
