FLC.pdb
     RDKit          3D

 26 26  0  0  1  0  0  0  0  0999 V2000
    5.6658  -17.9194   24.7041 N   0  0  0  0  0  0  0  0  0  0  0  0
    6.1337  -16.5524   24.7952 C   0  0  1  0  0  0  0  0  0  0  0  0
    6.4231  -16.1548   26.2162 C   0  0  0  0  0  0  0  0  0  0  0  0
    6.6573  -14.7322   26.4173 C   0  0  0  0  0  0  0  0  0  0  0  0
    5.6383  -13.8551   26.1007 C   0  0  0  0  0  0  0  0  0  0  0  0
    5.7667  -12.5086   26.2558 C   0  0  0  0  0  0  0  0  0  0  0  0
    6.9221  -11.9778   26.7353 C   0  0  0  0  0  0  0  0  0  0  0  0
    7.9693  -12.8048   27.0666 C   0  0  0  0  0  0  0  0  0  0  0  0
    7.8152  -14.1615   26.9010 C   0  0  0  0  0  0  0  0  0  0  0  0
    7.4146  -16.4740   24.0494 C   0  0  0  0  0  0  0  0  0  0  0  0
    8.1655  -17.4778   23.9966 O   0  0  0  0  0  0  0  0  0  0  0  0
    7.6656  -12.4166   20.2999 C   0  0  0  0  0  0  0  0  0  0  0  0
    7.7566  -13.7243   20.9855 C   0  0  1  0  0  0  0  0  0  0  0  0
    7.4526  -14.8711   19.9906 C   0  0  0  0  0  0  0  0  0  0  0  0
    8.9719  -14.0659   21.7367 C   0  0  0  0  0  0  0  0  0  0  0  0
    9.0660  -15.3139   22.5228 C   0  0  2  0  0  0  0  0  0  0  0  0
    7.8432  -15.3007   23.3795 N   0  0  0  0  0  0  0  0  0  0  0  0
   10.1867  -15.4846   23.4373 C   0  0  0  0  0  0  0  0  0  0  0  0
   11.4012  -15.6739   23.0875 O   0  0  0  0  0  0  0  0  0  0  0  0
    9.9758  -15.4479   24.8496 N   0  0  0  0  0  0  0  0  0  0  0  0
   11.1168  -15.5165   25.7604 C   0  0  1  0  0  0  0  0  0  0  0  0
   10.8047  -14.7790   27.0442 C   0  0  0  0  0  0  0  0  0  0  0  0
   12.1353  -14.8880   28.2386 S   0  0  0  0  0  0  0  0  0  0  0  0
   11.4435  -16.9283   25.9826 C   0  0  0  0  0  0  0  0  0  0  0  0
   12.6695  -17.2858   26.5111 O   0  0  0  0  0  0  0  0  0  0  0  0
   10.6615  -17.8809   25.7183 O   0  0  0  0  0  0  0  0  0  0  0  0
  2  1  1  1
  3  2  1  0
  4  3  1  0
  5  4  2  0
  6  7  2  0
  6  5  1  0
  7  8  1  0
  8  9  2  0
  9  4  1  0
 10  2  1  0
 10 17  1  0
 11 10  2  0
 13 14  1  6
 13 12  1  0
 15 13  1  0
 16 15  1  1
 16 17  1  0
 18 16  1  0
 19 18  2  0
 20 18  1  0
 21 20  1  0
 21 22  1  1
 23 22  1  0
 24 21  1  0
 24 25  1  0
 26 24  2  0
M  END
$$$$
