FLC.pdb
     RDKit          3D

 26 26  0  0  1  0  0  0  0  0999 V2000
    6.8065  -18.4448   26.4826 N   0  0  0  0  0  0  0  0  0  0  0  0
    7.4982  -17.1940   26.2526 C   0  0  1  0  0  0  0  0  0  0  0  0
    8.9092  -17.2328   26.7712 C   0  0  0  0  0  0  0  0  0  0  0  0
    9.3629  -16.0014   27.4012 C   0  0  0  0  0  0  0  0  0  0  0  0
    9.3994  -14.8540   26.6331 C   0  0  0  0  0  0  0  0  0  0  0  0
    9.8094  -13.6574   27.1368 C   0  0  0  0  0  0  0  0  0  0  0  0
   10.2019  -13.5543   28.4337 C   0  0  0  0  0  0  0  0  0  0  0  0
   10.1855  -14.6650   29.2438 C   0  0  0  0  0  0  0  0  0  0  0  0
    9.7673  -15.8624   28.7118 C   0  0  0  0  0  0  0  0  0  0  0  0
    7.5772  -16.9972   24.7837 C   0  0  0  0  0  0  0  0  0  0  0  0
    7.5513  -17.9930   24.0208 O   0  0  0  0  0  0  0  0  0  0  0  0
    7.2012  -12.1628   20.8933 C   0  0  0  0  0  0  0  0  0  0  0  0
    7.2425  -13.6279   21.0940 C   0  0  1  0  0  0  0  0  0  0  0  0
    8.3666  -14.2533   20.2324 C   0  0  0  0  0  0  0  0  0  0  0  0
    7.3392  -14.1705   22.4557 C   0  0  0  0  0  0  0  0  0  0  0  0
    7.7424  -15.5713   22.6996 C   0  0  2  0  0  0  0  0  0  0  0  0
    7.6823  -15.7169   24.1844 N   0  0  0  0  0  0  0  0  0  0  0  0
    9.0826  -15.9930   22.3157 C   0  0  0  0  0  0  0  0  0  0  0  0
    9.4703  -16.2164   21.1186 O   0  0  0  0  0  0  0  0  0  0  0  0
   10.0882  -16.1901   23.3107 N   0  0  0  0  0  0  0  0  0  0  0  0
   11.4536  -16.5269   22.9125 C   0  0  1  0  0  0  0  0  0  0  0  0
   12.3358  -15.2999   22.9843 C   0  0  0  0  0  0  0  0  0  0  0  0
   14.0640  -15.6804   22.7051 S   0  0  0  0  0  0  0  0  0  0  0  0
   11.9272  -17.6169   23.7709 C   0  0  0  0  0  0  0  0  0  0  0  0
   13.1164  -18.2617   23.4875 O   0  0  0  0  0  0  0  0  0  0  0  0
   11.3092  -18.0291   24.7892 O   0  0  0  0  0  0  0  0  0  0  0  0
  2  1  1  6
  3  2  1  0
  4  3  1  0
  5  4  2  0
  6  7  2  0
  6  5  1  0
  7  8  1  0
  8  9  2  0
  9  4  1  0
 10  2  1  0
 10 17  1  0
 11 10  2  0
 13 14  1  6
 13 12  1  0
 15 13  1  0
 16 15  1  1
 16 17  1  0
 18 16  1  0
 19 18  2  0
 20 18  1  0
 21 20  1  0
 21 22  1  1
 23 22  1  0
 24 21  1  0
 24 25  1  0
 26 24  2  0
M  END
$$$$
