FLC.pdb
     RDKit          3D

 26 26  0  0  1  0  0  0  0  0999 V2000
    5.7242  -17.7732   24.3201 N   0  0  0  0  0  0  0  0  0  0  0  0
    6.1843  -16.4025   24.3927 C   0  0  1  0  0  0  0  0  0  0  0  0
    6.4575  -15.9795   25.8096 C   0  0  0  0  0  0  0  0  0  0  0  0
    6.8204  -14.5790   25.9703 C   0  0  0  0  0  0  0  0  0  0  0  0
    5.8758  -13.7194   26.4962 C   0  0  0  0  0  0  0  0  0  0  0  0
    6.1257  -12.3941   26.6825 C   0  0  0  0  0  0  0  0  0  0  0  0
    7.3338  -11.8679   26.3506 C   0  0  0  0  0  0  0  0  0  0  0  0
    8.3113  -12.6781   25.8230 C   0  0  0  0  0  0  0  0  0  0  0  0
    8.0347  -14.0135   25.6444 C   0  0  0  0  0  0  0  0  0  0  0  0
    7.4721  -16.3299   23.6584 C   0  0  0  0  0  0  0  0  0  0  0  0
    8.1620  -17.3674   23.5096 O   0  0  0  0  0  0  0  0  0  0  0  0
    6.7892  -14.2337   20.1392 C   0  0  0  0  0  0  0  0  0  0  0  0
    8.1667  -13.6961   20.1832 C   0  0  1  0  0  0  0  0  0  0  0  0
    8.1706  -12.2032   19.7728 C   0  0  0  0  0  0  0  0  0  0  0  0
    8.9652  -13.8475   21.4069 C   0  0  0  0  0  0  0  0  0  0  0  0
    9.0765  -15.1494   22.0976 C   0  0  2  0  0  0  0  0  0  0  0  0
    7.9742  -15.1256   23.1045 N   0  0  0  0  0  0  0  0  0  0  0  0
   10.2896  -15.4447   22.8476 C   0  0  0  0  0  0  0  0  0  0  0  0
   11.4592  -15.5533   22.3442 O   0  0  0  0  0  0  0  0  0  0  0  0
   10.2328  -15.6393   24.2615 N   0  0  0  0  0  0  0  0  0  0  0  0
   11.4622  -15.8727   25.0167 C   0  0  1  0  0  0  0  0  0  0  0  0
   11.3421  -15.2824   26.4046 C   0  0  0  0  0  0  0  0  0  0  0  0
    9.9835  -15.9882   27.3348 S   0  0  0  0  0  0  0  0  0  0  0  0
   11.7241  -17.3150   25.0345 C   0  0  0  0  0  0  0  0  0  0  0  0
   12.8902  -17.8055   25.5911 O   0  0  0  0  0  0  0  0  0  0  0  0
   10.9364  -18.1784   24.5625 O   0  0  0  0  0  0  0  0  0  0  0  0
  2  1  1  1
  3  2  1  0
  4  3  1  0
  5  4  2  0
  6  7  2  0
  6  5  1  0
  7  8  1  0
  8  9  2  0
  9  4  1  0
 10  2  1  0
 10 17  1  0
 11 10  2  0
 13 14  1  1
 13 12  1  0
 15 13  1  0
 16 15  1  1
 16 17  1  0
 18 16  1  0
 19 18  2  0
 20 18  1  0
 21 20  1  0
 21 22  1  1
 23 22  1  0
 24 21  1  0
 24 25  1  0
 26 24  2  0
M  END
$$$$
