FLC.pdb
     RDKit          3D

 26 26  0  0  1  0  0  0  0  0999 V2000
    5.8836  -18.1008   25.0630 N   0  0  0  0  0  0  0  0  0  0  0  0
    6.2688  -16.7087   24.9645 C   0  0  1  0  0  0  0  0  0  0  0  0
    7.0642  -16.2635   26.1605 C   0  0  0  0  0  0  0  0  0  0  0  0
    7.1247  -14.8217   26.3522 C   0  0  0  0  0  0  0  0  0  0  0  0
    8.2901  -14.2825   26.8609 C   0  0  0  0  0  0  0  0  0  0  0  0
    8.4377  -12.9458   27.0735 C   0  0  0  0  0  0  0  0  0  0  0  0
    7.4246  -12.0869   26.7864 C   0  0  0  0  0  0  0  0  0  0  0  0
    6.2419  -12.5694   26.2777 C   0  0  0  0  0  0  0  0  0  0  0  0
    6.1171  -13.9236   26.0718 C   0  0  0  0  0  0  0  0  0  0  0  0
    7.1516  -16.5781   23.7787 C   0  0  0  0  0  0  0  0  0  0  0  0
    7.6308  -17.6072   23.2441 O   0  0  0  0  0  0  0  0  0  0  0  0
    7.5577  -14.0984   18.8101 C   0  0  0  0  0  0  0  0  0  0  0  0
    8.2066  -13.5064   20.0004 C   0  0  1  0  0  0  0  0  0  0  0  0
    8.1376  -11.9611   19.9331 C   0  0  0  0  0  0  0  0  0  0  0  0
    7.7899  -13.9357   21.3420 C   0  0  0  0  0  0  0  0  0  0  0  0
    8.1833  -15.2524   21.8860 C   0  0  2  0  0  0  0  0  0  0  0  0
    7.4889  -15.3261   23.2058 N   0  0  0  0  0  0  0  0  0  0  0  0
    9.5903  -15.5043   22.1659 C   0  0  0  0  0  0  0  0  0  0  0  0
   10.5161  -15.5706   21.2874 O   0  0  0  0  0  0  0  0  0  0  0  0
   10.0332  -15.7015   23.5095 N   0  0  0  0  0  0  0  0  0  0  0  0
   11.4606  -15.8301   23.7964 C   0  0  1  0  0  0  0  0  0  0  0  0
   11.7663  -15.2889   25.1759 C   0  0  0  0  0  0  0  0  0  0  0  0
   10.7475  -16.0348   26.4466 S   0  0  0  0  0  0  0  0  0  0  0  0
   11.8351  -17.2393   23.6444 C   0  0  0  0  0  0  0  0  0  0  0  0
   13.1555  -17.6278   23.7698 O   0  0  0  0  0  0  0  0  0  0  0  0
   11.0130  -18.1625   23.3981 O   0  0  0  0  0  0  0  0  0  0  0  0
  2  1  1  1
  3  2  1  0
  4  3  1  0
  5  4  2  0
  6  7  2  0
  6  5  1  0
  7  8  1  0
  8  9  2  0
  9  4  1  0
 10  2  1  0
 10 17  1  0
 11 10  2  0
 13 14  1  1
 13 12  1  0
 15 13  1  0
 16 15  1  1
 16 17  1  0
 18 16  1  0
 19 18  2  0
 20 18  1  0
 21 20  1  0
 21 22  1  1
 23 22  1  0
 24 21  1  0
 24 25  1  0
 26 24  2  0
M  END
$$$$
