FLC.pdb
     RDKit          3D

 26 26  0  0  1  0  0  0  0  0999 V2000
    7.6648  -19.7712   26.6560 N   0  0  0  0  0  0  0  0  0  0  0  0
    8.0164  -18.4818   27.2125 C   0  0  1  0  0  0  0  0  0  0  0  0
    9.4206  -18.4701   27.7507 C   0  0  0  0  0  0  0  0  0  0  0  0
    9.7552  -17.3075   28.5604 C   0  0  0  0  0  0  0  0  0  0  0  0
    9.9492  -16.1014   27.9161 C   0  0  0  0  0  0  0  0  0  0  0  0
   10.2650  -14.9618   28.5908 C   0  0  0  0  0  0  0  0  0  0  0  0
   10.4010  -14.9774   29.9428 C   0  0  0  0  0  0  0  0  0  0  0  0
   10.2190  -16.1511   30.6353 C   0  0  0  0  0  0  0  0  0  0  0  0
    9.9006  -17.2889   29.9311 C   0  0  0  0  0  0  0  0  0  0  0  0
    7.9639  -17.4944   26.1057 C   0  0  0  0  0  0  0  0  0  0  0  0
    8.0969  -17.8823   24.9199 O   0  0  0  0  0  0  0  0  0  0  0  0
    5.7852  -12.5548   24.2683 C   0  0  0  0  0  0  0  0  0  0  0  0
    7.0616  -12.6597   25.0087 C   0  0  1  0  0  0  0  0  0  0  0  0
    7.2640  -11.4123   25.9032 C   0  0  0  0  0  0  0  0  0  0  0  0
    7.3388  -13.8599   25.8090 C   0  0  0  0  0  0  0  0  0  0  0  0
    7.4881  -15.1883   25.1786 C   0  0  2  0  0  0  0  0  0  0  0  0
    7.7670  -16.1074   26.3219 N   0  0  0  0  0  0  0  0  0  0  0  0
    8.5737  -15.3973   24.2304 C   0  0  0  0  0  0  0  0  0  0  0  0
    8.4615  -15.3454   22.9584 O   0  0  0  0  0  0  0  0  0  0  0  0
    9.8920  -15.6874   24.6975 N   0  0  0  0  0  0  0  0  0  0  0  0
   10.9941  -15.8088   23.7451 C   0  0  1  0  0  0  0  0  0  0  0  0
   12.3138  -15.8853   24.4812 C   0  0  0  0  0  0  0  0  0  0  0  0
   12.4909  -14.5918   25.7079 S   0  0  0  0  0  0  0  0  0  0  0  0
   10.7461  -16.9823   22.9021 C   0  0  0  0  0  0  0  0  0  0  0  0
   11.6908  -17.3908   21.9797 O   0  0  0  0  0  0  0  0  0  0  0  0
    9.6953  -17.6764   22.9549 O   0  0  0  0  0  0  0  0  0  0  0  0
  2  1  1  6
  3  2  1  0
  4  3  1  0
  5  4  2  0
  6  7  2  0
  6  5  1  0
  7  8  1  0
  8  9  2  0
  9  4  1  0
 10  2  1  0
 10 17  1  0
 11 10  2  0
 13 14  1  1
 13 12  1  0
 15 13  1  0
 16 15  1  1
 16 17  1  0
 18 16  1  0
 19 18  2  0
 20 18  1  0
 21 20  1  0
 21 22  1  1
 23 22  1  0
 24 21  1  0
 24 25  1  0
 26 24  2  0
M  END
$$$$
