FLC.pdb
     RDKit          3D

 26 26  0  0  1  0  0  0  0  0999 V2000
    5.9060  -17.8907   24.8231 N   0  0  0  0  0  0  0  0  0  0  0  0
    6.4049  -16.5327   24.8766 C   0  0  1  0  0  0  0  0  0  0  0  0
    6.7878  -16.1333   26.2749 C   0  0  0  0  0  0  0  0  0  0  0  0
    6.8944  -14.6980   26.4930 C   0  0  0  0  0  0  0  0  0  0  0  0
    5.8195  -13.9057   26.1399 C   0  0  0  0  0  0  0  0  0  0  0  0
    5.8291  -12.5546   26.3073 C   0  0  0  0  0  0  0  0  0  0  0  0
    6.9161  -11.9340   26.8364 C   0  0  0  0  0  0  0  0  0  0  0  0
    8.0144  -12.6742   27.2056 C   0  0  0  0  0  0  0  0  0  0  0  0
    7.9805  -14.0375   27.0265 C   0  0  0  0  0  0  0  0  0  0  0  0
    7.6393  -16.4835   24.0541 C   0  0  0  0  0  0  0  0  0  0  0  0
    8.3052  -17.5308   23.8693 O   0  0  0  0  0  0  0  0  0  0  0  0
    7.7002  -12.2984   20.4588 C   0  0  0  0  0  0  0  0  0  0  0  0
    7.8019  -13.6301   21.0949 C   0  0  1  0  0  0  0  0  0  0  0  0
    7.3534  -14.7312   20.1030 C   0  0  0  0  0  0  0  0  0  0  0  0
    9.0691  -14.0437   21.7121 C   0  0  0  0  0  0  0  0  0  0  0  0
    9.1947  -15.3338   22.4223 C   0  0  2  0  0  0  0  0  0  0  0  0
    8.1156  -15.2912   23.4535 N   0  0  0  0  0  0  0  0  0  0  0  0
   10.4243  -15.6179   23.1495 C   0  0  0  0  0  0  0  0  0  0  0  0
   11.5903  -15.6794   22.6300 O   0  0  0  0  0  0  0  0  0  0  0  0
   10.3897  -15.8559   24.5575 N   0  0  0  0  0  0  0  0  0  0  0  0
   11.6284  -16.1331   25.2820 C   0  0  1  0  0  0  0  0  0  0  0  0
   11.4202  -15.9329   26.7672 C   0  0  0  0  0  0  0  0  0  0  0  0
   11.1230  -14.2185   27.1932 S   0  0  0  0  0  0  0  0  0  0  0  0
   12.0618  -17.4932   24.9484 C   0  0  0  0  0  0  0  0  0  0  0  0
   11.3037  -18.2788   24.1008 O   0  0  0  0  0  0  0  0  0  0  0  0
   13.1153  -18.0242   25.3923 O   0  0  0  0  0  0  0  0  0  0  0  0
  2  1  1  1
  3  2  1  0
  4  3  1  0
  5  4  2  0
  6  7  2  0
  6  5  1  0
  7  8  1  0
  8  9  2  0
  9  4  1  0
 10  2  1  0
 10 17  1  0
 11 10  2  0
 13 14  1  6
 13 12  1  0
 15 13  1  0
 16 15  1  1
 16 17  1  0
 18 16  1  0
 19 18  2  0
 20 18  1  0
 21 20  1  0
 21 22  1  1
 23 22  1  0
 24 21  1  0
 24 25  1  0
 26 24  2  0
M  END
$$$$
