FLC.pdb
     RDKit          3D

 26 26  0  0  1  0  0  0  0  0999 V2000
    6.5680  -16.3813   25.8455 N   0  0  0  0  0  0  0  0  0  0  0  0
    6.8965  -15.5440   24.7111 C   0  0  1  0  0  0  0  0  0  0  0  0
    7.8540  -14.4467   25.0858 C   0  0  0  0  0  0  0  0  0  0  0  0
    7.3557  -13.5165   26.0885 C   0  0  0  0  0  0  0  0  0  0  0  0
    6.1516  -12.8845   25.8466 C   0  0  0  0  0  0  0  0  0  0  0  0
    5.6080  -11.9994   26.7268 C   0  0  0  0  0  0  0  0  0  0  0  0
    6.2455  -11.7060   27.8906 C   0  0  0  0  0  0  0  0  0  0  0  0
    7.4474  -12.3063   28.1825 C   0  0  0  0  0  0  0  0  0  0  0  0
    7.9760  -13.1969   27.2774 C   0  0  0  0  0  0  0  0  0  0  0  0
    7.5830  -16.4021   23.7135 C   0  0  0  0  0  0  0  0  0  0  0  0
    7.0328  -17.4584   23.3187 O   0  0  0  0  0  0  0  0  0  0  0  0
    8.2027  -12.4577   20.1271 C   0  0  0  0  0  0  0  0  0  0  0  0
    7.6623  -13.7947   20.4568 C   0  0  1  0  0  0  0  0  0  0  0  0
    7.9558  -14.7879   19.3059 C   0  0  0  0  0  0  0  0  0  0  0  0
    8.0283  -14.4309   21.7292 C   0  0  0  0  0  0  0  0  0  0  0  0
    8.9811  -15.5596   21.7798 C   0  0  2  0  0  0  0  0  0  0  0  0
    8.8538  -16.0848   23.1717 N   0  0  0  0  0  0  0  0  0  0  0  0
   10.3995  -15.2901   21.5879 C   0  0  0  0  0  0  0  0  0  0  0  0
   10.9873  -15.2064   20.4562 O   0  0  0  0  0  0  0  0  0  0  0  0
   11.2544  -15.0949   22.7154 N   0  0  0  0  0  0  0  0  0  0  0  0
   12.0142  -16.2190   23.2591 C   0  0  1  0  0  0  0  0  0  0  0  0
   11.0937  -17.3889   23.5296 C   0  0  0  0  0  0  0  0  0  0  0  0
   11.9816  -18.8526   24.0572 S   0  0  0  0  0  0  0  0  0  0  0  0
   13.0871  -16.5480   22.3158 C   0  0  0  0  0  0  0  0  0  0  0  0
   14.3915  -16.6677   22.7569 O   0  0  0  0  0  0  0  0  0  0  0  0
   12.9056  -16.7380   21.0831 O   0  0  0  0  0  0  0  0  0  0  0  0
  2  1  1  1
  3  2  1  0
  4  3  1  0
  5  4  2  0
  6  7  2  0
  6  5  1  0
  7  8  1  0
  8  9  2  0
  9  4  1  0
 10  2  1  0
 10 17  1  0
 11 10  2  0
 13 14  1  6
 13 12  1  0
 15 13  1  0
 16 15  1  1
 16 17  1  0
 18 16  1  0
 19 18  2  0
 20 18  1  0
 21 20  1  0
 21 22  1  6
 23 22  1  0
 24 21  1  0
 24 25  1  0
 26 24  2  0
M  END
$$$$
