FLC.pdb
     RDKit          3D

 26 26  0  0  1  0  0  0  0  0999 V2000
    7.0429  -18.7335   26.7915 N   0  0  0  0  0  0  0  0  0  0  0  0
    7.7454  -17.4711   26.8848 C   0  0  1  0  0  0  0  0  0  0  0  0
    9.2185  -17.6677   27.1143 C   0  0  0  0  0  0  0  0  0  0  0  0
    9.8828  -16.5674   27.7979 C   0  0  0  0  0  0  0  0  0  0  0  0
   10.2268  -15.4546   27.0557 C   0  0  0  0  0  0  0  0  0  0  0  0
   10.8503  -14.3784   27.6095 C   0  0  0  0  0  0  0  0  0  0  0  0
   11.1582  -14.3668   28.9330 C   0  0  0  0  0  0  0  0  0  0  0  0
   10.8387  -15.4484   29.7194 C   0  0  0  0  0  0  0  0  0  0  0  0
   10.2091  -16.5235   29.1366 C   0  0  0  0  0  0  0  0  0  0  0  0
    7.5940  -16.7843   25.5778 C   0  0  0  0  0  0  0  0  0  0  0  0
    7.1609  -17.4214   24.5874 O   0  0  0  0  0  0  0  0  0  0  0  0
    6.9945  -11.4747   25.9315 C   0  0  0  0  0  0  0  0  0  0  0  0
    6.9001  -12.8925   25.5200 C   0  0  1  0  0  0  0  0  0  0  0  0
    5.4157  -13.3145   25.3947 C   0  0  0  0  0  0  0  0  0  0  0  0
    7.6194  -13.3494   24.3234 C   0  0  0  0  0  0  0  0  0  0  0  0
    7.8018  -14.7878   24.0369 C   0  0  2  0  0  0  0  0  0  0  0  0
    7.9193  -15.4182   25.3853 N   0  0  0  0  0  0  0  0  0  0  0  0
    8.9834  -15.2122   23.2986 C   0  0  0  0  0  0  0  0  0  0  0  0
    9.2684  -14.8660   22.1019 O   0  0  0  0  0  0  0  0  0  0  0  0
    9.9371  -16.0851   23.9059 N   0  0  0  0  0  0  0  0  0  0  0  0
   11.1598  -16.4429   23.1895 C   0  0  1  0  0  0  0  0  0  0  0  0
   12.3535  -16.3468   24.1142 C   0  0  0  0  0  0  0  0  0  0  0  0
   12.5963  -14.6900   24.7508 S   0  0  0  0  0  0  0  0  0  0  0  0
   10.9861  -17.7848   22.6252 C   0  0  0  0  0  0  0  0  0  0  0  0
    9.7955  -18.4652   22.7973 O   0  0  0  0  0  0  0  0  0  0  0  0
   11.8744  -18.3915   21.9682 O   0  0  0  0  0  0  0  0  0  0  0  0
  2  1  1  6
  3  2  1  0
  4  3  1  0
  5  4  2  0
  6  7  2  0
  6  5  1  0
  7  8  1  0
  8  9  2  0
  9  4  1  0
 10  2  1  0
 10 17  1  0
 11 10  2  0
 13 14  1  6
 13 12  1  0
 15 13  1  0
 16 15  1  1
 16 17  1  0
 18 16  1  0
 19 18  2  0
 20 18  1  0
 21 20  1  0
 21 22  1  1
 23 22  1  0
 24 21  1  0
 24 25  1  0
 26 24  2  0
M  END
$$$$
