FLC.pdb
     RDKit          3D

 26 26  0  0  1  0  0  0  0  0999 V2000
    5.9946  -18.2966   24.8675 N   0  0  0  0  0  0  0  0  0  0  0  0
    6.2850  -16.8791   24.9152 C   0  0  1  0  0  0  0  0  0  0  0  0
    6.8965  -16.4783   26.2293 C   0  0  0  0  0  0  0  0  0  0  0  0
    7.0002  -15.0420   26.4425 C   0  0  0  0  0  0  0  0  0  0  0  0
    6.6461  -14.2039   25.4033 C   0  0  0  0  0  0  0  0  0  0  0  0
    6.7107  -12.8483   25.5113 C   0  0  0  0  0  0  0  0  0  0  0  0
    7.1331  -12.2688   26.6657 C   0  0  0  0  0  0  0  0  0  0  0  0
    7.4980  -13.0556   27.7325 C   0  0  0  0  0  0  0  0  0  0  0  0
    7.4240  -14.4225   27.5988 C   0  0  0  0  0  0  0  0  0  0  0  0
    7.2914  -16.5992   23.8609 C   0  0  0  0  0  0  0  0  0  0  0  0
    8.0892  -17.5011   23.5080 O   0  0  0  0  0  0  0  0  0  0  0  0
    7.9895  -14.1552   18.9109 C   0  0  0  0  0  0  0  0  0  0  0  0
    8.2869  -13.3845   20.1381 C   0  0  1  0  0  0  0  0  0  0  0  0
    7.8443  -11.9111   19.9636 C   0  0  0  0  0  0  0  0  0  0  0  0
    7.7977  -13.8700   21.4353 C   0  0  0  0  0  0  0  0  0  0  0  0
    8.1983  -15.1906   21.9642 C   0  0  2  0  0  0  0  0  0  0  0  0
    7.4011  -15.3408   23.2178 N   0  0  0  0  0  0  0  0  0  0  0  0
    9.5865  -15.3997   22.3521 C   0  0  0  0  0  0  0  0  0  0  0  0
   10.5459  -15.6560   21.5476 O   0  0  0  0  0  0  0  0  0  0  0  0
    9.9694  -15.3257   23.7262 N   0  0  0  0  0  0  0  0  0  0  0  0
   11.3755  -15.4624   24.1010 C   0  0  1  0  0  0  0  0  0  0  0  0
   11.6056  -14.8880   25.4818 C   0  0  0  0  0  0  0  0  0  0  0  0
   10.4911  -15.5746   26.7047 S   0  0  0  0  0  0  0  0  0  0  0  0
   11.7405  -16.8792   24.0081 C   0  0  0  0  0  0  0  0  0  0  0  0
   13.0415  -17.2813   24.2444 O   0  0  0  0  0  0  0  0  0  0  0  0
   10.9270  -17.7971   23.7176 O   0  0  0  0  0  0  0  0  0  0  0  0
  2  1  1  1
  3  2  1  0
  4  3  1  0
  5  4  2  0
  6  7  2  0
  6  5  1  0
  7  8  1  0
  8  9  2  0
  9  4  1  0
 10  2  1  0
 10 17  1  0
 11 10  2  0
 13 14  1  6
 13 12  1  0
 15 13  1  0
 16 15  1  1
 16 17  1  0
 18 16  1  0
 19 18  2  0
 20 18  1  0
 21 20  1  0
 21 22  1  1
 23 22  1  0
 24 21  1  0
 24 25  1  0
 26 24  2  0
M  END
$$$$
