FLC.pdb
     RDKit          3D

 26 26  0  0  1  0  0  0  0  0999 V2000
    6.3219  -17.2875   25.2339 N   0  0  0  0  0  0  0  0  0  0  0  0
    6.8416  -16.0394   24.7162 C   0  0  1  0  0  0  0  0  0  0  0  0
    7.8217  -15.4064   25.6649 C   0  0  0  0  0  0  0  0  0  0  0  0
    7.3926  -14.1346   26.2285 C   0  0  0  0  0  0  0  0  0  0  0  0
    8.1429  -13.5923   27.2535 C   0  0  0  0  0  0  0  0  0  0  0  0
    7.8181  -12.4079   27.8412 C   0  0  0  0  0  0  0  0  0  0  0  0
    6.7263  -11.7114   27.4294 C   0  0  0  0  0  0  0  0  0  0  0  0
    5.9434  -12.2049   26.4125 C   0  0  0  0  0  0  0  0  0  0  0  0
    6.2923  -13.4034   25.8348 C   0  0  0  0  0  0  0  0  0  0  0  0
    7.5810  -16.3532   23.4682 C   0  0  0  0  0  0  0  0  0  0  0  0
    7.5025  -17.5028   22.9716 O   0  0  0  0  0  0  0  0  0  0  0  0
    7.7742  -12.4070   19.8872 C   0  0  0  0  0  0  0  0  0  0  0  0
    7.7452  -13.7389   20.5303 C   0  0  1  0  0  0  0  0  0  0  0  0
    6.7411  -14.6632   19.7990 C   0  0  0  0  0  0  0  0  0  0  0  0
    9.0006  -14.4754   20.7290 C   0  0  0  0  0  0  0  0  0  0  0  0
    9.0387  -15.7403   21.4925 C   0  0  2  0  0  0  0  0  0  0  0  0
    8.3879  -15.4031   22.7934 N   0  0  0  0  0  0  0  0  0  0  0  0
   10.3326  -16.3143   21.8358 C   0  0  0  0  0  0  0  0  0  0  0  0
   11.1584  -16.8211   21.0024 O   0  0  0  0  0  0  0  0  0  0  0  0
   10.7699  -16.3430   23.1952 N   0  0  0  0  0  0  0  0  0  0  0  0
   12.0799  -16.8985   23.5294 C   0  0  1  0  0  0  0  0  0  0  0  0
   12.7620  -16.0370   24.5695 C   0  0  0  0  0  0  0  0  0  0  0  0
   13.1500  -14.3991   23.9562 S   0  0  0  0  0  0  0  0  0  0  0  0
   11.8925  -18.2828   23.9741 C   0  0  0  0  0  0  0  0  0  0  0  0
   10.6258  -18.8332   24.0266 O   0  0  0  0  0  0  0  0  0  0  0  0
   12.8351  -19.0416   24.3267 O   0  0  0  0  0  0  0  0  0  0  0  0
  2  1  1  1
  3  2  1  0
  4  3  1  0
  5  4  2  0
  6  7  2  0
  6  5  1  0
  7  8  1  0
  8  9  2  0
  9  4  1  0
 10  2  1  0
 10 17  1  0
 11 10  2  0
 13 14  1  6
 13 12  1  0
 15 13  1  0
 16 15  1  6
 16 17  1  0
 18 16  1  0
 19 18  2  0
 20 18  1  0
 21 20  1  0
 21 22  1  1
 23 22  1  0
 24 21  1  0
 24 25  1  0
 26 24  2  0
M  END
$$$$
