FLC.pdb
     RDKit          3D

 26 26  0  0  1  0  0  0  0  0999 V2000
    5.8361  -17.9853   25.2054 N   0  0  0  0  0  0  0  0  0  0  0  0
    6.1256  -16.5671   25.2332 C   0  0  1  0  0  0  0  0  0  0  0  0
    6.7317  -16.1466   26.5436 C   0  0  0  0  0  0  0  0  0  0  0  0
    6.9727  -14.7170   26.6749 C   0  0  0  0  0  0  0  0  0  0  0  0
    5.8868  -13.8662   26.6063 C   0  0  0  0  0  0  0  0  0  0  0  0
    6.0160  -12.5156   26.7186 C   0  0  0  0  0  0  0  0  0  0  0  0
    7.2394  -11.9540   26.9047 C   0  0  0  0  0  0  0  0  0  0  0  0
    8.3551  -12.7540   26.9804 C   0  0  0  0  0  0  0  0  0  0  0  0
    8.1986  -14.1155   26.8642 C   0  0  0  0  0  0  0  0  0  0  0  0
    7.1361  -16.3024   24.1789 C   0  0  0  0  0  0  0  0  0  0  0  0
    8.0440  -17.1413   23.9634 O   0  0  0  0  0  0  0  0  0  0  0  0
    8.0972  -14.3537   19.1174 C   0  0  0  0  0  0  0  0  0  0  0  0
    8.1814  -13.3915   20.2378 C   0  0  1  0  0  0  0  0  0  0  0  0
    7.5827  -12.0273   19.8162 C   0  0  0  0  0  0  0  0  0  0  0  0
    7.6335  -13.7578   21.5506 C   0  0  0  0  0  0  0  0  0  0  0  0
    8.1220  -14.9435   22.2854 C   0  0  2  0  0  0  0  0  0  0  0  0
    7.1296  -15.1276   23.3857 N   0  0  0  0  0  0  0  0  0  0  0  0
    9.4240  -14.8794   22.9351 C   0  0  0  0  0  0  0  0  0  0  0  0
    9.7279  -14.1001   23.9013 O   0  0  0  0  0  0  0  0  0  0  0  0
   10.4872  -15.7298   22.5029 N   0  0  0  0  0  0  0  0  0  0  0  0
   11.8115  -15.6091   23.1094 C   0  0  1  0  0  0  0  0  0  0  0  0
   11.7490  -15.9749   24.5762 C   0  0  0  0  0  0  0  0  0  0  0  0
   10.9288  -17.5424   24.8578 S   0  0  0  0  0  0  0  0  0  0  0  0
   12.7420  -16.4531   22.3537 C   0  0  0  0  0  0  0  0  0  0  0  0
   14.1008  -16.3846   22.5968 O   0  0  0  0  0  0  0  0  0  0  0  0
   12.3849  -17.2701   21.4627 O   0  0  0  0  0  0  0  0  0  0  0  0
  2  1  1  1
  3  2  1  0
  4  3  1  0
  5  4  2  0
  6  7  2  0
  6  5  1  0
  7  8  1  0
  8  9  2  0
  9  4  1  0
 10  2  1  0
 10 17  1  0
 11 10  2  0
 13 14  1  6
 13 12  1  0
 15 13  1  0
 16 15  1  1
 16 17  1  0
 18 16  1  0
 19 18  2  0
 20 18  1  0
 21 20  1  0
 21 22  1  1
 23 22  1  0
 24 21  1  0
 24 25  1  0
 26 24  2  0
M  END
$$$$
