VDC.pdb
     RDKit          3D

 22 21  0  0  1  0  0  0  0  0999 V2000
    7.4758  -13.3264   21.8679 C   0  0  0  0  0  0  0  0  0  0  0  0
    8.3283  -13.4932   20.6240 C   0  0  2  0  0  0  0  0  0  0  0  0
    7.6766  -12.7694   19.5017 C   0  0  0  0  0  0  0  0  0  0  0  0
    8.5069  -14.9805   20.3985 C   0  0  2  0  0  0  0  0  0  0  0  0
    7.1766  -15.4839   20.0271 N   0  0  0  0  0  0  0  0  0  0  0  0
    8.9204  -15.7221   21.5965 C   0  0  0  0  0  0  0  0  0  0  0  0
    8.0557  -16.2099   22.3602 O   0  0  0  0  0  0  0  0  0  0  0  0
   10.2758  -15.9246   21.9418 N   0  0  0  0  0  0  0  0  0  0  0  0
   10.6296  -16.6836   23.1662 C   0  0  1  0  0  0  0  0  0  0  0  0
   11.9127  -17.4425   22.8853 C   0  0  0  0  0  0  0  0  0  0  0  0
   11.8620  -18.3775   21.7722 C   0  0  0  0  0  0  0  0  0  0  0  0
   12.5074  -18.3605   20.7089 O   0  0  0  0  0  0  0  0  0  0  0  0
   10.6962  -15.8058   24.3355 C   0  0  0  0  0  0  0  0  0  0  0  0
   10.8026  -14.5452   24.2592 O   0  0  0  0  0  0  0  0  0  0  0  0
   10.9573  -19.4544   21.9131 O   0  0  0  0  0  0  0  0  0  0  0  0
   10.6446  -16.3032   25.6758 N   0  0  0  0  0  0  0  0  0  0  0  0
   10.5365  -15.4041   26.8153 C   0  0  1  0  0  0  0  0  0  0  0  0
    9.1922  -14.7116   26.8188 C   0  0  0  0  0  0  0  0  0  0  0  0
    9.0054  -13.6207   28.2516 S   0  0  0  0  0  0  0  0  0  0  0  0
   10.6704  -16.1825   28.0703 C   0  0  0  0  0  0  0  0  0  0  0  0
   11.0381  -15.5623   29.2378 O   0  0  0  0  0  0  0  0  0  0  0  0
   10.4542  -17.4290   28.1100 O   0  0  0  0  0  0  0  0  0  0  0  0
  2  1  1  1
  2  3  1  0
  4  5  1  1
  4  6  1  0
  4  2  1  0
  6  7  2  0
  8  9  1  0
  8  6  1  0
  9 13  1  0
  9 10  1  6
 11 10  1  0
 12 11  2  0
 13 14  2  0
 13 16  1  0
 15 11  1  0
 16 17  1  0
 17 20  1  0
 17 18  1  1
 19 18  1  0
 20 22  2  0
 20 21  1  0
M  END
$$$$
