VDC.pdb
     RDKit          3D

 22 21  0  0  1  0  0  0  0  0999 V2000
    7.2917  -13.7210   20.9744 C   0  0  0  0  0  0  0  0  0  0  0  0
    8.2491  -13.4883   19.8207 C   0  0  2  0  0  0  0  0  0  0  0  0
    7.6179  -12.5429   18.8636 C   0  0  0  0  0  0  0  0  0  0  0  0
    8.5886  -14.8451   19.2386 C   0  0  2  0  0  0  0  0  0  0  0  0
    7.3253  -15.3677   18.6981 N   0  0  0  0  0  0  0  0  0  0  0  0
    9.0602  -15.8206   20.2296 C   0  0  0  0  0  0  0  0  0  0  0  0
    8.2447  -16.5905   20.7872 O   0  0  0  0  0  0  0  0  0  0  0  0
   10.4197  -15.9444   20.5952 N   0  0  0  0  0  0  0  0  0  0  0  0
   10.8246  -16.9012   21.6541 C   0  0  1  0  0  0  0  0  0  0  0  0
   12.2377  -17.3598   21.3473 C   0  0  0  0  0  0  0  0  0  0  0  0
   12.7829  -18.3668   22.2443 C   0  0  0  0  0  0  0  0  0  0  0  0
   12.2269  -18.9516   23.1911 O   0  0  0  0  0  0  0  0  0  0  0  0
   10.6591  -16.3204   22.9873 C   0  0  0  0  0  0  0  0  0  0  0  0
   11.2807  -15.2893   23.3836 O   0  0  0  0  0  0  0  0  0  0  0  0
   14.1279  -18.7347   22.0126 O   0  0  0  0  0  0  0  0  0  0  0  0
    9.7716  -16.8733   23.9635 N   0  0  0  0  0  0  0  0  0  0  0  0
    9.7223  -16.3566   25.3233 C   0  0  1  0  0  0  0  0  0  0  0  0
    8.4701  -15.5351   25.5334 C   0  0  0  0  0  0  0  0  0  0  0  0
    6.9943  -16.4025   24.9438 S   0  0  0  0  0  0  0  0  0  0  0  0
    9.7101  -17.4897   26.2797 C   0  0  0  0  0  0  0  0  0  0  0  0
    9.7661  -17.2599   27.6314 O   0  0  0  0  0  0  0  0  0  0  0  0
    9.6491  -18.6925   25.8903 O   0  0  0  0  0  0  0  0  0  0  0  0
  2  1  1  1
  2  3  1  0
  4  5  1  1
  4  6  1  0
  4  2  1  0
  6  7  2  0
  8  9  1  0
  8  6  1  0
  9 13  1  0
  9 10  1  6
 11 10  1  0
 12 11  2  0
 13 14  2  0
 13 16  1  0
 15 11  1  0
 16 17  1  0
 17 20  1  0
 17 18  1  6
 19 18  1  0
 20 22  2  0
 20 21  1  0
M  END
$$$$
