VDC.pdb
     RDKit          3D

 22 21  0  0  1  0  0  0  0  0999 V2000
    8.2654  -12.9598   18.6150 C   0  0  0  0  0  0  0  0  0  0  0  0
    8.1302  -14.0140   19.6977 C   0  0  2  0  0  0  0  0  0  0  0  0
    6.8703  -13.7666   20.4460 C   0  0  0  0  0  0  0  0  0  0  0  0
    9.3879  -13.9560   20.5401 C   0  0  2  0  0  0  0  0  0  0  0  0
   10.4745  -14.3986   19.6545 N   0  0  0  0  0  0  0  0  0  0  0  0
    9.3807  -14.8694   21.6899 C   0  0  0  0  0  0  0  0  0  0  0  0
    8.4962  -14.7609   22.5699 O   0  0  0  0  0  0  0  0  0  0  0  0
   10.3396  -15.8935   21.8601 N   0  0  0  0  0  0  0  0  0  0  0  0
   10.3483  -16.7106   23.0982 C   0  0  1  0  0  0  0  0  0  0  0  0
   11.2746  -17.8897   22.8676 C   0  0  0  0  0  0  0  0  0  0  0  0
   10.8511  -18.8344   21.8459 C   0  0  0  0  0  0  0  0  0  0  0  0
   11.4915  -19.2704   20.8727 O   0  0  0  0  0  0  0  0  0  0  0  0
   10.6899  -15.9000   24.2680 C   0  0  0  0  0  0  0  0  0  0  0  0
   11.3045  -14.7938   24.1978 O   0  0  0  0  0  0  0  0  0  0  0  0
    9.5323  -19.3274   21.9716 O   0  0  0  0  0  0  0  0  0  0  0  0
   10.3533  -16.2926   25.6018 N   0  0  0  0  0  0  0  0  0  0  0  0
   10.3041  -15.3251   26.6881 C   0  0  1  0  0  0  0  0  0  0  0  0
    9.2315  -14.2911   26.4292 C   0  0  0  0  0  0  0  0  0  0  0  0
    9.0931  -13.1137   27.7976 S   0  0  0  0  0  0  0  0  0  0  0  0
    9.9890  -16.0255   27.9565 C   0  0  0  0  0  0  0  0  0  0  0  0
    9.5444  -17.3236   27.9426 O   0  0  0  0  0  0  0  0  0  0  0  0
   10.1160  -15.4599   29.0818 O   0  0  0  0  0  0  0  0  0  0  0  0
  2  1  1  6
  2  3  1  0
  4  5  1  6
  4  6  1  0
  4  2  1  0
  6  7  2  0
  8  9  1  0
  8  6  1  0
  9 13  1  0
  9 10  1  6
 11 10  1  0
 12 11  2  0
 13 14  2  0
 13 16  1  0
 15 11  1  0
 16 17  1  0
 17 20  1  0
 17 18  1  6
 19 18  1  0
 20 22  2  0
 20 21  1  0
M  END
$$$$
