VDC.pdb
     RDKit          3D

 22 21  0  0  1  0  0  0  0  0999 V2000
    8.3057  -13.0226   17.8103 C   0  0  0  0  0  0  0  0  0  0  0  0
    7.9063  -13.7011   19.1072 C   0  0  2  0  0  0  0  0  0  0  0  0
    6.7065  -13.0143   19.6520 C   0  0  0  0  0  0  0  0  0  0  0  0
    9.1169  -13.6770   20.0176 C   0  0  2  0  0  0  0  0  0  0  0  0
   10.1344  -14.4932   19.3398 N   0  0  0  0  0  0  0  0  0  0  0  0
    8.8894  -14.2904   21.3322 C   0  0  0  0  0  0  0  0  0  0  0  0
    7.9975  -13.8397   22.0873 O   0  0  0  0  0  0  0  0  0  0  0  0
    9.6382  -15.3928   21.8026 N   0  0  0  0  0  0  0  0  0  0  0  0
    9.2810  -16.0458   23.0858 C   0  0  1  0  0  0  0  0  0  0  0  0
   10.1490  -17.2812   23.2334 C   0  0  0  0  0  0  0  0  0  0  0  0
   10.0115  -18.0025   24.4890 C   0  0  0  0  0  0  0  0  0  0  0  0
    9.0452  -18.0289   25.2720 O   0  0  0  0  0  0  0  0  0  0  0  0
    9.3784  -15.1078   24.2051 C   0  0  0  0  0  0  0  0  0  0  0  0
   10.4507  -14.5160   24.5312 O   0  0  0  0  0  0  0  0  0  0  0  0
   11.1255  -18.7813   24.8771 O   0  0  0  0  0  0  0  0  0  0  0  0
    8.2589  -14.7765   25.0318 N   0  0  0  0  0  0  0  0  0  0  0  0
    8.3446  -13.7329   26.0428 C   0  0  1  0  0  0  0  0  0  0  0  0
    7.1973  -12.7585   25.8977 C   0  0  0  0  0  0  0  0  0  0  0  0
    6.2558  -12.5998   27.4360 S   0  0  0  0  0  0  0  0  0  0  0  0
    8.2754  -14.3471   27.3906 C   0  0  0  0  0  0  0  0  0  0  0  0
    7.7968  -15.6232   27.5500 O   0  0  0  0  0  0  0  0  0  0  0  0
    8.6491  -13.7258   28.4282 O   0  0  0  0  0  0  0  0  0  0  0  0
  2  1  1  6
  2  3  1  0
  4  5  1  6
  4  6  1  0
  4  2  1  0
  6  7  2  0
  8  9  1  0
  8  6  1  0
  9 13  1  0
  9 10  1  1
 11 10  1  0
 12 11  2  0
 13 14  2  0
 13 16  1  0
 15 11  1  0
 16 17  1  0
 17 20  1  0
 17 18  1  6
 19 18  1  0
 20 22  2  0
 20 21  1  0
M  END
$$$$
