VDC.pdb
     RDKit          3D

 22 21  0  0  1  0  0  0  0  0999 V2000
    7.4132  -13.3995   21.5444 C   0  0  0  0  0  0  0  0  0  0  0  0
    8.4535  -13.5686   20.4531 C   0  0  2  0  0  0  0  0  0  0  0  0
    7.9702  -12.8825   19.2267 C   0  0  0  0  0  0  0  0  0  0  0  0
    8.6973  -15.0550   20.2918 C   0  0  2  0  0  0  0  0  0  0  0  0
    7.4004  -15.6254   19.8995 N   0  0  0  0  0  0  0  0  0  0  0  0
    9.1004  -15.7332   21.5302 C   0  0  0  0  0  0  0  0  0  0  0  0
    8.2294  -16.1387   22.3337 O   0  0  0  0  0  0  0  0  0  0  0  0
   10.4522  -15.9633   21.8720 N   0  0  0  0  0  0  0  0  0  0  0  0
   10.7937  -16.7273   23.0968 C   0  0  1  0  0  0  0  0  0  0  0  0
   12.0583  -17.5155   22.8127 C   0  0  0  0  0  0  0  0  0  0  0  0
   11.9274  -18.5894   21.8403 C   0  0  0  0  0  0  0  0  0  0  0  0
   10.9443  -19.3150   21.6067 O   0  0  0  0  0  0  0  0  0  0  0  0
   10.8846  -15.8486   24.2637 C   0  0  0  0  0  0  0  0  0  0  0  0
   11.5670  -14.7807   24.2843 O   0  0  0  0  0  0  0  0  0  0  0  0
   13.0708  -18.8478   21.0504 O   0  0  0  0  0  0  0  0  0  0  0  0
   10.2024  -16.1243   25.4905 N   0  0  0  0  0  0  0  0  0  0  0  0
   10.3060  -15.2300   26.6341 C   0  0  1  0  0  0  0  0  0  0  0  0
    9.0382  -14.4207   26.7910 C   0  0  0  0  0  0  0  0  0  0  0  0
    9.1487  -13.2673   28.1822 S   0  0  0  0  0  0  0  0  0  0  0  0
   10.5120  -16.0291   27.8661 C   0  0  0  0  0  0  0  0  0  0  0  0
   10.9655  -15.4316   29.0152 O   0  0  0  0  0  0  0  0  0  0  0  0
   10.2812  -17.2731   27.9024 O   0  0  0  0  0  0  0  0  0  0  0  0
  2  1  1  1
  2  3  1  0
  4  5  1  1
  4  6  1  0
  4  2  1  0
  6  7  2  0
  8  9  1  0
  8  6  1  0
  9 13  1  0
  9 10  1  6
 11 10  1  0
 12 11  2  0
 13 14  2  0
 13 16  1  0
 15 11  1  0
 16 17  1  0
 17 20  1  0
 17 18  1  1
 19 18  1  0
 20 22  2  0
 20 21  1  0
M  END
$$$$
