VDC.pdb
     RDKit          3D

 22 21  0  0  1  0  0  0  0  0999 V2000
    8.8023  -12.9580   21.0424 C   0  0  0  0  0  0  0  0  0  0  0  0
    8.1356  -13.7319   19.9206 C   0  0  2  0  0  0  0  0  0  0  0  0
    7.0575  -12.8905   19.3391 C   0  0  0  0  0  0  0  0  0  0  0  0
    7.6654  -15.0494   20.5020 C   0  0  2  0  0  0  0  0  0  0  0  0
    6.6710  -14.6947   21.5250 N   0  0  0  0  0  0  0  0  0  0  0  0
    8.7187  -15.8130   21.1829 C   0  0  0  0  0  0  0  0  0  0  0  0
    9.3314  -16.7176   20.5704 O   0  0  0  0  0  0  0  0  0  0  0  0
    9.0918  -15.5742   22.5249 N   0  0  0  0  0  0  0  0  0  0  0  0
   10.2855  -16.2422   23.0989 C   0  0  1  0  0  0  0  0  0  0  0  0
   11.4463  -16.0099   22.1502 C   0  0  0  0  0  0  0  0  0  0  0  0
   12.6513  -16.7759   22.4282 C   0  0  0  0  0  0  0  0  0  0  0  0
   12.7549  -17.9438   22.8439 O   0  0  0  0  0  0  0  0  0  0  0  0
   10.5349  -15.7985   24.4711 C   0  0  0  0  0  0  0  0  0  0  0  0
   11.6584  -15.9055   25.0480 O   0  0  0  0  0  0  0  0  0  0  0  0
   13.8741  -16.1061   22.1959 O   0  0  0  0  0  0  0  0  0  0  0  0
    9.5210  -15.1994   25.2832 N   0  0  0  0  0  0  0  0  0  0  0  0
    9.7258  -14.9687   26.7056 C   0  0  1  0  0  0  0  0  0  0  0  0
    8.6353  -14.0804   27.2612 C   0  0  0  0  0  0  0  0  0  0  0  0
    8.2882  -12.6820   26.1649 S   0  0  0  0  0  0  0  0  0  0  0  0
    9.6910  -16.2653   27.4241 C   0  0  0  0  0  0  0  0  0  0  0  0
   10.0161  -16.3319   28.7556 O   0  0  0  0  0  0  0  0  0  0  0  0
    9.3657  -17.3424   26.8441 O   0  0  0  0  0  0  0  0  0  0  0  0
  2  1  1  1
  2  3  1  0
  4  5  1  1
  4  6  1  0
  4  2  1  0
  6  7  2  0
  8  9  1  0
  8  6  1  0
  9 13  1  0
  9 10  1  6
 11 10  1  0
 12 11  2  0
 13 14  2  0
 13 16  1  0
 15 11  1  0
 16 17  1  0
 17 20  1  0
 17 18  1  1
 19 18  1  0
 20 22  2  0
 20 21  1  0
M  END
$$$$
