VDC.pdb
     RDKit          3D

 22 21  0  0  1  0  0  0  0  0999 V2000
    7.3129  -12.9279   21.6266 C   0  0  0  0  0  0  0  0  0  0  0  0
    8.2627  -13.4209   20.5510 C   0  0  2  0  0  0  0  0  0  0  0  0
    7.8734  -12.8051   19.2559 C   0  0  0  0  0  0  0  0  0  0  0  0
    8.2162  -14.9349   20.5708 C   0  0  2  0  0  0  0  0  0  0  0  0
    6.8703  -15.2926   20.0998 N   0  0  0  0  0  0  0  0  0  0  0  0
    8.3656  -15.5209   21.9089 C   0  0  0  0  0  0  0  0  0  0  0  0
    7.3583  -15.6921   22.6332 O   0  0  0  0  0  0  0  0  0  0  0  0
    9.6157  -15.9164   22.4363 N   0  0  0  0  0  0  0  0  0  0  0  0
    9.7147  -16.4153   23.8298 C   0  0  1  0  0  0  0  0  0  0  0  0
   10.7720  -17.5028   23.8577 C   0  0  0  0  0  0  0  0  0  0  0  0
   10.5724  -18.6008   22.9247 C   0  0  0  0  0  0  0  0  0  0  0  0
   11.1944  -18.8588   21.8788 O   0  0  0  0  0  0  0  0  0  0  0  0
    9.9560  -15.3205   24.7708 C   0  0  0  0  0  0  0  0  0  0  0  0
   11.0018  -14.6045   24.7582 O   0  0  0  0  0  0  0  0  0  0  0  0
    9.5306  -19.5005   23.2461 O   0  0  0  0  0  0  0  0  0  0  0  0
    9.0209  -14.9631   25.7927 N   0  0  0  0  0  0  0  0  0  0  0  0
    9.3325  -13.9436   26.7836 C   0  0  1  0  0  0  0  0  0  0  0  0
    8.1555  -13.0139   26.9761 C   0  0  0  0  0  0  0  0  0  0  0  0
    6.6077  -13.7699   26.4187 S   0  0  0  0  0  0  0  0  0  0  0  0
    9.6371  -14.5951   28.0804 C   0  0  0  0  0  0  0  0  0  0  0  0
    9.5297  -15.9562   28.2174 O   0  0  0  0  0  0  0  0  0  0  0  0
   10.0014  -13.9295   29.0935 O   0  0  0  0  0  0  0  0  0  0  0  0
  2  1  1  1
  2  3  1  0
  4  5  1  1
  4  6  1  0
  4  2  1  0
  6  7  2  0
  8  9  1  0
  8  6  1  0
  9 13  1  0
  9 10  1  6
 11 10  1  0
 12 11  2  0
 13 14  2  0
 13 16  1  0
 15 11  1  0
 16 17  1  0
 17 20  1  0
 17 18  1  1
 19 18  1  0
 20 22  2  0
 20 21  1  0
M  END
$$$$
