VDC.pdb
     RDKit          3D

 22 21  0  0  1  0  0  0  0  0999 V2000
    7.0847  -13.0604   21.2250 C   0  0  0  0  0  0  0  0  0  0  0  0
    8.2338  -13.3922   20.2917 C   0  0  2  0  0  0  0  0  0  0  0  0
    7.9933  -12.7234   18.9866 C   0  0  0  0  0  0  0  0  0  0  0  0
    8.3320  -14.9022   20.2198 C   0  0  2  0  0  0  0  0  0  0  0  0
    7.1192  -15.3415   19.5147 N   0  0  0  0  0  0  0  0  0  0  0  0
    8.3233  -15.5655   21.5298 C   0  0  0  0  0  0  0  0  0  0  0  0
    7.2393  -15.9345   22.0373 O   0  0  0  0  0  0  0  0  0  0  0  0
    9.5019  -15.8209   22.2666 N   0  0  0  0  0  0  0  0  0  0  0  0
    9.4199  -16.3945   23.6322 C   0  0  1  0  0  0  0  0  0  0  0  0
   10.4591  -17.4949   23.7348 C   0  0  0  0  0  0  0  0  0  0  0  0
   10.5463  -18.1621   25.0244 C   0  0  0  0  0  0  0  0  0  0  0  0
    9.9039  -19.1427   25.4406 O   0  0  0  0  0  0  0  0  0  0  0  0
    9.5455  -15.3544   24.6543 C   0  0  0  0  0  0  0  0  0  0  0  0
   10.5870  -14.6493   24.8111 O   0  0  0  0  0  0  0  0  0  0  0  0
   11.4882  -17.6269   25.9323 O   0  0  0  0  0  0  0  0  0  0  0  0
    8.4914  -15.0431   25.5699 N   0  0  0  0  0  0  0  0  0  0  0  0
    8.6716  -14.0616   26.6294 C   0  0  1  0  0  0  0  0  0  0  0  0
    7.3508  -13.4170   26.9854 C   0  0  0  0  0  0  0  0  0  0  0  0
    6.6097  -12.5796   25.5614 S   0  0  0  0  0  0  0  0  0  0  0  0
    9.2098  -14.7340   27.8364 C   0  0  0  0  0  0  0  0  0  0  0  0
    9.5956  -13.9986   28.9288 O   0  0  0  0  0  0  0  0  0  0  0  0
    9.3319  -15.9921   27.9022 O   0  0  0  0  0  0  0  0  0  0  0  0
  2  1  1  1
  2  3  1  0
  4  5  1  6
  4  6  1  0
  4  2  1  0
  6  7  2  0
  8  9  1  0
  8  6  1  0
  9 13  1  0
  9 10  1  1
 11 10  1  0
 12 11  2  0
 13 14  2  0
 13 16  1  0
 15 11  1  0
 16 17  1  0
 17 20  1  0
 17 18  1  1
 19 18  1  0
 20 22  2  0
 20 21  1  0
M  END
$$$$
