ITN.pdb
     RDKit          3D

 24 23  0  0  1  0  0  0  0  0999 V2000
   21.9774  -22.9640  -17.0773 C   0  0  0  0  0  0  0  0  0  0  0  0
   23.3995  -23.1665  -17.5307 C   0  0  0  0  0  0  0  0  0  0  0  0
   24.3957  -22.3570  -16.7500 C   0  0  2  0  0  0  0  0  0  0  0  0
   25.3803  -21.7741  -17.7482 C   0  0  0  0  0  0  0  0  0  0  0  0
   25.1150  -23.1294  -15.6920 C   0  0  2  0  0  0  0  0  0  0  0  0
   24.0666  -23.8059  -14.9044 N   0  0  0  0  0  0  0  0  0  0  0  0
   25.9197  -22.2479  -14.8214 C   0  0  0  0  0  0  0  0  0  0  0  0
   26.8406  -21.5564  -15.2987 O   0  0  0  0  0  0  0  0  0  0  0  0
   26.6118  -19.4066  -14.3075 C   0  0  0  0  0  0  0  0  0  0  0  0
   26.0938  -19.8305  -12.9749 C   0  0  1  0  0  0  0  0  0  0  0  0
   24.7021  -19.7367  -12.9651 O   0  0  0  0  0  0  0  0  0  0  0  0
   26.4639  -21.2500  -12.6062 C   0  0  2  0  0  0  0  0  0  0  0  0
   25.6888  -22.1431  -13.4096 N   0  0  0  0  0  0  0  0  0  0  0  0
   26.2186  -21.4047  -11.1546 C   0  0  0  0  0  0  0  0  0  0  0  0
   25.2198  -22.0832  -10.8024 O   0  0  0  0  0  0  0  0  0  0  0  0
   27.9403  -18.5434   -5.9340 N   0  0  0  0  0  0  0  0  0  0  0  0
   27.2303  -19.5599   -6.6327 C   0  0  0  0  0  0  0  0  0  0  0  0
   26.4235  -20.2483   -5.9573 O   0  0  0  0  0  0  0  0  0  0  0  0
   27.4971  -19.7159   -8.0631 C   0  0  0  0  0  0  0  0  0  0  0  0
   26.5963  -20.6884   -8.7684 C   0  0  2  0  0  0  0  0  0  0  0  0
   27.0183  -20.8503  -10.1398 N   0  0  0  0  0  0  0  0  0  0  0  0
   25.1759  -20.3951   -8.6155 C   0  0  0  0  0  0  0  0  0  0  0  0
   24.6766  -19.4160   -9.2108 O   0  0  0  0  0  0  0  0  0  0  0  0
   24.3295  -21.1543   -7.8322 O   0  0  0  0  0  0  0  0  0  0  0  0
  2  1  1  0
  3  2  1  0
  3  4  1  6
  3  5  1  0
  5  6  1  1
  7  5  1  0
  7  8  2  0
 10  9  1  6
 10 12  1  0
 10 11  1  0
 12 13  1  6
 13  7  1  0
 14 12  1  0
 15 14  2  0
 16 17  1  0
 17 18  2  0
 19 17  1  0
 20 19  1  6
 20 21  1  0
 21 14  1  0
 22 20  1  0
 23 22  2  0
 24 22  1  0
M  END
$$$$
