ITN.pdb
     RDKit          3D

 24 23  0  0  1  0  0  0  0  0999 V2000
   18.5499  -14.9634  -16.9019 C   0  0  0  0  0  0  0  0  0  0  0  0
   18.9984  -13.5690  -17.2532 C   0  0  0  0  0  0  0  0  0  0  0  0
   18.2701  -12.4983  -16.4914 C   0  0  2  0  0  0  0  0  0  0  0  0
   16.7947  -12.6374  -16.8222 C   0  0  0  0  0  0  0  0  0  0  0  0
   18.7454  -11.1116  -16.7819 C   0  0  2  0  0  0  0  0  0  0  0  0
   20.0445  -10.9790  -16.0949 N   0  0  0  0  0  0  0  0  0  0  0  0
   17.7983  -10.0922  -16.2855 C   0  0  0  0  0  0  0  0  0  0  0  0
   16.7013   -9.9184  -16.8519 O   0  0  0  0  0  0  0  0  0  0  0  0
   15.9690   -9.6617  -13.0635 C   0  0  0  0  0  0  0  0  0  0  0  0
   16.8194   -8.4581  -13.2920 C   0  0  1  0  0  0  0  0  0  0  0  0
   18.0091   -8.5859  -12.5751 O   0  0  0  0  0  0  0  0  0  0  0  0
   17.1768   -8.2375  -14.7451 C   0  0  2  0  0  0  0  0  0  0  0  0
   18.0846   -9.2654  -15.1490 N   0  0  0  0  0  0  0  0  0  0  0  0
   17.7466   -6.8758  -14.8552 C   0  0  0  0  0  0  0  0  0  0  0  0
   18.9722   -6.7776  -15.1203 O   0  0  0  0  0  0  0  0  0  0  0  0
   18.2847   -2.2838  -17.6638 N   0  0  0  0  0  0  0  0  0  0  0  0
   18.8079   -2.9541  -16.5226 C   0  0  0  0  0  0  0  0  0  0  0  0
   19.7031   -2.3513  -15.8774 O   0  0  0  0  0  0  0  0  0  0  0  0
   18.2650   -4.2743  -16.2004 C   0  0  0  0  0  0  0  0  0  0  0  0
   17.5720   -4.3620  -14.8712 C   0  0  2  0  0  0  0  0  0  0  0  0
   17.0207   -5.6836  -14.6857 N   0  0  0  0  0  0  0  0  0  0  0  0
   16.6210   -3.2831  -14.6290 C   0  0  0  0  0  0  0  0  0  0  0  0
   17.0297   -2.1062  -14.5288 O   0  0  0  0  0  0  0  0  0  0  0  0
   15.2621   -3.4908  -14.5008 O   0  0  0  0  0  0  0  0  0  0  0  0
  2  1  1  0
  3  2  1  0
  3  4  1  6
  3  5  1  0
  5  6  1  1
  7  5  1  0
  7  8  2  0
 10  9  1  6
 10 12  1  0
 10 11  1  0
 12 13  1  1
 13  7  1  0
 14 12  1  0
 15 14  2  0
 16 17  1  0
 17 18  2  0
 19 17  1  0
 20 19  1  6
 20 21  1  0
 21 14  1  0
 22 20  1  0
 23 22  2  0
 24 22  1  0
M  END
$$$$
