ITN.pdb
     RDKit          3D

 24 23  0  0  1  0  0  0  0  0999 V2000
   14.8210  -13.8845  -15.9312 C   0  0  0  0  0  0  0  0  0  0  0  0
   16.1263  -13.7512  -16.6709 C   0  0  0  0  0  0  0  0  0  0  0  0
   17.1346  -12.8993  -15.9533 C   0  0  2  0  0  0  0  0  0  0  0  0
   16.5089  -11.5290  -15.7625 C   0  0  0  0  0  0  0  0  0  0  0  0
   18.4479  -12.7841  -16.6571 C   0  0  2  0  0  0  0  0  0  0  0  0
   18.9898  -14.1548  -16.7254 N   0  0  0  0  0  0  0  0  0  0  0  0
   19.3830  -11.9002  -15.9312 C   0  0  0  0  0  0  0  0  0  0  0  0
   19.8278  -12.2302  -14.8143 O   0  0  0  0  0  0  0  0  0  0  0  0
   22.7796  -11.0318  -16.1995 C   0  0  0  0  0  0  0  0  0  0  0  0
   22.0311   -9.7494  -16.3371 C   0  0  1  0  0  0  0  0  0  0  0  0
   21.8623   -9.4518  -17.6894 O   0  0  0  0  0  0  0  0  0  0  0  0
   20.6616   -9.7769  -15.6954 C   0  0  2  0  0  0  0  0  0  0  0  0
   19.8199  -10.6414  -16.4621 N   0  0  0  0  0  0  0  0  0  0  0  0
   20.1739   -8.3804  -15.6417 C   0  0  0  0  0  0  0  0  0  0  0  0
   19.3886   -8.0030  -16.5489 O   0  0  0  0  0  0  0  0  0  0  0  0
   22.7800   -4.4942  -13.5555 N   0  0  0  0  0  0  0  0  0  0  0  0
   21.9185   -5.5075  -13.0490 C   0  0  0  0  0  0  0  0  0  0  0  0
   22.4588   -6.4172  -12.3695 O   0  0  0  0  0  0  0  0  0  0  0  0
   20.4920   -5.4056  -13.3590 C   0  0  0  0  0  0  0  0  0  0  0  0
   20.0778   -6.0700  -14.6402 C   0  0  2  0  0  0  0  0  0  0  0  0
   20.5224   -7.4438  -14.6527 N   0  0  0  0  0  0  0  0  0  0  0  0
   20.4374   -5.3192  -15.8377 C   0  0  0  0  0  0  0  0  0  0  0  0
   19.9991   -4.1597  -15.9983 O   0  0  0  0  0  0  0  0  0  0  0  0
   21.2538   -5.8266  -16.8287 O   0  0  0  0  0  0  0  0  0  0  0  0
  2  1  1  0
  3  2  1  0
  3  4  1  6
  3  5  1  0
  5  6  1  1
  7  5  1  0
  7  8  2  0
 10  9  1  6
 10 12  1  0
 10 11  1  0
 12 13  1  6
 13  7  1  0
 14 12  1  0
 15 14  2  0
 16 17  1  0
 17 18  2  0
 19 17  1  0
 20 19  1  1
 20 21  1  0
 21 14  1  0
 22 20  1  0
 23 22  2  0
 24 22  1  0
M  END
$$$$
