ITN.pdb
     RDKit          3D

 24 23  0  0  1  0  0  0  0  0999 V2000
   17.4672  -13.6227  -19.7844 C   0  0  0  0  0  0  0  0  0  0  0  0
   18.6379  -13.5462  -18.8397 C   0  0  0  0  0  0  0  0  0  0  0  0
   18.7019  -12.2563  -18.0721 C   0  0  2  0  0  0  0  0  0  0  0  0
   18.8183  -11.1347  -19.0891 C   0  0  0  0  0  0  0  0  0  0  0  0
   19.8213  -12.1885  -17.0843 C   0  0  2  0  0  0  0  0  0  0  0  0
   19.6565  -13.3638  -16.2076 N   0  0  0  0  0  0  0  0  0  0  0  0
   19.7744  -10.9455  -16.2873 C   0  0  0  0  0  0  0  0  0  0  0  0
   18.7758  -10.6775  -15.5908 O   0  0  0  0  0  0  0  0  0  0  0  0
   22.1340   -7.3386  -13.9820 C   0  0  0  0  0  0  0  0  0  0  0  0
   22.1103   -8.5470  -14.8555 C   0  0  1  0  0  0  0  0  0  0  0  0
   22.4424   -9.6727  -14.1017 O   0  0  0  0  0  0  0  0  0  0  0  0
   20.7651   -8.8017  -15.4987 C   0  0  2  0  0  0  0  0  0  0  0  0
   20.8533  -10.0005  -16.2727 N   0  0  0  0  0  0  0  0  0  0  0  0
   20.4307   -7.6065  -16.3052 C   0  0  0  0  0  0  0  0  0  0  0  0
   20.0528   -7.7915  -17.4906 O   0  0  0  0  0  0  0  0  0  0  0  0
   18.6588   -3.0832  -17.8357 N   0  0  0  0  0  0  0  0  0  0  0  0
   17.8746   -4.2388  -17.5619 C   0  0  0  0  0  0  0  0  0  0  0  0
   16.6764   -4.2086  -17.9422 O   0  0  0  0  0  0  0  0  0  0  0  0
   18.5227   -5.3525  -16.8682 C   0  0  0  0  0  0  0  0  0  0  0  0
   19.9772   -5.1410  -16.5611 C   0  0  2  0  0  0  0  0  0  0  0  0
   20.5037   -6.2796  -15.8460 N   0  0  0  0  0  0  0  0  0  0  0  0
   20.2670   -3.8584  -15.9301 C   0  0  0  0  0  0  0  0  0  0  0  0
   20.2996   -3.7731  -14.6836 O   0  0  0  0  0  0  0  0  0  0  0  0
   20.5134   -2.7044  -16.6468 O   0  0  0  0  0  0  0  0  0  0  0  0
  2  1  1  0
  3  2  1  0
  3  4  1  6
  3  5  1  0
  5  6  1  1
  7  5  1  0
  7  8  2  0
 10  9  1  1
 10 12  1  0
 10 11  1  0
 12 13  1  6
 13  7  1  0
 14 12  1  0
 15 14  2  0
 16 17  1  0
 17 18  2  0
 19 17  1  0
 20 19  1  1
 20 21  1  0
 21 14  1  0
 22 20  1  0
 23 22  2  0
 24 22  1  0
M  END
$$$$
