ITN.pdb
     RDKit          3D

 24 23  0  0  1  0  0  0  0  0999 V2000
   18.3320  -12.2551  -20.3758 C   0  0  0  0  0  0  0  0  0  0  0  0
   18.0262  -12.8389  -19.0214 C   0  0  0  0  0  0  0  0  0  0  0  0
   18.5706  -12.0232  -17.8832 C   0  0  2  0  0  0  0  0  0  0  0  0
   18.0681  -10.6025  -18.0693 C   0  0  0  0  0  0  0  0  0  0  0  0
   20.0610  -12.0438  -17.7754 C   0  0  2  0  0  0  0  0  0  0  0  0
   20.4353  -13.4645  -17.6387 N   0  0  0  0  0  0  0  0  0  0  0  0
   20.5367  -11.2751  -16.6069 C   0  0  0  0  0  0  0  0  0  0  0  0
   20.0768  -11.5017  -15.4704 O   0  0  0  0  0  0  0  0  0  0  0  0
   23.9049  -10.9932  -15.1328 C   0  0  0  0  0  0  0  0  0  0  0  0
   23.4363   -9.6080  -15.4250 C   0  0  1  0  0  0  0  0  0  0  0  0
   24.0130   -9.1628  -16.6146 O   0  0  0  0  0  0  0  0  0  0  0  0
   21.9348   -9.4955  -15.5689 C   0  0  2  0  0  0  0  0  0  0  0  0
   21.5323  -10.2484  -16.7157 N   0  0  0  0  0  0  0  0  0  0  0  0
   21.6101   -8.0549  -15.6701 C   0  0  0  0  0  0  0  0  0  0  0  0
   21.5145   -7.5596  -16.8223 O   0  0  0  0  0  0  0  0  0  0  0  0
   19.2194   -5.9117  -16.6327 N   0  0  0  0  0  0  0  0  0  0  0  0
   18.7651   -5.5481  -15.3339 C   0  0  0  0  0  0  0  0  0  0  0  0
   17.5321   -5.3360  -15.2081 O   0  0  0  0  0  0  0  0  0  0  0  0
   19.7615   -5.4529  -14.2664 C   0  0  0  0  0  0  0  0  0  0  0  0
   21.1660   -5.7780  -14.6862 C   0  0  2  0  0  0  0  0  0  0  0  0
   21.4006   -7.1984  -14.5750 N   0  0  0  0  0  0  0  0  0  0  0  0
   22.1813   -4.9564  -14.0372 C   0  0  0  0  0  0  0  0  0  0  0  0
   22.9820   -5.4795  -13.2326 O   0  0  0  0  0  0  0  0  0  0  0  0
   22.3130   -3.6010  -14.2650 O   0  0  0  0  0  0  0  0  0  0  0  0
  2  1  1  0
  3  2  1  0
  3  4  1  6
  3  5  1  0
  5  6  1  1
  7  5  1  0
  7  8  2  0
 10  9  1  6
 10 12  1  0
 10 11  1  0
 12 13  1  6
 13  7  1  0
 14 12  1  0
 15 14  2  0
 16 17  1  0
 17 18  2  0
 19 17  1  0
 20 19  1  1
 20 21  1  0
 21 14  1  0
 22 20  1  0
 23 22  2  0
 24 22  1  0
M  END
$$$$
