ITN.pdb
     RDKit          3D

 24 23  0  0  1  0  0  0  0  0999 V2000
   18.9122  -16.1070  -17.9867 C   0  0  0  0  0  0  0  0  0  0  0  0
   19.4023  -14.8067  -18.5678 C   0  0  0  0  0  0  0  0  0  0  0  0
   19.3421  -13.6598  -17.5991 C   0  0  2  0  0  0  0  0  0  0  0  0
   17.8927  -13.5094  -17.1721 C   0  0  0  0  0  0  0  0  0  0  0  0
   19.8655  -12.3711  -18.1453 C   0  0  2  0  0  0  0  0  0  0  0  0
   21.2030  -12.6774  -18.6881 N   0  0  0  0  0  0  0  0  0  0  0  0
   19.9639  -11.3322  -17.0995 C   0  0  0  0  0  0  0  0  0  0  0  0
   18.9725  -11.0399  -16.4025 O   0  0  0  0  0  0  0  0  0  0  0  0
   22.7882   -8.4428  -14.2577 C   0  0  0  0  0  0  0  0  0  0  0  0
   22.6015   -9.5410  -15.2492 C   0  0  1  0  0  0  0  0  0  0  0  0
   22.8219  -10.7707  -14.6286 O   0  0  0  0  0  0  0  0  0  0  0  0
   21.2190   -9.5737  -15.8619 C   0  0  2  0  0  0  0  0  0  0  0  0
   21.1804  -10.6193  -16.8361 N   0  0  0  0  0  0  0  0  0  0  0  0
   20.9593   -8.2323  -16.4313 C   0  0  0  0  0  0  0  0  0  0  0  0
   21.0767   -8.0959  -17.6761 O   0  0  0  0  0  0  0  0  0  0  0  0
   18.9297   -3.6837  -17.4649 N   0  0  0  0  0  0  0  0  0  0  0  0
   18.5143   -4.9564  -17.9476 C   0  0  0  0  0  0  0  0  0  0  0  0
   17.6918   -4.9562  -18.8988 O   0  0  0  0  0  0  0  0  0  0  0  0
   19.0738   -6.1448  -17.3026 C   0  0  0  0  0  0  0  0  0  0  0  0
   20.1196   -5.8624  -16.2627 C   0  0  2  0  0  0  0  0  0  0  0  0
   20.5911   -7.0989  -15.6851 N   0  0  0  0  0  0  0  0  0  0  0  0
   19.7192   -4.8628  -15.2791 C   0  0  0  0  0  0  0  0  0  0  0  0
   19.0104   -5.1987  -14.3059 O   0  0  0  0  0  0  0  0  0  0  0  0
   20.0861   -3.5344  -15.3620 O   0  0  0  0  0  0  0  0  0  0  0  0
  2  1  1  0
  3  2  1  0
  3  4  1  6
  3  5  1  0
  5  6  1  1
  7  5  1  0
  7  8  2  0
 10  9  1  1
 10 12  1  0
 10 11  1  0
 12 13  1  6
 13  7  1  0
 14 12  1  0
 15 14  2  0
 16 17  1  0
 17 18  2  0
 19 17  1  0
 20 19  1  6
 20 21  1  0
 21 14  1  0
 22 20  1  0
 23 22  2  0
 24 22  1  0
M  END
$$$$
