ITN.pdb
     RDKit          3D

 24 23  0  0  1  0  0  0  0  0999 V2000
   16.4922  -14.6806  -16.4036 C   0  0  0  0  0  0  0  0  0  0  0  0
   17.9044  -14.4951  -16.8935 C   0  0  0  0  0  0  0  0  0  0  0  0
   18.5494  -13.2345  -16.3915 C   0  0  2  0  0  0  0  0  0  0  0  0
   17.6961  -12.0732  -16.8697 C   0  0  0  0  0  0  0  0  0  0  0  0
   19.9680  -13.0590  -16.8277 C   0  0  2  0  0  0  0  0  0  0  0  0
   20.6954  -14.2360  -16.3153 N   0  0  0  0  0  0  0  0  0  0  0  0
   20.5583  -11.8176  -16.2863 C   0  0  0  0  0  0  0  0  0  0  0  0
   20.7375  -11.6845  -15.0597 O   0  0  0  0  0  0  0  0  0  0  0  0
   23.2976   -7.8230  -16.8987 C   0  0  0  0  0  0  0  0  0  0  0  0
   22.6587   -9.0772  -17.3912 C   0  0  1  0  0  0  0  0  0  0  0  0
   23.5950  -10.1112  -17.3818 O   0  0  0  0  0  0  0  0  0  0  0  0
   21.4742   -9.5187  -16.5607 C   0  0  2  0  0  0  0  0  0  0  0  0
   20.9486  -10.7221  -17.1259 N   0  0  0  0  0  0  0  0  0  0  0  0
   20.5028   -8.4018  -16.5528 C   0  0  0  0  0  0  0  0  0  0  0  0
   19.3894   -8.5952  -17.1051 O   0  0  0  0  0  0  0  0  0  0  0  0
   17.7953   -4.2046  -15.3984 N   0  0  0  0  0  0  0  0  0  0  0  0
   17.4779   -5.5434  -15.0349 C   0  0  0  0  0  0  0  0  0  0  0  0
   16.3215   -5.7448  -14.5841 O   0  0  0  0  0  0  0  0  0  0  0  0
   18.5138   -6.5613  -15.2149 C   0  0  0  0  0  0  0  0  0  0  0  0
   19.7510   -6.0820  -15.9180 C   0  0  2  0  0  0  0  0  0  0  0  0
   20.7311   -7.1409  -15.9742 N   0  0  0  0  0  0  0  0  0  0  0  0
   20.2702   -4.8196  -15.4044 C   0  0  0  0  0  0  0  0  0  0  0  0
   19.5594   -3.7925  -15.4476 O   0  0  0  0  0  0  0  0  0  0  0  0
   21.5322   -4.6894  -14.8599 O   0  0  0  0  0  0  0  0  0  0  0  0
  2  1  1  0
  3  2  1  0
  3  4  1  6
  3  5  1  0
  5  6  1  1
  7  5  1  0
  7  8  2  0
 10  9  1  1
 10 12  1  0
 10 11  1  0
 12 13  1  6
 13  7  1  0
 14 12  1  0
 15 14  2  0
 16 17  1  0
 17 18  2  0
 19 17  1  0
 20 19  1  1
 20 21  1  0
 21 14  1  0
 22 20  1  0
 23 22  2  0
 24 22  1  0
M  END
$$$$
