ITN.pdb
     RDKit          3D

 24 23  0  0  1  0  0  0  0  0999 V2000
   22.8870  -13.1791  -18.6383 C   0  0  0  0  0  0  0  0  0  0  0  0
   23.3652  -11.7793  -18.3542 C   0  0  0  0  0  0  0  0  0  0  0  0
   22.3974  -10.9726  -17.5358 C   0  0  2  0  0  0  0  0  0  0  0  0
   21.0760  -10.9641  -18.2839 C   0  0  0  0  0  0  0  0  0  0  0  0
   22.8510   -9.5768  -17.2543 C   0  0  2  0  0  0  0  0  0  0  0  0
   24.0904   -9.7077  -16.4645 N   0  0  0  0  0  0  0  0  0  0  0  0
   21.8389   -8.8142  -16.4948 C   0  0  0  0  0  0  0  0  0  0  0  0
   20.7410   -8.5297  -17.0123 O   0  0  0  0  0  0  0  0  0  0  0  0
   20.1129   -9.6151  -13.2881 C   0  0  0  0  0  0  0  0  0  0  0  0
   20.7756   -8.2875  -13.1391 C   0  0  1  0  0  0  0  0  0  0  0  0
   21.9848   -8.4444  -12.4616 O   0  0  0  0  0  0  0  0  0  0  0  0
   21.0695   -7.6071  -14.4577 C   0  0  2  0  0  0  0  0  0  0  0  0
   22.0614   -8.3698  -15.1493 N   0  0  0  0  0  0  0  0  0  0  0  0
   21.5010   -6.2246  -14.1517 C   0  0  0  0  0  0  0  0  0  0  0  0
   22.7337   -6.0172  -14.0125 O   0  0  0  0  0  0  0  0  0  0  0  0
   21.9709   -1.1605  -14.2814 N   0  0  0  0  0  0  0  0  0  0  0  0
   22.3737   -2.0710  -15.2983 C   0  0  0  0  0  0  0  0  0  0  0  0
   23.1019   -1.6072  -16.2124 O   0  0  0  0  0  0  0  0  0  0  0  0
   21.9108   -3.4554  -15.1946 C   0  0  0  0  0  0  0  0  0  0  0  0
   21.0677   -3.7478  -13.9869 C   0  0  2  0  0  0  0  0  0  0  0  0
   20.6364   -5.1257  -14.0051 N   0  0  0  0  0  0  0  0  0  0  0  0
   19.9878   -2.7908  -13.7751 C   0  0  0  0  0  0  0  0  0  0  0  0
   18.8456   -3.0353  -14.2199 O   0  0  0  0  0  0  0  0  0  0  0  0
   20.1573   -1.6011  -13.0953 O   0  0  0  0  0  0  0  0  0  0  0  0
  2  1  1  0
  3  2  1  0
  3  4  1  6
  3  5  1  0
  5  6  1  1
  7  5  1  0
  7  8  2  0
 10  9  1  6
 10 12  1  0
 10 11  1  0
 12 13  1  1
 13  7  1  0
 14 12  1  0
 15 14  2  0
 16 17  1  0
 17 18  2  0
 19 17  1  0
 20 19  1  6
 20 21  1  0
 21 14  1  0
 22 20  1  0
 23 22  2  0
 24 22  1  0
M  END
$$$$
