ITN.pdb
     RDKit          3D

 24 23  0  0  1  0  0  0  0  0999 V2000
   20.4319  -16.2725  -19.8691 C   0  0  0  0  0  0  0  0  0  0  0  0
   21.0459  -15.4772  -18.7469 C   0  0  0  0  0  0  0  0  0  0  0  0
   20.7657  -14.0039  -18.8368 C   0  0  2  0  0  0  0  0  0  0  0  0
   21.2680  -13.5338  -20.1904 C   0  0  0  0  0  0  0  0  0  0  0  0
   21.3803  -13.1974  -17.7390 C   0  0  2  0  0  0  0  0  0  0  0  0
   20.9737  -13.8534  -16.4813 N   0  0  0  0  0  0  0  0  0  0  0  0
   20.9117  -11.7965  -17.7596 C   0  0  0  0  0  0  0  0  0  0  0  0
   21.2542  -11.0280  -18.6796 O   0  0  0  0  0  0  0  0  0  0  0  0
   17.3402  -10.5893  -17.7816 C   0  0  0  0  0  0  0  0  0  0  0  0
   18.0662   -9.9396  -16.6526 C   0  0  1  0  0  0  0  0  0  0  0  0
   17.7899  -10.6216  -15.4676 O   0  0  0  0  0  0  0  0  0  0  0  0
   19.5678   -9.9164  -16.8332 C   0  0  2  0  0  0  0  0  0  0  0  0
   20.0552  -11.2574  -16.7432 N   0  0  0  0  0  0  0  0  0  0  0  0
   20.1213   -9.0205  -15.7929 C   0  0  0  0  0  0  0  0  0  0  0  0
   20.6306   -9.5557  -14.7750 O   0  0  0  0  0  0  0  0  0  0  0  0
   22.1946   -5.4121  -12.8239 N   0  0  0  0  0  0  0  0  0  0  0  0
   22.3018   -5.0642  -14.1997 C   0  0  0  0  0  0  0  0  0  0  0  0
   22.8159   -3.9463  -14.4588 O   0  0  0  0  0  0  0  0  0  0  0  0
   21.8098   -6.0272  -15.1856 C   0  0  0  0  0  0  0  0  0  0  0  0
   20.5571   -6.7522  -14.7856 C   0  0  2  0  0  0  0  0  0  0  0  0
   20.1205   -7.6159  -15.8571 N   0  0  0  0  0  0  0  0  0  0  0  0
   19.5115   -5.8800  -14.2631 C   0  0  0  0  0  0  0  0  0  0  0  0
   18.6264   -5.4436  -15.0301 O   0  0  0  0  0  0  0  0  0  0  0  0
   19.4404   -5.4986  -12.9381 O   0  0  0  0  0  0  0  0  0  0  0  0
  2  1  1  0
  3  2  1  0
  3  4  1  6
  3  5  1  0
  5  6  1  1
  7  5  1  0
  7  8  2  0
 10  9  1  6
 10 12  1  0
 10 11  1  0
 12 13  1  1
 13  7  1  0
 14 12  1  0
 15 14  2  0
 16 17  1  0
 17 18  2  0
 19 17  1  0
 20 19  1  6
 20 21  1  0
 21 14  1  0
 22 20  1  0
 23 22  2  0
 24 22  1  0
M  END
$$$$
