ITN.pdb
     RDKit          3D

 24 23  0  0  1  0  0  0  0  0999 V2000
   30.5939  -40.3094  -10.7766 C   0  0  0  0  0  0  0  0  0  0  0  0
   30.7507  -38.8276  -10.5564 C   0  0  0  0  0  0  0  0  0  0  0  0
   31.5674  -38.4880   -9.3420 C   0  0  2  0  0  0  0  0  0  0  0  0
   32.5723  -39.6098   -9.1494 C   0  0  0  0  0  0  0  0  0  0  0  0
   30.7605  -38.2862   -8.1004 C   0  0  2  0  0  0  0  0  0  0  0  0
   29.9433  -37.0817   -8.3426 N   0  0  0  0  0  0  0  0  0  0  0  0
   31.6192  -38.0912   -6.9142 C   0  0  0  0  0  0  0  0  0  0  0  0
   32.2780  -39.0408   -6.4467 O   0  0  0  0  0  0  0  0  0  0  0  0
   34.6347  -36.1034   -6.1040 C   0  0  0  0  0  0  0  0  0  0  0  0
   33.5393  -35.6727   -5.1883 C   0  0  1  0  0  0  0  0  0  0  0  0
   32.9470  -34.5116   -5.6851 O   0  0  0  0  0  0  0  0  0  0  0  0
   32.4515  -36.7097   -5.0174 C   0  0  2  0  0  0  0  0  0  0  0  0
   31.7382  -36.8250   -6.2510 N   0  0  0  0  0  0  0  0  0  0  0  0
   31.6014  -36.2720   -3.8874 C   0  0  0  0  0  0  0  0  0  0  0  0
   30.3737  -36.1133   -4.1104 O   0  0  0  0  0  0  0  0  0  0  0  0
   29.4074  -34.6856    0.3611 N   0  0  0  0  0  0  0  0  0  0  0  0
   28.8707  -35.0093   -0.9167 C   0  0  0  0  0  0  0  0  0  0  0  0
   27.6344  -34.8365   -1.0677 O   0  0  0  0  0  0  0  0  0  0  0  0
   29.7938  -35.5106   -1.9355 C   0  0  0  0  0  0  0  0  0  0  0  0
   31.2079  -35.6969   -1.4658 C   0  0  2  0  0  0  0  0  0  0  0  0
   32.0630  -36.0204   -2.5834 N   0  0  0  0  0  0  0  0  0  0  0  0
   31.3390  -36.6086   -0.3351 C   0  0  0  0  0  0  0  0  0  0  0  0
   30.8071  -36.3213    0.7589 O   0  0  0  0  0  0  0  0  0  0  0  0
   32.0335  -37.7999   -0.4039 O   0  0  0  0  0  0  0  0  0  0  0  0
  2  1  1  0
  3  2  1  0
  3  4  1  1
  3  5  1  0
  5  6  1  6
  7  5  1  0
  7  8  2  0
 10  9  1  6
 10 12  1  0
 10 11  1  0
 12 13  1  6
 13  7  1  0
 14 12  1  0
 15 14  2  0
 16 17  1  0
 17 18  2  0
 19 17  1  0
 20 19  1  6
 20 21  1  0
 21 14  1  0
 22 20  1  0
 23 22  2  0
 24 22  1  0
M  END
$$$$
