ITN.pdb
     RDKit          3D

 24 23  0  0  1  0  0  0  0  0999 V2000
   14.0169  -12.5056  -10.0426 C   0  0  0  0  0  0  0  0  0  0  0  0
   13.9783  -12.3218  -11.5371 C   0  0  0  0  0  0  0  0  0  0  0  0
   15.3011  -11.9169  -12.1229 C   0  0  2  0  0  0  0  0  0  0  0  0
   15.7080  -10.6156  -11.4544 C   0  0  0  0  0  0  0  0  0  0  0  0
   15.2891  -11.7628  -13.6094 C   0  0  2  0  0  0  0  0  0  0  0  0
   14.8854  -13.0762  -14.1471 N   0  0  0  0  0  0  0  0  0  0  0  0
   16.6178  -11.3831  -14.1318 C   0  0  0  0  0  0  0  0  0  0  0  0
   17.5732  -12.1818  -14.0724 O   0  0  0  0  0  0  0  0  0  0  0  0
   17.6162  -10.6828  -17.5459 C   0  0  0  0  0  0  0  0  0  0  0  0
   18.0031   -9.4918  -16.7363 C   0  0  1  0  0  0  0  0  0  0  0  0
   17.0296   -8.5018  -16.8703 O   0  0  0  0  0  0  0  0  0  0  0  0
   18.1607   -9.7885  -15.2615 C   0  0  2  0  0  0  0  0  0  0  0  0
   16.8739  -10.1015  -14.7229 N   0  0  0  0  0  0  0  0  0  0  0  0
   18.7834   -8.5990  -14.6384 C   0  0  0  0  0  0  0  0  0  0  0  0
   18.4517   -8.3199  -13.4577 O   0  0  0  0  0  0  0  0  0  0  0  0
   21.9171   -4.8636  -13.1757 N   0  0  0  0  0  0  0  0  0  0  0  0
   21.9194   -6.1952  -12.6735 C   0  0  0  0  0  0  0  0  0  0  0  0
   22.6272   -6.4118  -11.6570 O   0  0  0  0  0  0  0  0  0  0  0  0
   21.1064   -7.1888  -13.3758 C   0  0  0  0  0  0  0  0  0  0  0  0
   20.4148   -6.6788  -14.6071 C   0  0  2  0  0  0  0  0  0  0  0  0
   19.7179   -7.7575  -15.2672 N   0  0  0  0  0  0  0  0  0  0  0  0
   21.2775   -5.9019  -15.4898 C   0  0  0  0  0  0  0  0  0  0  0  0
   21.9172   -6.4772  -16.3965 O   0  0  0  0  0  0  0  0  0  0  0  0
   21.4330   -4.5345  -15.3799 O   0  0  0  0  0  0  0  0  0  0  0  0
  2  1  1  0
  3  2  1  0
  3  4  1  1
  3  5  1  0
  5  6  1  6
  7  5  1  0
  7  8  2  0
 10  9  1  6
 10 12  1  0
 10 11  1  0
 12 13  1  1
 13  7  1  0
 14 12  1  0
 15 14  2  0
 16 17  1  0
 17 18  2  0
 19 17  1  0
 20 19  1  1
 20 21  1  0
 21 14  1  0
 22 20  1  0
 23 22  2  0
 24 22  1  0
M  END
$$$$
