ITN.pdb
     RDKit          3D

 24 23  0  0  1  0  0  0  0  0999 V2000
   14.0363  -12.7059  -13.5980 C   0  0  0  0  0  0  0  0  0  0  0  0
   14.7064  -12.8663  -14.9374 C   0  0  0  0  0  0  0  0  0  0  0  0
   16.1314  -12.3906  -14.9524 C   0  0  2  0  0  0  0  0  0  0  0  0
   16.1208  -10.9297  -14.5385 C   0  0  0  0  0  0  0  0  0  0  0  0
   16.8175  -12.5588  -16.2694 C   0  0  2  0  0  0  0  0  0  0  0  0
   16.8014  -14.0074  -16.5497 N   0  0  0  0  0  0  0  0  0  0  0  0
   18.2078  -12.0610  -16.2307 C   0  0  0  0  0  0  0  0  0  0  0  0
   19.0945  -12.7051  -15.6365 O   0  0  0  0  0  0  0  0  0  0  0  0
   20.5875  -11.4951  -18.9402 C   0  0  0  0  0  0  0  0  0  0  0  0
   20.4884  -10.2114  -18.1879 C   0  0  1  0  0  0  0  0  0  0  0  0
   19.6396   -9.3379  -18.8678 O   0  0  0  0  0  0  0  0  0  0  0  0
   19.9542  -10.3742  -16.7821 C   0  0  2  0  0  0  0  0  0  0  0  0
   18.6033  -10.8352  -16.8618 N   0  0  0  0  0  0  0  0  0  0  0  0
   20.0875   -9.0635  -16.1073 C   0  0  0  0  0  0  0  0  0  0  0  0
   19.0310   -8.4312  -15.8506 O   0  0  0  0  0  0  0  0  0  0  0  0
   21.8005   -4.7508  -13.8582 N   0  0  0  0  0  0  0  0  0  0  0  0
   22.0498   -5.9239  -13.0920 C   0  0  0  0  0  0  0  0  0  0  0  0
   22.4637   -5.7511  -11.9173 O   0  0  0  0  0  0  0  0  0  0  0  0
   21.8058   -7.2181  -13.7299 C   0  0  0  0  0  0  0  0  0  0  0  0
   21.4305   -7.1427  -15.1819 C   0  0  2  0  0  0  0  0  0  0  0  0
   21.3065   -8.4721  -15.7317 N   0  0  0  0  0  0  0  0  0  0  0  0
   22.2801   -6.2534  -15.9658 C   0  0  0  0  0  0  0  0  0  0  0  0
   23.0778   -6.7328  -16.8001 O   0  0  0  0  0  0  0  0  0  0  0  0
   22.2542   -4.8790  -15.8370 O   0  0  0  0  0  0  0  0  0  0  0  0
  2  1  1  0
  3  2  1  0
  3  4  1  6
  3  5  1  0
  5  6  1  1
  7  5  1  0
  7  8  2  0
 10  9  1  6
 10 12  1  0
 10 11  1  0
 12 13  1  6
 13  7  1  0
 14 12  1  0
 15 14  2  0
 16 17  1  0
 17 18  2  0
 19 17  1  0
 20 19  1  1
 20 21  1  0
 21 14  1  0
 22 20  1  0
 23 22  2  0
 24 22  1  0
M  END
$$$$
