TGG.pdb
     RDKit          3D

 16 15  0  0  1  0  0  0  0  0999 V2000
    6.9347  -16.7704   17.4981 C   0  0  0  0  0  0  0  0  0  0  0  0
    8.0078  -16.5749   16.4491 C   0  0  1  0  0  0  0  0  0  0  0  0
    7.5681  -17.2708   15.3151 O   0  0  0  0  0  0  0  0  0  0  0  0
    8.1245  -15.0904   16.1631 C   0  0  2  0  0  0  0  0  0  0  0  0
    8.7971  -14.9187   14.8946 N   0  0  0  0  0  0  0  0  0  0  0  0
    8.7914  -14.3982   17.2687 C   0  0  0  0  0  0  0  0  0  0  0  0
   10.0285  -14.5440   17.4264 O   0  0  0  0  0  0  0  0  0  0  0  0
    8.1064  -13.5532   18.1931 N   0  0  0  0  0  0  0  0  0  0  0  0
    8.8516  -12.7902   19.1748 C   0  0  0  0  0  0  0  0  0  0  0  0
    9.3309  -13.6514   20.2808 C   0  0  0  0  0  0  0  0  0  0  0  0
    8.5581  -14.1668   21.1248 O   0  0  0  0  0  0  0  0  0  0  0  0
   10.7231  -13.8983   20.3821 N   0  0  0  0  0  0  0  0  0  0  0  0
   11.2097  -14.8281   21.3835 C   0  0  0  0  0  0  0  0  0  0  0  0
   12.7039  -14.8654   21.3428 C   0  0  0  0  0  0  0  0  0  0  0  0
   13.3104  -14.3793   20.3643 O   0  0  0  0  0  0  0  0  0  0  0  0
   13.4465  -15.4255   22.3621 O   0  0  0  0  0  0  0  0  0  0  0  0
  2  4  1  0
  2  1  1  1
  3  2  1  0
  4  5  1  6
  6  7  2  0
  6  4  1  0
  8  6  1  0
  9  8  1  0
 10 12  1  0
 10  9  1  0
 11 10  2  0
 13 12  1  0
 13 14  1  0
 14 16  1  0
 15 14  2  0
M  END
$$$$
