TGG.pdb
     RDKit          3D

 16 15  0  0  1  0  0  0  0  0999 V2000
    7.3059  -16.3603   17.9902 C   0  0  0  0  0  0  0  0  0  0  0  0
    8.1910  -15.1585   17.7400 C   0  0  1  0  0  0  0  0  0  0  0  0
    8.1775  -14.9531   16.3539 O   0  0  0  0  0  0  0  0  0  0  0  0
    7.5938  -13.9714   18.4701 C   0  0  2  0  0  0  0  0  0  0  0  0
    7.9818  -12.7633   17.7766 N   0  0  0  0  0  0  0  0  0  0  0  0
    7.9852  -13.9778   19.8818 C   0  0  0  0  0  0  0  0  0  0  0  0
    9.1466  -13.6203   20.1979 O   0  0  0  0  0  0  0  0  0  0  0  0
    7.1094  -14.3733   20.9375 N   0  0  0  0  0  0  0  0  0  0  0  0
    7.6106  -14.5037   22.2913 C   0  0  0  0  0  0  0  0  0  0  0  0
    8.4534  -15.7125   22.4433 C   0  0  0  0  0  0  0  0  0  0  0  0
    8.1156  -16.8368   21.9993 O   0  0  0  0  0  0  0  0  0  0  0  0
    9.6923  -15.5842   23.1203 N   0  0  0  0  0  0  0  0  0  0  0  0
   10.5727  -16.7330   23.2163 C   0  0  0  0  0  0  0  0  0  0  0  0
   11.7852  -16.3649   24.0100 C   0  0  0  0  0  0  0  0  0  0  0  0
   12.8616  -16.1236   23.4228 O   0  0  0  0  0  0  0  0  0  0  0  0
   11.7566  -16.2813   25.3871 O   0  0  0  0  0  0  0  0  0  0  0  0
  2  4  1  0
  2  1  1  6
  3  2  1  0
  4  5  1  6
  6  7  2  0
  6  4  1  0
  8  6  1  0
  9  8  1  0
 10 12  1  0
 10  9  1  0
 11 10  2  0
 13 12  1  0
 13 14  1  0
 14 16  1  0
 15 14  2  0
M  END
$$$$
