TGG.pdb
     RDKit          3D

 16 15  0  0  1  0  0  0  0  0999 V2000
    7.8634  -12.6964   19.4673 C   0  0  0  0  0  0  0  0  0  0  0  0
    7.8660  -13.8797   18.5239 C   0  0  1  0  0  0  0  0  0  0  0  0
    6.7028  -13.7584   17.7520 O   0  0  0  0  0  0  0  0  0  0  0  0
    9.1053  -13.7888   17.6551 C   0  0  2  0  0  0  0  0  0  0  0  0
    8.9180  -14.6358   16.4981 N   0  0  0  0  0  0  0  0  0  0  0  0
   10.3065  -14.1209   18.4255 C   0  0  0  0  0  0  0  0  0  0  0  0
   10.8052  -15.2683   18.3195 O   0  0  0  0  0  0  0  0  0  0  0  0
   10.9545  -13.2014   19.3043 N   0  0  0  0  0  0  0  0  0  0  0  0
   12.1022  -13.6221   20.0834 C   0  0  0  0  0  0  0  0  0  0  0  0
   11.7125  -14.5661   21.1565 C   0  0  0  0  0  0  0  0  0  0  0  0
   10.5342  -14.6689   21.5765 O   0  0  0  0  0  0  0  0  0  0  0  0
   12.7199  -15.3840   21.7272 N   0  0  0  0  0  0  0  0  0  0  0  0
   12.3564  -16.3609   22.7359 C   0  0  0  0  0  0  0  0  0  0  0  0
   13.5564  -17.1793   23.0906 C   0  0  0  0  0  0  0  0  0  0  0  0
   14.0485  -17.0949   24.2362 O   0  0  0  0  0  0  0  0  0  0  0  0
   14.1474  -18.0361   22.1847 O   0  0  0  0  0  0  0  0  0  0  0  0
  2  4  1  0
  2  1  1  1
  3  2  1  0
  4  5  1  6
  6  7  2  0
  6  4  1  0
  8  6  1  0
  9  8  1  0
 10 12  1  0
 10  9  1  0
 11 10  2  0
 13 12  1  0
 13 14  1  0
 14 16  1  0
 15 14  2  0
M  END
$$$$
