TGG.pdb
     RDKit          3D

 16 15  0  0  1  0  0  0  0  0999 V2000
    8.0090  -18.5095   19.6149 C   0  0  0  0  0  0  0  0  0  0  0  0
    6.5361  -18.2905   19.8849 C   0  0  1  0  0  0  0  0  0  0  0  0
    5.8527  -19.0210   18.9036 O   0  0  0  0  0  0  0  0  0  0  0  0
    6.2256  -18.8215   21.2708 C   0  0  2  0  0  0  0  0  0  0  0  0
    4.7954  -19.0039   21.3828 N   0  0  0  0  0  0  0  0  0  0  0  0
    6.7775  -17.9392   22.3020 C   0  0  0  0  0  0  0  0  0  0  0  0
    8.0231  -17.8615   22.4401 O   0  0  0  0  0  0  0  0  0  0  0  0
    5.9693  -17.1491   23.1739 N   0  0  0  0  0  0  0  0  0  0  0  0
    6.5873  -16.3127   24.1837 C   0  0  0  0  0  0  0  0  0  0  0  0
    6.5681  -16.9646   25.5138 C   0  0  0  0  0  0  0  0  0  0  0  0
    5.5043  -17.2437   26.1186 O   0  0  0  0  0  0  0  0  0  0  0  0
    7.8086  -17.2830   26.1215 N   0  0  0  0  0  0  0  0  0  0  0  0
    7.8306  -17.7336   27.5001 C   0  0  0  0  0  0  0  0  0  0  0  0
    8.5831  -19.0225   27.5898 C   0  0  0  0  0  0  0  0  0  0  0  0
    9.6047  -19.1946   26.8911 O   0  0  0  0  0  0  0  0  0  0  0  0
    8.1831  -20.0424   28.4288 O   0  0  0  0  0  0  0  0  0  0  0  0
  2  4  1  0
  2  1  1  6
  3  2  1  0
  4  5  1  1
  6  7  2  0
  6  4  1  0
  8  6  1  0
  9  8  1  0
 10 12  1  0
 10  9  1  0
 11 10  2  0
 13 12  1  0
 13 14  1  0
 14 16  1  0
 15 14  2  0
M  END
$$$$
