TGG.pdb
     RDKit          3D

 16 15  0  0  1  0  0  0  0  0999 V2000
    7.0191  -12.4047   19.0182 C   0  0  0  0  0  0  0  0  0  0  0  0
    7.7995  -13.6171   19.4779 C   0  0  1  0  0  0  0  0  0  0  0  0
    7.0609  -14.7315   19.0582 O   0  0  0  0  0  0  0  0  0  0  0  0
    9.1600  -13.5850   18.8091 C   0  0  2  0  0  0  0  0  0  0  0  0
    8.9687  -13.6360   17.3767 N   0  0  0  0  0  0  0  0  0  0  0  0
   10.0148  -14.6614   19.3162 C   0  0  0  0  0  0  0  0  0  0  0  0
   10.4280  -15.5419   18.5222 O   0  0  0  0  0  0  0  0  0  0  0  0
   10.4125  -14.7701   20.6829 N   0  0  0  0  0  0  0  0  0  0  0  0
   11.2560  -15.8680   21.1122 C   0  0  0  0  0  0  0  0  0  0  0  0
   11.7086  -15.6888   22.5114 C   0  0  0  0  0  0  0  0  0  0  0  0
   11.1015  -14.9609   23.3342 O   0  0  0  0  0  0  0  0  0  0  0  0
   12.8779  -16.3724   22.9297 N   0  0  0  0  0  0  0  0  0  0  0  0
   13.3054  -16.2705   24.3121 C   0  0  0  0  0  0  0  0  0  0  0  0
   14.6206  -16.9620   24.4779 C   0  0  0  0  0  0  0  0  0  0  0  0
   14.6655  -18.2104   24.5109 O   0  0  0  0  0  0  0  0  0  0  0  0
   15.8026  -16.2601   24.5974 O   0  0  0  0  0  0  0  0  0  0  0  0
  2  4  1  0
  2  1  1  6
  3  2  1  0
  4  5  1  6
  6  7  2  0
  6  4  1  0
  8  6  1  0
  9  8  1  0
 10 12  1  0
 10  9  1  0
 11 10  2  0
 13 12  1  0
 13 14  1  0
 14 16  1  0
 15 14  2  0
M  END
$$$$
