TGG.pdb
     RDKit          3D

 16 15  0  0  1  0  0  0  0  0999 V2000
    8.1601  -12.5167   17.4502 C   0  0  0  0  0  0  0  0  0  0  0  0
    8.5183  -13.2864   18.7030 C   0  0  1  0  0  0  0  0  0  0  0  0
    7.7483  -12.7268   19.7313 O   0  0  0  0  0  0  0  0  0  0  0  0
    8.1547  -14.7420   18.4838 C   0  0  2  0  0  0  0  0  0  0  0  0
    6.7895  -14.8080   18.0114 N   0  0  0  0  0  0  0  0  0  0  0  0
    8.3829  -15.5246   19.7011 C   0  0  0  0  0  0  0  0  0  0  0  0
    7.4600  -15.6274   20.5462 O   0  0  0  0  0  0  0  0  0  0  0  0
    9.6136  -16.1886   19.9881 N   0  0  0  0  0  0  0  0  0  0  0  0
    9.7937  -16.8777   21.2506 C   0  0  0  0  0  0  0  0  0  0  0  0
   10.7540  -16.1650   22.1250 C   0  0  0  0  0  0  0  0  0  0  0  0
   11.0302  -14.9490   21.9822 O   0  0  0  0  0  0  0  0  0  0  0  0
   11.3828  -16.8956   23.1645 N   0  0  0  0  0  0  0  0  0  0  0  0
   12.3311  -16.2243   24.0328 C   0  0  0  0  0  0  0  0  0  0  0  0
   13.5043  -17.1193   24.2738 C   0  0  0  0  0  0  0  0  0  0  0  0
   13.5119  -18.2745   23.7972 O   0  0  0  0  0  0  0  0  0  0  0  0
   14.5939  -16.7084   25.0141 O   0  0  0  0  0  0  0  0  0  0  0  0
  2  4  1  0
  2  1  1  6
  3  2  1  0
  4  5  1  1
  6  7  2  0
  6  4  1  0
  8  6  1  0
  9  8  1  0
 10 12  1  0
 10  9  1  0
 11 10  2  0
 13 12  1  0
 13 14  1  0
 14 16  1  0
 15 14  2  0
M  END
$$$$
