TGG.pdb
     RDKit          3D

 16 15  0  0  1  0  0  0  0  0999 V2000
    8.0219  -13.9679   17.1110 C   0  0  0  0  0  0  0  0  0  0  0  0
    7.9756  -14.7280   18.4188 C   0  0  1  0  0  0  0  0  0  0  0  0
    9.3105  -14.9185   18.8001 O   0  0  0  0  0  0  0  0  0  0  0  0
    7.2377  -13.8773   19.4341 C   0  0  2  0  0  0  0  0  0  0  0  0
    7.9343  -12.6174   19.5705 N   0  0  0  0  0  0  0  0  0  0  0  0
    7.0873  -14.5942   20.7029 C   0  0  0  0  0  0  0  0  0  0  0  0
    6.4503  -15.6760   20.7243 O   0  0  0  0  0  0  0  0  0  0  0  0
    7.6315  -14.1277   21.9374 N   0  0  0  0  0  0  0  0  0  0  0  0
    7.5544  -14.9525   23.1269 C   0  0  0  0  0  0  0  0  0  0  0  0
    8.9024  -15.3047   23.6306 C   0  0  0  0  0  0  0  0  0  0  0  0
    9.0921  -15.8305   24.7544 O   0  0  0  0  0  0  0  0  0  0  0  0
   10.0193  -15.0327   22.8012 N   0  0  0  0  0  0  0  0  0  0  0  0
   11.3546  -15.3211   23.2889 C   0  0  0  0  0  0  0  0  0  0  0  0
   11.8160  -16.6292   22.7308 C   0  0  0  0  0  0  0  0  0  0  0  0
   13.0142  -16.9648   22.8455 O   0  0  0  0  0  0  0  0  0  0  0  0
   10.9528  -17.4904   22.0847 O   0  0  0  0  0  0  0  0  0  0  0  0
  2  4  1  0
  2  1  1  6
  3  2  1  0
  4  5  1  1
  6  7  2  0
  6  4  1  0
  8  6  1  0
  9  8  1  0
 10 12  1  0
 10  9  1  0
 11 10  2  0
 13 12  1  0
 13 14  1  0
 14 16  1  0
 15 14  2  0
M  END
$$$$
