TGG.pdb
     RDKit          3D

 16 15  0  0  1  0  0  0  0  0999 V2000
    2.0909  -18.7571   19.6749 C   0  0  0  0  0  0  0  0  0  0  0  0
    1.9783  -19.5003   20.9884 C   0  0  1  0  0  0  0  0  0  0  0  0
    0.9042  -20.3874   20.8372 O   0  0  0  0  0  0  0  0  0  0  0  0
    3.2746  -20.2524   21.2185 C   0  0  2  0  0  0  0  0  0  0  0  0
    3.4451  -21.2112   20.1495 N   0  0  0  0  0  0  0  0  0  0  0  0
    3.2929  -20.8630   22.5501 C   0  0  0  0  0  0  0  0  0  0  0  0
    3.3802  -20.1249   23.5621 O   0  0  0  0  0  0  0  0  0  0  0  0
    3.2159  -22.2715   22.7690 N   0  0  0  0  0  0  0  0  0  0  0  0
    3.1689  -22.7989   24.1184 C   0  0  0  0  0  0  0  0  0  0  0  0
    4.4756  -23.3666   24.5243 C   0  0  0  0  0  0  0  0  0  0  0  0
    4.8020  -24.5559   24.2909 O   0  0  0  0  0  0  0  0  0  0  0  0
    5.3897  -22.5235   25.2048 N   0  0  0  0  0  0  0  0  0  0  0  0
    6.7161  -23.0193   25.5194 C   0  0  0  0  0  0  0  0  0  0  0  0
    6.7150  -23.6033   26.8957 C   0  0  0  0  0  0  0  0  0  0  0  0
    5.9195  -24.5247   27.1783 O   0  0  0  0  0  0  0  0  0  0  0  0
    7.5735  -23.1541   27.8782 O   0  0  0  0  0  0  0  0  0  0  0  0
  2  4  1  0
  2  1  1  6
  3  2  1  0
  4  5  1  6
  6  7  2  0
  6  4  1  0
  8  6  1  0
  9  8  1  0
 10 12  1  0
 10  9  1  0
 11 10  2  0
 13 12  1  0
 13 14  1  0
 14 16  1  0
 15 14  2  0
M  END
$$$$
