TGG.pdb
     RDKit          3D

 16 15  0  0  1  0  0  0  0  0999 V2000
   -8.1771  -29.8029   27.9290 C   0  0  0  0  0  0  0  0  0  0  0  0
   -9.0363  -28.7068   28.5212 C   0  0  1  0  0  0  0  0  0  0  0  0
   -8.7456  -28.6888   29.8919 O   0  0  0  0  0  0  0  0  0  0  0  0
   -8.6470  -27.3956   27.8670 C   0  0  2  0  0  0  0  0  0  0  0  0
   -7.2207  -27.2122   28.0190 N   0  0  0  0  0  0  0  0  0  0  0  0
   -9.4333  -26.2871   28.4143 C   0  0  0  0  0  0  0  0  0  0  0  0
  -10.6666  -26.2377   28.1842 O   0  0  0  0  0  0  0  0  0  0  0  0
   -8.8706  -25.2421   29.2074 N   0  0  0  0  0  0  0  0  0  0  0  0
   -9.7125  -24.1762   29.7137 C   0  0  0  0  0  0  0  0  0  0  0  0
   -9.0733  -22.8512   29.5392 C   0  0  0  0  0  0  0  0  0  0  0  0
   -9.5557  -21.7956   30.0170 O   0  0  0  0  0  0  0  0  0  0  0  0
   -7.8659  -22.7824   28.7996 N   0  0  0  0  0  0  0  0  0  0  0  0
   -7.0995  -21.5508   28.8017 C   0  0  0  0  0  0  0  0  0  0  0  0
   -5.6829  -21.8476   29.1768 C   0  0  0  0  0  0  0  0  0  0  0  0
   -5.4033  -22.9274   29.7402 O   0  0  0  0  0  0  0  0  0  0  0  0
   -4.6597  -20.9585   28.9189 O   0  0  0  0  0  0  0  0  0  0  0  0
  2  4  1  0
  2  1  1  6
  3  2  1  0
  4  5  1  1
  6  7  2  0
  6  4  1  0
  8  6  1  0
  9  8  1  0
 10 12  1  0
 10  9  1  0
 11 10  2  0
 13 12  1  0
 13 14  1  0
 14 16  1  0
 15 14  2  0
M  END
$$$$
