TGG.pdb
     RDKit          3D

 16 15  0  0  1  0  0  0  0  0999 V2000
    7.6841  -12.3408   19.7608 C   0  0  0  0  0  0  0  0  0  0  0  0
    8.2228  -13.3676   18.7882 C   0  0  1  0  0  0  0  0  0  0  0  0
    8.4774  -12.6731   17.5981 O   0  0  0  0  0  0  0  0  0  0  0  0
    9.5022  -13.9405   19.3662 C   0  0  2  0  0  0  0  0  0  0  0  0
   10.2081  -14.6393   18.3154 N   0  0  0  0  0  0  0  0  0  0  0  0
    9.2159  -14.7840   20.5294 C   0  0  0  0  0  0  0  0  0  0  0  0
    9.1984  -16.0319   20.3925 O   0  0  0  0  0  0  0  0  0  0  0  0
    8.9512  -14.2620   21.8314 N   0  0  0  0  0  0  0  0  0  0  0  0
    8.6499  -15.1588   22.9297 C   0  0  0  0  0  0  0  0  0  0  0  0
    9.8703  -15.5123   23.6914 C   0  0  0  0  0  0  0  0  0  0  0  0
    9.8427  -15.8546   24.8986 O   0  0  0  0  0  0  0  0  0  0  0  0
   11.1177  -15.4586   23.0201 N   0  0  0  0  0  0  0  0  0  0  0  0
   12.3163  -15.8958   23.7101 C   0  0  0  0  0  0  0  0  0  0  0  0
   13.4962  -15.7379   22.8054 C   0  0  0  0  0  0  0  0  0  0  0  0
   13.5325  -16.3548   21.7193 O   0  0  0  0  0  0  0  0  0  0  0  0
   14.5610  -14.9234   23.1327 O   0  0  0  0  0  0  0  0  0  0  0  0
  2  4  1  0
  2  1  1  1
  3  2  1  0
  4  5  1  6
  6  7  2  0
  6  4  1  0
  8  6  1  0
  9  8  1  0
 10 12  1  0
 10  9  1  0
 11 10  2  0
 13 12  1  0
 13 14  1  0
 14 16  1  0
 15 14  2  0
M  END
$$$$
