GSS.pdb
     RDKit          3D

 17 16  0  0  1  0  0  0  0  0999 V2000
   18.7439  -12.0515  -16.3619 N   0  0  0  0  0  0  0  0  0  0  0  0
   20.0090  -11.7579  -16.9691 C   0  0  0  0  0  0  0  0  0  0  0  0
   20.7832  -10.7531  -16.1543 C   0  0  0  0  0  0  0  0  0  0  0  0
   20.2483  -10.1952  -15.1646 O   0  0  0  0  0  0  0  0  0  0  0  0
   24.9147  -10.6209  -15.4770 O   0  0  0  0  0  0  0  0  0  0  0  0
   24.3442   -9.4887  -16.0254 C   0  0  0  0  0  0  0  0  0  0  0  0
   22.8610   -9.4093  -15.8395 C   0  0  2  0  0  0  0  0  0  0  0  0
   22.1232  -10.4357  -16.5069 N   0  0  0  0  0  0  0  0  0  0  0  0
   22.3384   -8.0250  -16.1345 C   0  0  0  0  0  0  0  0  0  0  0  0
   22.1213   -7.6985  -17.3187 O   0  0  0  0  0  0  0  0  0  0  0  0
   20.1236   -6.1074  -13.4879 O   0  0  0  0  0  0  0  0  0  0  0  0
   20.1379   -5.7487  -14.8169 C   0  0  0  0  0  0  0  0  0  0  0  0
   21.5617   -5.7476  -15.3824 C   0  0  2  0  0  0  0  0  0  0  0  0
   22.0849   -7.0850  -15.1282 N   0  0  0  0  0  0  0  0  0  0  0  0
   22.3164   -4.7182  -14.6324 C   0  0  0  0  0  0  0  0  0  0  0  0
   23.2374   -5.1117  -13.8716 O   0  0  0  0  0  0  0  0  0  0  0  0
   22.0634   -3.3759  -14.7259 O   0  0  0  0  0  0  0  0  0  0  0  0
  1  2  1  0
  2  3  1  0
  3  4  2  0
  5  6  1  0
  7  6  1  6
  7  9  1  0
  8  3  1  0
  8  7  1  0
  9 10  2  0
  9 14  1  0
 11 12  1  0
 13 12  1  1
 14 13  1  0
 15 13  1  0
 15 17  1  0
 16 15  2  0
M  END
$$$$
