GSS.pdb
     RDKit          3D

 17 16  0  0  1  0  0  0  0  0999 V2000
   28.6806  -31.2969  -15.8055 N   0  0  0  0  0  0  0  0  0  0  0  0
   28.7418  -30.3300  -16.8623 C   0  0  0  0  0  0  0  0  0  0  0  0
   28.2041  -28.9959  -16.4107 C   0  0  0  0  0  0  0  0  0  0  0  0
   27.8380  -28.8320  -15.2206 O   0  0  0  0  0  0  0  0  0  0  0  0
   29.6197  -25.4187  -17.6735 O   0  0  0  0  0  0  0  0  0  0  0  0
   28.2421  -25.4946  -17.7400 C   0  0  0  0  0  0  0  0  0  0  0  0
   27.6602  -26.6205  -16.9434 C   0  0  2  0  0  0  0  0  0  0  0  0
   28.1109  -27.9195  -17.3343 N   0  0  0  0  0  0  0  0  0  0  0  0
   26.1570  -26.5219  -16.8597 C   0  0  0  0  0  0  0  0  0  0  0  0
   25.4624  -27.1098  -17.7130 O   0  0  0  0  0  0  0  0  0  0  0  0
   22.4620  -24.5234  -14.3671 O   0  0  0  0  0  0  0  0  0  0  0  0
   23.8065  -24.6625  -14.6281 C   0  0  0  0  0  0  0  0  0  0  0  0
   24.0560  -25.6401  -15.7809 C   0  0  2  0  0  0  0  0  0  0  0  0
   25.5043  -25.7935  -15.8578 N   0  0  0  0  0  0  0  0  0  0  0  0
   23.5121  -25.0049  -17.0025 C   0  0  0  0  0  0  0  0  0  0  0  0
   24.2068  -24.1119  -17.5520 O   0  0  0  0  0  0  0  0  0  0  0  0
   22.3050  -25.3383  -17.5558 O   0  0  0  0  0  0  0  0  0  0  0  0
  1  2  1  0
  2  3  1  0
  3  4  2  0
  5  6  1  0
  7  6  1  6
  7  9  1  0
  8  3  1  0
  8  7  1  0
  9 10  2  0
  9 14  1  0
 11 12  1  0
 13 12  1  1
 14 13  1  0
 15 13  1  0
 15 17  1  0
 16 15  2  0
M  END
$$$$
