GSS.pdb
     RDKit          3D

 17 16  0  0  1  0  0  0  0  0999 V2000
   17.6236  -13.0771  -15.7033 N   0  0  0  0  0  0  0  0  0  0  0  0
   17.1296  -11.7873  -15.3189 C   0  0  0  0  0  0  0  0  0  0  0  0
   17.9704  -10.6844  -15.9101 C   0  0  0  0  0  0  0  0  0  0  0  0
   18.9505  -10.9615  -16.6448 O   0  0  0  0  0  0  0  0  0  0  0  0
   18.4721   -6.3986  -17.7195 O   0  0  0  0  0  0  0  0  0  0  0  0
   17.7001   -7.4082  -17.1785 C   0  0  0  0  0  0  0  0  0  0  0  0
   18.4215   -8.2447  -16.1682 C   0  0  2  0  0  0  0  0  0  0  0  0
   17.6535   -9.3262  -15.6355 N   0  0  0  0  0  0  0  0  0  0  0  0
   19.0585   -7.3944  -15.0970 C   0  0  0  0  0  0  0  0  0  0  0  0
   18.3776   -7.0532  -14.1091 O   0  0  0  0  0  0  0  0  0  0  0  0
   22.3011   -8.1191  -13.4740 O   0  0  0  0  0  0  0  0  0  0  0  0
   22.4160   -6.8219  -13.9204 C   0  0  0  0  0  0  0  0  0  0  0  0
   21.0423   -6.1766  -14.1290 C   0  0  2  0  0  0  0  0  0  0  0  0
   20.3908   -6.9692  -15.1655 N   0  0  0  0  0  0  0  0  0  0  0  0
   21.2887   -4.7888  -14.5817 C   0  0  0  0  0  0  0  0  0  0  0  0
   21.0424   -4.5174  -15.7849 O   0  0  0  0  0  0  0  0  0  0  0  0
   21.7654   -3.7993  -13.7643 O   0  0  0  0  0  0  0  0  0  0  0  0
  1  2  1  0
  2  3  1  0
  3  4  2  0
  5  6  1  0
  7  6  1  1
  7  9  1  0
  8  3  1  0
  8  7  1  0
  9 10  2  0
  9 14  1  0
 11 12  1  0
 13 12  1  6
 14 13  1  0
 15 13  1  0
 15 17  1  0
 16 15  2  0
M  END
$$$$
