GSS.pdb
     RDKit          3D

 17 16  0  0  1  0  0  0  0  0999 V2000
   13.2312  -23.6724   -6.4811 N   0  0  0  0  0  0  0  0  0  0  0  0
   14.5357  -23.3922   -5.9564 C   0  0  0  0  0  0  0  0  0  0  0  0
   15.0455  -24.5412   -5.1241 C   0  0  0  0  0  0  0  0  0  0  0  0
   14.2387  -25.3428   -4.5915 O   0  0  0  0  0  0  0  0  0  0  0  0
   18.9566  -26.9208   -3.3844 O   0  0  0  0  0  0  0  0  0  0  0  0
   18.4616  -25.9100   -4.1852 C   0  0  0  0  0  0  0  0  0  0  0  0
   16.9756  -25.7488   -4.1048 C   0  0  2  0  0  0  0  0  0  0  0  0
   16.4440  -24.7187   -4.9411 N   0  0  0  0  0  0  0  0  0  0  0  0
   16.5054  -25.6443   -2.6749 C   0  0  0  0  0  0  0  0  0  0  0  0
   16.5088  -24.5293   -2.1156 O   0  0  0  0  0  0  0  0  0  0  0  0
   15.1084  -29.0259   -0.7840 O   0  0  0  0  0  0  0  0  0  0  0  0
   14.5785  -27.8114   -0.4106 C   0  0  0  0  0  0  0  0  0  0  0  0
   15.6026  -26.6821   -0.5623 C   0  0  2  0  0  0  0  0  0  0  0  0
   16.0624  -26.7537   -1.9445 N   0  0  0  0  0  0  0  0  0  0  0  0
   16.6988  -26.9712    0.3898 C   0  0  0  0  0  0  0  0  0  0  0  0
   17.8312  -27.2343   -0.0900 O   0  0  0  0  0  0  0  0  0  0  0  0
   16.5412  -26.9661    1.7498 O   0  0  0  0  0  0  0  0  0  0  0  0
  1  2  1  0
  2  3  1  0
  3  4  2  0
  5  6  1  0
  7  6  1  1
  7  9  1  0
  8  3  1  0
  8  7  1  0
  9 10  2  0
  9 14  1  0
 11 12  1  0
 13 12  1  6
 14 13  1  0
 15 13  1  0
 15 17  1  0
 16 15  2  0
M  END
$$$$
