GSS.pdb
     RDKit          3D

 17 16  0  0  1  0  0  0  0  0999 V2000
   25.6543  -32.6813  -10.0525 N   0  0  0  0  0  0  0  0  0  0  0  0
   24.5391  -33.4163   -9.5314 C   0  0  0  0  0  0  0  0  0  0  0  0
   24.3999  -33.2116   -8.0442 C   0  0  0  0  0  0  0  0  0  0  0  0
   25.2546  -32.5394   -7.4160 O   0  0  0  0  0  0  0  0  0  0  0  0
   20.8409  -33.2798   -5.6814 O   0  0  0  0  0  0  0  0  0  0  0  0
   21.8636  -34.1597   -5.3851 C   0  0  0  0  0  0  0  0  0  0  0  0
   23.1956  -33.7412   -5.9249 C   0  0  2  0  0  0  0  0  0  0  0  0
   23.2978  -33.7810   -7.3501 N   0  0  0  0  0  0  0  0  0  0  0  0
   24.3258  -34.4648   -5.2354 C   0  0  0  0  0  0  0  0  0  0  0  0
   24.7976  -35.4930   -5.7612 O   0  0  0  0  0  0  0  0  0  0  0  0
   26.9595  -32.4909   -3.1694 O   0  0  0  0  0  0  0  0  0  0  0  0
   26.6150  -33.6148   -2.4529 C   0  0  0  0  0  0  0  0  0  0  0  0
   25.9890  -34.6843   -3.3536 C   0  0  2  0  0  0  0  0  0  0  0  0
   24.8713  -34.0280   -4.0221 N   0  0  0  0  0  0  0  0  0  0  0  0
   25.5254  -35.7723   -2.4630 C   0  0  0  0  0  0  0  0  0  0  0  0
   24.2842  -35.9257   -2.3303 O   0  0  0  0  0  0  0  0  0  0  0  0
   26.3718  -36.6086   -1.7858 O   0  0  0  0  0  0  0  0  0  0  0  0
  1  2  1  0
  2  3  1  0
  3  4  2  0
  5  6  1  0
  7  6  1  6
  7  9  1  0
  8  3  1  0
  8  7  1  0
  9 10  2  0
  9 14  1  0
 11 12  1  0
 13 12  1  1
 14 13  1  0
 15 13  1  0
 15 17  1  0
 16 15  2  0
M  END
$$$$
