GSS.pdb
     RDKit          3D

 17 16  0  0  1  0  0  0  0  0999 V2000
   21.6778  -12.5301  -16.8310 N   0  0  0  0  0  0  0  0  0  0  0  0
   20.6329  -11.9513  -16.0380 C   0  0  0  0  0  0  0  0  0  0  0  0
   20.5720  -10.4567  -16.2258 C   0  0  0  0  0  0  0  0  0  0  0  0
   21.0855   -9.9258  -17.2415 O   0  0  0  0  0  0  0  0  0  0  0  0
   17.8299   -8.0233  -13.9659 O   0  0  0  0  0  0  0  0  0  0  0  0
   18.3070   -7.7948  -15.2419 C   0  0  0  0  0  0  0  0  0  0  0  0
   19.7196   -8.2451  -15.4481 C   0  0  2  0  0  0  0  0  0  0  0  0
   19.9314   -9.6449  -15.2505 N   0  0  0  0  0  0  0  0  0  0  0  0
   20.6930   -7.3899  -14.6751 C   0  0  0  0  0  0  0  0  0  0  0  0
   20.9795   -7.7060  -13.5029 O   0  0  0  0  0  0  0  0  0  0  0  0
   23.8236   -5.6886  -16.2606 O   0  0  0  0  0  0  0  0  0  0  0  0
   23.1084   -4.7446  -15.5588 C   0  0  0  0  0  0  0  0  0  0  0  0
   22.2204   -5.3926  -14.4918 C   0  0  2  0  0  0  0  0  0  0  0  0
   21.2925   -6.2488  -15.2219 N   0  0  0  0  0  0  0  0  0  0  0  0
   21.5130   -4.2909  -13.8008 C   0  0  0  0  0  0  0  0  0  0  0  0
   22.1993   -3.5192  -13.0830 O   0  0  0  0  0  0  0  0  0  0  0  0
   20.1650   -4.0745  -13.9041 O   0  0  0  0  0  0  0  0  0  0  0  0
  1  2  1  0
  2  3  1  0
  3  4  2  0
  5  6  1  0
  7  6  1  1
  7  9  1  0
  8  3  1  0
  8  7  1  0
  9 10  2  0
  9 14  1  0
 11 12  1  0
 13 12  1  6
 14 13  1  0
 15 13  1  0
 15 17  1  0
 16 15  2  0
M  END
$$$$
