GSS.pdb
     RDKit          3D

 17 16  0  0  1  0  0  0  0  0999 V2000
   15.7552  -14.3459  -11.9989 N   0  0  0  0  0  0  0  0  0  0  0  0
   15.1844  -13.3512  -11.1386 C   0  0  0  0  0  0  0  0  0  0  0  0
   15.2809  -11.9787  -11.7551 C   0  0  0  0  0  0  0  0  0  0  0  0
   15.5674  -11.8508  -12.9711 O   0  0  0  0  0  0  0  0  0  0  0  0
   15.0905   -8.3643   -9.3750 O   0  0  0  0  0  0  0  0  0  0  0  0
   14.5054   -8.4469  -10.6234 C   0  0  0  0  0  0  0  0  0  0  0  0
   15.1006   -9.5039  -11.5006 C   0  0  2  0  0  0  0  0  0  0  0  0
   15.0469  -10.8253  -10.9581 N   0  0  0  0  0  0  0  0  0  0  0  0
   16.4808   -9.1198  -11.9736 C   0  0  0  0  0  0  0  0  0  0  0  0
   17.4713   -9.4685  -11.3003 O   0  0  0  0  0  0  0  0  0  0  0  0
   19.4755   -8.6690  -15.4473 O   0  0  0  0  0  0  0  0  0  0  0  0
   18.2151   -8.8445  -14.9223 C   0  0  0  0  0  0  0  0  0  0  0  0
   18.0216   -8.0255  -13.6422 C   0  0  2  0  0  0  0  0  0  0  0  0
   16.6982   -8.3836  -13.1446 N   0  0  0  0  0  0  0  0  0  0  0  0
   18.0858   -6.5997  -14.0357 C   0  0  0  0  0  0  0  0  0  0  0  0
   17.0378   -6.0749  -14.4921 O   0  0  0  0  0  0  0  0  0  0  0  0
   19.2162   -5.8349  -13.9280 O   0  0  0  0  0  0  0  0  0  0  0  0
  1  2  1  0
  2  3  1  0
  3  4  2  0
  5  6  1  0
  7  6  1  1
  7  9  1  0
  8  3  1  0
  8  7  1  0
  9 10  2  0
  9 14  1  0
 11 12  1  0
 13 12  1  6
 14 13  1  0
 15 13  1  0
 15 17  1  0
 16 15  2  0
M  END
$$$$
