GSS.pdb
     RDKit          3D

 17 16  0  0  1  0  0  0  0  0999 V2000
   20.7305  -13.0199  -17.6651 N   0  0  0  0  0  0  0  0  0  0  0  0
   20.5942  -11.9082  -18.5602 C   0  0  0  0  0  0  0  0  0  0  0  0
   20.3510  -10.6272  -17.8034 C   0  0  0  0  0  0  0  0  0  0  0  0
   20.3262   -9.5287  -18.4115 O   0  0  0  0  0  0  0  0  0  0  0  0
   18.8809   -8.5777  -13.6339 O   0  0  0  0  0  0  0  0  0  0  0  0
   19.1766   -9.7301  -14.3357 C   0  0  0  0  0  0  0  0  0  0  0  0
   19.8662   -9.4820  -15.6409 C   0  0  2  0  0  0  0  0  0  0  0  0
   20.1490  -10.6619  -16.3968 N   0  0  0  0  0  0  0  0  0  0  0  0
   21.0723   -8.5916  -15.4708 C   0  0  0  0  0  0  0  0  0  0  0  0
   22.1775   -9.1103  -15.2150 O   0  0  0  0  0  0  0  0  0  0  0  0
   22.3157   -5.8705  -17.7950 O   0  0  0  0  0  0  0  0  0  0  0  0
   22.0416   -5.2950  -16.5748 C   0  0  0  0  0  0  0  0  0  0  0  0
   22.1526   -6.3140  -15.4363 C   0  0  2  0  0  0  0  0  0  0  0  0
   21.0027   -7.1981  -15.5887 N   0  0  0  0  0  0  0  0  0  0  0  0
   22.0838   -5.5478  -14.1714 C   0  0  0  0  0  0  0  0  0  0  0  0
   21.0135   -5.6067  -13.5135 O   0  0  0  0  0  0  0  0  0  0  0  0
   23.1159   -4.7881  -13.6896 O   0  0  0  0  0  0  0  0  0  0  0  0
  1  2  1  0
  2  3  1  0
  3  4  2  0
  5  6  1  0
  7  6  1  1
  7  9  1  0
  8  3  1  0
  8  7  1  0
  9 10  2  0
  9 14  1  0
 11 12  1  0
 13 12  1  6
 14 13  1  0
 15 13  1  0
 15 17  1  0
 16 15  2  0
M  END
$$$$
