GSS.pdb
     RDKit          3D

 17 16  0  0  1  0  0  0  0  0999 V2000
   15.0036  -13.0252  -15.2197 N   0  0  0  0  0  0  0  0  0  0  0  0
   14.9025  -11.6311  -14.9007 C   0  0  0  0  0  0  0  0  0  0  0  0
   16.1273  -10.8788  -15.3555 C   0  0  0  0  0  0  0  0  0  0  0  0
   17.2733  -11.3321  -15.1142 O   0  0  0  0  0  0  0  0  0  0  0  0
   17.8956   -7.1556  -17.9842 O   0  0  0  0  0  0  0  0  0  0  0  0
   16.7923   -7.8576  -17.5396 C   0  0  0  0  0  0  0  0  0  0  0  0
   17.1142   -8.9069  -16.5216 C   0  0  2  0  0  0  0  0  0  0  0  0
   15.9853   -9.6524  -16.0599 N   0  0  0  0  0  0  0  0  0  0  0  0
   17.9493   -8.3496  -15.3954 C   0  0  0  0  0  0  0  0  0  0  0  0
   17.3790   -7.7916  -14.4365 O   0  0  0  0  0  0  0  0  0  0  0  0
   21.9414   -9.2234  -15.2592 O   0  0  0  0  0  0  0  0  0  0  0  0
   21.2883   -8.9140  -14.0876 C   0  0  0  0  0  0  0  0  0  0  0  0
   20.1803   -7.8815  -14.3188 C   0  0  2  0  0  0  0  0  0  0  0  0
   19.3469   -8.4329  -15.3811 N   0  0  0  0  0  0  0  0  0  0  0  0
   20.8470   -6.6307  -14.7462 C   0  0  0  0  0  0  0  0  0  0  0  0
   20.6730   -6.2558  -15.9341 O   0  0  0  0  0  0  0  0  0  0  0  0
   21.6336   -5.8722  -13.9213 O   0  0  0  0  0  0  0  0  0  0  0  0
  1  2  1  0
  2  3  1  0
  3  4  2  0
  5  6  1  0
  7  6  1  6
  7  9  1  0
  8  3  1  0
  8  7  1  0
  9 10  2  0
  9 14  1  0
 11 12  1  0
 13 12  1  6
 14 13  1  0
 15 13  1  0
 15 17  1  0
 16 15  2  0
M  END
$$$$
