GSS.pdb
     RDKit          3D

 17 16  0  0  1  0  0  0  0  0999 V2000
   11.8784  -12.5386  -10.4738 N   0  0  0  0  0  0  0  0  0  0  0  0
   12.6498  -11.9564  -11.5328 C   0  0  0  0  0  0  0  0  0  0  0  0
   13.8144  -11.1692  -10.9880 C   0  0  0  0  0  0  0  0  0  0  0  0
   13.8123  -10.7824   -9.7932 O   0  0  0  0  0  0  0  0  0  0  0  0
   18.2648   -9.3174  -11.8261 O   0  0  0  0  0  0  0  0  0  0  0  0
   17.1996  -10.0614  -12.2951 C   0  0  0  0  0  0  0  0  0  0  0  0
   16.0129  -10.0586  -11.3827 C   0  0  2  0  0  0  0  0  0  0  0  0
   14.9190  -10.8633  -11.8289 N   0  0  0  0  0  0  0  0  0  0  0  0
   15.5975   -8.6550  -11.0171 C   0  0  0  0  0  0  0  0  0  0  0  0
   14.8177   -8.0379  -11.7702 O   0  0  0  0  0  0  0  0  0  0  0  0
   15.2983   -5.4269   -7.4401 O   0  0  0  0  0  0  0  0  0  0  0  0
   15.6358   -6.6641   -7.9408 C   0  0  0  0  0  0  0  0  0  0  0  0
   15.6545   -6.6632   -9.4727 C   0  0  2  0  0  0  0  0  0  0  0  0
   16.0533   -8.0115   -9.8601 N   0  0  0  0  0  0  0  0  0  0  0  0
   16.6619   -5.6598   -9.8852 C   0  0  0  0  0  0  0  0  0  0  0  0
   17.8336   -6.0652  -10.0960 O   0  0  0  0  0  0  0  0  0  0  0  0
   16.3829   -4.3291  -10.0461 O   0  0  0  0  0  0  0  0  0  0  0  0
  1  2  1  0
  2  3  1  0
  3  4  2  0
  5  6  1  0
  7  6  1  6
  7  9  1  0
  8  3  1  0
  8  7  1  0
  9 10  2  0
  9 14  1  0
 11 12  1  0
 13 12  1  1
 14 13  1  0
 15 13  1  0
 15 17  1  0
 16 15  2  0
M  END
$$$$
