GSS.pdb
     RDKit          3D

 17 16  0  0  1  0  0  0  0  0999 V2000
   23.0632  -11.4754  -19.7164 N   0  0  0  0  0  0  0  0  0  0  0  0
   23.2447  -11.2222  -18.3170 C   0  0  0  0  0  0  0  0  0  0  0  0
   22.3255  -10.1270  -17.8388 C   0  0  0  0  0  0  0  0  0  0  0  0
   21.9513   -9.2258  -18.6293 O   0  0  0  0  0  0  0  0  0  0  0  0
   19.1718   -8.4276  -14.6452 O   0  0  0  0  0  0  0  0  0  0  0  0
   19.9650   -9.4706  -15.0820 C   0  0  0  0  0  0  0  0  0  0  0  0
   21.1008   -9.0403  -15.9569 C   0  0  2  0  0  0  0  0  0  0  0  0
   21.8804  -10.1138  -16.4889 N   0  0  0  0  0  0  0  0  0  0  0  0
   21.9415   -7.9782  -15.2924 C   0  0  0  0  0  0  0  0  0  0  0  0
   22.8244   -8.3232  -14.4815 O   0  0  0  0  0  0  0  0  0  0  0  0
   23.8865   -5.3073  -17.0118 O   0  0  0  0  0  0  0  0  0  0  0  0
   23.0093   -4.6719  -16.1621 C   0  0  0  0  0  0  0  0  0  0  0  0
   22.6201   -5.5700  -14.9836 C   0  0  2  0  0  0  0  0  0  0  0  0
   21.7714   -6.6124  -15.5493 N   0  0  0  0  0  0  0  0  0  0  0  0
   21.8724   -4.7198  -14.0297 C   0  0  0  0  0  0  0  0  0  0  0  0
   20.6255   -4.6418  -14.1744 O   0  0  0  0  0  0  0  0  0  0  0  0
   22.4653   -4.0234  -13.0109 O   0  0  0  0  0  0  0  0  0  0  0  0
  1  2  1  0
  2  3  1  0
  3  4  2  0
  5  6  1  0
  7  6  1  1
  7  9  1  0
  8  3  1  0
  8  7  1  0
  9 10  2  0
  9 14  1  0
 11 12  1  0
 13 12  1  6
 14 13  1  0
 15 13  1  0
 15 17  1  0
 16 15  2  0
M  END
$$$$
