GSS.pdb
     RDKit          3D

 17 16  0  0  1  0  0  0  0  0999 V2000
   21.9078  -15.6112  -17.5678 N   0  0  0  0  0  0  0  0  0  0  0  0
   22.7912  -14.6083  -18.0868 C   0  0  0  0  0  0  0  0  0  0  0  0
   23.0355  -13.5206  -17.0718 C   0  0  0  0  0  0  0  0  0  0  0  0
   22.1342  -13.2023  -16.2572 O   0  0  0  0  0  0  0  0  0  0  0  0
   26.1813  -10.3539  -15.0992 O   0  0  0  0  0  0  0  0  0  0  0  0
   25.9678  -11.3784  -16.0007 C   0  0  0  0  0  0  0  0  0  0  0  0
   24.5236  -11.7212  -16.1945 C   0  0  2  0  0  0  0  0  0  0  0  0
   24.2897  -12.8526  -17.0362 N   0  0  0  0  0  0  0  0  0  0  0  0
   23.7160  -10.5126  -16.5986 C   0  0  0  0  0  0  0  0  0  0  0  0
   23.6937  -10.1718  -17.7983 O   0  0  0  0  0  0  0  0  0  0  0  0
   20.5711   -7.1468  -14.9894 O   0  0  0  0  0  0  0  0  0  0  0  0
   21.4686   -8.1641  -14.7550 C   0  0  0  0  0  0  0  0  0  0  0  0
   22.1793   -8.5929  -16.0426 C   0  0  2  0  0  0  0  0  0  0  0  0
   22.9853   -9.7523  -15.6774 N   0  0  0  0  0  0  0  0  0  0  0  0
   23.0265   -7.4531  -16.4607 C   0  0  0  0  0  0  0  0  0  0  0  0
   22.4882   -6.5522  -17.1539 O   0  0  0  0  0  0  0  0  0  0  0  0
   24.3505   -7.3340  -16.1333 O   0  0  0  0  0  0  0  0  0  0  0  0
  1  2  1  0
  2  3  1  0
  3  4  2  0
  5  6  1  0
  7  6  1  6
  7  9  1  0
  8  3  1  0
  8  7  1  0
  9 10  2  0
  9 14  1  0
 11 12  1  0
 13 12  1  1
 14 13  1  0
 15 13  1  0
 15 17  1  0
 16 15  2  0
M  END
$$$$
