GSS.pdb
     RDKit          3D

 17 16  0  0  1  0  0  0  0  0999 V2000
   22.5682  -13.1517  -19.2757 N   0  0  0  0  0  0  0  0  0  0  0  0
   22.8732  -11.8384  -19.7633 C   0  0  0  0  0  0  0  0  0  0  0  0
   23.3753  -10.9493  -18.6540 C   0  0  0  0  0  0  0  0  0  0  0  0
   22.9323  -11.0839  -17.4866 O   0  0  0  0  0  0  0  0  0  0  0  0
   26.5644   -7.5357  -17.2454 O   0  0  0  0  0  0  0  0  0  0  0  0
   26.0994   -8.3562  -18.2546 C   0  0  0  0  0  0  0  0  0  0  0  0
   24.8078   -9.0398  -17.9303 C   0  0  2  0  0  0  0  0  0  0  0  0
   24.3533   -9.9553  -18.9296 N   0  0  0  0  0  0  0  0  0  0  0  0
   23.7465   -8.0517  -17.5139 C   0  0  0  0  0  0  0  0  0  0  0  0
   23.0778   -7.4734  -18.3939 O   0  0  0  0  0  0  0  0  0  0  0  0
   21.2785   -6.2863  -13.7003 O   0  0  0  0  0  0  0  0  0  0  0  0
   22.2794   -7.0678  -14.2319 C   0  0  0  0  0  0  0  0  0  0  0  0
   22.4290   -6.8389  -15.7393 C   0  0  2  0  0  0  0  0  0  0  0  0
   23.4785   -7.7545  -16.1721 N   0  0  0  0  0  0  0  0  0  0  0  0
   22.8344   -5.4262  -15.9169 C   0  0  0  0  0  0  0  0  0  0  0  0
   24.0647   -5.1667  -15.8903 O   0  0  0  0  0  0  0  0  0  0  0  0
   21.9459   -4.4018  -16.1063 O   0  0  0  0  0  0  0  0  0  0  0  0
  1  2  1  0
  2  3  1  0
  3  4  2  0
  5  6  1  0
  7  6  1  6
  7  9  1  0
  8  3  1  0
  8  7  1  0
  9 10  2  0
  9 14  1  0
 11 12  1  0
 13 12  1  1
 14 13  1  0
 15 13  1  0
 15 17  1  0
 16 15  2  0
M  END
$$$$
