GSS.pdb
     RDKit          3D

 17 16  0  0  1  0  0  0  0  0999 V2000
   20.7749  -11.7869  -19.0081 N   0  0  0  0  0  0  0  0  0  0  0  0
   21.7447  -10.7556  -18.7814 C   0  0  0  0  0  0  0  0  0  0  0  0
   21.4410   -9.9917  -17.5176 C   0  0  0  0  0  0  0  0  0  0  0  0
   20.3331   -9.4173  -17.3770 O   0  0  0  0  0  0  0  0  0  0  0  0
   22.7694  -11.0405  -13.8519 O   0  0  0  0  0  0  0  0  0  0  0  0
   22.9392   -9.6901  -14.0876 C   0  0  0  0  0  0  0  0  0  0  0  0
   22.1838   -9.1850  -15.2771 C   0  0  2  0  0  0  0  0  0  0  0  0
   22.4113   -9.9209  -16.4813 N   0  0  0  0  0  0  0  0  0  0  0  0
   22.3614   -7.6975  -15.4565 C   0  0  0  0  0  0  0  0  0  0  0  0
   23.3208   -7.2790  -16.1350 O   0  0  0  0  0  0  0  0  0  0  0  0
   20.1764   -3.4159  -15.3255 O   0  0  0  0  0  0  0  0  0  0  0  0
   20.1937   -4.7709  -15.0830 C   0  0  0  0  0  0  0  0  0  0  0  0
   21.6242   -5.3190  -15.0632 C   0  0  2  0  0  0  0  0  0  0  0  0
   21.4887   -6.7607  -14.8896 N   0  0  0  0  0  0  0  0  0  0  0  0
   22.3029   -4.6945  -13.9051 C   0  0  0  0  0  0  0  0  0  0  0  0
   22.6884   -3.5038  -14.0300 O   0  0  0  0  0  0  0  0  0  0  0  0
   22.5283   -5.3423  -12.7202 O   0  0  0  0  0  0  0  0  0  0  0  0
  1  2  1  0
  2  3  1  0
  3  4  2  0
  5  6  1  0
  7  6  1  1
  7  9  1  0
  8  3  1  0
  8  7  1  0
  9 10  2  0
  9 14  1  0
 11 12  1  0
 13 12  1  1
 14 13  1  0
 15 13  1  0
 15 17  1  0
 16 15  2  0
M  END
$$$$
