GSS.pdb
     RDKit          3D

 17 16  0  0  1  0  0  0  0  0999 V2000
   25.7072  -33.7206  -10.4044 N   0  0  0  0  0  0  0  0  0  0  0  0
   25.1625  -33.3900   -9.1200 C   0  0  0  0  0  0  0  0  0  0  0  0
   26.2554  -33.1875   -8.1014 C   0  0  0  0  0  0  0  0  0  0  0  0
   27.4610  -33.2712   -8.4429 O   0  0  0  0  0  0  0  0  0  0  0  0
   25.2952  -32.8212   -3.9527 O   0  0  0  0  0  0  0  0  0  0  0  0
   26.4144  -32.1808   -4.4479 C   0  0  0  0  0  0  0  0  0  0  0  0
   26.9177  -32.7538   -5.7360 C   0  0  2  0  0  0  0  0  0  0  0  0
   25.9209  -32.9010   -6.7499 N   0  0  0  0  0  0  0  0  0  0  0  0
   27.7137  -34.0152   -5.5086 C   0  0  0  0  0  0  0  0  0  0  0  0
   27.1637  -35.1201   -5.6899 O   0  0  0  0  0  0  0  0  0  0  0  0
   32.0535  -35.7500   -4.0855 O   0  0  0  0  0  0  0  0  0  0  0  0
   31.1995  -34.7022   -4.3456 C   0  0  0  0  0  0  0  0  0  0  0  0
   29.8261  -35.1993   -4.8080 C   0  0  2  0  0  0  0  0  0  0  0  0
   29.0528  -33.9978   -5.1000 N   0  0  0  0  0  0  0  0  0  0  0  0
   29.2450  -35.9569   -3.6766 C   0  0  0  0  0  0  0  0  0  0  0  0
   28.5727  -35.3136   -2.8304 O   0  0  0  0  0  0  0  0  0  0  0  0
   29.4022  -37.3066   -3.5092 O   0  0  0  0  0  0  0  0  0  0  0  0
  1  2  1  0
  2  3  1  0
  3  4  2  0
  5  6  1  0
  7  6  1  1
  7  9  1  0
  8  3  1  0
  8  7  1  0
  9 10  2  0
  9 14  1  0
 11 12  1  0
 13 12  1  1
 14 13  1  0
 15 13  1  0
 15 17  1  0
 16 15  2  0
M  END
$$$$
