DQH.pdb
     RDKit          3D

 28 28  0  0  1  0  0  0  0  0999 V2000
   13.1154  -16.2824   17.7220 N   0  0  0  0  0  0  0  0  0  0  0  0
   13.2382  -15.9418   19.1097 C   0  0  1  0  0  0  0  0  0  0  0  0
   13.6371  -14.4708   19.2650 C   0  0  0  0  0  0  0  0  0  0  0  0
   15.0274  -14.2660   18.7814 C   0  0  0  0  0  0  0  0  0  0  0  0
   15.9928  -14.9015   19.2237 O   0  0  0  0  0  0  0  0  0  0  0  0
   12.0246  -16.2440   19.9012 C   0  0  0  0  0  0  0  0  0  0  0  0
   10.8949  -16.0478   19.3955 O   0  0  0  0  0  0  0  0  0  0  0  0
   15.2620  -13.3197   17.7873 O   0  0  0  0  0  0  0  0  0  0  0  0
   11.5749  -21.1073   23.4601 N   0  0  0  0  0  0  0  0  0  0  0  0
   10.4040  -20.4103   23.8949 C   0  0  0  0  0  0  0  0  0  0  0  0
    9.6218  -21.0299   24.6443 O   0  0  0  0  0  0  0  0  0  0  0  0
   10.2119  -19.0236   23.4300 C   0  0  0  0  0  0  0  0  0  0  0  0
   11.2940  -18.5473   22.4973 C   0  0  0  0  0  0  0  0  0  0  0  0
   11.0028  -17.1665   22.0110 C   0  0  2  0  0  0  0  0  0  0  0  0
   12.1281  -16.7435   21.2008 N   0  0  0  0  0  0  0  0  0  0  0  0
   10.7505  -16.2128   23.1253 C   0  0  0  0  0  0  0  0  0  0  0  0
   11.6989  -15.8125   23.8401 O   0  0  0  0  0  0  0  0  0  0  0  0
    9.4450  -15.7546   23.3833 N   0  0  0  0  0  0  0  0  0  0  0  0
    9.0999  -14.8392   24.4345 C   0  0  1  0  0  0  0  0  0  0  0  0
    7.6442  -14.4269   24.3752 C   0  0  0  0  0  0  0  0  0  0  0  0
    7.2776  -13.5056   25.4777 C   0  0  0  0  0  0  0  0  0  0  0  0
    8.1444  -12.9353   26.4073 C   0  0  0  0  0  0  0  0  0  0  0  0
    7.4362  -12.1718   27.2295 N   0  0  0  0  0  0  0  0  0  0  0  0
    6.1549  -12.2205   26.8774 C   0  0  0  0  0  0  0  0  0  0  0  0
    6.0680  -13.0381   25.8058 N   0  0  0  0  0  0  0  0  0  0  0  0
    9.4287  -15.4543   25.7369 C   0  0  0  0  0  0  0  0  0  0  0  0
    9.8579  -14.6510   26.7766 O   0  0  0  0  0  0  0  0  0  0  0  0
    9.3402  -16.6805   25.9586 O   0  0  0  0  0  0  0  0  0  0  0  0
  2  1  1  6
  3  2  1  0
  3  4  1  0
  4  5  2  0
  6  2  1  0
  6  7  2  0
  8  4  1  0
  9 10  1  0
 10 12  1  0
 11 10  2  0
 12 13  1  0
 14 13  1  1
 14 15  1  0
 15  6  1  0
 16 14  1  0
 17 16  2  0
 18 16  1  0
 19 18  1  0
 19 26  1  0
 19 20  1  1
 21 25  1  0
 21 20  1  0
 22 21  2  0
 23 22  1  0
 23 24  1  0
 24 25  2  0
 26 27  1  0
 28 26  2  0
M  END
$$$$
