DQH.pdb
     RDKit          3D

 28 28  0  0  1  0  0  0  0  0999 V2000
   14.7975  -14.1294   16.6208 N   0  0  0  0  0  0  0  0  0  0  0  0
   13.5276  -14.7514   16.8599 C   0  0  1  0  0  0  0  0  0  0  0  0
   13.5848  -16.2386   16.4964 C   0  0  0  0  0  0  0  0  0  0  0  0
   14.8351  -16.5327   15.7488 C   0  0  0  0  0  0  0  0  0  0  0  0
   15.4053  -17.6298   15.7989 O   0  0  0  0  0  0  0  0  0  0  0  0
   13.0308  -14.5666   18.2419 C   0  0  0  0  0  0  0  0  0  0  0  0
   13.8404  -14.2787   19.1540 O   0  0  0  0  0  0  0  0  0  0  0  0
   15.3954  -15.5353   14.9551 O   0  0  0  0  0  0  0  0  0  0  0  0
    6.9149  -14.4694   19.2156 N   0  0  0  0  0  0  0  0  0  0  0  0
    7.7103  -13.4885   18.5441 C   0  0  0  0  0  0  0  0  0  0  0  0
    7.1069  -12.6654   17.8259 O   0  0  0  0  0  0  0  0  0  0  0  0
    9.1704  -13.5225   18.7506 C   0  0  0  0  0  0  0  0  0  0  0  0
    9.6164  -14.5919   19.7125 C   0  0  0  0  0  0  0  0  0  0  0  0
   11.1016  -14.5828   19.8618 C   0  0  2  0  0  0  0  0  0  0  0  0
   11.6735  -14.7098   18.5357 N   0  0  0  0  0  0  0  0  0  0  0  0
   11.5886  -15.6600   20.7658 C   0  0  0  0  0  0  0  0  0  0  0  0
   11.4871  -16.8622   20.4266 O   0  0  0  0  0  0  0  0  0  0  0  0
   12.1663  -15.3351   22.0074 N   0  0  0  0  0  0  0  0  0  0  0  0
   12.9204  -16.2519   22.8155 C   0  0  1  0  0  0  0  0  0  0  0  0
   14.2865  -15.7051   23.1723 C   0  0  0  0  0  0  0  0  0  0  0  0
   15.0722  -16.6549   23.9966 C   0  0  0  0  0  0  0  0  0  0  0  0
   14.8024  -18.0079   24.1900 C   0  0  0  0  0  0  0  0  0  0  0  0
   15.7330  -18.5120   24.9902 N   0  0  0  0  0  0  0  0  0  0  0  0
   16.5906  -17.5521   25.3234 C   0  0  0  0  0  0  0  0  0  0  0  0
   16.1783  -16.4208   24.7113 N   0  0  0  0  0  0  0  0  0  0  0  0
   12.1420  -16.5790   24.0278 C   0  0  0  0  0  0  0  0  0  0  0  0
   10.9350  -15.9433   24.2500 O   0  0  0  0  0  0  0  0  0  0  0  0
   12.5170  -17.4116   24.8802 O   0  0  0  0  0  0  0  0  0  0  0  0
  2  1  1  1
  3  2  1  0
  3  4  1  0
  4  5  2  0
  6  2  1  0
  6  7  2  0
  8  4  1  0
  9 10  1  0
 10 12  1  0
 11 10  2  0
 12 13  1  0
 14 13  1  6
 14 15  1  0
 15  6  1  0
 16 14  1  0
 17 16  2  0
 18 16  1  0
 19 18  1  0
 19 26  1  0
 19 20  1  1
 21 25  1  0
 21 20  1  0
 22 21  2  0
 23 22  1  0
 23 24  1  0
 24 25  2  0
 26 27  1  0
 28 26  2  0
M  END
$$$$
