DQH.pdb
     RDKit          3D

 28 28  0  0  1  0  0  0  0  0999 V2000
   10.7046  -21.7955   18.9040 N   0  0  0  0  0  0  0  0  0  0  0  0
   10.6045  -20.3935   19.1888 C   0  0  1  0  0  0  0  0  0  0  0  0
   10.7903  -20.1387   20.6880 C   0  0  0  0  0  0  0  0  0  0  0  0
    9.8722  -21.0072   21.4701 C   0  0  0  0  0  0  0  0  0  0  0  0
    9.1286  -21.8444   20.9435 O   0  0  0  0  0  0  0  0  0  0  0  0
   11.5365  -19.5620   18.3946 C   0  0  0  0  0  0  0  0  0  0  0  0
   12.3956  -20.1189   17.6720 O   0  0  0  0  0  0  0  0  0  0  0  0
    9.8419  -20.8790   22.8562 O   0  0  0  0  0  0  0  0  0  0  0  0
    9.8032  -15.5723   14.7489 N   0  0  0  0  0  0  0  0  0  0  0  0
    9.1775  -16.1403   15.9029 C   0  0  0  0  0  0  0  0  0  0  0  0
    7.9339  -16.0607   15.9695 O   0  0  0  0  0  0  0  0  0  0  0  0
   10.0415  -16.7731   16.9173 C   0  0  0  0  0  0  0  0  0  0  0  0
   11.5106  -16.6743   16.6013 C   0  0  0  0  0  0  0  0  0  0  0  0
   12.3284  -17.2748   17.6960 C   0  0  2  0  0  0  0  0  0  0  0  0
   11.4661  -18.1685   18.4440 N   0  0  0  0  0  0  0  0  0  0  0  0
   12.9373  -16.2449   18.5811 C   0  0  0  0  0  0  0  0  0  0  0  0
   13.2167  -15.1100   18.1290 O   0  0  0  0  0  0  0  0  0  0  0  0
   13.2031  -16.5393   19.9315 N   0  0  0  0  0  0  0  0  0  0  0  0
   12.7100  -15.7722   21.0408 C   0  0  1  0  0  0  0  0  0  0  0  0
   11.2107  -15.5718   20.9725 C   0  0  0  0  0  0  0  0  0  0  0  0
   10.8377  -14.4253   20.1092 C   0  0  0  0  0  0  0  0  0  0  0  0
   11.7101  -13.5374   19.4836 C   0  0  0  0  0  0  0  0  0  0  0  0
   10.9930  -12.6533   18.8020 N   0  0  0  0  0  0  0  0  0  0  0  0
    9.7007  -12.9258   18.9559 C   0  0  0  0  0  0  0  0  0  0  0  0
    9.6159  -14.0105   19.7564 N   0  0  0  0  0  0  0  0  0  0  0  0
   13.1036  -16.4372   22.3000 C   0  0  0  0  0  0  0  0  0  0  0  0
   12.9526  -15.7641   23.4977 O   0  0  0  0  0  0  0  0  0  0  0  0
   13.5738  -17.5936   22.3475 O   0  0  0  0  0  0  0  0  0  0  0  0
  2  1  1  1
  3  2  1  0
  3  4  1  0
  4  5  2  0
  6  2  1  0
  6  7  2  0
  8  4  1  0
  9 10  1  0
 10 12  1  0
 11 10  2  0
 12 13  1  0
 14 13  1  6
 14 15  1  0
 15  6  1  0
 16 14  1  0
 17 16  2  0
 18 16  1  0
 19 18  1  0
 19 26  1  0
 19 20  1  6
 21 25  1  0
 21 20  1  0
 22 21  2  0
 23 22  1  0
 23 24  1  0
 24 25  2  0
 26 27  1  0
 28 26  2  0
M  END
$$$$
