DQH.pdb
     RDKit          3D

 28 28  0  0  1  0  0  0  0  0999 V2000
   14.3740  -15.6700   16.4522 N   0  0  0  0  0  0  0  0  0  0  0  0
   14.3504  -15.4438   17.8682 C   0  0  1  0  0  0  0  0  0  0  0  0
   15.0981  -14.1523   18.2150 C   0  0  0  0  0  0  0  0  0  0  0  0
   16.5453  -14.3046   17.9131 C   0  0  0  0  0  0  0  0  0  0  0  0
   17.2089  -13.4276   17.3459 O   0  0  0  0  0  0  0  0  0  0  0  0
   12.9858  -15.4315   18.4412 C   0  0  0  0  0  0  0  0  0  0  0  0
   12.1654  -14.5645   18.0595 O   0  0  0  0  0  0  0  0  0  0  0  0
   17.1896  -15.4828   18.2814 O   0  0  0  0  0  0  0  0  0  0  0  0
   11.8460  -21.1978   19.2206 N   0  0  0  0  0  0  0  0  0  0  0  0
   11.0436  -20.2271   19.8987 C   0  0  0  0  0  0  0  0  0  0  0  0
    9.9071  -20.5889   20.2659 O   0  0  0  0  0  0  0  0  0  0  0  0
   11.6155  -18.8843   20.1122 C   0  0  0  0  0  0  0  0  0  0  0  0
   10.7062  -17.7672   19.6728 C   0  0  0  0  0  0  0  0  0  0  0  0
   11.2964  -16.4395   20.0147 C   0  0  2  0  0  0  0  0  0  0  0  0
   12.6073  -16.3739   19.3992 N   0  0  0  0  0  0  0  0  0  0  0  0
   11.3772  -16.2148   21.4837 C   0  0  0  0  0  0  0  0  0  0  0  0
   11.8390  -17.1062   22.2338 O   0  0  0  0  0  0  0  0  0  0  0  0
   10.9355  -14.9995   22.0395 N   0  0  0  0  0  0  0  0  0  0  0  0
    9.8805  -14.8866   23.0071 C   0  0  1  0  0  0  0  0  0  0  0  0
    8.5137  -15.0744   22.3834 C   0  0  0  0  0  0  0  0  0  0  0  0
    8.2826  -14.1461   21.2504 C   0  0  0  0  0  0  0  0  0  0  0  0
    9.1594  -13.1692   20.7842 C   0  0  0  0  0  0  0  0  0  0  0  0
    8.5908  -12.5487   19.7584 N   0  0  0  0  0  0  0  0  0  0  0  0
    7.3901  -13.0761   19.5387 C   0  0  0  0  0  0  0  0  0  0  0  0
    7.2108  -14.0516   20.4557 N   0  0  0  0  0  0  0  0  0  0  0  0
   10.1128  -15.8641   24.0903 C   0  0  0  0  0  0  0  0  0  0  0  0
    9.4935  -15.6812   25.3123 O   0  0  0  0  0  0  0  0  0  0  0  0
   10.8497  -16.8650   23.9650 O   0  0  0  0  0  0  0  0  0  0  0  0
  2  1  1  6
  3  2  1  0
  3  4  1  0
  4  5  2  0
  6  2  1  0
  6  7  2  0
  8  4  1  0
  9 10  1  0
 10 12  1  0
 11 10  2  0
 12 13  1  0
 14 13  1  1
 14 15  1  0
 15  6  1  0
 16 14  1  0
 17 16  2  0
 18 16  1  0
 19 18  1  0
 19 26  1  0
 19 20  1  6
 21 25  1  0
 21 20  1  0
 22 21  2  0
 23 22  1  0
 23 24  1  0
 24 25  2  0
 26 27  1  0
 28 26  2  0
M  END
$$$$
