DQH.pdb
     RDKit          3D

 28 28  0  0  1  0  0  0  0  0999 V2000
    8.7021  -17.3091   20.8278 N   0  0  0  0  0  0  0  0  0  0  0  0
    7.7378  -16.9332   21.8205 C   0  0  1  0  0  0  0  0  0  0  0  0
    6.9809  -18.1666   22.3234 C   0  0  0  0  0  0  0  0  0  0  0  0
    6.1604  -18.7432   21.2266 C   0  0  0  0  0  0  0  0  0  0  0  0
    6.1808  -18.3034   20.0701 O   0  0  0  0  0  0  0  0  0  0  0  0
    8.3194  -16.1758   22.9513 C   0  0  0  0  0  0  0  0  0  0  0  0
    9.5232  -16.3485   23.2538 O   0  0  0  0  0  0  0  0  0  0  0  0
    5.3300  -19.8257   21.5047 O   0  0  0  0  0  0  0  0  0  0  0  0
    5.2040  -11.6457   26.0942 N   0  0  0  0  0  0  0  0  0  0  0  0
    6.3577  -11.8403   26.9170 C   0  0  0  0  0  0  0  0  0  0  0  0
    6.4897  -11.0780   27.8962 O   0  0  0  0  0  0  0  0  0  0  0  0
    7.2950  -12.9186   26.5503 C   0  0  0  0  0  0  0  0  0  0  0  0
    6.9331  -13.6186   25.2670 C   0  0  0  0  0  0  0  0  0  0  0  0
    7.9468  -14.6608   24.9293 C   0  0  2  0  0  0  0  0  0  0  0  0
    7.5410  -15.2748   23.6802 N   0  0  0  0  0  0  0  0  0  0  0  0
    8.0984  -15.6765   26.0065 C   0  0  0  0  0  0  0  0  0  0  0  0
    7.1012  -16.3166   26.4148 O   0  0  0  0  0  0  0  0  0  0  0  0
    9.3625  -15.9244   26.5733 N   0  0  0  0  0  0  0  0  0  0  0  0
    9.5980  -16.8228   27.6685 C   0  0  1  0  0  0  0  0  0  0  0  0
   10.3825  -18.0458   27.2428 C   0  0  0  0  0  0  0  0  0  0  0  0
    9.5730  -18.9693   26.4118 C   0  0  0  0  0  0  0  0  0  0  0  0
    8.2306  -18.8201   26.0704 C   0  0  0  0  0  0  0  0  0  0  0  0
    7.8709  -19.8519   25.3178 N   0  0  0  0  0  0  0  0  0  0  0  0
    8.9140  -20.6604   25.1559 C   0  0  0  0  0  0  0  0  0  0  0  0
    9.9496  -20.1125   25.8282 N   0  0  0  0  0  0  0  0  0  0  0  0
   10.2906  -16.0931   28.7504 C   0  0  0  0  0  0  0  0  0  0  0  0
   10.5542  -16.7400   29.9431 O   0  0  0  0  0  0  0  0  0  0  0  0
   10.6591  -14.9038   28.6495 O   0  0  0  0  0  0  0  0  0  0  0  0
  2  1  1  6
  3  2  1  0
  3  4  1  0
  4  5  2  0
  6  2  1  0
  6  7  2  0
  8  4  1  0
  9 10  1  0
 10 12  1  0
 11 10  2  0
 12 13  1  0
 14 13  1  1
 14 15  1  0
 15  6  1  0
 16 14  1  0
 17 16  2  0
 18 16  1  0
 19 18  1  0
 19 26  1  0
 19 20  1  6
 21 25  1  0
 21 20  1  0
 22 21  2  0
 23 22  1  0
 23 24  1  0
 24 25  2  0
 26 27  1  0
 28 26  2  0
M  END
$$$$
