DQH.pdb
     RDKit          3D

 28 28  0  0  1  0  0  0  0  0999 V2000
   12.0398  -18.7118   21.4677 N   0  0  0  0  0  0  0  0  0  0  0  0
   12.2340  -17.3794   21.9613 C   0  0  1  0  0  0  0  0  0  0  0  0
   11.9809  -16.3560   20.8496 C   0  0  0  0  0  0  0  0  0  0  0  0
   13.1096  -16.3645   19.8827 C   0  0  0  0  0  0  0  0  0  0  0  0
   14.1513  -17.0050   20.0721 O   0  0  0  0  0  0  0  0  0  0  0  0
   11.4194  -17.0686   23.1575 C   0  0  0  0  0  0  0  0  0  0  0  0
   11.4818  -15.9244   23.6647 O   0  0  0  0  0  0  0  0  0  0  0  0
   12.9974  -15.6218   18.7103 O   0  0  0  0  0  0  0  0  0  0  0  0
    7.0752  -21.0974   25.1045 N   0  0  0  0  0  0  0  0  0  0  0  0
    8.4601  -21.3681   25.3383 C   0  0  0  0  0  0  0  0  0  0  0  0
    8.7672  -22.5443   25.6206 O   0  0  0  0  0  0  0  0  0  0  0  0
    9.4123  -20.2471   25.2275 C   0  0  0  0  0  0  0  0  0  0  0  0
    8.7525  -18.9247   24.9382 C   0  0  0  0  0  0  0  0  0  0  0  0
    9.7634  -17.8272   24.8976 C   0  0  2  0  0  0  0  0  0  0  0  0
   10.5861  -18.0358   23.7223 N   0  0  0  0  0  0  0  0  0  0  0  0
   10.5908  -17.7705   26.1334 C   0  0  0  0  0  0  0  0  0  0  0  0
   11.8189  -18.0150   26.0820 O   0  0  0  0  0  0  0  0  0  0  0  0
    9.9991  -17.4419   27.3673 N   0  0  0  0  0  0  0  0  0  0  0  0
   10.7200  -17.3074   28.6019 C   0  0  1  0  0  0  0  0  0  0  0  0
   10.1896  -16.1705   29.4497 C   0  0  0  0  0  0  0  0  0  0  0  0
    9.8924  -14.9620   28.6436 C   0  0  0  0  0  0  0  0  0  0  0  0
   10.1488  -14.7848   27.2858 C   0  0  0  0  0  0  0  0  0  0  0  0
    9.7397  -13.5723   26.9353 N   0  0  0  0  0  0  0  0  0  0  0  0
    9.2316  -12.9572   27.9990 C   0  0  0  0  0  0  0  0  0  0  0  0
    9.3294  -13.8146   29.0382 N   0  0  0  0  0  0  0  0  0  0  0  0
   10.6670  -18.5898   29.3336 C   0  0  0  0  0  0  0  0  0  0  0  0
    9.9321  -19.6377   28.8118 O   0  0  0  0  0  0  0  0  0  0  0  0
   11.2580  -18.7872   30.4163 O   0  0  0  0  0  0  0  0  0  0  0  0
  2  1  1  6
  3  2  1  0
  3  4  1  0
  4  5  2  0
  6  2  1  0
  6  7  2  0
  8  4  1  0
  9 10  1  0
 10 12  1  0
 11 10  2  0
 12 13  1  0
 14 13  1  1
 14 15  1  0
 15  6  1  0
 16 14  1  0
 17 16  2  0
 18 16  1  0
 19 18  1  0
 19 26  1  0
 19 20  1  1
 21 25  1  0
 21 20  1  0
 22 21  2  0
 23 22  1  0
 23 24  1  0
 24 25  2  0
 26 27  1  0
 28 26  2  0
M  END
$$$$
