DQH.pdb
     RDKit          3D

 28 28  0  0  1  0  0  0  0  0999 V2000
   14.4312  -17.5071   16.4367 N   0  0  0  0  0  0  0  0  0  0  0  0
   13.0611  -17.5798   16.0191 C   0  0  1  0  0  0  0  0  0  0  0  0
   12.8694  -18.7198   15.0136 C   0  0  0  0  0  0  0  0  0  0  0  0
   13.3863  -18.3154   13.6802 C   0  0  0  0  0  0  0  0  0  0  0  0
   14.1893  -17.3867   13.5246 O   0  0  0  0  0  0  0  0  0  0  0  0
   12.1071  -17.7047   17.1439 C   0  0  0  0  0  0  0  0  0  0  0  0
   10.8893  -17.8748   16.9024 O   0  0  0  0  0  0  0  0  0  0  0  0
   12.9530  -19.0069   12.5521 O   0  0  0  0  0  0  0  0  0  0  0  0
   13.1672  -21.7052   16.7338 N   0  0  0  0  0  0  0  0  0  0  0  0
   11.8702  -21.7232   17.3366 C   0  0  0  0  0  0  0  0  0  0  0  0
   11.0289  -22.5038   16.8464 O   0  0  0  0  0  0  0  0  0  0  0  0
   11.6276  -20.8270   18.4828 C   0  0  0  0  0  0  0  0  0  0  0  0
   12.8116  -19.9646   18.8323 C   0  0  0  0  0  0  0  0  0  0  0  0
   12.3666  -18.6814   19.4514 C   0  0  2  0  0  0  0  0  0  0  0  0
   12.5515  -17.6348   18.4655 N   0  0  0  0  0  0  0  0  0  0  0  0
   13.0987  -18.3736   20.7101 C   0  0  0  0  0  0  0  0  0  0  0  0
   13.2089  -19.2442   21.6048 O   0  0  0  0  0  0  0  0  0  0  0  0
   13.6719  -17.1028   20.9032 N   0  0  0  0  0  0  0  0  0  0  0  0
   14.2076  -16.6362   22.1512 C   0  0  1  0  0  0  0  0  0  0  0  0
   13.5406  -17.2965   23.3393 C   0  0  0  0  0  0  0  0  0  0  0  0
   12.1133  -16.9142   23.4643 C   0  0  0  0  0  0  0  0  0  0  0  0
   11.4430  -15.9484   22.7168 C   0  0  0  0  0  0  0  0  0  0  0  0
   10.1815  -15.9012   23.1254 N   0  0  0  0  0  0  0  0  0  0  0  0
   10.0034  -16.7885   24.0996 C   0  0  0  0  0  0  0  0  0  0  0  0
   11.1897  -17.4026   24.2995 N   0  0  0  0  0  0  0  0  0  0  0  0
   15.6676  -16.8622   22.1639 C   0  0  0  0  0  0  0  0  0  0  0  0
   16.4024  -16.4822   23.2712 O   0  0  0  0  0  0  0  0  0  0  0  0
   16.2892  -17.3862   21.2154 O   0  0  0  0  0  0  0  0  0  0  0  0
  2  1  1  1
  3  2  1  0
  3  4  1  0
  4  5  2  0
  6  2  1  0
  6  7  2  0
  8  4  1  0
  9 10  1  0
 10 12  1  0
 11 10  2  0
 12 13  1  0
 14 13  1  6
 14 15  1  0
 15  6  1  0
 16 14  1  0
 17 16  2  0
 18 16  1  0
 19 18  1  0
 19 26  1  0
 19 20  1  1
 21 25  1  0
 21 20  1  0
 22 21  2  0
 23 22  1  0
 23 24  1  0
 24 25  2  0
 26 27  1  0
 28 26  2  0
M  END
$$$$
