DQH.pdb
     RDKit          3D

 28 28  0  0  1  0  0  0  0  0999 V2000
   11.2146  -19.0171   15.4140 N   0  0  0  0  0  0  0  0  0  0  0  0
   11.9181  -18.4652   16.5353 C   0  0  1  0  0  0  0  0  0  0  0  0
   12.4962  -17.0918   16.1793 C   0  0  0  0  0  0  0  0  0  0  0  0
   13.4954  -17.2270   15.0875 C   0  0  0  0  0  0  0  0  0  0  0  0
   13.3259  -16.7484   13.9590 O   0  0  0  0  0  0  0  0  0  0  0  0
   11.0993  -18.3882   17.7659 C   0  0  0  0  0  0  0  0  0  0  0  0
    9.9095  -18.0019   17.6908 O   0  0  0  0  0  0  0  0  0  0  0  0
   14.6763  -17.9211   15.3377 O   0  0  0  0  0  0  0  0  0  0  0  0
   10.7532  -21.0152   24.5711 N   0  0  0  0  0  0  0  0  0  0  0  0
   11.0117  -21.1696   23.1728 C   0  0  0  0  0  0  0  0  0  0  0  0
   11.6532  -22.1816   22.8241 O   0  0  0  0  0  0  0  0  0  0  0  0
   10.5035  -20.1312   22.2567 C   0  0  0  0  0  0  0  0  0  0  0  0
   11.3694  -19.9259   21.0418 C   0  0  0  0  0  0  0  0  0  0  0  0
   10.9006  -18.7499   20.2511 C   0  0  2  0  0  0  0  0  0  0  0  0
   11.6397  -18.7408   19.0039 N   0  0  0  0  0  0  0  0  0  0  0  0
   11.0669  -17.4672   20.9872 C   0  0  0  0  0  0  0  0  0  0  0  0
   12.2017  -16.9476   21.1008 O   0  0  0  0  0  0  0  0  0  0  0  0
    9.9506  -16.8298   21.5603 N   0  0  0  0  0  0  0  0  0  0  0  0
   10.0105  -15.6020   22.3025 C   0  0  1  0  0  0  0  0  0  0  0  0
    8.7134  -14.8249   22.2230 C   0  0  0  0  0  0  0  0  0  0  0  0
    8.4947  -14.2360   20.8799 C   0  0  0  0  0  0  0  0  0  0  0  0
    9.3729  -14.2812   19.7994 C   0  0  0  0  0  0  0  0  0  0  0  0
    8.8169  -13.6416   18.7785 N   0  0  0  0  0  0  0  0  0  0  0  0
    7.6231  -13.1854   19.1455 C   0  0  0  0  0  0  0  0  0  0  0  0
    7.4352  -13.5536   20.4315 N   0  0  0  0  0  0  0  0  0  0  0  0
   10.3686  -15.9027   23.7040 C   0  0  0  0  0  0  0  0  0  0  0  0
   10.6236  -14.8614   24.5765 O   0  0  0  0  0  0  0  0  0  0  0  0
   10.4563  -17.0640   24.1559 O   0  0  0  0  0  0  0  0  0  0  0  0
  2  1  1  6
  3  2  1  0
  3  4  1  0
  4  5  2  0
  6  2  1  0
  6  7  2  0
  8  4  1  0
  9 10  1  0
 10 12  1  0
 11 10  2  0
 12 13  1  0
 14 13  1  1
 14 15  1  0
 15  6  1  0
 16 14  1  0
 17 16  2  0
 18 16  1  0
 19 18  1  0
 19 26  1  0
 19 20  1  1
 21 25  1  0
 21 20  1  0
 22 21  2  0
 23 22  1  0
 23 24  1  0
 24 25  2  0
 26 27  1  0
 28 26  2  0
M  END
$$$$
