DQH.pdb
     RDKit          3D

 28 28  0  0  1  0  0  0  0  0999 V2000
   10.6325  -16.3679   14.2734 N   0  0  0  0  0  0  0  0  0  0  0  0
   10.4302  -15.4682   15.3717 C   0  0  1  0  0  0  0  0  0  0  0  0
    8.9483  -15.0984   15.4929 C   0  0  0  0  0  0  0  0  0  0  0  0
    8.4595  -14.5262   14.2113 C   0  0  0  0  0  0  0  0  0  0  0  0
    9.1676  -14.4423   13.1999 O   0  0  0  0  0  0  0  0  0  0  0  0
   10.9510  -15.9813   16.6587 C   0  0  0  0  0  0  0  0  0  0  0  0
   11.2696  -17.1894   16.7563 O   0  0  0  0  0  0  0  0  0  0  0  0
    7.1489  -14.0621   14.1377 O   0  0  0  0  0  0  0  0  0  0  0  0
   15.8087  -16.1559   18.3652 N   0  0  0  0  0  0  0  0  0  0  0  0
   15.2945  -14.8460   18.1092 C   0  0  0  0  0  0  0  0  0  0  0  0
   16.1127  -13.9787   17.7408 O   0  0  0  0  0  0  0  0  0  0  0  0
   13.8487  -14.6215   18.2966 C   0  0  0  0  0  0  0  0  0  0  0  0
   13.1098  -15.8398   18.7842 C   0  0  0  0  0  0  0  0  0  0  0  0
   11.6718  -15.5233   19.0287 C   0  0  2  0  0  0  0  0  0  0  0  0
   11.0895  -15.1339   17.7595 N   0  0  0  0  0  0  0  0  0  0  0  0
   11.4900  -14.4612   20.0552 C   0  0  0  0  0  0  0  0  0  0  0  0
   11.4101  -13.2587   19.7115 O   0  0  0  0  0  0  0  0  0  0  0  0
   11.4068  -14.8009   21.4185 N   0  0  0  0  0  0  0  0  0  0  0  0
   10.2147  -14.6873   22.2111 C   0  0  1  0  0  0  0  0  0  0  0  0
    9.0393  -15.4002   21.5764 C   0  0  0  0  0  0  0  0  0  0  0  0
    8.3070  -14.5330   20.6222 C   0  0  0  0  0  0  0  0  0  0  0  0
    8.6256  -13.2211   20.2783 C   0  0  0  0  0  0  0  0  0  0  0  0
    7.7334  -12.7891   19.3964 N   0  0  0  0  0  0  0  0  0  0  0  0
    6.8543  -13.7566   19.1532 C   0  0  0  0  0  0  0  0  0  0  0  0
    7.2133  -14.8184   19.9071 N   0  0  0  0  0  0  0  0  0  0  0  0
   10.4860  -15.2065   23.5674 C   0  0  0  0  0  0  0  0  0  0  0  0
   11.6891  -15.8370   23.8234 O   0  0  0  0  0  0  0  0  0  0  0  0
    9.6775  -15.1077   24.5145 O   0  0  0  0  0  0  0  0  0  0  0  0
  2  1  1  6
  3  2  1  0
  3  4  1  0
  4  5  2  0
  6  2  1  0
  6  7  2  0
  8  4  1  0
  9 10  1  0
 10 12  1  0
 11 10  2  0
 12 13  1  0
 14 13  1  6
 14 15  1  0
 15  6  1  0
 16 14  1  0
 17 16  2  0
 18 16  1  0
 19 18  1  0
 19 26  1  0
 19 20  1  6
 21 25  1  0
 21 20  1  0
 22 21  2  0
 23 22  1  0
 23 24  1  0
 24 25  2  0
 26 27  1  0
 28 26  2  0
M  END
$$$$
