DQH.pdb
     RDKit          3D

 28 28  0  0  1  0  0  0  0  0999 V2000
   14.1053  -16.3435   19.7923 N   0  0  0  0  0  0  0  0  0  0  0  0
   13.2851  -15.2616   20.2544 C   0  0  1  0  0  0  0  0  0  0  0  0
   12.7561  -14.4486   19.0685 C   0  0  0  0  0  0  0  0  0  0  0  0
   13.8792  -13.7577   18.3829 C   0  0  0  0  0  0  0  0  0  0  0  0
   13.7164  -12.7688   17.6570 O   0  0  0  0  0  0  0  0  0  0  0  0
   12.1747  -15.6957   21.1315 C   0  0  0  0  0  0  0  0  0  0  0  0
   11.4000  -14.8374   21.6148 O   0  0  0  0  0  0  0  0  0  0  0  0
   15.1739  -14.2383   18.5600 O   0  0  0  0  0  0  0  0  0  0  0  0
   12.1850  -22.0259   23.4249 N   0  0  0  0  0  0  0  0  0  0  0  0
   12.0391  -21.2148   22.2557 C   0  0  0  0  0  0  0  0  0  0  0  0
   11.8179  -21.8072   21.1798 O   0  0  0  0  0  0  0  0  0  0  0  0
   12.1583  -19.7526   22.4089 C   0  0  0  0  0  0  0  0  0  0  0  0
   10.8721  -19.0143   22.1478 C   0  0  0  0  0  0  0  0  0  0  0  0
   11.0406  -17.5529   22.4006 C   0  0  2  0  0  0  0  0  0  0  0  0
   11.9847  -17.0476   21.4233 N   0  0  0  0  0  0  0  0  0  0  0  0
   11.4934  -17.2647   23.7887 C   0  0  0  0  0  0  0  0  0  0  0  0
   12.6838  -16.9410   24.0095 O   0  0  0  0  0  0  0  0  0  0  0  0
   10.5874  -17.3540   24.8620 N   0  0  0  0  0  0  0  0  0  0  0  0
   10.7863  -16.7388   26.1442 C   0  0  1  0  0  0  0  0  0  0  0  0
    9.7840  -15.6348   26.4074 C   0  0  0  0  0  0  0  0  0  0  0  0
    9.8566  -15.1330   27.8009 C   0  0  0  0  0  0  0  0  0  0  0  0
   10.6790  -15.6157   28.8164 C   0  0  0  0  0  0  0  0  0  0  0  0
   10.4516  -14.9065   29.9145 N   0  0  0  0  0  0  0  0  0  0  0  0
    9.5232  -13.9896   29.6591 C   0  0  0  0  0  0  0  0  0  0  0  0
    9.1657  -14.1360   28.3647 N   0  0  0  0  0  0  0  0  0  0  0  0
   10.7245  -17.7781   27.1925 C   0  0  0  0  0  0  0  0  0  0  0  0
   11.4094  -17.5864   28.3777 O   0  0  0  0  0  0  0  0  0  0  0  0
   10.0780  -18.8398   27.0691 O   0  0  0  0  0  0  0  0  0  0  0  0
  2  1  1  6
  3  2  1  0
  3  4  1  0
  4  5  2  0
  6  2  1  0
  6  7  2  0
  8  4  1  0
  9 10  1  0
 10 12  1  0
 11 10  2  0
 12 13  1  0
 14 13  1  1
 14 15  1  0
 15  6  1  0
 16 14  1  0
 17 16  2  0
 18 16  1  0
 19 18  1  0
 19 26  1  0
 19 20  1  1
 21 25  1  0
 21 20  1  0
 22 21  2  0
 23 22  1  0
 23 24  1  0
 24 25  2  0
 26 27  1  0
 28 26  2  0
M  END
$$$$
