DQH.pdb
     RDKit          3D

 28 28  0  0  1  0  0  0  0  0999 V2000
   15.8197  -14.6197   15.7148 N   0  0  0  0  0  0  0  0  0  0  0  0
   16.1187  -13.8875   16.9112 C   0  0  1  0  0  0  0  0  0  0  0  0
   16.5537  -12.4591   16.5682 C   0  0  0  0  0  0  0  0  0  0  0  0
   17.9485  -12.4606   16.0551 C   0  0  0  0  0  0  0  0  0  0  0  0
   18.7643  -13.3496   16.3301 O   0  0  0  0  0  0  0  0  0  0  0  0
   15.0088  -13.8784   17.8904 C   0  0  0  0  0  0  0  0  0  0  0  0
   15.1633  -13.2992   18.9909 O   0  0  0  0  0  0  0  0  0  0  0  0
   18.3629  -11.4197   15.2284 O   0  0  0  0  0  0  0  0  0  0  0  0
    9.2732  -16.2690   16.6554 N   0  0  0  0  0  0  0  0  0  0  0  0
    9.1578  -15.9053   18.0338 C   0  0  0  0  0  0  0  0  0  0  0  0
    8.0411  -16.0606   18.5688 O   0  0  0  0  0  0  0  0  0  0  0  0
   10.3571  -15.3803   18.7134 C   0  0  0  0  0  0  0  0  0  0  0  0
   11.5512  -15.2450   17.8058 C   0  0  0  0  0  0  0  0  0  0  0  0
   12.7286  -14.7172   18.5562 C   0  0  2  0  0  0  0  0  0  0  0  0
   13.7969  -14.5071   17.5989 N   0  0  0  0  0  0  0  0  0  0  0  0
   13.1574  -15.6266   19.6535 C   0  0  0  0  0  0  0  0  0  0  0  0
   14.2178  -16.2862   19.5481 O   0  0  0  0  0  0  0  0  0  0  0  0
   12.3746  -15.7513   20.8164 N   0  0  0  0  0  0  0  0  0  0  0  0
   12.8885  -16.1288   22.1031 C   0  0  1  0  0  0  0  0  0  0  0  0
   13.9214  -15.1466   22.6139 C   0  0  0  0  0  0  0  0  0  0  0  0
   15.2971  -15.5149   22.2007 C   0  0  0  0  0  0  0  0  0  0  0  0
   15.6627  -16.5891   21.3925 C   0  0  0  0  0  0  0  0  0  0  0  0
   16.9823  -16.5814   21.2544 N   0  0  0  0  0  0  0  0  0  0  0  0
   17.4875  -15.5558   21.9332 C   0  0  0  0  0  0  0  0  0  0  0  0
   16.4498  -14.9100   22.5081 N   0  0  0  0  0  0  0  0  0  0  0  0
   11.7635  -16.2630   23.0513 C   0  0  0  0  0  0  0  0  0  0  0  0
   10.4769  -16.0050   22.6171 O   0  0  0  0  0  0  0  0  0  0  0  0
   11.9087  -16.6022   24.2448 O   0  0  0  0  0  0  0  0  0  0  0  0
  2  1  1  6
  3  2  1  0
  3  4  1  0
  4  5  2  0
  6  2  1  0
  6  7  2  0
  8  4  1  0
  9 10  1  0
 10 12  1  0
 11 10  2  0
 12 13  1  0
 14 13  1  6
 14 15  1  0
 15  6  1  0
 16 14  1  0
 17 16  2  0
 18 16  1  0
 19 18  1  0
 19 26  1  0
 19 20  1  1
 21 25  1  0
 21 20  1  0
 22 21  2  0
 23 22  1  0
 23 24  1  0
 24 25  2  0
 26 27  1  0
 28 26  2  0
M  END
$$$$
