MDR.pdb
     RDKit          3D

 28 27  0  0  1  0  0  0  0  0999 V2000
    8.2804  -12.1003   20.7784 C   0  0  0  0  0  0  0  0  0  0  0  0
    6.8529  -13.1621   21.0346 S   0  0  0  0  0  0  0  0  0  0  0  0
    6.9466  -14.5498   19.8737 C   0  0  0  0  0  0  0  0  0  0  0  0
    7.6188  -15.7074   20.5673 C   0  0  0  0  0  0  0  0  0  0  0  0
    9.1094  -15.6463   20.5548 C   0  0  2  0  0  0  0  0  0  0  0  0
    9.6248  -15.5479   19.1908 N   0  0  0  0  0  0  0  0  0  0  0  0
    9.7940  -16.7566   21.2286 C   0  0  0  0  0  0  0  0  0  0  0  0
    9.3332  -17.1493   22.3492 O   0  0  0  0  0  0  0  0  0  0  0  0
   10.9203  -17.3645   20.6543 N   0  0  0  0  0  0  0  0  0  0  0  0
   11.5809  -18.5131   21.2342 C   0  0  1  0  0  0  0  0  0  0  0  0
   12.6761  -19.0487   20.3810 C   0  0  0  0  0  0  0  0  0  0  0  0
   13.0861  -20.3723   20.8964 C   0  0  0  0  0  0  0  0  0  0  0  0
   12.8255  -20.7313   22.0939 O   0  0  0  0  0  0  0  0  0  0  0  0
   12.0225  -18.1632   22.6055 C   0  0  0  0  0  0  0  0  0  0  0  0
   12.9354  -17.3389   22.8239 O   0  0  0  0  0  0  0  0  0  0  0  0
   13.7686  -21.3003   20.1346 O   0  0  0  0  0  0  0  0  0  0  0  0
    8.4601  -13.5838   27.0338 N   0  0  0  0  0  0  0  0  0  0  0  0
    9.4553  -14.0942   27.9018 C   0  0  0  0  0  0  0  0  0  0  0  0
    9.8050  -13.3975   28.9531 N   0  0  0  0  0  0  0  0  0  0  0  0
   10.0506  -15.3477   27.6142 N   0  0  0  0  0  0  0  0  0  0  0  0
   10.8463  -15.5264   26.4431 C   0  0  0  0  0  0  0  0  0  0  0  0
   10.2932  -16.5467   25.4926 C   0  0  0  0  0  0  0  0  0  0  0  0
   10.6482  -17.9603   25.9103 C   0  0  0  0  0  0  0  0  0  0  0  0
   11.7968  -18.4947   25.0690 C   0  0  2  0  0  0  0  0  0  0  0  0
   11.3915  -18.7814   23.7115 N   0  0  0  0  0  0  0  0  0  0  0  0
   12.3605  -19.7337   25.6588 C   0  0  0  0  0  0  0  0  0  0  0  0
   13.5194  -19.6330   26.4110 O   0  0  0  0  0  0  0  0  0  0  0  0
   11.7952  -20.8503   25.4775 O   0  0  0  0  0  0  0  0  0  0  0  0
  2  1  1  0
  3  2  1  0
  4  5  1  0
  4  3  1  0
  5  6  1  6
  7  9  1  0
  7  5  1  0
  8  7  2  0
 10  9  1  0
 10 11  1  6
 12 16  1  0
 12 11  1  0
 13 12  2  0
 14 15  2  0
 14 10  1  0
 17 18  1  0
 18 19  2  0
 20 18  1  0
 20 21  1  0
 22 21  1  0
 22 23  1  0
 24 23  1  1
 24 25  1  0
 25 14  1  0
 26 24  1  0
 27 26  1  0
 28 26  2  0
M  END
$$$$
