MDR.pdb
     RDKit          3D

 28 27  0  0  1  0  0  0  0  0999 V2000
    8.1614  -12.6300   26.7610 C   0  0  0  0  0  0  0  0  0  0  0  0
    6.8549  -11.7745   25.8711 S   0  0  0  0  0  0  0  0  0  0  0  0
    5.9836  -12.9723   24.8277 C   0  0  0  0  0  0  0  0  0  0  0  0
    6.8807  -13.3411   23.6736 C   0  0  0  0  0  0  0  0  0  0  0  0
    6.9185  -14.8013   23.3703 C   0  0  2  0  0  0  0  0  0  0  0  0
    6.1472  -15.5663   24.3479 N   0  0  0  0  0  0  0  0  0  0  0  0
    8.2587  -15.3931   23.2736 C   0  0  0  0  0  0  0  0  0  0  0  0
    8.9148  -15.2112   22.1973 O   0  0  0  0  0  0  0  0  0  0  0  0
    8.7977  -16.1353   24.3350 N   0  0  0  0  0  0  0  0  0  0  0  0
   10.1059  -16.7504   24.2856 C   0  0  1  0  0  0  0  0  0  0  0  0
   11.1598  -15.8393   23.7629 C   0  0  0  0  0  0  0  0  0  0  0  0
   12.4413  -16.5730   23.6937 C   0  0  0  0  0  0  0  0  0  0  0  0
   13.4642  -16.1918   24.3565 O   0  0  0  0  0  0  0  0  0  0  0  0
   10.4197  -17.3042   25.6246 C   0  0  0  0  0  0  0  0  0  0  0  0
   11.5535  -17.2059   26.1397 O   0  0  0  0  0  0  0  0  0  0  0  0
   12.6229  -17.7035   22.9214 O   0  0  0  0  0  0  0  0  0  0  0  0
    6.4534  -20.8358   22.0605 N   0  0  0  0  0  0  0  0  0  0  0  0
    5.9077  -21.3942   23.2414 C   0  0  0  0  0  0  0  0  0  0  0  0
    4.6153  -21.5848   23.3205 N   0  0  0  0  0  0  0  0  0  0  0  0
    6.7720  -21.7349   24.3117 N   0  0  0  0  0  0  0  0  0  0  0  0
    7.0117  -20.8164   25.3772 C   0  0  0  0  0  0  0  0  0  0  0  0
    8.3265  -20.1023   25.2685 C   0  0  0  0  0  0  0  0  0  0  0  0
    9.2434  -20.4246   26.4323 C   0  0  0  0  0  0  0  0  0  0  0  0
    9.6848  -19.1503   27.1350 C   0  0  2  0  0  0  0  0  0  0  0  0
    9.4029  -17.9692   26.3509 N   0  0  0  0  0  0  0  0  0  0  0  0
   11.1384  -19.1781   27.4300 C   0  0  0  0  0  0  0  0  0  0  0  0
   11.5415  -19.0650   28.7504 O   0  0  0  0  0  0  0  0  0  0  0  0
   11.9841  -19.3021   26.4979 O   0  0  0  0  0  0  0  0  0  0  0  0
  2  1  1  0
  3  2  1  0
  4  5  1  0
  4  3  1  0
  5  6  1  1
  7  9  1  0
  7  5  1  0
  8  7  2  0
 10  9  1  0
 10 11  1  1
 12 16  1  0
 12 11  1  0
 13 12  2  0
 14 15  2  0
 14 10  1  0
 17 18  1  0
 18 19  2  0
 20 18  1  0
 20 21  1  0
 22 21  1  0
 22 23  1  0
 24 23  1  6
 24 25  1  0
 25 14  1  0
 26 24  1  0
 27 26  1  0
 28 26  2  0
M  END
$$$$
