MDR.pdb
     RDKit          3D

 28 27  0  0  1  0  0  0  0  0999 V2000
    4.8934  -11.3736   27.5611 C   0  0  0  0  0  0  0  0  0  0  0  0
    6.5206  -11.5817   26.8265 S   0  0  0  0  0  0  0  0  0  0  0  0
    6.8613  -13.3537   26.6643 C   0  0  0  0  0  0  0  0  0  0  0  0
    8.2682  -13.5238   26.1499 C   0  0  0  0  0  0  0  0  0  0  0  0
    8.4342  -14.6468   25.1818 C   0  0  2  0  0  0  0  0  0  0  0  0
    7.1835  -15.3810   25.0016 N   0  0  0  0  0  0  0  0  0  0  0  0
    9.4933  -15.6104   25.5058 C   0  0  0  0  0  0  0  0  0  0  0  0
   10.6696  -15.1616   25.6982 O   0  0  0  0  0  0  0  0  0  0  0  0
    9.2161  -16.9823   25.6002 N   0  0  0  0  0  0  0  0  0  0  0  0
   10.2467  -17.9964   25.6401 C   0  0  1  0  0  0  0  0  0  0  0  0
    9.8462  -19.2054   26.4095 C   0  0  0  0  0  0  0  0  0  0  0  0
   10.0871  -18.9639   27.8479 C   0  0  0  0  0  0  0  0  0  0  0  0
   10.8160  -17.9947   28.2482 O   0  0  0  0  0  0  0  0  0  0  0  0
   10.6690  -18.2975   24.2512 C   0  0  0  0  0  0  0  0  0  0  0  0
   10.3485  -19.3556   23.6695 O   0  0  0  0  0  0  0  0  0  0  0  0
    9.5513  -19.7541   28.8459 O   0  0  0  0  0  0  0  0  0  0  0  0
    7.7633  -12.7232   18.8134 N   0  0  0  0  0  0  0  0  0  0  0  0
    8.4255  -13.6062   17.9267 C   0  0  0  0  0  0  0  0  0  0  0  0
    8.2869  -13.4392   16.6361 N   0  0  0  0  0  0  0  0  0  0  0  0
    9.2240  -14.6509   18.4554 N   0  0  0  0  0  0  0  0  0  0  0  0
    9.3478  -14.8331   19.8653 C   0  0  0  0  0  0  0  0  0  0  0  0
   10.2946  -15.9322   20.2469 C   0  0  0  0  0  0  0  0  0  0  0  0
   10.2502  -16.2269   21.7335 C   0  0  0  0  0  0  0  0  0  0  0  0
   11.3578  -17.1942   22.1210 C   0  0  2  0  0  0  0  0  0  0  0  0
   11.4638  -17.3568   23.5533 N   0  0  0  0  0  0  0  0  0  0  0  0
   12.6715  -16.7374   21.6051 C   0  0  0  0  0  0  0  0  0  0  0  0
   12.9048  -16.8190   20.2421 O   0  0  0  0  0  0  0  0  0  0  0  0
   13.5526  -16.2860   22.3920 O   0  0  0  0  0  0  0  0  0  0  0  0
  2  1  1  0
  3  2  1  0
  4  5  1  0
  4  3  1  0
  5  6  1  1
  7  9  1  0
  7  5  1  0
  8  7  2  0
 10  9  1  0
 10 11  1  6
 12 16  1  0
 12 11  1  0
 13 12  2  0
 14 15  2  0
 14 10  1  0
 17 18  1  0
 18 19  2  0
 20 18  1  0
 20 21  1  0
 22 21  1  0
 22 23  1  0
 24 23  1  1
 24 25  1  0
 25 14  1  0
 26 24  1  0
 27 26  1  0
 28 26  2  0
M  END
$$$$
