MDR.pdb
     RDKit          3D

 28 27  0  0  1  0  0  0  0  0999 V2000
    7.6650  -12.2366   21.5794 C   0  0  0  0  0  0  0  0  0  0  0  0
    7.2764  -12.7850   19.9124 S   0  0  0  0  0  0  0  0  0  0  0  0
    8.3390  -14.1941   19.5031 C   0  0  0  0  0  0  0  0  0  0  0  0
    8.8697  -14.7802   20.7868 C   0  0  0  0  0  0  0  0  0  0  0  0
   10.3144  -15.1496   20.7395 C   0  0  2  0  0  0  0  0  0  0  0  0
   10.8107  -15.1748   19.3652 N   0  0  0  0  0  0  0  0  0  0  0  0
   10.6630  -16.4237   21.3804 C   0  0  0  0  0  0  0  0  0  0  0  0
   10.0596  -16.7340   22.4582 O   0  0  0  0  0  0  0  0  0  0  0  0
   11.6310  -17.2712   20.8212 N   0  0  0  0  0  0  0  0  0  0  0  0
   11.9690  -18.5622   21.3792 C   0  0  1  0  0  0  0  0  0  0  0  0
   12.7429  -19.4190   20.4406 C   0  0  0  0  0  0  0  0  0  0  0  0
   11.8051  -20.2761   19.6846 C   0  0  0  0  0  0  0  0  0  0  0  0
   10.5434  -20.0831   19.7273 O   0  0  0  0  0  0  0  0  0  0  0  0
   12.6492  -18.3527   22.6797 C   0  0  0  0  0  0  0  0  0  0  0  0
   13.6651  -17.6350   22.7948 O   0  0  0  0  0  0  0  0  0  0  0  0
   12.2173  -21.3289   18.8913 O   0  0  0  0  0  0  0  0  0  0  0  0
   10.9302  -21.3159   30.9895 N   0  0  0  0  0  0  0  0  0  0  0  0
   12.1728  -20.6430   31.0764 C   0  0  0  0  0  0  0  0  0  0  0  0
   12.7588  -20.5304   32.2412 N   0  0  0  0  0  0  0  0  0  0  0  0
   12.7552  -20.1066   29.9010 N   0  0  0  0  0  0  0  0  0  0  0  0
   12.0502  -20.1307   28.6605 C   0  0  0  0  0  0  0  0  0  0  0  0
   12.8430  -19.5854   27.5097 C   0  0  0  0  0  0  0  0  0  0  0  0
   12.0582  -19.6240   26.2130 C   0  0  0  0  0  0  0  0  0  0  0  0
   12.8047  -18.8854   25.1131 C   0  0  2  0  0  0  0  0  0  0  0  0
   12.1343  -18.9854   23.8365 N   0  0  0  0  0  0  0  0  0  0  0  0
   14.1839  -19.4095   24.9578 C   0  0  0  0  0  0  0  0  0  0  0  0
   14.3517  -20.6432   24.3507 O   0  0  0  0  0  0  0  0  0  0  0  0
   15.1775  -18.7444   25.3699 O   0  0  0  0  0  0  0  0  0  0  0  0
  2  1  1  0
  3  2  1  0
  4  5  1  0
  4  3  1  0
  5  6  1  6
  7  9  1  0
  7  5  1  0
  8  7  2  0
 10  9  1  0
 10 11  1  6
 12 16  1  0
 12 11  1  0
 13 12  2  0
 14 15  2  0
 14 10  1  0
 17 18  1  0
 18 19  2  0
 20 18  1  0
 20 21  1  0
 22 21  1  0
 22 23  1  0
 24 23  1  1
 24 25  1  0
 25 14  1  0
 26 24  1  0
 27 26  1  0
 28 26  2  0
M  END
$$$$
