MDR.pdb
     RDKit          3D

 28 27  0  0  1  0  0  0  0  0999 V2000
    8.7142  -12.0137   20.0349 C   0  0  0  0  0  0  0  0  0  0  0  0
    7.1421  -12.6960   19.4929 S   0  0  0  0  0  0  0  0  0  0  0  0
    7.4519  -13.8683   18.1468 C   0  0  0  0  0  0  0  0  0  0  0  0
    7.9506  -15.1596   18.7443 C   0  0  0  0  0  0  0  0  0  0  0  0
    9.4233  -15.1962   18.9801 C   0  0  2  0  0  0  0  0  0  0  0  0
   10.1645  -15.0592   17.7281 N   0  0  0  0  0  0  0  0  0  0  0  0
    9.9220  -16.3836   19.6850 C   0  0  0  0  0  0  0  0  0  0  0  0
    9.2997  -16.7623   20.7298 O   0  0  0  0  0  0  0  0  0  0  0  0
   11.0491  -17.0778   19.2206 N   0  0  0  0  0  0  0  0  0  0  0  0
   11.6279  -18.2039   19.9199 C   0  0  1  0  0  0  0  0  0  0  0  0
   12.6417  -18.9341   19.1117 C   0  0  0  0  0  0  0  0  0  0  0  0
   12.0296  -19.3519   17.8326 C   0  0  0  0  0  0  0  0  0  0  0  0
   11.0583  -20.1803   17.7975 O   0  0  0  0  0  0  0  0  0  0  0  0
   12.1463  -17.7342   21.2270 C   0  0  0  0  0  0  0  0  0  0  0  0
   12.8145  -16.6851   21.3431 O   0  0  0  0  0  0  0  0  0  0  0  0
   12.4556  -18.8856   16.6043 O   0  0  0  0  0  0  0  0  0  0  0  0
   10.7377  -21.3438   29.0003 N   0  0  0  0  0  0  0  0  0  0  0  0
   12.0455  -20.8144   29.1175 C   0  0  0  0  0  0  0  0  0  0  0  0
   12.7892  -21.1670   30.1351 N   0  0  0  0  0  0  0  0  0  0  0  0
   12.5212  -19.9150   28.1308 N   0  0  0  0  0  0  0  0  0  0  0  0
   11.6117  -19.2055   27.2906 C   0  0  0  0  0  0  0  0  0  0  0  0
   12.2799  -18.4879   26.1553 C   0  0  0  0  0  0  0  0  0  0  0  0
   11.6907  -18.8784   24.8139 C   0  0  0  0  0  0  0  0  0  0  0  0
   12.3190  -18.0622   23.6952 C   0  0  2  0  0  0  0  0  0  0  0  0
   11.8781  -18.4967   22.3890 N   0  0  0  0  0  0  0  0  0  0  0  0
   13.7995  -18.1452   23.7390 C   0  0  0  0  0  0  0  0  0  0  0  0
   14.4128  -19.2346   23.1423 O   0  0  0  0  0  0  0  0  0  0  0  0
   14.4802  -17.2433   24.3070 O   0  0  0  0  0  0  0  0  0  0  0  0
  2  1  1  0
  3  2  1  0
  4  5  1  0
  4  3  1  0
  5  6  1  6
  7  9  1  0
  7  5  1  0
  8  7  2  0
 10  9  1  0
 10 11  1  6
 12 16  1  0
 12 11  1  0
 13 12  2  0
 14 15  2  0
 14 10  1  0
 17 18  1  0
 18 19  2  0
 20 18  1  0
 20 21  1  0
 22 21  1  0
 22 23  1  0
 24 23  1  1
 24 25  1  0
 25 14  1  0
 26 24  1  0
 27 26  1  0
 28 26  2  0
M  END
$$$$
