MDR.pdb
     RDKit          3D

 28 27  0  0  1  0  0  0  0  0999 V2000
    8.7523  -11.7974   20.6579 C   0  0  0  0  0  0  0  0  0  0  0  0
    7.2719  -12.5673   21.3261 S   0  0  0  0  0  0  0  0  0  0  0  0
    7.4773  -14.3664   21.2679 C   0  0  0  0  0  0  0  0  0  0  0  0
    7.5587  -14.7907   19.8235 C   0  0  0  0  0  0  0  0  0  0  0  0
    7.6375  -16.2669   19.6229 C   0  0  2  0  0  0  0  0  0  0  0  0
    6.3642  -16.9132   19.9340 N   0  0  0  0  0  0  0  0  0  0  0  0
    8.6985  -16.9516   20.3719 C   0  0  0  0  0  0  0  0  0  0  0  0
    8.3678  -17.5995   21.4174 O   0  0  0  0  0  0  0  0  0  0  0  0
   10.0343  -16.8925   19.9475 N   0  0  0  0  0  0  0  0  0  0  0  0
   11.1317  -17.4454   20.7106 C   0  0  1  0  0  0  0  0  0  0  0  0
   12.4358  -17.3663   19.9985 C   0  0  0  0  0  0  0  0  0  0  0  0
   13.2554  -18.5423   20.3600 C   0  0  0  0  0  0  0  0  0  0  0  0
   13.9759  -18.5539   21.4143 O   0  0  0  0  0  0  0  0  0  0  0  0
   11.1517  -16.8018   22.0459 C   0  0  0  0  0  0  0  0  0  0  0  0
   10.9896  -15.5725   22.1980 O   0  0  0  0  0  0  0  0  0  0  0  0
   13.3011  -19.6933   19.5981 O   0  0  0  0  0  0  0  0  0  0  0  0
    5.7815  -14.0968   26.3212 N   0  0  0  0  0  0  0  0  0  0  0  0
    6.8190  -13.1731   26.0477 C   0  0  0  0  0  0  0  0  0  0  0  0
    6.6412  -11.9087   26.3347 N   0  0  0  0  0  0  0  0  0  0  0  0
    8.0269  -13.6372   25.4699 N   0  0  0  0  0  0  0  0  0  0  0  0
    8.1023  -14.9338   24.8786 C   0  0  0  0  0  0  0  0  0  0  0  0
    9.4880  -15.3183   24.4517 C   0  0  0  0  0  0  0  0  0  0  0  0
    9.8625  -16.7076   24.9297 C   0  0  0  0  0  0  0  0  0  0  0  0
   11.2890  -17.0464   24.5261 C   0  0  2  0  0  0  0  0  0  0  0  0
   11.3615  -17.6028   23.1940 N   0  0  0  0  0  0  0  0  0  0  0  0
   11.8961  -18.0163   25.4702 C   0  0  0  0  0  0  0  0  0  0  0  0
   11.7975  -19.3664   25.1764 O   0  0  0  0  0  0  0  0  0  0  0  0
   12.4872  -17.6172   26.5145 O   0  0  0  0  0  0  0  0  0  0  0  0
  2  1  1  0
  3  2  1  0
  4  5  1  0
  4  3  1  0
  5  6  1  1
  7  9  1  0
  7  5  1  0
  8  7  2  0
 10  9  1  0
 10 11  1  6
 12 16  1  0
 12 11  1  0
 13 12  2  0
 14 15  2  0
 14 10  1  0
 17 18  1  0
 18 19  2  0
 20 18  1  0
 20 21  1  0
 22 21  1  0
 22 23  1  0
 24 23  1  1
 24 25  1  0
 25 14  1  0
 26 24  1  0
 27 26  1  0
 28 26  2  0
M  END
$$$$
