MDR.pdb
     RDKit          3D

 28 27  0  0  1  0  0  0  0  0999 V2000
    8.2344  -11.6827   20.2839 C   0  0  0  0  0  0  0  0  0  0  0  0
    6.8332  -12.7742   20.0076 S   0  0  0  0  0  0  0  0  0  0  0  0
    7.4394  -14.3285   19.3013 C   0  0  0  0  0  0  0  0  0  0  0  0
    8.3039  -15.0142   20.3286 C   0  0  0  0  0  0  0  0  0  0  0  0
    8.7837  -16.3666   19.9203 C   0  0  2  0  0  0  0  0  0  0  0  0
    7.6650  -17.2728   19.6692 N   0  0  0  0  0  0  0  0  0  0  0  0
    9.7067  -17.0199   20.8565 C   0  0  0  0  0  0  0  0  0  0  0  0
    9.2189  -17.8388   21.7014 O   0  0  0  0  0  0  0  0  0  0  0  0
   11.0827  -16.7493   20.8199 N   0  0  0  0  0  0  0  0  0  0  0  0
   11.9900  -17.1195   21.8838 C   0  0  1  0  0  0  0  0  0  0  0  0
   13.4164  -16.8549   21.5528 C   0  0  0  0  0  0  0  0  0  0  0  0
   14.2659  -17.3244   22.6678 C   0  0  0  0  0  0  0  0  0  0  0  0
   14.8485  -16.5032   23.4534 O   0  0  0  0  0  0  0  0  0  0  0  0
   11.5459  -16.4611   23.1357 C   0  0  0  0  0  0  0  0  0  0  0  0
   11.5597  -15.2202   23.2796 O   0  0  0  0  0  0  0  0  0  0  0  0
   14.4876  -18.6609   22.9366 O   0  0  0  0  0  0  0  0  0  0  0  0
    5.4494  -12.7692   26.8536 N   0  0  0  0  0  0  0  0  0  0  0  0
    6.4007  -12.3945   25.8743 C   0  0  0  0  0  0  0  0  0  0  0  0
    6.4880  -11.1390   25.5154 N   0  0  0  0  0  0  0  0  0  0  0  0
    7.2377  -13.3862   25.3046 N   0  0  0  0  0  0  0  0  0  0  0  0
    7.0260  -14.7692   25.5852 C   0  0  0  0  0  0  0  0  0  0  0  0
    8.2681  -15.4898   26.0190 C   0  0  0  0  0  0  0  0  0  0  0  0
    9.0532  -16.0259   24.8379 C   0  0  0  0  0  0  0  0  0  0  0  0
   10.3366  -16.6936   25.3066 C   0  0  2  0  0  0  0  0  0  0  0  0
   11.0884  -17.2609   24.2102 N   0  0  0  0  0  0  0  0  0  0  0  0
   10.0519  -17.7725   26.2843 C   0  0  0  0  0  0  0  0  0  0  0  0
   10.0499  -17.4519   27.6319 O   0  0  0  0  0  0  0  0  0  0  0  0
    9.8178  -18.9523   25.8938 O   0  0  0  0  0  0  0  0  0  0  0  0
  2  1  1  0
  3  2  1  0
  4  5  1  0
  4  3  1  0
  5  6  1  1
  7  9  1  0
  7  5  1  0
  8  7  2  0
 10  9  1  0
 10 11  1  6
 12 16  1  0
 12 11  1  0
 13 12  2  0
 14 15  2  0
 14 10  1  0
 17 18  1  0
 18 19  2  0
 20 18  1  0
 20 21  1  0
 22 21  1  0
 22 23  1  0
 24 23  1  6
 24 25  1  0
 25 14  1  0
 26 24  1  0
 27 26  1  0
 28 26  2  0
M  END
$$$$
