MDR.pdb
     RDKit          3D

 28 27  0  0  1  0  0  0  0  0999 V2000
    8.1628  -12.0145   20.5892 C   0  0  0  0  0  0  0  0  0  0  0  0
    7.9483  -12.2350   18.8183 S   0  0  0  0  0  0  0  0  0  0  0  0
    8.0314  -14.0049   18.4400 C   0  0  0  0  0  0  0  0  0  0  0  0
    8.8328  -14.6863   19.5199 C   0  0  0  0  0  0  0  0  0  0  0  0
    9.1250  -16.1242   19.2499 C   0  0  2  0  0  0  0  0  0  0  0  0
    7.9060  -16.8607   18.9221 N   0  0  0  0  0  0  0  0  0  0  0  0
    9.8231  -16.8408   20.3245 C   0  0  0  0  0  0  0  0  0  0  0  0
    9.1182  -17.4787   21.1720 O   0  0  0  0  0  0  0  0  0  0  0  0
   11.2230  -16.8220   20.4131 N   0  0  0  0  0  0  0  0  0  0  0  0
   11.9503  -17.3378   21.5520 C   0  0  1  0  0  0  0  0  0  0  0  0
   13.4253  -17.3271   21.3560 C   0  0  0  0  0  0  0  0  0  0  0  0
   14.0771  -17.8702   22.5666 C   0  0  0  0  0  0  0  0  0  0  0  0
   13.7540  -19.0101   23.0431 O   0  0  0  0  0  0  0  0  0  0  0  0
   11.5137  -16.6046   22.7644 C   0  0  0  0  0  0  0  0  0  0  0  0
   11.8439  -15.4201   22.9844 O   0  0  0  0  0  0  0  0  0  0  0  0
   15.0649  -17.1969   23.2582 O   0  0  0  0  0  0  0  0  0  0  0  0
    6.7159  -13.5179   27.6114 N   0  0  0  0  0  0  0  0  0  0  0  0
    6.5824  -12.6315   26.5156 C   0  0  0  0  0  0  0  0  0  0  0  0
    6.3605  -11.3620   26.7435 N   0  0  0  0  0  0  0  0  0  0  0  0
    6.6926  -13.1375   25.1963 N   0  0  0  0  0  0  0  0  0  0  0  0
    6.9920  -14.5135   24.9649 C   0  0  0  0  0  0  0  0  0  0  0  0
    8.4508  -14.8390   25.0914 C   0  0  0  0  0  0  0  0  0  0  0  0
    8.7264  -16.3090   24.8420 C   0  0  0  0  0  0  0  0  0  0  0  0
   10.2197  -16.5908   24.8986 C   0  0  2  0  0  0  0  0  0  0  0  0
   10.6932  -17.2643   23.7105 N   0  0  0  0  0  0  0  0  0  0  0  0
   10.5621  -17.4261   26.0758 C   0  0  0  0  0  0  0  0  0  0  0  0
   11.0520  -18.7026   25.8534 O   0  0  0  0  0  0  0  0  0  0  0  0
   10.4095  -16.9810   27.2496 O   0  0  0  0  0  0  0  0  0  0  0  0
  2  1  1  0
  3  2  1  0
  4  5  1  0
  4  3  1  0
  5  6  1  1
  7  9  1  0
  7  5  1  0
  8  7  2  0
 10  9  1  0
 10 11  1  6
 12 16  1  0
 12 11  1  0
 13 12  2  0
 14 15  2  0
 14 10  1  0
 17 18  1  0
 18 19  2  0
 20 18  1  0
 20 21  1  0
 22 21  1  0
 22 23  1  0
 24 23  1  6
 24 25  1  0
 25 14  1  0
 26 24  1  0
 27 26  1  0
 28 26  2  0
M  END
$$$$
