MDR.pdb
     RDKit          3D

 28 27  0  0  1  0  0  0  0  0999 V2000
    7.0160  -12.9300   20.6012 C   0  0  0  0  0  0  0  0  0  0  0  0
    8.0171  -12.9722   19.1090 S   0  0  0  0  0  0  0  0  0  0  0  0
    7.9188  -14.6329   18.3916 C   0  0  0  0  0  0  0  0  0  0  0  0
    8.4252  -15.6230   19.4095 C   0  0  0  0  0  0  0  0  0  0  0  0
    9.6712  -15.1966   20.1106 C   0  0  2  0  0  0  0  0  0  0  0  0
   10.7448  -14.9149   19.1599 N   0  0  0  0  0  0  0  0  0  0  0  0
   10.1813  -16.1328   21.1199 C   0  0  0  0  0  0  0  0  0  0  0  0
    9.3474  -16.6419   21.9369 O   0  0  0  0  0  0  0  0  0  0  0  0
   11.5453  -16.4551   21.1808 N   0  0  0  0  0  0  0  0  0  0  0  0
   12.0793  -17.4710   22.0611 C   0  0  1  0  0  0  0  0  0  0  0  0
   13.5158  -17.7656   21.8085 C   0  0  0  0  0  0  0  0  0  0  0  0
   13.6480  -18.4339   20.4964 C   0  0  0  0  0  0  0  0  0  0  0  0
   12.7802  -19.2766   20.0872 O   0  0  0  0  0  0  0  0  0  0  0  0
   11.7980  -17.0786   23.4628 C   0  0  0  0  0  0  0  0  0  0  0  0
   12.3755  -16.1196   24.0172 O   0  0  0  0  0  0  0  0  0  0  0  0
   14.7004  -18.2001   19.6331 O   0  0  0  0  0  0  0  0  0  0  0  0
    5.4218  -18.4286   22.6296 N   0  0  0  0  0  0  0  0  0  0  0  0
    5.7609  -17.0600   22.7576 C   0  0  0  0  0  0  0  0  0  0  0  0
    5.8925  -16.3305   21.6791 N   0  0  0  0  0  0  0  0  0  0  0  0
    5.9498  -16.5098   24.0499 N   0  0  0  0  0  0  0  0  0  0  0  0
    6.7661  -17.1739   25.0138 C   0  0  0  0  0  0  0  0  0  0  0  0
    8.2363  -16.9698   24.7968 C   0  0  0  0  0  0  0  0  0  0  0  0
    9.0644  -17.6060   25.8961 C   0  0  0  0  0  0  0  0  0  0  0  0
   10.5482  -17.4908   25.5835 C   0  0  2  0  0  0  0  0  0  0  0  0
   10.8420  -17.8123   24.2053 N   0  0  0  0  0  0  0  0  0  0  0  0
   11.3491  -18.3877   26.4524 C   0  0  0  0  0  0  0  0  0  0  0  0
   11.3281  -18.1660   27.8196 O   0  0  0  0  0  0  0  0  0  0  0  0
   12.0315  -19.3287   25.9543 O   0  0  0  0  0  0  0  0  0  0  0  0
  2  1  1  0
  3  2  1  0
  4  5  1  0
  4  3  1  0
  5  6  1  6
  7  9  1  0
  7  5  1  0
  8  7  2  0
 10  9  1  0
 10 11  1  1
 12 16  1  0
 12 11  1  0
 13 12  2  0
 14 15  2  0
 14 10  1  0
 17 18  1  0
 18 19  2  0
 20 18  1  0
 20 21  1  0
 22 21  1  0
 22 23  1  0
 24 23  1  6
 24 25  1  0
 25 14  1  0
 26 24  1  0
 27 26  1  0
 28 26  2  0
M  END
$$$$
