MDR.pdb
     RDKit          3D

 28 27  0  0  1  0  0  0  0  0999 V2000
    8.1331  -11.2991   20.3199 C   0  0  0  0  0  0  0  0  0  0  0  0
    7.8613  -12.7863   19.3478 S   0  0  0  0  0  0  0  0  0  0  0  0
    8.1603  -14.2300   20.4008 C   0  0  0  0  0  0  0  0  0  0  0  0
    7.8264  -15.4718   19.6138 C   0  0  0  0  0  0  0  0  0  0  0  0
    8.1143  -16.7473   20.3320 C   0  0  2  0  0  0  0  0  0  0  0  0
    7.5852  -16.7202   21.6940 N   0  0  0  0  0  0  0  0  0  0  0  0
    9.5295  -17.1335   20.3935 C   0  0  0  0  0  0  0  0  0  0  0  0
   10.0069  -17.8060   19.4229 O   0  0  0  0  0  0  0  0  0  0  0  0
   10.3290  -16.7719   21.4880 N   0  0  0  0  0  0  0  0  0  0  0  0
   11.7468  -17.0492   21.5574 C   0  0  1  0  0  0  0  0  0  0  0  0
   12.5814  -15.9780   20.9490 C   0  0  0  0  0  0  0  0  0  0  0  0
   13.2168  -16.5002   19.7206 C   0  0  0  0  0  0  0  0  0  0  0  0
   13.2610  -17.7524   19.4736 O   0  0  0  0  0  0  0  0  0  0  0  0
   12.1036  -17.3427   22.9661 C   0  0  0  0  0  0  0  0  0  0  0  0
   11.8331  -16.5598   23.9013 O   0  0  0  0  0  0  0  0  0  0  0  0
   13.7986  -15.6872   18.7677 O   0  0  0  0  0  0  0  0  0  0  0  0
    9.0163  -23.3681   23.4284 N   0  0  0  0  0  0  0  0  0  0  0  0
    9.2345  -22.1847   22.6825 C   0  0  0  0  0  0  0  0  0  0  0  0
    8.4290  -21.8954   21.6924 N   0  0  0  0  0  0  0  0  0  0  0  0
   10.3194  -21.3392   23.0241 N   0  0  0  0  0  0  0  0  0  0  0  0
   11.4118  -21.8307   23.7996 C   0  0  0  0  0  0  0  0  0  0  0  0
   11.7638  -20.9524   24.9636 C   0  0  0  0  0  0  0  0  0  0  0  0
   13.1703  -20.3978   24.8493 C   0  0  0  0  0  0  0  0  0  0  0  0
   13.1363  -18.8939   24.6266 C   0  0  2  0  0  0  0  0  0  0  0  0
   12.7748  -18.5514   23.2696 N   0  0  0  0  0  0  0  0  0  0  0  0
   14.4521  -18.2786   24.9280 C   0  0  0  0  0  0  0  0  0  0  0  0
   15.1223  -17.6299   23.9038 O   0  0  0  0  0  0  0  0  0  0  0  0
   14.9455  -18.3466   26.0904 O   0  0  0  0  0  0  0  0  0  0  0  0
  2  1  1  0
  3  2  1  0
  4  5  1  0
  4  3  1  0
  5  6  1  1
  7  9  1  0
  7  5  1  0
  8  7  2  0
 10  9  1  0
 10 11  1  1
 12 16  1  0
 12 11  1  0
 13 12  2  0
 14 15  2  0
 14 10  1  0
 17 18  1  0
 18 19  2  0
 20 18  1  0
 20 21  1  0
 22 21  1  0
 22 23  1  0
 24 23  1  6
 24 25  1  0
 25 14  1  0
 26 24  1  0
 27 26  1  0
 28 26  2  0
M  END
$$$$
