MDR.pdb
     RDKit          3D

 28 27  0  0  1  0  0  0  0  0999 V2000
    8.7611  -12.6052   21.0924 C   0  0  0  0  0  0  0  0  0  0  0  0
    7.4428  -12.8087   19.8875 S   0  0  0  0  0  0  0  0  0  0  0  0
    7.4756  -14.5132   19.2744 C   0  0  0  0  0  0  0  0  0  0  0  0
    8.7735  -14.7305   18.5386 C   0  0  0  0  0  0  0  0  0  0  0  0
    9.0102  -16.1427   18.1195 C   0  0  2  0  0  0  0  0  0  0  0  0
    7.7516  -16.8712   17.9753 N   0  0  0  0  0  0  0  0  0  0  0  0
    9.8978  -16.9214   18.9920 C   0  0  0  0  0  0  0  0  0  0  0  0
    9.3632  -17.7339   19.8144 O   0  0  0  0  0  0  0  0  0  0  0  0
   11.2909  -16.7736   18.9204 N   0  0  0  0  0  0  0  0  0  0  0  0
   12.2102  -17.5383   19.7344 C   0  0  1  0  0  0  0  0  0  0  0  0
   13.3957  -18.0231   18.9770 C   0  0  0  0  0  0  0  0  0  0  0  0
   13.1964  -19.4455   18.6271 C   0  0  0  0  0  0  0  0  0  0  0  0
   12.0812  -20.0327   18.8333 O   0  0  0  0  0  0  0  0  0  0  0  0
   12.5648  -16.7358   20.9295 C   0  0  0  0  0  0  0  0  0  0  0  0
   13.3174  -15.7407   20.8673 O   0  0  0  0  0  0  0  0  0  0  0  0
   14.1834  -20.2291   18.0620 O   0  0  0  0  0  0  0  0  0  0  0  0
    8.9308  -14.9873   28.3810 N   0  0  0  0  0  0  0  0  0  0  0  0
   10.2755  -14.8348   28.7969 C   0  0  0  0  0  0  0  0  0  0  0  0
   10.5536  -14.0045   29.7696 N   0  0  0  0  0  0  0  0  0  0  0  0
   11.2907  -15.5844   28.1519 N   0  0  0  0  0  0  0  0  0  0  0  0
   11.0023  -16.3475   26.9810 C   0  0  0  0  0  0  0  0  0  0  0  0
   11.8883  -16.0167   25.8166 C   0  0  0  0  0  0  0  0  0  0  0  0
   11.4906  -16.7796   24.5681 C   0  0  0  0  0  0  0  0  0  0  0  0
   12.3578  -16.3664   23.3892 C   0  0  2  0  0  0  0  0  0  0  0  0
   12.0351  -17.1048   22.1892 N   0  0  0  0  0  0  0  0  0  0  0  0
   13.7970  -16.5676   23.6875 C   0  0  0  0  0  0  0  0  0  0  0  0
   14.5231  -15.4911   24.1700 O   0  0  0  0  0  0  0  0  0  0  0  0
   14.3430  -17.6937   23.5049 O   0  0  0  0  0  0  0  0  0  0  0  0
  2  1  1  0
  3  2  1  0
  4  5  1  0
  4  3  1  0
  5  6  1  1
  7  9  1  0
  7  5  1  0
  8  7  2  0
 10  9  1  0
 10 11  1  6
 12 16  1  0
 12 11  1  0
 13 12  2  0
 14 15  2  0
 14 10  1  0
 17 18  1  0
 18 19  2  0
 20 18  1  0
 20 21  1  0
 22 21  1  0
 22 23  1  0
 24 23  1  1
 24 25  1  0
 25 14  1  0
 26 24  1  0
 27 26  1  0
 28 26  2  0
M  END
$$$$
