MDR.pdb
     RDKit          3D

 28 27  0  0  1  0  0  0  0  0999 V2000
    7.9418  -11.6597   20.4169 C   0  0  0  0  0  0  0  0  0  0  0  0
    7.4375  -12.8554   19.1732 S   0  0  0  0  0  0  0  0  0  0  0  0
    8.8228  -13.9781   18.8528 C   0  0  0  0  0  0  0  0  0  0  0  0
    9.9605  -13.6056   19.7693 C   0  0  0  0  0  0  0  0  0  0  0  0
   11.1590  -14.4854   19.6456 C   0  0  2  0  0  0  0  0  0  0  0  0
   11.4420  -14.8028   18.2474 N   0  0  0  0  0  0  0  0  0  0  0  0
   11.1025  -15.7420   20.4026 C   0  0  0  0  0  0  0  0  0  0  0  0
   10.2333  -15.8423   21.3282 O   0  0  0  0  0  0  0  0  0  0  0  0
   11.9794  -16.7982   20.1138 N   0  0  0  0  0  0  0  0  0  0  0  0
   12.0621  -17.9992   20.9156 C   0  0  1  0  0  0  0  0  0  0  0  0
   13.1911  -18.8858   20.5239 C   0  0  0  0  0  0  0  0  0  0  0  0
   13.1626  -20.1028   21.3626 C   0  0  0  0  0  0  0  0  0  0  0  0
   12.1341  -20.8586   21.4058 O   0  0  0  0  0  0  0  0  0  0  0  0
   12.0882  -17.6125   22.3466 C   0  0  0  0  0  0  0  0  0  0  0  0
   12.7514  -16.6397   22.7641 O   0  0  0  0  0  0  0  0  0  0  0  0
   14.2265  -20.5042   22.1464 O   0  0  0  0  0  0  0  0  0  0  0  0
   10.5887  -15.4919   29.1630 N   0  0  0  0  0  0  0  0  0  0  0  0
   10.0357  -14.4262   28.4127 C   0  0  0  0  0  0  0  0  0  0  0  0
   10.4557  -13.2059   28.6302 N   0  0  0  0  0  0  0  0  0  0  0  0
    9.0405  -14.7035   27.4426 N   0  0  0  0  0  0  0  0  0  0  0  0
    9.0736  -15.9145   26.6884 C   0  0  0  0  0  0  0  0  0  0  0  0
    9.8118  -15.7910   25.3884 C   0  0  0  0  0  0  0  0  0  0  0  0
    9.6925  -17.0475   24.5482 C   0  0  0  0  0  0  0  0  0  0  0  0
   10.9920  -17.8367   24.5776 C   0  0  2  0  0  0  0  0  0  0  0  0
   11.3371  -18.3681   23.2785 N   0  0  0  0  0  0  0  0  0  0  0  0
   10.9106  -18.9657   25.5365 C   0  0  0  0  0  0  0  0  0  0  0  0
   10.9048  -18.6759   26.8911 O   0  0  0  0  0  0  0  0  0  0  0  0
   10.8482  -20.1596   25.1243 O   0  0  0  0  0  0  0  0  0  0  0  0
  2  1  1  0
  3  2  1  0
  4  5  1  0
  4  3  1  0
  5  6  1  6
  7  9  1  0
  7  5  1  0
  8  7  2  0
 10  9  1  0
 10 11  1  6
 12 16  1  0
 12 11  1  0
 13 12  2  0
 14 15  2  0
 14 10  1  0
 17 18  1  0
 18 19  2  0
 20 18  1  0
 20 21  1  0
 22 21  1  0
 22 23  1  0
 24 23  1  6
 24 25  1  0
 25 14  1  0
 26 24  1  0
 27 26  1  0
 28 26  2  0
M  END
$$$$
