FGS.pdb
     RDKit          3D

 22 22  0  0  1  0  0  0  0  0999 V2000
   22.7842  -10.3906  -19.7456 N   0  0  0  0  0  0  0  0  0  0  0  0
   21.8447   -9.4648  -19.1434 C   0  0  1  0  0  0  0  0  0  0  0  0
   20.9493  -10.1176  -18.1437 C   0  0  0  0  0  0  0  0  0  0  0  0
   20.1680  -11.2474  -18.7155 C   0  0  0  0  0  0  0  0  0  0  0  0
   19.0476  -10.9332  -19.4594 C   0  0  0  0  0  0  0  0  0  0  0  0
   18.2637  -11.9313  -20.0253 C   0  0  0  0  0  0  0  0  0  0  0  0
   18.6303  -13.2451  -19.8269 C   0  0  0  0  0  0  0  0  0  0  0  0
   19.7457  -13.5691  -19.0868 C   0  0  0  0  0  0  0  0  0  0  0  0
   20.4953  -12.5530  -18.5434 C   0  0  0  0  0  0  0  0  0  0  0  0
   22.5796   -8.3633  -18.5182 C   0  0  0  0  0  0  0  0  0  0  0  0
   23.7595   -8.5220  -18.0806 O   0  0  0  0  0  0  0  0  0  0  0  0
   22.0160   -7.0626  -18.3675 N   0  0  0  0  0  0  0  0  0  0  0  0
   22.7297   -5.9421  -17.8434 C   0  0  0  0  0  0  0  0  0  0  0  0
   21.8620   -4.7248  -17.7648 C   0  0  0  0  0  0  0  0  0  0  0  0
   21.4231   -4.2258  -18.8296 O   0  0  0  0  0  0  0  0  0  0  0  0
   18.3109   -2.4147  -16.9850 O   0  0  0  0  0  0  0  0  0  0  0  0
   19.2838   -3.3640  -17.1796 C   0  0  0  0  0  0  0  0  0  0  0  0
   20.5809   -3.0437  -16.4513 C   0  0  2  0  0  0  0  0  0  0  0  0
   21.5229   -4.1214  -16.5301 N   0  0  0  0  0  0  0  0  0  0  0  0
   20.3256   -2.5963  -15.0660 C   0  0  0  0  0  0  0  0  0  0  0  0
   20.8371   -3.3638  -14.0294 O   0  0  0  0  0  0  0  0  0  0  0  0
   19.6752   -1.5656  -14.7629 O   0  0  0  0  0  0  0  0  0  0  0  0
  2  1  1  1
  3  2  1  0
  3  4  1  0
  4  5  2  0
  5  6  1  0
  7  6  2  0
  8  7  1  0
  9  4  1  0
  9  8  2  0
 10  2  1  0
 10 12  1  0
 11 10  2  0
 13 12  1  0
 13 14  1  0
 14 19  1  0
 15 14  2  0
 16 17  1  0
 18 20  1  0
 18 17  1  1
 19 18  1  0
 20 21  1  0
 22 20  2  0
M  END
$$$$
