FGS.pdb
     RDKit          3D

 22 22  0  0  1  0  0  0  0  0999 V2000
   25.4694  -20.4754   -6.5145 N   0  0  0  0  0  0  0  0  0  0  0  0
   26.4229  -20.3201   -7.5958 C   0  0  1  0  0  0  0  0  0  0  0  0
   27.7994  -20.7579   -7.2207 C   0  0  0  0  0  0  0  0  0  0  0  0
   28.2803  -20.1393   -5.9559 C   0  0  0  0  0  0  0  0  0  0  0  0
   28.3853  -18.7627   -5.9214 C   0  0  0  0  0  0  0  0  0  0  0  0
   28.8286  -18.1091   -4.7780 C   0  0  0  0  0  0  0  0  0  0  0  0
   29.1619  -18.8676   -3.6764 C   0  0  0  0  0  0  0  0  0  0  0  0
   29.0607  -20.2409   -3.7004 C   0  0  0  0  0  0  0  0  0  0  0  0
   28.6181  -20.8501   -4.8504 C   0  0  0  0  0  0  0  0  0  0  0  0
   25.9577  -21.0673   -8.7661 C   0  0  0  0  0  0  0  0  0  0  0  0
   25.4050  -22.2027   -8.6468 O   0  0  0  0  0  0  0  0  0  0  0  0
   26.0983  -20.5656  -10.0930 N   0  0  0  0  0  0  0  0  0  0  0  0
   25.8734  -21.3471  -11.2670 C   0  0  0  0  0  0  0  0  0  0  0  0
   25.9994  -20.5222  -12.5098 C   0  0  0  0  0  0  0  0  0  0  0  0
   27.0902  -19.9477  -12.7457 O   0  0  0  0  0  0  0  0  0  0  0  0
   25.7273  -21.9441  -15.6839 O   0  0  0  0  0  0  0  0  0  0  0  0
   26.0996  -20.6281  -15.5624 C   0  0  0  0  0  0  0  0  0  0  0  0
   25.1255  -19.8093  -14.7280 C   0  0  2  0  0  0  0  0  0  0  0  0
   24.9293  -20.3711  -13.4238 N   0  0  0  0  0  0  0  0  0  0  0  0
   23.8602  -19.5719  -15.4540 C   0  0  0  0  0  0  0  0  0  0  0  0
   23.9268  -18.9451  -16.6901 O   0  0  0  0  0  0  0  0  0  0  0  0
   22.7259  -19.9001  -15.0265 O   0  0  0  0  0  0  0  0  0  0  0  0
  2  1  1  1
  3  2  1  0
  3  4  1  0
  4  5  2  0
  5  6  1  0
  7  6  2  0
  8  7  1  0
  9  4  1  0
  9  8  2  0
 10  2  1  0
 10 12  1  0
 11 10  2  0
 13 12  1  0
 13 14  1  0
 14 19  1  0
 15 14  2  0
 16 17  1  0
 18 20  1  0
 18 17  1  6
 19 18  1  0
 20 21  1  0
 22 20  2  0
M  END
$$$$
