FGS.pdb
     RDKit          3D

 22 22  0  0  1  0  0  0  0  0999 V2000
   25.3819  -19.4043   -9.8030 N   0  0  0  0  0  0  0  0  0  0  0  0
   26.2232  -20.5435  -10.1143 C   0  0  1  0  0  0  0  0  0  0  0  0
   26.5970  -21.3342   -8.9051 C   0  0  0  0  0  0  0  0  0  0  0  0
   27.3950  -20.5508   -7.9238 C   0  0  0  0  0  0  0  0  0  0  0  0
   26.7073  -19.7043   -7.0765 C   0  0  0  0  0  0  0  0  0  0  0  0
   27.3803  -18.9370   -6.1335 C   0  0  0  0  0  0  0  0  0  0  0  0
   28.7529  -19.0401   -6.0625 C   0  0  0  0  0  0  0  0  0  0  0  0
   29.4482  -19.8812   -6.9026 C   0  0  0  0  0  0  0  0  0  0  0  0
   28.7462  -20.6237   -7.8221 C   0  0  0  0  0  0  0  0  0  0  0  0
   25.5416  -21.4008  -11.0863 C   0  0  0  0  0  0  0  0  0  0  0  0
   24.2808  -21.5383  -11.0746 O   0  0  0  0  0  0  0  0  0  0  0  0
   26.2499  -22.1224  -12.0911 N   0  0  0  0  0  0  0  0  0  0  0  0
   26.3656  -21.6915  -13.4478 C   0  0  0  0  0  0  0  0  0  0  0  0
   25.0226  -21.4916  -14.0782 C   0  0  0  0  0  0  0  0  0  0  0  0
   24.8827  -20.5752  -14.9244 O   0  0  0  0  0  0  0  0  0  0  0  0
   21.4058  -23.7189  -13.0408 O   0  0  0  0  0  0  0  0  0  0  0  0
   21.7703  -23.3576  -14.3144 C   0  0  0  0  0  0  0  0  0  0  0  0
   22.6253  -22.0995  -14.3537 C   0  0  2  0  0  0  0  0  0  0  0  0
   23.9096  -22.3021  -13.7499 N   0  0  0  0  0  0  0  0  0  0  0  0
   21.9004  -20.9369  -13.7994 C   0  0  0  0  0  0  0  0  0  0  0  0
   20.7521  -20.5137  -14.4533 O   0  0  0  0  0  0  0  0  0  0  0  0
   22.2544  -20.3044  -12.7738 O   0  0  0  0  0  0  0  0  0  0  0  0
  2  1  1  1
  3  2  1  0
  3  4  1  0
  4  5  2  0
  5  6  1  0
  7  6  2  0
  8  7  1  0
  9  4  1  0
  9  8  2  0
 10  2  1  0
 10 12  1  0
 11 10  2  0
 13 12  1  0
 13 14  1  0
 14 19  1  0
 15 14  2  0
 16 17  1  0
 18 20  1  0
 18 17  1  1
 19 18  1  0
 20 21  1  0
 22 20  2  0
M  END
$$$$
