FGS.pdb
     RDKit          3D

 22 22  0  0  1  0  0  0  0  0999 V2000
   26.3709  -22.0491  -12.9465 N   0  0  0  0  0  0  0  0  0  0  0  0
   25.9479  -20.6755  -13.1378 C   0  0  1  0  0  0  0  0  0  0  0  0
   26.3522  -19.7834  -12.0118 C   0  0  0  0  0  0  0  0  0  0  0  0
   25.8130  -20.2271  -10.6981 C   0  0  0  0  0  0  0  0  0  0  0  0
   24.4444  -20.1716  -10.5211 C   0  0  0  0  0  0  0  0  0  0  0  0
   23.8632  -20.5663   -9.3222 C   0  0  0  0  0  0  0  0  0  0  0  0
   24.6853  -21.0156   -8.3112 C   0  0  0  0  0  0  0  0  0  0  0  0
   26.0511  -21.0749   -8.4774 C   0  0  0  0  0  0  0  0  0  0  0  0
   26.5878  -20.6755   -9.6783 C   0  0  0  0  0  0  0  0  0  0  0  0
   26.4903  -20.1705  -14.4008 C   0  0  0  0  0  0  0  0  0  0  0  0
   27.6046  -20.5777  -14.8498 O   0  0  0  0  0  0  0  0  0  0  0  0
   25.8034  -19.2020  -15.1896 N   0  0  0  0  0  0  0  0  0  0  0  0
   26.3165  -18.6580  -16.4063 C   0  0  0  0  0  0  0  0  0  0  0  0
   25.2626  -18.5922  -17.4674 C   0  0  0  0  0  0  0  0  0  0  0  0
   25.5400  -18.0427  -18.5613 O   0  0  0  0  0  0  0  0  0  0  0  0
   21.5880  -20.3834  -19.7708 O   0  0  0  0  0  0  0  0  0  0  0  0
   22.5547  -20.4320  -18.7969 C   0  0  0  0  0  0  0  0  0  0  0  0
   22.9614  -19.0547  -18.2937 C   0  0  2  0  0  0  0  0  0  0  0  0
   23.9671  -19.1290  -17.2749 N   0  0  0  0  0  0  0  0  0  0  0  0
   21.7837  -18.2584  -17.8896 C   0  0  0  0  0  0  0  0  0  0  0  0
   20.8977  -17.8584  -18.8796 O   0  0  0  0  0  0  0  0  0  0  0  0
   21.5300  -17.9185  -16.7075 O   0  0  0  0  0  0  0  0  0  0  0  0
  2  1  1  1
  3  2  1  0
  3  4  1  0
  4  5  2  0
  5  6  1  0
  7  6  2  0
  8  7  1  0
  9  4  1  0
  9  8  2  0
 10  2  1  0
 10 12  1  0
 11 10  2  0
 13 12  1  0
 13 14  1  0
 14 19  1  0
 15 14  2  0
 16 17  1  0
 18 20  1  0
 18 17  1  1
 19 18  1  0
 20 21  1  0
 22 20  2  0
M  END
$$$$
