FGS.pdb
     RDKit          3D

 22 22  0  0  1  0  0  0  0  0999 V2000
   26.1635  -22.5577  -11.1296 N   0  0  0  0  0  0  0  0  0  0  0  0
   25.9495  -21.1548  -11.4270 C   0  0  1  0  0  0  0  0  0  0  0  0
   27.1551  -20.3164  -11.1608 C   0  0  0  0  0  0  0  0  0  0  0  0
   27.5932  -20.3654   -9.7397 C   0  0  0  0  0  0  0  0  0  0  0  0
   28.8231  -20.9343   -9.4730 C   0  0  0  0  0  0  0  0  0  0  0  0
   29.3027  -21.0198   -8.1715 C   0  0  0  0  0  0  0  0  0  0  0  0
   28.5215  -20.5228   -7.1505 C   0  0  0  0  0  0  0  0  0  0  0  0
   27.2938  -19.9535   -7.4058 C   0  0  0  0  0  0  0  0  0  0  0  0
   26.8544  -19.8876   -8.7067 C   0  0  0  0  0  0  0  0  0  0  0  0
   25.5341  -21.0111  -12.8238 C   0  0  0  0  0  0  0  0  0  0  0  0
   25.9140  -21.8323  -13.7127 O   0  0  0  0  0  0  0  0  0  0  0  0
   24.6874  -19.9503  -13.2595 N   0  0  0  0  0  0  0  0  0  0  0  0
   24.1069  -19.8796  -14.5624 C   0  0  0  0  0  0  0  0  0  0  0  0
   22.7268  -20.4590  -14.5823 C   0  0  0  0  0  0  0  0  0  0  0  0
   22.0811  -20.4451  -15.6586 O   0  0  0  0  0  0  0  0  0  0  0  0
   20.4721  -21.3022  -11.0623 O   0  0  0  0  0  0  0  0  0  0  0  0
   20.4088  -22.1757  -12.1199 C   0  0  0  0  0  0  0  0  0  0  0  0
   20.7916  -21.5332  -13.4451 C   0  0  2  0  0  0  0  0  0  0  0  0
   22.1300  -21.0200  -13.4280 N   0  0  0  0  0  0  0  0  0  0  0  0
   19.7911  -20.5309  -13.8678 C   0  0  0  0  0  0  0  0  0  0  0  0
   20.1403  -19.1902  -13.7909 O   0  0  0  0  0  0  0  0  0  0  0  0
   18.6432  -20.8114  -14.2930 O   0  0  0  0  0  0  0  0  0  0  0  0
  2  1  1  6
  3  2  1  0
  3  4  1  0
  4  5  2  0
  5  6  1  0
  7  6  2  0
  8  7  1  0
  9  4  1  0
  9  8  2  0
 10  2  1  0
 10 12  1  0
 11 10  2  0
 13 12  1  0
 13 14  1  0
 14 19  1  0
 15 14  2  0
 16 17  1  0
 18 20  1  0
 18 17  1  1
 19 18  1  0
 20 21  1  0
 22 20  2  0
M  END
$$$$
