FGS.pdb
     RDKit          3D

 22 22  0  0  1  0  0  0  0  0999 V2000
   25.0893  -11.3133  -15.6586 N   0  0  0  0  0  0  0  0  0  0  0  0
   23.6599  -11.2902  -15.4163 C   0  0  1  0  0  0  0  0  0  0  0  0
   23.1883  -12.4638  -14.6242 C   0  0  0  0  0  0  0  0  0  0  0  0
   23.4239  -13.7611  -15.3134 C   0  0  0  0  0  0  0  0  0  0  0  0
   24.2881  -14.6536  -14.7103 C   0  0  0  0  0  0  0  0  0  0  0  0
   24.5621  -15.8856  -15.2918 C   0  0  0  0  0  0  0  0  0  0  0  0
   23.9505  -16.1975  -16.4869 C   0  0  0  0  0  0  0  0  0  0  0  0
   23.0870  -15.3146  -17.0966 C   0  0  0  0  0  0  0  0  0  0  0  0
   22.8418  -14.1059  -16.4897 C   0  0  0  0  0  0  0  0  0  0  0  0
   23.3018  -10.0449  -14.7342 C   0  0  0  0  0  0  0  0  0  0  0  0
   23.9925   -9.6000  -13.7678 O   0  0  0  0  0  0  0  0  0  0  0  0
   22.1675   -9.2695  -15.1139 N   0  0  0  0  0  0  0  0  0  0  0  0
   21.8067   -8.0327  -14.4976 C   0  0  0  0  0  0  0  0  0  0  0  0
   20.5295   -7.4900  -15.0589 C   0  0  0  0  0  0  0  0  0  0  0  0
   20.0424   -8.0286  -16.0827 O   0  0  0  0  0  0  0  0  0  0  0  0
   16.7643   -4.4182  -14.5334 O   0  0  0  0  0  0  0  0  0  0  0  0
   17.9751   -4.8724  -14.0719 C   0  0  0  0  0  0  0  0  0  0  0  0
   18.6102   -5.9077  -14.9885 C   0  0  2  0  0  0  0  0  0  0  0  0
   19.8569   -6.3917  -14.4720 N   0  0  0  0  0  0  0  0  0  0  0  0
   18.7112   -5.4100  -16.3764 C   0  0  0  0  0  0  0  0  0  0  0  0
   17.6889   -5.7296  -17.2585 O   0  0  0  0  0  0  0  0  0  0  0  0
   19.6624   -4.7155  -16.8126 O   0  0  0  0  0  0  0  0  0  0  0  0
  2  1  1  1
  3  2  1  0
  3  4  1  0
  4  5  2  0
  5  6  1  0
  7  6  2  0
  8  7  1  0
  9  4  1  0
  9  8  2  0
 10  2  1  0
 10 12  1  0
 11 10  2  0
 13 12  1  0
 13 14  1  0
 14 19  1  0
 15 14  2  0
 16 17  1  0
 18 20  1  0
 18 17  1  1
 19 18  1  0
 20 21  1  0
 22 20  2  0
M  END
$$$$
