FGS.pdb
     RDKit          3D

 22 22  0  0  1  0  0  0  0  0999 V2000
   25.7432  -10.6921  -17.6035 N   0  0  0  0  0  0  0  0  0  0  0  0
   24.8666  -11.6758  -16.9982 C   0  0  1  0  0  0  0  0  0  0  0  0
   25.4660  -12.3217  -15.7937 C   0  0  0  0  0  0  0  0  0  0  0  0
   26.7912  -12.9407  -16.0666 C   0  0  0  0  0  0  0  0  0  0  0  0
   26.7998  -14.2030  -16.6270 C   0  0  0  0  0  0  0  0  0  0  0  0
   27.9966  -14.8500  -16.9102 C   0  0  0  0  0  0  0  0  0  0  0  0
   29.1777  -14.2020  -16.6185 C   0  0  0  0  0  0  0  0  0  0  0  0
   29.1800  -12.9432  -16.0598 C   0  0  0  0  0  0  0  0  0  0  0  0
   27.9753  -12.3366  -15.7945 C   0  0  0  0  0  0  0  0  0  0  0  0
   23.5926  -11.0436  -16.6497 C   0  0  0  0  0  0  0  0  0  0  0  0
   22.6073  -11.7282  -16.2381 O   0  0  0  0  0  0  0  0  0  0  0  0
   23.3896   -9.6363  -16.7521 N   0  0  0  0  0  0  0  0  0  0  0  0
   22.1668   -8.9820  -16.4109 C   0  0  0  0  0  0  0  0  0  0  0  0
   22.4018   -7.5696  -15.9738 C   0  0  0  0  0  0  0  0  0  0  0  0
   23.5820   -7.1497  -15.8956 O   0  0  0  0  0  0  0  0  0  0  0  0
   19.2230   -4.9223  -14.8802 O   0  0  0  0  0  0  0  0  0  0  0  0
   20.3263   -4.4648  -15.5576 C   0  0  0  0  0  0  0  0  0  0  0  0
   21.5639   -5.3186  -15.3233 C   0  0  2  0  0  0  0  0  0  0  0  0
   21.3367   -6.6965  -15.6471 N   0  0  0  0  0  0  0  0  0  0  0  0
   22.1038   -5.1239  -13.9613 C   0  0  0  0  0  0  0  0  0  0  0  0
   22.6357   -3.8825  -13.6433 O   0  0  0  0  0  0  0  0  0  0  0  0
   22.1137   -6.0086  -13.0700 O   0  0  0  0  0  0  0  0  0  0  0  0
  2  1  1  1
  3  2  1  0
  3  4  1  0
  4  5  2  0
  5  6  1  0
  7  6  2  0
  8  7  1  0
  9  4  1  0
  9  8  2  0
 10  2  1  0
 10 12  1  0
 11 10  2  0
 13 12  1  0
 13 14  1  0
 14 19  1  0
 15 14  2  0
 16 17  1  0
 18 20  1  0
 18 17  1  1
 19 18  1  0
 20 21  1  0
 22 20  2  0
M  END
$$$$
