FGS.pdb
     RDKit          3D

 22 22  0  0  1  0  0  0  0  0999 V2000
   25.6879  -21.8112  -10.6423 N   0  0  0  0  0  0  0  0  0  0  0  0
   26.3241  -20.6296  -11.1913 C   0  0  1  0  0  0  0  0  0  0  0  0
   27.7347  -20.4657  -10.7321 C   0  0  0  0  0  0  0  0  0  0  0  0
   27.8497  -20.3075   -9.2572 C   0  0  0  0  0  0  0  0  0  0  0  0
   27.0248  -19.3805   -8.6511 C   0  0  0  0  0  0  0  0  0  0  0  0
   27.0731  -19.1721   -7.2780 C   0  0  0  0  0  0  0  0  0  0  0  0
   27.9648  -19.9133   -6.5329 C   0  0  0  0  0  0  0  0  0  0  0  0
   28.7917  -20.8403   -7.1276 C   0  0  0  0  0  0  0  0  0  0  0  0
   28.7139  -21.0172   -8.4886 C   0  0  0  0  0  0  0  0  0  0  0  0
   26.2733  -20.6843  -12.6538 C   0  0  0  0  0  0  0  0  0  0  0  0
   26.1791  -21.7892  -13.2696 O   0  0  0  0  0  0  0  0  0  0  0  0
   26.3263  -19.5102  -13.4604 N   0  0  0  0  0  0  0  0  0  0  0  0
   26.1000  -19.5028  -14.8705 C   0  0  0  0  0  0  0  0  0  0  0  0
   24.7885  -20.1338  -15.2208 C   0  0  0  0  0  0  0  0  0  0  0  0
   24.4227  -20.1404  -16.4215 O   0  0  0  0  0  0  0  0  0  0  0  0
   22.9792  -23.5031  -13.7472 O   0  0  0  0  0  0  0  0  0  0  0  0
   22.2362  -22.3560  -13.6140 C   0  0  0  0  0  0  0  0  0  0  0  0
   22.6636  -21.2561  -14.5747 C   0  0  2  0  0  0  0  0  0  0  0  0
   23.9514  -20.7211  -14.2422 N   0  0  0  0  0  0  0  0  0  0  0  0
   21.6199  -20.2179  -14.7050 C   0  0  0  0  0  0  0  0  0  0  0  0
   21.6378  -19.1606  -13.8067 O   0  0  0  0  0  0  0  0  0  0  0  0
   20.7154  -20.2280  -15.5763 O   0  0  0  0  0  0  0  0  0  0  0  0
  2  1  1  1
  3  2  1  0
  3  4  1  0
  4  5  2  0
  5  6  1  0
  7  6  2  0
  8  7  1  0
  9  4  1  0
  9  8  2  0
 10  2  1  0
 10 12  1  0
 11 10  2  0
 13 12  1  0
 13 14  1  0
 14 19  1  0
 15 14  2  0
 16 17  1  0
 18 20  1  0
 18 17  1  1
 19 18  1  0
 20 21  1  0
 22 20  2  0
M  END
$$$$
