FGS.pdb
     RDKit          3D

 22 22  0  0  1  0  0  0  0  0999 V2000
   25.7136  -21.3567   -7.3214 N   0  0  0  0  0  0  0  0  0  0  0  0
   26.4599  -20.5009   -8.2231 C   0  0  1  0  0  0  0  0  0  0  0  0
   27.8884  -20.3426   -7.8211 C   0  0  0  0  0  0  0  0  0  0  0  0
   28.0487  -19.9295   -6.4008 C   0  0  0  0  0  0  0  0  0  0  0  0
   27.8059  -18.6053   -6.0927 C   0  0  0  0  0  0  0  0  0  0  0  0
   27.9358  -18.1403   -4.7897 C   0  0  0  0  0  0  0  0  0  0  0  0
   28.3134  -19.0325   -3.8093 C   0  0  0  0  0  0  0  0  0  0  0  0
   28.5578  -20.3550   -4.1060 C   0  0  0  0  0  0  0  0  0  0  0  0
   28.4184  -20.7762   -5.4070 C   0  0  0  0  0  0  0  0  0  0  0  0
   26.3755  -21.0361   -9.5836 C   0  0  0  0  0  0  0  0  0  0  0  0
   27.1961  -21.9085  -10.0012 O   0  0  0  0  0  0  0  0  0  0  0  0
   25.3760  -20.6110  -10.5067 N   0  0  0  0  0  0  0  0  0  0  0  0
   25.5014  -20.7272  -11.9246 C   0  0  0  0  0  0  0  0  0  0  0  0
   24.3052  -20.1688  -12.6306 C   0  0  0  0  0  0  0  0  0  0  0  0
   24.1669  -18.9228  -12.6917 O   0  0  0  0  0  0  0  0  0  0  0  0
   21.1618  -22.7979  -13.7646 O   0  0  0  0  0  0  0  0  0  0  0  0
   21.1840  -21.5300  -14.2913 C   0  0  0  0  0  0  0  0  0  0  0  0
   21.9858  -20.5498  -13.4476 C   0  0  2  0  0  0  0  0  0  0  0  0
   23.3290  -21.0007  -13.2291 N   0  0  0  0  0  0  0  0  0  0  0  0
   21.2771  -20.2096  -12.1961 C   0  0  0  0  0  0  0  0  0  0  0  0
   20.1620  -19.3885  -12.2821 O   0  0  0  0  0  0  0  0  0  0  0  0
   21.6170  -20.6145  -11.0569 O   0  0  0  0  0  0  0  0  0  0  0  0
  2  1  1  1
  3  2  1  0
  3  4  1  0
  4  5  2  0
  5  6  1  0
  7  6  2  0
  8  7  1  0
  9  4  1  0
  9  8  2  0
 10  2  1  0
 10 12  1  0
 11 10  2  0
 13 12  1  0
 13 14  1  0
 14 19  1  0
 15 14  2  0
 16 17  1  0
 18 20  1  0
 18 17  1  1
 19 18  1  0
 20 21  1  0
 22 20  2  0
M  END
$$$$
