FGS.pdb
     RDKit          3D

 22 22  0  0  1  0  0  0  0  0999 V2000
   25.2730  -21.0683   -7.7635 N   0  0  0  0  0  0  0  0  0  0  0  0
   26.3127  -20.4937   -8.5949 C   0  0  1  0  0  0  0  0  0  0  0  0
   27.6864  -20.8387   -8.1245 C   0  0  0  0  0  0  0  0  0  0  0  0
   27.9993  -20.2738   -6.7842 C   0  0  0  0  0  0  0  0  0  0  0  0
   28.3777  -21.1590   -5.7938 C   0  0  0  0  0  0  0  0  0  0  0  0
   28.6843  -20.7105   -4.5148 C   0  0  0  0  0  0  0  0  0  0  0  0
   28.6021  -19.3591   -4.2562 C   0  0  0  0  0  0  0  0  0  0  0  0
   28.2259  -18.4681   -5.2366 C   0  0  0  0  0  0  0  0  0  0  0  0
   27.9306  -18.9511   -6.4893 C   0  0  0  0  0  0  0  0  0  0  0  0
   26.1284  -20.9347   -9.9791 C   0  0  0  0  0  0  0  0  0  0  0  0
   25.0415  -21.4632  -10.3638 O   0  0  0  0  0  0  0  0  0  0  0  0
   27.1504  -20.7961  -10.9632 N   0  0  0  0  0  0  0  0  0  0  0  0
   27.0263  -19.9820  -12.1300 C   0  0  0  0  0  0  0  0  0  0  0  0
   26.1063  -20.5995  -13.1366 C   0  0  0  0  0  0  0  0  0  0  0  0
   26.5915  -21.0467  -14.2043 O   0  0  0  0  0  0  0  0  0  0  0  0
   23.2660  -23.7038  -13.5354 O   0  0  0  0  0  0  0  0  0  0  0  0
   24.2334  -22.8449  -13.9957 C   0  0  0  0  0  0  0  0  0  0  0  0
   23.8508  -21.3804  -13.8403 C   0  0  2  0  0  0  0  0  0  0  0  0
   24.7105  -20.6938  -12.9213 N   0  0  0  0  0  0  0  0  0  0  0  0
   22.4166  -21.2288  -13.5171 C   0  0  0  0  0  0  0  0  0  0  0  0
   21.4891  -21.7002  -14.4351 O   0  0  0  0  0  0  0  0  0  0  0  0
   21.9795  -20.7006  -12.4649 O   0  0  0  0  0  0  0  0  0  0  0  0
  2  1  1  1
  3  2  1  0
  3  4  1  0
  4  5  2  0
  5  6  1  0
  7  6  2  0
  8  7  1  0
  9  4  1  0
  9  8  2  0
 10  2  1  0
 10 12  1  0
 11 10  2  0
 13 12  1  0
 13 14  1  0
 14 19  1  0
 15 14  2  0
 16 17  1  0
 18 20  1  0
 18 17  1  1
 19 18  1  0
 20 21  1  0
 22 20  2  0
M  END
$$$$
