FGS.pdb
     RDKit          3D

 22 22  0  0  1  0  0  0  0  0999 V2000
   27.1790  -21.7667  -11.5901 N   0  0  0  0  0  0  0  0  0  0  0  0
   26.1757  -20.7852  -11.9542 C   0  0  1  0  0  0  0  0  0  0  0  0
   26.0135  -19.7151  -10.9267 C   0  0  0  0  0  0  0  0  0  0  0  0
   25.7408  -20.2534   -9.5668 C   0  0  0  0  0  0  0  0  0  0  0  0
   24.4835  -20.7733   -9.3293 C   0  0  0  0  0  0  0  0  0  0  0  0
   24.1497  -21.2932   -8.0846 C   0  0  0  0  0  0  0  0  0  0  0  0
   25.1039  -21.2785   -7.0900 C   0  0  0  0  0  0  0  0  0  0  0  0
   26.3605  -20.7624   -7.3166 C   0  0  0  0  0  0  0  0  0  0  0  0
   26.6520  -20.2573   -8.5613 C   0  0  0  0  0  0  0  0  0  0  0  0
   26.5209  -20.1933  -13.2483 C   0  0  0  0  0  0  0  0  0  0  0  0
   27.6999  -19.7989  -13.4998 O   0  0  0  0  0  0  0  0  0  0  0  0
   25.5606  -20.0285  -14.2888 N   0  0  0  0  0  0  0  0  0  0  0  0
   25.8697  -19.5051  -15.5812 C   0  0  0  0  0  0  0  0  0  0  0  0
   24.6577  -19.4532  -16.4583 C   0  0  0  0  0  0  0  0  0  0  0  0
   23.5950  -19.9837  -16.0525 O   0  0  0  0  0  0  0  0  0  0  0  0
   22.8274  -16.5079  -17.6184 O   0  0  0  0  0  0  0  0  0  0  0  0
   22.4408  -17.8161  -17.7755 C   0  0  0  0  0  0  0  0  0  0  0  0
   23.4788  -18.6596  -18.5011 C   0  0  2  0  0  0  0  0  0  0  0  0
   24.6740  -18.8260  -17.7271 N   0  0  0  0  0  0  0  0  0  0  0  0
   23.7361  -18.1454  -19.8626 C   0  0  0  0  0  0  0  0  0  0  0  0
   22.6771  -18.1174  -20.7587 O   0  0  0  0  0  0  0  0  0  0  0  0
   24.8515  -17.7309  -20.2644 O   0  0  0  0  0  0  0  0  0  0  0  0
  2  1  1  1
  3  2  1  0
  3  4  1  0
  4  5  2  0
  5  6  1  0
  7  6  2  0
  8  7  1  0
  9  4  1  0
  9  8  2  0
 10  2  1  0
 10 12  1  0
 11 10  2  0
 13 12  1  0
 13 14  1  0
 14 19  1  0
 15 14  2  0
 16 17  1  0
 18 20  1  0
 18 17  1  1
 19 18  1  0
 20 21  1  0
 22 20  2  0
M  END
$$$$
