APW.pdb
     RDKit          3D

 27 29  0  0  1  0  0  0  0  0999 V2000
   25.8124  -22.2845  -16.9275 C   0  0  0  0  0  0  0  0  0  0  0  0
   27.2686  -21.8662  -16.7413 C   0  0  2  0  0  0  0  0  0  0  0  0
   28.0782  -22.9160  -17.2420 N   0  0  0  0  0  0  0  0  0  0  0  0
   27.4890  -21.4451  -15.3639 C   0  0  0  0  0  0  0  0  0  0  0  0
   27.9306  -22.3679  -14.5853 O   0  0  0  0  0  0  0  0  0  0  0  0
   27.2796  -20.1728  -14.7966 N   0  0  0  0  0  0  0  0  0  0  0  0
   26.6666  -18.9932  -15.3649 C   0  0  0  0  0  0  0  0  0  0  0  0
   27.6053  -17.8974  -14.8324 C   0  0  0  0  0  0  0  0  0  0  0  0
   27.6546  -18.2905  -13.3718 C   0  0  0  0  0  0  0  0  0  0  0  0
   27.6575  -19.7771  -13.4328 C   0  0  1  0  0  0  0  0  0  0  0  0
   26.7473  -20.4045  -12.4419 C   0  0  0  0  0  0  0  0  0  0  0  0
   25.5696  -20.6525  -12.8027 O   0  0  0  0  0  0  0  0  0  0  0  0
   27.1220  -20.7396  -11.1214 N   0  0  0  0  0  0  0  0  0  0  0  0
   26.2051  -21.4650  -10.2081 C   0  0  1  0  0  0  0  0  0  0  0  0
   26.9425  -21.7215   -8.9427 C   0  0  0  0  0  0  0  0  0  0  0  0
   27.0522  -20.5892   -8.0129 C   0  0  0  0  0  0  0  0  0  0  0  0
   26.4016  -19.3505   -8.1646 C   0  0  0  0  0  0  0  0  0  0  0  0
   26.7514  -18.5403   -7.1571 N   0  0  0  0  0  0  0  0  0  0  0  0
   27.6075  -19.1663   -6.3262 C   0  0  0  0  0  0  0  0  0  0  0  0
   28.2172  -18.7511   -5.1617 C   0  0  0  0  0  0  0  0  0  0  0  0
   29.0507  -19.6371   -4.4880 C   0  0  0  0  0  0  0  0  0  0  0  0
   29.2483  -20.9070   -4.9978 C   0  0  0  0  0  0  0  0  0  0  0  0
   28.6344  -21.3057   -6.1599 C   0  0  0  0  0  0  0  0  0  0  0  0
   27.7914  -20.4305   -6.8559 C   0  0  0  0  0  0  0  0  0  0  0  0
   24.9844  -20.6927  -10.0173 C   0  0  0  0  0  0  0  0  0  0  0  0
   23.8236  -21.3345   -9.5637 O   0  0  0  0  0  0  0  0  0  0  0  0
   24.8711  -19.4642  -10.2285 O   0  0  0  0  0  0  0  0  0  0  0  0
  2  4  1  0
  2  1  1  1
  3  2  1  0
  4  6  1  0
  5  4  2  0
  6  7  1  0
  6 10  1  0
  7  8  1  0
  9  8  1  0
 10  9  1  0
 11 13  1  0
 10 11  1  1
 12 11  2  0
 14 15  1  1
 14 13  1  0
 15 16  1  0
 16 17  2  0
 18 17  1  0
 19 18  1  0
 20 19  2  0
 21 20  1  0
 22 21  2  0
 22 23  1  0
 23 24  2  0
 24 19  1  0
 24 16  1  0
 25 14  1  0
 25 26  1  0
 27 25  2  0
M  END
$$$$
