APW.pdb
     RDKit          3D

 27 29  0  0  1  0  0  0  0  0999 V2000
   16.0500  -10.2335  -18.6490 C   0  0  0  0  0  0  0  0  0  0  0  0
   17.5750  -10.2457  -18.7163 C   0  0  2  0  0  0  0  0  0  0  0  0
   17.9955  -11.5891  -18.5534 N   0  0  0  0  0  0  0  0  0  0  0  0
   18.1177   -9.2547  -17.7961 C   0  0  0  0  0  0  0  0  0  0  0  0
   18.4865   -9.7252  -16.6580 O   0  0  0  0  0  0  0  0  0  0  0  0
   18.2822   -7.8709  -18.0022 N   0  0  0  0  0  0  0  0  0  0  0  0
   17.9566   -7.0592  -19.1534 C   0  0  0  0  0  0  0  0  0  0  0  0
   19.1799   -6.1284  -19.2032 C   0  0  0  0  0  0  0  0  0  0  0  0
   19.2256   -5.6884  -17.7559 C   0  0  0  0  0  0  0  0  0  0  0  0
   18.8413   -6.9262  -17.0253 C   0  0  1  0  0  0  0  0  0  0  0  0
   17.8698   -6.6804  -15.9298 C   0  0  0  0  0  0  0  0  0  0  0  0
   16.6460   -6.7262  -16.2106 O   0  0  0  0  0  0  0  0  0  0  0  0
   18.2348   -6.3992  -14.5942 N   0  0  0  0  0  0  0  0  0  0  0  0
   17.2194   -6.1486  -13.5418 C   0  0  1  0  0  0  0  0  0  0  0  0
   17.3103   -7.2589  -12.5571 C   0  0  0  0  0  0  0  0  0  0  0  0
   18.5390   -7.3169  -11.7537 C   0  0  0  0  0  0  0  0  0  0  0  0
   18.7254   -6.6820  -10.5115 C   0  0  0  0  0  0  0  0  0  0  0  0
   19.9707   -6.9153  -10.0775 N   0  0  0  0  0  0  0  0  0  0  0  0
   20.6416   -7.6785  -10.9623 C   0  0  0  0  0  0  0  0  0  0  0  0
   21.9237   -8.1844  -10.9435 C   0  0  0  0  0  0  0  0  0  0  0  0
   22.3476   -8.9775  -12.0041 C   0  0  0  0  0  0  0  0  0  0  0  0
   21.4792   -9.2393  -13.0477 C   0  0  0  0  0  0  0  0  0  0  0  0
   20.2049   -8.7272  -13.0524 C   0  0  0  0  0  0  0  0  0  0  0  0
   19.7561   -7.9254  -11.9955 C   0  0  0  0  0  0  0  0  0  0  0  0
   17.4349   -4.8346  -12.9500 C   0  0  0  0  0  0  0  0  0  0  0  0
   16.4388   -4.2678  -12.1429 O   0  0  0  0  0  0  0  0  0  0  0  0
   18.4645   -4.1389  -13.1008 O   0  0  0  0  0  0  0  0  0  0  0  0
  2  4  1  0
  2  1  1  1
  3  2  1  0
  4  6  1  0
  5  4  2  0
  6  7  1  0
  6 10  1  0
  7  8  1  0
  9  8  1  0
 10  9  1  0
 11 13  1  0
 10 11  1  1
 12 11  2  0
 14 15  1  1
 14 13  1  0
 15 16  1  0
 16 17  2  0
 18 17  1  0
 19 18  1  0
 20 19  2  0
 21 20  1  0
 22 21  2  0
 22 23  1  0
 23 24  2  0
 24 19  1  0
 24 16  1  0
 25 14  1  0
 25 26  1  0
 27 25  2  0
M  END
$$$$
