APW.pdb
     RDKit          3D

 27 29  0  0  1  0  0  0  0  0999 V2000
   26.0737  -16.0177  -15.6546 C   0  0  0  0  0  0  0  0  0  0  0  0
   26.0817  -17.2539  -16.5500 C   0  0  2  0  0  0  0  0  0  0  0  0
   25.0316  -17.1033  -17.4896 N   0  0  0  0  0  0  0  0  0  0  0  0
   26.0826  -18.4580  -15.7294 C   0  0  0  0  0  0  0  0  0  0  0  0
   24.9164  -18.8633  -15.3710 O   0  0  0  0  0  0  0  0  0  0  0  0
   27.1874  -19.2143  -15.2915 N   0  0  0  0  0  0  0  0  0  0  0  0
   28.5950  -19.0524  -15.5788 C   0  0  0  0  0  0  0  0  0  0  0  0
   29.0210  -20.5188  -15.7617 C   0  0  0  0  0  0  0  0  0  0  0  0
   28.4035  -21.1215  -14.5184 C   0  0  0  0  0  0  0  0  0  0  0  0
   27.1203  -20.3782  -14.3970 C   0  0  1  0  0  0  0  0  0  0  0  0
   26.8246  -19.9458  -13.0078 C   0  0  0  0  0  0  0  0  0  0  0  0
   26.9995  -18.7351  -12.7212 O   0  0  0  0  0  0  0  0  0  0  0  0
   26.3594  -20.8088  -11.9904 N   0  0  0  0  0  0  0  0  0  0  0  0
   26.0577  -20.3162  -10.6239 C   0  0  1  0  0  0  0  0  0  0  0  0
   24.9907  -19.2876  -10.7431 C   0  0  0  0  0  0  0  0  0  0  0  0
   23.6729  -19.7653  -11.1830 C   0  0  0  0  0  0  0  0  0  0  0  0
   22.7217  -20.3931  -10.3572 C   0  0  0  0  0  0  0  0  0  0  0  0
   21.6518  -20.7283  -11.0897 N   0  0  0  0  0  0  0  0  0  0  0  0
   21.8268  -20.3591  -12.3737 C   0  0  0  0  0  0  0  0  0  0  0  0
   21.0076  -20.4743  -13.4762 C   0  0  0  0  0  0  0  0  0  0  0  0
   21.4491  -19.9722  -14.6954 C   0  0  0  0  0  0  0  0  0  0  0  0
   22.6922  -19.3723  -14.7745 C   0  0  0  0  0  0  0  0  0  0  0  0
   23.4975  -19.2659  -13.6670 C   0  0  0  0  0  0  0  0  0  0  0  0
   23.0744  -19.7648  -12.4288 C   0  0  0  0  0  0  0  0  0  0  0  0
   25.6869  -21.4342   -9.7662 C   0  0  0  0  0  0  0  0  0  0  0  0
   25.6248  -22.7274  -10.3038 O   0  0  0  0  0  0  0  0  0  0  0  0
   25.4083  -21.3446   -8.5492 O   0  0  0  0  0  0  0  0  0  0  0  0
  2  4  1  0
  2  1  1  1
  3  2  1  0
  4  6  1  0
  5  4  2  0
  6  7  1  0
  6 10  1  0
  7  8  1  0
  9  8  1  0
 10  9  1  0
 11 13  1  0
 10 11  1  1
 12 11  2  0
 14 15  1  6
 14 13  1  0
 15 16  1  0
 16 17  2  0
 18 17  1  0
 19 18  1  0
 20 19  2  0
 21 20  1  0
 22 21  2  0
 22 23  1  0
 23 24  2  0
 24 19  1  0
 24 16  1  0
 25 14  1  0
 25 26  1  0
 27 25  2  0
M  END
$$$$
