APW.pdb
     RDKit          3D

 27 29  0  0  1  0  0  0  0  0999 V2000
   24.6971  -21.1955  -16.2914 C   0  0  0  0  0  0  0  0  0  0  0  0
   26.1494  -21.6644  -16.2575 C   0  0  2  0  0  0  0  0  0  0  0  0
   26.2155  -22.8900  -16.9658 N   0  0  0  0  0  0  0  0  0  0  0  0
   26.6400  -21.6531  -14.8855 C   0  0  0  0  0  0  0  0  0  0  0  0
   26.5117  -22.7695  -14.2610 O   0  0  0  0  0  0  0  0  0  0  0  0
   27.2258  -20.5854  -14.1774 N   0  0  0  0  0  0  0  0  0  0  0  0
   27.4332  -19.2111  -14.5754 C   0  0  0  0  0  0  0  0  0  0  0  0
   28.8383  -18.9561  -14.0046 C   0  0  0  0  0  0  0  0  0  0  0  0
   28.6431  -19.4831  -12.5994 C   0  0  0  0  0  0  0  0  0  0  0  0
   27.7633  -20.6639  -12.8120 C   0  0  1  0  0  0  0  0  0  0  0  0
   26.6572  -20.7537  -11.8258 C   0  0  0  0  0  0  0  0  0  0  0  0
   25.5133  -20.3860  -12.1930 O   0  0  0  0  0  0  0  0  0  0  0  0
   26.8102  -21.2261  -10.5030 N   0  0  0  0  0  0  0  0  0  0  0  0
   25.6513  -21.3879   -9.5908 C   0  0  1  0  0  0  0  0  0  0  0  0
   26.1858  -21.6573   -8.2298 C   0  0  0  0  0  0  0  0  0  0  0  0
   26.7904  -20.5154   -7.5306 C   0  0  0  0  0  0  0  0  0  0  0  0
   26.5996  -19.1633   -7.8716 C   0  0  0  0  0  0  0  0  0  0  0  0
   27.3243  -18.3929   -7.0500 N   0  0  0  0  0  0  0  0  0  0  0  0
   27.9987  -19.1534   -6.1656 C   0  0  0  0  0  0  0  0  0  0  0  0
   28.8455  -18.8166   -5.1314 C   0  0  0  0  0  0  0  0  0  0  0  0
   29.3899  -19.8317   -4.3525 C   0  0  0  0  0  0  0  0  0  0  0  0
   29.0719  -21.1481   -4.6307 C   0  0  0  0  0  0  0  0  0  0  0  0
   28.2271  -21.4679   -5.6653 C   0  0  0  0  0  0  0  0  0  0  0  0
   27.6674  -20.4626   -6.4637 C   0  0  0  0  0  0  0  0  0  0  0  0
   24.8043  -20.2040   -9.6533 C   0  0  0  0  0  0  0  0  0  0  0  0
   25.3305  -19.0023  -10.1475 O   0  0  0  0  0  0  0  0  0  0  0  0
   23.6063  -20.1579   -9.2936 O   0  0  0  0  0  0  0  0  0  0  0  0
  2  4  1  0
  2  1  1  1
  3  2  1  0
  4  6  1  0
  5  4  2  0
  6  7  1  0
  6 10  1  0
  7  8  1  0
  9  8  1  0
 10  9  1  0
 11 13  1  0
 10 11  1  1
 12 11  2  0
 14 15  1  1
 14 13  1  0
 15 16  1  0
 16 17  2  0
 18 17  1  0
 19 18  1  0
 20 19  2  0
 21 20  1  0
 22 21  2  0
 22 23  1  0
 23 24  2  0
 24 19  1  0
 24 16  1  0
 25 14  1  0
 25 26  1  0
 27 25  2  0
M  END
$$$$
