APW.pdb
     RDKit          3D

 27 29  0  0  1  0  0  0  0  0999 V2000
   26.4533  -17.2919  -17.4351 C   0  0  0  0  0  0  0  0  0  0  0  0
   26.4474  -18.7024  -18.0188 C   0  0  2  0  0  0  0  0  0  0  0  0
   26.4211  -18.5767  -19.4301 N   0  0  0  0  0  0  0  0  0  0  0  0
   25.3933  -19.4909  -17.3939 C   0  0  0  0  0  0  0  0  0  0  0  0
   24.2526  -19.4236  -17.9831 O   0  0  0  0  0  0  0  0  0  0  0  0
   25.4750  -20.3010  -16.2444 N   0  0  0  0  0  0  0  0  0  0  0  0
   26.6006  -20.5720  -15.3785 C   0  0  0  0  0  0  0  0  0  0  0  0
   26.4083  -22.0758  -15.1201 C   0  0  0  0  0  0  0  0  0  0  0  0
   24.9418  -22.0856  -14.7461 C   0  0  0  0  0  0  0  0  0  0  0  0
   24.3635  -21.0661  -15.6625 C   0  0  1  0  0  0  0  0  0  0  0  0
   23.4042  -20.1536  -14.9907 C   0  0  0  0  0  0  0  0  0  0  0  0
   23.8699  -19.1561  -14.3854 O   0  0  0  0  0  0  0  0  0  0  0  0
   22.0031  -20.3365  -14.9900 N   0  0  0  0  0  0  0  0  0  0  0  0
   21.0833  -19.3325  -14.4008 C   0  0  1  0  0  0  0  0  0  0  0  0
   21.2329  -18.0751  -15.1799 C   0  0  0  0  0  0  0  0  0  0  0  0
   20.7368  -18.1036  -16.5625 C   0  0  0  0  0  0  0  0  0  0  0  0
   19.4659  -18.5612  -16.9578 C   0  0  0  0  0  0  0  0  0  0  0  0
   19.3605  -18.4790  -18.2904 N   0  0  0  0  0  0  0  0  0  0  0  0
   20.4965  -17.9872  -18.8223 C   0  0  0  0  0  0  0  0  0  0  0  0
   20.8486  -17.7101  -20.1259 C   0  0  0  0  0  0  0  0  0  0  0  0
   22.1060  -17.1744  -20.3818 C   0  0  0  0  0  0  0  0  0  0  0  0
   22.9700  -16.9331  -19.3297 C   0  0  0  0  0  0  0  0  0  0  0  0
   22.6049  -17.2154  -18.0361 C   0  0  0  0  0  0  0  0  0  0  0  0
   21.3441  -17.7559  -17.7543 C   0  0  0  0  0  0  0  0  0  0  0  0
   19.7215  -19.8508  -14.3993 C   0  0  0  0  0  0  0  0  0  0  0  0
   18.7225  -19.1684  -13.6912 O   0  0  0  0  0  0  0  0  0  0  0  0
   19.3464  -20.8869  -14.9930 O   0  0  0  0  0  0  0  0  0  0  0  0
  2  4  1  0
  2  1  1  1
  3  2  1  0
  4  6  1  0
  5  4  2  0
  6  7  1  0
  6 10  1  0
  7  8  1  0
  9  8  1  0
 10  9  1  0
 11 13  1  0
 10 11  1  1
 12 11  2  0
 14 15  1  6
 14 13  1  0
 15 16  1  0
 16 17  2  0
 18 17  1  0
 19 18  1  0
 20 19  2  0
 21 20  1  0
 22 21  2  0
 22 23  1  0
 23 24  2  0
 24 19  1  0
 24 16  1  0
 25 14  1  0
 25 26  1  0
 27 25  2  0
M  END
$$$$
