APW.pdb
     RDKit          3D

 27 29  0  0  1  0  0  0  0  0999 V2000
   20.7564  -12.0036  -19.0596 C   0  0  0  0  0  0  0  0  0  0  0  0
   21.2566  -12.9014  -17.9309 C   0  0  2  0  0  0  0  0  0  0  0  0
   20.2562  -13.8755  -17.6894 N   0  0  0  0  0  0  0  0  0  0  0  0
   21.6858  -12.0841  -16.8034 C   0  0  0  0  0  0  0  0  0  0  0  0
   20.7528  -11.7881  -15.9699 O   0  0  0  0  0  0  0  0  0  0  0  0
   22.9754  -11.5903  -16.5250 N   0  0  0  0  0  0  0  0  0  0  0  0
   24.2303  -11.8419  -17.1973 C   0  0  0  0  0  0  0  0  0  0  0  0
   25.1806  -11.9651  -15.9944 C   0  0  0  0  0  0  0  0  0  0  0  0
   24.7855  -10.7213  -15.2279 C   0  0  0  0  0  0  0  0  0  0  0  0
   23.3138  -10.6610  -15.4381 C   0  0  1  0  0  0  0  0  0  0  0  0
   22.8241   -9.2957  -15.7545 C   0  0  0  0  0  0  0  0  0  0  0  0
   22.5911   -9.0210  -16.9582 O   0  0  0  0  0  0  0  0  0  0  0  0
   22.6039   -8.2883  -14.7886 N   0  0  0  0  0  0  0  0  0  0  0  0
   21.9901   -6.9849  -15.1433 C   0  0  1  0  0  0  0  0  0  0  0  0
   20.5926   -7.2501  -15.5762 C   0  0  0  0  0  0  0  0  0  0  0  0
   19.7104   -7.8733  -14.5803 C   0  0  0  0  0  0  0  0  0  0  0  0
   19.7267   -7.6001  -13.1997 C   0  0  0  0  0  0  0  0  0  0  0  0
   18.8177   -8.3684  -12.5855 N   0  0  0  0  0  0  0  0  0  0  0  0
   18.1823   -9.1508  -13.4797 C   0  0  0  0  0  0  0  0  0  0  0  0
   17.1728  -10.0770  -13.3272 C   0  0  0  0  0  0  0  0  0  0  0  0
   16.6856  -10.7299  -14.4540 C   0  0  0  0  0  0  0  0  0  0  0  0
   17.2211  -10.4377  -15.6948 C   0  0  0  0  0  0  0  0  0  0  0  0
   18.2274   -9.5130  -15.8305 C   0  0  0  0  0  0  0  0  0  0  0  0
   18.7344   -8.8434  -14.7099 C   0  0  0  0  0  0  0  0  0  0  0  0
   22.0793   -6.0723  -14.0110 C   0  0  0  0  0  0  0  0  0  0  0  0
   21.7930   -4.7123  -14.1946 O   0  0  0  0  0  0  0  0  0  0  0  0
   22.3995   -6.4012  -12.8466 O   0  0  0  0  0  0  0  0  0  0  0  0
  2  4  1  0
  2  1  1  6
  3  2  1  0
  4  6  1  0
  5  4  2  0
  6  7  1  0
  6 10  1  0
  7  8  1  0
  9  8  1  0
 10  9  1  0
 11 13  1  0
 10 11  1  6
 12 11  2  0
 14 15  1  1
 14 13  1  0
 15 16  1  0
 16 17  2  0
 18 17  1  0
 19 18  1  0
 20 19  2  0
 21 20  1  0
 22 21  2  0
 22 23  1  0
 23 24  2  0
 24 19  1  0
 24 16  1  0
 25 14  1  0
 25 26  1  0
 27 25  2  0
M  END
$$$$
