APW.pdb
     RDKit          3D

 27 29  0  0  1  0  0  0  0  0999 V2000
   27.5937  -16.8886  -13.4078 C   0  0  0  0  0  0  0  0  0  0  0  0
   27.9509  -18.2086  -14.0861 C   0  0  2  0  0  0  0  0  0  0  0  0
   27.2383  -18.2626  -15.3099 N   0  0  0  0  0  0  0  0  0  0  0  0
   27.7657  -19.3104  -13.1507 C   0  0  0  0  0  0  0  0  0  0  0  0
   26.5397  -19.6369  -12.9429 O   0  0  0  0  0  0  0  0  0  0  0  0
   28.7509  -20.0445  -12.4615 N   0  0  0  0  0  0  0  0  0  0  0  0
   30.1885  -19.8920  -12.4581 C   0  0  0  0  0  0  0  0  0  0  0  0
   30.6331  -21.3641  -12.4856 C   0  0  0  0  0  0  0  0  0  0  0  0
   29.7678  -21.9135  -11.3722 C   0  0  0  0  0  0  0  0  0  0  0  0
   28.4923  -21.1685  -11.5510 C   0  0  1  0  0  0  0  0  0  0  0  0
   27.9187  -20.6766  -10.2730 C   0  0  0  0  0  0  0  0  0  0  0  0
   28.7091  -20.4604   -9.3207 O   0  0  0  0  0  0  0  0  0  0  0  0
   26.5424  -20.4369  -10.0616 N   0  0  0  0  0  0  0  0  0  0  0  0
   25.6679  -21.4333   -9.3954 C   0  0  1  0  0  0  0  0  0  0  0  0
   26.1189  -21.5535   -7.9838 C   0  0  0  0  0  0  0  0  0  0  0  0
   26.8202  -20.3903   -7.4237 C   0  0  0  0  0  0  0  0  0  0  0  0
   26.7732  -19.0856   -7.9494 C   0  0  0  0  0  0  0  0  0  0  0  0
   27.5541  -18.2836   -7.2142 N   0  0  0  0  0  0  0  0  0  0  0  0
   28.1302  -18.9773   -6.2131 C   0  0  0  0  0  0  0  0  0  0  0  0
   28.9847  -18.5855   -5.2049 C   0  0  0  0  0  0  0  0  0  0  0  0
   29.4081  -19.5321   -4.2786 C   0  0  0  0  0  0  0  0  0  0  0  0
   28.9655  -20.8373   -4.3885 C   0  0  0  0  0  0  0  0  0  0  0  0
   28.1147  -21.2126   -5.3992 C   0  0  0  0  0  0  0  0  0  0  0  0
   27.6756  -20.2769   -6.3441 C   0  0  0  0  0  0  0  0  0  0  0  0
   24.2734  -21.0303   -9.5226 C   0  0  0  0  0  0  0  0  0  0  0  0
   23.9472  -19.8983  -10.2824 O   0  0  0  0  0  0  0  0  0  0  0  0
   23.3038  -21.6221   -8.9972 O   0  0  0  0  0  0  0  0  0  0  0  0
  2  4  1  0
  2  1  1  1
  3  2  1  0
  4  6  1  0
  5  4  2  0
  6  7  1  0
  6 10  1  0
  7  8  1  0
  9  8  1  0
 10  9  1  0
 11 13  1  0
 10 11  1  1
 12 11  2  0
 14 15  1  1
 14 13  1  0
 15 16  1  0
 16 17  2  0
 18 17  1  0
 19 18  1  0
 20 19  2  0
 21 20  1  0
 22 21  2  0
 22 23  1  0
 23 24  2  0
 24 19  1  0
 24 16  1  0
 25 14  1  0
 25 26  1  0
 27 25  2  0
M  END
$$$$
