APW.pdb
     RDKit          3D

 27 29  0  0  1  0  0  0  0  0999 V2000
   16.7181  -12.3384  -16.6170 C   0  0  0  0  0  0  0  0  0  0  0  0
   17.9514  -12.9877  -17.2394 C   0  0  2  0  0  0  0  0  0  0  0  0
   18.1674  -14.2169  -16.5682 N   0  0  0  0  0  0  0  0  0  0  0  0
   19.0519  -12.0330  -17.2654 C   0  0  0  0  0  0  0  0  0  0  0  0
   19.9635  -12.2415  -16.3831 O   0  0  0  0  0  0  0  0  0  0  0  0
   19.2311  -10.9315  -18.1251 N   0  0  0  0  0  0  0  0  0  0  0  0
   18.3994  -10.4543  -19.2070 C   0  0  0  0  0  0  0  0  0  0  0  0
   19.4688  -10.0778  -20.2462 C   0  0  0  0  0  0  0  0  0  0  0  0
   20.3960   -9.2592  -19.3741 C   0  0  0  0  0  0  0  0  0  0  0  0
   20.3605   -9.9926  -18.0801 C   0  0  1  0  0  0  0  0  0  0  0  0
   20.2402   -9.0957  -16.9031 C   0  0  0  0  0  0  0  0  0  0  0  0
   19.0887   -8.8685  -16.4547 O   0  0  0  0  0  0  0  0  0  0  0  0
   21.3373   -8.4832  -16.2570 N   0  0  0  0  0  0  0  0  0  0  0  0
   21.1566   -7.5865  -15.0889 C   0  0  1  0  0  0  0  0  0  0  0  0
   22.3814   -7.6875  -14.2520 C   0  0  0  0  0  0  0  0  0  0  0  0
   23.6629   -7.6741  -14.9703 C   0  0  0  0  0  0  0  0  0  0  0  0
   24.1751   -6.5803  -15.6929 C   0  0  0  0  0  0  0  0  0  0  0  0
   25.3439   -6.9250  -16.2486 N   0  0  0  0  0  0  0  0  0  0  0  0
   25.6536   -8.1993  -15.9396 C   0  0  0  0  0  0  0  0  0  0  0  0
   26.7454   -8.9769  -16.2611 C   0  0  0  0  0  0  0  0  0  0  0  0
   26.8102  -10.2772  -15.7726 C   0  0  0  0  0  0  0  0  0  0  0  0
   25.7845  -10.7585  -14.9802 C   0  0  0  0  0  0  0  0  0  0  0  0
   24.7025   -9.9717  -14.6693 C   0  0  0  0  0  0  0  0  0  0  0  0
   24.6152   -8.6594  -15.1504 C   0  0  0  0  0  0  0  0  0  0  0  0
   20.8804   -6.2305  -15.5448 C   0  0  0  0  0  0  0  0  0  0  0  0
   21.0338   -5.9122  -16.9014 O   0  0  0  0  0  0  0  0  0  0  0  0
   20.5051   -5.2883  -14.8112 O   0  0  0  0  0  0  0  0  0  0  0  0
  2  4  1  0
  2  1  1  1
  3  2  1  0
  4  6  1  0
  5  4  2  0
  6  7  1  0
  6 10  1  0
  7  8  1  0
  9  8  1  0
 10  9  1  0
 11 13  1  0
 10 11  1  1
 12 11  2  0
 14 15  1  6
 14 13  1  0
 15 16  1  0
 16 17  2  0
 18 17  1  0
 19 18  1  0
 20 19  2  0
 21 20  1  0
 22 21  2  0
 22 23  1  0
 23 24  2  0
 24 19  1  0
 24 16  1  0
 25 14  1  0
 25 26  1  0
 27 25  2  0
M  END
$$$$
