APW.pdb
     RDKit          3D

 27 29  0  0  1  0  0  0  0  0999 V2000
   25.9885  -22.0713  -17.1374 C   0  0  0  0  0  0  0  0  0  0  0  0
   27.4103  -21.5548  -16.9329 C   0  0  2  0  0  0  0  0  0  0  0  0
   28.2954  -22.5378  -17.4414 N   0  0  0  0  0  0  0  0  0  0  0  0
   27.5902  -21.1394  -15.5479 C   0  0  0  0  0  0  0  0  0  0  0  0
   28.1753  -22.0060  -14.7999 O   0  0  0  0  0  0  0  0  0  0  0  0
   27.2064  -19.9257  -14.9444 N   0  0  0  0  0  0  0  0  0  0  0  0
   26.4163  -18.8362  -15.4723 C   0  0  0  0  0  0  0  0  0  0  0  0
   27.1933  -17.6270  -14.9252 C   0  0  0  0  0  0  0  0  0  0  0  0
   27.3270  -18.0431  -13.4763 C   0  0  0  0  0  0  0  0  0  0  0  0
   27.5474  -19.5111  -13.5764 C   0  0  1  0  0  0  0  0  0  0  0  0
   26.7579  -20.2893  -12.5889 C   0  0  0  0  0  0  0  0  0  0  0  0
   25.6204  -20.6942  -12.9363 O   0  0  0  0  0  0  0  0  0  0  0  0
   27.2050  -20.6025  -11.2857 N   0  0  0  0  0  0  0  0  0  0  0  0
   26.3783  -21.3977  -10.3447 C   0  0  1  0  0  0  0  0  0  0  0  0
   27.2195  -21.7050   -9.1578 C   0  0  0  0  0  0  0  0  0  0  0  0
   27.3481  -20.6365   -8.1576 C   0  0  0  0  0  0  0  0  0  0  0  0
   26.6622  -19.4080   -8.1917 C   0  0  0  0  0  0  0  0  0  0  0  0
   27.0419  -18.6597   -7.1480 N   0  0  0  0  0  0  0  0  0  0  0  0
   27.9521  -19.3181   -6.4040 C   0  0  0  0  0  0  0  0  0  0  0  0
   28.6082  -18.9675   -5.2435 C   0  0  0  0  0  0  0  0  0  0  0  0
   29.4940  -19.8751   -4.6733 C   0  0  0  0  0  0  0  0  0  0  0  0
   29.6960  -21.1013   -5.2791 C   0  0  0  0  0  0  0  0  0  0  0  0
   29.0355  -21.4358   -6.4358 C   0  0  0  0  0  0  0  0  0  0  0  0
   28.1392  -20.5378   -7.0286 C   0  0  0  0  0  0  0  0  0  0  0  0
   25.1623  -20.6657  -10.0153 C   0  0  0  0  0  0  0  0  0  0  0  0
   24.0567  -21.3572   -9.5010 O   0  0  0  0  0  0  0  0  0  0  0  0
   25.0068  -19.4315  -10.1539 O   0  0  0  0  0  0  0  0  0  0  0  0
  2  4  1  0
  2  1  1  1
  3  2  1  0
  4  6  1  0
  5  4  2  0
  6  7  1  0
  6 10  1  0
  7  8  1  0
  9  8  1  0
 10  9  1  0
 11 13  1  0
 10 11  1  1
 12 11  2  0
 14 15  1  1
 14 13  1  0
 15 16  1  0
 16 17  2  0
 18 17  1  0
 19 18  1  0
 20 19  2  0
 21 20  1  0
 22 21  2  0
 22 23  1  0
 23 24  2  0
 24 19  1  0
 24 16  1  0
 25 14  1  0
 25 26  1  0
 27 25  2  0
M  END
$$$$
