APW.pdb
     RDKit          3D

 27 29  0  0  1  0  0  0  0  0999 V2000
   25.4383  -17.0805  -13.2977 C   0  0  0  0  0  0  0  0  0  0  0  0
   25.9433  -18.0210  -14.3888 C   0  0  2  0  0  0  0  0  0  0  0  0
   25.0173  -17.9633  -15.4599 N   0  0  0  0  0  0  0  0  0  0  0  0
   26.2306  -19.3305  -13.8177 C   0  0  0  0  0  0  0  0  0  0  0  0
   25.2053  -20.0951  -13.6873 O   0  0  0  0  0  0  0  0  0  0  0  0
   27.4731  -19.8465  -13.4002 N   0  0  0  0  0  0  0  0  0  0  0  0
   28.7221  -19.1648  -13.1446 C   0  0  0  0  0  0  0  0  0  0  0  0
   29.7223  -20.1590  -13.7582 C   0  0  0  0  0  0  0  0  0  0  0  0
   29.2318  -21.4412  -13.1212 C   0  0  0  0  0  0  0  0  0  0  0  0
   27.7549  -21.2607  -13.1177 C   0  0  1  0  0  0  0  0  0  0  0  0
   27.1194  -21.6688  -11.8395 C   0  0  0  0  0  0  0  0  0  0  0  0
   27.5110  -22.7362  -11.3049 O   0  0  0  0  0  0  0  0  0  0  0  0
   26.1040  -20.9332  -11.1882 N   0  0  0  0  0  0  0  0  0  0  0  0
   25.5214  -21.3770   -9.8978 C   0  0  1  0  0  0  0  0  0  0  0  0
   26.6305  -21.4649   -8.9114 C   0  0  0  0  0  0  0  0  0  0  0  0
   26.8734  -20.2663   -8.0973 C   0  0  0  0  0  0  0  0  0  0  0  0
   26.4502  -18.9647   -8.4253 C   0  0  0  0  0  0  0  0  0  0  0  0
   26.8707  -18.1115   -7.4825 N   0  0  0  0  0  0  0  0  0  0  0  0
   27.5587  -18.7678   -6.5279 C   0  0  0  0  0  0  0  0  0  0  0  0
   28.1592  -18.3256   -5.3685 C   0  0  0  0  0  0  0  0  0  0  0  0
   28.7906  -19.2512   -4.5449 C   0  0  0  0  0  0  0  0  0  0  0  0
   28.8020  -20.5861   -4.9047 C   0  0  0  0  0  0  0  0  0  0  0  0
   28.2000  -21.0112   -6.0636 C   0  0  0  0  0  0  0  0  0  0  0  0
   27.5587  -20.0973   -6.9090 C   0  0  0  0  0  0  0  0  0  0  0  0
   24.4618  -20.4622   -9.4934 C   0  0  0  0  0  0  0  0  0  0  0  0
   24.1793  -19.3388  -10.2828 O   0  0  0  0  0  0  0  0  0  0  0  0
   23.7540  -20.5906   -8.4691 O   0  0  0  0  0  0  0  0  0  0  0  0
  2  4  1  0
  2  1  1  1
  3  2  1  0
  4  6  1  0
  5  4  2  0
  6  7  1  0
  6 10  1  0
  7  8  1  0
  9  8  1  0
 10  9  1  0
 11 13  1  0
 10 11  1  1
 12 11  2  0
 14 15  1  1
 14 13  1  0
 15 16  1  0
 16 17  2  0
 18 17  1  0
 19 18  1  0
 20 19  2  0
 21 20  1  0
 22 21  2  0
 22 23  1  0
 23 24  2  0
 24 19  1  0
 24 16  1  0
 25 14  1  0
 25 26  1  0
 27 25  2  0
M  END
$$$$
