APW.pdb
     RDKit          3D

 27 29  0  0  1  0  0  0  0  0999 V2000
   29.7054  -18.5513  -17.9194 C   0  0  0  0  0  0  0  0  0  0  0  0
   28.6551  -17.5029  -17.5619 C   0  0  2  0  0  0  0  0  0  0  0  0
   29.3210  -16.2570  -17.4499 N   0  0  0  0  0  0  0  0  0  0  0  0
   27.8764  -17.9548  -16.4162 C   0  0  0  0  0  0  0  0  0  0  0  0
   28.4048  -17.6959  -15.2731 O   0  0  0  0  0  0  0  0  0  0  0  0
   26.6389  -18.6280  -16.4133 N   0  0  0  0  0  0  0  0  0  0  0  0
   25.8600  -19.1421  -17.5174 C   0  0  0  0  0  0  0  0  0  0  0  0
   24.4398  -18.7571  -17.0702 C   0  0  0  0  0  0  0  0  0  0  0  0
   24.4690  -19.2774  -15.6494 C   0  0  0  0  0  0  0  0  0  0  0  0
   25.8578  -18.9665  -15.2155 C   0  0  1  0  0  0  0  0  0  0  0  0
   26.5025  -20.0810  -14.4763 C   0  0  0  0  0  0  0  0  0  0  0  0
   27.3203  -20.8024  -15.1002 O   0  0  0  0  0  0  0  0  0  0  0  0
   26.2545  -20.3801  -13.1179 N   0  0  0  0  0  0  0  0  0  0  0  0
   26.5929  -21.7009  -12.5330 C   0  0  1  0  0  0  0  0  0  0  0  0
   27.5634  -21.4683  -11.4309 C   0  0  0  0  0  0  0  0  0  0  0  0
   27.0237  -20.8624  -10.2061 C   0  0  0  0  0  0  0  0  0  0  0  0
   25.7014  -20.4094  -10.0411 C   0  0  0  0  0  0  0  0  0  0  0  0
   25.5630  -19.8835   -8.8172 N   0  0  0  0  0  0  0  0  0  0  0  0
   26.7255  -19.9567   -8.1400 C   0  0  0  0  0  0  0  0  0  0  0  0
   27.0626  -19.5687   -6.8609 C   0  0  0  0  0  0  0  0  0  0  0  0
   28.3589  -19.7943   -6.4111 C   0  0  0  0  0  0  0  0  0  0  0  0
   29.2753  -20.3988   -7.2514 C   0  0  0  0  0  0  0  0  0  0  0  0
   28.9246  -20.7790   -8.5237 C   0  0  0  0  0  0  0  0  0  0  0  0
   27.6252  -20.5614   -8.9987 C   0  0  0  0  0  0  0  0  0  0  0  0
   25.3767  -22.3747  -12.0972 C   0  0  0  0  0  0  0  0  0  0  0  0
   25.4217  -23.7354  -11.7630 O   0  0  0  0  0  0  0  0  0  0  0  0
   24.2539  -21.8321  -11.9895 O   0  0  0  0  0  0  0  0  0  0  0  0
  2  4  1  0
  2  1  1  1
  3  2  1  0
  4  6  1  0
  5  4  2  0
  6  7  1  0
  6 10  1  0
  7  8  1  0
  9  8  1  0
 10  9  1  0
 11 13  1  0
 10 11  1  6
 12 11  2  0
 14 15  1  1
 14 13  1  0
 15 16  1  0
 16 17  2  0
 18 17  1  0
 19 18  1  0
 20 19  2  0
 21 20  1  0
 22 21  2  0
 22 23  1  0
 23 24  2  0
 24 19  1  0
 24 16  1  0
 25 14  1  0
 25 26  1  0
 27 25  2  0
M  END
$$$$
