APW.pdb
     RDKit          3D

 27 29  0  0  1  0  0  0  0  0999 V2000
   25.9473  -17.1263  -14.0903 C   0  0  0  0  0  0  0  0  0  0  0  0
   26.3414  -18.4532  -14.7337 C   0  0  2  0  0  0  0  0  0  0  0  0
   25.4316  -18.6976  -15.7923 N   0  0  0  0  0  0  0  0  0  0  0  0
   26.4713  -19.4799  -13.7079 C   0  0  0  0  0  0  0  0  0  0  0  0
   25.3760  -20.0854  -13.4137 O   0  0  0  0  0  0  0  0  0  0  0  0
   27.6311  -19.8789  -13.0149 N   0  0  0  0  0  0  0  0  0  0  0  0
   28.9801  -19.3645  -13.0907 C   0  0  0  0  0  0  0  0  0  0  0  0
   29.7890  -20.6713  -13.0327 C   0  0  0  0  0  0  0  0  0  0  0  0
   29.1256  -21.3301  -11.8427 C   0  0  0  0  0  0  0  0  0  0  0  0
   27.6966  -20.9529  -12.0142 C   0  0  1  0  0  0  0  0  0  0  0  0
   27.0504  -20.5207  -10.7494 C   0  0  0  0  0  0  0  0  0  0  0  0
   26.9734  -19.2873  -10.5223 O   0  0  0  0  0  0  0  0  0  0  0  0
   26.5175  -21.4077   -9.7874 N   0  0  0  0  0  0  0  0  0  0  0  0
   25.6567  -20.9322   -8.6765 C   0  0  1  0  0  0  0  0  0  0  0  0
   25.9567  -19.4919   -8.4613 C   0  0  0  0  0  0  0  0  0  0  0  0
   26.9542  -19.1827   -7.4280 C   0  0  0  0  0  0  0  0  0  0  0  0
   27.5923  -17.9389   -7.2643 C   0  0  0  0  0  0  0  0  0  0  0  0
   28.4650  -18.0188   -6.2516 N   0  0  0  0  0  0  0  0  0  0  0  0
   28.4525  -19.2554   -5.7168 C   0  0  0  0  0  0  0  0  0  0  0  0
   29.1529  -19.8008   -4.6623 C   0  0  0  0  0  0  0  0  0  0  0  0
   28.9132  -21.1246   -4.3108 C   0  0  0  0  0  0  0  0  0  0  0  0
   27.9835  -21.8601   -5.0224 C   0  0  0  0  0  0  0  0  0  0  0  0
   27.2941  -21.3027   -6.0713 C   0  0  0  0  0  0  0  0  0  0  0  0
   27.5193  -19.9717   -6.4439 C   0  0  0  0  0  0  0  0  0  0  0  0
   24.2573  -21.1886   -8.9912 C   0  0  0  0  0  0  0  0  0  0  0  0
   23.3255  -21.3098   -7.9509 O   0  0  0  0  0  0  0  0  0  0  0  0
   23.7922  -21.3154  -10.1463 O   0  0  0  0  0  0  0  0  0  0  0  0
  2  4  1  0
  2  1  1  1
  3  2  1  0
  4  6  1  0
  5  4  2  0
  6  7  1  0
  6 10  1  0
  7  8  1  0
  9  8  1  0
 10  9  1  0
 11 13  1  0
 10 11  1  1
 12 11  2  0
 14 15  1  6
 14 13  1  0
 15 16  1  0
 16 17  2  0
 18 17  1  0
 19 18  1  0
 20 19  2  0
 21 20  1  0
 22 21  2  0
 22 23  1  0
 23 24  2  0
 24 19  1  0
 24 16  1  0
 25 14  1  0
 25 26  1  0
 27 25  2  0
M  END
$$$$
