APW.pdb
     RDKit          3D

 27 29  0  0  1  0  0  0  0  0999 V2000
   25.9848  -17.4414  -17.2117 C   0  0  0  0  0  0  0  0  0  0  0  0
   26.0915  -18.8462  -17.7992 C   0  0  2  0  0  0  0  0  0  0  0  0
   25.9775  -18.7267  -19.2066 N   0  0  0  0  0  0  0  0  0  0  0  0
   25.1581  -19.7368  -17.1218 C   0  0  0  0  0  0  0  0  0  0  0  0
   23.9458  -19.6642  -17.5436 O   0  0  0  0  0  0  0  0  0  0  0  0
   25.4217  -20.6488  -16.0810 N   0  0  0  0  0  0  0  0  0  0  0  0
   26.6557  -20.9254  -15.3804 C   0  0  0  0  0  0  0  0  0  0  0  0
   26.5817  -22.4571  -15.2628 C   0  0  0  0  0  0  0  0  0  0  0  0
   25.1730  -22.6049  -14.7298 C   0  0  0  0  0  0  0  0  0  0  0  0
   24.4327  -21.5423  -15.4624 C   0  0  1  0  0  0  0  0  0  0  0  0
   23.5093  -20.7689  -14.5945 C   0  0  0  0  0  0  0  0  0  0  0  0
   23.9758  -19.7781  -13.9787 O   0  0  0  0  0  0  0  0  0  0  0  0
   22.1416  -21.0767  -14.4184 N   0  0  0  0  0  0  0  0  0  0  0  0
   21.2544  -20.2421  -13.5713 C   0  0  1  0  0  0  0  0  0  0  0  0
   21.0050  -18.9702  -14.2999 C   0  0  0  0  0  0  0  0  0  0  0  0
   20.1891  -19.0676  -15.5178 C   0  0  0  0  0  0  0  0  0  0  0  0
   18.8210  -19.3964  -15.5523 C   0  0  0  0  0  0  0  0  0  0  0  0
   18.4054  -19.4292  -16.8250 N   0  0  0  0  0  0  0  0  0  0  0  0
   19.4226  -19.1380  -17.6593 C   0  0  0  0  0  0  0  0  0  0  0  0
   19.4751  -19.0333  -19.0327 C   0  0  0  0  0  0  0  0  0  0  0  0
   20.6806  -18.6877  -19.6336 C   0  0  0  0  0  0  0  0  0  0  0  0
   21.7929  -18.4583  -18.8452 C   0  0  0  0  0  0  0  0  0  0  0  0
   21.7249  -18.5674  -17.4778 C   0  0  0  0  0  0  0  0  0  0  0  0
   20.5220  -18.9148  -16.8505 C   0  0  0  0  0  0  0  0  0  0  0  0
   20.0351  -20.9762  -13.2595 C   0  0  0  0  0  0  0  0  0  0  0  0
   19.1719  -20.4932  -12.2661 O   0  0  0  0  0  0  0  0  0  0  0  0
   19.6730  -22.0372  -13.8161 O   0  0  0  0  0  0  0  0  0  0  0  0
  2  4  1  0
  2  1  1  1
  3  2  1  0
  4  6  1  0
  5  4  2  0
  6  7  1  0
  6 10  1  0
  7  8  1  0
  9  8  1  0
 10  9  1  0
 11 13  1  0
 10 11  1  1
 12 11  2  0
 14 15  1  6
 14 13  1  0
 15 16  1  0
 16 17  2  0
 18 17  1  0
 19 18  1  0
 20 19  2  0
 21 20  1  0
 22 21  2  0
 22 23  1  0
 23 24  2  0
 24 19  1  0
 24 16  1  0
 25 14  1  0
 25 26  1  0
 27 25  2  0
M  END
$$$$
