APW.pdb
     RDKit          3D

 27 29  0  0  1  0  0  0  0  0999 V2000
   26.7901  -16.3034  -13.7743 C   0  0  0  0  0  0  0  0  0  0  0  0
   26.7550  -17.5994  -14.5800 C   0  0  2  0  0  0  0  0  0  0  0  0
   25.8903  -17.3893  -15.6830 N   0  0  0  0  0  0  0  0  0  0  0  0
   26.4599  -18.7212  -13.6981 C   0  0  0  0  0  0  0  0  0  0  0  0
   25.2287  -18.8114  -13.3390 O   0  0  0  0  0  0  0  0  0  0  0  0
   27.3460  -19.6979  -13.2027 N   0  0  0  0  0  0  0  0  0  0  0  0
   28.7793  -19.8120  -13.3534 C   0  0  0  0  0  0  0  0  0  0  0  0
   28.9248  -21.3271  -13.5737 C   0  0  0  0  0  0  0  0  0  0  0  0
   28.0815  -21.8349  -12.4242 C   0  0  0  0  0  0  0  0  0  0  0  0
   26.9638  -20.8538  -12.3800 C   0  0  1  0  0  0  0  0  0  0  0  0
   26.6233  -20.4175  -11.0024 C   0  0  0  0  0  0  0  0  0  0  0  0
   27.4596  -19.7087  -10.3886 O   0  0  0  0  0  0  0  0  0  0  0  0
   25.4200  -20.7487  -10.3400 N   0  0  0  0  0  0  0  0  0  0  0  0
   25.3739  -20.9941   -8.8775 C   0  0  1  0  0  0  0  0  0  0  0  0
   25.3673  -19.6703   -8.2004 C   0  0  0  0  0  0  0  0  0  0  0  0
   26.6178  -19.2712   -7.5404 C   0  0  0  0  0  0  0  0  0  0  0  0
   27.3810  -18.1355   -7.8699 C   0  0  0  0  0  0  0  0  0  0  0  0
   28.4725  -18.0954   -7.0949 N   0  0  0  0  0  0  0  0  0  0  0  0
   28.4902  -19.1474   -6.2531 C   0  0  0  0  0  0  0  0  0  0  0  0
   29.3863  -19.5172   -5.2732 C   0  0  0  0  0  0  0  0  0  0  0  0
   29.1310  -20.6634   -4.5286 C   0  0  0  0  0  0  0  0  0  0  0  0
   27.9911  -21.4024   -4.7859 C   0  0  0  0  0  0  0  0  0  0  0  0
   27.1080  -21.0214   -5.7664 C   0  0  0  0  0  0  0  0  0  0  0  0
   27.3446  -19.8712   -6.5295 C   0  0  0  0  0  0  0  0  0  0  0  0
   24.2149  -21.8143   -8.5503 C   0  0  0  0  0  0  0  0  0  0  0  0
   24.0532  -22.2929   -7.2427 O   0  0  0  0  0  0  0  0  0  0  0  0
   23.3170  -22.1439   -9.3577 O   0  0  0  0  0  0  0  0  0  0  0  0
  2  4  1  0
  2  1  1  1
  3  2  1  0
  4  6  1  0
  5  4  2  0
  6  7  1  0
  6 10  1  0
  7  8  1  0
  9  8  1  0
 10  9  1  0
 11 13  1  0
 10 11  1  1
 12 11  2  0
 14 15  1  1
 14 13  1  0
 15 16  1  0
 16 17  2  0
 18 17  1  0
 19 18  1  0
 20 19  2  0
 21 20  1  0
 22 21  2  0
 22 23  1  0
 23 24  2  0
 24 19  1  0
 24 16  1  0
 25 14  1  0
 25 26  1  0
 27 25  2  0
M  END
$$$$
