CSD.pdb
     RDKit          3D

 21 20  0  0  1  0  0  0  0  0999 V2000
   13.2870  -18.7497   16.7419 N   0  0  0  0  0  0  0  0  0  0  0  0
   12.8209  -19.2391   18.0074 C   0  0  1  0  0  0  0  0  0  0  0  0
   13.5542  -20.5563   18.2723 C   0  0  0  0  0  0  0  0  0  0  0  0
   12.5932  -21.8704   17.4671 S   0  0  0  0  0  0  0  0  0  0  0  0
   13.1609  -18.3271   19.1353 C   0  0  0  0  0  0  0  0  0  0  0  0
   14.0542  -17.4591   18.8737 O   0  0  0  0  0  0  0  0  0  0  0  0
   11.0976  -18.1916   22.7913 O   0  0  0  0  0  0  0  0  0  0  0  0
   11.7307  -17.0735   22.2679 C   0  0  0  0  0  0  0  0  0  0  0  0
   12.9495  -17.4540   21.4460 C   0  0  2  0  0  0  0  0  0  0  0  0
   12.5692  -18.3833   20.4025 N   0  0  0  0  0  0  0  0  0  0  0  0
   14.0361  -17.9903   22.2890 C   0  0  0  0  0  0  0  0  0  0  0  0
   14.2329  -19.2468   22.3174 O   0  0  0  0  0  0  0  0  0  0  0  0
   14.8947  -17.2127   23.0844 N   0  0  0  0  0  0  0  0  0  0  0  0
   15.9940  -17.7434   23.8713 C   0  0  1  0  0  0  0  0  0  0  0  0
   17.0492  -16.7452   24.1606 C   0  0  0  0  0  0  0  0  0  0  0  0
   17.5614  -16.1762   22.8999 C   0  0  0  0  0  0  0  0  0  0  0  0
   17.6213  -16.7667   21.7946 O   0  0  0  0  0  0  0  0  0  0  0  0
   15.4497  -18.2847   25.1384 C   0  0  0  0  0  0  0  0  0  0  0  0
   14.2463  -18.0633   25.4464 O   0  0  0  0  0  0  0  0  0  0  0  0
   18.0273  -14.8611   22.9149 O   0  0  0  0  0  0  0  0  0  0  0  0
   16.1735  -19.0388   26.0405 O   0  0  0  0  0  0  0  0  0  0  0  0
  2  5  1  0
  2  1  1  6
  3  2  1  0
  4  3  1  0
  5  6  2  0
  8  7  1  0
  9  8  1  1
 10  9  1  0
 10  5  1  0
 11 13  1  0
 11  9  1  0
 12 11  2  0
 14 13  1  0
 14 15  1  1
 15 16  1  0
 16 20  1  0
 16 17  2  0
 18 14  1  0
 19 18  2  0
 21 18  1  0
M  END
$$$$
