CSD.pdb
     RDKit          3D

 21 20  0  0  1  0  0  0  0  0999 V2000
    5.9513  -19.6527   19.3009 N   0  0  0  0  0  0  0  0  0  0  0  0
    6.0378  -18.8700   20.4999 C   0  0  1  0  0  0  0  0  0  0  0  0
    6.3510  -19.8394   21.6424 C   0  0  0  0  0  0  0  0  0  0  0  0
    4.8046  -20.0969   22.5595 S   0  0  0  0  0  0  0  0  0  0  0  0
    7.1523  -17.8822   20.4608 C   0  0  0  0  0  0  0  0  0  0  0  0
    8.2493  -18.3284   19.9946 O   0  0  0  0  0  0  0  0  0  0  0  0
    7.0122  -13.9240   22.0386 O   0  0  0  0  0  0  0  0  0  0  0  0
    7.7494  -14.2301   20.9037 C   0  0  0  0  0  0  0  0  0  0  0  0
    8.2010  -15.6798   20.9039 C   0  0  2  0  0  0  0  0  0  0  0  0
    7.0472  -16.5550   20.8926 N   0  0  0  0  0  0  0  0  0  0  0  0
    9.1026  -15.9752   22.0347 C   0  0  0  0  0  0  0  0  0  0  0  0
    8.5995  -16.2494   23.1705 O   0  0  0  0  0  0  0  0  0  0  0  0
   10.5060  -15.9795   21.9638 N   0  0  0  0  0  0  0  0  0  0  0  0
   11.3864  -16.2490   23.0870 C   0  0  1  0  0  0  0  0  0  0  0  0
   11.3138  -17.6462   23.5725 C   0  0  0  0  0  0  0  0  0  0  0  0
   12.1755  -17.8114   24.7581 C   0  0  0  0  0  0  0  0  0  0  0  0
   12.8334  -16.9052   25.3239 O   0  0  0  0  0  0  0  0  0  0  0  0
   12.7755  -15.9250   22.6865 C   0  0  0  0  0  0  0  0  0  0  0  0
   13.0322  -15.6607   21.4797 O   0  0  0  0  0  0  0  0  0  0  0  0
   12.2834  -19.0844   25.3189 O   0  0  0  0  0  0  0  0  0  0  0  0
   13.8493  -15.8847   23.5536 O   0  0  0  0  0  0  0  0  0  0  0  0
  2  5  1  0
  2  1  1  6
  3  2  1  0
  4  3  1  0
  5  6  2  0
  8  7  1  0
  9  8  1  1
 10  9  1  0
 10  5  1  0
 11 13  1  0
 11  9  1  0
 12 11  2  0
 14 13  1  0
 14 15  1  6
 15 16  1  0
 16 20  1  0
 16 17  2  0
 18 14  1  0
 19 18  2  0
 21 18  1  0
M  END
$$$$
