CSD.pdb
     RDKit          3D

 21 20  0  0  1  0  0  0  0  0999 V2000
   10.4308  -19.5894   18.6988 N   0  0  0  0  0  0  0  0  0  0  0  0
    9.7362  -18.8897   19.7408 C   0  0  1  0  0  0  0  0  0  0  0  0
    9.3955  -19.9216   20.8189 C   0  0  0  0  0  0  0  0  0  0  0  0
   10.9659  -20.6396   21.3821 S   0  0  0  0  0  0  0  0  0  0  0  0
   10.5802  -17.8513   20.3956 C   0  0  0  0  0  0  0  0  0  0  0  0
   11.6325  -17.5321   19.7550 O   0  0  0  0  0  0  0  0  0  0  0  0
    9.8930  -16.1611   24.2265 O   0  0  0  0  0  0  0  0  0  0  0  0
   10.3114  -15.3714   23.1652 C   0  0  0  0  0  0  0  0  0  0  0  0
   11.1003  -16.1752   22.1467 C   0  0  2  0  0  0  0  0  0  0  0  0
   10.2786  -17.2453   21.6207 N   0  0  0  0  0  0  0  0  0  0  0  0
   12.3679  -16.6819   22.7080 C   0  0  0  0  0  0  0  0  0  0  0  0
   12.4032  -17.8586   23.1900 O   0  0  0  0  0  0  0  0  0  0  0  0
   13.5712  -15.9579   22.7579 N   0  0  0  0  0  0  0  0  0  0  0  0
   14.7808  -16.4155   23.4188 C   0  0  1  0  0  0  0  0  0  0  0  0
   15.9389  -15.5136   23.2218 C   0  0  0  0  0  0  0  0  0  0  0  0
   17.1878  -16.2978   23.1976 C   0  0  0  0  0  0  0  0  0  0  0  0
   17.2875  -17.5326   23.3967 O   0  0  0  0  0  0  0  0  0  0  0  0
   14.4998  -16.5681   24.8654 C   0  0  0  0  0  0  0  0  0  0  0  0
   13.8117  -15.6959   25.4635 O   0  0  0  0  0  0  0  0  0  0  0  0
   18.3804  -15.6248   22.9306 O   0  0  0  0  0  0  0  0  0  0  0  0
   14.9415  -17.6223   25.6400 O   0  0  0  0  0  0  0  0  0  0  0  0
  2  5  1  0
  2  1  1  6
  3  2  1  0
  4  3  1  0
  5  6  2  0
  8  7  1  0
  9  8  1  1
 10  9  1  0
 10  5  1  0
 11 13  1  0
 11  9  1  0
 12 11  2  0
 14 13  1  0
 14 15  1  1
 15 16  1  0
 16 20  1  0
 16 17  2  0
 18 14  1  0
 19 18  2  0
 21 18  1  0
M  END
$$$$
