CSD.pdb
     RDKit          3D

 21 20  0  0  1  0  0  0  0  0999 V2000
    7.9075  -14.2417   18.2669 N   0  0  0  0  0  0  0  0  0  0  0  0
    9.1401  -13.5978   18.6193 C   0  0  1  0  0  0  0  0  0  0  0  0
    8.8822  -12.8210   19.9127 C   0  0  0  0  0  0  0  0  0  0  0  0
    7.8062  -11.4213   19.4861 S   0  0  0  0  0  0  0  0  0  0  0  0
   10.2303  -14.5691   18.9150 C   0  0  0  0  0  0  0  0  0  0  0  0
    9.8486  -15.6577   19.4526 O   0  0  0  0  0  0  0  0  0  0  0  0
   14.2507  -14.3197   17.4956 O   0  0  0  0  0  0  0  0  0  0  0  0
   13.4905  -15.4711   17.6420 C   0  0  0  0  0  0  0  0  0  0  0  0
   12.5705  -15.3847   18.8470 C   0  0  2  0  0  0  0  0  0  0  0  0
   11.5842  -14.3447   18.6400 N   0  0  0  0  0  0  0  0  0  0  0  0
   13.3233  -15.1852   20.1009 C   0  0  0  0  0  0  0  0  0  0  0  0
   13.4851  -14.0033   20.5427 O   0  0  0  0  0  0  0  0  0  0  0  0
   13.8924  -16.2149   20.8692 N   0  0  0  0  0  0  0  0  0  0  0  0
   14.6222  -16.0109   22.1082 C   0  0  1  0  0  0  0  0  0  0  0  0
   14.5290  -17.1550   23.0440 C   0  0  0  0  0  0  0  0  0  0  0  0
   15.2971  -16.8653   24.2694 C   0  0  0  0  0  0  0  0  0  0  0  0
   16.2635  -17.5336   24.7096 O   0  0  0  0  0  0  0  0  0  0  0  0
   16.0416  -15.7401   21.7811 C   0  0  0  0  0  0  0  0  0  0  0  0
   16.5691  -16.2971   20.7794 O   0  0  0  0  0  0  0  0  0  0  0  0
   14.9328  -15.7499   25.0241 O   0  0  0  0  0  0  0  0  0  0  0  0
   16.8631  -14.8986   22.5046 O   0  0  0  0  0  0  0  0  0  0  0  0
  2  5  1  0
  2  1  1  1
  3  2  1  0
  4  3  1  0
  5  6  2  0
  8  7  1  0
  9  8  1  6
 10  9  1  0
 10  5  1  0
 11 13  1  0
 11  9  1  0
 12 11  2  0
 14 13  1  0
 14 15  1  1
 15 16  1  0
 16 20  1  0
 16 17  2  0
 18 14  1  0
 19 18  2  0
 21 18  1  0
M  END
$$$$
