CSD.pdb
     RDKit          3D

 21 20  0  0  1  0  0  0  0  0999 V2000
    7.6459  -13.4587   17.3175 N   0  0  0  0  0  0  0  0  0  0  0  0
    8.6261  -14.4932   17.4819 C   0  0  1  0  0  0  0  0  0  0  0  0
    9.5424  -14.4364   16.2571 C   0  0  0  0  0  0  0  0  0  0  0  0
   10.7801  -15.7504   16.4583 S   0  0  0  0  0  0  0  0  0  0  0  0
    9.4932  -14.2775   18.6739 C   0  0  0  0  0  0  0  0  0  0  0  0
    9.7728  -13.0609   18.9216 O   0  0  0  0  0  0  0  0  0  0  0  0
   10.7367  -15.2706   23.0700 O   0  0  0  0  0  0  0  0  0  0  0  0
   10.0394  -15.5514   21.9038 C   0  0  0  0  0  0  0  0  0  0  0  0
   10.7544  -15.0075   20.6796 C   0  0  2  0  0  0  0  0  0  0  0  0
    9.9859  -15.3036   19.4884 N   0  0  0  0  0  0  0  0  0  0  0  0
   12.1375  -15.5133   20.5801 C   0  0  0  0  0  0  0  0  0  0  0  0
   12.3448  -16.6399   20.0269 O   0  0  0  0  0  0  0  0  0  0  0  0
   13.2756  -14.8407   21.0564 N   0  0  0  0  0  0  0  0  0  0  0  0
   14.6199  -15.3903   21.0501 C   0  0  1  0  0  0  0  0  0  0  0  0
   15.6210  -14.4954   20.4254 C   0  0  0  0  0  0  0  0  0  0  0  0
   15.4592  -14.5067   18.9594 C   0  0  0  0  0  0  0  0  0  0  0  0
   15.4166  -15.5265   18.2297 O   0  0  0  0  0  0  0  0  0  0  0  0
   15.0134  -15.6920   22.4462 C   0  0  0  0  0  0  0  0  0  0  0  0
   16.1577  -16.1673   22.6839 O   0  0  0  0  0  0  0  0  0  0  0  0
   15.3407  -13.2814   18.3027 O   0  0  0  0  0  0  0  0  0  0  0  0
   14.2053  -15.4876   23.5470 O   0  0  0  0  0  0  0  0  0  0  0  0
  2  5  1  0
  2  1  1  6
  3  2  1  0
  4  3  1  0
  5  6  2  0
  8  7  1  0
  9  8  1  1
 10  9  1  0
 10  5  1  0
 11 13  1  0
 11  9  1  0
 12 11  2  0
 14 13  1  0
 14 15  1  1
 15 16  1  0
 16 20  1  0
 16 17  2  0
 18 14  1  0
 19 18  2  0
 21 18  1  0
M  END
$$$$
