CSD.pdb
     RDKit          3D

 21 20  0  0  1  0  0  0  0  0999 V2000
   10.9636  -17.6813   18.0085 N   0  0  0  0  0  0  0  0  0  0  0  0
   11.1788  -18.2975   19.2860 C   0  0  1  0  0  0  0  0  0  0  0  0
   12.1279  -19.4764   19.0569 C   0  0  0  0  0  0  0  0  0  0  0  0
   12.2968  -20.3389   20.6464 S   0  0  0  0  0  0  0  0  0  0  0  0
   11.8534  -17.3886   20.2546 C   0  0  0  0  0  0  0  0  0  0  0  0
   12.8315  -16.7274   19.7792 O   0  0  0  0  0  0  0  0  0  0  0  0
   10.6435  -16.8136   24.2619 O   0  0  0  0  0  0  0  0  0  0  0  0
   11.1895  -15.7805   23.5138 C   0  0  0  0  0  0  0  0  0  0  0  0
   12.1534  -16.3004   22.4619 C   0  0  2  0  0  0  0  0  0  0  0  0
   11.4751  -17.2405   21.5940 N   0  0  0  0  0  0  0  0  0  0  0  0
   13.3644  -16.8881   23.0677 C   0  0  0  0  0  0  0  0  0  0  0  0
   13.4132  -18.1453   23.2554 O   0  0  0  0  0  0  0  0  0  0  0  0
   14.4982  -16.1599   23.4662 N   0  0  0  0  0  0  0  0  0  0  0  0
   15.6050  -16.7111   24.2282 C   0  0  1  0  0  0  0  0  0  0  0  0
   16.8391  -15.8959   24.1512 C   0  0  0  0  0  0  0  0  0  0  0  0
   17.3031  -15.8181   22.7533 C   0  0  0  0  0  0  0  0  0  0  0  0
   17.0162  -16.6233   21.8348 O   0  0  0  0  0  0  0  0  0  0  0  0
   15.1811  -16.8538   25.6406 C   0  0  0  0  0  0  0  0  0  0  0  0
   15.9286  -17.4562   26.4593 O   0  0  0  0  0  0  0  0  0  0  0  0
   18.1391  -14.7593   22.3973 O   0  0  0  0  0  0  0  0  0  0  0  0
   13.9965  -16.3643   26.1540 O   0  0  0  0  0  0  0  0  0  0  0  0
  2  5  1  0
  2  1  1  6
  3  2  1  0
  4  3  1  0
  5  6  2  0
  8  7  1  0
  9  8  1  1
 10  9  1  0
 10  5  1  0
 11 13  1  0
 11  9  1  0
 12 11  2  0
 14 13  1  0
 14 15  1  1
 15 16  1  0
 16 20  1  0
 16 17  2  0
 18 14  1  0
 19 18  2  0
 21 18  1  0
M  END
$$$$
