CSD.pdb
     RDKit          3D

 21 20  0  0  1  0  0  0  0  0999 V2000
    5.6349  -14.0246   26.2405 N   0  0  0  0  0  0  0  0  0  0  0  0
    6.6479  -13.5356   25.3502 C   0  0  1  0  0  0  0  0  0  0  0  0
    7.5359  -12.5902   26.1631 C   0  0  0  0  0  0  0  0  0  0  0  0
    6.5387  -11.1206   26.5436 S   0  0  0  0  0  0  0  0  0  0  0  0
    7.5336  -14.6188   24.8389 C   0  0  0  0  0  0  0  0  0  0  0  0
    7.8363  -15.5130   25.6925 O   0  0  0  0  0  0  0  0  0  0  0  0
    9.1006  -14.7534   20.9488 O   0  0  0  0  0  0  0  0  0  0  0  0
    8.7280  -15.9373   21.5690 C   0  0  0  0  0  0  0  0  0  0  0  0
    8.8009  -15.8237   23.0814 C   0  0  2  0  0  0  0  0  0  0  0  0
    8.0199  -14.6890   23.5283 N   0  0  0  0  0  0  0  0  0  0  0  0
   10.1950  -15.7533   23.5614 C   0  0  0  0  0  0  0  0  0  0  0  0
   10.7101  -14.6145   23.7976 O   0  0  0  0  0  0  0  0  0  0  0  0
   11.0250  -16.8649   23.7855 N   0  0  0  0  0  0  0  0  0  0  0  0
   12.4120  -16.7849   24.2090 C   0  0  1  0  0  0  0  0  0  0  0  0
   12.9625  -18.0781   24.6759 C   0  0  0  0  0  0  0  0  0  0  0  0
   12.4120  -18.4081   26.0039 C   0  0  0  0  0  0  0  0  0  0  0  0
   12.3809  -19.5480   26.5271 O   0  0  0  0  0  0  0  0  0  0  0  0
   13.2214  -16.2693   23.0804 C   0  0  0  0  0  0  0  0  0  0  0  0
   12.8697  -16.5180   21.8944 O   0  0  0  0  0  0  0  0  0  0  0  0
   11.8710  -17.3722   26.7660 O   0  0  0  0  0  0  0  0  0  0  0  0
   14.3668  -15.5115   23.2227 O   0  0  0  0  0  0  0  0  0  0  0  0
  2  5  1  0
  2  1  1  1
  3  2  1  0
  4  3  1  0
  5  6  2  0
  8  7  1  0
  9  8  1  6
 10  9  1  0
 10  5  1  0
 11 13  1  0
 11  9  1  0
 12 11  2  0
 14 13  1  0
 14 15  1  6
 15 16  1  0
 16 20  1  0
 16 17  2  0
 18 14  1  0
 19 18  2  0
 21 18  1  0
M  END
$$$$
