CSD.pdb
     RDKit          3D

 21 20  0  0  1  0  0  0  0  0999 V2000
   -1.8709  -22.8738   22.3923 N   0  0  0  0  0  0  0  0  0  0  0  0
   -2.9241  -22.2337   23.1265 C   0  0  1  0  0  0  0  0  0  0  0  0
   -4.0300  -21.9032   22.1211 C   0  0  0  0  0  0  0  0  0  0  0  0
   -3.3264  -20.7331   20.9233 S   0  0  0  0  0  0  0  0  0  0  0  0
   -3.5327  -23.1265   24.1522 C   0  0  0  0  0  0  0  0  0  0  0  0
   -3.1772  -24.3464   24.0814 O   0  0  0  0  0  0  0  0  0  0  0  0
   -3.3327  -22.9456   27.8757 O   0  0  0  0  0  0  0  0  0  0  0  0
   -3.7335  -23.9995   27.0671 C   0  0  0  0  0  0  0  0  0  0  0  0
   -4.8927  -23.6061   26.1688 C   0  0  2  0  0  0  0  0  0  0  0  0
   -4.4311  -22.7005   25.1373 N   0  0  0  0  0  0  0  0  0  0  0  0
   -6.0157  -23.0349   26.9379 C   0  0  0  0  0  0  0  0  0  0  0  0
   -6.0331  -21.7842   27.1690 O   0  0  0  0  0  0  0  0  0  0  0  0
   -7.0959  -23.7727   27.4511 N   0  0  0  0  0  0  0  0  0  0  0  0
   -8.2378  -23.1929   28.1362 C   0  0  1  0  0  0  0  0  0  0  0  0
   -9.5002  -23.2921   27.3682 C   0  0  0  0  0  0  0  0  0  0  0  0
  -10.6086  -22.7077   28.1464 C   0  0  0  0  0  0  0  0  0  0  0  0
  -10.6986  -21.5132   28.5194 O   0  0  0  0  0  0  0  0  0  0  0  0
   -8.3910  -23.8626   29.4488 C   0  0  0  0  0  0  0  0  0  0  0  0
   -7.9972  -25.0526   29.5928 O   0  0  0  0  0  0  0  0  0  0  0  0
  -11.6652  -23.5422   28.5121 O   0  0  0  0  0  0  0  0  0  0  0  0
   -8.9461  -23.2723   30.5668 O   0  0  0  0  0  0  0  0  0  0  0  0
  2  5  1  0
  2  1  1  6
  3  2  1  0
  4  3  1  0
  5  6  2  0
  8  7  1  0
  9  8  1  1
 10  9  1  0
 10  5  1  0
 11 13  1  0
 11  9  1  0
 12 11  2  0
 14 13  1  0
 14 15  1  6
 15 16  1  0
 16 20  1  0
 16 17  2  0
 18 14  1  0
 19 18  2  0
 21 18  1  0
M  END
$$$$
