CSD.pdb
     RDKit          3D

 21 20  0  0  1  0  0  0  0  0999 V2000
    7.8288  -12.8106   18.1171 N   0  0  0  0  0  0  0  0  0  0  0  0
    7.5244  -13.9348   18.9547 C   0  0  1  0  0  0  0  0  0  0  0  0
    8.0452  -15.1806   18.2337 C   0  0  0  0  0  0  0  0  0  0  0  0
    7.6575  -16.6065   19.2898 S   0  0  0  0  0  0  0  0  0  0  0  0
    8.2251  -13.8777   20.2681 C   0  0  0  0  0  0  0  0  0  0  0  0
    9.4293  -13.4691   20.2171 O   0  0  0  0  0  0  0  0  0  0  0  0
    6.6675  -15.3082   23.9646 O   0  0  0  0  0  0  0  0  0  0  0  0
    7.4845  -14.1880   23.9128 C   0  0  0  0  0  0  0  0  0  0  0  0
    8.4164  -14.2301   22.7147 C   0  0  2  0  0  0  0  0  0  0  0  0
    7.6437  -14.2359   21.4899 N   0  0  0  0  0  0  0  0  0  0  0  0
    9.3474  -15.3735   22.7815 C   0  0  0  0  0  0  0  0  0  0  0  0
    9.1445  -16.3800   22.0305 O   0  0  0  0  0  0  0  0  0  0  0  0
   10.4683  -15.4491   23.6256 N   0  0  0  0  0  0  0  0  0  0  0  0
   11.3654  -16.5886   23.7033 C   0  0  1  0  0  0  0  0  0  0  0  0
   12.7787  -16.2482   23.4203 C   0  0  0  0  0  0  0  0  0  0  0  0
   13.6212  -17.4517   23.5517 C   0  0  0  0  0  0  0  0  0  0  0  0
   14.6306  -17.5690   24.2875 O   0  0  0  0  0  0  0  0  0  0  0  0
   11.2508  -17.1888   25.0530 C   0  0  0  0  0  0  0  0  0  0  0  0
   10.7198  -16.5279   25.9875 O   0  0  0  0  0  0  0  0  0  0  0  0
   13.2825  -18.5754   22.7971 O   0  0  0  0  0  0  0  0  0  0  0  0
   11.6899  -18.4551   25.3846 O   0  0  0  0  0  0  0  0  0  0  0  0
  2  5  1  0
  2  1  1  6
  3  2  1  0
  4  3  1  0
  5  6  2  0
  8  7  1  0
  9  8  1  1
 10  9  1  0
 10  5  1  0
 11 13  1  0
 11  9  1  0
 12 11  2  0
 14 13  1  0
 14 15  1  1
 15 16  1  0
 16 20  1  0
 16 17  2  0
 18 14  1  0
 19 18  2  0
 21 18  1  0
M  END
$$$$
