LRR.pdb
     RDKit          3D

 31 30  0  0  1  0  0  0  0  0999 V2000
   26.7876  -19.2578   -7.2223 C   0  0  0  0  0  0  0  0  0  0  0  0
   26.6275  -20.4330   -8.1473 C   0  0  1  0  0  0  0  0  0  0  0  0
   25.2327  -21.0242   -7.9807 C   0  0  0  0  0  0  0  0  0  0  0  0
   26.7877  -19.9939   -9.5769 C   0  0  0  0  0  0  0  0  0  0  0  0
   26.8903  -21.1687  -10.4920 C   0  0  2  0  0  0  0  0  0  0  0  0
   28.0321  -22.0019  -10.2489 N   0  0  0  0  0  0  0  0  0  0  0  0
   26.8765  -20.6761  -11.9069 C   0  0  0  0  0  0  0  0  0  0  0  0
   27.8445  -19.9130  -12.2516 O   0  0  0  0  0  0  0  0  0  0  0  0
   24.2538  -26.3382  -16.0599 N   0  0  0  0  0  0  0  0  0  0  0  0
   23.9452  -25.2929  -16.9668 C   0  0  0  0  0  0  0  0  0  0  0  0
   22.9593  -25.4138  -17.8072 N   0  0  0  0  0  0  0  0  0  0  0  0
   24.7276  -24.0936  -16.9566 N   0  0  0  0  0  0  0  0  0  0  0  0
   25.7462  -23.8797  -15.9487 C   0  0  0  0  0  0  0  0  0  0  0  0
   25.2510  -22.7722  -14.9974 C   0  0  0  0  0  0  0  0  0  0  0  0
   26.1526  -21.5972  -15.1018 C   0  0  0  0  0  0  0  0  0  0  0  0
   25.8964  -20.4622  -14.1628 C   0  0  2  0  0  0  0  0  0  0  0  0
   25.8598  -21.0265  -12.8196 N   0  0  0  0  0  0  0  0  0  0  0  0
   24.7094  -19.6546  -14.4153 C   0  0  0  0  0  0  0  0  0  0  0  0
   23.5860  -20.0903  -13.9796 O   0  0  0  0  0  0  0  0  0  0  0  0
   22.7012  -24.6328  -18.4255 N   0  0  0  0  0  0  0  0  0  0  0  0
   21.8031  -11.7456  -16.7104 C   0  0  0  0  0  0  0  0  0  0  0  0
   20.7556  -12.4773  -16.1074 N   0  0  0  0  0  0  0  0  0  0  0  0
   19.5215  -12.0422  -16.1020 N   0  0  0  0  0  0  0  0  0  0  0  0
   20.9951  -13.7367  -15.4697 C   0  0  0  0  0  0  0  0  0  0  0  0
   22.3213  -14.2830  -15.4283 C   0  0  0  0  0  0  0  0  0  0  0  0
   22.3797  -15.6075  -16.2021 C   0  0  0  0  0  0  0  0  0  0  0  0
   23.6448  -16.3366  -15.8673 C   0  0  1  0  0  0  0  0  0  0  0  0
   23.3888  -17.6971  -15.3449 N   0  0  0  0  0  0  0  0  0  0  0  0
   24.6520  -18.4146  -15.0997 C   0  0  0  0  0  0  0  0  0  0  0  0
   22.5301  -18.4715  -16.2521 O   0  0  0  0  0  0  0  0  0  0  0  0
   21.1496  -18.4543  -16.1089 O   0  0  0  0  0  0  0  0  0  0  0  0
  2  1  1  1
  3  2  1  0
  4  2  1  0
  5  4  1  0
  5  6  1  1
  7  8  2  0
  7  5  1  0
 10  9  1  0
 10 11  2  0
 12 10  1  0
 13 12  1  0
 13 14  1  0
 14 15  1  0
 16 15  1  6
 16 17  1  0
 17  7  1  0
 18 16  1  0
 18 19  2  0
 20 21  1  0
 21 22  2  0
 23 24  1  0
 23 21  1  0
 25 24  1  0
 26 25  1  0
 27 28  1  0
 27 26  1  1
 28 18  1  0
 29 27  1  0
 30 29  1  0
 31 29  2  0
M  END
$$$$
