LRR.pdb
     RDKit          3D

 31 30  0  0  1  0  0  0  0  0999 V2000
   28.6504  -21.1503   -4.0130 C   0  0  0  0  0  0  0  0  0  0  0  0
   28.2867  -20.0991   -5.0255 C   0  0  1  0  0  0  0  0  0  0  0  0
   29.4936  -19.2055   -5.2858 C   0  0  0  0  0  0  0  0  0  0  0  0
   27.8875  -20.7450   -6.3238 C   0  0  0  0  0  0  0  0  0  0  0  0
   27.5872  -19.7185   -7.3651 C   0  0  2  0  0  0  0  0  0  0  0  0
   26.7336  -18.6584   -6.9127 N   0  0  0  0  0  0  0  0  0  0  0  0
   27.0017  -20.4063   -8.5605 C   0  0  0  0  0  0  0  0  0  0  0  0
   27.6341  -21.4323   -8.9912 O   0  0  0  0  0  0  0  0  0  0  0  0
   21.8489  -21.0269  -14.5907 N   0  0  0  0  0  0  0  0  0  0  0  0
   21.2042  -22.0064  -13.7936 C   0  0  0  0  0  0  0  0  0  0  0  0
   20.6029  -23.0196  -14.3457 N   0  0  0  0  0  0  0  0  0  0  0  0
   21.2156  -21.8773  -12.3675 N   0  0  0  0  0  0  0  0  0  0  0  0
   21.8573  -20.7461  -11.7291 C   0  0  0  0  0  0  0  0  0  0  0  0
   23.3829  -20.9306  -11.8529 C   0  0  0  0  0  0  0  0  0  0  0  0
   24.0127  -20.7067  -10.5271 C   0  0  0  0  0  0  0  0  0  0  0  0
   25.4890  -20.4698  -10.5107 C   0  0  2  0  0  0  0  0  0  0  0  0
   25.8192  -19.9594   -9.1862 N   0  0  0  0  0  0  0  0  0  0  0  0
   26.0270  -19.5984  -11.5480 C   0  0  0  0  0  0  0  0  0  0  0  0
   25.3313  -18.5792  -11.8929 O   0  0  0  0  0  0  0  0  0  0  0  0
   20.0669  -23.6849  -13.7721 N   0  0  0  0  0  0  0  0  0  0  0  0
   27.5011  -23.2725  -18.0219 C   0  0  0  0  0  0  0  0  0  0  0  0
   28.8814  -22.9859  -18.1163 N   0  0  0  0  0  0  0  0  0  0  0  0
   29.5044  -22.9545  -19.2666 N   0  0  0  0  0  0  0  0  0  0  0  0
   29.6691  -22.7146  -16.9519 C   0  0  0  0  0  0  0  0  0  0  0  0
   29.0733  -22.7763  -15.6481 C   0  0  0  0  0  0  0  0  0  0  0  0
   28.1563  -21.5664  -15.4200 C   0  0  0  0  0  0  0  0  0  0  0  0
   28.0571  -21.2726  -13.9545 C   0  0  1  0  0  0  0  0  0  0  0  0
   27.3390  -20.0081  -13.6814 N   0  0  0  0  0  0  0  0  0  0  0  0
   27.2588  -19.7489  -12.2333 C   0  0  0  0  0  0  0  0  0  0  0  0
   25.9942  -20.0115  -14.2741 O   0  0  0  0  0  0  0  0  0  0  0  0
   25.6482  -19.0899  -15.2527 O   0  0  0  0  0  0  0  0  0  0  0  0
  2  1  1  1
  3  2  1  0
  4  2  1  0
  5  4  1  0
  5  6  1  1
  7  8  2  0
  7  5  1  0
 10  9  1  0
 10 11  2  0
 12 10  1  0
 13 12  1  0
 13 14  1  0
 14 15  1  0
 16 15  1  1
 16 17  1  0
 17  7  1  0
 18 16  1  0
 18 19  2  0
 20 21  1  0
 21 22  2  0
 23 24  1  0
 23 21  1  0
 25 24  1  0
 26 25  1  0
 27 28  1  0
 27 26  1  6
 28 18  1  0
 29 27  1  0
 30 29  1  0
 31 29  2  0
M  END
$$$$
