LRR.pdb
     RDKit          3D

 31 30  0  0  1  0  0  0  0  0999 V2000
   29.3949  -20.6827   -6.6991 C   0  0  0  0  0  0  0  0  0  0  0  0
   27.9011  -20.6391   -6.8695 C   0  0  1  0  0  0  0  0  0  0  0  0
   27.3025  -19.6691   -5.8579 C   0  0  0  0  0  0  0  0  0  0  0  0
   27.5501  -20.1585   -8.2508 C   0  0  0  0  0  0  0  0  0  0  0  0
   26.0751  -20.2014   -8.4764 C   0  0  2  0  0  0  0  0  0  0  0  0
   25.4187  -21.3101   -7.8463 N   0  0  0  0  0  0  0  0  0  0  0  0
   25.8161  -20.1920   -9.9521 C   0  0  0  0  0  0  0  0  0  0  0  0
   26.3132  -19.2127  -10.6093 O   0  0  0  0  0  0  0  0  0  0  0  0
   26.4994  -23.3758  -17.0989 N   0  0  0  0  0  0  0  0  0  0  0  0
   27.2788  -23.8023  -15.9939 C   0  0  0  0  0  0  0  0  0  0  0  0
   28.5398  -24.0865  -16.1423 N   0  0  0  0  0  0  0  0  0  0  0  0
   26.6703  -23.9215  -14.7031 N   0  0  0  0  0  0  0  0  0  0  0  0
   25.2287  -23.9400  -14.5602 C   0  0  0  0  0  0  0  0  0  0  0  0
   24.7784  -22.5444  -14.0846 C   0  0  0  0  0  0  0  0  0  0  0  0
   25.1264  -22.3795  -12.6507 C   0  0  0  0  0  0  0  0  0  0  0  0
   24.7875  -21.0674  -12.0188 C   0  0  2  0  0  0  0  0  0  0  0  0
   25.0682  -21.2004  -10.5949 N   0  0  0  0  0  0  0  0  0  0  0  0
   23.4366  -20.5634  -12.2332 C   0  0  0  0  0  0  0  0  0  0  0  0
   22.5362  -20.8845  -11.3801 O   0  0  0  0  0  0  0  0  0  0  0  0
   28.9974  -23.9701  -17.0567 N   0  0  0  0  0  0  0  0  0  0  0  0
   17.6631  -15.8654  -14.6888 C   0  0  0  0  0  0  0  0  0  0  0  0
   18.7409  -15.1354  -15.2380 N   0  0  0  0  0  0  0  0  0  0  0  0
   18.7979  -13.8298  -15.1707 N   0  0  0  0  0  0  0  0  0  0  0  0
   19.8283  -15.7923  -15.8983 C   0  0  0  0  0  0  0  0  0  0  0  0
   19.8203  -17.2185  -16.0557 C   0  0  0  0  0  0  0  0  0  0  0  0
   20.0030  -17.9087  -14.6967 C   0  0  0  0  0  0  0  0  0  0  0  0
   21.4247  -18.3538  -14.5395 C   0  0  2  0  0  0  0  0  0  0  0  0
   21.5739  -19.4085  -13.5126 N   0  0  0  0  0  0  0  0  0  0  0  0
   22.9935  -19.7389  -13.2978 C   0  0  0  0  0  0  0  0  0  0  0  0
   20.8167  -20.6175  -13.8657 O   0  0  0  0  0  0  0  0  0  0  0  0
   19.6329  -20.9292  -13.2113 O   0  0  0  0  0  0  0  0  0  0  0  0
  2  1  1  6
  3  2  1  0
  4  2  1  0
  5  4  1  0
  5  6  1  6
  7  8  2  0
  7  5  1  0
 10  9  1  0
 10 11  2  0
 12 10  1  0
 13 12  1  0
 13 14  1  0
 14 15  1  0
 16 15  1  6
 16 17  1  0
 17  7  1  0
 18 16  1  0
 18 19  2  0
 20 21  1  0
 21 22  2  0
 23 24  1  0
 23 21  1  0
 25 24  1  0
 26 25  1  0
 27 28  1  0
 27 26  1  1
 28 18  1  0
 29 27  1  0
 30 29  1  0
 31 29  2  0
M  END
$$$$
