LRR.pdb
     RDKit          3D

 31 30  0  0  1  0  0  0  0  0999 V2000
   28.8738  -19.8747   -5.2424 C   0  0  0  0  0  0  0  0  0  0  0  0
   27.5693  -20.1560   -5.9364 C   0  0  1  0  0  0  0  0  0  0  0  0
   26.4692  -19.3040   -5.3148 C   0  0  0  0  0  0  0  0  0  0  0  0
   27.6717  -19.8056   -7.3956 C   0  0  0  0  0  0  0  0  0  0  0  0
   26.3826  -20.0645   -8.1024 C   0  0  2  0  0  0  0  0  0  0  0  0
   25.8347  -21.3679   -7.8617 N   0  0  0  0  0  0  0  0  0  0  0  0
   26.5848  -19.8292   -9.5682 C   0  0  0  0  0  0  0  0  0  0  0  0
   26.6827  -18.6081   -9.9388 O   0  0  0  0  0  0  0  0  0  0  0  0
   32.7525  -22.8536  -13.8434 N   0  0  0  0  0  0  0  0  0  0  0  0
   32.6435  -22.8282  -12.4300 C   0  0  0  0  0  0  0  0  0  0  0  0
   33.7056  -22.8986  -11.6817 N   0  0  0  0  0  0  0  0  0  0  0  0
   31.3512  -22.7246  -11.8220 N   0  0  0  0  0  0  0  0  0  0  0  0
   30.1633  -22.5349  -12.6295 C   0  0  0  0  0  0  0  0  0  0  0  0
   29.3081  -21.4351  -11.9693 C   0  0  0  0  0  0  0  0  0  0  0  0
   27.8955  -21.5879  -12.4003 C   0  0  0  0  0  0  0  0  0  0  0  0
   26.9214  -20.5703  -11.8991 C   0  0  2  0  0  0  0  0  0  0  0  0
   26.6655  -20.8855  -10.4994 N   0  0  0  0  0  0  0  0  0  0  0  0
   25.6701  -20.4389  -12.6352 C   0  0  0  0  0  0  0  0  0  0  0  0
   24.7037  -21.2169  -12.3153 O   0  0  0  0  0  0  0  0  0  0  0  0
   33.6243  -22.8786  -10.6562 N   0  0  0  0  0  0  0  0  0  0  0  0
   22.0403  -15.9138  -19.1027 C   0  0  0  0  0  0  0  0  0  0  0  0
   20.9157  -16.1529  -18.2815 N   0  0  0  0  0  0  0  0  0  0  0  0
   19.6930  -15.9856  -18.7167 N   0  0  0  0  0  0  0  0  0  0  0  0
   21.0603  -16.5921  -16.9264 C   0  0  0  0  0  0  0  0  0  0  0  0
   22.3657  -16.7115  -16.3428 C   0  0  0  0  0  0  0  0  0  0  0  0
   22.5593  -18.1120  -15.7446 C   0  0  0  0  0  0  0  0  0  0  0  0
   23.8762  -18.1838  -15.0341 C   0  0  2  0  0  0  0  0  0  0  0  0
   24.0973  -19.4975  -14.3902 N   0  0  0  0  0  0  0  0  0  0  0  0
   25.3907  -19.5287  -13.6855 C   0  0  0  0  0  0  0  0  0  0  0  0
   24.0201  -20.5960  -15.3634 O   0  0  0  0  0  0  0  0  0  0  0  0
   22.8039  -21.1943  -15.6625 O   0  0  0  0  0  0  0  0  0  0  0  0
  2  1  1  1
  3  2  1  0
  4  2  1  0
  5  4  1  0
  5  6  1  6
  7  8  2  0
  7  5  1  0
 10  9  1  0
 10 11  2  0
 12 10  1  0
 13 12  1  0
 13 14  1  0
 14 15  1  0
 16 15  1  6
 16 17  1  0
 17  7  1  0
 18 16  1  0
 18 19  2  0
 20 21  1  0
 21 22  2  0
 23 24  1  0
 23 21  1  0
 25 24  1  0
 26 25  1  0
 27 28  1  0
 27 26  1  1
 28 18  1  0
 29 27  1  0
 30 29  1  0
 31 29  2  0
M  END
$$$$
