LRR.pdb
     RDKit          3D

 31 30  0  0  1  0  0  0  0  0999 V2000
   30.0487  -22.8302  -17.8421 C   0  0  0  0  0  0  0  0  0  0  0  0
   29.2941  -21.6099  -17.3904 C   0  0  1  0  0  0  0  0  0  0  0  0
   28.5804  -20.9839  -18.5827 C   0  0  0  0  0  0  0  0  0  0  0  0
   28.2603  -21.9887  -16.3657 C   0  0  0  0  0  0  0  0  0  0  0  0
   27.5311  -20.7854  -15.8673 C   0  0  2  0  0  0  0  0  0  0  0  0
   28.3781  -19.6627  -15.5861 N   0  0  0  0  0  0  0  0  0  0  0  0
   26.7358  -21.1742  -14.6584 C   0  0  0  0  0  0  0  0  0  0  0  0
   25.9275  -22.1559  -14.8026 O   0  0  0  0  0  0  0  0  0  0  0  0
   28.3589  -19.2839   -6.4081 N   0  0  0  0  0  0  0  0  0  0  0  0
   27.1857  -20.0713   -6.2908 C   0  0  0  0  0  0  0  0  0  0  0  0
   26.7317  -20.4142   -5.1206 N   0  0  0  0  0  0  0  0  0  0  0  0
   26.4956  -20.4929   -7.4725 N   0  0  0  0  0  0  0  0  0  0  0  0
   26.5637  -19.7120   -8.6910 C   0  0  0  0  0  0  0  0  0  0  0  0
   25.8642  -20.5103   -9.8091 C   0  0  0  0  0  0  0  0  0  0  0  0
   26.6432  -20.3786  -11.0661 C   0  0  0  0  0  0  0  0  0  0  0  0
   26.0144  -20.9169  -12.3113 C   0  0  2  0  0  0  0  0  0  0  0  0
   26.8616  -20.5048  -13.4233 N   0  0  0  0  0  0  0  0  0  0  0  0
   24.6252  -20.5506  -12.5582 C   0  0  0  0  0  0  0  0  0  0  0  0
   24.3774  -19.3405  -12.8987 O   0  0  0  0  0  0  0  0  0  0  0  0
   25.8980  -21.0119   -5.0384 N   0  0  0  0  0  0  0  0  0  0  0  0
   17.0330  -23.9968  -13.8424 C   0  0  0  0  0  0  0  0  0  0  0  0
   16.9241  -22.9601  -14.7962 N   0  0  0  0  0  0  0  0  0  0  0  0
   15.7693  -22.5921  -15.2894 N   0  0  0  0  0  0  0  0  0  0  0  0
   18.0782  -22.2587  -15.2717 C   0  0  0  0  0  0  0  0  0  0  0  0
   19.3903  -22.6647  -14.8567 C   0  0  0  0  0  0  0  0  0  0  0  0
   20.0569  -21.5577  -14.0278 C   0  0  0  0  0  0  0  0  0  0  0  0
   21.4571  -21.9582  -13.6772 C   0  0  1  0  0  0  0  0  0  0  0  0
   22.1342  -20.9528  -12.8286 N   0  0  0  0  0  0  0  0  0  0  0  0
   23.4914  -21.3965  -12.4658 C   0  0  0  0  0  0  0  0  0  0  0  0
   21.3550  -20.6538  -11.6190 O   0  0  0  0  0  0  0  0  0  0  0  0
   20.3173  -19.7326  -11.6536 O   0  0  0  0  0  0  0  0  0  0  0  0
  2  1  1  6
  3  2  1  0
  4  2  1  0
  5  4  1  0
  5  6  1  1
  7  8  2  0
  7  5  1  0
 10  9  1  0
 10 11  2  0
 12 10  1  0
 13 12  1  0
 13 14  1  0
 14 15  1  0
 16 15  1  1
 16 17  1  0
 17  7  1  0
 18 16  1  0
 18 19  2  0
 20 21  1  0
 21 22  2  0
 23 24  1  0
 23 21  1  0
 25 24  1  0
 26 25  1  0
 27 28  1  0
 27 26  1  6
 28 18  1  0
 29 27  1  0
 30 29  1  0
 31 29  2  0
M  END
$$$$
