LRR.pdb
     RDKit          3D

 31 30  0  0  1  0  0  0  0  0999 V2000
   29.5419  -20.3203   -9.4360 C   0  0  0  0  0  0  0  0  0  0  0  0
   28.2848  -20.8832   -8.8316 C   0  0  1  0  0  0  0  0  0  0  0  0
   28.2556  -20.5735   -7.3397 C   0  0  0  0  0  0  0  0  0  0  0  0
   27.0760  -20.2548   -9.4690 C   0  0  0  0  0  0  0  0  0  0  0  0
   26.4138  -21.2010  -10.4148 C   0  0  2  0  0  0  0  0  0  0  0  0
   27.3261  -21.9346  -11.2434 N   0  0  0  0  0  0  0  0  0  0  0  0
   25.4294  -20.4363  -11.2461 C   0  0  0  0  0  0  0  0  0  0  0  0
   24.5169  -19.8052  -10.6080 O   0  0  0  0  0  0  0  0  0  0  0  0
   21.0423  -17.0537  -16.7512 N   0  0  0  0  0  0  0  0  0  0  0  0
   21.6582  -18.0001  -17.6087 C   0  0  0  0  0  0  0  0  0  0  0  0
   21.7001  -17.8014  -18.8940 N   0  0  0  0  0  0  0  0  0  0  0  0
   22.2385  -19.1855  -17.0534 N   0  0  0  0  0  0  0  0  0  0  0  0
   22.6896  -19.2172  -15.6770 C   0  0  0  0  0  0  0  0  0  0  0  0
   24.0939  -18.5836  -15.6203 C   0  0  0  0  0  0  0  0  0  0  0  0
   24.9639  -19.3985  -14.7352 C   0  0  0  0  0  0  0  0  0  0  0  0
   24.4141  -19.7599  -13.3926 C   0  0  2  0  0  0  0  0  0  0  0  0
   25.4933  -20.4041  -12.6548 N   0  0  0  0  0  0  0  0  0  0  0  0
   23.2126  -20.5850  -13.3740 C   0  0  0  0  0  0  0  0  0  0  0  0
   23.3268  -21.8153  -13.7131 O   0  0  0  0  0  0  0  0  0  0  0  0
   22.1547  -18.4856  -19.5137 N   0  0  0  0  0  0  0  0  0  0  0  0
   16.4725  -22.6573  -10.6626 C   0  0  0  0  0  0  0  0  0  0  0  0
   17.0174  -23.7951  -10.0263 N   0  0  0  0  0  0  0  0  0  0  0  0
   16.3174  -24.8845   -9.8384 N   0  0  0  0  0  0  0  0  0  0  0  0
   18.3689  -23.8110   -9.5540 C   0  0  0  0  0  0  0  0  0  0  0  0
   19.2187  -22.6738   -9.7623 C   0  0  0  0  0  0  0  0  0  0  0  0
   19.4980  -22.4804  -11.2594 C   0  0  0  0  0  0  0  0  0  0  0  0
   20.4200  -21.3166  -11.4585 C   0  0  2  0  0  0  0  0  0  0  0  0
   20.7820  -21.1223  -12.8799 N   0  0  0  0  0  0  0  0  0  0  0  0
   21.9036  -20.1765  -13.0142 C   0  0  0  0  0  0  0  0  0  0  0  0
   19.6321  -20.6656  -13.6729 O   0  0  0  0  0  0  0  0  0  0  0  0
   19.7053  -19.4992  -14.4216 O   0  0  0  0  0  0  0  0  0  0  0  0
  2  1  1  6
  3  2  1  0
  4  2  1  0
  5  4  1  0
  5  6  1  6
  7  8  2  0
  7  5  1  0
 10  9  1  0
 10 11  2  0
 12 10  1  0
 13 12  1  0
 13 14  1  0
 14 15  1  0
 16 15  1  6
 16 17  1  0
 17  7  1  0
 18 16  1  0
 18 19  2  0
 20 21  1  0
 21 22  2  0
 23 24  1  0
 23 21  1  0
 25 24  1  0
 26 25  1  0
 27 28  1  0
 27 26  1  1
 28 18  1  0
 29 27  1  0
 30 29  1  0
 31 29  2  0
M  END
$$$$
