LRR.pdb
     RDKit          3D

 31 30  0  0  1  0  0  0  0  0999 V2000
   16.0723  -27.2641    0.1138 C   0  0  0  0  0  0  0  0  0  0  0  0
   17.0678  -27.7541   -0.9018 C   0  0  1  0  0  0  0  0  0  0  0  0
   16.4558  -28.8975   -1.7022 C   0  0  0  0  0  0  0  0  0  0  0  0
   17.4244  -26.6468   -1.8553 C   0  0  0  0  0  0  0  0  0  0  0  0
   18.3428  -27.1344   -2.9261 C   0  0  2  0  0  0  0  0  0  0  0  0
   19.6682  -27.4354   -2.4681 N   0  0  0  0  0  0  0  0  0  0  0  0
   18.3731  -26.1206   -4.0290 C   0  0  0  0  0  0  0  0  0  0  0  0
   19.4689  -25.4762   -4.1775 O   0  0  0  0  0  0  0  0  0  0  0  0
   19.8688  -29.3016   -7.8872 N   0  0  0  0  0  0  0  0  0  0  0  0
   19.0078  -29.2911   -9.0136 C   0  0  0  0  0  0  0  0  0  0  0  0
   18.6044  -30.4057   -9.5502 N   0  0  0  0  0  0  0  0  0  0  0  0
   18.5795  -28.0409   -9.5649 N   0  0  0  0  0  0  0  0  0  0  0  0
   18.9036  -26.7900   -8.9096 C   0  0  0  0  0  0  0  0  0  0  0  0
   18.1725  -26.7586   -7.5528 C   0  0  0  0  0  0  0  0  0  0  0  0
   18.4643  -25.4737   -6.8685 C   0  0  0  0  0  0  0  0  0  0  0  0
   17.4036  -24.9327   -5.9640 C   0  0  2  0  0  0  0  0  0  0  0  0
   17.2632  -25.8799   -4.8654 N   0  0  0  0  0  0  0  0  0  0  0  0
   16.1077  -24.6468   -6.5672 C   0  0  0  0  0  0  0  0  0  0  0  0
   15.2671  -25.6091   -6.6622 O   0  0  0  0  0  0  0  0  0  0  0  0
   17.9424  -30.3967  -10.3380 N   0  0  0  0  0  0  0  0  0  0  0  0
   10.4956  -17.8242   -6.3812 C   0  0  0  0  0  0  0  0  0  0  0  0
    9.7681  -18.9781   -6.7494 N   0  0  0  0  0  0  0  0  0  0  0  0
    8.4598  -19.0023   -6.7441 N   0  0  0  0  0  0  0  0  0  0  0  0
   10.4309  -20.1831   -7.1480 C   0  0  0  0  0  0  0  0  0  0  0  0
   11.8495  -20.3156   -6.9780 C   0  0  0  0  0  0  0  0  0  0  0  0
   12.3176  -21.7024   -7.4411 C   0  0  0  0  0  0  0  0  0  0  0  0
   13.7902  -21.8463   -7.2072 C   0  0  2  0  0  0  0  0  0  0  0  0
   14.2894  -23.1902   -7.5733 N   0  0  0  0  0  0  0  0  0  0  0  0
   15.6580  -23.3999   -7.0698 C   0  0  0  0  0  0  0  0  0  0  0  0
   14.2417  -23.4071   -9.0261 O   0  0  0  0  0  0  0  0  0  0  0  0
   13.0434  -23.7063   -9.6594 O   0  0  0  0  0  0  0  0  0  0  0  0
  2  1  1  1
  3  2  1  0
  4  2  1  0
  5  4  1  0
  5  6  1  1
  7  8  2  0
  7  5  1  0
 10  9  1  0
 10 11  2  0
 12 10  1  0
 13 12  1  0
 13 14  1  0
 14 15  1  0
 16 15  1  6
 16 17  1  0
 17  7  1  0
 18 16  1  0
 18 19  2  0
 20 21  1  0
 21 22  2  0
 23 24  1  0
 23 21  1  0
 25 24  1  0
 26 25  1  0
 27 28  1  0
 27 26  1  1
 28 18  1  0
 29 27  1  0
 30 29  1  0
 31 29  2  0
M  END
$$$$
