LRR.pdb
     RDKit          3D

 31 30  0  0  1  0  0  0  0  0999 V2000
   27.3996  -12.9532  -18.3693 C   0  0  0  0  0  0  0  0  0  0  0  0
   26.8408  -13.4393  -17.0602 C   0  0  1  0  0  0  0  0  0  0  0  0
   25.5708  -12.6640  -16.7307 C   0  0  0  0  0  0  0  0  0  0  0  0
   26.4926  -14.8995  -17.1548 C   0  0  0  0  0  0  0  0  0  0  0  0
   25.8276  -15.3757  -15.9061 C   0  0  2  0  0  0  0  0  0  0  0  0
   26.6308  -15.2371  -14.7259 N   0  0  0  0  0  0  0  0  0  0  0  0
   25.4031  -16.7991  -16.1027 C   0  0  0  0  0  0  0  0  0  0  0  0
   24.5674  -17.0167  -17.0473 O   0  0  0  0  0  0  0  0  0  0  0  0
   30.2732  -23.9452  -15.7289 N   0  0  0  0  0  0  0  0  0  0  0  0
   29.0294  -24.4029  -16.2324 C   0  0  0  0  0  0  0  0  0  0  0  0
   28.8997  -25.6206  -16.6721 N   0  0  0  0  0  0  0  0  0  0  0  0
   27.9062  -23.5148  -16.2569 N   0  0  0  0  0  0  0  0  0  0  0  0
   28.0428  -22.1329  -15.8439 C   0  0  0  0  0  0  0  0  0  0  0  0
   26.6479  -21.4787  -15.8976 C   0  0  0  0  0  0  0  0  0  0  0  0
   26.7782  -20.0240  -15.6304 C   0  0  0  0  0  0  0  0  0  0  0  0
   25.5174  -19.2201  -15.6326 C   0  0  2  0  0  0  0  0  0  0  0  0
   25.8900  -17.8511  -15.2993 N   0  0  0  0  0  0  0  0  0  0  0  0
   24.4389  -19.6856  -14.7696 C   0  0  0  0  0  0  0  0  0  0  0  0
   24.5833  -19.5465  -13.5041 O   0  0  0  0  0  0  0  0  0  0  0  0
   28.0131  -25.9332  -17.0906 N   0  0  0  0  0  0  0  0  0  0  0  0
   19.2608  -24.9791  -12.6988 C   0  0  0  0  0  0  0  0  0  0  0  0
   18.2580  -24.0102  -12.4706 N   0  0  0  0  0  0  0  0  0  0  0  0
   17.4181  -24.1057  -11.4718 N   0  0  0  0  0  0  0  0  0  0  0  0
   18.1117  -22.8713  -13.3258 C   0  0  0  0  0  0  0  0  0  0  0  0
   19.1508  -22.5286  -14.2540 C   0  0  0  0  0  0  0  0  0  0  0  0
   19.8021  -21.1951  -13.8613 C   0  0  0  0  0  0  0  0  0  0  0  0
   20.8752  -20.8439  -14.8456 C   0  0  2  0  0  0  0  0  0  0  0  0
   22.2133  -20.7732  -14.2180 N   0  0  0  0  0  0  0  0  0  0  0  0
   23.2205  -20.2855  -15.1762 C   0  0  0  0  0  0  0  0  0  0  0  0
   22.6210  -22.0733  -13.6671 O   0  0  0  0  0  0  0  0  0  0  0  0
   22.5601  -22.3154  -12.3017 O   0  0  0  0  0  0  0  0  0  0  0  0
  2  1  1  6
  3  2  1  0
  4  2  1  0
  5  4  1  0
  5  6  1  1
  7  8  2  0
  7  5  1  0
 10  9  1  0
 10 11  2  0
 12 10  1  0
 13 12  1  0
 13 14  1  0
 14 15  1  0
 16 15  1  1
 16 17  1  0
 17  7  1  0
 18 16  1  0
 18 19  2  0
 20 21  1  0
 21 22  2  0
 23 24  1  0
 23 21  1  0
 25 24  1  0
 26 25  1  0
 27 28  1  0
 27 26  1  1
 28 18  1  0
 29 27  1  0
 30 29  1  0
 31 29  2  0
M  END
$$$$
