LRR.pdb
     RDKit          3D

 31 30  0  0  1  0  0  0  0  0999 V2000
   28.1010  -18.6744  -18.6316 C   0  0  0  0  0  0  0  0  0  0  0  0
   27.2564  -18.2900  -17.4479 C   0  0  1  0  0  0  0  0  0  0  0  0
   28.1427  -18.1476  -16.2163 C   0  0  0  0  0  0  0  0  0  0  0  0
   26.5804  -16.9701  -17.6994 C   0  0  0  0  0  0  0  0  0  0  0  0
   25.6101  -16.6471  -16.6121 C   0  0  2  0  0  0  0  0  0  0  0  0
   24.9808  -17.7965  -16.0289 N   0  0  0  0  0  0  0  0  0  0  0  0
   24.5895  -15.6909  -17.1497 C   0  0  0  0  0  0  0  0  0  0  0  0
   25.0393  -14.7019  -17.8261 O   0  0  0  0  0  0  0  0  0  0  0  0
   16.4204  -17.1559  -19.8909 N   0  0  0  0  0  0  0  0  0  0  0  0
   16.5774  -15.7549  -20.0424 C   0  0  0  0  0  0  0  0  0  0  0  0
   15.6753  -15.0497  -20.6605 N   0  0  0  0  0  0  0  0  0  0  0  0
   17.7407  -15.1118  -19.5099 N   0  0  0  0  0  0  0  0  0  0  0  0
   18.8092  -15.8859  -18.9115 C   0  0  0  0  0  0  0  0  0  0  0  0
   19.9406  -14.9147  -18.5200 C   0  0  0  0  0  0  0  0  0  0  0  0
   21.0804  -15.6881  -17.9658 C   0  0  0  0  0  0  0  0  0  0  0  0
   22.2791  -14.9079  -17.5297 C   0  0  2  0  0  0  0  0  0  0  0  0
   23.2063  -15.8595  -16.9309 N   0  0  0  0  0  0  0  0  0  0  0  0
   22.0418  -13.7844  -16.6317 C   0  0  0  0  0  0  0  0  0  0  0  0
   21.8073  -14.0434  -15.3989 O   0  0  0  0  0  0  0  0  0  0  0  0
   15.7844  -14.0311  -20.7571 N   0  0  0  0  0  0  0  0  0  0  0  0
   24.1055   -5.4471  -17.3111 C   0  0  0  0  0  0  0  0  0  0  0  0
   24.6802   -6.7352  -17.2283 N   0  0  0  0  0  0  0  0  0  0  0  0
   25.8690   -6.9948  -17.7096 N   0  0  0  0  0  0  0  0  0  0  0  0
   23.9859   -7.8244  -16.6105 C   0  0  0  0  0  0  0  0  0  0  0  0
   22.6802   -7.6222  -16.0508 C   0  0  0  0  0  0  0  0  0  0  0  0
   22.1315   -8.9380  -15.4813 C   0  0  0  0  0  0  0  0  0  0  0  0
   22.3400  -10.0454  -16.4684 C   0  0  1  0  0  0  0  0  0  0  0  0
   21.8255  -11.3423  -15.9761 N   0  0  0  0  0  0  0  0  0  0  0  0
   22.0427  -12.4078  -16.9702 C   0  0  0  0  0  0  0  0  0  0  0  0
   20.4019  -11.2590  -15.6206 O   0  0  0  0  0  0  0  0  0  0  0  0
   20.0066  -10.7493  -14.3915 O   0  0  0  0  0  0  0  0  0  0  0  0
  2  1  1  6
  3  2  1  0
  4  2  1  0
  5  4  1  0
  5  6  1  6
  7  8  2  0
  7  5  1  0
 10  9  1  0
 10 11  2  0
 12 10  1  0
 13 12  1  0
 13 14  1  0
 14 15  1  0
 16 15  1  1
 16 17  1  0
 17  7  1  0
 18 16  1  0
 18 19  2  0
 20 21  1  0
 21 22  2  0
 23 24  1  0
 23 21  1  0
 25 24  1  0
 26 25  1  0
 27 28  1  0
 27 26  1  1
 28 18  1  0
 29 27  1  0
 30 29  1  0
 31 29  2  0
M  END
$$$$
