LRR.pdb
     RDKit          3D

 31 30  0  0  1  0  0  0  0  0999 V2000
   19.1725  -24.4691   -6.6270 C   0  0  0  0  0  0  0  0  0  0  0  0
   17.7209  -24.4945   -7.0204 C   0  0  1  0  0  0  0  0  0  0  0  0
   17.4415  -25.7413   -7.8511 C   0  0  0  0  0  0  0  0  0  0  0  0
   16.8514  -24.5385   -5.7939 C   0  0  0  0  0  0  0  0  0  0  0  0
   15.4074  -24.4242   -6.1542 C   0  0  2  0  0  0  0  0  0  0  0  0
   15.0884  -23.2619   -6.9316 N   0  0  0  0  0  0  0  0  0  0  0  0
   14.5951  -24.4682   -4.8959 C   0  0  0  0  0  0  0  0  0  0  0  0
   14.2875  -23.3384   -4.3792 O   0  0  0  0  0  0  0  0  0  0  0  0
    8.6841  -30.1274   -3.5647 N   0  0  0  0  0  0  0  0  0  0  0  0
    8.8859  -28.8890   -4.2249 C   0  0  0  0  0  0  0  0  0  0  0  0
    8.2830  -28.6308   -5.3487 N   0  0  0  0  0  0  0  0  0  0  0  0
    9.7625  -27.9145   -3.6482 N   0  0  0  0  0  0  0  0  0  0  0  0
   10.5217  -28.2142   -2.4513 C   0  0  0  0  0  0  0  0  0  0  0  0
   11.4164  -26.9988   -2.1368 C   0  0  0  0  0  0  0  0  0  0  0  0
   12.3982  -26.8157   -3.2355 C   0  0  0  0  0  0  0  0  0  0  0  0
   13.3069  -25.6321   -3.1405 C   0  0  2  0  0  0  0  0  0  0  0  0
   14.1846  -25.6803   -4.3030 N   0  0  0  0  0  0  0  0  0  0  0  0
   14.0826  -25.4949   -1.9140 C   0  0  0  0  0  0  0  0  0  0  0  0
   15.2452  -26.0323   -1.8786 O   0  0  0  0  0  0  0  0  0  0  0  0
    8.4395  -27.7358   -5.8318 N   0  0  0  0  0  0  0  0  0  0  0  0
   15.1293  -18.8234    3.5223 C   0  0  0  0  0  0  0  0  0  0  0  0
   16.3583  -19.3595    3.0768 N   0  0  0  0  0  0  0  0  0  0  0  0
   17.4809  -18.6951    3.1796 N   0  0  0  0  0  0  0  0  0  0  0  0
   16.4350  -20.6624    2.4882 C   0  0  0  0  0  0  0  0  0  0  0  0
   15.2366  -21.4067    2.2261 C   0  0  0  0  0  0  0  0  0  0  0  0
   15.5715  -22.7356    1.5342 C   0  0  0  0  0  0  0  0  0  0  0  0
   14.3078  -23.4655    1.1961 C   0  0  2  0  0  0  0  0  0  0  0  0
   14.5637  -24.7198    0.4541 N   0  0  0  0  0  0  0  0  0  0  0  0
   13.6931  -24.8192   -0.7303 C   0  0  0  0  0  0  0  0  0  0  0  0
   14.3933  -25.9001    1.3129 O   0  0  0  0  0  0  0  0  0  0  0  0
   15.2329  -26.1155    2.3970 O   0  0  0  0  0  0  0  0  0  0  0  0
  2  1  1  1
  3  2  1  0
  4  2  1  0
  5  4  1  0
  5  6  1  1
  7  8  2  0
  7  5  1  0
 10  9  1  0
 10 11  2  0
 12 10  1  0
 13 12  1  0
 13 14  1  0
 14 15  1  0
 16 15  1  1
 16 17  1  0
 17  7  1  0
 18 16  1  0
 18 19  2  0
 20 21  1  0
 21 22  2  0
 23 24  1  0
 23 21  1  0
 25 24  1  0
 26 25  1  0
 27 28  1  0
 27 26  1  6
 28 18  1  0
 29 27  1  0
 30 29  1  0
 31 29  2  0
M  END
$$$$
