LRR.pdb
     RDKit          3D

 31 30  0  0  1  0  0  0  0  0999 V2000
   21.0477  -18.9152   -9.2357 C   0  0  0  0  0  0  0  0  0  0  0  0
   21.4977  -20.3496   -9.2835 C   0  0  1  0  0  0  0  0  0  0  0  0
   22.5327  -20.5938   -8.1918 C   0  0  0  0  0  0  0  0  0  0  0  0
   20.3310  -21.2679   -9.0432 C   0  0  0  0  0  0  0  0  0  0  0  0
   20.7598  -22.6975   -9.0585 C   0  0  2  0  0  0  0  0  0  0  0  0
   21.2615  -23.1445  -10.3256 N   0  0  0  0  0  0  0  0  0  0  0  0
   19.6114  -23.5467   -8.6058 C   0  0  0  0  0  0  0  0  0  0  0  0
   18.7324  -23.8313   -9.4914 O   0  0  0  0  0  0  0  0  0  0  0  0
   15.6240  -25.1953   -2.4825 N   0  0  0  0  0  0  0  0  0  0  0  0
   15.6556  -26.6126   -2.5032 C   0  0  0  0  0  0  0  0  0  0  0  0
   14.6021  -27.3041   -2.1792 N   0  0  0  0  0  0  0  0  0  0  0  0
   16.8597  -27.2878   -2.8839 N   0  0  0  0  0  0  0  0  0  0  0  0
   17.9543  -26.5646   -3.4986 C   0  0  0  0  0  0  0  0  0  0  0  0
   17.4796  -26.0610   -4.8762 C   0  0  0  0  0  0  0  0  0  0  0  0
   18.6153  -25.4119   -5.5786 C   0  0  0  0  0  0  0  0  0  0  0  0
   18.3286  -24.8119   -6.9178 C   0  0  2  0  0  0  0  0  0  0  0  0
   19.4932  -24.0143   -7.2803 N   0  0  0  0  0  0  0  0  0  0  0  0
   17.1072  -24.0255   -7.0385 C   0  0  0  0  0  0  0  0  0  0  0  0
   17.0624  -22.8945   -6.4380 O   0  0  0  0  0  0  0  0  0  0  0  0
   14.6233  -28.3325   -2.2075 N   0  0  0  0  0  0  0  0  0  0  0  0
   12.9023  -23.8202  -14.1839 C   0  0  0  0  0  0  0  0  0  0  0  0
   14.0969  -24.2598  -13.5707 N   0  0  0  0  0  0  0  0  0  0  0  0
   15.1497  -24.5983  -14.2702 N   0  0  0  0  0  0  0  0  0  0  0  0
   14.2138  -24.3566  -12.1470 C   0  0  0  0  0  0  0  0  0  0  0  0
   13.1032  -24.0094  -11.3073 C   0  0  0  0  0  0  0  0  0  0  0  0
   13.4448  -24.2673   -9.8330 C   0  0  0  0  0  0  0  0  0  0  0  0
   14.4735  -23.2819   -9.3695 C   0  0  1  0  0  0  0  0  0  0  0  0
   14.8054  -23.4468   -7.9371 N   0  0  0  0  0  0  0  0  0  0  0  0
   15.9379  -24.3726   -7.7610 C   0  0  0  0  0  0  0  0  0  0  0  0
   13.6444  -23.9082   -7.1630 O   0  0  0  0  0  0  0  0  0  0  0  0
   12.5965  -23.0451   -6.8739 O   0  0  0  0  0  0  0  0  0  0  0  0
  2  1  1  1
  3  2  1  0
  4  2  1  0
  5  4  1  0
  5  6  1  6
  7  8  2  0
  7  5  1  0
 10  9  1  0
 10 11  2  0
 12 10  1  0
 13 12  1  0
 13 14  1  0
 14 15  1  0
 16 15  1  1
 16 17  1  0
 17  7  1  0
 18 16  1  0
 18 19  2  0
 20 21  1  0
 21 22  2  0
 23 24  1  0
 23 21  1  0
 25 24  1  0
 26 25  1  0
 27 28  1  0
 27 26  1  6
 28 18  1  0
 29 27  1  0
 30 29  1  0
 31 29  2  0
M  END
$$$$
