LRR.pdb
     RDKit          3D

 31 30  0  0  1  0  0  0  0  0999 V2000
   28.4842  -18.9052   -5.8894 C   0  0  0  0  0  0  0  0  0  0  0  0
   28.1548  -20.0861   -6.7607 C   0  0  1  0  0  0  0  0  0  0  0  0
   27.2637  -21.0530   -5.9901 C   0  0  0  0  0  0  0  0  0  0  0  0
   27.4122  -19.6343   -7.9882 C   0  0  0  0  0  0  0  0  0  0  0  0
   26.6824  -20.7708   -8.6238 C   0  0  2  0  0  0  0  0  0  0  0  0
   27.5165  -21.8894   -8.9559 N   0  0  0  0  0  0  0  0  0  0  0  0
   25.9620  -20.2600   -9.8342 C   0  0  0  0  0  0  0  0  0  0  0  0
   25.1332  -19.3043   -9.6401 O   0  0  0  0  0  0  0  0  0  0  0  0
   27.6782  -20.8712  -17.0679 N   0  0  0  0  0  0  0  0  0  0  0  0
   28.2392  -21.6352  -16.0135 C   0  0  0  0  0  0  0  0  0  0  0  0
   28.4504  -22.9109  -16.1586 N   0  0  0  0  0  0  0  0  0  0  0  0
   28.5753  -20.9951  -14.7774 N   0  0  0  0  0  0  0  0  0  0  0  0
   28.4355  -19.5616  -14.6211 C   0  0  0  0  0  0  0  0  0  0  0  0
   27.5342  -19.3006  -13.3980 C   0  0  0  0  0  0  0  0  0  0  0  0
   26.3919  -20.2488  -13.4197 C   0  0  0  0  0  0  0  0  0  0  0  0
   25.4599  -20.2123  -12.2511 C   0  0  2  0  0  0  0  0  0  0  0  0
   26.1762  -20.7929  -11.1225 N   0  0  0  0  0  0  0  0  0  0  0  0
   24.1626  -20.8543  -12.4238 C   0  0  0  0  0  0  0  0  0  0  0  0
   24.0940  -22.1212  -12.2453 O   0  0  0  0  0  0  0  0  0  0  0  0
   28.7428  -23.4865  -15.3573 N   0  0  0  0  0  0  0  0  0  0  0  0
   16.9565  -21.7689  -11.9773 C   0  0  0  0  0  0  0  0  0  0  0  0
   16.6466  -20.6572  -11.1622 N   0  0  0  0  0  0  0  0  0  0  0  0
   15.7601  -20.7286  -10.2023 N   0  0  0  0  0  0  0  0  0  0  0  0
   17.2909  -19.3921  -11.3481 C   0  0  0  0  0  0  0  0  0  0  0  0
   18.3145  -19.2438  -12.3427 C   0  0  0  0  0  0  0  0  0  0  0  0
   19.4865  -20.1915  -12.0511 C   0  0  0  0  0  0  0  0  0  0  0  0
   20.5375  -20.0405  -13.1078 C   0  0  2  0  0  0  0  0  0  0  0  0
   21.6739  -20.9665  -12.9075 N   0  0  0  0  0  0  0  0  0  0  0  0
   22.9403  -20.2261  -12.7715 C   0  0  0  0  0  0  0  0  0  0  0  0
   21.7709  -21.9469  -13.9981 O   0  0  0  0  0  0  0  0  0  0  0  0
   21.0038  -23.1035  -13.9822 O   0  0  0  0  0  0  0  0  0  0  0  0
  2  1  1  1
  3  2  1  0
  4  2  1  0
  5  4  1  0
  5  6  1  6
  7  8  2  0
  7  5  1  0
 10  9  1  0
 10 11  2  0
 12 10  1  0
 13 12  1  0
 13 14  1  0
 14 15  1  0
 16 15  1  6
 16 17  1  0
 17  7  1  0
 18 16  1  0
 18 19  2  0
 20 21  1  0
 21 22  2  0
 23 24  1  0
 23 21  1  0
 25 24  1  0
 26 25  1  0
 27 28  1  0
 27 26  1  1
 28 18  1  0
 29 27  1  0
 30 29  1  0
 31 29  2  0
M  END
$$$$
