LRR.pdb
     RDKit          3D

 31 30  0  0  1  0  0  0  0  0999 V2000
   19.5540  -21.0531  -12.4367 C   0  0  0  0  0  0  0  0  0  0  0  0
   20.3757  -21.4812  -11.2517 C   0  0  1  0  0  0  0  0  0  0  0  0
   20.7610  -22.9478  -11.4040 C   0  0  0  0  0  0  0  0  0  0  0  0
   21.6374  -20.6661  -11.1735 C   0  0  0  0  0  0  0  0  0  0  0  0
   22.5566  -21.1976  -10.1244 C   0  0  2  0  0  0  0  0  0  0  0  0
   22.1661  -20.8702   -8.7837 N   0  0  0  0  0  0  0  0  0  0  0  0
   23.9444  -20.7122  -10.4132 C   0  0  0  0  0  0  0  0  0  0  0  0
   24.2217  -19.5239  -10.0271 O   0  0  0  0  0  0  0  0  0  0  0  0
   31.6018  -23.0629   -9.1980 N   0  0  0  0  0  0  0  0  0  0  0  0
   31.7817  -22.2491  -10.3450 C   0  0  0  0  0  0  0  0  0  0  0  0
   32.7986  -22.4331  -11.1357 N   0  0  0  0  0  0  0  0  0  0  0  0
   30.8344  -21.2149  -10.6342 N   0  0  0  0  0  0  0  0  0  0  0  0
   29.4858  -21.2745  -10.1083 C   0  0  0  0  0  0  0  0  0  0  0  0
   28.5918  -21.9559  -11.1634 C   0  0  0  0  0  0  0  0  0  0  0  0
   27.1906  -21.9849  -10.6734 C   0  0  0  0  0  0  0  0  0  0  0  0
   26.2482  -20.9823  -11.2586 C   0  0  2  0  0  0  0  0  0  0  0  0
   24.9025  -21.5100  -11.0726 N   0  0  0  0  0  0  0  0  0  0  0  0
   26.4673  -20.6076  -12.6502 C   0  0  0  0  0  0  0  0  0  0  0  0
   26.1227  -21.4453  -13.5564 O   0  0  0  0  0  0  0  0  0  0  0  0
   32.9132  -21.8585  -11.9816 N   0  0  0  0  0  0  0  0  0  0  0  0
   27.8241  -12.8303  -16.8584 C   0  0  0  0  0  0  0  0  0  0  0  0
   26.8718  -13.6199  -17.5411 N   0  0  0  0  0  0  0  0  0  0  0  0
   26.0935  -13.1193  -18.4663 N   0  0  0  0  0  0  0  0  0  0  0  0
   26.7114  -15.0129  -17.2519 C   0  0  0  0  0  0  0  0  0  0  0  0
   27.5349  -15.6427  -16.2599 C   0  0  0  0  0  0  0  0  0  0  0  0
   27.1928  -17.1350  -16.1479 C   0  0  0  0  0  0  0  0  0  0  0  0
   27.2892  -17.5729  -14.7186 C   0  0  2  0  0  0  0  0  0  0  0  0
   27.0057  -19.0155  -14.5517 N   0  0  0  0  0  0  0  0  0  0  0  0
   27.0273  -19.3964  -13.1286 C   0  0  0  0  0  0  0  0  0  0  0  0
   27.9494  -19.8436  -15.3156 O   0  0  0  0  0  0  0  0  0  0  0  0
   27.7364  -20.1024  -16.6626 O   0  0  0  0  0  0  0  0  0  0  0  0
  2  1  1  6
  3  2  1  0
  4  2  1  0
  5  4  1  0
  5  6  1  1
  7  8  2  0
  7  5  1  0
 10  9  1  0
 10 11  2  0
 12 10  1  0
 13 12  1  0
 13 14  1  0
 14 15  1  0
 16 15  1  6
 16 17  1  0
 17  7  1  0
 18 16  1  0
 18 19  2  0
 20 21  1  0
 21 22  2  0
 23 24  1  0
 23 21  1  0
 25 24  1  0
 26 25  1  0
 27 28  1  0
 27 26  1  1
 28 18  1  0
 29 27  1  0
 30 29  1  0
 31 29  2  0
M  END
$$$$
