LDT.pdb
     RDKit          3D

 24 23  0  0  1  0  0  0  0  0999 V2000
    9.6044  -13.5108   19.5142 C   0  0  0  0  0  0  0  0  0  0  0  0
    8.1117  -13.5415   19.7752 C   0  0  2  0  0  0  0  0  0  0  0  0
    7.5628  -12.1636   20.0707 C   0  0  0  0  0  0  0  0  0  0  0  0
    7.8752  -14.3921   21.0045 C   0  0  0  0  0  0  0  0  0  0  0  0
    8.5734  -15.7392   20.8216 C   0  0  2  0  0  0  0  0  0  0  0  0
    7.7054  -16.6109   20.0747 N   0  0  0  0  0  0  0  0  0  0  0  0
    8.8650  -16.2490   22.1787 C   0  0  0  0  0  0  0  0  0  0  0  0
    7.8960  -16.3528   22.9745 O   0  0  0  0  0  0  0  0  0  0  0  0
   10.1651  -16.6214   22.6206 N   0  0  0  0  0  0  0  0  0  0  0  0
   10.4209  -17.1659   23.9373 C   0  0  1  0  0  0  0  0  0  0  0  0
   11.5861  -18.1031   23.9530 C   0  0  0  0  0  0  0  0  0  0  0  0
   11.7675  -18.8161   25.2164 C   0  0  0  0  0  0  0  0  0  0  0  0
   10.9960  -18.6805   26.1744 O   0  0  0  0  0  0  0  0  0  0  0  0
   10.5140  -16.1010   24.9642 C   0  0  0  0  0  0  0  0  0  0  0  0
   11.3483  -15.1785   24.7750 O   0  0  0  0  0  0  0  0  0  0  0  0
   12.8474  -19.6780   25.3439 O   0  0  0  0  0  0  0  0  0  0  0  0
    8.7891  -13.0872   28.2101 C   0  0  0  0  0  0  0  0  0  0  0  0
    8.5502  -14.2296   27.2509 C   0  0  1  0  0  0  0  0  0  0  0  0
    8.1340  -13.6995   26.0520 O   0  0  0  0  0  0  0  0  0  0  0  0
    9.8500  -15.0061   27.0994 C   0  0  2  0  0  0  0  0  0  0  0  0
    9.7313  -16.0617   26.1275 N   0  0  0  0  0  0  0  0  0  0  0  0
   10.2532  -15.5329   28.4320 C   0  0  0  0  0  0  0  0  0  0  0  0
   10.6729  -14.6762   29.4384 O   0  0  0  0  0  0  0  0  0  0  0  0
   10.2251  -16.7632   28.6825 O   0  0  0  0  0  0  0  0  0  0  0  0
  2  4  1  0
  2  1  1  1
  3  2  1  0
  5  6  1  1
  5  4  1  0
  5  7  1  0
  7  8  2  0
  9  7  1  0
  9 10  1  0
 10 14  1  0
 10 11  1  6
 12 11  1  0
 13 12  2  0
 14 15  2  0
 16 12  1  0
 18 17  1  1
 18 19  1  0
 20 18  1  0
 21 14  1  0
 20 21  1  6
 22 20  1  0
 22 23  1  0
 24 22  2  0
M  END
$$$$
