LDT.pdb
     RDKit          3D

 24 23  0  0  1  0  0  0  0  0999 V2000
    9.0636  -12.3189   19.4575 C   0  0  0  0  0  0  0  0  0  0  0  0
    7.9268  -13.2944   19.6882 C   0  0  2  0  0  0  0  0  0  0  0  0
    6.6075  -12.5840   19.8937 C   0  0  0  0  0  0  0  0  0  0  0  0
    8.2265  -14.0609   20.9584 C   0  0  0  0  0  0  0  0  0  0  0  0
    9.6189  -14.6816   20.8504 C   0  0  2  0  0  0  0  0  0  0  0  0
    9.6893  -15.4475   19.6339 N   0  0  0  0  0  0  0  0  0  0  0  0
    9.8037  -15.5119   22.0599 C   0  0  0  0  0  0  0  0  0  0  0  0
    8.8656  -15.5239   22.8981 O   0  0  0  0  0  0  0  0  0  0  0  0
   10.9705  -16.2844   22.3174 N   0  0  0  0  0  0  0  0  0  0  0  0
   11.1479  -17.0593   23.5273 C   0  0  1  0  0  0  0  0  0  0  0  0
   12.2948  -18.0143   23.4326 C   0  0  0  0  0  0  0  0  0  0  0  0
   12.4510  -18.8839   24.5975 C   0  0  0  0  0  0  0  0  0  0  0  0
   11.5916  -18.9710   25.4836 O   0  0  0  0  0  0  0  0  0  0  0  0
   11.2053  -16.1951   24.7303 C   0  0  0  0  0  0  0  0  0  0  0  0
   12.1301  -15.3445   24.7949 O   0  0  0  0  0  0  0  0  0  0  0  0
   13.6087  -19.6402   24.7117 O   0  0  0  0  0  0  0  0  0  0  0  0
    9.0919  -13.3652   27.8280 C   0  0  0  0  0  0  0  0  0  0  0  0
    8.9470  -14.5306   26.8776 C   0  0  1  0  0  0  0  0  0  0  0  0
    8.6251  -14.0313   25.6372 O   0  0  0  0  0  0  0  0  0  0  0  0
   10.2641  -15.2920   26.8509 C   0  0  2  0  0  0  0  0  0  0  0  0
   10.2945  -16.2696   25.7944 N   0  0  0  0  0  0  0  0  0  0  0  0
   10.4835  -15.9196   28.1828 C   0  0  0  0  0  0  0  0  0  0  0  0
   10.7013  -15.1406   29.3091 O   0  0  0  0  0  0  0  0  0  0  0  0
   10.4777  -17.1675   28.3245 O   0  0  0  0  0  0  0  0  0  0  0  0
  2  4  1  0
  2  1  1  1
  3  2  1  0
  5  6  1  6
  5  4  1  0
  5  7  1  0
  7  8  2  0
  9  7  1  0
  9 10  1  0
 10 14  1  0
 10 11  1  6
 12 11  1  0
 13 12  2  0
 14 15  2  0
 16 12  1  0
 18 17  1  1
 18 19  1  0
 20 18  1  0
 21 14  1  0
 20 21  1  6
 22 20  1  0
 22 23  1  0
 24 22  2  0
M  END
$$$$
