LDT.pdb
     RDKit          3D

 24 23  0  0  1  0  0  0  0  0999 V2000
    8.9888  -13.5946   19.4552 C   0  0  0  0  0  0  0  0  0  0  0  0
    7.7028  -13.3419   20.2164 C   0  0  2  0  0  0  0  0  0  0  0  0
    7.5059  -11.8731   20.5183 C   0  0  0  0  0  0  0  0  0  0  0  0
    7.8020  -14.0634   21.5431 C   0  0  0  0  0  0  0  0  0  0  0  0
    7.9730  -15.5602   21.2861 C   0  0  2  0  0  0  0  0  0  0  0  0
    6.6904  -16.1199   20.9499 N   0  0  0  0  0  0  0  0  0  0  0  0
    8.5414  -16.1368   22.5234 C   0  0  0  0  0  0  0  0  0  0  0  0
    7.7460  -16.3585   23.4727 O   0  0  0  0  0  0  0  0  0  0  0  0
    9.9198  -16.4477   22.6897 N   0  0  0  0  0  0  0  0  0  0  0  0
   10.4465  -17.0646   23.8888 C   0  0  1  0  0  0  0  0  0  0  0  0
   11.5936  -17.9811   23.6049 C   0  0  0  0  0  0  0  0  0  0  0  0
   12.1187  -18.6700   24.7826 C   0  0  0  0  0  0  0  0  0  0  0  0
   11.4193  -18.9279   25.7703 O   0  0  0  0  0  0  0  0  0  0  0  0
   10.7466  -16.0607   24.9373 C   0  0  0  0  0  0  0  0  0  0  0  0
   11.6611  -15.2286   24.7046 O   0  0  0  0  0  0  0  0  0  0  0  0
   13.4536  -19.0485   24.7908 O   0  0  0  0  0  0  0  0  0  0  0  0
    9.5676  -13.0445   26.2806 C   0  0  0  0  0  0  0  0  0  0  0  0
    9.5144  -13.9812   27.4647 C   0  0  1  0  0  0  0  0  0  0  0  0
    8.2274  -14.4527   27.5776 O   0  0  0  0  0  0  0  0  0  0  0  0
   10.5062  -15.1102   27.2258 C   0  0  2  0  0  0  0  0  0  0  0  0
   10.0750  -15.9845   26.1664 N   0  0  0  0  0  0  0  0  0  0  0  0
   10.7052  -15.8528   28.5006 C   0  0  0  0  0  0  0  0  0  0  0  0
   11.2274  -15.2201   29.6185 O   0  0  0  0  0  0  0  0  0  0  0  0
   10.4071  -17.0688   28.6002 O   0  0  0  0  0  0  0  0  0  0  0  0
  2  4  1  0
  2  1  1  6
  3  2  1  0
  5  6  1  1
  5  4  1  0
  5  7  1  0
  7  8  2  0
  9  7  1  0
  9 10  1  0
 10 14  1  0
 10 11  1  6
 12 11  1  0
 13 12  2  0
 14 15  2  0
 16 12  1  0
 18 17  1  6
 18 19  1  0
 20 18  1  0
 21 14  1  0
 20 21  1  6
 22 20  1  0
 22 23  1  0
 24 22  2  0
M  END
$$$$
