LDT.pdb
     RDKit          3D

 24 23  0  0  1  0  0  0  0  0999 V2000
    8.6848  -13.5594   19.5229 C   0  0  0  0  0  0  0  0  0  0  0  0
    7.5657  -13.5420   20.5450 C   0  0  2  0  0  0  0  0  0  0  0  0
    7.1834  -12.1325   20.9382 C   0  0  0  0  0  0  0  0  0  0  0  0
    8.0689  -14.2352   21.7927 C   0  0  0  0  0  0  0  0  0  0  0  0
    8.4879  -15.6613   21.4372 C   0  0  2  0  0  0  0  0  0  0  0  0
    7.3185  -16.4000   21.0393 N   0  0  0  0  0  0  0  0  0  0  0  0
    9.1351  -16.2220   22.6427 C   0  0  0  0  0  0  0  0  0  0  0  0
    8.3830  -16.7159   23.5221 O   0  0  0  0  0  0  0  0  0  0  0  0
   10.5422  -16.2299   22.8529 N   0  0  0  0  0  0  0  0  0  0  0  0
   11.1554  -16.7832   24.0418 C   0  0  1  0  0  0  0  0  0  0  0  0
   12.5456  -17.2753   23.7931 C   0  0  0  0  0  0  0  0  0  0  0  0
   12.6357  -18.3485   22.8044 C   0  0  0  0  0  0  0  0  0  0  0  0
   13.0195  -18.1546   21.6441 O   0  0  0  0  0  0  0  0  0  0  0  0
   11.0622  -15.8533   25.1923 C   0  0  0  0  0  0  0  0  0  0  0  0
   11.1247  -14.6197   24.9529 O   0  0  0  0  0  0  0  0  0  0  0  0
   12.2764  -19.6338   23.1842 O   0  0  0  0  0  0  0  0  0  0  0  0
    9.5667  -13.7032   26.1370 C   0  0  0  0  0  0  0  0  0  0  0  0
    9.4109  -14.5290   27.3924 C   0  0  1  0  0  0  0  0  0  0  0  0
    8.3176  -15.3477   27.2310 O   0  0  0  0  0  0  0  0  0  0  0  0
   10.6870  -15.3319   27.5977 C   0  0  2  0  0  0  0  0  0  0  0  0
   10.9092  -16.2653   26.5244 N   0  0  0  0  0  0  0  0  0  0  0  0
   10.6145  -16.0211   28.9152 C   0  0  0  0  0  0  0  0  0  0  0  0
   10.6427  -15.2988   30.0985 O   0  0  0  0  0  0  0  0  0  0  0  0
   10.5259  -17.2715   28.9930 O   0  0  0  0  0  0  0  0  0  0  0  0
  2  4  1  0
  2  1  1  6
  3  2  1  0
  5  6  1  1
  5  4  1  0
  5  7  1  0
  7  8  2  0
  9  7  1  0
  9 10  1  0
 10 14  1  0
 10 11  1  6
 12 11  1  0
 13 12  2  0
 14 15  2  0
 16 12  1  0
 18 17  1  6
 18 19  1  0
 20 18  1  0
 21 14  1  0
 20 21  1  6
 22 20  1  0
 22 23  1  0
 24 22  2  0
M  END
$$$$
