LDT.pdb
     RDKit          3D

 24 23  0  0  1  0  0  0  0  0999 V2000
    5.7419  -13.3117   26.5503 C   0  0  0  0  0  0  0  0  0  0  0  0
    7.2144  -13.4856   26.2361 C   0  0  2  0  0  0  0  0  0  0  0  0
    8.0389  -12.3208   26.7369 C   0  0  0  0  0  0  0  0  0  0  0  0
    7.3637  -13.5266   24.7305 C   0  0  0  0  0  0  0  0  0  0  0  0
    6.8708  -14.8788   24.2165 C   0  0  2  0  0  0  0  0  0  0  0  0
    6.0634  -15.4937   25.2369 N   0  0  0  0  0  0  0  0  0  0  0  0
    8.0771  -15.6689   23.8889 C   0  0  0  0  0  0  0  0  0  0  0  0
    8.0392  -16.3701   22.8449 O   0  0  0  0  0  0  0  0  0  0  0  0
    9.2576  -15.6746   24.6829 N   0  0  0  0  0  0  0  0  0  0  0  0
   10.4409  -16.4280   24.3250 C   0  0  1  0  0  0  0  0  0  0  0  0
   10.7938  -16.2870   22.8786 C   0  0  0  0  0  0  0  0  0  0  0  0
   10.9841  -17.5568   22.1795 C   0  0  0  0  0  0  0  0  0  0  0  0
   10.3556  -17.8542   21.1558 O   0  0  0  0  0  0  0  0  0  0  0  0
   11.5747  -16.1357   25.2340 C   0  0  0  0  0  0  0  0  0  0  0  0
   12.6102  -16.8414   25.1217 O   0  0  0  0  0  0  0  0  0  0  0  0
   11.9059  -18.4623   22.6854 O   0  0  0  0  0  0  0  0  0  0  0  0
   10.1590  -14.8363   29.6523 C   0  0  0  0  0  0  0  0  0  0  0  0
   10.0804  -14.8690   28.1440 C   0  0  1  0  0  0  0  0  0  0  0  0
    9.8390  -13.5891   27.7021 O   0  0  0  0  0  0  0  0  0  0  0  0
   11.3987  -15.4077   27.6083 C   0  0  2  0  0  0  0  0  0  0  0  0
   11.5610  -15.1246   26.2061 N   0  0  0  0  0  0  0  0  0  0  0  0
   11.4675  -16.8693   27.8824 C   0  0  0  0  0  0  0  0  0  0  0  0
   10.5454  -17.7419   27.3246 O   0  0  0  0  0  0  0  0  0  0  0  0
   12.3588  -17.3525   28.6236 O   0  0  0  0  0  0  0  0  0  0  0  0
  2  4  1  0
  2  1  1  6
  3  2  1  0
  5  6  1  1
  5  4  1  0
  5  7  1  0
  7  8  2  0
  9  7  1  0
  9 10  1  0
 10 14  1  0
 10 11  1  6
 12 11  1  0
 13 12  2  0
 14 15  2  0
 16 12  1  0
 18 17  1  1
 18 19  1  0
 20 18  1  0
 21 14  1  0
 20 21  1  6
 22 20  1  0
 22 23  1  0
 24 22  2  0
M  END
$$$$
