LDT.pdb
     RDKit          3D

 24 23  0  0  1  0  0  0  0  0999 V2000
    7.1436  -12.4132   24.4999 C   0  0  0  0  0  0  0  0  0  0  0  0
    6.2442  -13.1376   25.4814 C   0  0  2  0  0  0  0  0  0  0  0  0
    6.0214  -12.3320   26.7419 C   0  0  0  0  0  0  0  0  0  0  0  0
    6.9393  -14.4199   25.8852 C   0  0  0  0  0  0  0  0  0  0  0  0
    6.9931  -15.3594   24.6811 C   0  0  2  0  0  0  0  0  0  0  0  0
    5.8268  -16.2024   24.7014 N   0  0  0  0  0  0  0  0  0  0  0  0
    8.2530  -16.1242   24.8007 C   0  0  0  0  0  0  0  0  0  0  0  0
    8.2715  -17.0771   25.6220 O   0  0  0  0  0  0  0  0  0  0  0  0
    9.4247  -15.8398   24.0454 N   0  0  0  0  0  0  0  0  0  0  0  0
   10.6793  -16.5322   24.2519 C   0  0  1  0  0  0  0  0  0  0  0  0
   11.6140  -16.3810   23.0945 C   0  0  0  0  0  0  0  0  0  0  0  0
   11.1149  -16.9441   21.8409 C   0  0  0  0  0  0  0  0  0  0  0  0
   10.3441  -17.9115   21.8055 O   0  0  0  0  0  0  0  0  0  0  0  0
   11.2966  -16.1757   25.5516 C   0  0  0  0  0  0  0  0  0  0  0  0
   12.3091  -15.4292   25.5321 O   0  0  0  0  0  0  0  0  0  0  0  0
   11.5228  -16.3695   20.6455 O   0  0  0  0  0  0  0  0  0  0  0  0
   11.1394  -13.8920   27.9504 C   0  0  0  0  0  0  0  0  0  0  0  0
   10.8661  -15.1431   28.7520 C   0  0  1  0  0  0  0  0  0  0  0  0
    9.5030  -15.2895   28.8618 O   0  0  0  0  0  0  0  0  0  0  0  0
   11.5001  -16.3221   28.0286 C   0  0  2  0  0  0  0  0  0  0  0  0
   10.8210  -16.6192   26.7944 N   0  0  0  0  0  0  0  0  0  0  0  0
   11.5116  -17.4969   28.9427 C   0  0  0  0  0  0  0  0  0  0  0  0
   10.7747  -18.6342   28.6489 O   0  0  0  0  0  0  0  0  0  0  0  0
   12.1862  -17.4923   30.0021 O   0  0  0  0  0  0  0  0  0  0  0  0
  2  4  1  0
  2  1  1  6
  3  2  1  0
  5  6  1  1
  5  4  1  0
  5  7  1  0
  7  8  2  0
  9  7  1  0
  9 10  1  0
 10 14  1  0
 10 11  1  6
 12 11  1  0
 13 12  2  0
 14 15  2  0
 16 12  1  0
 18 17  1  6
 18 19  1  0
 20 18  1  0
 21 14  1  0
 20 21  1  6
 22 20  1  0
 22 23  1  0
 24 22  2  0
M  END
$$$$
