LDT.pdb
     RDKit          3D

 24 23  0  0  1  0  0  0  0  0999 V2000
    9.3032  -13.3881   19.3731 C   0  0  0  0  0  0  0  0  0  0  0  0
    7.7896  -13.3107   19.3556 C   0  0  2  0  0  0  0  0  0  0  0  0
    7.2968  -11.8854   19.4702 C   0  0  0  0  0  0  0  0  0  0  0  0
    7.2747  -14.0622   20.5641 C   0  0  0  0  0  0  0  0  0  0  0  0
    7.7705  -15.5065   20.5027 C   0  0  2  0  0  0  0  0  0  0  0  0
    6.8229  -16.2878   19.7523 N   0  0  0  0  0  0  0  0  0  0  0  0
    7.9071  -15.9638   21.9022 C   0  0  0  0  0  0  0  0  0  0  0  0
    6.8484  -16.2447   22.5214 O   0  0  0  0  0  0  0  0  0  0  0  0
    9.1555  -16.0993   22.5710 N   0  0  0  0  0  0  0  0  0  0  0  0
    9.2659  -16.5358   23.9469 C   0  0  1  0  0  0  0  0  0  0  0  0
   10.3403  -17.5581   24.1389 C   0  0  0  0  0  0  0  0  0  0  0  0
   10.5279  -17.9802   25.5261 C   0  0  0  0  0  0  0  0  0  0  0  0
    9.5824  -18.2907   26.2614 O   0  0  0  0  0  0  0  0  0  0  0  0
    9.3768  -15.3896   24.8802 C   0  0  0  0  0  0  0  0  0  0  0  0
   10.4158  -14.6830   24.8166 O   0  0  0  0  0  0  0  0  0  0  0  0
   11.8174  -18.0339   26.0357 O   0  0  0  0  0  0  0  0  0  0  0  0
    7.2592  -12.2830   25.3948 C   0  0  0  0  0  0  0  0  0  0  0  0
    7.2984  -13.0397   26.7018 C   0  0  1  0  0  0  0  0  0  0  0  0
    6.1471  -13.7861   26.7968 O   0  0  0  0  0  0  0  0  0  0  0  0
    8.5394  -13.9202   26.7072 C   0  0  2  0  0  0  0  0  0  0  0  0
    8.3973  -15.0487   25.8246 N   0  0  0  0  0  0  0  0  0  0  0  0
    8.8169  -14.3509   28.1049 C   0  0  0  0  0  0  0  0  0  0  0  0
    9.0772  -13.4190   29.0981 O   0  0  0  0  0  0  0  0  0  0  0  0
    8.8234  -15.5657   28.4237 O   0  0  0  0  0  0  0  0  0  0  0  0
  2  4  1  0
  2  1  1  1
  3  2  1  0
  5  6  1  6
  5  4  1  0
  5  7  1  0
  7  8  2  0
  9  7  1  0
  9 10  1  0
 10 14  1  0
 10 11  1  6
 12 11  1  0
 13 12  2  0
 14 15  2  0
 16 12  1  0
 18 17  1  6
 18 19  1  0
 20 18  1  0
 21 14  1  0
 20 21  1  6
 22 20  1  0
 22 23  1  0
 24 22  2  0
M  END
$$$$
