LDT.pdb
     RDKit          3D

 24 23  0  0  1  0  0  0  0  0999 V2000
    9.3351  -12.9221   19.2492 C   0  0  0  0  0  0  0  0  0  0  0  0
    7.8372  -13.1388   19.3317 C   0  0  2  0  0  0  0  0  0  0  0  0
    7.0885  -11.8369   19.5103 C   0  0  0  0  0  0  0  0  0  0  0  0
    7.5600  -13.9873   20.5538 C   0  0  0  0  0  0  0  0  0  0  0  0
    8.3800  -15.2739   20.4650 C   0  0  2  0  0  0  0  0  0  0  0  0
    7.7360  -16.1684   19.5395 N   0  0  0  0  0  0  0  0  0  0  0  0
    8.4495  -15.8233   21.8362 C   0  0  0  0  0  0  0  0  0  0  0  0
    7.3589  -16.0738   22.4113 O   0  0  0  0  0  0  0  0  0  0  0  0
    9.6684  -16.0780   22.5245 N   0  0  0  0  0  0  0  0  0  0  0  0
    9.7163  -16.4715   23.9169 C   0  0  1  0  0  0  0  0  0  0  0  0
   10.8707  -17.3734   24.2177 C   0  0  0  0  0  0  0  0  0  0  0  0
   10.9460  -18.5586   23.3650 C   0  0  0  0  0  0  0  0  0  0  0  0
   10.1907  -19.5288   23.5050 O   0  0  0  0  0  0  0  0  0  0  0  0
    9.6387  -15.3004   24.8223 C   0  0  0  0  0  0  0  0  0  0  0  0
   10.5867  -14.4740   24.7908 O   0  0  0  0  0  0  0  0  0  0  0  0
   11.9023  -18.5947   22.3603 O   0  0  0  0  0  0  0  0  0  0  0  0
    6.8079  -12.6473   25.5080 C   0  0  0  0  0  0  0  0  0  0  0  0
    7.1784  -13.3608   26.7870 C   0  0  1  0  0  0  0  0  0  0  0  0
    6.2400  -14.3398   27.0160 O   0  0  0  0  0  0  0  0  0  0  0  0
    8.5721  -13.9481   26.6201 C   0  0  2  0  0  0  0  0  0  0  0  0
    8.5767  -15.0611   25.7068 N   0  0  0  0  0  0  0  0  0  0  0  0
    9.0929  -14.3378   27.9591 C   0  0  0  0  0  0  0  0  0  0  0  0
    9.2829  -13.3889   28.9523 O   0  0  0  0  0  0  0  0  0  0  0  0
    9.3743  -15.5321   28.2271 O   0  0  0  0  0  0  0  0  0  0  0  0
  2  4  1  0
  2  1  1  1
  3  2  1  0
  5  6  1  6
  5  4  1  0
  5  7  1  0
  7  8  2  0
  9  7  1  0
  9 10  1  0
 10 14  1  0
 10 11  1  6
 12 11  1  0
 13 12  2  0
 14 15  2  0
 16 12  1  0
 18 17  1  6
 18 19  1  0
 20 18  1  0
 21 14  1  0
 20 21  1  6
 22 20  1  0
 22 23  1  0
 24 22  2  0
M  END
$$$$
