LDT.pdb
     RDKit          3D

 24 23  0  0  1  0  0  0  0  0999 V2000
    9.0161  -13.4619   18.5923 C   0  0  0  0  0  0  0  0  0  0  0  0
    7.6873  -13.3322   19.3096 C   0  0  2  0  0  0  0  0  0  0  0  0
    7.3076  -11.8857   19.5353 C   0  0  0  0  0  0  0  0  0  0  0  0
    7.8330  -13.9758   20.6717 C   0  0  0  0  0  0  0  0  0  0  0  0
    8.2557  -15.4335   20.4926 C   0  0  2  0  0  0  0  0  0  0  0  0
    7.1405  -16.1758   19.9667 N   0  0  0  0  0  0  0  0  0  0  0  0
    8.6845  -15.9132   21.8240 C   0  0  0  0  0  0  0  0  0  0  0  0
    7.7808  -16.2397   22.6361 O   0  0  0  0  0  0  0  0  0  0  0  0
   10.0455  -16.0216   22.2243 N   0  0  0  0  0  0  0  0  0  0  0  0
   10.4473  -16.5815   23.4974 C   0  0  1  0  0  0  0  0  0  0  0  0
   11.7842  -17.2486   23.4332 C   0  0  0  0  0  0  0  0  0  0  0  0
   12.1969  -17.8897   24.6807 C   0  0  0  0  0  0  0  0  0  0  0  0
   11.4126  -18.5312   25.3911 O   0  0  0  0  0  0  0  0  0  0  0  0
   10.3422  -15.5884   24.5927 C   0  0  0  0  0  0  0  0  0  0  0  0
   10.8620  -14.4577   24.4079 O   0  0  0  0  0  0  0  0  0  0  0  0
   13.5202  -17.7730   25.0817 O   0  0  0  0  0  0  0  0  0  0  0  0
    7.9341  -13.4852   25.5268 C   0  0  0  0  0  0  0  0  0  0  0  0
    8.1399  -14.2331   26.8231 C   0  0  1  0  0  0  0  0  0  0  0  0
    7.1839  -15.2187   26.9029 O   0  0  0  0  0  0  0  0  0  0  0  0
    9.5459  -14.8148   26.8212 C   0  0  2  0  0  0  0  0  0  0  0  0
    9.7009  -15.8337   25.8159 N   0  0  0  0  0  0  0  0  0  0  0  0
    9.8515  -15.3377   28.1811 C   0  0  0  0  0  0  0  0  0  0  0  0
    9.9549  -14.4806   29.2662 O   0  0  0  0  0  0  0  0  0  0  0  0
   10.0240  -16.5650   28.3842 O   0  0  0  0  0  0  0  0  0  0  0  0
  2  4  1  0
  2  1  1  1
  3  2  1  0
  5  6  1  1
  5  4  1  0
  5  7  1  0
  7  8  2  0
  9  7  1  0
  9 10  1  0
 10 14  1  0
 10 11  1  6
 12 11  1  0
 13 12  2  0
 14 15  2  0
 16 12  1  0
 18 17  1  6
 18 19  1  0
 20 18  1  0
 21 14  1  0
 20 21  1  6
 22 20  1  0
 22 23  1  0
 24 22  2  0
M  END
$$$$
