LDT.pdb
     RDKit          3D

 24 23  0  0  1  0  0  0  0  0999 V2000
    9.4325  -13.5760   19.8439 C   0  0  0  0  0  0  0  0  0  0  0  0
    7.9623  -13.4436   20.1875 C   0  0  2  0  0  0  0  0  0  0  0  0
    7.6060  -12.0346   20.6059 C   0  0  0  0  0  0  0  0  0  0  0  0
    7.6808  -14.3473   21.3684 C   0  0  0  0  0  0  0  0  0  0  0  0
    8.1052  -15.7731   21.0186 C   0  0  2  0  0  0  0  0  0  0  0  0
    6.9677  -16.4751   20.4850 N   0  0  0  0  0  0  0  0  0  0  0  0
    8.6155  -16.3781   22.2677 C   0  0  0  0  0  0  0  0  0  0  0  0
    7.7642  -16.7478   23.1172 O   0  0  0  0  0  0  0  0  0  0  0  0
    9.9980  -16.5594   22.5505 N   0  0  0  0  0  0  0  0  0  0  0  0
   10.4759  -17.1672   23.7744 C   0  0  1  0  0  0  0  0  0  0  0  0
   11.6908  -18.0120   23.5579 C   0  0  0  0  0  0  0  0  0  0  0  0
   12.1745  -18.6891   24.7600 C   0  0  0  0  0  0  0  0  0  0  0  0
   13.3788  -18.8499   24.9948 O   0  0  0  0  0  0  0  0  0  0  0  0
   10.6451  -16.1672   24.8554 C   0  0  0  0  0  0  0  0  0  0  0  0
   11.3504  -15.1548   24.6095 O   0  0  0  0  0  0  0  0  0  0  0  0
   11.2452  -19.1692   25.6716 O   0  0  0  0  0  0  0  0  0  0  0  0
    9.1954  -13.2901   28.2099 C   0  0  0  0  0  0  0  0  0  0  0  0
    8.9171  -14.4534   27.2871 C   0  0  1  0  0  0  0  0  0  0  0  0
    8.4840  -13.9483   26.0834 O   0  0  0  0  0  0  0  0  0  0  0  0
   10.2004  -15.2556   27.1292 C   0  0  2  0  0  0  0  0  0  0  0  0
   10.0685  -16.2826   26.1289 N   0  0  0  0  0  0  0  0  0  0  0  0
   10.5765  -15.8259   28.4518 C   0  0  0  0  0  0  0  0  0  0  0  0
   10.9735  -15.0026   29.4946 O   0  0  0  0  0  0  0  0  0  0  0  0
   10.5452  -17.0639   28.6608 O   0  0  0  0  0  0  0  0  0  0  0  0
  2  4  1  0
  2  1  1  1
  3  2  1  0
  5  6  1  1
  5  4  1  0
  5  7  1  0
  7  8  2  0
  9  7  1  0
  9 10  1  0
 10 14  1  0
 10 11  1  6
 12 11  1  0
 13 12  2  0
 14 15  2  0
 16 12  1  0
 18 17  1  1
 18 19  1  0
 20 18  1  0
 21 14  1  0
 20 21  1  6
 22 20  1  0
 22 23  1  0
 24 22  2  0
M  END
$$$$
