LDT.pdb
     RDKit          3D

 24 23  0  0  1  0  0  0  0  0999 V2000
    9.1843  -13.4086   18.9199 C   0  0  0  0  0  0  0  0  0  0  0  0
    7.7098  -13.4189   19.2706 C   0  0  2  0  0  0  0  0  0  0  0  0
    7.1974  -12.0328   19.5922 C   0  0  0  0  0  0  0  0  0  0  0  0
    7.5371  -14.2615   20.5159 C   0  0  0  0  0  0  0  0  0  0  0  0
    8.1034  -15.6572   20.2571 C   0  0  2  0  0  0  0  0  0  0  0  0
    7.0742  -16.4698   19.6640 N   0  0  0  0  0  0  0  0  0  0  0  0
    8.5578  -16.1755   21.5653 C   0  0  0  0  0  0  0  0  0  0  0  0
    7.6735  -16.5923   22.3573 O   0  0  0  0  0  0  0  0  0  0  0  0
    9.9224  -16.2249   21.9650 N   0  0  0  0  0  0  0  0  0  0  0  0
   10.3484  -16.7650   23.2388 C   0  0  1  0  0  0  0  0  0  0  0  0
   11.6645  -17.4697   23.1506 C   0  0  0  0  0  0  0  0  0  0  0  0
   12.0885  -18.1097   24.3949 C   0  0  0  0  0  0  0  0  0  0  0  0
   11.2837  -18.5516   25.2244 O   0  0  0  0  0  0  0  0  0  0  0  0
   10.3037  -15.7435   24.3119 C   0  0  0  0  0  0  0  0  0  0  0  0
   11.1906  -14.8512   24.3063 O   0  0  0  0  0  0  0  0  0  0  0  0
   13.4469  -18.2248   24.6535 O   0  0  0  0  0  0  0  0  0  0  0  0
    8.2532  -12.9295   25.1910 C   0  0  0  0  0  0  0  0  0  0  0  0
    8.1536  -13.8455   26.3881 C   0  0  1  0  0  0  0  0  0  0  0  0
    6.9879  -14.5668   26.2769 O   0  0  0  0  0  0  0  0  0  0  0  0
    9.3753  -14.7526   26.3987 C   0  0  2  0  0  0  0  0  0  0  0  0
    9.3363  -15.7134   25.3272 N   0  0  0  0  0  0  0  0  0  0  0  0
    9.4679  -15.4185   27.7269 C   0  0  0  0  0  0  0  0  0  0  0  0
    9.4376  -16.8007   27.8333 O   0  0  0  0  0  0  0  0  0  0  0  0
    9.5758  -14.7507   28.7850 O   0  0  0  0  0  0  0  0  0  0  0  0
  2  4  1  0
  2  1  1  1
  3  2  1  0
  5  6  1  1
  5  4  1  0
  5  7  1  0
  7  8  2  0
  9  7  1  0
  9 10  1  0
 10 14  1  0
 10 11  1  6
 12 11  1  0
 13 12  2  0
 14 15  2  0
 16 12  1  0
 18 17  1  6
 18 19  1  0
 20 18  1  0
 21 14  1  0
 20 21  1  6
 22 20  1  0
 22 23  1  0
 24 22  2  0
M  END
$$$$
