LDT.pdb
     RDKit          3D

 24 23  0  0  1  0  0  0  0  0999 V2000
    9.5642  -12.6313   19.8034 C   0  0  0  0  0  0  0  0  0  0  0  0
    8.1740  -13.2258   19.6982 C   0  0  2  0  0  0  0  0  0  0  0  0
    7.0987  -12.1690   19.8169 C   0  0  0  0  0  0  0  0  0  0  0  0
    7.9923  -14.1832   20.8562 C   0  0  0  0  0  0  0  0  0  0  0  0
    9.0647  -15.2693   20.7792 C   0  0  2  0  0  0  0  0  0  0  0  0
    8.8661  -16.0289   19.5730 N   0  0  0  0  0  0  0  0  0  0  0  0
    8.9206  -16.0894   22.0012 C   0  0  0  0  0  0  0  0  0  0  0  0
    8.4318  -17.2409   21.8666 O   0  0  0  0  0  0  0  0  0  0  0  0
    9.3011  -15.6474   23.2989 N   0  0  0  0  0  0  0  0  0  0  0  0
    9.9468  -16.5113   24.2646 C   0  0  1  0  0  0  0  0  0  0  0  0
   11.1275  -17.2285   23.6920 C   0  0  0  0  0  0  0  0  0  0  0  0
   11.8205  -18.0990   24.6404 C   0  0  0  0  0  0  0  0  0  0  0  0
   11.2566  -19.0366   25.2185 O   0  0  0  0  0  0  0  0  0  0  0  0
   10.2540  -15.7943   25.5251 C   0  0  0  0  0  0  0  0  0  0  0  0
   10.6390  -16.4792   26.5077 O   0  0  0  0  0  0  0  0  0  0  0  0
   13.1627  -17.8627   24.9009 O   0  0  0  0  0  0  0  0  0  0  0  0
    7.7931  -12.9843   25.7298 C   0  0  0  0  0  0  0  0  0  0  0  0
    8.2678  -13.5792   27.0349 C   0  0  1  0  0  0  0  0  0  0  0  0
    7.5909  -14.7594   27.2363 O   0  0  0  0  0  0  0  0  0  0  0  0
    9.7697  -13.8035   26.9395 C   0  0  2  0  0  0  0  0  0  0  0  0
   10.1412  -14.4054   25.6856 N   0  0  0  0  0  0  0  0  0  0  0  0
   10.2058  -14.6344   28.0952 C   0  0  0  0  0  0  0  0  0  0  0  0
   10.1995  -14.1209   29.3832 O   0  0  0  0  0  0  0  0  0  0  0  0
   10.5905  -15.8196   27.9378 O   0  0  0  0  0  0  0  0  0  0  0  0
  2  4  1  0
  2  1  1  1
  3  2  1  0
  5  6  1  6
  5  4  1  0
  5  7  1  0
  7  8  2  0
  9  7  1  0
  9 10  1  0
 10 14  1  0
 10 11  1  6
 12 11  1  0
 13 12  2  0
 14 15  2  0
 16 12  1  0
 18 17  1  6
 18 19  1  0
 20 18  1  0
 21 14  1  0
 20 21  1  6
 22 20  1  0
 22 23  1  0
 24 22  2  0
M  END
$$$$
