LDT.pdb
     RDKit          3D

 24 23  0  0  1  0  0  0  0  0999 V2000
    6.4242  -12.8238   26.3872 C   0  0  0  0  0  0  0  0  0  0  0  0
    7.1659  -13.5711   25.2970 C   0  0  2  0  0  0  0  0  0  0  0  0
    7.2765  -12.7542   24.0289 C   0  0  0  0  0  0  0  0  0  0  0  0
    6.3676  -14.8127   24.9629 C   0  0  0  0  0  0  0  0  0  0  0  0
    7.0585  -15.5587   23.8219 C   0  0  2  0  0  0  0  0  0  0  0  0
    6.1789  -16.5950   23.3491 N   0  0  0  0  0  0  0  0  0  0  0  0
    8.3236  -16.0904   24.3728 C   0  0  0  0  0  0  0  0  0  0  0  0
    8.2398  -16.8677   25.3585 O   0  0  0  0  0  0  0  0  0  0  0  0
    9.6084  -15.7713   23.8514 N   0  0  0  0  0  0  0  0  0  0  0  0
   10.8282  -16.3742   24.3458 C   0  0  1  0  0  0  0  0  0  0  0  0
   11.9701  -16.2205   23.3925 C   0  0  0  0  0  0  0  0  0  0  0  0
   11.7157  -16.7597   22.0575 C   0  0  0  0  0  0  0  0  0  0  0  0
   11.9250  -16.1095   21.0256 O   0  0  0  0  0  0  0  0  0  0  0  0
   11.1490  -15.9191   25.7195 C   0  0  0  0  0  0  0  0  0  0  0  0
   11.8711  -14.8961   25.8423 O   0  0  0  0  0  0  0  0  0  0  0  0
   11.2202  -18.0509   21.9457 O   0  0  0  0  0  0  0  0  0  0  0  0
   10.3476  -13.9088   28.1704 C   0  0  0  0  0  0  0  0  0  0  0  0
   10.2802  -15.2290   28.9017 C   0  0  1  0  0  0  0  0  0  0  0  0
    8.9721  -15.6539   28.8944 O   0  0  0  0  0  0  0  0  0  0  0  0
   11.1943  -16.2163   28.1910 C   0  0  2  0  0  0  0  0  0  0  0  0
   10.6975  -16.5582   26.8837 N   0  0  0  0  0  0  0  0  0  0  0  0
   11.3563  -17.4233   29.0471 C   0  0  0  0  0  0  0  0  0  0  0  0
   11.9684  -17.3381   30.2884 O   0  0  0  0  0  0  0  0  0  0  0  0
   10.9451  -18.5490   28.6715 O   0  0  0  0  0  0  0  0  0  0  0  0
  2  4  1  0
  2  1  1  1
  3  2  1  0
  5  6  1  1
  5  4  1  0
  5  7  1  0
  7  8  2  0
  9  7  1  0
  9 10  1  0
 10 14  1  0
 10 11  1  6
 12 11  1  0
 13 12  2  0
 14 15  2  0
 16 12  1  0
 18 17  1  6
 18 19  1  0
 20 18  1  0
 21 14  1  0
 20 21  1  6
 22 20  1  0
 22 23  1  0
 24 22  2  0
M  END
$$$$
