LDT.pdb
     RDKit          3D

 24 23  0  0  1  0  0  0  0  0999 V2000
    9.1880  -12.7116   19.5219 C   0  0  0  0  0  0  0  0  0  0  0  0
    7.9637  -13.5961   19.6484 C   0  0  2  0  0  0  0  0  0  0  0  0
    6.6811  -12.8045   19.5228 C   0  0  0  0  0  0  0  0  0  0  0  0
    7.9785  -14.2101   21.0317 C   0  0  0  0  0  0  0  0  0  0  0  0
    9.2957  -14.9587   21.2317 C   0  0  2  0  0  0  0  0  0  0  0  0
    9.3347  -16.0743   20.3232 N   0  0  0  0  0  0  0  0  0  0  0  0
    9.3311  -15.3754   22.6501 C   0  0  0  0  0  0  0  0  0  0  0  0
    9.1080  -14.4897   23.5153 O   0  0  0  0  0  0  0  0  0  0  0  0
    9.6003  -16.7058   23.0764 N   0  0  0  0  0  0  0  0  0  0  0  0
   10.8168  -17.0779   23.7673 C   0  0  1  0  0  0  0  0  0  0  0  0
   12.0307  -16.9379   22.9052 C   0  0  0  0  0  0  0  0  0  0  0  0
   12.6146  -18.2083   22.4779 C   0  0  0  0  0  0  0  0  0  0  0  0
   12.3358  -19.2852   23.0199 O   0  0  0  0  0  0  0  0  0  0  0  0
   10.9431  -16.3837   25.0709 C   0  0  0  0  0  0  0  0  0  0  0  0
   11.8460  -16.7739   25.8554 O   0  0  0  0  0  0  0  0  0  0  0  0
   13.5163  -18.2039   21.4233 O   0  0  0  0  0  0  0  0  0  0  0  0
    7.8475  -14.1158   26.8282 C   0  0  0  0  0  0  0  0  0  0  0  0
    9.2505  -13.5704   26.9563 C   0  0  1  0  0  0  0  0  0  0  0  0
    9.3695  -12.9874   28.1963 O   0  0  0  0  0  0  0  0  0  0  0  0
   10.2289  -14.7228   26.7825 C   0  0  2  0  0  0  0  0  0  0  0  0
   10.1199  -15.3238   25.4788 N   0  0  0  0  0  0  0  0  0  0  0  0
    9.9960  -15.7183   27.8646 C   0  0  0  0  0  0  0  0  0  0  0  0
   10.2790  -15.4111   29.1869 O   0  0  0  0  0  0  0  0  0  0  0  0
    9.5385  -16.8603   27.6124 O   0  0  0  0  0  0  0  0  0  0  0  0
  2  4  1  0
  2  1  1  1
  3  2  1  0
  5  6  1  6
  5  4  1  0
  5  7  1  0
  7  8  2  0
  9  7  1  0
  9 10  1  0
 10 14  1  0
 10 11  1  6
 12 11  1  0
 13 12  2  0
 14 15  2  0
 16 12  1  0
 18 17  1  1
 18 19  1  0
 20 18  1  0
 21 14  1  0
 20 21  1  6
 22 20  1  0
 22 23  1  0
 24 22  2  0
M  END
$$$$
