LDT.pdb
     RDKit          3D

 24 23  0  0  1  0  0  0  0  0999 V2000
    9.2366  -12.7186   18.1043 C   0  0  0  0  0  0  0  0  0  0  0  0
    7.9373  -13.3004   18.6244 C   0  0  2  0  0  0  0  0  0  0  0  0
    7.1336  -12.2805   19.4000 C   0  0  0  0  0  0  0  0  0  0  0  0
    8.2833  -14.4209   19.5811 C   0  0  0  0  0  0  0  0  0  0  0  0
    9.0625  -15.4982   18.8275 C   0  0  2  0  0  0  0  0  0  0  0  0
    8.1343  -16.2892   18.0631 N   0  0  0  0  0  0  0  0  0  0  0  0
    9.7811  -16.2894   19.8494 C   0  0  0  0  0  0  0  0  0  0  0  0
    9.0910  -17.0433   20.5831 O   0  0  0  0  0  0  0  0  0  0  0  0
   11.1902  -16.2403   20.0399 N   0  0  0  0  0  0  0  0  0  0  0  0
   11.8766  -17.0402   21.0323 C   0  0  1  0  0  0  0  0  0  0  0  0
   13.3260  -17.2269   20.7147 C   0  0  0  0  0  0  0  0  0  0  0  0
   13.5806  -17.9627   19.4772 C   0  0  0  0  0  0  0  0  0  0  0  0
   13.0428  -19.0483   19.2253 O   0  0  0  0  0  0  0  0  0  0  0  0
   11.6400  -16.5348   22.4055 C   0  0  0  0  0  0  0  0  0  0  0  0
   12.2529  -15.4943   22.7586 O   0  0  0  0  0  0  0  0  0  0  0  0
   14.4599  -17.4205   18.5508 O   0  0  0  0  0  0  0  0  0  0  0  0
    8.9619  -14.8962   24.0527 C   0  0  0  0  0  0  0  0  0  0  0  0
    9.1685  -16.1413   24.8830 C   0  0  1  0  0  0  0  0  0  0  0  0
    8.2417  -17.0768   24.4860 O   0  0  0  0  0  0  0  0  0  0  0  0
   10.5914  -16.6328   24.6615 C   0  0  2  0  0  0  0  0  0  0  0  0
   10.7782  -17.1448   23.3289 N   0  0  0  0  0  0  0  0  0  0  0  0
   10.9111  -17.6592   25.6912 C   0  0  0  0  0  0  0  0  0  0  0  0
   10.9513  -17.3282   27.0372 O   0  0  0  0  0  0  0  0  0  0  0  0
   11.1526  -18.8497   25.3722 O   0  0  0  0  0  0  0  0  0  0  0  0
  2  4  1  0
  2  1  1  1
  3  2  1  0
  5  6  1  1
  5  4  1  0
  5  7  1  0
  7  8  2  0
  9  7  1  0
  9 10  1  0
 10 14  1  0
 10 11  1  6
 12 11  1  0
 13 12  2  0
 14 15  2  0
 16 12  1  0
 18 17  1  6
 18 19  1  0
 20 18  1  0
 21 14  1  0
 20 21  1  6
 22 20  1  0
 22 23  1  0
 24 22  2  0
M  END
$$$$
