SAH.pdb
     RDKit          3D

 22 22  0  0  1  0  0  0  0  0999 V2000
    7.7676  -16.9339   15.5582 O   0  0  0  0  0  0  0  0  0  0  0  0
    8.4275  -16.2473   14.5521 C   0  0  0  0  0  0  0  0  0  0  0  0
    8.1865  -14.7641   14.7277 C   0  0  2  0  0  0  0  0  0  0  0  0
    8.6956  -14.0099   13.6049 N   0  0  0  0  0  0  0  0  0  0  0  0
    8.8438  -14.3667   16.0015 C   0  0  0  0  0  0  0  0  0  0  0  0
   10.1027  -14.3931   16.0232 O   0  0  0  0  0  0  0  0  0  0  0  0
    7.7533  -13.3510   19.4364 C   0  0  0  0  0  0  0  0  0  0  0  0
    8.8176  -13.6961   18.3849 C   0  0  2  0  0  0  0  0  0  0  0  0
    8.1189  -13.9704   17.1590 N   0  0  0  0  0  0  0  0  0  0  0  0
    9.5210  -14.8953   18.9123 C   0  0  0  0  0  0  0  0  0  0  0  0
    9.7625  -15.8323   18.1110 O   0  0  0  0  0  0  0  0  0  0  0  0
    9.9282  -15.0378   20.2501 N   0  0  0  0  0  0  0  0  0  0  0  0
   11.3151  -15.2605   20.6727 C   0  0  1  0  0  0  0  0  0  0  0  0
   12.1831  -14.1020   20.2515 C   0  0  0  0  0  0  0  0  0  0  0  0
   13.1910  -14.5773   19.2851 C   0  0  0  0  0  0  0  0  0  0  0  0
   13.2088  -15.8278   18.6639 C   0  0  0  0  0  0  0  0  0  0  0  0
   14.2682  -15.9112   17.8505 N   0  0  0  0  0  0  0  0  0  0  0  0
   14.9237  -14.7473   17.9384 C   0  0  0  0  0  0  0  0  0  0  0  0
   14.2597  -13.9398   18.8156 N   0  0  0  0  0  0  0  0  0  0  0  0
   11.2637  -15.2948   22.1528 C   0  0  0  0  0  0  0  0  0  0  0  0
   12.0933  -16.0890   22.9359 O   0  0  0  0  0  0  0  0  0  0  0  0
   10.4346  -14.5762   22.7469 O   0  0  0  0  0  0  0  0  0  0  0  0
  2  1  1  0
  3  4  1  6
  3  2  1  0
  5  3  1  0
  5  6  2  0
  8  7  1  1
  8  9  1  0
  8 10  1  0
  9  5  1  0
 10 12  1  0
 11 10  2  0
 12 13  1  0
 13 20  1  0
 14 15  1  0
 13 14  1  1
 15 16  2  0
 17 16  1  0
 18 17  1  0
 19 18  2  0
 19 15  1  0
 20 22  2  0
 20 21  1  0
M  END
$$$$
