SAH.pdb
     RDKit          3D

 22 22  0  0  1  0  0  0  0  0999 V2000
    9.2110  -19.1968   18.1445 O   0  0  0  0  0  0  0  0  0  0  0  0
    9.7659  -18.0627   18.7145 C   0  0  0  0  0  0  0  0  0  0  0  0
    9.3186  -16.8482   17.9312 C   0  0  2  0  0  0  0  0  0  0  0  0
   10.2299  -16.5526   16.8491 N   0  0  0  0  0  0  0  0  0  0  0  0
    9.2259  -15.7205   18.8968 C   0  0  0  0  0  0  0  0  0  0  0  0
   10.3063  -15.1607   19.2212 O   0  0  0  0  0  0  0  0  0  0  0  0
    6.5224  -13.7707   20.5837 C   0  0  0  0  0  0  0  0  0  0  0  0
    7.9872  -14.1929   20.4011 C   0  0  2  0  0  0  0  0  0  0  0  0
    7.9952  -15.2687   19.4478 N   0  0  0  0  0  0  0  0  0  0  0  0
    8.4438  -14.6302   21.7470 C   0  0  0  0  0  0  0  0  0  0  0  0
    8.4457  -13.7783   22.6704 O   0  0  0  0  0  0  0  0  0  0  0  0
    8.8710  -15.9366   22.0416 N   0  0  0  0  0  0  0  0  0  0  0  0
    9.2722  -16.3938   23.3765 C   0  0  1  0  0  0  0  0  0  0  0  0
    9.0924  -17.8860   23.4946 C   0  0  0  0  0  0  0  0  0  0  0  0
    7.6518  -18.1980   23.5499 C   0  0  0  0  0  0  0  0  0  0  0  0
    6.6172  -17.2768   23.7261 C   0  0  0  0  0  0  0  0  0  0  0  0
    5.4411  -17.9153   23.7255 N   0  0  0  0  0  0  0  0  0  0  0  0
    5.7009  -19.2173   23.5537 C   0  0  0  0  0  0  0  0  0  0  0  0
    7.0516  -19.3806   23.4475 N   0  0  0  0  0  0  0  0  0  0  0  0
   10.7184  -16.0866   23.4679 C   0  0  0  0  0  0  0  0  0  0  0  0
   11.4676  -16.2364   24.6292 O   0  0  0  0  0  0  0  0  0  0  0  0
   11.3141  -15.6685   22.4545 O   0  0  0  0  0  0  0  0  0  0  0  0
  2  1  1  0
  3  4  1  6
  3  2  1  0
  5  3  1  0
  5  6  2  0
  8  7  1  1
  8  9  1  0
  8 10  1  0
  9  5  1  0
 10 12  1  0
 11 10  2  0
 12 13  1  0
 13 20  1  0
 14 15  1  0
 13 14  1  6
 15 16  2  0
 17 16  1  0
 18 17  1  0
 19 18  2  0
 19 15  1  0
 20 22  2  0
 20 21  1  0
M  END
$$$$
