SAH.pdb
     RDKit          3D

 22 22  0  0  1  0  0  0  0  0999 V2000
   10.9290  -20.1664   18.7492 O   0  0  0  0  0  0  0  0  0  0  0  0
   10.1587  -19.0166   18.8088 C   0  0  0  0  0  0  0  0  0  0  0  0
   11.0653  -17.8101   18.7041 C   0  0  2  0  0  0  0  0  0  0  0  0
   12.2564  -18.1091   17.9422 N   0  0  0  0  0  0  0  0  0  0  0  0
   11.3911  -17.3916   20.0938 C   0  0  0  0  0  0  0  0  0  0  0  0
   12.5730  -17.5857   20.4829 O   0  0  0  0  0  0  0  0  0  0  0  0
    9.6413  -15.6558   22.9085 C   0  0  0  0  0  0  0  0  0  0  0  0
   10.8331  -16.4047   22.2951 C   0  0  2  0  0  0  0  0  0  0  0  0
   10.4406  -16.7982   20.9695 N   0  0  0  0  0  0  0  0  0  0  0  0
   11.0656  -17.5742   23.1836 C   0  0  0  0  0  0  0  0  0  0  0  0
   10.3061  -18.5668   23.0561 O   0  0  0  0  0  0  0  0  0  0  0  0
   12.0822  -17.6302   24.1527 N   0  0  0  0  0  0  0  0  0  0  0  0
   12.3518  -18.7958   25.0015 C   0  0  1  0  0  0  0  0  0  0  0  0
   13.8378  -19.0067   25.1444 C   0  0  0  0  0  0  0  0  0  0  0  0
   14.3818  -19.5059   23.8675 C   0  0  0  0  0  0  0  0  0  0  0  0
   13.6463  -20.0825   22.8298 C   0  0  0  0  0  0  0  0  0  0  0  0
   14.4677  -20.4169   21.8278 N   0  0  0  0  0  0  0  0  0  0  0  0
   15.7052  -20.0684   22.2010 C   0  0  0  0  0  0  0  0  0  0  0  0
   15.6434  -19.5135   23.4463 N   0  0  0  0  0  0  0  0  0  0  0  0
   11.7986  -18.4393   26.3286 C   0  0  0  0  0  0  0  0  0  0  0  0
   11.2315  -17.2047   26.6223 O   0  0  0  0  0  0  0  0  0  0  0  0
   11.8353  -19.2834   27.2468 O   0  0  0  0  0  0  0  0  0  0  0  0
  2  1  1  0
  3  4  1  6
  3  2  1  0
  5  3  1  0
  5  6  2  0
  8  7  1  1
  8  9  1  0
  8 10  1  0
  9  5  1  0
 10 12  1  0
 11 10  2  0
 12 13  1  0
 13 20  1  0
 14 15  1  0
 13 14  1  1
 15 16  2  0
 17 16  1  0
 18 17  1  0
 19 18  2  0
 19 15  1  0
 20 22  2  0
 20 21  1  0
M  END
$$$$
