SAH.pdb
     RDKit          3D

 22 22  0  0  1  0  0  0  0  0999 V2000
   10.6391  -16.9811   16.6388 O   0  0  0  0  0  0  0  0  0  0  0  0
    9.3039  -17.3480   16.6762 C   0  0  0  0  0  0  0  0  0  0  0  0
    8.4964  -16.3519   15.8735 C   0  0  2  0  0  0  0  0  0  0  0  0
    8.7892  -16.4503   14.4617 N   0  0  0  0  0  0  0  0  0  0  0  0
    8.8175  -15.0022   16.4098 C   0  0  0  0  0  0  0  0  0  0  0  0
    9.6234  -14.3026   15.7412 O   0  0  0  0  0  0  0  0  0  0  0  0
    7.6767  -12.8040   19.1997 C   0  0  0  0  0  0  0  0  0  0  0  0
    8.6867  -13.2154   18.1190 C   0  0  2  0  0  0  0  0  0  0  0  0
    8.2610  -14.4926   17.6152 N   0  0  0  0  0  0  0  0  0  0  0  0
    9.9995  -13.2934   18.8131 C   0  0  0  0  0  0  0  0  0  0  0  0
   10.5127  -12.2204   19.2178 O   0  0  0  0  0  0  0  0  0  0  0  0
   10.6940  -14.4942   19.0402 N   0  0  0  0  0  0  0  0  0  0  0  0
   11.9131  -14.6039   19.8485 C   0  0  1  0  0  0  0  0  0  0  0  0
   11.9468  -15.9284   20.5679 C   0  0  0  0  0  0  0  0  0  0  0  0
   11.0216  -15.8806   21.7156 C   0  0  0  0  0  0  0  0  0  0  0  0
   10.3232  -14.7569   22.1624 C   0  0  0  0  0  0  0  0  0  0  0  0
    9.5792  -15.0829   23.2259 N   0  0  0  0  0  0  0  0  0  0  0  0
    9.7862  -16.3834   23.4666 C   0  0  0  0  0  0  0  0  0  0  0  0
   10.6672  -16.8618   22.5407 N   0  0  0  0  0  0  0  0  0  0  0  0
   13.0253  -14.5725   18.8705 C   0  0  0  0  0  0  0  0  0  0  0  0
   12.8419  -14.4815   17.4956 O   0  0  0  0  0  0  0  0  0  0  0  0
   14.2000  -14.6301   19.2869 O   0  0  0  0  0  0  0  0  0  0  0  0
  2  1  1  0
  3  4  1  6
  3  2  1  0
  5  3  1  0
  5  6  2  0
  8  7  1  1
  8  9  1  0
  8 10  1  0
  9  5  1  0
 10 12  1  0
 11 10  2  0
 12 13  1  0
 13 20  1  0
 14 15  1  0
 13 14  1  6
 15 16  2  0
 17 16  1  0
 18 17  1  0
 19 18  2  0
 19 15  1  0
 20 22  2  0
 20 21  1  0
M  END
$$$$
