SAH.pdb
     RDKit          3D

 22 22  0  0  1  0  0  0  0  0999 V2000
    7.1233  -21.7691   18.2292 O   0  0  0  0  0  0  0  0  0  0  0  0
    6.0764  -21.7426   19.1359 C   0  0  0  0  0  0  0  0  0  0  0  0
    5.0081  -20.7996   18.6278 C   0  0  2  0  0  0  0  0  0  0  0  0
    5.5833  -19.5764   18.1165 N   0  0  0  0  0  0  0  0  0  0  0  0
    4.0835  -20.5406   19.7639 C   0  0  0  0  0  0  0  0  0  0  0  0
    3.0101  -19.9388   19.4964 O   0  0  0  0  0  0  0  0  0  0  0  0
    2.1887  -21.6314   21.8007 C   0  0  0  0  0  0  0  0  0  0  0  0
    3.3858  -20.7288   22.1322 C   0  0  2  0  0  0  0  0  0  0  0  0
    4.3641  -20.9383   21.1001 N   0  0  0  0  0  0  0  0  0  0  0  0
    3.8668  -21.1824   23.4641 C   0  0  0  0  0  0  0  0  0  0  0  0
    3.0987  -21.9015   24.1505 O   0  0  0  0  0  0  0  0  0  0  0  0
    5.1262  -20.8530   23.9945 N   0  0  0  0  0  0  0  0  0  0  0  0
    6.1872  -21.8275   24.2711 C   0  0  1  0  0  0  0  0  0  0  0  0
    6.6991  -22.4234   22.9843 C   0  0  0  0  0  0  0  0  0  0  0  0
    6.1095  -23.7631   22.8019 C   0  0  0  0  0  0  0  0  0  0  0  0
    5.2095  -24.3899   23.6664 C   0  0  0  0  0  0  0  0  0  0  0  0
    4.8878  -25.5960   23.1839 N   0  0  0  0  0  0  0  0  0  0  0  0
    5.5591  -25.7520   22.0363 C   0  0  0  0  0  0  0  0  0  0  0  0
    6.3017  -24.6293   21.8111 N   0  0  0  0  0  0  0  0  0  0  0  0
    7.2783  -21.0402   24.8906 C   0  0  0  0  0  0  0  0  0  0  0  0
    7.6862  -19.7927   24.4328 O   0  0  0  0  0  0  0  0  0  0  0  0
    7.8763  -21.5081   25.8806 O   0  0  0  0  0  0  0  0  0  0  0  0
  2  1  1  0
  3  4  1  1
  3  2  1  0
  5  3  1  0
  5  6  2  0
  8  7  1  6
  8  9  1  0
  8 10  1  0
  9  5  1  0
 10 12  1  0
 11 10  2  0
 12 13  1  0
 13 20  1  0
 14 15  1  0
 13 14  1  6
 15 16  2  0
 17 16  1  0
 18 17  1  0
 19 18  2  0
 19 15  1  0
 20 22  2  0
 20 21  1  0
M  END
$$$$
