SAH.pdb
     RDKit          3D

 22 22  0  0  1  0  0  0  0  0999 V2000
    6.1349  -18.5641   21.2116 O   0  0  0  0  0  0  0  0  0  0  0  0
    5.3645  -17.6760   20.4789 C   0  0  0  0  0  0  0  0  0  0  0  0
    6.1961  -17.1241   19.3419 C   0  0  2  0  0  0  0  0  0  0  0  0
    6.6165  -18.1709   18.4386 N   0  0  0  0  0  0  0  0  0  0  0  0
    7.3578  -16.4259   19.9547 C   0  0  0  0  0  0  0  0  0  0  0  0
    8.4216  -16.3954   19.2813 O   0  0  0  0  0  0  0  0  0  0  0  0
    8.1216  -13.6097   20.7962 C   0  0  0  0  0  0  0  0  0  0  0  0
    8.3322  -14.8828   21.6281 C   0  0  2  0  0  0  0  0  0  0  0  0
    7.3073  -15.8112   21.2361 N   0  0  0  0  0  0  0  0  0  0  0  0
    8.1933  -14.4567   23.0460 C   0  0  0  0  0  0  0  0  0  0  0  0
    7.1469  -13.8432   23.3733 O   0  0  0  0  0  0  0  0  0  0  0  0
    9.1623  -14.7011   24.0345 N   0  0  0  0  0  0  0  0  0  0  0  0
    8.8549  -15.0915   25.4147 C   0  0  1  0  0  0  0  0  0  0  0  0
    7.3628  -15.1585   25.6198 C   0  0  0  0  0  0  0  0  0  0  0  0
    6.8812  -13.8525   26.1076 C   0  0  0  0  0  0  0  0  0  0  0  0
    7.6792  -12.7677   26.4772 C   0  0  0  0  0  0  0  0  0  0  0  0
    6.9027  -11.7507   26.8690 N   0  0  0  0  0  0  0  0  0  0  0  0
    5.6330  -12.1602   26.7583 C   0  0  0  0  0  0  0  0  0  0  0  0
    5.6293  -13.4433   26.2933 N   0  0  0  0  0  0  0  0  0  0  0  0
    9.4104  -16.4572   25.5591 C   0  0  0  0  0  0  0  0  0  0  0  0
   10.3657  -16.8058   26.5067 O   0  0  0  0  0  0  0  0  0  0  0  0
    9.0092  -17.3582   24.7950 O   0  0  0  0  0  0  0  0  0  0  0  0
  2  1  1  0
  3  4  1  6
  3  2  1  0
  5  3  1  0
  5  6  2  0
  8  7  1  6
  8  9  1  0
  8 10  1  0
  9  5  1  0
 10 12  1  0
 11 10  2  0
 12 13  1  0
 13 20  1  0
 14 15  1  0
 13 14  1  6
 15 16  2  0
 17 16  1  0
 18 17  1  0
 19 18  2  0
 19 15  1  0
 20 22  2  0
 20 21  1  0
M  END
$$$$
