SAH.pdb
     RDKit          3D

 22 22  0  0  1  0  0  0  0  0999 V2000
    8.2703  -17.4538   15.8208 O   0  0  0  0  0  0  0  0  0  0  0  0
    7.2845  -16.4828   15.7555 C   0  0  0  0  0  0  0  0  0  0  0  0
    7.9275  -15.1475   15.4517 C   0  0  2  0  0  0  0  0  0  0  0  0
    8.8184  -15.2363   14.3172 N   0  0  0  0  0  0  0  0  0  0  0  0
    8.6451  -14.7225   16.6834 C   0  0  0  0  0  0  0  0  0  0  0  0
    9.8605  -15.0406   16.7707 O   0  0  0  0  0  0  0  0  0  0  0  0
    7.8371  -12.8338   19.8128 C   0  0  0  0  0  0  0  0  0  0  0  0
    8.7493  -13.7065   18.9391 C   0  0  2  0  0  0  0  0  0  0  0  0
    8.0222  -13.9916   17.7323 N   0  0  0  0  0  0  0  0  0  0  0  0
    9.0117  -14.9312   19.7406 C   0  0  0  0  0  0  0  0  0  0  0  0
    8.1484  -15.8436   19.7157 O   0  0  0  0  0  0  0  0  0  0  0  0
   10.1656  -15.1234   20.5200 N   0  0  0  0  0  0  0  0  0  0  0  0
   10.4503  -16.3395   21.2894 C   0  0  1  0  0  0  0  0  0  0  0  0
   11.8559  -16.8129   21.0187 C   0  0  0  0  0  0  0  0  0  0  0  0
   11.8437  -17.7354   19.8678 C   0  0  0  0  0  0  0  0  0  0  0  0
   11.1020  -17.5772   18.6951 C   0  0  0  0  0  0  0  0  0  0  0  0
   11.3377  -18.6053   17.8715 N   0  0  0  0  0  0  0  0  0  0  0  0
   12.2091  -19.4121   18.4894 C   0  0  0  0  0  0  0  0  0  0  0  0
   12.5122  -18.8739   19.7063 N   0  0  0  0  0  0  0  0  0  0  0  0
   10.3598  -15.9248   22.7086 C   0  0  0  0  0  0  0  0  0  0  0  0
   10.3507  -16.8170   23.7745 O   0  0  0  0  0  0  0  0  0  0  0  0
   10.2869  -14.7094   22.9811 O   0  0  0  0  0  0  0  0  0  0  0  0
  2  1  1  0
  3  4  1  6
  3  2  1  0
  5  3  1  0
  5  6  2  0
  8  7  1  1
  8  9  1  0
  8 10  1  0
  9  5  1  0
 10 12  1  0
 11 10  2  0
 12 13  1  0
 13 20  1  0
 14 15  1  0
 13 14  1  6
 15 16  2  0
 17 16  1  0
 18 17  1  0
 19 18  2  0
 19 15  1  0
 20 22  2  0
 20 21  1  0
M  END
$$$$
