SAH.pdb
     RDKit          3D

 22 22  0  0  1  0  0  0  0  0999 V2000
    7.9379  -18.6945   22.3171 O   0  0  0  0  0  0  0  0  0  0  0  0
    6.9764  -18.7112   21.3201 C   0  0  0  0  0  0  0  0  0  0  0  0
    7.4937  -17.9433   20.1237 C   0  0  2  0  0  0  0  0  0  0  0  0
    8.2825  -18.7872   19.2553 N   0  0  0  0  0  0  0  0  0  0  0  0
    8.2877  -16.8020   20.6523 C   0  0  0  0  0  0  0  0  0  0  0  0
    9.5342  -16.9647   20.7290 O   0  0  0  0  0  0  0  0  0  0  0  0
    7.6595  -13.2036   21.3666 C   0  0  0  0  0  0  0  0  0  0  0  0
    8.5424  -14.4590   21.4117 C   0  0  2  0  0  0  0  0  0  0  0  0
    7.7028  -15.5718   21.0611 N   0  0  0  0  0  0  0  0  0  0  0  0
    9.0361  -14.5456   22.8117 C   0  0  0  0  0  0  0  0  0  0  0  0
    9.7406  -13.5995   23.2439 O   0  0  0  0  0  0  0  0  0  0  0  0
    8.7597  -15.6214   23.6732 N   0  0  0  0  0  0  0  0  0  0  0  0
    9.1463  -15.6682   25.0875 C   0  0  1  0  0  0  0  0  0  0  0  0
    7.9330  -15.8888   25.9547 C   0  0  0  0  0  0  0  0  0  0  0  0
    7.2022  -14.6158   26.0993 C   0  0  0  0  0  0  0  0  0  0  0  0
    7.7575  -13.3847   26.4543 C   0  0  0  0  0  0  0  0  0  0  0  0
    6.7989  -12.4515   26.4881 N   0  0  0  0  0  0  0  0  0  0  0  0
    5.6497  -13.0568   26.1642 C   0  0  0  0  0  0  0  0  0  0  0  0
    5.9049  -14.3766   25.9287 N   0  0  0  0  0  0  0  0  0  0  0  0
   10.0286  -16.8524   25.2044 C   0  0  0  0  0  0  0  0  0  0  0  0
   10.6746  -17.2209   26.3788 O   0  0  0  0  0  0  0  0  0  0  0  0
   10.2136  -17.5713   24.2016 O   0  0  0  0  0  0  0  0  0  0  0  0
  2  1  1  0
  3  4  1  6
  3  2  1  0
  5  3  1  0
  5  6  2  0
  8  7  1  1
  8  9  1  0
  8 10  1  0
  9  5  1  0
 10 12  1  0
 11 10  2  0
 12 13  1  0
 13 20  1  0
 14 15  1  0
 13 14  1  1
 15 16  2  0
 17 16  1  0
 18 17  1  0
 19 18  2  0
 19 15  1  0
 20 22  2  0
 20 21  1  0
M  END
$$$$
