SAH.pdb
     RDKit          3D

 22 22  0  0  1  0  0  0  0  0999 V2000
    7.8691  -18.2383   20.6990 O   0  0  0  0  0  0  0  0  0  0  0  0
    6.8121  -17.9972   19.8367 C   0  0  0  0  0  0  0  0  0  0  0  0
    7.3316  -17.2839   18.6078 C   0  0  2  0  0  0  0  0  0  0  0  0
    8.0981  -18.1736   17.7654 N   0  0  0  0  0  0  0  0  0  0  0  0
    8.1497  -16.1375   19.0863 C   0  0  0  0  0  0  0  0  0  0  0  0
    9.3992  -16.2949   19.0920 O   0  0  0  0  0  0  0  0  0  0  0  0
    7.5586  -12.5839   20.0716 C   0  0  0  0  0  0  0  0  0  0  0  0
    8.4399  -13.8354   19.9507 C   0  0  2  0  0  0  0  0  0  0  0  0
    7.5839  -14.9083   19.5237 N   0  0  0  0  0  0  0  0  0  0  0  0
    8.9919  -14.0639   21.3124 C   0  0  0  0  0  0  0  0  0  0  0  0
    9.8023  -13.2175   21.7655 O   0  0  0  0  0  0  0  0  0  0  0  0
    8.6592  -15.1681   22.1160 N   0  0  0  0  0  0  0  0  0  0  0  0
    9.2423  -15.4361   23.4351 C   0  0  1  0  0  0  0  0  0  0  0  0
    8.1636  -15.8188   24.4164 C   0  0  0  0  0  0  0  0  0  0  0  0
    7.5226  -14.5953   24.9339 C   0  0  0  0  0  0  0  0  0  0  0  0
    8.1038  -13.3272   24.9991 C   0  0  0  0  0  0  0  0  0  0  0  0
    7.2316  -12.4588   25.5243 N   0  0  0  0  0  0  0  0  0  0  0  0
    6.1120  -13.1412   25.7945 C   0  0  0  0  0  0  0  0  0  0  0  0
    6.2984  -14.4434   25.4312 N   0  0  0  0  0  0  0  0  0  0  0  0
   10.1283  -16.6058   23.2317 C   0  0  0  0  0  0  0  0  0  0  0  0
   10.9177  -17.1597   24.2328 O   0  0  0  0  0  0  0  0  0  0  0  0
   10.1812  -17.1367   22.1038 O   0  0  0  0  0  0  0  0  0  0  0  0
  2  1  1  0
  3  4  1  1
  3  2  1  0
  5  3  1  0
  5  6  2  0
  8  7  1  1
  8  9  1  0
  8 10  1  0
  9  5  1  0
 10 12  1  0
 11 10  2  0
 12 13  1  0
 13 20  1  0
 14 15  1  0
 13 14  1  1
 15 16  2  0
 17 16  1  0
 18 17  1  0
 19 18  2  0
 19 15  1  0
 20 22  2  0
 20 21  1  0
M  END
$$$$
