SAH.pdb
     RDKit          3D

 22 22  0  0  1  0  0  0  0  0999 V2000
    7.2190  -18.9091   23.3668 O   0  0  0  0  0  0  0  0  0  0  0  0
    6.0972  -18.6400   22.5999 C   0  0  0  0  0  0  0  0  0  0  0  0
    6.5357  -18.2465   21.2065 C   0  0  2  0  0  0  0  0  0  0  0  0
    7.0583  -19.3797   20.4776 N   0  0  0  0  0  0  0  0  0  0  0  0
    7.5541  -17.1733   21.3602 C   0  0  0  0  0  0  0  0  0  0  0  0
    8.7607  -17.5149   21.2445 O   0  0  0  0  0  0  0  0  0  0  0  0
    7.5910  -13.4577   21.6300 C   0  0  0  0  0  0  0  0  0  0  0  0
    8.2594  -14.8338   21.7604 C   0  0  2  0  0  0  0  0  0  0  0  0
    7.2194  -15.8168   21.6253 N   0  0  0  0  0  0  0  0  0  0  0  0
    8.8750  -14.8482   23.1139 C   0  0  0  0  0  0  0  0  0  0  0  0
    9.7840  -14.0145   23.3528 O   0  0  0  0  0  0  0  0  0  0  0  0
    8.4984  -15.7379   24.1348 N   0  0  0  0  0  0  0  0  0  0  0  0
    9.0404  -15.7094   25.4977 C   0  0  1  0  0  0  0  0  0  0  0  0
    7.9199  -15.6930   26.5063 C   0  0  0  0  0  0  0  0  0  0  0  0
    7.2891  -14.3597   26.5089 C   0  0  0  0  0  0  0  0  0  0  0  0
    7.9406  -13.1424   26.7185 C   0  0  0  0  0  0  0  0  0  0  0  0
    7.0555  -12.1409   26.6509 N   0  0  0  0  0  0  0  0  0  0  0  0
    5.8595  -12.6893   26.4041 C   0  0  0  0  0  0  0  0  0  0  0  0
    6.0114  -14.0429   26.3189 N   0  0  0  0  0  0  0  0  0  0  0  0
    9.7828  -16.9832   25.6414 C   0  0  0  0  0  0  0  0  0  0  0  0
    9.9234  -17.9144   24.6189 O   0  0  0  0  0  0  0  0  0  0  0  0
   10.3187  -17.2518   26.7356 O   0  0  0  0  0  0  0  0  0  0  0  0
  2  1  1  0
  3  4  1  1
  3  2  1  0
  5  3  1  0
  5  6  2  0
  8  7  1  1
  8  9  1  0
  8 10  1  0
  9  5  1  0
 10 12  1  0
 11 10  2  0
 12 13  1  0
 13 20  1  0
 14 15  1  0
 13 14  1  1
 15 16  2  0
 17 16  1  0
 18 17  1  0
 19 18  2  0
 19 15  1  0
 20 22  2  0
 20 21  1  0
M  END
$$$$
