SAH.pdb
     RDKit          3D

 22 22  0  0  1  0  0  0  0  0999 V2000
    6.4388  -19.8235   22.9626 O   0  0  0  0  0  0  0  0  0  0  0  0
    7.6225  -19.3904   22.3879 C   0  0  0  0  0  0  0  0  0  0  0  0
    7.3010  -18.5363   21.1814 C   0  0  2  0  0  0  0  0  0  0  0  0
    7.6765  -19.1964   19.9518 N   0  0  0  0  0  0  0  0  0  0  0  0
    8.0238  -17.2483   21.3579 C   0  0  0  0  0  0  0  0  0  0  0  0
    9.2653  -17.2604   21.1466 O   0  0  0  0  0  0  0  0  0  0  0  0
    7.1661  -13.6661   21.8651 C   0  0  0  0  0  0  0  0  0  0  0  0
    8.1492  -14.8434   21.9341 C   0  0  2  0  0  0  0  0  0  0  0  0
    7.3783  -16.0419   21.7455 N   0  0  0  0  0  0  0  0  0  0  0  0
    8.7571  -14.7727   23.2893 C   0  0  0  0  0  0  0  0  0  0  0  0
    9.5157  -13.8035   23.5412 O   0  0  0  0  0  0  0  0  0  0  0  0
    8.5312  -15.7249   24.2984 N   0  0  0  0  0  0  0  0  0  0  0  0
    9.0866  -15.6410   25.6535 C   0  0  1  0  0  0  0  0  0  0  0  0
    7.9762  -15.5801   26.6715 C   0  0  0  0  0  0  0  0  0  0  0  0
    7.3051  -14.2698   26.5793 C   0  0  0  0  0  0  0  0  0  0  0  0
    7.8571  -13.0367   26.9327 C   0  0  0  0  0  0  0  0  0  0  0  0
    6.9627  -12.0649   26.7169 N   0  0  0  0  0  0  0  0  0  0  0  0
    5.8576  -12.6475   26.2359 C   0  0  0  0  0  0  0  0  0  0  0  0
    6.0753  -13.9924   26.1553 N   0  0  0  0  0  0  0  0  0  0  0  0
    9.8280  -16.9094   25.8428 C   0  0  0  0  0  0  0  0  0  0  0  0
   10.5396  -17.2231   26.9949 O   0  0  0  0  0  0  0  0  0  0  0  0
    9.8242  -17.7558   24.9261 O   0  0  0  0  0  0  0  0  0  0  0  0
  2  1  1  0
  3  4  1  6
  3  2  1  0
  5  3  1  0
  5  6  2  0
  8  7  1  1
  8  9  1  0
  8 10  1  0
  9  5  1  0
 10 12  1  0
 11 10  2  0
 12 13  1  0
 13 20  1  0
 14 15  1  0
 13 14  1  1
 15 16  2  0
 17 16  1  0
 18 17  1  0
 19 18  2  0
 19 15  1  0
 20 22  2  0
 20 21  1  0
M  END
$$$$
