SAH.pdb
     RDKit          3D

 22 22  0  0  1  0  0  0  0  0999 V2000
   12.9901  -17.4359   17.0018 O   0  0  0  0  0  0  0  0  0  0  0  0
   13.0618  -16.4973   18.0181 C   0  0  0  0  0  0  0  0  0  0  0  0
   12.7253  -15.1342   17.4547 C   0  0  2  0  0  0  0  0  0  0  0  0
   13.9154  -14.4233   17.0460 N   0  0  0  0  0  0  0  0  0  0  0  0
   11.9815  -14.4001   18.5131 C   0  0  0  0  0  0  0  0  0  0  0  0
   12.6709  -13.8125   19.3880 O   0  0  0  0  0  0  0  0  0  0  0  0
    8.4385  -13.4913   19.2538 C   0  0  0  0  0  0  0  0  0  0  0  0
    9.9112  -13.6614   19.6531 C   0  0  2  0  0  0  0  0  0  0  0  0
   10.5616  -14.3423   18.5669 N   0  0  0  0  0  0  0  0  0  0  0  0
    9.8926  -14.4756   20.8972 C   0  0  0  0  0  0  0  0  0  0  0  0
    9.2302  -14.0407   21.8720 O   0  0  0  0  0  0  0  0  0  0  0  0
   10.5713  -15.6981   21.0420 N   0  0  0  0  0  0  0  0  0  0  0  0
   10.5383  -16.5233   22.2543 C   0  0  1  0  0  0  0  0  0  0  0  0
   10.6854  -17.9812   21.8992 C   0  0  0  0  0  0  0  0  0  0  0  0
    9.4558  -18.4435   21.2285 C   0  0  0  0  0  0  0  0  0  0  0  0
    8.3182  -17.6740   20.9756 C   0  0  0  0  0  0  0  0  0  0  0  0
    7.3996  -18.4206   20.3514 N   0  0  0  0  0  0  0  0  0  0  0  0
    7.9230  -19.6435   20.2010 C   0  0  0  0  0  0  0  0  0  0  0  0
    9.1773  -19.6484   20.7388 N   0  0  0  0  0  0  0  0  0  0  0  0
   11.7277  -16.1075   23.0333 C   0  0  0  0  0  0  0  0  0  0  0  0
   12.0203  -16.5805   24.3072 O   0  0  0  0  0  0  0  0  0  0  0  0
   12.5228  -15.2866   22.5328 O   0  0  0  0  0  0  0  0  0  0  0  0
  2  1  1  0
  3  4  1  1
  3  2  1  0
  5  3  1  0
  5  6  2  0
  8  7  1  6
  8  9  1  0
  8 10  1  0
  9  5  1  0
 10 12  1  0
 11 10  2  0
 12 13  1  0
 13 20  1  0
 14 15  1  0
 13 14  1  6
 15 16  2  0
 17 16  1  0
 18 17  1  0
 19 18  2  0
 19 15  1  0
 20 22  2  0
 20 21  1  0
M  END
$$$$
