SAH.pdb
     RDKit          3D

 22 22  0  0  1  0  0  0  0  0999 V2000
    7.0904  -17.7860   19.0146 O   0  0  0  0  0  0  0  0  0  0  0  0
    8.0989  -17.6347   19.9521 C   0  0  0  0  0  0  0  0  0  0  0  0
    8.0739  -18.8153   20.8978 C   0  0  2  0  0  0  0  0  0  0  0  0
    6.7821  -19.4633   20.8994 N   0  0  0  0  0  0  0  0  0  0  0  0
    8.4321  -18.2978   22.2456 C   0  0  0  0  0  0  0  0  0  0  0  0
    9.5554  -17.7398   22.3594 O   0  0  0  0  0  0  0  0  0  0  0  0
    6.7238  -17.3723   25.3501 C   0  0  0  0  0  0  0  0  0  0  0  0
    7.9885  -17.8847   24.6463 C   0  0  2  0  0  0  0  0  0  0  0  0
    7.5738  -18.4095   23.3740 N   0  0  0  0  0  0  0  0  0  0  0  0
    8.5379  -18.9400   25.5383 C   0  0  0  0  0  0  0  0  0  0  0  0
    7.9752  -20.0633   25.5325 O   0  0  0  0  0  0  0  0  0  0  0  0
    9.6457  -18.7514   26.3828 N   0  0  0  0  0  0  0  0  0  0  0  0
   10.3211  -19.8292   27.1135 C   0  0  1  0  0  0  0  0  0  0  0  0
   11.8090  -19.7689   26.8777 C   0  0  0  0  0  0  0  0  0  0  0  0
   12.0924  -20.1221   25.4739 C   0  0  0  0  0  0  0  0  0  0  0  0
   11.4716  -21.1347   24.7395 C   0  0  0  0  0  0  0  0  0  0  0  0
   11.9791  -21.1686   23.5017 N   0  0  0  0  0  0  0  0  0  0  0  0
   12.9055  -20.2049   23.4302 C   0  0  0  0  0  0  0  0  0  0  0  0
   12.9679  -19.5717   24.6375 N   0  0  0  0  0  0  0  0  0  0  0  0
   10.0605  -19.5443   28.5436 C   0  0  0  0  0  0  0  0  0  0  0  0
   10.3815  -20.4182   29.5758 O   0  0  0  0  0  0  0  0  0  0  0  0
    9.5227  -18.4632   28.8576 O   0  0  0  0  0  0  0  0  0  0  0  0
  2  1  1  0
  3  4  1  1
  3  2  1  0
  5  3  1  0
  5  6  2  0
  8  7  1  1
  8  9  1  0
  8 10  1  0
  9  5  1  0
 10 12  1  0
 11 10  2  0
 12 13  1  0
 13 20  1  0
 14 15  1  0
 13 14  1  1
 15 16  2  0
 17 16  1  0
 18 17  1  0
 19 18  2  0
 19 15  1  0
 20 22  2  0
 20 21  1  0
M  END
$$$$
