SAH.pdb
     RDKit          3D

 22 22  0  0  1  0  0  0  0  0999 V2000
    6.8307  -18.3899   21.5556 O   0  0  0  0  0  0  0  0  0  0  0  0
    5.8829  -17.9094   20.6669 C   0  0  0  0  0  0  0  0  0  0  0  0
    6.5818  -17.4227   19.4166 C   0  0  2  0  0  0  0  0  0  0  0  0
    7.2196  -18.5106   18.7107 N   0  0  0  0  0  0  0  0  0  0  0  0
    7.5652  -16.3918   19.8440 C   0  0  0  0  0  0  0  0  0  0  0  0
    8.7682  -16.7548   19.9275 O   0  0  0  0  0  0  0  0  0  0  0  0
    7.5316  -12.6924   20.3203 C   0  0  0  0  0  0  0  0  0  0  0  0
    8.2223  -14.0628   20.3685 C   0  0  2  0  0  0  0  0  0  0  0  0
    7.2019  -15.0517   20.1515 N   0  0  0  0  0  0  0  0  0  0  0  0
    8.8186  -14.1581   21.7274 C   0  0  0  0  0  0  0  0  0  0  0  0
    9.7776  -13.3940   22.0011 O   0  0  0  0  0  0  0  0  0  0  0  0
    8.3712  -15.0506   22.7168 N   0  0  0  0  0  0  0  0  0  0  0  0
    8.9311  -15.1328   24.0702 C   0  0  1  0  0  0  0  0  0  0  0  0
    7.8328  -15.3570   25.0783 C   0  0  0  0  0  0  0  0  0  0  0  0
    7.2779  -14.0535   25.4890 C   0  0  0  0  0  0  0  0  0  0  0  0
    7.8109  -12.7997   25.1824 C   0  0  0  0  0  0  0  0  0  0  0  0
    7.0458  -11.8420   25.7193 N   0  0  0  0  0  0  0  0  0  0  0  0
    6.0412  -12.4537   26.3586 C   0  0  0  0  0  0  0  0  0  0  0  0
    6.1908  -13.8024   26.2129 N   0  0  0  0  0  0  0  0  0  0  0  0
    9.8031  -16.3301   24.0518 C   0  0  0  0  0  0  0  0  0  0  0  0
   10.6155  -16.7099   25.1138 O   0  0  0  0  0  0  0  0  0  0  0  0
    9.8219  -17.0502   23.0330 O   0  0  0  0  0  0  0  0  0  0  0  0
  2  1  1  0
  3  4  1  1
  3  2  1  0
  5  3  1  0
  5  6  2  0
  8  7  1  1
  8  9  1  0
  8 10  1  0
  9  5  1  0
 10 12  1  0
 11 10  2  0
 12 13  1  0
 13 20  1  0
 14 15  1  0
 13 14  1  1
 15 16  2  0
 17 16  1  0
 18 17  1  0
 19 18  2  0
 19 15  1  0
 20 22  2  0
 20 21  1  0
M  END
$$$$
