SAH.pdb
     RDKit          3D

 22 22  0  0  1  0  0  0  0  0999 V2000
    7.9726  -17.2829   14.3174 O   0  0  0  0  0  0  0  0  0  0  0  0
    8.6701  -16.5979   15.2989 C   0  0  0  0  0  0  0  0  0  0  0  0
    8.2694  -15.1396   15.2613 C   0  0  2  0  0  0  0  0  0  0  0  0
    8.7118  -14.5017   14.0422 N   0  0  0  0  0  0  0  0  0  0  0  0
    8.8612  -14.4970   16.4652 C   0  0  0  0  0  0  0  0  0  0  0  0
   10.0782  -14.1799   16.3992 O   0  0  0  0  0  0  0  0  0  0  0  0
    7.6928  -13.4318   19.8580 C   0  0  0  0  0  0  0  0  0  0  0  0
    8.7793  -13.6879   18.8039 C   0  0  2  0  0  0  0  0  0  0  0  0
    8.1201  -14.2375   17.6508 N   0  0  0  0  0  0  0  0  0  0  0  0
    9.7182  -14.6560   19.4302 C   0  0  0  0  0  0  0  0  0  0  0  0
    9.4573  -15.8800   19.3200 O   0  0  0  0  0  0  0  0  0  0  0  0
   10.8749  -14.2796   20.1347 N   0  0  0  0  0  0  0  0  0  0  0  0
   11.7721  -15.2207   20.8138 C   0  0  1  0  0  0  0  0  0  0  0  0
   13.1391  -14.6088   20.9865 C   0  0  0  0  0  0  0  0  0  0  0  0
   13.8688  -14.6829   19.7067 C   0  0  0  0  0  0  0  0  0  0  0  0
   13.4447  -15.3507   18.5559 C   0  0  0  0  0  0  0  0  0  0  0  0
   14.3580  -15.2052   17.5888 N   0  0  0  0  0  0  0  0  0  0  0  0
   15.3508  -14.4629   18.0942 C   0  0  0  0  0  0  0  0  0  0  0  0
   15.0440  -14.1488   19.3864 N   0  0  0  0  0  0  0  0  0  0  0  0
   11.1743  -15.4201   22.1544 C   0  0  0  0  0  0  0  0  0  0  0  0
   11.6524  -16.3359   23.0845 O   0  0  0  0  0  0  0  0  0  0  0  0
   10.1848  -14.7356   22.4843 O   0  0  0  0  0  0  0  0  0  0  0  0
  2  1  1  0
  3  4  1  6
  3  2  1  0
  5  3  1  0
  5  6  2  0
  8  7  1  1
  8  9  1  0
  8 10  1  0
  9  5  1  0
 10 12  1  0
 11 10  2  0
 12 13  1  0
 13 20  1  0
 14 15  1  0
 13 14  1  1
 15 16  2  0
 17 16  1  0
 18 17  1  0
 19 18  2  0
 19 15  1  0
 20 22  2  0
 20 21  1  0
M  END
$$$$
