TLW.pdb
     RDKit          3D

 30 31  0  0  1  0  0  0  0  0999 V2000
    7.9936  -17.3669   18.0074 C   0  0  0  0  0  0  0  0  0  0  0  0
    8.1665  -17.1830   19.5100 C   0  0  1  0  0  0  0  0  0  0  0  0
    8.8797  -18.2757   19.9611 O   0  0  0  0  0  0  0  0  0  0  0  0
    8.8323  -15.8762   19.7289 C   0  0  2  0  0  0  0  0  0  0  0  0
   10.0553  -15.7270   18.9700 N   0  0  0  0  0  0  0  0  0  0  0  0
    9.0259  -15.5217   21.1599 C   0  0  0  0  0  0  0  0  0  0  0  0
   10.1642  -15.6394   21.6934 O   0  0  0  0  0  0  0  0  0  0  0  0
    6.4493  -14.8146   26.0089 C   0  0  0  0  0  0  0  0  0  0  0  0
    7.0319  -13.5426   25.3351 C   0  0  2  0  0  0  0  0  0  0  0  0
    6.0222  -12.4507   25.5796 C   0  0  0  0  0  0  0  0  0  0  0  0
    7.0845  -13.8522   23.8758 C   0  0  0  0  0  0  0  0  0  0  0  0
    8.1592  -14.7800   23.4419 C   0  0  2  0  0  0  0  0  0  0  0  0
    7.9834  -15.0498   21.9789 N   0  0  0  0  0  0  0  0  0  0  0  0
    8.3023  -16.0483   24.1508 C   0  0  0  0  0  0  0  0  0  0  0  0
    7.4398  -16.9645   23.8752 O   0  0  0  0  0  0  0  0  0  0  0  0
    9.2605  -16.4176   25.0986 N   0  0  0  0  0  0  0  0  0  0  0  0
    9.4664  -17.7815   25.5892 C   0  0  1  0  0  0  0  0  0  0  0  0
   10.8267  -17.7891   26.2240 C   0  0  0  0  0  0  0  0  0  0  0  0
   10.9258  -17.2517   27.5838 C   0  0  0  0  0  0  0  0  0  0  0  0
   10.9962  -18.0320   28.7453 C   0  0  0  0  0  0  0  0  0  0  0  0
   11.0558  -17.2516   29.8242 N   0  0  0  0  0  0  0  0  0  0  0  0
   11.0269  -15.9741   29.4017 C   0  0  0  0  0  0  0  0  0  0  0  0
   11.0763  -14.7798   30.0854 C   0  0  0  0  0  0  0  0  0  0  0  0
   11.0499  -13.5661   29.4524 C   0  0  0  0  0  0  0  0  0  0  0  0
   10.9705  -13.5369   28.0650 C   0  0  0  0  0  0  0  0  0  0  0  0
   10.9201  -14.7201   27.3674 C   0  0  0  0  0  0  0  0  0  0  0  0
   10.9472  -15.9502   28.0281 C   0  0  0  0  0  0  0  0  0  0  0  0
    8.3556  -18.2341   26.4289 C   0  0  0  0  0  0  0  0  0  0  0  0
    7.4666  -17.3793   26.7576 O   0  0  0  0  0  0  0  0  0  0  0  0
    8.1565  -19.5040   26.9087 O   0  0  0  0  0  0  0  0  0  0  0  0
  2  1  1  6
  3  2  1  0
  4  6  1  0
  4  5  1  6
  4  2  1  0
  6  7  2  0
  9 11  1  0
  9  8  1  1
 10  9  1  0
 12 11  1  1
 12 14  1  0
 13 12  1  0
 13  6  1  0
 14 15  2  0
 16 17  1  0
 16 14  1  0
 17 28  1  0
 17 18  1  1
 19 18  1  0
 20 19  2  0
 21 22  1  0
 21 20  1  0
 22 27  2  0
 23 22  1  0
 23 24  2  0
 24 25  1  0
 25 26  2  0
 27 19  1  0
 27 26  1  0
 28 29  2  0
 28 30  1  0
M  END
$$$$
