TLW.pdb
     RDKit          3D

 30 31  0  0  1  0  0  0  0  0999 V2000
   12.5055  -18.9077   20.7637 C   0  0  0  0  0  0  0  0  0  0  0  0
   11.4967  -18.4988   19.6976 C   0  0  1  0  0  0  0  0  0  0  0  0
   11.3560  -19.5816   18.8526 O   0  0  0  0  0  0  0  0  0  0  0  0
   10.2516  -18.0892   20.3909 C   0  0  2  0  0  0  0  0  0  0  0  0
    9.0845  -18.1322   19.5366 N   0  0  0  0  0  0  0  0  0  0  0  0
   10.3544  -16.7958   21.1174 C   0  0  0  0  0  0  0  0  0  0  0  0
   11.4872  -16.2924   21.3576 O   0  0  0  0  0  0  0  0  0  0  0  0
    9.0771  -13.7287   19.4418 C   0  0  0  0  0  0  0  0  0  0  0  0
    7.8731  -14.1193   20.3414 C   0  0  2  0  0  0  0  0  0  0  0  0
    6.7627  -13.1685   19.9748 C   0  0  0  0  0  0  0  0  0  0  0  0
    8.3160  -13.8491   21.7410 C   0  0  0  0  0  0  0  0  0  0  0  0
    9.3363  -14.7745   22.2948 C   0  0  2  0  0  0  0  0  0  0  0  0
    9.2297  -16.0796   21.5672 N   0  0  0  0  0  0  0  0  0  0  0  0
    9.3315  -15.0243   23.7333 C   0  0  0  0  0  0  0  0  0  0  0  0
    9.1150  -14.0084   24.4951 O   0  0  0  0  0  0  0  0  0  0  0  0
    9.5274  -16.2296   24.4127 N   0  0  0  0  0  0  0  0  0  0  0  0
   10.1619  -16.3535   25.7262 C   0  0  1  0  0  0  0  0  0  0  0  0
    9.0568  -16.2098   26.7319 C   0  0  0  0  0  0  0  0  0  0  0  0
    7.8761  -15.4489   26.3140 C   0  0  0  0  0  0  0  0  0  0  0  0
    6.7766  -15.9928   25.6371 C   0  0  0  0  0  0  0  0  0  0  0  0
    5.8774  -15.0438   25.3774 N   0  0  0  0  0  0  0  0  0  0  0  0
    6.3576  -13.8861   25.8676 C   0  0  0  0  0  0  0  0  0  0  0  0
    5.8374  -12.6113   25.8866 C   0  0  0  0  0  0  0  0  0  0  0  0
    6.4930  -11.5557   26.4615 C   0  0  0  0  0  0  0  0  0  0  0  0
    7.7325  -11.7785   27.0496 C   0  0  0  0  0  0  0  0  0  0  0  0
    8.2662  -13.0451   27.0391 C   0  0  0  0  0  0  0  0  0  0  0  0
    7.5850  -14.1113   26.4477 C   0  0  0  0  0  0  0  0  0  0  0  0
   10.9781  -17.5649   25.8271 C   0  0  0  0  0  0  0  0  0  0  0  0
   11.6183  -17.7669   26.9126 O   0  0  0  0  0  0  0  0  0  0  0  0
   11.1314  -18.5313   24.8653 O   0  0  0  0  0  0  0  0  0  0  0  0
  2  1  1  1
  3  2  1  0
  4  6  1  0
  4  5  1  6
  4  2  1  0
  6  7  2  0
  9 11  1  0
  9  8  1  6
 10  9  1  0
 12 11  1  1
 12 14  1  0
 13 12  1  0
 13  6  1  0
 14 15  2  0
 16 17  1  0
 16 14  1  0
 17 28  1  0
 17 18  1  1
 19 18  1  0
 20 19  2  0
 21 22  1  0
 21 20  1  0
 22 27  2  0
 23 22  1  0
 23 24  2  0
 24 25  1  0
 25 26  2  0
 27 19  1  0
 27 26  1  0
 28 29  2  0
 28 30  1  0
M  END
$$$$
