TLW.pdb
     RDKit          3D

 30 31  0  0  1  0  0  0  0  0999 V2000
    7.4480  -19.5581   23.1826 C   0  0  0  0  0  0  0  0  0  0  0  0
    8.1327  -20.3794   22.0972 C   0  0  1  0  0  0  0  0  0  0  0  0
    7.5759  -21.6418   22.1481 O   0  0  0  0  0  0  0  0  0  0  0  0
    7.9410  -19.6701   20.8091 C   0  0  2  0  0  0  0  0  0  0  0  0
    8.3219  -20.4639   19.6607 N   0  0  0  0  0  0  0  0  0  0  0  0
    8.5447  -18.3120   20.7641 C   0  0  0  0  0  0  0  0  0  0  0  0
    9.7695  -18.1719   20.4911 O   0  0  0  0  0  0  0  0  0  0  0  0
    8.5370  -12.7734   21.3347 C   0  0  0  0  0  0  0  0  0  0  0  0
    7.8034  -13.4687   20.1559 C   0  0  2  0  0  0  0  0  0  0  0  0
    6.5997  -12.6113   19.8598 C   0  0  0  0  0  0  0  0  0  0  0  0
    7.3535  -14.7886   20.6884 C   0  0  0  0  0  0  0  0  0  0  0  0
    8.4238  -15.7734   20.9864 C   0  0  2  0  0  0  0  0  0  0  0  0
    7.8092  -17.1392   21.0166 N   0  0  0  0  0  0  0  0  0  0  0  0
    9.2226  -15.5789   22.1930 C   0  0  0  0  0  0  0  0  0  0  0  0
   10.1169  -14.6528   22.1503 O   0  0  0  0  0  0  0  0  0  0  0  0
    9.1510  -16.2629   23.4094 N   0  0  0  0  0  0  0  0  0  0  0  0
   10.0322  -16.0245   24.5539 C   0  0  1  0  0  0  0  0  0  0  0  0
    9.1761  -16.1969   25.7749 C   0  0  0  0  0  0  0  0  0  0  0  0
    7.9705  -15.3682   25.8606 C   0  0  0  0  0  0  0  0  0  0  0  0
    6.6744  -15.8157   25.5728 C   0  0  0  0  0  0  0  0  0  0  0  0
    5.7981  -14.8224   25.7220 N   0  0  0  0  0  0  0  0  0  0  0  0
    6.4858  -13.7297   26.1021 C   0  0  0  0  0  0  0  0  0  0  0  0
    6.0802  -12.4488   26.4038 C   0  0  0  0  0  0  0  0  0  0  0  0
    6.9554  -11.4706   26.7931 C   0  0  0  0  0  0  0  0  0  0  0  0
    8.3068  -11.7815   26.8881 C   0  0  0  0  0  0  0  0  0  0  0  0
    8.7284  -13.0553   26.5902 C   0  0  0  0  0  0  0  0  0  0  0  0
    7.8229  -14.0419   26.1937 C   0  0  0  0  0  0  0  0  0  0  0  0
   11.2447  -16.8429   24.4902 C   0  0  0  0  0  0  0  0  0  0  0  0
   12.0923  -16.7322   25.4380 O   0  0  0  0  0  0  0  0  0  0  0  0
   11.5768  -17.7390   23.5058 O   0  0  0  0  0  0  0  0  0  0  0  0
  2  1  1  1
  3  2  1  0
  4  6  1  0
  4  5  1  6
  4  2  1  0
  6  7  2  0
  9 11  1  0
  9  8  1  1
 10  9  1  0
 12 11  1  1
 12 14  1  0
 13 12  1  0
 13  6  1  0
 14 15  2  0
 16 17  1  0
 16 14  1  0
 17 28  1  0
 17 18  1  1
 19 18  1  0
 20 19  2  0
 21 22  1  0
 21 20  1  0
 22 27  2  0
 23 22  1  0
 23 24  2  0
 24 25  1  0
 25 26  2  0
 27 19  1  0
 27 26  1  0
 28 29  2  0
 28 30  1  0
M  END
$$$$
