TLW.pdb
     RDKit          3D

 30 31  0  0  1  0  0  0  0  0999 V2000
    7.0476  -20.8807   20.8683 C   0  0  0  0  0  0  0  0  0  0  0  0
    7.6878  -19.6371   21.4726 C   0  0  1  0  0  0  0  0  0  0  0  0
    8.7430  -20.0745   22.2481 O   0  0  0  0  0  0  0  0  0  0  0  0
    8.0710  -18.7410   20.3550 C   0  0  2  0  0  0  0  0  0  0  0  0
    8.8926  -19.3940   19.3586 N   0  0  0  0  0  0  0  0  0  0  0  0
    8.6555  -17.4433   20.7857 C   0  0  0  0  0  0  0  0  0  0  0  0
    9.9071  -17.2774   20.7745 O   0  0  0  0  0  0  0  0  0  0  0  0
    8.8659  -13.0823   19.5218 C   0  0  0  0  0  0  0  0  0  0  0  0
    7.4857  -13.6714   19.9212 C   0  0  2  0  0  0  0  0  0  0  0  0
    6.4879  -12.5642   19.6978 C   0  0  0  0  0  0  0  0  0  0  0  0
    7.5838  -13.9638   21.3817 C   0  0  0  0  0  0  0  0  0  0  0  0
    8.4654  -15.0952   21.7649 C   0  0  2  0  0  0  0  0  0  0  0  0
    7.8719  -16.3577   21.2190 N   0  0  0  0  0  0  0  0  0  0  0  0
    8.7722  -15.2810   23.1802 C   0  0  0  0  0  0  0  0  0  0  0  0
    7.9387  -14.7764   24.0228 O   0  0  0  0  0  0  0  0  0  0  0  0
    9.8572  -15.9432   23.7607 N   0  0  0  0  0  0  0  0  0  0  0  0
   10.1519  -15.9641   25.1946 C   0  0  1  0  0  0  0  0  0  0  0  0
    8.8885  -16.4164   25.8674 C   0  0  0  0  0  0  0  0  0  0  0  0
    7.7908  -15.4479   25.9344 C   0  0  0  0  0  0  0  0  0  0  0  0
    6.4698  -15.7136   25.5508 C   0  0  0  0  0  0  0  0  0  0  0  0
    5.7145  -14.6266   25.7086 N   0  0  0  0  0  0  0  0  0  0  0  0
    6.5064  -13.6497   26.1880 C   0  0  0  0  0  0  0  0  0  0  0  0
    6.2433  -12.3447   26.5402 C   0  0  0  0  0  0  0  0  0  0  0  0
    7.2063  -11.5053   27.0325 C   0  0  0  0  0  0  0  0  0  0  0  0
    8.5009  -11.9882   27.1834 C   0  0  0  0  0  0  0  0  0  0  0  0
    8.7805  -13.2884   26.8363 C   0  0  0  0  0  0  0  0  0  0  0  0
    7.7868  -14.1320   26.3347 C   0  0  0  0  0  0  0  0  0  0  0  0
   11.3592  -16.7369   25.4934 C   0  0  0  0  0  0  0  0  0  0  0  0
   11.6938  -16.8753   26.7172 O   0  0  0  0  0  0  0  0  0  0  0  0
   12.1869  -17.3464   24.5847 O   0  0  0  0  0  0  0  0  0  0  0  0
  2  1  1  6
  3  2  1  0
  4  6  1  0
  4  5  1  6
  4  2  1  0
  6  7  2  0
  9 11  1  0
  9  8  1  1
 10  9  1  0
 12 11  1  1
 12 14  1  0
 13 12  1  0
 13  6  1  0
 14 15  2  0
 16 17  1  0
 16 14  1  0
 17 28  1  0
 17 18  1  1
 19 18  1  0
 20 19  2  0
 21 22  1  0
 21 20  1  0
 22 27  2  0
 23 22  1  0
 23 24  2  0
 24 25  1  0
 25 26  2  0
 27 19  1  0
 27 26  1  0
 28 29  2  0
 28 30  1  0
M  END
$$$$
