TLW.pdb
     RDKit          3D

 30 31  0  0  1  0  0  0  0  0999 V2000
   13.6148  -16.1585   16.1034 C   0  0  0  0  0  0  0  0  0  0  0  0
   12.7492  -16.1945   17.3568 C   0  0  1  0  0  0  0  0  0  0  0  0
   13.1180  -17.3253   18.0579 O   0  0  0  0  0  0  0  0  0  0  0  0
   12.9590  -14.9195   18.0843 C   0  0  2  0  0  0  0  0  0  0  0  0
   14.3552  -14.6258   18.3261 N   0  0  0  0  0  0  0  0  0  0  0  0
   12.1453  -14.7812   19.3212 C   0  0  0  0  0  0  0  0  0  0  0  0
   12.7102  -14.5742   20.4313 O   0  0  0  0  0  0  0  0  0  0  0  0
    8.5570  -11.9784   19.8835 C   0  0  0  0  0  0  0  0  0  0  0  0
    8.3076  -13.3100   19.1245 C   0  0  2  0  0  0  0  0  0  0  0  0
    6.8583  -13.2809   18.7120 C   0  0  0  0  0  0  0  0  0  0  0  0
    8.5146  -14.3899   20.1341 C   0  0  0  0  0  0  0  0  0  0  0  0
    9.9175  -14.6319   20.5553 C   0  0  2  0  0  0  0  0  0  0  0  0
   10.7410  -14.8715   19.3271 N   0  0  0  0  0  0  0  0  0  0  0  0
   10.1731  -15.6969   21.5208 C   0  0  0  0  0  0  0  0  0  0  0  0
    9.5729  -15.6028   22.6567 O   0  0  0  0  0  0  0  0  0  0  0  0
   10.9863  -16.8250   21.3841 N   0  0  0  0  0  0  0  0  0  0  0  0
   11.1951  -17.8340   22.4241 C   0  0  1  0  0  0  0  0  0  0  0  0
   11.9717  -18.9413   21.7727 C   0  0  0  0  0  0  0  0  0  0  0  0
   13.3948  -18.6946   21.5245 C   0  0  0  0  0  0  0  0  0  0  0  0
   14.2840  -18.1509   22.4607 C   0  0  0  0  0  0  0  0  0  0  0  0
   15.4999  -18.0296   21.9281 N   0  0  0  0  0  0  0  0  0  0  0  0
   15.4339  -18.4812   20.6619 C   0  0  0  0  0  0  0  0  0  0  0  0
   16.3896  -18.5955   19.6772 C   0  0  0  0  0  0  0  0  0  0  0  0
   16.1135  -19.1064   18.4373 C   0  0  0  0  0  0  0  0  0  0  0  0
   14.8179  -19.5268   18.1606 C   0  0  0  0  0  0  0  0  0  0  0  0
   13.8519  -19.4192   19.1323 C   0  0  0  0  0  0  0  0  0  0  0  0
   14.1496  -18.8950   20.3922 C   0  0  0  0  0  0  0  0  0  0  0  0
   11.7795  -17.2570   23.6364 C   0  0  0  0  0  0  0  0  0  0  0  0
   11.9814  -18.0312   24.6307 O   0  0  0  0  0  0  0  0  0  0  0  0
   12.1468  -15.9487   23.8254 O   0  0  0  0  0  0  0  0  0  0  0  0
  2  1  1  6
  3  2  1  0
  4  6  1  0
  4  5  1  1
  4  2  1  0
  6  7  2  0
  9 11  1  0
  9  8  1  1
 10  9  1  0
 12 11  1  6
 12 14  1  0
 13 12  1  0
 13  6  1  0
 14 15  2  0
 16 17  1  0
 16 14  1  0
 17 28  1  0
 17 18  1  6
 19 18  1  0
 20 19  2  0
 21 22  1  0
 21 20  1  0
 22 27  2  0
 23 22  1  0
 23 24  2  0
 24 25  1  0
 25 26  2  0
 27 19  1  0
 27 26  1  0
 28 29  2  0
 28 30  1  0
M  END
$$$$
