TLW.pdb
     RDKit          3D

 30 31  0  0  1  0  0  0  0  0999 V2000
    8.6206  -21.8139   20.6661 C   0  0  0  0  0  0  0  0  0  0  0  0
    8.8095  -20.3685   21.1093 C   0  0  1  0  0  0  0  0  0  0  0  0
    9.5815  -20.4049   22.2534 O   0  0  0  0  0  0  0  0  0  0  0  0
    9.4157  -19.6272   19.9771 C   0  0  2  0  0  0  0  0  0  0  0  0
   10.5573  -20.3042   19.4004 N   0  0  0  0  0  0  0  0  0  0  0  0
    9.7128  -18.2001   20.2708 C   0  0  0  0  0  0  0  0  0  0  0  0
   10.9095  -17.8083   20.3641 O   0  0  0  0  0  0  0  0  0  0  0  0
    6.4500  -12.9898   20.8448 C   0  0  0  0  0  0  0  0  0  0  0  0
    7.8867  -13.5614   20.9885 C   0  0  2  0  0  0  0  0  0  0  0  0
    8.6896  -12.9346   19.8777 C   0  0  0  0  0  0  0  0  0  0  0  0
    7.7594  -15.0282   20.7421 C   0  0  0  0  0  0  0  0  0  0  0  0
    9.0053  -15.8246   20.8747 C   0  0  2  0  0  0  0  0  0  0  0  0
    8.7084  -17.2324   20.4576 N   0  0  0  0  0  0  0  0  0  0  0  0
    9.6793  -15.8389   22.1698 C   0  0  0  0  0  0  0  0  0  0  0  0
   10.6651  -15.0229   22.3168 O   0  0  0  0  0  0  0  0  0  0  0  0
    9.3998  -16.6220   23.2929 N   0  0  0  0  0  0  0  0  0  0  0  0
   10.0880  -16.5101   24.5803 C   0  0  1  0  0  0  0  0  0  0  0  0
    9.8411  -15.1086   25.0580 C   0  0  0  0  0  0  0  0  0  0  0  0
    8.4843  -14.7938   25.5137 C   0  0  0  0  0  0  0  0  0  0  0  0
    7.4050  -15.6864   25.4780 C   0  0  0  0  0  0  0  0  0  0  0  0
    6.3019  -15.0974   25.9394 N   0  0  0  0  0  0  0  0  0  0  0  0
    6.6282  -13.8367   26.2795 C   0  0  0  0  0  0  0  0  0  0  0  0
    5.8848  -12.8088   26.8151 C   0  0  0  0  0  0  0  0  0  0  0  0
    6.4228  -11.5843   27.1077 C   0  0  0  0  0  0  0  0  0  0  0  0
    7.7725  -11.3691   26.8547 C   0  0  0  0  0  0  0  0  0  0  0  0
    8.5287  -12.3846   26.3200 C   0  0  0  0  0  0  0  0  0  0  0  0
    7.9646  -13.6280   26.0263 C   0  0  0  0  0  0  0  0  0  0  0  0
    9.7081  -17.5854   25.4986 C   0  0  0  0  0  0  0  0  0  0  0  0
   10.2536  -17.6082   26.6522 O   0  0  0  0  0  0  0  0  0  0  0  0
    8.8076  -18.5911   25.2538 O   0  0  0  0  0  0  0  0  0  0  0  0
  2  1  1  6
  3  2  1  0
  4  6  1  0
  4  5  1  1
  4  2  1  0
  6  7  2  0
  9 11  1  0
  9  8  1  6
 10  9  1  0
 12 11  1  1
 12 14  1  0
 13 12  1  0
 13  6  1  0
 14 15  2  0
 16 17  1  0
 16 14  1  0
 17 28  1  0
 17 18  1  1
 19 18  1  0
 20 19  2  0
 21 22  1  0
 21 20  1  0
 22 27  2  0
 23 22  1  0
 23 24  2  0
 24 25  1  0
 25 26  2  0
 27 19  1  0
 27 26  1  0
 28 29  2  0
 28 30  1  0
M  END
$$$$
