TLW.pdb
     RDKit          3D

 30 31  0  0  1  0  0  0  0  0999 V2000
    7.5366  -20.0486   18.1497 C   0  0  0  0  0  0  0  0  0  0  0  0
    7.9990  -19.0600   19.2129 C   0  0  1  0  0  0  0  0  0  0  0  0
    8.6641  -19.7964   20.1729 O   0  0  0  0  0  0  0  0  0  0  0  0
    8.8267  -18.0305   18.5393 C   0  0  2  0  0  0  0  0  0  0  0  0
    9.9286  -18.5899   17.7865 N   0  0  0  0  0  0  0  0  0  0  0  0
    9.2731  -16.9269   19.4303 C   0  0  0  0  0  0  0  0  0  0  0  0
   10.4368  -16.9395   19.9202 O   0  0  0  0  0  0  0  0  0  0  0  0
    9.2138  -12.4546   18.9282 C   0  0  0  0  0  0  0  0  0  0  0  0
    7.8572  -13.1399   19.2468 C   0  0  2  0  0  0  0  0  0  0  0  0
    6.8226  -12.0454   19.1913 C   0  0  0  0  0  0  0  0  0  0  0  0
    7.9800  -13.6360   20.6493 C   0  0  0  0  0  0  0  0  0  0  0  0
    8.8063  -14.8542   20.8426 C   0  0  2  0  0  0  0  0  0  0  0  0
    8.4495  -15.8377   19.7705 N   0  0  0  0  0  0  0  0  0  0  0  0
    8.7587  -15.5202   22.1411 C   0  0  0  0  0  0  0  0  0  0  0  0
    7.5970  -15.6463   22.6831 O   0  0  0  0  0  0  0  0  0  0  0  0
    9.8111  -16.0531   22.8902 N   0  0  0  0  0  0  0  0  0  0  0  0
    9.9426  -15.9382   24.3437 C   0  0  1  0  0  0  0  0  0  0  0  0
    8.6039  -16.3150   24.9087 C   0  0  0  0  0  0  0  0  0  0  0  0
    8.1181  -15.5252   26.0436 C   0  0  0  0  0  0  0  0  0  0  0  0
    7.9515  -16.0188   27.3442 C   0  0  0  0  0  0  0  0  0  0  0  0
    7.4741  -15.0650   28.1436 N   0  0  0  0  0  0  0  0  0  0  0  0
    7.3223  -13.9529   27.4008 C   0  0  0  0  0  0  0  0  0  0  0  0
    6.8828  -12.6879   27.7214 C   0  0  0  0  0  0  0  0  0  0  0  0
    6.8185  -11.6747   26.8028 C   0  0  0  0  0  0  0  0  0  0  0  0
    7.2121  -11.9320   25.4948 C   0  0  0  0  0  0  0  0  0  0  0  0
    7.6530  -13.1894   25.1580 C   0  0  0  0  0  0  0  0  0  0  0  0
    7.7120  -14.2126   26.1069 C   0  0  0  0  0  0  0  0  0  0  0  0
   11.0948  -16.6870   24.8494 C   0  0  0  0  0  0  0  0  0  0  0  0
   11.5522  -17.6384   24.1321 O   0  0  0  0  0  0  0  0  0  0  0  0
   11.7554  -16.4723   26.0326 O   0  0  0  0  0  0  0  0  0  0  0  0
  2  1  1  6
  3  2  1  0
  4  6  1  0
  4  5  1  1
  4  2  1  0
  6  7  2  0
  9 11  1  0
  9  8  1  1
 10  9  1  0
 12 11  1  1
 12 14  1  0
 13 12  1  0
 13  6  1  0
 14 15  2  0
 16 17  1  0
 16 14  1  0
 17 28  1  0
 17 18  1  1
 19 18  1  0
 20 19  2  0
 21 22  1  0
 21 20  1  0
 22 27  2  0
 23 22  1  0
 23 24  2  0
 24 25  1  0
 25 26  2  0
 27 19  1  0
 27 26  1  0
 28 29  2  0
 28 30  1  0
M  END
$$$$
