TLW.pdb
     RDKit          3D

 30 31  0  0  1  0  0  0  0  0999 V2000
    8.4494  -19.7309   21.7985 C   0  0  0  0  0  0  0  0  0  0  0  0
    9.2189  -19.9534   20.5024 C   0  0  1  0  0  0  0  0  0  0  0  0
    8.8116  -21.1762   20.0074 O   0  0  0  0  0  0  0  0  0  0  0  0
    8.9406  -18.8013   19.6113 C   0  0  2  0  0  0  0  0  0  0  0  0
    9.3258  -19.0394   18.2369 N   0  0  0  0  0  0  0  0  0  0  0  0
    9.4624  -17.5020   20.1119 C   0  0  0  0  0  0  0  0  0  0  0  0
   10.6910  -17.2303   20.0077 O   0  0  0  0  0  0  0  0  0  0  0  0
    8.9507  -13.1150   19.1600 C   0  0  0  0  0  0  0  0  0  0  0  0
    7.7391  -13.8639   19.7784 C   0  0  2  0  0  0  0  0  0  0  0  0
    6.6158  -12.8599   19.8216 C   0  0  0  0  0  0  0  0  0  0  0  0
    8.1509  -14.2079   21.1714 C   0  0  0  0  0  0  0  0  0  0  0  0
    9.1850  -15.2647   21.3060 C   0  0  2  0  0  0  0  0  0  0  0  0
    8.6428  -16.5294   20.7140 N   0  0  0  0  0  0  0  0  0  0  0  0
    9.7141  -15.5453   22.6375 C   0  0  0  0  0  0  0  0  0  0  0  0
   10.6525  -14.7711   23.0610 O   0  0  0  0  0  0  0  0  0  0  0  0
    9.3382  -16.5484   23.5348 N   0  0  0  0  0  0  0  0  0  0  0  0
    9.9604  -16.7762   24.8403 C   0  0  1  0  0  0  0  0  0  0  0  0
    9.8072  -15.4899   25.5989 C   0  0  0  0  0  0  0  0  0  0  0  0
    8.4391  -15.0444   25.8775 C   0  0  0  0  0  0  0  0  0  0  0  0
    7.2997  -15.8514   25.7615 C   0  0  0  0  0  0  0  0  0  0  0  0
    6.2051  -15.1524   26.0615 N   0  0  0  0  0  0  0  0  0  0  0  0
    6.5957  -13.9028   26.3734 C   0  0  0  0  0  0  0  0  0  0  0  0
    5.8858  -12.7904   26.7666 C   0  0  0  0  0  0  0  0  0  0  0  0
    6.4883  -11.5960   27.0579 C   0  0  0  0  0  0  0  0  0  0  0  0
    7.8710  -11.5013   26.9529 C   0  0  0  0  0  0  0  0  0  0  0  0
    8.5946  -12.6022   26.5613 C   0  0  0  0  0  0  0  0  0  0  0  0
    7.9648  -13.8136   26.2670 C   0  0  0  0  0  0  0  0  0  0  0  0
    9.4400  -17.9799   25.4915 C   0  0  0  0  0  0  0  0  0  0  0  0
    9.9397  -18.3154   26.6170 O   0  0  0  0  0  0  0  0  0  0  0  0
    8.4497  -18.8034   25.0187 O   0  0  0  0  0  0  0  0  0  0  0  0
  2  1  1  1
  3  2  1  0
  4  6  1  0
  4  5  1  6
  4  2  1  0
  6  7  2  0
  9 11  1  0
  9  8  1  6
 10  9  1  0
 12 11  1  1
 12 14  1  0
 13 12  1  0
 13  6  1  0
 14 15  2  0
 16 17  1  0
 16 14  1  0
 17 28  1  0
 17 18  1  1
 19 18  1  0
 20 19  2  0
 21 22  1  0
 21 20  1  0
 22 27  2  0
 23 22  1  0
 23 24  2  0
 24 25  1  0
 25 26  2  0
 27 19  1  0
 27 26  1  0
 28 29  2  0
 28 30  1  0
M  END
$$$$
