TLW.pdb
     RDKit          3D

 30 31  0  0  1  0  0  0  0  0999 V2000
    8.0579  -21.7924   20.9960 C   0  0  0  0  0  0  0  0  0  0  0  0
    8.5105  -20.3835   21.3585 C   0  0  1  0  0  0  0  0  0  0  0  0
    9.5526  -20.5226   22.2535 O   0  0  0  0  0  0  0  0  0  0  0  0
    8.8660  -19.6876   20.0983 C   0  0  2  0  0  0  0  0  0  0  0  0
    9.7762  -20.4459   19.2673 N   0  0  0  0  0  0  0  0  0  0  0  0
    9.3276  -18.2864   20.2837 C   0  0  0  0  0  0  0  0  0  0  0  0
   10.5582  -18.0111   20.2199 O   0  0  0  0  0  0  0  0  0  0  0  0
    8.7434  -12.8809   21.4824 C   0  0  0  0  0  0  0  0  0  0  0  0
    8.1402  -13.4870   20.1861 C   0  0  2  0  0  0  0  0  0  0  0  0
    6.8823  -12.7027   19.9143 C   0  0  0  0  0  0  0  0  0  0  0  0
    7.7825  -14.8943   20.5322 C   0  0  0  0  0  0  0  0  0  0  0  0
    8.9193  -15.8171   20.7779 C   0  0  2  0  0  0  0  0  0  0  0  0
    8.4471  -17.2178   20.5348 N   0  0  0  0  0  0  0  0  0  0  0  0
    9.5905  -15.7539   22.0730 C   0  0  0  0  0  0  0  0  0  0  0  0
   10.4993  -14.8512   22.2090 O   0  0  0  0  0  0  0  0  0  0  0  0
    9.3809  -16.5438   23.2065 N   0  0  0  0  0  0  0  0  0  0  0  0
   10.0413  -16.3426   24.4975 C   0  0  1  0  0  0  0  0  0  0  0  0
    9.6484  -14.9664   24.9502 C   0  0  0  0  0  0  0  0  0  0  0  0
    8.2470  -14.7696   25.3312 C   0  0  0  0  0  0  0  0  0  0  0  0
    7.2412  -15.7351   25.1932 C   0  0  0  0  0  0  0  0  0  0  0  0
    6.0716  -15.2472   25.6064 N   0  0  0  0  0  0  0  0  0  0  0  0
    6.2823  -13.9821   26.0145 C   0  0  0  0  0  0  0  0  0  0  0  0
    5.4337  -13.0342   26.5412 C   0  0  0  0  0  0  0  0  0  0  0  0
    5.8606  -11.7879   26.9140 C   0  0  0  0  0  0  0  0  0  0  0  0
    7.2034  -11.4657   26.7552 C   0  0  0  0  0  0  0  0  0  0  0  0
    8.0638  -12.4003   26.2305 C   0  0  0  0  0  0  0  0  0  0  0  0
    7.6123  -13.6673   25.8544 C   0  0  0  0  0  0  0  0  0  0  0  0
    9.7639  -17.4368   25.4300 C   0  0  0  0  0  0  0  0  0  0  0  0
    8.9351  -18.3371   25.0672 O   0  0  0  0  0  0  0  0  0  0  0  0
   10.3111  -17.6089   26.6764 O   0  0  0  0  0  0  0  0  0  0  0  0
  2  1  1  6
  3  2  1  0
  4  6  1  0
  4  5  1  1
  4  2  1  0
  6  7  2  0
  9 11  1  0
  9  8  1  1
 10  9  1  0
 12 11  1  1
 12 14  1  0
 13 12  1  0
 13  6  1  0
 14 15  2  0
 16 17  1  0
 16 14  1  0
 17 28  1  0
 17 18  1  1
 19 18  1  0
 20 19  2  0
 21 22  1  0
 21 20  1  0
 22 27  2  0
 23 22  1  0
 23 24  2  0
 24 25  1  0
 25 26  2  0
 27 19  1  0
 27 26  1  0
 28 29  2  0
 28 30  1  0
M  END
$$$$
