TLW.pdb
     RDKit          3D

 30 31  0  0  1  0  0  0  0  0999 V2000
    8.1666  -21.6620   21.4579 C   0  0  0  0  0  0  0  0  0  0  0  0
    8.6082  -20.2325   21.7456 C   0  0  1  0  0  0  0  0  0  0  0  0
    9.7972  -20.3200   22.4419 O   0  0  0  0  0  0  0  0  0  0  0  0
    8.7023  -19.5217   20.4476 C   0  0  2  0  0  0  0  0  0  0  0  0
    9.4411  -20.2609   19.4467 N   0  0  0  0  0  0  0  0  0  0  0  0
    9.1751  -18.1159   20.5541 C   0  0  0  0  0  0  0  0  0  0  0  0
   10.3476  -17.8131   20.1964 O   0  0  0  0  0  0  0  0  0  0  0  0
    6.6704  -12.6212   21.4036 C   0  0  0  0  0  0  0  0  0  0  0  0
    8.0535  -13.2876   21.1702 C   0  0  2  0  0  0  0  0  0  0  0  0
    8.5924  -12.6786   19.9012 C   0  0  0  0  0  0  0  0  0  0  0  0
    7.7662  -14.7347   20.9431 C   0  0  0  0  0  0  0  0  0  0  0  0
    8.8758  -15.6762   21.2372 C   0  0  2  0  0  0  0  0  0  0  0  0
    8.3688  -17.0728   21.0459 N   0  0  0  0  0  0  0  0  0  0  0  0
    9.5366  -15.5783   22.5355 C   0  0  0  0  0  0  0  0  0  0  0  0
   10.2061  -14.5016   22.7630 O   0  0  0  0  0  0  0  0  0  0  0  0
    9.5427  -16.5000   23.5859 N   0  0  0  0  0  0  0  0  0  0  0  0
   10.2516  -16.3158   24.8535 C   0  0  1  0  0  0  0  0  0  0  0  0
    9.2234  -16.5048   25.9308 C   0  0  0  0  0  0  0  0  0  0  0  0
    8.0120  -15.6850   25.8410 C   0  0  0  0  0  0  0  0  0  0  0  0
    6.7481  -16.1688   25.4787 C   0  0  0  0  0  0  0  0  0  0  0  0
    5.8585  -15.1763   25.4671 N   0  0  0  0  0  0  0  0  0  0  0  0
    6.5059  -14.0485   25.8139 C   0  0  0  0  0  0  0  0  0  0  0  0
    6.0706  -12.7515   25.9712 C   0  0  0  0  0  0  0  0  0  0  0  0
    6.9045  -11.7350   26.3532 C   0  0  0  0  0  0  0  0  0  0  0  0
    8.2433  -12.0223   26.5921 C   0  0  0  0  0  0  0  0  0  0  0  0
    8.6941  -13.3117   26.4394 C   0  0  0  0  0  0  0  0  0  0  0  0
    7.8307  -14.3375   26.0483 C   0  0  0  0  0  0  0  0  0  0  0  0
   11.4452  -17.1594   24.9400 C   0  0  0  0  0  0  0  0  0  0  0  0
   12.2042  -17.0204   25.9566 O   0  0  0  0  0  0  0  0  0  0  0  0
   11.8455  -18.1071   24.0323 O   0  0  0  0  0  0  0  0  0  0  0  0
  2  1  1  6
  3  2  1  0
  4  6  1  0
  4  5  1  6
  4  2  1  0
  6  7  2  0
  9 11  1  0
  9  8  1  6
 10  9  1  0
 12 11  1  1
 12 14  1  0
 13 12  1  0
 13  6  1  0
 14 15  2  0
 16 17  1  0
 16 14  1  0
 17 28  1  0
 17 18  1  1
 19 18  1  0
 20 19  2  0
 21 22  1  0
 21 20  1  0
 22 27  2  0
 23 22  1  0
 23 24  2  0
 24 25  1  0
 25 26  2  0
 27 19  1  0
 27 26  1  0
 28 29  2  0
 28 30  1  0
M  END
$$$$
