TLW.pdb
     RDKit          3D

 30 31  0  0  1  0  0  0  0  0999 V2000
    7.0514  -20.6325   20.5322 C   0  0  0  0  0  0  0  0  0  0  0  0
    7.7939  -19.4554   21.1523 C   0  0  1  0  0  0  0  0  0  0  0  0
    8.7477  -19.9910   21.9947 O   0  0  0  0  0  0  0  0  0  0  0  0
    8.3382  -18.6337   20.0444 C   0  0  2  0  0  0  0  0  0  0  0  0
    9.1028  -19.4042   19.0875 N   0  0  0  0  0  0  0  0  0  0  0  0
    9.0748  -17.4208   20.4886 C   0  0  0  0  0  0  0  0  0  0  0  0
   10.3367  -17.3966   20.4507 O   0  0  0  0  0  0  0  0  0  0  0  0
    8.9935  -12.8678   19.3689 C   0  0  0  0  0  0  0  0  0  0  0  0
    7.7823  -13.5230   20.0868 C   0  0  2  0  0  0  0  0  0  0  0  0
    6.7465  -12.4360   20.2171 C   0  0  0  0  0  0  0  0  0  0  0  0
    8.2785  -13.9007   21.4431 C   0  0  0  0  0  0  0  0  0  0  0  0
    9.1735  -15.0836   21.5065 C   0  0  2  0  0  0  0  0  0  0  0  0
    8.4286  -16.2647   20.9640 N   0  0  0  0  0  0  0  0  0  0  0  0
    9.7593  -15.4359   22.7966 C   0  0  0  0  0  0  0  0  0  0  0  0
   10.6907  -14.6633   23.2382 O   0  0  0  0  0  0  0  0  0  0  0  0
    9.4453  -16.5074   23.6368 N   0  0  0  0  0  0  0  0  0  0  0  0
   10.0518  -16.7454   24.9478 C   0  0  1  0  0  0  0  0  0  0  0  0
    9.7404  -15.5299   25.7717 C   0  0  0  0  0  0  0  0  0  0  0  0
    8.3287  -15.1553   25.8917 C   0  0  0  0  0  0  0  0  0  0  0  0
    7.2524  -16.0226   25.6630 C   0  0  0  0  0  0  0  0  0  0  0  0
    6.0966  -15.3801   25.8306 N   0  0  0  0  0  0  0  0  0  0  0  0
    6.3851  -14.1088   26.1653 C   0  0  0  0  0  0  0  0  0  0  0  0
    5.5794  -13.0322   26.4619 C   0  0  0  0  0  0  0  0  0  0  0  0
    6.0833  -11.8050   26.8002 C   0  0  0  0  0  0  0  0  0  0  0  0
    7.4624  -11.6380   26.8465 C   0  0  0  0  0  0  0  0  0  0  0  0
    8.2809  -12.7024   26.5529 C   0  0  0  0  0  0  0  0  0  0  0  0
    7.7511  -13.9480   26.2088 C   0  0  0  0  0  0  0  0  0  0  0  0
    9.6457  -18.0339   25.5124 C   0  0  0  0  0  0  0  0  0  0  0  0
   10.1414  -18.3778   26.6371 O   0  0  0  0  0  0  0  0  0  0  0  0
    8.7685  -18.9310   24.9573 O   0  0  0  0  0  0  0  0  0  0  0  0
  2  1  1  6
  3  2  1  0
  4  6  1  0
  4  5  1  1
  4  2  1  0
  6  7  2  0
  9 11  1  0
  9  8  1  6
 10  9  1  0
 12 11  1  1
 12 14  1  0
 13 12  1  0
 13  6  1  0
 14 15  2  0
 16 17  1  0
 16 14  1  0
 17 28  1  0
 17 18  1  1
 19 18  1  0
 20 19  2  0
 21 22  1  0
 21 20  1  0
 22 27  2  0
 23 22  1  0
 23 24  2  0
 24 25  1  0
 25 26  2  0
 27 19  1  0
 27 26  1  0
 28 29  2  0
 28 30  1  0
M  END
$$$$
