TLW.pdb
     RDKit          3D

 30 31  0  0  1  0  0  0  0  0999 V2000
    7.9288  -20.8830   20.9847 C   0  0  0  0  0  0  0  0  0  0  0  0
    8.3616  -19.5627   21.6100 C   0  0  1  0  0  0  0  0  0  0  0  0
    9.3566  -19.8644   22.5183 O   0  0  0  0  0  0  0  0  0  0  0  0
    8.7806  -18.6608   20.5100 C   0  0  2  0  0  0  0  0  0  0  0  0
    9.7295  -19.2716   19.6042 N   0  0  0  0  0  0  0  0  0  0  0  0
    9.2352  -17.3186   20.9604 C   0  0  0  0  0  0  0  0  0  0  0  0
   10.4651  -17.0328   20.9589 O   0  0  0  0  0  0  0  0  0  0  0  0
    8.9624  -13.0987   19.6704 C   0  0  0  0  0  0  0  0  0  0  0  0
    7.6507  -13.7514   20.1851 C   0  0  2  0  0  0  0  0  0  0  0  0
    6.5715  -12.7200   19.9780 C   0  0  0  0  0  0  0  0  0  0  0  0
    7.8585  -13.9655   21.6477 C   0  0  0  0  0  0  0  0  0  0  0  0
    8.8144  -15.0377   22.0229 C   0  0  2  0  0  0  0  0  0  0  0  0
    8.3487  -16.3193   21.4026 N   0  0  0  0  0  0  0  0  0  0  0  0
    9.0797  -15.2588   23.4415 C   0  0  0  0  0  0  0  0  0  0  0  0
    8.4518  -14.4998   24.2716 O   0  0  0  0  0  0  0  0  0  0  0  0
    9.9288  -16.1952   24.0373 N   0  0  0  0  0  0  0  0  0  0  0  0
   10.1624  -16.3122   25.4778 C   0  0  1  0  0  0  0  0  0  0  0  0
    8.8220  -16.5995   26.0896 C   0  0  0  0  0  0  0  0  0  0  0  0
    7.7811  -15.5836   25.9108 C   0  0  0  0  0  0  0  0  0  0  0  0
    6.5699  -15.7941   25.2388 C   0  0  0  0  0  0  0  0  0  0  0  0
    5.8471  -14.6743   25.2258 N   0  0  0  0  0  0  0  0  0  0  0  0
    6.5530  -13.7295   25.8743 C   0  0  0  0  0  0  0  0  0  0  0  0
    6.2751  -12.4119   26.1622 C   0  0  0  0  0  0  0  0  0  0  0  0
    7.1386  -11.6118   26.8613 C   0  0  0  0  0  0  0  0  0  0  0  0
    8.3435  -12.1497   27.2983 C   0  0  0  0  0  0  0  0  0  0  0  0
    8.6365  -13.4631   27.0190 C   0  0  0  0  0  0  0  0  0  0  0  0
    7.7451  -14.2661   26.3039 C   0  0  0  0  0  0  0  0  0  0  0  0
   11.2327  -17.2636   25.7827 C   0  0  0  0  0  0  0  0  0  0  0  0
   11.5609  -17.4240   27.0056 O   0  0  0  0  0  0  0  0  0  0  0  0
   11.9349  -18.0226   24.8809 O   0  0  0  0  0  0  0  0  0  0  0  0
  2  1  1  6
  3  2  1  0
  4  6  1  0
  4  5  1  1
  4  2  1  0
  6  7  2  0
  9 11  1  0
  9  8  1  1
 10  9  1  0
 12 11  1  1
 12 14  1  0
 13 12  1  0
 13  6  1  0
 14 15  2  0
 16 17  1  0
 16 14  1  0
 17 28  1  0
 17 18  1  1
 19 18  1  0
 20 19  2  0
 21 22  1  0
 21 20  1  0
 22 27  2  0
 23 22  1  0
 23 24  2  0
 24 25  1  0
 25 26  2  0
 27 19  1  0
 27 26  1  0
 28 29  2  0
 28 30  1  0
M  END
$$$$
