TLW.pdb
     RDKit          3D

 30 31  0  0  1  0  0  0  0  0999 V2000
   10.0823  -20.3356   18.7635 C   0  0  0  0  0  0  0  0  0  0  0  0
    9.9934  -19.2500   19.8289 C   0  0  1  0  0  0  0  0  0  0  0  0
   10.5726  -19.7692   20.9696 O   0  0  0  0  0  0  0  0  0  0  0  0
   10.6601  -18.0388   19.2927 C   0  0  2  0  0  0  0  0  0  0  0  0
   11.9955  -18.2966   18.7984 N   0  0  0  0  0  0  0  0  0  0  0  0
   10.6290  -16.8683   20.2092 C   0  0  0  0  0  0  0  0  0  0  0  0
   11.6864  -16.4842   20.7825 O   0  0  0  0  0  0  0  0  0  0  0  0
    8.5071  -12.5807   19.9935 C   0  0  0  0  0  0  0  0  0  0  0  0
    7.6235  -13.8459   20.1668 C   0  0  2  0  0  0  0  0  0  0  0  0
    6.2068  -13.3438   20.2778 C   0  0  0  0  0  0  0  0  0  0  0  0
    8.0398  -14.4486   21.4674 C   0  0  0  0  0  0  0  0  0  0  0  0
    9.3970  -15.0491   21.5059 C   0  0  2  0  0  0  0  0  0  0  0  0
    9.4548  -16.1431   20.4841 N   0  0  0  0  0  0  0  0  0  0  0  0
    9.8895  -15.5576   22.7829 C   0  0  0  0  0  0  0  0  0  0  0  0
   10.9771  -15.0336   23.2323 O   0  0  0  0  0  0  0  0  0  0  0  0
    9.3374  -16.5452   23.6029 N   0  0  0  0  0  0  0  0  0  0  0  0
    9.7881  -16.8490   24.9623 C   0  0  1  0  0  0  0  0  0  0  0  0
    9.5681  -15.5955   25.7582 C   0  0  0  0  0  0  0  0  0  0  0  0
    8.1924  -15.0974   25.8420 C   0  0  0  0  0  0  0  0  0  0  0  0
    7.0554  -15.8349   25.4868 C   0  0  0  0  0  0  0  0  0  0  0  0
    5.9561  -15.0997   25.6537 N   0  0  0  0  0  0  0  0  0  0  0  0
    6.3412  -13.8941   26.1116 C   0  0  0  0  0  0  0  0  0  0  0  0
    5.6226  -12.7728   26.4617 C   0  0  0  0  0  0  0  0  0  0  0  0
    6.2176  -11.6320   26.9297 C   0  0  0  0  0  0  0  0  0  0  0  0
    7.6015  -11.6034   27.0571 C   0  0  0  0  0  0  0  0  0  0  0  0
    8.3336  -12.7141   26.7116 C   0  0  0  0  0  0  0  0  0  0  0  0
    7.7115  -13.8701   26.2350 C   0  0  0  0  0  0  0  0  0  0  0  0
    9.1667  -18.0675   25.4849 C   0  0  0  0  0  0  0  0  0  0  0  0
    9.5313  -18.4790   26.6367 O   0  0  0  0  0  0  0  0  0  0  0  0
    8.2113  -18.8308   24.8628 O   0  0  0  0  0  0  0  0  0  0  0  0
  2  1  1  6
  3  2  1  0
  4  6  1  0
  4  5  1  1
  4  2  1  0
  6  7  2  0
  9 11  1  0
  9  8  1  1
 10  9  1  0
 12 11  1  1
 12 14  1  0
 13 12  1  0
 13  6  1  0
 14 15  2  0
 16 17  1  0
 16 14  1  0
 17 28  1  0
 17 18  1  1
 19 18  1  0
 20 19  2  0
 21 22  1  0
 21 20  1  0
 22 27  2  0
 23 22  1  0
 23 24  2  0
 24 25  1  0
 25 26  2  0
 27 19  1  0
 27 26  1  0
 28 29  2  0
 28 30  1  0
M  END
$$$$
