TLW.pdb
     RDKit          3D

 30 31  0  0  1  0  0  0  0  0999 V2000
    6.2414  -20.0017   20.6665 C   0  0  0  0  0  0  0  0  0  0  0  0
    7.1707  -18.9879   21.3224 C   0  0  1  0  0  0  0  0  0  0  0  0
    7.9516  -19.6910   22.2179 O   0  0  0  0  0  0  0  0  0  0  0  0
    7.9267  -18.3077   20.2432 C   0  0  2  0  0  0  0  0  0  0  0  0
    8.5810  -19.2291   19.3394 N   0  0  0  0  0  0  0  0  0  0  0  0
    8.8578  -17.2518   20.7219 C   0  0  0  0  0  0  0  0  0  0  0  0
   10.1054  -17.4426   20.6840 O   0  0  0  0  0  0  0  0  0  0  0  0
    7.7257  -11.8535   20.2500 C   0  0  0  0  0  0  0  0  0  0  0  0
    8.3889  -13.2543   20.1531 C   0  0  2  0  0  0  0  0  0  0  0  0
    7.3244  -14.1749   19.6140 C   0  0  0  0  0  0  0  0  0  0  0  0
    8.7138  -13.6403   21.5580 C   0  0  0  0  0  0  0  0  0  0  0  0
    9.3560  -14.9664   21.7405 C   0  0  2  0  0  0  0  0  0  0  0  0
    8.4167  -16.0163   21.2310 N   0  0  0  0  0  0  0  0  0  0  0  0
    9.8081  -15.3346   23.0790 C   0  0  0  0  0  0  0  0  0  0  0  0
   10.7240  -14.5957   23.6028 O   0  0  0  0  0  0  0  0  0  0  0  0
    9.3785  -16.3897   23.8883 N   0  0  0  0  0  0  0  0  0  0  0  0
    9.9004  -16.6826   25.2243 C   0  0  1  0  0  0  0  0  0  0  0  0
    8.7000  -16.8008   26.1179 C   0  0  0  0  0  0  0  0  0  0  0  0
    7.7243  -15.7086   26.0638 C   0  0  0  0  0  0  0  0  0  0  0  0
    6.4135  -15.8347   25.5855 C   0  0  0  0  0  0  0  0  0  0  0  0
    5.7842  -14.6612   25.6451 N   0  0  0  0  0  0  0  0  0  0  0  0
    6.6492  -13.7634   26.1522 C   0  0  0  0  0  0  0  0  0  0  0  0
    6.5187  -12.4225   26.4370 C   0  0  0  0  0  0  0  0  0  0  0  0
    7.5357  -11.6806   26.9753 C   0  0  0  0  0  0  0  0  0  0  0  0
    8.7481  -12.3044   27.2455 C   0  0  0  0  0  0  0  0  0  0  0  0
    8.8951  -13.6422   26.9667 C   0  0  0  0  0  0  0  0  0  0  0  0
    7.8480  -14.3851   26.4169 C   0  0  0  0  0  0  0  0  0  0  0  0
   10.8176  -17.8239   25.2150 C   0  0  0  0  0  0  0  0  0  0  0  0
   11.3605  -18.1649   26.3186 O   0  0  0  0  0  0  0  0  0  0  0  0
   11.1629  -18.5879   24.1288 O   0  0  0  0  0  0  0  0  0  0  0  0
  2  1  1  6
  3  2  1  0
  4  6  1  0
  4  5  1  1
  4  2  1  0
  6  7  2  0
  9 11  1  0
  9  8  1  1
 10  9  1  0
 12 11  1  1
 12 14  1  0
 13 12  1  0
 13  6  1  0
 14 15  2  0
 16 17  1  0
 16 14  1  0
 17 28  1  0
 17 18  1  1
 19 18  1  0
 20 19  2  0
 21 22  1  0
 21 20  1  0
 22 27  2  0
 23 22  1  0
 23 24  2  0
 24 25  1  0
 25 26  2  0
 27 19  1  0
 27 26  1  0
 28 29  2  0
 28 30  1  0
M  END
$$$$
