NWE.pdb
     RDKit          3D

 32 33  0  0  1  0  0  0  0  0999 V2000
   11.6160  -18.3079   19.0099 N   0  0  0  0  0  0  0  0  0  0  0  0
   11.8837  -16.9733   19.4136 C   0  0  0  0  0  0  0  0  0  0  0  0
   12.5171  -16.2449   18.5797 O   0  0  0  0  0  0  0  0  0  0  0  0
   11.4546  -16.4415   20.7334 C   0  0  0  0  0  0  0  0  0  0  0  0
   10.7971  -17.5077   21.5787 C   0  0  2  0  0  0  0  0  0  0  0  0
    9.5424  -17.8951   20.9968 N   0  0  0  0  0  0  0  0  0  0  0  0
   10.5623  -17.0375   22.9716 C   0  0  0  0  0  0  0  0  0  0  0  0
   11.4913  -16.5021   23.6388 O   0  0  0  0  0  0  0  0  0  0  0  0
    9.2808  -17.1988   23.5388 N   0  0  0  0  0  0  0  0  0  0  0  0
    8.8723  -16.9339   24.8841 C   0  0  1  0  0  0  0  0  0  0  0  0
    7.4318  -16.4714   24.9833 C   0  0  0  0  0  0  0  0  0  0  0  0
    7.3154  -15.1327   24.3628 C   0  0  0  0  0  0  0  0  0  0  0  0
    7.3427  -14.7449   23.0486 C   0  0  0  0  0  0  0  0  0  0  0  0
    7.2008  -13.3891   22.9776 N   0  0  0  0  0  0  0  0  0  0  0  0
    7.0799  -12.8691   24.2007 C   0  0  0  0  0  0  0  0  0  0  0  0
    6.9118  -11.5601   24.6381 C   0  0  0  0  0  0  0  0  0  0  0  0
    6.8116  -11.3418   25.9927 C   0  0  0  0  0  0  0  0  0  0  0  0
    6.8756  -12.3797   26.8699 C   0  0  0  0  0  0  0  0  0  0  0  0
    7.0438  -13.6794   26.4172 C   0  0  0  0  0  0  0  0  0  0  0  0
    7.1478  -13.9383   25.0878 C   0  0  0  0  0  0  0  0  0  0  0  0
    9.2379  -17.9669   25.8599 C   0  0  0  0  0  0  0  0  0  0  0  0
    8.5118  -19.0153   25.8635 O   0  0  0  0  0  0  0  0  0  0  0  0
   10.3149  -17.8371   26.7471 N   0  0  0  0  0  0  0  0  0  0  0  0
   10.6801  -18.9358   27.6560 C   0  0  1  0  0  0  0  0  0  0  0  0
   11.9116  -19.6214   27.1654 C   0  0  0  0  0  0  0  0  0  0  0  0
   13.1327  -18.7728   27.3328 C   0  0  0  0  0  0  0  0  0  0  0  0
   14.1543  -19.2195   26.3379 C   0  0  0  0  0  0  0  0  0  0  0  0
   13.8971  -20.1599   25.5669 O   0  0  0  0  0  0  0  0  0  0  0  0
   10.9003  -18.3511   28.9858 C   0  0  0  0  0  0  0  0  0  0  0  0
   10.9060  -17.1229   29.1751 O   0  0  0  0  0  0  0  0  0  0  0  0
   15.3661  -18.5769   26.2948 O   0  0  0  0  0  0  0  0  0  0  0  0
   11.1107  -19.1753   30.0779 O   0  0  0  0  0  0  0  0  0  0  0  0
  1  2  1  0
  2  3  2  0
  4  2  1  0
  5  6  1  6
  5  4  1  0
  7  5  1  0
  8  7  2  0
  9  7  1  0
 10  9  1  0
 11 12  1  0
 10 11  1  6
 12 20  1  0
 12 13  2  0
 13 14  1  0
 15 14  1  0
 15 16  2  0
 17 16  1  0
 18 17  2  0
 19 20  2  0
 19 18  1  0
 20 15  1  0
 21 22  2  0
 21 10  1  0
 23 21  1  0
 24 23  1  0
 24 25  1  6
 26 25  1  0
 27 26  1  0
 28 27  2  0
 29 24  1  0
 30 29  2  0
 31 27  1  0
 32 29  1  0
M  END
$$$$
