NWE.pdb
     RDKit          3D

 32 33  0  0  1  0  0  0  0  0999 V2000
    8.1070  -16.8190   18.5447 N   0  0  0  0  0  0  0  0  0  0  0  0
    7.9546  -15.4982   19.0426 C   0  0  0  0  0  0  0  0  0  0  0  0
    7.4840  -14.6361   18.2285 O   0  0  0  0  0  0  0  0  0  0  0  0
    8.3195  -15.1270   20.4346 C   0  0  0  0  0  0  0  0  0  0  0  0
    9.0160  -16.2607   21.1510 C   0  0  2  0  0  0  0  0  0  0  0  0
    8.1269  -17.3807   21.2846 N   0  0  0  0  0  0  0  0  0  0  0  0
    9.4867  -15.8499   22.5024 C   0  0  0  0  0  0  0  0  0  0  0  0
   10.2288  -14.8387   22.6493 O   0  0  0  0  0  0  0  0  0  0  0  0
    9.0901  -16.6099   23.6227 N   0  0  0  0  0  0  0  0  0  0  0  0
    9.5134  -16.4643   24.9815 C   0  0  1  0  0  0  0  0  0  0  0  0
    8.3599  -16.4913   25.9653 C   0  0  0  0  0  0  0  0  0  0  0  0
    7.3857  -15.4425   25.5888 C   0  0  0  0  0  0  0  0  0  0  0  0
    6.2742  -15.4927   24.7886 C   0  0  0  0  0  0  0  0  0  0  0  0
    5.6984  -14.2560   24.7421 N   0  0  0  0  0  0  0  0  0  0  0  0
    6.3919  -13.3913   25.4855 C   0  0  0  0  0  0  0  0  0  0  0  0
    6.2036  -12.0400   25.7521 C   0  0  0  0  0  0  0  0  0  0  0  0
    7.1072  -11.4150   26.5802 C   0  0  0  0  0  0  0  0  0  0  0  0
    8.1494  -12.1051   27.1173 C   0  0  0  0  0  0  0  0  0  0  0  0
    8.3230  -13.4527   26.8412 C   0  0  0  0  0  0  0  0  0  0  0  0
    7.4539  -14.1073   26.0280 C   0  0  0  0  0  0  0  0  0  0  0  0
   10.6523  -17.3034   25.3714 C   0  0  0  0  0  0  0  0  0  0  0  0
   11.1396  -17.0826   26.5291 O   0  0  0  0  0  0  0  0  0  0  0  0
   11.1935  -18.2953   24.5425 N   0  0  0  0  0  0  0  0  0  0  0  0
   12.5964  -18.7163   24.6869 C   0  0  1  0  0  0  0  0  0  0  0  0
   13.5093  -17.6365   24.2093 C   0  0  0  0  0  0  0  0  0  0  0  0
   14.9474  -17.9615   24.4650 C   0  0  0  0  0  0  0  0  0  0  0  0
   15.7845  -16.8582   23.9036 C   0  0  0  0  0  0  0  0  0  0  0  0
   15.7339  -16.6000   22.6889 O   0  0  0  0  0  0  0  0  0  0  0  0
   12.8245  -19.0041   26.1096 C   0  0  0  0  0  0  0  0  0  0  0  0
   13.5589  -19.9331   26.4865 O   0  0  0  0  0  0  0  0  0  0  0  0
   16.5992  -16.1459   24.7477 O   0  0  0  0  0  0  0  0  0  0  0  0
   12.2121  -18.2289   27.0793 O   0  0  0  0  0  0  0  0  0  0  0  0
  1  2  1  0
  2  3  2  0
  4  2  1  0
  5  6  1  1
  5  4  1  0
  7  5  1  0
  8  7  2  0
  9  7  1  0
 10  9  1  0
 11 12  1  0
 10 11  1  1
 12 20  1  0
 12 13  2  0
 13 14  1  0
 15 14  1  0
 15 16  2  0
 17 16  1  0
 18 17  2  0
 19 20  2  0
 19 18  1  0
 20 15  1  0
 21 22  2  0
 21 10  1  0
 23 21  1  0
 24 23  1  0
 24 25  1  1
 26 25  1  0
 27 26  1  0
 28 27  2  0
 29 24  1  0
 30 29  2  0
 31 27  1  0
 32 29  1  0
M  END
$$$$
