NWE.pdb
     RDKit          3D

 32 33  0  0  1  0  0  0  0  0999 V2000
    8.3940  -16.1936   17.3425 N   0  0  0  0  0  0  0  0  0  0  0  0
    7.5485  -16.1078   18.4798 C   0  0  0  0  0  0  0  0  0  0  0  0
    6.3514  -16.5218   18.3289 O   0  0  0  0  0  0  0  0  0  0  0  0
    8.0202  -15.5671   19.7812 C   0  0  0  0  0  0  0  0  0  0  0  0
    8.5540  -16.6587   20.6796 C   0  0  2  0  0  0  0  0  0  0  0  0
    7.4796  -17.5019   21.1240 N   0  0  0  0  0  0  0  0  0  0  0  0
    9.2557  -16.0989   21.8673 C   0  0  0  0  0  0  0  0  0  0  0  0
   10.1560  -15.2234   21.7336 O   0  0  0  0  0  0  0  0  0  0  0  0
    8.8990  -16.5621   23.1511 N   0  0  0  0  0  0  0  0  0  0  0  0
    9.5972  -16.3668   24.3844 C   0  0  1  0  0  0  0  0  0  0  0  0
    8.7150  -16.5698   25.6007 C   0  0  0  0  0  0  0  0  0  0  0  0
    7.5724  -15.6320   25.5248 C   0  0  0  0  0  0  0  0  0  0  0  0
    6.2603  -15.8384   25.1871 C   0  0  0  0  0  0  0  0  0  0  0  0
    5.5866  -14.6534   25.2595 N   0  0  0  0  0  0  0  0  0  0  0  0
    6.4097  -13.6720   25.6345 C   0  0  0  0  0  0  0  0  0  0  0  0
    6.1959  -12.3152   25.8489 C   0  0  0  0  0  0  0  0  0  0  0  0
    7.2680  -11.5491   26.2445 C   0  0  0  0  0  0  0  0  0  0  0  0
    8.4954  -12.1096   26.4183 C   0  0  0  0  0  0  0  0  0  0  0  0
    8.6918  -13.4646   26.2000 C   0  0  0  0  0  0  0  0  0  0  0  0
    7.6600  -14.2564   25.8080 C   0  0  0  0  0  0  0  0  0  0  0  0
   10.9015  -17.0332   24.4729 C   0  0  0  0  0  0  0  0  0  0  0  0
   10.8818  -18.3080   24.4415 O   0  0  0  0  0  0  0  0  0  0  0  0
   12.1124  -16.3370   24.5859 N   0  0  0  0  0  0  0  0  0  0  0  0
   13.3966  -17.0559   24.6079 C   0  0  1  0  0  0  0  0  0  0  0  0
   14.5248  -16.0998   24.4069 C   0  0  0  0  0  0  0  0  0  0  0  0
   15.8572  -16.7530   24.6000 C   0  0  0  0  0  0  0  0  0  0  0  0
   16.5921  -16.7128   23.2995 C   0  0  0  0  0  0  0  0  0  0  0  0
   16.4313  -17.6240   22.4697 O   0  0  0  0  0  0  0  0  0  0  0  0
   13.5031  -17.7254   25.9115 C   0  0  0  0  0  0  0  0  0  0  0  0
   14.1790  -18.7558   26.0720 O   0  0  0  0  0  0  0  0  0  0  0  0
   17.4370  -15.6616   23.0452 O   0  0  0  0  0  0  0  0  0  0  0  0
   12.8378  -17.2099   27.0106 O   0  0  0  0  0  0  0  0  0  0  0  0
  1  2  1  0
  2  3  2  0
  4  2  1  0
  5  6  1  1
  5  4  1  0
  7  5  1  0
  8  7  2  0
  9  7  1  0
 10  9  1  0
 11 12  1  0
 10 11  1  1
 12 20  1  0
 12 13  2  0
 13 14  1  0
 15 14  1  0
 15 16  2  0
 17 16  1  0
 18 17  2  0
 19 20  2  0
 19 18  1  0
 20 15  1  0
 21 22  2  0
 21 10  1  0
 23 21  1  0
 24 23  1  0
 24 25  1  1
 26 25  1  0
 27 26  1  0
 28 27  2  0
 29 24  1  0
 30 29  2  0
 31 27  1  0
 32 29  1  0
M  END
$$$$
