NWE.pdb
     RDKit          3D

 32 33  0  0  1  0  0  0  0  0999 V2000
    9.8023  -15.0815   17.6831 N   0  0  0  0  0  0  0  0  0  0  0  0
    8.7413  -15.2557   18.6101 C   0  0  0  0  0  0  0  0  0  0  0  0
    7.6206  -15.6263   18.1262 O   0  0  0  0  0  0  0  0  0  0  0  0
    8.9137  -15.0225   20.0677 C   0  0  0  0  0  0  0  0  0  0  0  0
    9.5401  -16.2141   20.7542 C   0  0  2  0  0  0  0  0  0  0  0  0
    8.6312  -17.3260   20.7406 N   0  0  0  0  0  0  0  0  0  0  0  0
    9.9092  -15.9052   22.1630 C   0  0  0  0  0  0  0  0  0  0  0  0
   10.8836  -15.1457   22.4249 O   0  0  0  0  0  0  0  0  0  0  0  0
    9.1512  -16.4756   23.2072 N   0  0  0  0  0  0  0  0  0  0  0  0
    9.3920  -16.3985   24.6153 C   0  0  1  0  0  0  0  0  0  0  0  0
    8.1154  -16.3079   25.4283 C   0  0  0  0  0  0  0  0  0  0  0  0
    7.3336  -15.1404   24.9627 C   0  0  0  0  0  0  0  0  0  0  0  0
    6.4934  -14.9902   23.8905 C   0  0  0  0  0  0  0  0  0  0  0  0
    6.0079  -13.7146   23.8760 N   0  0  0  0  0  0  0  0  0  0  0  0
    6.4987  -13.0179   24.9031 C   0  0  0  0  0  0  0  0  0  0  0  0
    6.3007  -11.7033   25.3095 C   0  0  0  0  0  0  0  0  0  0  0  0
    6.9586  -11.2722   26.4383 C   0  0  0  0  0  0  0  0  0  0  0  0
    7.7752  -12.1126   27.1294 C   0  0  0  0  0  0  0  0  0  0  0  0
    7.9621  -13.4210   26.7106 C   0  0  0  0  0  0  0  0  0  0  0  0
    7.3318  -13.8863   25.6009 C   0  0  0  0  0  0  0  0  0  0  0  0
   10.3645  -17.3672   25.1339 C   0  0  0  0  0  0  0  0  0  0  0  0
    9.9509  -18.5680   25.2495 O   0  0  0  0  0  0  0  0  0  0  0  0
   11.6755  -17.0226   25.4892 N   0  0  0  0  0  0  0  0  0  0  0  0
   12.5840  -18.0193   26.0788 C   0  0  1  0  0  0  0  0  0  0  0  0
   14.0038  -17.6232   25.8448 C   0  0  0  0  0  0  0  0  0  0  0  0
   14.2121  -17.0592   24.4745 C   0  0  0  0  0  0  0  0  0  0  0  0
   15.6644  -16.7473   24.3115 C   0  0  0  0  0  0  0  0  0  0  0  0
   16.4657  -17.0427   25.2145 O   0  0  0  0  0  0  0  0  0  0  0  0
   12.2889  -18.0865   27.5166 C   0  0  0  0  0  0  0  0  0  0  0  0
   11.5044  -17.2960   28.0679 O   0  0  0  0  0  0  0  0  0  0  0  0
   16.0880  -16.1360   23.1581 O   0  0  0  0  0  0  0  0  0  0  0  0
   12.8925  -19.0531   28.3024 O   0  0  0  0  0  0  0  0  0  0  0  0
  1  2  1  0
  2  3  2  0
  4  2  1  0
  5  6  1  1
  5  4  1  0
  7  5  1  0
  8  7  2  0
  9  7  1  0
 10  9  1  0
 11 12  1  0
 10 11  1  1
 12 20  1  0
 12 13  2  0
 13 14  1  0
 15 14  1  0
 15 16  2  0
 17 16  1  0
 18 17  2  0
 19 20  2  0
 19 18  1  0
 20 15  1  0
 21 22  2  0
 21 10  1  0
 23 21  1  0
 24 23  1  0
 24 25  1  1
 26 25  1  0
 27 26  1  0
 28 27  2  0
 29 24  1  0
 30 29  2  0
 31 27  1  0
 32 29  1  0
M  END
$$$$
