NWE.pdb
     RDKit          3D

 32 33  0  0  1  0  0  0  0  0999 V2000
   10.1267  -15.8022   17.9436 N   0  0  0  0  0  0  0  0  0  0  0  0
   10.9950  -16.2399   18.9780 C   0  0  0  0  0  0  0  0  0  0  0  0
   11.9253  -17.0428   18.6357 O   0  0  0  0  0  0  0  0  0  0  0  0
   10.8395  -15.7942   20.3873 C   0  0  0  0  0  0  0  0  0  0  0  0
   10.6411  -16.9630   21.3244 C   0  0  2  0  0  0  0  0  0  0  0  0
    9.4908  -17.7254   20.9263 N   0  0  0  0  0  0  0  0  0  0  0  0
   10.4630  -16.5141   22.7327 C   0  0  0  0  0  0  0  0  0  0  0  0
   11.3219  -15.7743   23.2893 O   0  0  0  0  0  0  0  0  0  0  0  0
    9.3153  -16.9284   23.4405 N   0  0  0  0  0  0  0  0  0  0  0  0
    9.0000  -16.7040   24.8178 C   0  0  1  0  0  0  0  0  0  0  0  0
    7.5370  -16.3752   25.0424 C   0  0  0  0  0  0  0  0  0  0  0  0
    7.2756  -15.0014   24.5577 C   0  0  0  0  0  0  0  0  0  0  0  0
    7.1688  -14.5012   23.2862 C   0  0  0  0  0  0  0  0  0  0  0  0
    6.9253  -13.1596   23.3506 N   0  0  0  0  0  0  0  0  0  0  0  0
    6.8669  -12.7576   24.6219 C   0  0  0  0  0  0  0  0  0  0  0  0
    6.6418  -11.5083   25.1887 C   0  0  0  0  0  0  0  0  0  0  0  0
    6.6362  -11.4156   26.5614 C   0  0  0  0  0  0  0  0  0  0  0  0
    6.8450  -12.5169   27.3324 C   0  0  0  0  0  0  0  0  0  0  0  0
    7.0682  -13.7557   26.7512 C   0  0  0  0  0  0  0  0  0  0  0  0
    7.0825  -13.8905   25.3996 C   0  0  0  0  0  0  0  0  0  0  0  0
    9.5395  -17.7008   25.7497 C   0  0  0  0  0  0  0  0  0  0  0  0
    8.8243  -18.7409   25.9321 O   0  0  0  0  0  0  0  0  0  0  0  0
   10.7638  -17.5465   26.4138 N   0  0  0  0  0  0  0  0  0  0  0  0
   11.2370  -18.5613   27.3690 C   0  0  1  0  0  0  0  0  0  0  0  0
   12.6957  -18.8102   27.1745 C   0  0  0  0  0  0  0  0  0  0  0  0
   13.0280  -19.1233   25.7495 C   0  0  0  0  0  0  0  0  0  0  0  0
   14.5065  -19.3121   25.6433 C   0  0  0  0  0  0  0  0  0  0  0  0
   15.0625  -20.2173   26.2886 O   0  0  0  0  0  0  0  0  0  0  0  0
   10.9680  -18.0519   28.7206 C   0  0  0  0  0  0  0  0  0  0  0  0
   11.1780  -18.7340   29.7379 O   0  0  0  0  0  0  0  0  0  0  0  0
   15.2271  -18.4754   24.8283 O   0  0  0  0  0  0  0  0  0  0  0  0
   10.4641  -16.7738   28.8908 O   0  0  0  0  0  0  0  0  0  0  0  0
  1  2  1  0
  2  3  2  0
  4  2  1  0
  5  6  1  6
  5  4  1  0
  7  5  1  0
  8  7  2  0
  9  7  1  0
 10  9  1  0
 11 12  1  0
 10 11  1  6
 12 20  1  0
 12 13  2  0
 13 14  1  0
 15 14  1  0
 15 16  2  0
 17 16  1  0
 18 17  2  0
 19 20  2  0
 19 18  1  0
 20 15  1  0
 21 22  2  0
 21 10  1  0
 23 21  1  0
 24 23  1  0
 24 25  1  1
 26 25  1  0
 27 26  1  0
 28 27  2  0
 29 24  1  0
 30 29  2  0
 31 27  1  0
 32 29  1  0
M  END
$$$$
