NWE.pdb
     RDKit          3D

 32 33  0  0  1  0  0  0  0  0999 V2000
   11.1163  -17.6126   18.3601 N   0  0  0  0  0  0  0  0  0  0  0  0
   10.9000  -16.2397   18.6495 C   0  0  0  0  0  0  0  0  0  0  0  0
   11.0858  -15.4215   17.6886 O   0  0  0  0  0  0  0  0  0  0  0  0
   10.4796  -15.7680   19.9947 C   0  0  0  0  0  0  0  0  0  0  0  0
   10.3513  -16.9124   20.9733 C   0  0  2  0  0  0  0  0  0  0  0  0
    9.1600  -17.6661   20.6982 N   0  0  0  0  0  0  0  0  0  0  0  0
   10.3066  -16.4294   22.3808 C   0  0  0  0  0  0  0  0  0  0  0  0
   11.1348  -15.5716   22.7970 O   0  0  0  0  0  0  0  0  0  0  0  0
    9.3210  -16.9458   23.2480 N   0  0  0  0  0  0  0  0  0  0  0  0
    9.1708  -16.7111   24.6512 C   0  0  1  0  0  0  0  0  0  0  0  0
    7.7251  -16.5193   25.0662 C   0  0  0  0  0  0  0  0  0  0  0  0
    7.2371  -15.2335   24.5191 C   0  0  0  0  0  0  0  0  0  0  0  0
    6.8522  -14.8835   23.2512 C   0  0  0  0  0  0  0  0  0  0  0  0
    6.4832  -13.5694   23.2408 N   0  0  0  0  0  0  0  0  0  0  0  0
    6.6108  -13.0404   24.4595 C   0  0  0  0  0  0  0  0  0  0  0  0
    6.3595  -11.7622   24.9452 C   0  0  0  0  0  0  0  0  0  0  0  0
    6.5896  -11.5241   26.2806 C   0  0  0  0  0  0  0  0  0  0  0  0
    7.0484  -12.5140   27.0933 C   0  0  0  0  0  0  0  0  0  0  0  0
    7.2942  -13.7834   26.5929 C   0  0  0  0  0  0  0  0  0  0  0  0
    7.0808  -14.0603   25.2803 C   0  0  0  0  0  0  0  0  0  0  0  0
    9.9267  -17.6220   25.5185 C   0  0  0  0  0  0  0  0  0  0  0  0
    9.4907  -18.8184   25.5886 O   0  0  0  0  0  0  0  0  0  0  0  0
   11.0629  -17.2290   26.2386 N   0  0  0  0  0  0  0  0  0  0  0  0
   11.7720  -18.1821   27.1077 C   0  0  1  0  0  0  0  0  0  0  0  0
   13.2472  -17.9974   26.9776 C   0  0  0  0  0  0  0  0  0  0  0  0
   13.6788  -17.9044   25.5478 C   0  0  0  0  0  0  0  0  0  0  0  0
   15.1691  -17.8000   25.5135 C   0  0  0  0  0  0  0  0  0  0  0  0
   15.8162  -17.8349   26.5741 O   0  0  0  0  0  0  0  0  0  0  0  0
   11.3320  -17.9304   28.4867 C   0  0  0  0  0  0  0  0  0  0  0  0
   10.5770  -16.9871   28.7779 O   0  0  0  0  0  0  0  0  0  0  0  0
   15.7988  -17.6669   24.3014 O   0  0  0  0  0  0  0  0  0  0  0  0
   11.7593  -18.7574   29.5113 O   0  0  0  0  0  0  0  0  0  0  0  0
  1  2  1  0
  2  3  2  0
  4  2  1  0
  5  6  1  6
  5  4  1  0
  7  5  1  0
  8  7  2  0
  9  7  1  0
 10  9  1  0
 11 12  1  0
 10 11  1  1
 12 20  1  0
 12 13  2  0
 13 14  1  0
 15 14  1  0
 15 16  2  0
 17 16  1  0
 18 17  2  0
 19 20  2  0
 19 18  1  0
 20 15  1  0
 21 22  2  0
 21 10  1  0
 23 21  1  0
 24 23  1  0
 24 25  1  1
 26 25  1  0
 27 26  1  0
 28 27  2  0
 29 24  1  0
 30 29  2  0
 31 27  1  0
 32 29  1  0
M  END
$$$$
