NWE.pdb
     RDKit          3D

 32 33  0  0  1  0  0  0  0  0999 V2000
   12.4616  -17.4374   16.6939 N   0  0  0  0  0  0  0  0  0  0  0  0
   11.5466  -17.9277   17.6624 C   0  0  0  0  0  0  0  0  0  0  0  0
   10.8162  -18.9109   17.3059 O   0  0  0  0  0  0  0  0  0  0  0  0
   11.4358  -17.3364   19.0215 C   0  0  0  0  0  0  0  0  0  0  0  0
    9.9942  -17.1377   19.4287 C   0  0  2  0  0  0  0  0  0  0  0  0
    9.2772  -16.4536   18.3891 N   0  0  0  0  0  0  0  0  0  0  0  0
    9.8825  -16.3566   20.6912 C   0  0  0  0  0  0  0  0  0  0  0  0
   10.7274  -15.4619   20.9752 O   0  0  0  0  0  0  0  0  0  0  0  0
    8.8140  -16.6308   21.5704 N   0  0  0  0  0  0  0  0  0  0  0  0
    8.5546  -16.0486   22.8513 C   0  0  1  0  0  0  0  0  0  0  0  0
    7.0875  -15.7345   23.0707 C   0  0  0  0  0  0  0  0  0  0  0  0
    6.8810  -15.3845   24.4940 C   0  0  0  0  0  0  0  0  0  0  0  0
    6.5694  -16.1653   25.5763 C   0  0  0  0  0  0  0  0  0  0  0  0
    6.4782  -15.3771   26.6870 N   0  0  0  0  0  0  0  0  0  0  0  0
    6.7201  -14.1023   26.3743 C   0  0  0  0  0  0  0  0  0  0  0  0
    6.7482  -12.9481   27.1487 C   0  0  0  0  0  0  0  0  0  0  0  0
    7.0405  -11.7590   26.5216 C   0  0  0  0  0  0  0  0  0  0  0  0
    7.2933  -11.7226   25.1853 C   0  0  0  0  0  0  0  0  0  0  0  0
    7.2611  -12.8829   24.4272 C   0  0  0  0  0  0  0  0  0  0  0  0
    6.9758  -14.0777   25.0073 C   0  0  0  0  0  0  0  0  0  0  0  0
    9.1978  -16.7248   23.9836 C   0  0  0  0  0  0  0  0  0  0  0  0
    8.9249  -17.9626   24.1245 O   0  0  0  0  0  0  0  0  0  0  0  0
   10.0644  -16.0754   24.8730 N   0  0  0  0  0  0  0  0  0  0  0  0
   10.9395  -16.8458   25.7714 C   0  0  1  0  0  0  0  0  0  0  0  0
   12.3693  -16.5034   25.5149 C   0  0  0  0  0  0  0  0  0  0  0  0
   13.0926  -17.6039   24.8042 C   0  0  0  0  0  0  0  0  0  0  0  0
   14.2381  -17.0046   24.0546 C   0  0  0  0  0  0  0  0  0  0  0  0
   15.0000  -16.2051   24.6248 O   0  0  0  0  0  0  0  0  0  0  0  0
   10.5593  -16.5093   27.1502 C   0  0  0  0  0  0  0  0  0  0  0  0
    9.6857  -15.6636   27.4072 O   0  0  0  0  0  0  0  0  0  0  0  0
   14.4277  -17.3522   22.7406 O   0  0  0  0  0  0  0  0  0  0  0  0
   11.1807  -17.1417   28.2133 O   0  0  0  0  0  0  0  0  0  0  0  0
  1  2  1  0
  2  3  2  0
  4  2  1  0
  5  6  1  6
  5  4  1  0
  7  5  1  0
  8  7  2  0
  9  7  1  0
 10  9  1  0
 11 12  1  0
 10 11  1  1
 12 20  1  0
 12 13  2  0
 13 14  1  0
 15 14  1  0
 15 16  2  0
 17 16  1  0
 18 17  2  0
 19 20  2  0
 19 18  1  0
 20 15  1  0
 21 22  2  0
 21 10  1  0
 23 21  1  0
 24 23  1  0
 24 25  1  6
 26 25  1  0
 27 26  1  0
 28 27  2  0
 29 24  1  0
 30 29  2  0
 31 27  1  0
 32 29  1  0
M  END
$$$$
