NWE.pdb
     RDKit          3D

 32 33  0  0  1  0  0  0  0  0999 V2000
    9.6763  -18.3634   17.4804 N   0  0  0  0  0  0  0  0  0  0  0  0
   10.5535  -17.2493   17.5515 C   0  0  0  0  0  0  0  0  0  0  0  0
   10.9093  -16.7359   16.4393 O   0  0  0  0  0  0  0  0  0  0  0  0
   11.0382  -16.7013   18.8451 C   0  0  0  0  0  0  0  0  0  0  0  0
   10.4780  -17.4668   20.0215 C   0  0  2  0  0  0  0  0  0  0  0  0
    9.1409  -17.9052   19.7338 N   0  0  0  0  0  0  0  0  0  0  0  0
   10.4624  -16.6388   21.2587 C   0  0  0  0  0  0  0  0  0  0  0  0
   11.3307  -15.7415   21.4476 O   0  0  0  0  0  0  0  0  0  0  0  0
    9.4588  -16.8716   22.2223 N   0  0  0  0  0  0  0  0  0  0  0  0
    9.4244  -16.4322   23.5833 C   0  0  1  0  0  0  0  0  0  0  0  0
    8.2190  -15.5663   23.8938 C   0  0  0  0  0  0  0  0  0  0  0  0
    7.4981  -15.2803   22.6332 C   0  0  0  0  0  0  0  0  0  0  0  0
    6.5457  -15.9987   21.9587 C   0  0  0  0  0  0  0  0  0  0  0  0
    6.1852  -15.3186   20.8314 N   0  0  0  0  0  0  0  0  0  0  0  0
    6.8671  -14.1750   20.7395 C   0  0  0  0  0  0  0  0  0  0  0  0
    6.8480  -13.1590   19.7908 C   0  0  0  0  0  0  0  0  0  0  0  0
    7.6828  -12.0825   19.9835 C   0  0  0  0  0  0  0  0  0  0  0  0
    8.4979  -12.0218   21.0710 C   0  0  0  0  0  0  0  0  0  0  0  0
    8.5049  -13.0438   22.0079 C   0  0  0  0  0  0  0  0  0  0  0  0
    7.6967  -14.1248   21.8549 C   0  0  0  0  0  0  0  0  0  0  0  0
    9.6840  -17.4766   24.5808 C   0  0  0  0  0  0  0  0  0  0  0  0
    8.9179  -17.4795   25.6003 O   0  0  0  0  0  0  0  0  0  0  0  0
   10.7051  -18.4272   24.4479 N   0  0  0  0  0  0  0  0  0  0  0  0
   12.0123  -18.2252   25.0935 C   0  0  1  0  0  0  0  0  0  0  0  0
   12.6869  -17.0219   24.5240 C   0  0  0  0  0  0  0  0  0  0  0  0
   14.0111  -16.7605   25.1700 C   0  0  0  0  0  0  0  0  0  0  0  0
   15.0558  -16.7282   24.1020 C   0  0  0  0  0  0  0  0  0  0  0  0
   16.1722  -17.2321   24.3132 O   0  0  0  0  0  0  0  0  0  0  0  0
   11.7702  -18.0580   26.5331 C   0  0  0  0  0  0  0  0  0  0  0  0
   10.8921  -17.2958   26.9714 O   0  0  0  0  0  0  0  0  0  0  0  0
   14.7590  -16.1381   22.8990 O   0  0  0  0  0  0  0  0  0  0  0  0
   12.5327  -18.7619   27.4494 O   0  0  0  0  0  0  0  0  0  0  0  0
  1  2  1  0
  2  3  2  0
  4  2  1  0
  5  6  1  6
  5  4  1  0
  7  5  1  0
  8  7  2  0
  9  7  1  0
 10  9  1  0
 11 12  1  0
 10 11  1  1
 12 20  1  0
 12 13  2  0
 13 14  1  0
 15 14  1  0
 15 16  2  0
 17 16  1  0
 18 17  2  0
 19 20  2  0
 19 18  1  0
 20 15  1  0
 21 22  2  0
 21 10  1  0
 23 21  1  0
 24 23  1  0
 24 25  1  6
 26 25  1  0
 27 26  1  0
 28 27  2  0
 29 24  1  0
 30 29  2  0
 31 27  1  0
 32 29  1  0
M  END
$$$$
