NWE.pdb
     RDKit          3D

 32 33  0  0  1  0  0  0  0  0999 V2000
   10.8611  -17.7092   18.3296 N   0  0  0  0  0  0  0  0  0  0  0  0
   10.9961  -16.3498   18.7159 C   0  0  0  0  0  0  0  0  0  0  0  0
   11.3830  -15.5387   17.8105 O   0  0  0  0  0  0  0  0  0  0  0  0
   10.7054  -15.8838   20.0969 C   0  0  0  0  0  0  0  0  0  0  0  0
   10.3927  -17.0372   21.0218 C   0  0  2  0  0  0  0  0  0  0  0  0
    9.0986  -17.5794   20.7148 N   0  0  0  0  0  0  0  0  0  0  0  0
   10.4179  -16.6185   22.4502 C   0  0  0  0  0  0  0  0  0  0  0  0
   11.4310  -16.0436   22.9381 O   0  0  0  0  0  0  0  0  0  0  0  0
    9.2883  -16.8740   23.2557 N   0  0  0  0  0  0  0  0  0  0  0  0
    9.1624  -16.7193   24.6724 C   0  0  1  0  0  0  0  0  0  0  0  0
    7.7298  -16.4982   25.1170 C   0  0  0  0  0  0  0  0  0  0  0  0
    7.2661  -15.1898   24.6035 C   0  0  0  0  0  0  0  0  0  0  0  0
    6.9200  -14.7912   23.3387 C   0  0  0  0  0  0  0  0  0  0  0  0
    6.5602  -13.4748   23.3657 N   0  0  0  0  0  0  0  0  0  0  0  0
    6.6563  -12.9912   24.6059 C   0  0  0  0  0  0  0  0  0  0  0  0
    6.3995  -11.7296   25.1305 C   0  0  0  0  0  0  0  0  0  0  0  0
    6.5929  -11.5418   26.4796 C   0  0  0  0  0  0  0  0  0  0  0  0
    7.0217  -12.5638   27.2685 C   0  0  0  0  0  0  0  0  0  0  0  0
    7.2733  -13.8162   26.7294 C   0  0  0  0  0  0  0  0  0  0  0  0
    7.0959  -14.0437   25.4021 C   0  0  0  0  0  0  0  0  0  0  0  0
    9.8918  -17.7090   25.4733 C   0  0  0  0  0  0  0  0  0  0  0  0
    9.3834  -18.8777   25.5172 O   0  0  0  0  0  0  0  0  0  0  0  0
   11.0781  -17.4164   26.1596 N   0  0  0  0  0  0  0  0  0  0  0  0
   11.8123  -18.4694   26.8797 C   0  0  1  0  0  0  0  0  0  0  0  0
   13.2319  -18.5121   26.4211 C   0  0  0  0  0  0  0  0  0  0  0  0
   13.9368  -17.2123   26.6510 C   0  0  0  0  0  0  0  0  0  0  0  0
   15.0281  -17.0850   25.6381 C   0  0  0  0  0  0  0  0  0  0  0  0
   16.0328  -17.8126   25.7165 O   0  0  0  0  0  0  0  0  0  0  0  0
   11.7339  -18.1579   28.3134 C   0  0  0  0  0  0  0  0  0  0  0  0
   12.2108  -18.9100   29.1802 O   0  0  0  0  0  0  0  0  0  0  0  0
   14.8981  -16.1597   24.6329 O   0  0  0  0  0  0  0  0  0  0  0  0
   11.1135  -16.9948   28.7359 O   0  0  0  0  0  0  0  0  0  0  0  0
  1  2  1  0
  2  3  2  0
  4  2  1  0
  5  6  1  6
  5  4  1  0
  7  5  1  0
  8  7  2  0
  9  7  1  0
 10  9  1  0
 11 12  1  0
 10 11  1  6
 12 20  1  0
 12 13  2  0
 13 14  1  0
 15 14  1  0
 15 16  2  0
 17 16  1  0
 18 17  2  0
 19 20  2  0
 19 18  1  0
 20 15  1  0
 21 22  2  0
 21 10  1  0
 23 21  1  0
 24 23  1  0
 24 25  1  6
 26 25  1  0
 27 26  1  0
 28 27  2  0
 29 24  1  0
 30 29  2  0
 31 27  1  0
 32 29  1  0
M  END
$$$$
