NWE.pdb
     RDKit          3D

 32 33  0  0  1  0  0  0  0  0999 V2000
   11.0938  -18.2277   18.5573 N   0  0  0  0  0  0  0  0  0  0  0  0
   12.0747  -17.4098   19.1773 C   0  0  0  0  0  0  0  0  0  0  0  0
   13.1784  -17.2751   18.5519 O   0  0  0  0  0  0  0  0  0  0  0  0
   11.8410  -16.7413   20.4839 C   0  0  0  0  0  0  0  0  0  0  0  0
   10.5023  -17.1198   21.0739 C   0  0  2  0  0  0  0  0  0  0  0  0
    9.4403  -16.5334   20.3051 N   0  0  0  0  0  0  0  0  0  0  0  0
   10.3802  -16.6754   22.4895 C   0  0  0  0  0  0  0  0  0  0  0  0
   11.2594  -15.9354   23.0133 O   0  0  0  0  0  0  0  0  0  0  0  0
    9.2628  -17.0943   23.2418 N   0  0  0  0  0  0  0  0  0  0  0  0
    8.9712  -16.8193   24.6151 C   0  0  1  0  0  0  0  0  0  0  0  0
    7.5260  -16.4219   24.8436 C   0  0  0  0  0  0  0  0  0  0  0  0
    7.3359  -15.0265   24.3881 C   0  0  0  0  0  0  0  0  0  0  0  0
    7.1953  -14.5022   23.1297 C   0  0  0  0  0  0  0  0  0  0  0  0
    7.0508  -13.1480   23.2212 N   0  0  0  0  0  0  0  0  0  0  0  0
    7.0904  -12.7608   24.4978 C   0  0  0  0  0  0  0  0  0  0  0  0
    6.9851  -11.5069   25.0890 C   0  0  0  0  0  0  0  0  0  0  0  0
    7.0610  -11.4335   26.4607 C   0  0  0  0  0  0  0  0  0  0  0  0
    7.2335  -12.5573   27.2078 C   0  0  0  0  0  0  0  0  0  0  0  0
    7.3368  -13.8004   26.6024 C   0  0  0  0  0  0  0  0  0  0  0  0
    7.2677  -13.9168   25.2508 C   0  0  0  0  0  0  0  0  0  0  0  0
    9.4768  -17.8128   25.5693 C   0  0  0  0  0  0  0  0  0  0  0  0
    8.9800  -18.9835   25.4740 O   0  0  0  0  0  0  0  0  0  0  0  0
   10.4468  -17.5217   26.5379 N   0  0  0  0  0  0  0  0  0  0  0  0
   10.9312  -18.5640   27.4574 C   0  0  1  0  0  0  0  0  0  0  0  0
   12.2975  -19.0101   27.0552 C   0  0  0  0  0  0  0  0  0  0  0  0
   13.2110  -17.8552   26.7893 C   0  0  0  0  0  0  0  0  0  0  0  0
   14.5336  -18.3947   26.3502 C   0  0  0  0  0  0  0  0  0  0  0  0
   15.4663  -18.4860   27.1666 O   0  0  0  0  0  0  0  0  0  0  0  0
   10.9452  -17.9863   28.8083 C   0  0  0  0  0  0  0  0  0  0  0  0
   10.6729  -16.7923   29.0193 O   0  0  0  0  0  0  0  0  0  0  0  0
   14.6932  -18.7821   25.0433 O   0  0  0  0  0  0  0  0  0  0  0  0
   11.2691  -18.7785   29.8963 O   0  0  0  0  0  0  0  0  0  0  0  0
  1  2  1  0
  2  3  2  0
  4  2  1  0
  5  6  1  6
  5  4  1  0
  7  5  1  0
  8  7  2  0
  9  7  1  0
 10  9  1  0
 11 12  1  0
 10 11  1  6
 12 20  1  0
 12 13  2  0
 13 14  1  0
 15 14  1  0
 15 16  2  0
 17 16  1  0
 18 17  2  0
 19 20  2  0
 19 18  1  0
 20 15  1  0
 21 22  2  0
 21 10  1  0
 23 21  1  0
 24 23  1  0
 24 25  1  6
 26 25  1  0
 27 26  1  0
 28 27  2  0
 29 24  1  0
 30 29  2  0
 31 27  1  0
 32 29  1  0
M  END
$$$$
