NWE.pdb
     RDKit          3D

 32 33  0  0  1  0  0  0  0  0999 V2000
   10.3607  -18.5943   16.2504 N   0  0  0  0  0  0  0  0  0  0  0  0
    9.3707  -18.4040   17.2500 C   0  0  0  0  0  0  0  0  0  0  0  0
    8.1742  -18.7074   16.9281 O   0  0  0  0  0  0  0  0  0  0  0  0
    9.6974  -17.8806   18.6021 C   0  0  0  0  0  0  0  0  0  0  0  0
    8.9234  -16.6213   18.9159 C   0  0  2  0  0  0  0  0  0  0  0  0
    9.2450  -15.5941   17.9649 N   0  0  0  0  0  0  0  0  0  0  0  0
    9.2176  -16.1229   20.2876 C   0  0  0  0  0  0  0  0  0  0  0  0
   10.3979  -15.8342   20.6317 O   0  0  0  0  0  0  0  0  0  0  0  0
    8.1539  -15.9767   21.2026 N   0  0  0  0  0  0  0  0  0  0  0  0
    8.2169  -15.5507   22.5670 C   0  0  1  0  0  0  0  0  0  0  0  0
    6.8749  -15.0945   23.1054 C   0  0  0  0  0  0  0  0  0  0  0  0
    6.9799  -14.9273   24.5723 C   0  0  0  0  0  0  0  0  0  0  0  0
    6.9775  -15.8504   25.5853 C   0  0  0  0  0  0  0  0  0  0  0  0
    7.0940  -15.2039   26.7819 N   0  0  0  0  0  0  0  0  0  0  0  0
    7.1741  -13.8852   26.5926 C   0  0  0  0  0  0  0  0  0  0  0  0
    7.3051  -12.8277   27.4856 C   0  0  0  0  0  0  0  0  0  0  0  0
    7.3672  -11.5536   26.9701 C   0  0  0  0  0  0  0  0  0  0  0  0
    7.3021  -11.3440   25.6274 C   0  0  0  0  0  0  0  0  0  0  0  0
    7.1713  -12.4097   24.7504 C   0  0  0  0  0  0  0  0  0  0  0  0
    7.1055  -13.6834   25.2181 C   0  0  0  0  0  0  0  0  0  0  0  0
    8.9481  -16.4505   23.4663 C   0  0  0  0  0  0  0  0  0  0  0  0
    8.6203  -17.6819   23.4138 O   0  0  0  0  0  0  0  0  0  0  0  0
    9.9511  -16.0118   24.3411 N   0  0  0  0  0  0  0  0  0  0  0  0
   10.9803  -16.9407   24.8352 C   0  0  1  0  0  0  0  0  0  0  0  0
   12.3207  -16.5522   24.3061 C   0  0  0  0  0  0  0  0  0  0  0  0
   13.4092  -17.4375   24.8262 C   0  0  0  0  0  0  0  0  0  0  0  0
   14.6996  -17.0071   24.2075 C   0  0  0  0  0  0  0  0  0  0  0  0
   15.4519  -17.8529   23.6941 O   0  0  0  0  0  0  0  0  0  0  0  0
   10.9588  -16.8801   26.3030 C   0  0  0  0  0  0  0  0  0  0  0  0
   10.2555  -16.0624   26.9205 O   0  0  0  0  0  0  0  0  0  0  0  0
   15.0309  -15.6753   24.2183 O   0  0  0  0  0  0  0  0  0  0  0  0
   11.7388  -17.7518   27.0432 O   0  0  0  0  0  0  0  0  0  0  0  0
  1  2  1  0
  2  3  2  0
  4  2  1  0
  5  6  1  6
  5  4  1  0
  7  5  1  0
  8  7  2  0
  9  7  1  0
 10  9  1  0
 11 12  1  0
 10 11  1  1
 12 20  1  0
 12 13  2  0
 13 14  1  0
 15 14  1  0
 15 16  2  0
 17 16  1  0
 18 17  2  0
 19 20  2  0
 19 18  1  0
 20 15  1  0
 21 22  2  0
 21 10  1  0
 23 21  1  0
 24 23  1  0
 24 25  1  6
 26 25  1  0
 27 26  1  0
 28 27  2  0
 29 24  1  0
 30 29  2  0
 31 27  1  0
 32 29  1  0
M  END
$$$$
