TTQ.pdb
     RDKit          3D

 24 23  0  0  1  0  0  0  0  0999 V2000
   28.1223  -17.8825  -16.2560 C   0  0  0  0  0  0  0  0  0  0  0  0
   27.0285  -18.7941  -15.7826 C   0  0  1  0  0  0  0  0  0  0  0  0
   26.2067  -19.1810  -16.8469 O   0  0  0  0  0  0  0  0  0  0  0  0
   27.5232  -19.9746  -14.9996 C   0  0  2  0  0  0  0  0  0  0  0  0
   28.2889  -20.8106  -15.9166 N   0  0  0  0  0  0  0  0  0  0  0  0
   26.3864  -20.7899  -14.4912 C   0  0  0  0  0  0  0  0  0  0  0  0
   26.2204  -21.9803  -14.9060 O   0  0  0  0  0  0  0  0  0  0  0  0
   25.9777  -21.7476  -11.0938 C   0  0  0  0  0  0  0  0  0  0  0  0
   24.6351  -21.2234  -11.4872 C   0  0  1  0  0  0  0  0  0  0  0  0
   24.4312  -19.9676  -10.9191 O   0  0  0  0  0  0  0  0  0  0  0  0
   24.4476  -21.1534  -12.9855 C   0  0  2  0  0  0  0  0  0  0  0  0
   25.4590  -20.2802  -13.5401 N   0  0  0  0  0  0  0  0  0  0  0  0
   23.0780  -20.7048  -13.3471 C   0  0  0  0  0  0  0  0  0  0  0  0
   22.7403  -19.4955  -13.2939 O   0  0  0  0  0  0  0  0  0  0  0  0
   19.5708  -21.9646  -17.8257 N   0  0  0  0  0  0  0  0  0  0  0  0
   18.5547  -21.5446  -16.9224 C   0  0  0  0  0  0  0  0  0  0  0  0
   17.5261  -21.0403  -17.4521 O   0  0  0  0  0  0  0  0  0  0  0  0
   18.7211  -21.6995  -15.4642 C   0  0  0  0  0  0  0  0  0  0  0  0
   20.0541  -22.1585  -15.0197 C   0  0  0  0  0  0  0  0  0  0  0  0
   20.7274  -21.1587  -14.1410 C   0  0  2  0  0  0  0  0  0  0  0  0
   22.0840  -21.6281  -13.7715 N   0  0  0  0  0  0  0  0  0  0  0  0
   19.9975  -20.8728  -12.8874 C   0  0  0  0  0  0  0  0  0  0  0  0
   20.2201  -21.5893  -11.8854 O   0  0  0  0  0  0  0  0  0  0  0  0
   19.0762  -19.8517  -12.7538 O   0  0  0  0  0  0  0  0  0  0  0  0
  2  1  1  6
  2  4  1  0
  2  3  1  0
  4  5  1  6
  6  4  1  0
  7  6  2  0
  9  8  1  6
  9 11  1  0
 10  9  1  0
 11 13  1  0
 11 12  1  1
 12  6  1  0
 13 21  1  0
 14 13  2  0
 16 15  1  0
 16 18  1  0
 17 16  2  0
 19 18  1  0
 20 19  1  1
 20 22  1  0
 21 20  1  0
 22 24  1  0
 23 22  2  0
M  END
$$$$
