TTQ.pdb
     RDKit          3D

 24 23  0  0  1  0  0  0  0  0999 V2000
   18.6433  -15.0750  -14.9498 C   0  0  0  0  0  0  0  0  0  0  0  0
   18.7003  -14.9644  -16.4452 C   0  0  1  0  0  0  0  0  0  0  0  0
   17.9777  -15.9991  -17.0493 O   0  0  0  0  0  0  0  0  0  0  0  0
   18.2925  -13.6181  -16.9669 C   0  0  2  0  0  0  0  0  0  0  0  0
   18.3597  -13.6806  -18.4221 N   0  0  0  0  0  0  0  0  0  0  0  0
   19.2423  -12.5636  -16.5183 C   0  0  0  0  0  0  0  0  0  0  0  0
   19.5700  -12.4809  -15.2924 O   0  0  0  0  0  0  0  0  0  0  0  0
   22.3518   -8.8771  -17.6884 C   0  0  0  0  0  0  0  0  0  0  0  0
   21.4326   -9.9821  -18.0960 C   0  0  1  0  0  0  0  0  0  0  0  0
   22.1464  -10.9662  -18.7767 O   0  0  0  0  0  0  0  0  0  0  0  0
   20.6915  -10.5912  -16.9277 C   0  0  2  0  0  0  0  0  0  0  0  0
   19.8101  -11.6252  -17.4246 N   0  0  0  0  0  0  0  0  0  0  0  0
   19.9488   -9.5638  -16.1527 C   0  0  0  0  0  0  0  0  0  0  0  0
   18.9532   -8.9638  -16.6301 O   0  0  0  0  0  0  0  0  0  0  0  0
   17.4271   -9.8687  -10.6607 N   0  0  0  0  0  0  0  0  0  0  0  0
   17.4181   -8.4681  -10.9126 C   0  0  0  0  0  0  0  0  0  0  0  0
   16.7688   -7.7680  -10.0875 O   0  0  0  0  0  0  0  0  0  0  0  0
   18.1301   -7.8991  -12.0733 C   0  0  0  0  0  0  0  0  0  0  0  0
   18.8656   -8.8712  -12.9095 C   0  0  0  0  0  0  0  0  0  0  0  0
   19.5545   -8.2149  -14.0583 C   0  0  2  0  0  0  0  0  0  0  0  0
   20.3335   -9.2121  -14.8302 N   0  0  0  0  0  0  0  0  0  0  0  0
   20.4816   -7.1327  -13.6640 C   0  0  0  0  0  0  0  0  0  0  0  0
   20.0263   -5.9766  -13.5126 O   0  0  0  0  0  0  0  0  0  0  0  0
   21.8333   -7.3229  -13.4497 O   0  0  0  0  0  0  0  0  0  0  0  0
  2  1  1  1
  2  4  1  0
  2  3  1  0
  4  5  1  6
  6  4  1  0
  7  6  2  0
  9  8  1  1
  9 11  1  0
 10  9  1  0
 11 13  1  0
 11 12  1  6
 12  6  1  0
 13 21  1  0
 14 13  2  0
 16 15  1  0
 16 18  1  0
 17 16  2  0
 19 18  1  0
 20 19  1  1
 20 22  1  0
 21 20  1  0
 22 24  1  0
 23 22  2  0
M  END
$$$$
