TTQ.pdb
     RDKit          3D

 24 23  0  0  1  0  0  0  0  0999 V2000
   15.4341  -13.4010  -16.9458 C   0  0  0  0  0  0  0  0  0  0  0  0
   16.7215  -12.7448  -16.5411 C   0  0  1  0  0  0  0  0  0  0  0  0
   16.7287  -12.4649  -15.1702 O   0  0  0  0  0  0  0  0  0  0  0  0
   17.9448  -13.5037  -16.9638 C   0  0  2  0  0  0  0  0  0  0  0  0
   17.9681  -14.7453  -16.1994 N   0  0  0  0  0  0  0  0  0  0  0  0
   19.1822  -12.7472  -16.6295 C   0  0  0  0  0  0  0  0  0  0  0  0
   19.6918  -12.8403  -15.4683 O   0  0  0  0  0  0  0  0  0  0  0  0
   22.5916  -12.9897  -17.9713 C   0  0  0  0  0  0  0  0  0  0  0  0
   22.1441  -11.5748  -18.1442 C   0  0  1  0  0  0  0  0  0  0  0  0
   21.7484  -11.3602  -19.4628 O   0  0  0  0  0  0  0  0  0  0  0  0
   21.0299  -11.1910  -17.1975 C   0  0  2  0  0  0  0  0  0  0  0  0
   19.8310  -11.9066  -17.5765 N   0  0  0  0  0  0  0  0  0  0  0  0
   20.8080   -9.7219  -17.1774 C   0  0  0  0  0  0  0  0  0  0  0  0
   19.8412   -9.1886  -17.7774 O   0  0  0  0  0  0  0  0  0  0  0  0
   22.3223   -5.4410  -12.6986 N   0  0  0  0  0  0  0  0  0  0  0  0
   21.9651   -4.6776  -13.8452 C   0  0  0  0  0  0  0  0  0  0  0  0
   21.9530   -3.4256  -13.6870 O   0  0  0  0  0  0  0  0  0  0  0  0
   21.6332   -5.3352  -15.1241 C   0  0  0  0  0  0  0  0  0  0  0  0
   21.8119   -6.8023  -15.1521 C   0  0  0  0  0  0  0  0  0  0  0  0
   21.4519   -7.3861  -16.4767 C   0  0  2  0  0  0  0  0  0  0  0  0
   21.6840   -8.8501  -16.4749 N   0  0  0  0  0  0  0  0  0  0  0  0
   22.2101   -6.8156  -17.6106 C   0  0  0  0  0  0  0  0  0  0  0  0
   23.2794   -7.3667  -17.9566 O   0  0  0  0  0  0  0  0  0  0  0  0
   21.8048   -5.7005  -18.3188 O   0  0  0  0  0  0  0  0  0  0  0  0
  2  1  1  1
  2  4  1  0
  2  3  1  0
  4  5  1  1
  6  4  1  0
  7  6  2  0
  9  8  1  6
  9 11  1  0
 10  9  1  0
 11 13  1  0
 11 12  1  6
 12  6  1  0
 13 21  1  0
 14 13  2  0
 16 15  1  0
 16 18  1  0
 17 16  2  0
 19 18  1  0
 20 19  1  1
 20 22  1  0
 21 20  1  0
 22 24  1  0
 23 22  2  0
M  END
$$$$
