TTQ.pdb
     RDKit          3D

 24 23  0  0  1  0  0  0  0  0999 V2000
   18.2218  -29.6005  -10.5556 C   0  0  0  0  0  0  0  0  0  0  0  0
   19.5074  -29.2516  -11.2463 C   0  0  1  0  0  0  0  0  0  0  0  0
   19.6917  -30.0426  -12.3856 O   0  0  0  0  0  0  0  0  0  0  0  0
   19.6515  -27.7895  -11.5508 C   0  0  2  0  0  0  0  0  0  0  0  0
   20.9729  -27.5989  -12.1370 N   0  0  0  0  0  0  0  0  0  0  0  0
   19.5917  -26.9781  -10.3044 C   0  0  0  0  0  0  0  0  0  0  0  0
   20.5695  -26.9858   -9.4916 O   0  0  0  0  0  0  0  0  0  0  0  0
   19.3328  -23.3353  -10.0386 C   0  0  0  0  0  0  0  0  0  0  0  0
   18.2299  -23.9108   -9.2112 C   0  0  1  0  0  0  0  0  0  0  0  0
   17.0231  -23.8223   -9.9018 O   0  0  0  0  0  0  0  0  0  0  0  0
   18.4898  -25.3417   -8.7989 C   0  0  2  0  0  0  0  0  0  0  0  0
   18.4611  -26.1778   -9.9792 N   0  0  0  0  0  0  0  0  0  0  0  0
   17.5163  -25.8040   -7.7760 C   0  0  0  0  0  0  0  0  0  0  0  0
   16.4243  -26.3389   -8.0932 O   0  0  0  0  0  0  0  0  0  0  0  0
   19.9727  -26.7591   -2.0668 N   0  0  0  0  0  0  0  0  0  0  0  0
   18.7254  -27.3330   -2.4408 C   0  0  0  0  0  0  0  0  0  0  0  0
   18.1265  -27.9775   -1.5360 O   0  0  0  0  0  0  0  0  0  0  0  0
   18.1918  -27.1701   -3.8071 C   0  0  0  0  0  0  0  0  0  0  0  0
   17.3140  -25.9988   -4.0134 C   0  0  0  0  0  0  0  0  0  0  0  0
   16.7295  -25.9705   -5.3855 C   0  0  2  0  0  0  0  0  0  0  0  0
   17.7783  -25.6609   -6.3862 N   0  0  0  0  0  0  0  0  0  0  0  0
   15.6443  -24.9808   -5.5558 C   0  0  0  0  0  0  0  0  0  0  0  0
   15.9463  -23.8026   -5.8516 O   0  0  0  0  0  0  0  0  0  0  0  0
   14.3039  -25.2815   -5.4076 O   0  0  0  0  0  0  0  0  0  0  0  0
  2  1  1  6
  2  4  1  0
  2  3  1  0
  4  5  1  1
  6  4  1  0
  7  6  2  0
  9  8  1  6
  9 11  1  0
 10  9  1  0
 11 13  1  0
 11 12  1  6
 12  6  1  0
 13 21  1  0
 14 13  2  0
 16 15  1  0
 16 18  1  0
 17 16  2  0
 19 18  1  0
 20 19  1  1
 20 22  1  0
 21 20  1  0
 22 24  1  0
 23 22  2  0
M  END
$$$$
