TTQ.pdb
     RDKit          3D

 24 23  0  0  1  0  0  0  0  0999 V2000
   18.8568  -13.3568  -18.8701 C   0  0  0  0  0  0  0  0  0  0  0  0
   18.8536  -14.6157  -18.0536 C   0  0  1  0  0  0  0  0  0  0  0  0
   18.3778  -15.6959  -18.8050 O   0  0  0  0  0  0  0  0  0  0  0  0
   20.1737  -14.9206  -17.4091 C   0  0  2  0  0  0  0  0  0  0  0  0
   20.0101  -16.1571  -16.6539 N   0  0  0  0  0  0  0  0  0  0  0  0
   20.5543  -13.8524  -16.4449 C   0  0  0  0  0  0  0  0  0  0  0  0
   19.8373  -13.6368  -15.4172 O   0  0  0  0  0  0  0  0  0  0  0  0
   23.8900  -13.2567  -14.5982 C   0  0  0  0  0  0  0  0  0  0  0  0
   23.4938  -12.0393  -15.3684 C   0  0  1  0  0  0  0  0  0  0  0  0
   24.2360  -11.9601  -16.5449 O   0  0  0  0  0  0  0  0  0  0  0  0
   22.0156  -11.9975  -15.6818 C   0  0  2  0  0  0  0  0  0  0  0  0
   21.7120  -13.0463  -16.6309 N   0  0  0  0  0  0  0  0  0  0  0  0
   21.5989  -10.6638  -16.1871 C   0  0  0  0  0  0  0  0  0  0  0  0
   21.6179  -10.3827  -17.4118 O   0  0  0  0  0  0  0  0  0  0  0  0
   16.6074   -7.2924  -15.0874 N   0  0  0  0  0  0  0  0  0  0  0  0
   17.4988   -6.3427  -15.6606 C   0  0  0  0  0  0  0  0  0  0  0  0
   16.9987   -5.2156  -15.9294 O   0  0  0  0  0  0  0  0  0  0  0  0
   18.9123   -6.6825  -15.9149 C   0  0  0  0  0  0  0  0  0  0  0  0
   19.3264   -8.0397  -15.5005 C   0  0  0  0  0  0  0  0  0  0  0  0
   20.7559   -8.3142  -15.8264 C   0  0  2  0  0  0  0  0  0  0  0  0
   21.1582   -9.6414  -15.3032 N   0  0  0  0  0  0  0  0  0  0  0  0
   21.6989   -7.3148  -15.2804 C   0  0  0  0  0  0  0  0  0  0  0  0
   22.3188   -7.5859  -14.2273 O   0  0  0  0  0  0  0  0  0  0  0  0
   21.9401   -6.0882  -15.8690 O   0  0  0  0  0  0  0  0  0  0  0  0
  2  1  1  6
  2  4  1  0
  2  3  1  0
  4  5  1  1
  6  4  1  0
  7  6  2  0
  9  8  1  6
  9 11  1  0
 10  9  1  0
 11 13  1  0
 11 12  1  6
 12  6  1  0
 13 21  1  0
 14 13  2  0
 16 15  1  0
 16 18  1  0
 17 16  2  0
 19 18  1  0
 20 19  1  1
 20 22  1  0
 21 20  1  0
 22 24  1  0
 23 22  2  0
M  END
$$$$
