TTQ.pdb
     RDKit          3D

 24 23  0  0  1  0  0  0  0  0999 V2000
   18.7519  -11.9422  -14.5132 C   0  0  0  0  0  0  0  0  0  0  0  0
   18.4184  -12.7066  -15.7606 C   0  0  1  0  0  0  0  0  0  0  0  0
   18.3365  -14.0784  -15.4976 O   0  0  0  0  0  0  0  0  0  0  0  0
   17.1984  -12.1992  -16.4714 C   0  0  2  0  0  0  0  0  0  0  0  0
   16.9660  -13.0784  -17.6112 N   0  0  0  0  0  0  0  0  0  0  0  0
   17.4237  -10.8267  -17.0014 C   0  0  0  0  0  0  0  0  0  0  0  0
   18.4330  -10.5851  -17.7362 O   0  0  0  0  0  0  0  0  0  0  0  0
   15.0664   -8.5232  -18.9467 C   0  0  0  0  0  0  0  0  0  0  0  0
   15.5860   -7.8002  -17.7470 C   0  0  1  0  0  0  0  0  0  0  0  0
   14.6007   -7.7442  -16.7634 O   0  0  0  0  0  0  0  0  0  0  0  0
   16.8457   -8.4205  -17.1869 C   0  0  2  0  0  0  0  0  0  0  0  0
   16.5369   -9.7520  -16.7130 N   0  0  0  0  0  0  0  0  0  0  0  0
   17.4411   -7.5815  -16.1149 C   0  0  0  0  0  0  0  0  0  0  0  0
   17.3534   -7.8951  -14.9011 O   0  0  0  0  0  0  0  0  0  0  0  0
   22.8629   -6.5178  -14.4380 N   0  0  0  0  0  0  0  0  0  0  0  0
   22.2192   -5.4157  -13.8087 C   0  0  0  0  0  0  0  0  0  0  0  0
   22.9363   -4.7412  -13.0191 O   0  0  0  0  0  0  0  0  0  0  0  0
   20.8019   -5.1060  -14.0800 C   0  0  0  0  0  0  0  0  0  0  0  0
   20.1363   -5.9796  -15.0693 C   0  0  0  0  0  0  0  0  0  0  0  0
   18.7294   -5.5594  -15.3321 C   0  0  2  0  0  0  0  0  0  0  0  0
   18.1400   -6.3809  -16.4161 N   0  0  0  0  0  0  0  0  0  0  0  0
   18.5894   -4.1400  -15.7217 C   0  0  0  0  0  0  0  0  0  0  0  0
   18.2729   -3.8690  -16.9020 O   0  0  0  0  0  0  0  0  0  0  0  0
   18.7879   -3.0844  -14.8525 O   0  0  0  0  0  0  0  0  0  0  0  0
  2  1  1  1
  2  4  1  0
  2  3  1  0
  4  5  1  6
  6  4  1  0
  7  6  2  0
  9  8  1  6
  9 11  1  0
 10  9  1  0
 11 13  1  0
 11 12  1  1
 12  6  1  0
 13 21  1  0
 14 13  2  0
 16 15  1  0
 16 18  1  0
 17 16  2  0
 19 18  1  0
 20 19  1  6
 20 22  1  0
 21 20  1  0
 22 24  1  0
 23 22  2  0
M  END
$$$$
