TTQ.pdb
     RDKit          3D

 24 23  0  0  1  0  0  0  0  0999 V2000
   16.3543  -15.4663  -17.9920 C   0  0  0  0  0  0  0  0  0  0  0  0
   17.4659  -14.4646  -17.8797 C   0  0  1  0  0  0  0  0  0  0  0  0
   17.9569  -14.4097  -16.5707 O   0  0  0  0  0  0  0  0  0  0  0  0
   18.5643  -14.6671  -18.8815 C   0  0  2  0  0  0  0  0  0  0  0  0
   19.1492  -15.9773  -18.6219 N   0  0  0  0  0  0  0  0  0  0  0  0
   19.6390  -13.6525  -18.7050 C   0  0  0  0  0  0  0  0  0  0  0  0
   20.6537  -13.9176  -17.9860 O   0  0  0  0  0  0  0  0  0  0  0  0
   21.7057  -11.9715  -21.2627 C   0  0  0  0  0  0  0  0  0  0  0  0
   21.1309  -10.8920  -20.4045 C   0  0  1  0  0  0  0  0  0  0  0  0
   20.1087  -10.2366  -21.0879 O   0  0  0  0  0  0  0  0  0  0  0  0
   20.6234  -11.4049  -19.0762 C   0  0  2  0  0  0  0  0  0  0  0  0
   19.5753  -12.3716  -19.3212 N   0  0  0  0  0  0  0  0  0  0  0  0
   20.1547  -10.2979  -18.2029 C   0  0  0  0  0  0  0  0  0  0  0  0
   18.9347  -10.1091  -17.9680 O   0  0  0  0  0  0  0  0  0  0  0  0
   21.2700   -9.0309  -12.4967 N   0  0  0  0  0  0  0  0  0  0  0  0
   20.5381   -7.8881  -12.9249 C   0  0  0  0  0  0  0  0  0  0  0  0
   20.1134   -7.1345  -12.0059 O   0  0  0  0  0  0  0  0  0  0  0  0
   20.3047   -7.6271  -14.3585 C   0  0  0  0  0  0  0  0  0  0  0  0
   20.6959   -8.7171  -15.2772 C   0  0  0  0  0  0  0  0  0  0  0  0
   20.5837   -8.3120  -16.7084 C   0  0  2  0  0  0  0  0  0  0  0  0
   21.0702   -9.3988  -17.5913 N   0  0  0  0  0  0  0  0  0  0  0  0
   21.3417   -7.0887  -17.0475 C   0  0  0  0  0  0  0  0  0  0  0  0
   22.4920   -7.2077  -17.5265 O   0  0  0  0  0  0  0  0  0  0  0  0
   20.8514   -5.8096  -16.8666 O   0  0  0  0  0  0  0  0  0  0  0  0
  2  1  1  1
  2  4  1  0
  2  3  1  0
  4  5  1  1
  6  4  1  0
  7  6  2  0
  9  8  1  6
  9 11  1  0
 10  9  1  0
 11 13  1  0
 11 12  1  6
 12  6  1  0
 13 21  1  0
 14 13  2  0
 16 15  1  0
 16 18  1  0
 17 16  2  0
 19 18  1  0
 20 19  1  1
 20 22  1  0
 21 20  1  0
 22 24  1  0
 23 22  2  0
M  END
$$$$
