TTQ.pdb
     RDKit          3D

 24 23  0  0  1  0  0  0  0  0999 V2000
   18.8431  -11.9842  -15.5741 C   0  0  0  0  0  0  0  0  0  0  0  0
   17.4914  -11.8514  -16.2120 C   0  0  1  0  0  0  0  0  0  0  0  0
   16.8678  -13.0991  -16.3227 O   0  0  0  0  0  0  0  0  0  0  0  0
   16.6059  -10.8404  -15.5450 C   0  0  2  0  0  0  0  0  0  0  0  0
   15.3280  -10.8558  -16.2472 N   0  0  0  0  0  0  0  0  0  0  0  0
   17.1724   -9.4701  -15.6733 C   0  0  0  0  0  0  0  0  0  0  0  0
   17.5893   -9.0559  -16.8009 O   0  0  0  0  0  0  0  0  0  0  0  0
   15.5770   -6.1726  -15.1147 C   0  0  0  0  0  0  0  0  0  0  0  0
   16.7926   -6.2502  -14.2496 C   0  0  1  0  0  0  0  0  0  0  0  0
   16.4242   -6.5490  -12.9395 O   0  0  0  0  0  0  0  0  0  0  0  0
   17.8051   -7.2562  -14.7477 C   0  0  2  0  0  0  0  0  0  0  0  0
   17.2683   -8.5867  -14.5620 N   0  0  0  0  0  0  0  0  0  0  0  0
   19.1178   -7.0954  -14.0704 C   0  0  0  0  0  0  0  0  0  0  0  0
   19.3957   -7.7068  -13.0082 O   0  0  0  0  0  0  0  0  0  0  0  0
   24.4696   -8.1079  -16.2373 N   0  0  0  0  0  0  0  0  0  0  0  0
   23.6527   -7.1011  -16.8239 C   0  0  0  0  0  0  0  0  0  0  0  0
   23.8794   -6.8524  -18.0402 O   0  0  0  0  0  0  0  0  0  0  0  0
   22.6156   -6.4076  -16.0354 C   0  0  0  0  0  0  0  0  0  0  0  0
   22.4883   -6.8411  -14.6279 C   0  0  0  0  0  0  0  0  0  0  0  0
   21.4241   -6.0880  -13.9031 C   0  0  2  0  0  0  0  0  0  0  0  0
   20.1227   -6.2386  -14.5966 N   0  0  0  0  0  0  0  0  0  0  0  0
   21.6953   -4.6405  -13.7727 C   0  0  0  0  0  0  0  0  0  0  0  0
   22.6734   -4.2718  -13.0841 O   0  0  0  0  0  0  0  0  0  0  0  0
   20.9270   -3.6607  -14.3718 O   0  0  0  0  0  0  0  0  0  0  0  0
  2  1  1  1
  2  4  1  0
  2  3  1  0
  4  5  1  6
  6  4  1  0
  7  6  2  0
  9  8  1  6
  9 11  1  0
 10  9  1  0
 11 13  1  0
 11 12  1  1
 12  6  1  0
 13 21  1  0
 14 13  2  0
 16 15  1  0
 16 18  1  0
 17 16  2  0
 19 18  1  0
 20 19  1  6
 20 22  1  0
 21 20  1  0
 22 24  1  0
 23 22  2  0
M  END
$$$$
