TTQ.pdb
     RDKit          3D

 24 23  0  0  1  0  0  0  0  0999 V2000
   20.4720  -12.2924  -20.0926 C   0  0  0  0  0  0  0  0  0  0  0  0
   20.0969  -13.5848  -19.4290 C   0  0  1  0  0  0  0  0  0  0  0  0
   19.7642  -14.5554  -20.3804 O   0  0  0  0  0  0  0  0  0  0  0  0
   21.1241  -14.0840  -18.4559 C   0  0  2  0  0  0  0  0  0  0  0  0
   20.6136  -15.3268  -17.8891 N   0  0  0  0  0  0  0  0  0  0  0  0
   21.3076  -13.1214  -17.3355 C   0  0  0  0  0  0  0  0  0  0  0  0
   20.3597  -12.9111  -16.5144 O   0  0  0  0  0  0  0  0  0  0  0  0
   23.9815  -13.0089  -14.6247 C   0  0  0  0  0  0  0  0  0  0  0  0
   23.9424  -11.6957  -15.3361 C   0  0  1  0  0  0  0  0  0  0  0  0
   25.0091  -11.6076  -16.2283 O   0  0  0  0  0  0  0  0  0  0  0  0
   22.6371  -11.4585  -16.0606 C   0  0  2  0  0  0  0  0  0  0  0  0
   22.5261  -12.4126  -17.1425 N   0  0  0  0  0  0  0  0  0  0  0  0
   22.5269  -10.0598  -16.5500 C   0  0  0  0  0  0  0  0  0  0  0  0
   23.1016   -9.6770  -17.5999 O   0  0  0  0  0  0  0  0  0  0  0  0
   18.3210   -6.8643  -18.9164 N   0  0  0  0  0  0  0  0  0  0  0  0
   19.2129   -5.8238  -18.5330 C   0  0  0  0  0  0  0  0  0  0  0  0
   18.9286   -4.6726  -18.9651 O   0  0  0  0  0  0  0  0  0  0  0  0
   20.3881   -6.1028  -17.6850 C   0  0  0  0  0  0  0  0  0  0  0  0
   20.5511   -7.5104  -17.2641 C   0  0  0  0  0  0  0  0  0  0  0  0
   21.7003   -7.6871  -16.3297 C   0  0  2  0  0  0  0  0  0  0  0  0
   21.7628   -9.0878  -15.8486 N   0  0  0  0  0  0  0  0  0  0  0  0
   21.6486   -6.8091  -15.1413 C   0  0  0  0  0  0  0  0  0  0  0  0
   21.2606   -7.2920  -14.0536 O   0  0  0  0  0  0  0  0  0  0  0  0
   22.0073   -5.4748  -15.1591 O   0  0  0  0  0  0  0  0  0  0  0  0
  2  1  1  6
  2  4  1  0
  2  3  1  0
  4  5  1  1
  6  4  1  0
  7  6  2  0
  9  8  1  6
  9 11  1  0
 10  9  1  0
 11 13  1  0
 11 12  1  6
 12  6  1  0
 13 21  1  0
 14 13  2  0
 16 15  1  0
 16 18  1  0
 17 16  2  0
 19 18  1  0
 20 19  1  6
 20 22  1  0
 21 20  1  0
 22 24  1  0
 23 22  2  0
M  END
$$$$
