TTQ.pdb
     RDKit          3D

 24 23  0  0  1  0  0  0  0  0999 V2000
   24.4135  -14.8705  -14.8568 C   0  0  0  0  0  0  0  0  0  0  0  0
   24.0242  -15.5790  -16.1209 C   0  0  1  0  0  0  0  0  0  0  0  0
   24.4533  -16.9106  -16.0984 O   0  0  0  0  0  0  0  0  0  0  0  0
   22.5648  -15.4668  -16.4507 C   0  0  2  0  0  0  0  0  0  0  0  0
   22.3251  -16.2866  -17.6326 N   0  0  0  0  0  0  0  0  0  0  0  0
   22.2036  -14.0647  -16.7959 C   0  0  0  0  0  0  0  0  0  0  0  0
   22.9122  -13.4096  -17.6238 O   0  0  0  0  0  0  0  0  0  0  0  0
   19.3902  -12.8041  -18.6076 C   0  0  0  0  0  0  0  0  0  0  0  0
   19.3849  -12.0825  -17.2994 C   0  0  1  0  0  0  0  0  0  0  0  0
   18.4378  -12.6491  -16.4490 O   0  0  0  0  0  0  0  0  0  0  0  0
   20.7408  -12.0668  -16.6314 C   0  0  2  0  0  0  0  0  0  0  0  0
   21.0741  -13.4146  -16.2248 N   0  0  0  0  0  0  0  0  0  0  0  0
   20.7768  -11.1236  -15.4839 C   0  0  0  0  0  0  0  0  0  0  0  0
   20.5485  -11.5011  -14.3072 O   0  0  0  0  0  0  0  0  0  0  0  0
   22.8085   -4.9352  -15.3653 N   0  0  0  0  0  0  0  0  0  0  0  0
   22.3329   -5.2474  -14.0610 C   0  0  0  0  0  0  0  0  0  0  0  0
   22.4354   -4.3250  -13.2059 O   0  0  0  0  0  0  0  0  0  0  0  0
   21.7629   -6.5742  -13.7562 C   0  0  0  0  0  0  0  0  0  0  0  0
   21.7407   -7.5325  -14.8814 C   0  0  0  0  0  0  0  0  0  0  0  0
   21.0723   -8.8143  -14.5136 C   0  0  2  0  0  0  0  0  0  0  0  0
   21.0725   -9.7453  -15.6671 N   0  0  0  0  0  0  0  0  0  0  0  0
   19.6711   -8.6550  -14.0691 C   0  0  0  0  0  0  0  0  0  0  0  0
   18.7604   -8.6932  -14.9270 O   0  0  0  0  0  0  0  0  0  0  0  0
   19.3030   -8.4656  -12.7509 O   0  0  0  0  0  0  0  0  0  0  0  0
  2  1  1  1
  2  4  1  0
  2  3  1  0
  4  5  1  6
  6  4  1  0
  7  6  2  0
  9  8  1  6
  9 11  1  0
 10  9  1  0
 11 13  1  0
 11 12  1  1
 12  6  1  0
 13 21  1  0
 14 13  2  0
 16 15  1  0
 16 18  1  0
 17 16  2  0
 19 18  1  0
 20 19  1  6
 20 22  1  0
 21 20  1  0
 22 24  1  0
 23 22  2  0
M  END
$$$$
