TMV.pdb
     RDKit          3D

 23 22  0  0  1  0  0  0  0  0999 V2000
   28.4158  -17.3926  -15.6478 C   0  0  0  0  0  0  0  0  0  0  0  0
   27.4715  -18.3778  -15.0071 C   0  0  1  0  0  0  0  0  0  0  0  0
   26.2973  -18.4640  -15.7665 O   0  0  0  0  0  0  0  0  0  0  0  0
   28.0883  -19.7119  -14.7620 C   0  0  2  0  0  0  0  0  0  0  0  0
   28.5064  -20.2957  -15.9975 N   0  0  0  0  0  0  0  0  0  0  0  0
   27.1398  -20.6175  -14.0121 C   0  0  0  0  0  0  0  0  0  0  0  0
   26.4830  -21.4899  -14.6101 O   0  0  0  0  0  0  0  0  0  0  0  0
   26.3148  -19.4190   -7.5255 C   0  0  0  0  0  0  0  0  0  0  0  0
   25.4829  -21.0398   -7.6439 S   0  0  0  0  0  0  0  0  0  0  0  0
   25.1512  -21.3367   -9.4023 C   0  0  0  0  0  0  0  0  0  0  0  0
   26.1658  -20.6491  -10.2780 C   0  0  0  0  0  0  0  0  0  0  0  0
   25.9671  -20.9411  -11.7642 C   0  0  2  0  0  0  0  0  0  0  0  0
   26.9954  -20.4740  -12.6180 N   0  0  0  0  0  0  0  0  0  0  0  0
   24.5925  -20.6897  -12.1249 C   0  0  0  0  0  0  0  0  0  0  0  0
   24.2693  -19.4650  -12.3118 O   0  0  0  0  0  0  0  0  0  0  0  0
   22.9854  -22.2890  -15.1487 C   0  0  0  0  0  0  0  0  0  0  0  0
   21.9817  -22.2951  -14.0417 C   0  0  2  0  0  0  0  0  0  0  0  0
   20.6467  -21.8552  -14.6078 C   0  0  0  0  0  0  0  0  0  0  0  0
   22.3673  -21.3148  -12.9560 C   0  0  2  0  0  0  0  0  0  0  0  0
   23.5858  -21.6847  -12.2856 N   0  0  0  0  0  0  0  0  0  0  0  0
   21.2658  -21.3458  -11.9307 C   0  0  0  0  0  0  0  0  0  0  0  0
   20.0123  -20.7860  -12.1957 O   0  0  0  0  0  0  0  0  0  0  0  0
   21.4288  -21.8718  -10.8069 O   0  0  0  0  0  0  0  0  0  0  0  0
  2  1  1  6
  2  4  1  0
  3  2  1  0
  4  6  1  0
  4  5  1  6
  6  7  2  0
  9 10  1  0
  9  8  1  0
 12 11  1  1
 11 10  1  0
 13 12  1  0
 13  6  1  0
 14 20  1  0
 14 12  1  0
 15 14  2  0
 17 16  1  6
 17 18  1  0
 19 20  1  1
 19 17  1  0
 21 19  1  0
 22 21  1  0
 23 21  2  0
M  END
$$$$
