TMV.pdb
     RDKit          3D

 23 22  0  0  1  0  0  0  0  0999 V2000
   19.0565  -12.9219    5.0536 C   0  0  0  0  0  0  0  0  0  0  0  0
   17.7330  -12.2793    5.3824 C   0  0  1  0  0  0  0  0  0  0  0  0
   17.6541  -11.0247    4.7640 O   0  0  0  0  0  0  0  0  0  0  0  0
   16.5623  -13.1441    5.0632 C   0  0  2  0  0  0  0  0  0  0  0  0
   15.3508  -12.5010    5.4645 N   0  0  0  0  0  0  0  0  0  0  0  0
   16.7058  -14.5065    5.7000 C   0  0  0  0  0  0  0  0  0  0  0  0
   16.7121  -14.6350    6.9383 O   0  0  0  0  0  0  0  0  0  0  0  0
   17.2279  -22.2911    3.9987 C   0  0  0  0  0  0  0  0  0  0  0  0
   16.7548  -20.6531    3.3458 S   0  0  0  0  0  0  0  0  0  0  0  0
   17.1732  -19.4341    4.6222 C   0  0  0  0  0  0  0  0  0  0  0  0
   16.8302  -18.0351    4.1814 C   0  0  0  0  0  0  0  0  0  0  0  0
   17.1528  -16.9804    5.2382 C   0  0  2  0  0  0  0  0  0  0  0  0
   16.8344  -15.6472    4.8832 N   0  0  0  0  0  0  0  0  0  0  0  0
   18.4449  -17.2586    5.8177 C   0  0  0  0  0  0  0  0  0  0  0  0
   19.4641  -16.8850    5.1387 O   0  0  0  0  0  0  0  0  0  0  0  0
   21.0986  -18.3615    9.7177 C   0  0  0  0  0  0  0  0  0  0  0  0
   20.3048  -17.4503    8.8388 C   0  0  2  0  0  0  0  0  0  0  0  0
   18.9718  -17.1854    9.5090 C   0  0  0  0  0  0  0  0  0  0  0  0
   20.0268  -18.0965    7.4996 C   0  0  2  0  0  0  0  0  0  0  0  0
   18.6675  -17.9065    7.0667 N   0  0  0  0  0  0  0  0  0  0  0  0
   20.2363  -19.5761    7.6787 C   0  0  0  0  0  0  0  0  0  0  0  0
   19.1591  -20.4397    7.8991 O   0  0  0  0  0  0  0  0  0  0  0  0
   21.3776  -20.0879    7.6371 O   0  0  0  0  0  0  0  0  0  0  0  0
  2  1  1  6
  2  4  1  0
  3  2  1  0
  4  6  1  0
  4  5  1  1
  6  7  2  0
  9 10  1  0
  9  8  1  0
 12 11  1  6
 11 10  1  0
 13 12  1  0
 13  6  1  0
 14 20  1  0
 14 12  1  0
 15 14  2  0
 17 16  1  1
 17 18  1  0
 19 20  1  1
 19 17  1  0
 21 19  1  0
 22 21  1  0
 23 21  2  0
M  END
$$$$
