TMV.pdb
     RDKit          3D

 23 22  0  0  1  0  0  0  0  0999 V2000
   19.3566   -9.1277  -19.6902 C   0  0  0  0  0  0  0  0  0  0  0  0
   18.8293  -10.4428  -19.1751 C   0  0  1  0  0  0  0  0  0  0  0  0
   18.0710  -11.0676  -20.1737 O   0  0  0  0  0  0  0  0  0  0  0  0
   19.8936  -11.3321  -18.6305 C   0  0  2  0  0  0  0  0  0  0  0  0
   19.3459  -12.6095  -18.2983 N   0  0  0  0  0  0  0  0  0  0  0  0
   20.5771  -10.6946  -17.4436 C   0  0  0  0  0  0  0  0  0  0  0  0
   19.9400  -10.4264  -16.4081 O   0  0  0  0  0  0  0  0  0  0  0  0
   26.6880  -11.8317  -15.1964 C   0  0  0  0  0  0  0  0  0  0  0  0
   26.7527  -10.0245  -15.4476 S   0  0  0  0  0  0  0  0  0  0  0  0
   25.0378   -9.4348  -15.4894 C   0  0  0  0  0  0  0  0  0  0  0  0
   24.2314  -10.1597  -16.5350 C   0  0  0  0  0  0  0  0  0  0  0  0
   22.7725   -9.7092  -16.5819 C   0  0  2  0  0  0  0  0  0  0  0  0
   21.9531  -10.3990  -17.5080 N   0  0  0  0  0  0  0  0  0  0  0  0
   22.7115   -8.2682  -16.5342 C   0  0  0  0  0  0  0  0  0  0  0  0
   23.2490   -7.6443  -17.5146 O   0  0  0  0  0  0  0  0  0  0  0  0
   19.7376   -6.0495  -14.8061 C   0  0  0  0  0  0  0  0  0  0  0  0
   20.6656   -5.5490  -15.8649 C   0  0  2  0  0  0  0  0  0  0  0  0
   20.1839   -6.0695  -17.2041 C   0  0  0  0  0  0  0  0  0  0  0  0
   22.0686   -6.0704  -15.6456 C   0  0  2  0  0  0  0  0  0  0  0  0
   22.1087   -7.5012  -15.4961 N   0  0  0  0  0  0  0  0  0  0  0  0
   22.5581   -5.4720  -14.3542 C   0  0  0  0  0  0  0  0  0  0  0  0
   22.9077   -4.1211  -14.2674 O   0  0  0  0  0  0  0  0  0  0  0  0
   22.6702   -6.1576  -13.3133 O   0  0  0  0  0  0  0  0  0  0  0  0
  2  1  1  6
  2  4  1  0
  3  2  1  0
  4  6  1  0
  4  5  1  1
  6  7  2  0
  9 10  1  0
  9  8  1  0
 12 11  1  6
 11 10  1  0
 13 12  1  0
 13  6  1  0
 14 20  1  0
 14 12  1  0
 15 14  2  0
 17 16  1  1
 17 18  1  0
 19 20  1  1
 19 17  1  0
 21 19  1  0
 22 21  1  0
 23 21  2  0
M  END
$$$$
