TMV.pdb
     RDKit          3D

 23 22  0  0  1  0  0  0  0  0999 V2000
   21.7498  -12.5811  -21.7219 C   0  0  0  0  0  0  0  0  0  0  0  0
   21.6832  -12.0648  -20.3071 C   0  0  1  0  0  0  0  0  0  0  0  0
   22.3662  -12.9423  -19.4549 O   0  0  0  0  0  0  0  0  0  0  0  0
   22.1549  -10.6581  -20.1700 C   0  0  2  0  0  0  0  0  0  0  0  0
   23.5014  -10.5426  -20.6345 N   0  0  0  0  0  0  0  0  0  0  0  0
   22.0152  -10.1765  -18.7449 C   0  0  0  0  0  0  0  0  0  0  0  0
   20.9233  -10.2478  -18.1511 O   0  0  0  0  0  0  0  0  0  0  0  0
   26.6714  -11.8567  -15.0955 C   0  0  0  0  0  0  0  0  0  0  0  0
   26.9141  -10.0553  -15.2669 S   0  0  0  0  0  0  0  0  0  0  0  0
   25.6714   -9.4645  -16.4488 C   0  0  0  0  0  0  0  0  0  0  0  0
   24.2820   -9.5418  -15.8720 C   0  0  0  0  0  0  0  0  0  0  0  0
   23.2122   -8.9991  -16.8178 C   0  0  2  0  0  0  0  0  0  0  0  0
   23.1341   -9.6394  -18.0782 N   0  0  0  0  0  0  0  0  0  0  0  0
   23.2106   -7.5569  -16.7664 C   0  0  0  0  0  0  0  0  0  0  0  0
   24.1917   -6.9671  -17.3399 O   0  0  0  0  0  0  0  0  0  0  0  0
   21.0108   -3.2897  -16.9672 C   0  0  0  0  0  0  0  0  0  0  0  0
   20.9927   -4.7836  -16.9414 C   0  0  2  0  0  0  0  0  0  0  0  0
   19.8386   -5.2301  -16.0668 C   0  0  0  0  0  0  0  0  0  0  0  0
   22.2673   -5.3300  -16.3368 C   0  0  2  0  0  0  0  0  0  0  0  0
   22.2166   -6.7542  -16.1363 N   0  0  0  0  0  0  0  0  0  0  0  0
   22.4139   -4.6925  -14.9813 C   0  0  0  0  0  0  0  0  0  0  0  0
   22.8542   -3.3726  -14.8444 O   0  0  0  0  0  0  0  0  0  0  0  0
   22.1482   -5.3165  -13.9296 O   0  0  0  0  0  0  0  0  0  0  0  0
  2  1  1  6
  2  4  1  0
  3  2  1  0
  4  6  1  0
  4  5  1  1
  6  7  2  0
  9 10  1  0
  9  8  1  0
 12 11  1  6
 11 10  1  0
 13 12  1  0
 13  6  1  0
 14 20  1  0
 14 12  1  0
 15 14  2  0
 17 16  1  1
 17 18  1  0
 19 20  1  1
 19 17  1  0
 21 19  1  0
 22 21  1  0
 23 21  2  0
M  END
$$$$
