TMV.pdb
     RDKit          3D

 23 22  0  0  1  0  0  0  0  0999 V2000
   16.1871   -9.0924  -17.1188 C   0  0  0  0  0  0  0  0  0  0  0  0
   16.3128   -8.8178  -15.6418 C   0  0  1  0  0  0  0  0  0  0  0  0
   15.0368   -8.7417  -15.0685 O   0  0  0  0  0  0  0  0  0  0  0  0
   17.1959   -9.7876  -14.9348 C   0  0  2  0  0  0  0  0  0  0  0  0
   16.7313  -11.1223  -15.1473 N   0  0  0  0  0  0  0  0  0  0  0  0
   17.2914   -9.4599  -13.4632 C   0  0  0  0  0  0  0  0  0  0  0  0
   16.6667  -10.1279  -12.6185 O   0  0  0  0  0  0  0  0  0  0  0  0
   23.5322   -8.9684  -11.1237 C   0  0  0  0  0  0  0  0  0  0  0  0
   22.3407   -7.5858  -11.1702 S   0  0  0  0  0  0  0  0  0  0  0  0
   20.7008   -8.3101  -11.4463 C   0  0  0  0  0  0  0  0  0  0  0  0
   19.6236   -7.2573  -11.4293 C   0  0  0  0  0  0  0  0  0  0  0  0
   18.2385   -7.8153  -11.7512 C   0  0  2  0  0  0  0  0  0  0  0  0
   18.0973   -8.3846  -13.0398 N   0  0  0  0  0  0  0  0  0  0  0  0
   17.2284   -6.8993  -11.2784 C   0  0  0  0  0  0  0  0  0  0  0  0
   16.8278   -6.0153  -12.1135 O   0  0  0  0  0  0  0  0  0  0  0  0
   13.5636   -5.5550   -8.3034 C   0  0  0  0  0  0  0  0  0  0  0  0
   14.6388   -6.5435   -8.6189 C   0  0  2  0  0  0  0  0  0  0  0  0
   15.4893   -6.7328   -7.3791 C   0  0  0  0  0  0  0  0  0  0  0  0
   15.5391   -6.0307   -9.7212 C   0  0  2  0  0  0  0  0  0  0  0  0
   16.6538   -6.9049   -9.9749 N   0  0  0  0  0  0  0  0  0  0  0  0
   16.1000   -4.7164   -9.2487 C   0  0  0  0  0  0  0  0  0  0  0  0
   15.3493   -3.5392   -9.3217 O   0  0  0  0  0  0  0  0  0  0  0  0
   17.2546   -4.6274   -8.7743 O   0  0  0  0  0  0  0  0  0  0  0  0
  2  1  1  6
  2  4  1  0
  3  2  1  0
  4  6  1  0
  4  5  1  1
  6  7  2  0
  9 10  1  0
  9  8  1  0
 12 11  1  6
 11 10  1  0
 13 12  1  0
 13  6  1  0
 14 20  1  0
 14 12  1  0
 15 14  2  0
 17 16  1  1
 17 18  1  0
 19 20  1  1
 19 17  1  0
 21 19  1  0
 22 21  1  0
 23 21  2  0
M  END
$$$$
