TMV.pdb
     RDKit          3D

 23 22  0  0  1  0  0  0  0  0999 V2000
   28.4420  -18.3032  -16.2822 C   0  0  0  0  0  0  0  0  0  0  0  0
   27.4977  -19.1475  -15.4648 C   0  0  1  0  0  0  0  0  0  0  0  0
   26.3115  -19.3522  -16.1813 O   0  0  0  0  0  0  0  0  0  0  0  0
   28.1049  -20.4246  -14.9952 C   0  0  2  0  0  0  0  0  0  0  0  0
   28.4305  -21.2550  -16.1117 N   0  0  0  0  0  0  0  0  0  0  0  0
   27.1912  -21.1333  -14.0230 C   0  0  0  0  0  0  0  0  0  0  0  0
   26.5254  -22.1234  -14.3785 O   0  0  0  0  0  0  0  0  0  0  0  0
   27.1633  -20.8780   -7.0689 C   0  0  0  0  0  0  0  0  0  0  0  0
   25.6676  -20.0443   -7.7022 S   0  0  0  0  0  0  0  0  0  0  0  0
   25.3202  -20.7509   -9.3362 C   0  0  0  0  0  0  0  0  0  0  0  0
   26.3175  -20.2813  -10.3628 C   0  0  0  0  0  0  0  0  0  0  0  0
   26.0420  -20.8352  -11.7595 C   0  0  2  0  0  0  0  0  0  0  0  0
   27.0901  -20.6688  -12.6968 N   0  0  0  0  0  0  0  0  0  0  0  0
   24.6943  -20.5010  -12.1530 C   0  0  0  0  0  0  0  0  0  0  0  0
   24.4635  -19.2651  -12.3956 O   0  0  0  0  0  0  0  0  0  0  0  0
   21.9905  -23.2319  -13.8125 C   0  0  0  0  0  0  0  0  0  0  0  0
   22.0229  -21.7705  -14.1223 C   0  0  2  0  0  0  0  0  0  0  0  0
   23.0843  -21.5314  -15.1771 C   0  0  0  0  0  0  0  0  0  0  0  0
   22.4005  -20.9658  -12.8982 C   0  0  2  0  0  0  0  0  0  0  0  0
   23.6203  -21.4268  -12.2894 N   0  0  0  0  0  0  0  0  0  0  0  0
   21.2976  -21.1604  -11.8926 C   0  0  0  0  0  0  0  0  0  0  0  0
   21.4991  -21.9133  -10.7319 O   0  0  0  0  0  0  0  0  0  0  0  0
   20.1633  -20.6577  -12.0559 O   0  0  0  0  0  0  0  0  0  0  0  0
  2  1  1  6
  2  4  1  0
  3  2  1  0
  4  6  1  0
  4  5  1  6
  6  7  2  0
  9 10  1  0
  9  8  1  0
 12 11  1  1
 11 10  1  0
 13 12  1  0
 13  6  1  0
 14 20  1  0
 14 12  1  0
 15 14  2  0
 17 16  1  1
 17 18  1  0
 19 20  1  1
 19 17  1  0
 21 19  1  0
 22 21  1  0
 23 21  2  0
M  END
$$$$
