TMV.pdb
     RDKit          3D

 23 22  0  0  1  0  0  0  0  0999 V2000
   21.3648  -21.9822  -15.3022 C   0  0  0  0  0  0  0  0  0  0  0  0
   20.4927  -21.0550  -14.4946 C   0  0  1  0  0  0  0  0  0  0  0  0
   19.1494  -21.4221  -14.6480 O   0  0  0  0  0  0  0  0  0  0  0  0
   20.8962  -20.9637  -13.0632 C   0  0  2  0  0  0  0  0  0  0  0  0
   19.9498  -20.1800  -12.3336 N   0  0  0  0  0  0  0  0  0  0  0  0
   22.2960  -20.4115  -12.9293 C   0  0  0  0  0  0  0  0  0  0  0  0
   22.6590  -19.4237  -13.5946 O   0  0  0  0  0  0  0  0  0  0  0  0
   28.5995  -20.2041   -8.1547 C   0  0  0  0  0  0  0  0  0  0  0  0
   26.9388  -20.9269   -8.3848 S   0  0  0  0  0  0  0  0  0  0  0  0
   26.4566  -20.6073  -10.1039 C   0  0  0  0  0  0  0  0  0  0  0  0
   25.0593  -21.0956  -10.3841 C   0  0  0  0  0  0  0  0  0  0  0  0
   24.5562  -20.7013  -11.7714 C   0  0  2  0  0  0  0  0  0  0  0  0
   23.2035  -21.0213  -12.0407 N   0  0  0  0  0  0  0  0  0  0  0  0
   25.5594  -21.0241  -12.7573 C   0  0  0  0  0  0  0  0  0  0  0  0
   25.6561  -22.2577  -13.0863 O   0  0  0  0  0  0  0  0  0  0  0  0
   28.4021  -18.3830  -14.6088 C   0  0  0  0  0  0  0  0  0  0  0  0
   27.5357  -19.2871  -15.4242 C   0  0  2  0  0  0  0  0  0  0  0  0
   26.3032  -18.5125  -15.8449 C   0  0  0  0  0  0  0  0  0  0  0  0
   27.0767  -20.4764  -14.6096 C   0  0  2  0  0  0  0  0  0  0  0  0
   26.4349  -20.0893  -13.3811 N   0  0  0  0  0  0  0  0  0  0  0  0
   28.3114  -21.2552  -14.2430 C   0  0  0  0  0  0  0  0  0  0  0  0
   28.7737  -21.3031  -12.9244 O   0  0  0  0  0  0  0  0  0  0  0  0
   28.9683  -21.8871  -15.1005 O   0  0  0  0  0  0  0  0  0  0  0  0
  2  1  1  6
  2  4  1  0
  3  2  1  0
  4  6  1  0
  4  5  1  1
  6  7  2  0
  9 10  1  0
  9  8  1  0
 12 11  1  1
 11 10  1  0
 13 12  1  0
 13  6  1  0
 14 20  1  0
 14 12  1  0
 15 14  2  0
 17 16  1  1
 17 18  1  0
 19 20  1  1
 19 17  1  0
 21 19  1  0
 22 21  1  0
 23 21  2  0
M  END
$$$$
