TMV.pdb
     RDKit          3D

 23 22  0  0  1  0  0  0  0  0999 V2000
   16.8194  -10.1714  -19.4613 C   0  0  0  0  0  0  0  0  0  0  0  0
   16.8808  -11.4684  -18.6953 C   0  0  1  0  0  0  0  0  0  0  0  0
   16.6717  -12.5412  -19.5717 O   0  0  0  0  0  0  0  0  0  0  0  0
   18.1292  -11.6229  -17.8966 C   0  0  2  0  0  0  0  0  0  0  0  0
   18.1838  -12.9272  -17.3153 N   0  0  0  0  0  0  0  0  0  0  0  0
   18.2381  -10.5416  -16.8473 C   0  0  0  0  0  0  0  0  0  0  0  0
   17.4127  -10.4682  -15.9181 O   0  0  0  0  0  0  0  0  0  0  0  0
   23.6083  -10.8878  -13.2415 C   0  0  0  0  0  0  0  0  0  0  0  0
   23.2007   -9.4028  -14.2223 S   0  0  0  0  0  0  0  0  0  0  0  0
   21.4907   -9.5999  -14.7943 C   0  0  0  0  0  0  0  0  0  0  0  0
   21.0453   -8.4191  -15.6167 C   0  0  0  0  0  0  0  0  0  0  0  0
   19.5875   -8.5178  -16.0622 C   0  0  2  0  0  0  0  0  0  0  0  0
   19.2865   -9.6032  -16.9201 N   0  0  0  0  0  0  0  0  0  0  0  0
   19.0974   -7.2034  -16.4014 C   0  0  0  0  0  0  0  0  0  0  0  0
   19.5607   -6.6846  -17.4764 O   0  0  0  0  0  0  0  0  0  0  0  0
   15.7653   -5.1881  -14.6450 C   0  0  0  0  0  0  0  0  0  0  0  0
   16.2293   -4.9830  -16.0505 C   0  0  2  0  0  0  0  0  0  0  0  0
   15.5606   -6.0214  -16.9284 C   0  0  0  0  0  0  0  0  0  0  0  0
   17.7251   -5.1805  -16.1610 C   0  0  2  0  0  0  0  0  0  0  0  0
   18.1535   -6.4531  -15.6430 N   0  0  0  0  0  0  0  0  0  0  0  0
   18.3684   -4.1142  -15.3157 C   0  0  0  0  0  0  0  0  0  0  0  0
   19.0458   -4.4349  -14.1354 O   0  0  0  0  0  0  0  0  0  0  0  0
   18.3219   -2.9052  -15.6356 O   0  0  0  0  0  0  0  0  0  0  0  0
  2  1  1  6
  2  4  1  0
  3  2  1  0
  4  6  1  0
  4  5  1  1
  6  7  2  0
  9 10  1  0
  9  8  1  0
 12 11  1  6
 11 10  1  0
 13 12  1  0
 13  6  1  0
 14 20  1  0
 14 12  1  0
 15 14  2  0
 17 16  1  1
 17 18  1  0
 19 20  1  1
 19 17  1  0
 21 19  1  0
 22 21  1  0
 23 21  2  0
M  END
$$$$
