TMV.pdb
     RDKit          3D

 23 22  0  0  1  0  0  0  0  0999 V2000
   23.1339  -32.0218   -9.0408 C   0  0  0  0  0  0  0  0  0  0  0  0
   23.6712  -32.8610  -10.1720 C   0  0  1  0  0  0  0  0  0  0  0  0
   23.4208  -32.2197  -11.3921 O   0  0  0  0  0  0  0  0  0  0  0  0
   25.1067  -33.2247  -10.0061 C   0  0  2  0  0  0  0  0  0  0  0  0
   25.5715  -33.9334  -11.1566 N   0  0  0  0  0  0  0  0  0  0  0  0
   25.3210  -34.0196   -8.7394 C   0  0  0  0  0  0  0  0  0  0  0  0
   24.9204  -35.1947   -8.6476 O   0  0  0  0  0  0  0  0  0  0  0  0
   30.7632  -34.5050   -4.7995 C   0  0  0  0  0  0  0  0  0  0  0  0
   29.4850  -33.7129   -3.7640 S   0  0  0  0  0  0  0  0  0  0  0  0
   27.8760  -34.2129   -4.4356 C   0  0  0  0  0  0  0  0  0  0  0  0
   27.6174  -33.5778   -5.7768 C   0  0  0  0  0  0  0  0  0  0  0  0
   26.2567  -33.9515   -6.3618 C   0  0  2  0  0  0  0  0  0  0  0  0
   25.9824  -33.4244   -7.6469 N   0  0  0  0  0  0  0  0  0  0  0  0
   25.2469  -33.8500   -5.3357 C   0  0  0  0  0  0  0  0  0  0  0  0
   24.9190  -32.6655   -4.9769 O   0  0  0  0  0  0  0  0  0  0  0  0
   21.3895  -35.4408   -2.8111 C   0  0  0  0  0  0  0  0  0  0  0  0
   22.3581  -35.5994   -3.9378 C   0  0  2  0  0  0  0  0  0  0  0  0
   22.8845  -37.0202   -3.9159 C   0  0  0  0  0  0  0  0  0  0  0  0
   23.5387  -34.6681   -3.7719 C   0  0  2  0  0  0  0  0  0  0  0  0
   24.5990  -34.9498   -4.7032 N   0  0  0  0  0  0  0  0  0  0  0  0
   24.0850  -34.9005   -2.3888 C   0  0  0  0  0  0  0  0  0  0  0  0
   23.5128  -34.2867   -1.2705 O   0  0  0  0  0  0  0  0  0  0  0  0
   25.0677  -35.6488   -2.1876 O   0  0  0  0  0  0  0  0  0  0  0  0
  2  1  1  1
  2  4  1  0
  3  2  1  0
  4  6  1  0
  4  5  1  6
  6  7  2  0
  9 10  1  0
  9  8  1  0
 12 11  1  1
 11 10  1  0
 13 12  1  0
 13  6  1  0
 14 20  1  0
 14 12  1  0
 15 14  2  0
 17 16  1  1
 17 18  1  0
 19 20  1  6
 19 17  1  0
 21 19  1  0
 22 21  1  0
 23 21  2  0
M  END
$$$$
