TMV.pdb
     RDKit          3D

 23 22  0  0  1  0  0  0  0  0999 V2000
   28.5457  -18.1307  -15.6371 C   0  0  0  0  0  0  0  0  0  0  0  0
   27.5726  -18.9686  -14.8473 C   0  0  1  0  0  0  0  0  0  0  0  0
   26.3305  -18.9809  -15.4952 O   0  0  0  0  0  0  0  0  0  0  0  0
   28.0756  -20.3410  -14.5582 C   0  0  2  0  0  0  0  0  0  0  0  0
   28.3342  -21.0382  -15.7786 N   0  0  0  0  0  0  0  0  0  0  0  0
   27.1080  -21.0986  -13.6796 C   0  0  0  0  0  0  0  0  0  0  0  0
   26.3378  -21.9489  -14.1632 O   0  0  0  0  0  0  0  0  0  0  0  0
   26.8070  -19.1966   -7.2681 C   0  0  0  0  0  0  0  0  0  0  0  0
   25.7069  -20.6535   -7.2449 S   0  0  0  0  0  0  0  0  0  0  0  0
   25.2309  -20.9841   -8.9637 C   0  0  0  0  0  0  0  0  0  0  0  0
   26.3655  -20.7018   -9.9135 C   0  0  0  0  0  0  0  0  0  0  0  0
   26.0250  -21.0333  -11.3653 C   0  0  2  0  0  0  0  0  0  0  0  0
   27.0753  -20.8403  -12.2949 N   0  0  0  0  0  0  0  0  0  0  0  0
   24.7119  -20.5243  -11.6803 C   0  0  0  0  0  0  0  0  0  0  0  0
   24.5901  -19.2503  -11.7161 O   0  0  0  0  0  0  0  0  0  0  0  0
   21.9925  -22.4402  -14.1032 C   0  0  0  0  0  0  0  0  0  0  0  0
   22.0817  -20.9658  -13.8774 C   0  0  2  0  0  0  0  0  0  0  0  0
   23.2306  -20.4266  -14.7054 C   0  0  0  0  0  0  0  0  0  0  0  0
   22.3752  -20.6572  -12.4258 C   0  0  2  0  0  0  0  0  0  0  0  0
   23.5609  -21.3194  -11.9497 N   0  0  0  0  0  0  0  0  0  0  0  0
   21.2156  -21.1864  -11.6255 C   0  0  0  0  0  0  0  0  0  0  0  0
   21.3720  -22.2623  -10.7465 O   0  0  0  0  0  0  0  0  0  0  0  0
   20.0722  -20.6857  -11.7155 O   0  0  0  0  0  0  0  0  0  0  0  0
  2  1  1  6
  2  4  1  0
  3  2  1  0
  4  6  1  0
  4  5  1  6
  6  7  2  0
  9 10  1  0
  9  8  1  0
 12 11  1  1
 11 10  1  0
 13 12  1  0
 13  6  1  0
 14 20  1  0
 14 12  1  0
 15 14  2  0
 17 16  1  1
 17 18  1  0
 19 20  1  1
 19 17  1  0
 21 19  1  0
 22 21  1  0
 23 21  2  0
M  END
$$$$
