TMV.pdb
     RDKit          3D

 23 22  0  0  1  0  0  0  0  0999 V2000
   17.2857  -10.6563  -19.3683 C   0  0  0  0  0  0  0  0  0  0  0  0
   18.0777  -10.0715  -18.2266 C   0  0  1  0  0  0  0  0  0  0  0  0
   17.2121   -9.4112  -17.3449 O   0  0  0  0  0  0  0  0  0  0  0  0
   18.9397  -11.0704  -17.5343 C   0  0  2  0  0  0  0  0  0  0  0  0
   18.1441  -12.1509  -17.0426 N   0  0  0  0  0  0  0  0  0  0  0  0
   19.7400  -10.4217  -16.4293 C   0  0  0  0  0  0  0  0  0  0  0  0
   19.3439  -10.4557  -15.2495 O   0  0  0  0  0  0  0  0  0  0  0  0
   26.1970  -10.8557  -14.8191 C   0  0  0  0  0  0  0  0  0  0  0  0
   25.9641   -9.1309  -15.3704 S   0  0  0  0  0  0  0  0  0  0  0  0
   24.2204   -8.7171  -15.0902 C   0  0  0  0  0  0  0  0  0  0  0  0
   23.3260   -9.3874  -16.1001 C   0  0  0  0  0  0  0  0  0  0  0  0
   21.8456   -9.0793  -15.8837 C   0  0  2  0  0  0  0  0  0  0  0  0
   20.9504   -9.7694  -16.7365 N   0  0  0  0  0  0  0  0  0  0  0  0
   21.6721   -7.6596  -15.6918 C   0  0  0  0  0  0  0  0  0  0  0  0
   21.8260   -6.9234  -16.7281 O   0  0  0  0  0  0  0  0  0  0  0  0
   19.7562   -5.8964  -12.3864 C   0  0  0  0  0  0  0  0  0  0  0  0
   19.7817   -5.2750  -13.7451 C   0  0  2  0  0  0  0  0  0  0  0  0
   18.6298   -5.8429  -14.5494 C   0  0  0  0  0  0  0  0  0  0  0  0
   21.0637   -5.6161  -14.4723 C   0  0  2  0  0  0  0  0  0  0  0  0
   21.3482   -7.0267  -14.4573 N   0  0  0  0  0  0  0  0  0  0  0  0
   22.1794   -4.9271  -13.7336 C   0  0  0  0  0  0  0  0  0  0  0  0
   22.3181   -3.5361  -13.7628 O   0  0  0  0  0  0  0  0  0  0  0  0
   23.0217   -5.5698  -13.0676 O   0  0  0  0  0  0  0  0  0  0  0  0
  2  1  1  6
  2  4  1  0
  3  2  1  0
  4  6  1  0
  4  5  1  1
  6  7  2  0
  9 10  1  0
  9  8  1  0
 12 11  1  6
 11 10  1  0
 13 12  1  0
 13  6  1  0
 14 20  1  0
 14 12  1  0
 15 14  2  0
 17 16  1  1
 17 18  1  0
 19 20  1  1
 19 17  1  0
 21 19  1  0
 22 21  1  0
 23 21  2  0
M  END
$$$$
