TMV.pdb
     RDKit          3D

 23 22  0  0  1  0  0  0  0  0999 V2000
   28.8383  -18.3875  -15.7589 C   0  0  0  0  0  0  0  0  0  0  0  0
   27.8555  -19.1798  -14.9347 C   0  0  1  0  0  0  0  0  0  0  0  0
   26.7011  -19.4257  -15.6895 O   0  0  0  0  0  0  0  0  0  0  0  0
   28.4363  -20.4272  -14.3629 C   0  0  2  0  0  0  0  0  0  0  0  0
   28.8239  -21.3162  -15.4125 N   0  0  0  0  0  0  0  0  0  0  0  0
   27.4703  -21.0850  -13.4056 C   0  0  0  0  0  0  0  0  0  0  0  0
   26.7184  -22.0013  -13.7864 O   0  0  0  0  0  0  0  0  0  0  0  0
   27.8492  -20.2274   -6.8676 C   0  0  0  0  0  0  0  0  0  0  0  0
   26.0513  -19.9737   -7.0581 S   0  0  0  0  0  0  0  0  0  0  0  0
   25.6071  -20.5616   -8.7156 C   0  0  0  0  0  0  0  0  0  0  0  0
   26.6975  -20.2717   -9.7136 C   0  0  0  0  0  0  0  0  0  0  0  0
   26.3749  -20.7844  -11.1159 C   0  0  2  0  0  0  0  0  0  0  0  0
   27.4184  -20.6568  -12.0643 N   0  0  0  0  0  0  0  0  0  0  0  0
   25.0422  -20.3718  -11.4848 C   0  0  0  0  0  0  0  0  0  0  0  0
   24.8834  -19.1273  -11.7408 O   0  0  0  0  0  0  0  0  0  0  0  0
   22.1633  -22.9262  -13.1611 C   0  0  0  0  0  0  0  0  0  0  0  0
   22.3312  -21.4697  -13.4494 C   0  0  2  0  0  0  0  0  0  0  0  0
   23.4569  -21.3100  -14.4512 C   0  0  0  0  0  0  0  0  0  0  0  0
   22.7165  -20.7111  -12.1985 C   0  0  2  0  0  0  0  0  0  0  0  0
   23.9097  -21.2303  -11.5838 N   0  0  0  0  0  0  0  0  0  0  0  0
   21.5915  -20.8933  -11.2154 C   0  0  0  0  0  0  0  0  0  0  0  0
   20.3181  -20.3731  -11.4659 O   0  0  0  0  0  0  0  0  0  0  0  0
   21.7519  -21.5148  -10.1411 O   0  0  0  0  0  0  0  0  0  0  0  0
  2  1  1  6
  2  4  1  0
  3  2  1  0
  4  6  1  0
  4  5  1  6
  6  7  2  0
  9 10  1  0
  9  8  1  0
 12 11  1  1
 11 10  1  0
 13 12  1  0
 13  6  1  0
 14 20  1  0
 14 12  1  0
 15 14  2  0
 17 16  1  1
 17 18  1  0
 19 20  1  1
 19 17  1  0
 21 19  1  0
 22 21  1  0
 23 21  2  0
M  END
$$$$
