WDW.pdb
     RDKit          3D

 37 40  0  0  1  0  0  0  0  0999 V2000
    7.6303  -18.5676   26.6857 N   0  0  0  0  0  0  0  0  0  0  0  0
    7.3484  -18.1905   25.3428 C   0  0  1  0  0  0  0  0  0  0  0  0
    6.8128  -16.8061   25.2741 C   0  0  0  0  0  0  0  0  0  0  0  0
    7.4814  -15.7795   26.0531 C   0  0  0  0  0  0  0  0  0  0  0  0
    8.4002  -15.8486   27.0389 C   0  0  0  0  0  0  0  0  0  0  0  0
    8.6916  -14.5842   27.4704 N   0  0  0  0  0  0  0  0  0  0  0  0
    7.9469  -13.7132   26.7487 C   0  0  0  0  0  0  0  0  0  0  0  0
    7.8486  -12.3264   26.7809 C   0  0  0  0  0  0  0  0  0  0  0  0
    7.0103  -11.6326   25.9489 C   0  0  0  0  0  0  0  0  0  0  0  0
    6.2349  -12.3522   25.0430 C   0  0  0  0  0  0  0  0  0  0  0  0
    6.3430  -13.7426   25.0198 C   0  0  0  0  0  0  0  0  0  0  0  0
    7.1894  -14.4173   25.8646 C   0  0  0  0  0  0  0  0  0  0  0  0
    8.2661  -18.6177   24.3015 C   0  0  0  0  0  0  0  0  0  0  0  0
    9.5111  -18.7119   24.5853 O   0  0  0  0  0  0  0  0  0  0  0  0
    7.9580  -18.9523   22.9520 N   0  0  0  0  0  0  0  0  0  0  0  0
    8.9213  -19.0270   21.8842 C   0  0  1  0  0  0  0  0  0  0  0  0
    8.2909  -19.5109   20.6002 C   0  0  0  0  0  0  0  0  0  0  0  0
    7.4649  -20.6986   20.8787 C   0  0  0  0  0  0  0  0  0  0  0  0
    7.8152  -21.4633   21.8344 O   0  0  0  0  0  0  0  0  0  0  0  0
    9.7203  -17.8483   21.6240 C   0  0  0  0  0  0  0  0  0  0  0  0
    9.2051  -17.0245   20.7760 O   0  0  0  0  0  0  0  0  0  0  0  0
    6.3189  -21.0562   20.1738 O   0  0  0  0  0  0  0  0  0  0  0  0
   10.9668  -17.4355   22.1339 N   0  0  0  0  0  0  0  0  0  0  0  0
   11.5489  -16.1527   21.7624 C   0  0  1  0  0  0  0  0  0  0  0  0
   11.0776  -14.9937   22.5745 C   0  0  0  0  0  0  0  0  0  0  0  0
    9.6424  -14.6698   22.3986 C   0  0  0  0  0  0  0  0  0  0  0  0
    8.5564  -15.0489   23.1207 C   0  0  0  0  0  0  0  0  0  0  0  0
    7.4200  -14.5265   22.5895 N   0  0  0  0  0  0  0  0  0  0  0  0
    7.7942  -13.8022   21.5112 C   0  0  0  0  0  0  0  0  0  0  0  0
    7.0564  -13.0567   20.5991 C   0  0  0  0  0  0  0  0  0  0  0  0
    7.6528  -12.3809   19.5495 C   0  0  0  0  0  0  0  0  0  0  0  0
    9.0306  -12.4537   19.4094 C   0  0  0  0  0  0  0  0  0  0  0  0
    9.7538  -13.1936   20.3157 C   0  0  0  0  0  0  0  0  0  0  0  0
    9.1423  -13.8717   21.3710 C   0  0  0  0  0  0  0  0  0  0  0  0
   13.0319  -16.1728   21.8176 C   0  0  0  0  0  0  0  0  0  0  0  0
   13.7855  -15.2563   21.4359 O   0  0  0  0  0  0  0  0  0  0  0  0
   13.5838  -17.3542   22.3554 O   0  0  0  0  0  0  0  0  0  0  0  0
  2  1  1  1
  2  3  1  0
  3  4  1  0
  4 12  1  0
  4  5  2  0
  5  6  1  0
  7  8  2  0
  7  6  1  0
  9  8  1  0
 10  9  2  0
 11 10  1  0
 11 12  2  0
 12  7  1  0
 13 14  2  0
 13  2  1  0
 15 13  1  0
 16 15  1  0
 17 18  1  0
 16 17  1  6
 18 19  2  0
 20 16  1  0
 20 21  2  0
 22 18  1  0
 23 20  1  0
 24 25  1  1
 24 23  1  0
 25 26  1  0
 26 34  1  0
 26 27  2  0
 27 28  1  0
 29 28  1  0
 29 30  2  0
 31 30  1  0
 32 31  2  0
 33 34  2  0
 33 32  1  0
 34 29  1  0
 35 24  1  0
 36 35  2  0
 37 35  1  0
M  END
$$$$
