WDW.pdb
     RDKit          3D

 37 40  0  0  1  0  0  0  0  0999 V2000
    7.1011  -18.2542   22.8579 N   0  0  0  0  0  0  0  0  0  0  0  0
    8.0307  -17.1809   22.9523 C   0  0  1  0  0  0  0  0  0  0  0  0
    7.3599  -15.9239   23.3743 C   0  0  0  0  0  0  0  0  0  0  0  0
    6.9086  -15.0134   22.3374 C   0  0  0  0  0  0  0  0  0  0  0  0
    5.6765  -14.6939   21.8896 C   0  0  0  0  0  0  0  0  0  0  0  0
    5.7903  -13.7958   20.8648 N   0  0  0  0  0  0  0  0  0  0  0  0
    7.1075  -13.5505   20.6669 C   0  0  0  0  0  0  0  0  0  0  0  0
    7.7741  -12.7332   19.7607 C   0  0  0  0  0  0  0  0  0  0  0  0
    9.1401  -12.6366   19.7295 C   0  0  0  0  0  0  0  0  0  0  0  0
    9.8760  -13.3875   20.6430 C   0  0  0  0  0  0  0  0  0  0  0  0
    9.1959  -14.2028   21.5474 C   0  0  0  0  0  0  0  0  0  0  0  0
    7.8253  -14.2850   21.5593 C   0  0  0  0  0  0  0  0  0  0  0  0
    9.3516  -17.4602   23.4874 C   0  0  0  0  0  0  0  0  0  0  0  0
    9.4488  -18.2389   24.4992 O   0  0  0  0  0  0  0  0  0  0  0  0
   10.6024  -16.9600   23.0258 N   0  0  0  0  0  0  0  0  0  0  0  0
   11.8227  -16.9683   23.7905 C   0  0  1  0  0  0  0  0  0  0  0  0
   12.9309  -16.2322   23.0762 C   0  0  0  0  0  0  0  0  0  0  0  0
   14.2211  -16.5595   23.7076 C   0  0  0  0  0  0  0  0  0  0  0  0
   14.2891  -17.6076   24.4271 O   0  0  0  0  0  0  0  0  0  0  0  0
   11.7492  -16.5269   25.1673 C   0  0  0  0  0  0  0  0  0  0  0  0
   12.3420  -15.4068   25.4064 O   0  0  0  0  0  0  0  0  0  0  0  0
   15.3854  -15.8071   23.5794 O   0  0  0  0  0  0  0  0  0  0  0  0
   11.1424  -17.1034   26.3001 N   0  0  0  0  0  0  0  0  0  0  0  0
   11.3201  -16.5304   27.6276 C   0  0  1  0  0  0  0  0  0  0  0  0
   10.6967  -15.1887   27.8179 C   0  0  0  0  0  0  0  0  0  0  0  0
    9.3493  -15.0519   27.2167 C   0  0  0  0  0  0  0  0  0  0  0  0
    8.3613  -15.9680   27.0456 C   0  0  0  0  0  0  0  0  0  0  0  0
    7.2881  -15.4075   26.4288 N   0  0  0  0  0  0  0  0  0  0  0  0
    7.6026  -14.1119   26.2061 C   0  0  0  0  0  0  0  0  0  0  0  0
    6.8879  -13.0775   25.6132 C   0  0  0  0  0  0  0  0  0  0  0  0
    7.4100  -11.8027   25.4856 C   0  0  0  0  0  0  0  0  0  0  0  0
    8.6871  -11.5562   25.9669 C   0  0  0  0  0  0  0  0  0  0  0  0
    9.3882  -12.5848   26.5520 C   0  0  0  0  0  0  0  0  0  0  0  0
    8.8522  -13.8673   26.6757 C   0  0  0  0  0  0  0  0  0  0  0  0
   10.8100  -17.4240   28.6972 C   0  0  0  0  0  0  0  0  0  0  0  0
   10.8555  -17.1919   29.9209 O   0  0  0  0  0  0  0  0  0  0  0  0
   10.2357  -18.6262   28.2340 O   0  0  0  0  0  0  0  0  0  0  0  0
  2  1  1  1
  2  3  1  0
  3  4  1  0
  4 12  1  0
  4  5  2  0
  5  6  1  0
  7  8  2  0
  7  6  1  0
  9  8  1  0
 10  9  2  0
 11 10  1  0
 11 12  2  0
 12  7  1  0
 13 14  2  0
 13  2  1  0
 15 13  1  0
 16 15  1  0
 17 18  1  0
 16 17  1  6
 18 19  2  0
 20 16  1  0
 20 21  2  0
 22 18  1  0
 23 20  1  0
 24 25  1  6
 24 23  1  0
 25 26  1  0
 26 34  1  0
 26 27  2  0
 27 28  1  0
 29 28  1  0
 29 30  2  0
 31 30  1  0
 32 31  2  0
 33 34  2  0
 33 32  1  0
 34 29  1  0
 35 24  1  0
 36 35  2  0
 37 35  1  0
M  END
$$$$
