WDW.pdb
     RDKit          3D

 37 40  0  0  1  0  0  0  0  0999 V2000
    7.1643  -18.4200   24.6766 N   0  0  0  0  0  0  0  0  0  0  0  0
    8.0150  -17.4647   24.0531 C   0  0  1  0  0  0  0  0  0  0  0  0
    8.5565  -16.4990   25.0443 C   0  0  0  0  0  0  0  0  0  0  0  0
    7.6125  -15.6637   25.7648 C   0  0  0  0  0  0  0  0  0  0  0  0
    6.7138  -15.9434   26.7316 C   0  0  0  0  0  0  0  0  0  0  0  0
    6.0384  -14.8010   27.0608 N   0  0  0  0  0  0  0  0  0  0  0  0
    6.5175  -13.7946   26.2915 C   0  0  0  0  0  0  0  0  0  0  0  0
    6.1851  -12.4466   26.2128 C   0  0  0  0  0  0  0  0  0  0  0  0
    6.8046  -11.5896   25.3422 C   0  0  0  0  0  0  0  0  0  0  0  0
    7.8013  -12.0977   24.5125 C   0  0  0  0  0  0  0  0  0  0  0  0
    8.1263  -13.4512   24.6015 C   0  0  0  0  0  0  0  0  0  0  0  0
    7.4905  -14.2922   25.4811 C   0  0  0  0  0  0  0  0  0  0  0  0
    8.8973  -17.9181   22.9925 C   0  0  0  0  0  0  0  0  0  0  0  0
    9.3255  -19.1243   23.0278 O   0  0  0  0  0  0  0  0  0  0  0  0
    9.3757  -17.1715   21.8782 N   0  0  0  0  0  0  0  0  0  0  0  0
   10.7486  -17.1313   21.4452 C   0  0  1  0  0  0  0  0  0  0  0  0
   10.9833  -16.0252   20.4444 C   0  0  0  0  0  0  0  0  0  0  0  0
   12.2976  -16.2143   19.8063 C   0  0  0  0  0  0  0  0  0  0  0  0
   12.4763  -17.2558   19.0961 O   0  0  0  0  0  0  0  0  0  0  0  0
   11.7696  -17.0892   22.4706 C   0  0  0  0  0  0  0  0  0  0  0  0
   12.9457  -17.4403   22.0747 O   0  0  0  0  0  0  0  0  0  0  0  0
   13.3722  -15.3363   19.9180 O   0  0  0  0  0  0  0  0  0  0  0  0
   11.7101  -16.7309   23.8315 N   0  0  0  0  0  0  0  0  0  0  0  0
   12.9128  -16.6709   24.6513 C   0  0  1  0  0  0  0  0  0  0  0  0
   12.8789  -15.6486   25.7370 C   0  0  0  0  0  0  0  0  0  0  0  0
   11.8070  -15.8582   26.7383 C   0  0  0  0  0  0  0  0  0  0  0  0
   11.4195  -16.9820   27.3953 C   0  0  0  0  0  0  0  0  0  0  0  0
   10.3720  -16.7192   28.2200 N   0  0  0  0  0  0  0  0  0  0  0  0
   10.0919  -15.4039   28.0829 C   0  0  0  0  0  0  0  0  0  0  0  0
    9.1289  -14.5985   28.6796 C   0  0  0  0  0  0  0  0  0  0  0  0
    9.0160  -13.2505   28.3892 C   0  0  0  0  0  0  0  0  0  0  0  0
    9.8949  -12.6921   27.4732 C   0  0  0  0  0  0  0  0  0  0  0  0
   10.8448  -13.4955   26.8867 C   0  0  0  0  0  0  0  0  0  0  0  0
   10.9501  -14.8544   27.1866 C   0  0  0  0  0  0  0  0  0  0  0  0
   13.2354  -17.9805   25.2706 C   0  0  0  0  0  0  0  0  0  0  0  0
   14.2650  -18.2418   25.9227 O   0  0  0  0  0  0  0  0  0  0  0  0
   12.2601  -18.9801   25.0726 O   0  0  0  0  0  0  0  0  0  0  0  0
  2  1  1  1
  2  3  1  0
  3  4  1  0
  4 12  1  0
  4  5  2  0
  5  6  1  0
  7  8  2  0
  7  6  1  0
  9  8  1  0
 10  9  2  0
 11 10  1  0
 11 12  2  0
 12  7  1  0
 13 14  2  0
 13  2  1  0
 15 13  1  0
 16 15  1  0
 17 18  1  0
 16 17  1  6
 18 19  2  0
 20 16  1  0
 20 21  2  0
 22 18  1  0
 23 20  1  0
 24 25  1  1
 24 23  1  0
 25 26  1  0
 26 34  1  0
 26 27  2  0
 27 28  1  0
 29 28  1  0
 29 30  2  0
 31 30  1  0
 32 31  2  0
 33 34  2  0
 33 32  1  0
 34 29  1  0
 35 24  1  0
 36 35  2  0
 37 35  1  0
M  END
$$$$
