WDW.pdb
     RDKit          3D

 37 40  0  0  1  0  0  0  0  0999 V2000
    9.1473  -17.2651   20.0808 N   0  0  0  0  0  0  0  0  0  0  0  0
    9.2286  -16.6501   21.3615 C   0  0  1  0  0  0  0  0  0  0  0  0
    7.8949  -16.1802   21.8181 C   0  0  0  0  0  0  0  0  0  0  0  0
    7.1855  -15.2305   20.9798 C   0  0  0  0  0  0  0  0  0  0  0  0
    5.8926  -15.1484   20.6026 C   0  0  0  0  0  0  0  0  0  0  0  0
    5.7341  -14.0723   19.7741 N   0  0  0  0  0  0  0  0  0  0  0  0
    6.9404  -13.4740   19.6289 C   0  0  0  0  0  0  0  0  0  0  0  0
    7.3429  -12.3596   18.9010 C   0  0  0  0  0  0  0  0  0  0  0  0
    8.6408  -11.9221   18.8902 C   0  0  0  0  0  0  0  0  0  0  0  0
    9.5810  -12.6259   19.6390 C   0  0  0  0  0  0  0  0  0  0  0  0
    9.1648  -13.7414   20.3655 C   0  0  0  0  0  0  0  0  0  0  0  0
    7.8580  -14.1627   20.3602 C   0  0  0  0  0  0  0  0  0  0  0  0
   10.1195  -17.2332   22.3491 C   0  0  0  0  0  0  0  0  0  0  0  0
    9.7357  -18.2826   22.9743 O   0  0  0  0  0  0  0  0  0  0  0  0
   11.4103  -16.7737   22.7372 N   0  0  0  0  0  0  0  0  0  0  0  0
   12.3429  -17.5247   23.5374 C   0  0  1  0  0  0  0  0  0  0  0  0
   13.7714  -17.1449   23.2287 C   0  0  0  0  0  0  0  0  0  0  0  0
   14.6801  -17.9170   24.0939 C   0  0  0  0  0  0  0  0  0  0  0  0
   15.5151  -17.2770   24.8110 O   0  0  0  0  0  0  0  0  0  0  0  0
   12.1363  -17.5320   24.9702 C   0  0  0  0  0  0  0  0  0  0  0  0
   12.2353  -18.6930   25.5230 O   0  0  0  0  0  0  0  0  0  0  0  0
   14.6998  -19.3055   24.1924 O   0  0  0  0  0  0  0  0  0  0  0  0
   11.8457  -16.4929   25.8757 N   0  0  0  0  0  0  0  0  0  0  0  0
   10.4823  -16.2353   26.3193 C   0  0  1  0  0  0  0  0  0  0  0  0
    9.6212  -15.5381   25.3206 C   0  0  0  0  0  0  0  0  0  0  0  0
    8.2761  -15.1739   25.8243 C   0  0  0  0  0  0  0  0  0  0  0  0
    7.1738  -15.9395   26.0327 C   0  0  0  0  0  0  0  0  0  0  0  0
    6.1433  -15.1827   26.4930 N   0  0  0  0  0  0  0  0  0  0  0  0
    6.6026  -13.9143   26.5784 C   0  0  0  0  0  0  0  0  0  0  0  0
    5.9878  -12.7357   26.9850 C   0  0  0  0  0  0  0  0  0  0  0  0
    6.6557  -11.5242   26.9945 C   0  0  0  0  0  0  0  0  0  0  0  0
    7.9802  -11.4921   26.5844 C   0  0  0  0  0  0  0  0  0  0  0  0
    8.5815  -12.6623   26.1831 C   0  0  0  0  0  0  0  0  0  0  0  0
    7.8986  -13.8793   26.1773 C   0  0  0  0  0  0  0  0  0  0  0  0
    9.7830  -17.4772   26.7334 C   0  0  0  0  0  0  0  0  0  0  0  0
    9.4271  -18.3985   25.9731 O   0  0  0  0  0  0  0  0  0  0  0  0
    9.5223  -17.5712   28.1164 O   0  0  0  0  0  0  0  0  0  0  0  0
  2  1  1  6
  2  3  1  0
  3  4  1  0
  4 12  1  0
  4  5  2  0
  5  6  1  0
  7  8  2  0
  7  6  1  0
  9  8  1  0
 10  9  2  0
 11 10  1  0
 11 12  2  0
 12  7  1  0
 13 14  2  0
 13  2  1  0
 15 13  1  0
 16 15  1  0
 17 18  1  0
 16 17  1  1
 18 19  2  0
 20 16  1  0
 20 21  2  0
 22 18  1  0
 23 20  1  0
 24 25  1  6
 24 23  1  0
 25 26  1  0
 26 34  1  0
 26 27  2  0
 27 28  1  0
 29 28  1  0
 29 30  2  0
 31 30  1  0
 32 31  2  0
 33 34  2  0
 33 32  1  0
 34 29  1  0
 35 24  1  0
 36 35  2  0
 37 35  1  0
M  END
$$$$
