WDW.pdb
     RDKit          3D

 37 40  0  0  1  0  0  0  0  0999 V2000
    7.1534  -18.0792   21.7113 N   0  0  0  0  0  0  0  0  0  0  0  0
    8.1471  -17.1239   22.0647 C   0  0  1  0  0  0  0  0  0  0  0  0
    7.5322  -15.8338   22.4718 C   0  0  0  0  0  0  0  0  0  0  0  0
    6.9259  -15.0140   21.4383 C   0  0  0  0  0  0  0  0  0  0  0  0
    5.6690  -14.9589   20.9505 C   0  0  0  0  0  0  0  0  0  0  0  0
    5.6160  -14.0279   19.9505 N   0  0  0  0  0  0  0  0  0  0  0  0
    6.8527  -13.4944   19.8086 C   0  0  0  0  0  0  0  0  0  0  0  0
    7.3527  -12.5246   18.9465 C   0  0  0  0  0  0  0  0  0  0  0  0
    8.6643  -12.1305   18.9699 C   0  0  0  0  0  0  0  0  0  0  0  0
    9.5171  -12.7286   19.8945 C   0  0  0  0  0  0  0  0  0  0  0  0
    9.0035  -13.6994   20.7543 C   0  0  0  0  0  0  0  0  0  0  0  0
    7.6850  -14.0799   20.7118 C   0  0  0  0  0  0  0  0  0  0  0  0
    9.3131  -17.5836   22.7984 C   0  0  0  0  0  0  0  0  0  0  0  0
    9.1782  -18.5692   23.6044 O   0  0  0  0  0  0  0  0  0  0  0  0
   10.6369  -17.0615   22.7464 N   0  0  0  0  0  0  0  0  0  0  0  0
   11.5826  -17.1120   23.8313 C   0  0  1  0  0  0  0  0  0  0  0  0
   12.8569  -16.3763   23.4921 C   0  0  0  0  0  0  0  0  0  0  0  0
   13.4469  -16.9571   22.2735 C   0  0  0  0  0  0  0  0  0  0  0  0
   13.3673  -18.2171   22.1093 O   0  0  0  0  0  0  0  0  0  0  0  0
   11.1165  -16.7070   25.1407 C   0  0  0  0  0  0  0  0  0  0  0  0
   11.2900  -15.4581   25.4119 O   0  0  0  0  0  0  0  0  0  0  0  0
   14.0914  -16.2315   21.2754 O   0  0  0  0  0  0  0  0  0  0  0  0
   10.5029  -17.4353   26.1784 N   0  0  0  0  0  0  0  0  0  0  0  0
   10.5537  -16.9738   27.5592 C   0  0  1  0  0  0  0  0  0  0  0  0
    9.2244  -16.6855   28.1713 C   0  0  0  0  0  0  0  0  0  0  0  0
    8.1984  -16.2199   27.2090 C   0  0  0  0  0  0  0  0  0  0  0  0
    7.3638  -16.9217   26.3993 C   0  0  0  0  0  0  0  0  0  0  0  0
    6.5899  -16.0818   25.6632 N   0  0  0  0  0  0  0  0  0  0  0  0
    6.9408  -14.8245   26.0143 C   0  0  0  0  0  0  0  0  0  0  0  0
    6.4814  -13.5845   25.5859 C   0  0  0  0  0  0  0  0  0  0  0  0
    6.9895  -12.3995   26.0875 C   0  0  0  0  0  0  0  0  0  0  0  0
    7.9882  -12.4582   27.0480 C   0  0  0  0  0  0  0  0  0  0  0  0
    8.4378  -13.6888   27.4666 C   0  0  0  0  0  0  0  0  0  0  0  0
    7.9185  -14.8784   26.9541 C   0  0  0  0  0  0  0  0  0  0  0  0
   11.2635  -17.9304   28.4446 C   0  0  0  0  0  0  0  0  0  0  0  0
   11.6460  -19.0720   28.1223 O   0  0  0  0  0  0  0  0  0  0  0  0
   11.4986  -17.4569   29.7523 O   0  0  0  0  0  0  0  0  0  0  0  0
  2  1  1  1
  2  3  1  0
  3  4  1  0
  4 12  1  0
  4  5  2  0
  5  6  1  0
  7  8  2  0
  7  6  1  0
  9  8  1  0
 10  9  2  0
 11 10  1  0
 11 12  2  0
 12  7  1  0
 13 14  2  0
 13  2  1  0
 15 13  1  0
 16 15  1  0
 17 18  1  0
 16 17  1  6
 18 19  2  0
 20 16  1  0
 20 21  2  0
 22 18  1  0
 23 20  1  0
 24 25  1  1
 24 23  1  0
 25 26  1  0
 26 34  1  0
 26 27  2  0
 27 28  1  0
 29 28  1  0
 29 30  2  0
 31 30  1  0
 32 31  2  0
 33 34  2  0
 33 32  1  0
 34 29  1  0
 35 24  1  0
 36 35  2  0
 37 35  1  0
M  END
$$$$
