WDW.pdb
     RDKit          3D

 37 40  0  0  1  0  0  0  0  0999 V2000
    6.7503  -17.7753   22.6869 N   0  0  0  0  0  0  0  0  0  0  0  0
    7.8289  -16.9329   22.2970 C   0  0  1  0  0  0  0  0  0  0  0  0
    7.5846  -15.5242   22.7020 C   0  0  0  0  0  0  0  0  0  0  0  0
    6.7498  -15.2868   23.8659 C   0  0  0  0  0  0  0  0  0  0  0  0
    5.9685  -16.1068   24.5994 C   0  0  0  0  0  0  0  0  0  0  0  0
    5.3591  -15.3823   25.5860 N   0  0  0  0  0  0  0  0  0  0  0  0
    5.7612  -14.0943   25.4693 C   0  0  0  0  0  0  0  0  0  0  0  0
    5.4472  -12.9534   26.1997 C   0  0  0  0  0  0  0  0  0  0  0  0
    5.9738  -11.7248   25.9005 C   0  0  0  0  0  0  0  0  0  0  0  0
    6.8540  -11.6278   24.8255 C   0  0  0  0  0  0  0  0  0  0  0  0
    7.1618  -12.7794   24.1012 C   0  0  0  0  0  0  0  0  0  0  0  0
    6.6204  -14.0006   24.4185 C   0  0  0  0  0  0  0  0  0  0  0  0
    9.1813  -17.4494   22.4123 C   0  0  0  0  0  0  0  0  0  0  0  0
    9.3485  -18.6191   22.9054 O   0  0  0  0  0  0  0  0  0  0  0  0
   10.3953  -16.8029   22.0434 N   0  0  0  0  0  0  0  0  0  0  0  0
   11.6914  -17.1188   22.5859 C   0  0  1  0  0  0  0  0  0  0  0  0
   12.7646  -16.2198   22.0199 C   0  0  0  0  0  0  0  0  0  0  0  0
   12.7904  -16.3534   20.5530 C   0  0  0  0  0  0  0  0  0  0  0  0
   12.6721  -17.5186   20.0537 O   0  0  0  0  0  0  0  0  0  0  0  0
   11.8134  -17.1804   24.0270 C   0  0  0  0  0  0  0  0  0  0  0  0
   12.2543  -16.1004   24.5771 O   0  0  0  0  0  0  0  0  0  0  0  0
   12.9350  -15.2966   19.6583 O   0  0  0  0  0  0  0  0  0  0  0  0
   11.5349  -18.2134   24.9431 N   0  0  0  0  0  0  0  0  0  0  0  0
   12.0981  -18.2055   26.2866 C   0  0  1  0  0  0  0  0  0  0  0  0
   11.0911  -18.1712   27.3864 C   0  0  0  0  0  0  0  0  0  0  0  0
   10.1985  -16.9887   27.3588 C   0  0  0  0  0  0  0  0  0  0  0  0
    8.9733  -16.8198   26.7976 C   0  0  0  0  0  0  0  0  0  0  0  0
    8.5207  -15.5553   27.0038 N   0  0  0  0  0  0  0  0  0  0  0  0
    9.4773  -14.9120   27.7097 C   0  0  0  0  0  0  0  0  0  0  0  0
    9.5489  -13.6112   28.1943 C   0  0  0  0  0  0  0  0  0  0  0  0
   10.6425  -13.1516   28.9062 C   0  0  0  0  0  0  0  0  0  0  0  0
   11.6967  -14.0218   29.1402 C   0  0  0  0  0  0  0  0  0  0  0  0
   11.6188  -15.3073   28.6572 C   0  0  0  0  0  0  0  0  0  0  0  0
   10.5109  -15.7609   27.9400 C   0  0  0  0  0  0  0  0  0  0  0  0
   12.9932  -19.3648   26.5264 C   0  0  0  0  0  0  0  0  0  0  0  0
   13.1085  -20.3594   25.7841 O   0  0  0  0  0  0  0  0  0  0  0  0
   13.7551  -19.2835   27.7107 O   0  0  0  0  0  0  0  0  0  0  0  0
  2  1  1  1
  2  3  1  0
  3  4  1  0
  4 12  1  0
  4  5  2  0
  5  6  1  0
  7  8  2  0
  7  6  1  0
  9  8  1  0
 10  9  2  0
 11 10  1  0
 11 12  2  0
 12  7  1  0
 13 14  2  0
 13  2  1  0
 15 13  1  0
 16 15  1  0
 17 18  1  0
 16 17  1  1
 18 19  2  0
 20 16  1  0
 20 21  2  0
 22 18  1  0
 23 20  1  0
 24 25  1  1
 24 23  1  0
 25 26  1  0
 26 34  1  0
 26 27  2  0
 27 28  1  0
 29 28  1  0
 29 30  2  0
 31 30  1  0
 32 31  2  0
 33 34  2  0
 33 32  1  0
 34 29  1  0
 35 24  1  0
 36 35  2  0
 37 35  1  0
M  END
$$$$
