WDW.pdb
     RDKit          3D

 37 40  0  0  1  0  0  0  0  0999 V2000
    7.0619  -18.7438   22.1588 N   0  0  0  0  0  0  0  0  0  0  0  0
    7.9158  -17.6062   22.2008 C   0  0  1  0  0  0  0  0  0  0  0  0
    7.1571  -16.3768   22.5484 C   0  0  0  0  0  0  0  0  0  0  0  0
    6.7681  -15.4899   21.4667 C   0  0  0  0  0  0  0  0  0  0  0  0
    5.7348  -15.5222   20.5996 C   0  0  0  0  0  0  0  0  0  0  0  0
    5.8332  -14.4599   19.7443 N   0  0  0  0  0  0  0  0  0  0  0  0
    6.9403  -13.7547   20.0776 C   0  0  0  0  0  0  0  0  0  0  0  0
    7.5061  -12.6045   19.5386 C   0  0  0  0  0  0  0  0  0  0  0  0
    8.6563  -12.0520   20.0367 C   0  0  0  0  0  0  0  0  0  0  0  0
    9.2709  -12.6727   21.1216 C   0  0  0  0  0  0  0  0  0  0  0  0
    8.6934  -13.8253   21.6537 C   0  0  0  0  0  0  0  0  0  0  0  0
    7.5402  -14.3623   21.1369 C   0  0  0  0  0  0  0  0  0  0  0  0
    9.2467  -17.7656   22.7600 C   0  0  0  0  0  0  0  0  0  0  0  0
    9.4039  -18.5707   23.7431 O   0  0  0  0  0  0  0  0  0  0  0  0
   10.4467  -17.1166   22.3518 N   0  0  0  0  0  0  0  0  0  0  0  0
   11.6668  -17.0902   23.1164 C   0  0  1  0  0  0  0  0  0  0  0  0
   12.7142  -16.2220   22.4612 C   0  0  0  0  0  0  0  0  0  0  0  0
   13.2358  -16.9045   21.2643 C   0  0  0  0  0  0  0  0  0  0  0  0
   13.7470  -16.1920   20.3414 O   0  0  0  0  0  0  0  0  0  0  0  0
   11.5651  -16.7592   24.5220 C   0  0  0  0  0  0  0  0  0  0  0  0
   12.2249  -15.7097   24.8775 O   0  0  0  0  0  0  0  0  0  0  0  0
   13.2152  -18.2812   21.0587 O   0  0  0  0  0  0  0  0  0  0  0  0
   10.8702  -17.3801   25.5782 N   0  0  0  0  0  0  0  0  0  0  0  0
   10.8584  -16.8057   26.9170 C   0  0  1  0  0  0  0  0  0  0  0  0
   10.1875  -15.4775   27.0214 C   0  0  0  0  0  0  0  0  0  0  0  0
    8.7185  -15.5202   26.8320 C   0  0  0  0  0  0  0  0  0  0  0  0
    7.8736  -16.5769   26.7123 C   0  0  0  0  0  0  0  0  0  0  0  0
    6.5951  -16.1521   26.5358 N   0  0  0  0  0  0  0  0  0  0  0  0
    6.6314  -14.8008   26.5448 C   0  0  0  0  0  0  0  0  0  0  0  0
    5.6268  -13.8498   26.4084 C   0  0  0  0  0  0  0  0  0  0  0  0
    5.8901  -12.4922   26.4489 C   0  0  0  0  0  0  0  0  0  0  0  0
    7.1998  -12.0743   26.6320 C   0  0  0  0  0  0  0  0  0  0  0  0
    8.1883  -13.0213   26.7659 C   0  0  0  0  0  0  0  0  0  0  0  0
    7.9120  -14.3885   26.7234 C   0  0  0  0  0  0  0  0  0  0  0  0
   10.2296  -17.7115   27.9104 C   0  0  0  0  0  0  0  0  0  0  0  0
    9.6105  -18.7608   27.6471 O   0  0  0  0  0  0  0  0  0  0  0  0
   10.3735  -17.3020   29.2524 O   0  0  0  0  0  0  0  0  0  0  0  0
  2  1  1  1
  2  3  1  0
  3  4  1  0
  4 12  1  0
  4  5  2  0
  5  6  1  0
  7  8  2  0
  7  6  1  0
  9  8  1  0
 10  9  2  0
 11 10  1  0
 11 12  2  0
 12  7  1  0
 13 14  2  0
 13  2  1  0
 15 13  1  0
 16 15  1  0
 17 18  1  0
 16 17  1  6
 18 19  2  0
 20 16  1  0
 20 21  2  0
 22 18  1  0
 23 20  1  0
 24 25  1  6
 24 23  1  0
 25 26  1  0
 26 34  1  0
 26 27  2  0
 27 28  1  0
 29 28  1  0
 29 30  2  0
 31 30  1  0
 32 31  2  0
 33 34  2  0
 33 32  1  0
 34 29  1  0
 35 24  1  0
 36 35  2  0
 37 35  1  0
M  END
$$$$
