WDW.pdb
     RDKit          3D

 37 40  0  0  1  0  0  0  0  0999 V2000
    9.8312  -15.2157   21.0889 N   0  0  0  0  0  0  0  0  0  0  0  0
    8.8841  -16.0280   21.7731 C   0  0  1  0  0  0  0  0  0  0  0  0
    7.9524  -16.6859   20.8207 C   0  0  0  0  0  0  0  0  0  0  0  0
    7.5935  -15.9642   19.6131 C   0  0  0  0  0  0  0  0  0  0  0  0
    7.0579  -16.3709   18.4433 C   0  0  0  0  0  0  0  0  0  0  0  0
    6.9400  -15.2964   17.6059 N   0  0  0  0  0  0  0  0  0  0  0  0
    7.4078  -14.2047   18.2567 C   0  0  0  0  0  0  0  0  0  0  0  0
    7.5244  -12.8734   17.8724 C   0  0  0  0  0  0  0  0  0  0  0  0
    8.0417  -11.9145   18.7027 C   0  0  0  0  0  0  0  0  0  0  0  0
    8.4614  -12.2986   19.9740 C   0  0  0  0  0  0  0  0  0  0  0  0
    8.3387  -13.6367   20.3479 C   0  0  0  0  0  0  0  0  0  0  0  0
    7.8182  -14.5812   19.4980 C   0  0  0  0  0  0  0  0  0  0  0  0
    9.3368  -16.7936   22.9211 C   0  0  0  0  0  0  0  0  0  0  0  0
   10.2483  -16.2933   23.6682 O   0  0  0  0  0  0  0  0  0  0  0  0
    8.8920  -18.0796   23.3411 N   0  0  0  0  0  0  0  0  0  0  0  0
    8.6673  -18.4639   24.7106 C   0  0  1  0  0  0  0  0  0  0  0  0
    8.2766  -19.9182   24.8226 C   0  0  0  0  0  0  0  0  0  0  0  0
    6.8077  -20.0317   24.8132 C   0  0  0  0  0  0  0  0  0  0  0  0
    6.1472  -19.3520   25.6633 O   0  0  0  0  0  0  0  0  0  0  0  0
    9.7111  -18.1618   25.6671 C   0  0  0  0  0  0  0  0  0  0  0  0
   10.7723  -18.8858   25.5533 O   0  0  0  0  0  0  0  0  0  0  0  0
    6.0751  -20.8307   23.9398 O   0  0  0  0  0  0  0  0  0  0  0  0
    9.7776  -17.2129   26.7060 N   0  0  0  0  0  0  0  0  0  0  0  0
   11.0225  -16.9568   27.4180 C   0  0  1  0  0  0  0  0  0  0  0  0
   11.3080  -15.5163   27.6796 C   0  0  0  0  0  0  0  0  0  0  0  0
   10.1430  -14.7434   28.1705 C   0  0  0  0  0  0  0  0  0  0  0  0
    9.7979  -14.3700   29.4298 C   0  0  0  0  0  0  0  0  0  0  0  0
    8.6284  -13.6781   29.4223 N   0  0  0  0  0  0  0  0  0  0  0  0
    8.2262  -13.6117   28.1335 C   0  0  0  0  0  0  0  0  0  0  0  0
    7.1105  -13.0289   27.5439 C   0  0  0  0  0  0  0  0  0  0  0  0
    6.8897  -13.0803   26.1791 C   0  0  0  0  0  0  0  0  0  0  0  0
    7.8150  -13.7352   25.3803 C   0  0  0  0  0  0  0  0  0  0  0  0
    8.9163  -14.3098   25.9710 C   0  0  0  0  0  0  0  0  0  0  0  0
    9.1296  -14.2523   27.3489 C   0  0  0  0  0  0  0  0  0  0  0  0
   11.0845  -17.6749   28.7154 C   0  0  0  0  0  0  0  0  0  0  0  0
   10.1594  -18.3378   29.2239 O   0  0  0  0  0  0  0  0  0  0  0  0
   12.3183  -17.5636   29.3900 O   0  0  0  0  0  0  0  0  0  0  0  0
  2  1  1  6
  2  3  1  0
  3  4  1  0
  4 12  1  0
  4  5  2  0
  5  6  1  0
  7  8  2  0
  7  6  1  0
  9  8  1  0
 10  9  2  0
 11 10  1  0
 11 12  2  0
 12  7  1  0
 13 14  2  0
 13  2  1  0
 15 13  1  0
 16 15  1  0
 17 18  1  0
 16 17  1  6
 18 19  2  0
 20 16  1  0
 20 21  2  0
 22 18  1  0
 23 20  1  0
 24 25  1  1
 24 23  1  0
 25 26  1  0
 26 34  1  0
 26 27  2  0
 27 28  1  0
 29 28  1  0
 29 30  2  0
 31 30  1  0
 32 31  2  0
 33 34  2  0
 33 32  1  0
 34 29  1  0
 35 24  1  0
 36 35  2  0
 37 35  1  0
M  END
$$$$
