WDW.pdb
     RDKit          3D

 37 40  0  0  1  0  0  0  0  0999 V2000
    6.5997  -17.6886   24.6234 N   0  0  0  0  0  0  0  0  0  0  0  0
    7.8127  -17.0019   24.3367 C   0  0  1  0  0  0  0  0  0  0  0  0
    8.1866  -16.0852   25.4449 C   0  0  0  0  0  0  0  0  0  0  0  0
    7.2303  -15.0647   25.8345 C   0  0  0  0  0  0  0  0  0  0  0  0
    6.2205  -15.0677   26.7295 C   0  0  0  0  0  0  0  0  0  0  0  0
    5.5910  -13.8542   26.7001 N   0  0  0  0  0  0  0  0  0  0  0  0
    6.2116  -13.0825   25.7762 C   0  0  0  0  0  0  0  0  0  0  0  0
    5.9779  -11.7815   25.3444 C   0  0  0  0  0  0  0  0  0  0  0  0
    6.7385  -11.1846   24.3741 C   0  0  0  0  0  0  0  0  0  0  0  0
    7.7799  -11.9163   23.8083 C   0  0  0  0  0  0  0  0  0  0  0  0
    8.0047  -13.2199   24.2503 C   0  0  0  0  0  0  0  0  0  0  0  0
    7.2281  -13.7984   25.2237 C   0  0  0  0  0  0  0  0  0  0  0  0
    8.8759  -17.7329   23.6701 C   0  0  0  0  0  0  0  0  0  0  0  0
    9.2559  -18.8491   24.1693 O   0  0  0  0  0  0  0  0  0  0  0  0
    9.5863  -17.3584   22.4941 N   0  0  0  0  0  0  0  0  0  0  0  0
   10.9862  -17.6077   22.2662 C   0  0  1  0  0  0  0  0  0  0  0  0
   11.4558  -16.9939   20.9689 C   0  0  0  0  0  0  0  0  0  0  0  0
   10.4730  -17.2797   19.9092 C   0  0  0  0  0  0  0  0  0  0  0  0
   10.2183  -18.4974   19.6387 O   0  0  0  0  0  0  0  0  0  0  0  0
   11.9057  -17.2663   23.3310 C   0  0  0  0  0  0  0  0  0  0  0  0
   12.4750  -16.1162   23.2032 O   0  0  0  0  0  0  0  0  0  0  0  0
    9.7923  -16.3151   19.1715 O   0  0  0  0  0  0  0  0  0  0  0  0
   12.2926  -17.9678   24.4895 N   0  0  0  0  0  0  0  0  0  0  0  0
   13.3153  -17.4440   25.3850 C   0  0  1  0  0  0  0  0  0  0  0  0
   12.9773  -16.1398   26.0251 C   0  0  0  0  0  0  0  0  0  0  0  0
   11.8906  -16.2173   27.0294 C   0  0  0  0  0  0  0  0  0  0  0  0
   11.7354  -17.0368   28.1013 C   0  0  0  0  0  0  0  0  0  0  0  0
   10.5700  -16.7684   28.7464 N   0  0  0  0  0  0  0  0  0  0  0  0
    9.9768  -15.7592   28.0704 C   0  0  0  0  0  0  0  0  0  0  0  0
    8.7780  -15.0876   28.2796 C   0  0  0  0  0  0  0  0  0  0  0  0
    8.3541  -14.0652   27.4496 C   0  0  0  0  0  0  0  0  0  0  0  0
    9.1559  -13.7041   26.3772 C   0  0  0  0  0  0  0  0  0  0  0  0
   10.3406  -14.3734   26.1764 C   0  0  0  0  0  0  0  0  0  0  0  0
   10.7589  -15.4036   27.0198 C   0  0  0  0  0  0  0  0  0  0  0  0
   13.6611  -18.4031   26.4635 C   0  0  0  0  0  0  0  0  0  0  0  0
   14.4731  -18.1967   27.3864 O   0  0  0  0  0  0  0  0  0  0  0  0
   12.9854  -19.6390   26.3895 O   0  0  0  0  0  0  0  0  0  0  0  0
  2  1  1  1
  2  3  1  0
  3  4  1  0
  4 12  1  0
  4  5  2  0
  5  6  1  0
  7  8  2  0
  7  6  1  0
  9  8  1  0
 10  9  2  0
 11 10  1  0
 11 12  2  0
 12  7  1  0
 13 14  2  0
 13  2  1  0
 15 13  1  0
 16 15  1  0
 17 18  1  0
 16 17  1  6
 18 19  2  0
 20 16  1  0
 20 21  2  0
 22 18  1  0
 23 20  1  0
 24 25  1  1
 24 23  1  0
 25 26  1  0
 26 34  1  0
 26 27  2  0
 27 28  1  0
 29 28  1  0
 29 30  2  0
 31 30  1  0
 32 31  2  0
 33 34  2  0
 33 32  1  0
 34 29  1  0
 35 24  1  0
 36 35  2  0
 37 35  1  0
M  END
$$$$
