WDW.pdb
     RDKit          3D

 37 40  0  0  1  0  0  0  0  0999 V2000
    6.6884  -18.9749   22.7535 N   0  0  0  0  0  0  0  0  0  0  0  0
    7.5661  -17.8562   22.6964 C   0  0  1  0  0  0  0  0  0  0  0  0
    6.8590  -16.5990   23.0536 C   0  0  0  0  0  0  0  0  0  0  0  0
    6.5359  -15.6734   21.9828 C   0  0  0  0  0  0  0  0  0  0  0  0
    5.5538  -15.6699   21.0575 C   0  0  0  0  0  0  0  0  0  0  0  0
    5.7051  -14.5796   20.2464 N   0  0  0  0  0  0  0  0  0  0  0  0
    6.7941  -13.8928   20.6664 C   0  0  0  0  0  0  0  0  0  0  0  0
    7.3943  -12.7281   20.2005 C   0  0  0  0  0  0  0  0  0  0  0  0
    8.5163  -12.1997   20.7821 C   0  0  0  0  0  0  0  0  0  0  0  0
    9.0655  -12.8608   21.8781 C   0  0  0  0  0  0  0  0  0  0  0  0
    8.4539  -14.0276   22.3365 C   0  0  0  0  0  0  0  0  0  0  0  0
    7.3301  -14.5398   21.7365 C   0  0  0  0  0  0  0  0  0  0  0  0
    8.9296  -18.0272   23.1662 C   0  0  0  0  0  0  0  0  0  0  0  0
    9.1321  -18.7480   24.2049 O   0  0  0  0  0  0  0  0  0  0  0  0
   10.1185  -17.4741   22.6106 N   0  0  0  0  0  0  0  0  0  0  0  0
   11.3535  -17.2932   23.3289 C   0  0  1  0  0  0  0  0  0  0  0  0
   12.3609  -16.5169   22.5150 C   0  0  0  0  0  0  0  0  0  0  0  0
   13.7058  -16.7168   23.0824 C   0  0  0  0  0  0  0  0  0  0  0  0
   13.8285  -17.5072   24.0729 O   0  0  0  0  0  0  0  0  0  0  0  0
   11.2726  -16.7411   24.6647 C   0  0  0  0  0  0  0  0  0  0  0  0
   11.7499  -15.5490   24.7848 O   0  0  0  0  0  0  0  0  0  0  0  0
   14.8665  -16.1047   22.6176 O   0  0  0  0  0  0  0  0  0  0  0  0
   10.7624  -17.2739   25.8646 N   0  0  0  0  0  0  0  0  0  0  0  0
   11.0040  -16.6221   27.1448 C   0  0  1  0  0  0  0  0  0  0  0  0
   10.4709  -15.2330   27.2495 C   0  0  0  0  0  0  0  0  0  0  0  0
    9.0729  -15.0799   26.7826 C   0  0  0  0  0  0  0  0  0  0  0  0
    8.0863  -16.0009   26.6315 C   0  0  0  0  0  0  0  0  0  0  0  0
    6.9542  -15.4185   26.1566 N   0  0  0  0  0  0  0  0  0  0  0  0
    7.2294  -14.1038   26.0051 C   0  0  0  0  0  0  0  0  0  0  0  0
    6.4499  -13.0434   25.5578 C   0  0  0  0  0  0  0  0  0  0  0  0
    6.9407  -11.7522   25.4806 C   0  0  0  0  0  0  0  0  0  0  0  0
    8.2524  -11.5158   25.8636 C   0  0  0  0  0  0  0  0  0  0  0  0
    9.0176  -12.5701   26.3048 C   0  0  0  0  0  0  0  0  0  0  0  0
    8.5128  -13.8690   26.3788 C   0  0  0  0  0  0  0  0  0  0  0  0
   10.4610  -17.4040   28.2835 C   0  0  0  0  0  0  0  0  0  0  0  0
    9.8053  -18.4601   28.1926 O   0  0  0  0  0  0  0  0  0  0  0  0
   10.7385  -16.8599   29.5550 O   0  0  0  0  0  0  0  0  0  0  0  0
  2  1  1  1
  2  3  1  0
  3  4  1  0
  4 12  1  0
  4  5  2  0
  5  6  1  0
  7  8  2  0
  7  6  1  0
  9  8  1  0
 10  9  2  0
 11 10  1  0
 11 12  2  0
 12  7  1  0
 13 14  2  0
 13  2  1  0
 15 13  1  0
 16 15  1  0
 17 18  1  0
 16 17  1  6
 18 19  2  0
 20 16  1  0
 20 21  2  0
 22 18  1  0
 23 20  1  0
 24 25  1  6
 24 23  1  0
 25 26  1  0
 26 34  1  0
 26 27  2  0
 27 28  1  0
 29 28  1  0
 29 30  2  0
 31 30  1  0
 32 31  2  0
 33 34  2  0
 33 32  1  0
 34 29  1  0
 35 24  1  0
 36 35  2  0
 37 35  1  0
M  END
$$$$
