WDW.pdb
     RDKit          3D

 37 40  0  0  1  0  0  0  0  0999 V2000
    6.9832  -18.7219   24.5912 N   0  0  0  0  0  0  0  0  0  0  0  0
    7.9749  -17.7700   24.2233 C   0  0  1  0  0  0  0  0  0  0  0  0
    7.9991  -16.6252   25.1705 C   0  0  0  0  0  0  0  0  0  0  0  0
    7.1826  -15.4665   24.8569 C   0  0  0  0  0  0  0  0  0  0  0  0
    6.1139  -14.9209   25.4741 C   0  0  0  0  0  0  0  0  0  0  0  0
    5.6835  -13.8403   24.7552 N   0  0  0  0  0  0  0  0  0  0  0  0
    6.4897  -13.7077   23.6751 C   0  0  0  0  0  0  0  0  0  0  0  0
    6.4958  -12.7934   22.6273 C   0  0  0  0  0  0  0  0  0  0  0  0
    7.4168  -12.8466   21.6148 C   0  0  0  0  0  0  0  0  0  0  0  0
    8.3762  -13.8558   21.6473 C   0  0  0  0  0  0  0  0  0  0  0  0
    8.3601  -14.7662   22.7038 C   0  0  0  0  0  0  0  0  0  0  0  0
    7.4260  -14.6943   23.7076 C   0  0  0  0  0  0  0  0  0  0  0  0
    9.2441  -18.2604   23.7157 C   0  0  0  0  0  0  0  0  0  0  0  0
    9.7234  -19.3402   24.2094 O   0  0  0  0  0  0  0  0  0  0  0  0
   10.0641  -17.6761   22.7086 N   0  0  0  0  0  0  0  0  0  0  0  0
   11.5027  -17.6233   22.7495 C   0  0  1  0  0  0  0  0  0  0  0  0
   12.0569  -16.7320   21.6639 C   0  0  0  0  0  0  0  0  0  0  0  0
   13.5060  -16.9637   21.5337 C   0  0  0  0  0  0  0  0  0  0  0  0
   13.9203  -18.1667   21.4887 O   0  0  0  0  0  0  0  0  0  0  0  0
   12.1215  -17.2954   24.0164 C   0  0  0  0  0  0  0  0  0  0  0  0
   13.3481  -17.6767   24.1316 O   0  0  0  0  0  0  0  0  0  0  0  0
   14.4699  -15.9624   21.4547 O   0  0  0  0  0  0  0  0  0  0  0  0
   11.6228  -16.6299   25.1532 N   0  0  0  0  0  0  0  0  0  0  0  0
   12.4473  -16.4353   26.3384 C   0  0  1  0  0  0  0  0  0  0  0  0
   11.9817  -15.3529   27.2530 C   0  0  0  0  0  0  0  0  0  0  0  0
   10.5450  -15.4303   27.6073 C   0  0  0  0  0  0  0  0  0  0  0  0
    9.8587  -16.3652   28.3141 C   0  0  0  0  0  0  0  0  0  0  0  0
    8.5406  -16.0425   28.3841 N   0  0  0  0  0  0  0  0  0  0  0  0
    8.3901  -14.8809   27.7095 C   0  0  0  0  0  0  0  0  0  0  0  0
    7.2695  -14.0970   27.4603 C   0  0  0  0  0  0  0  0  0  0  0  0
    7.3417  -12.9225   26.7328 C   0  0  0  0  0  0  0  0  0  0  0  0
    8.5741  -12.5205   26.2400 C   0  0  0  0  0  0  0  0  0  0  0  0
    9.6783  -13.3015   26.4904 C   0  0  0  0  0  0  0  0  0  0  0  0
    9.5945  -14.4848   27.2255 C   0  0  0  0  0  0  0  0  0  0  0  0
   12.5824  -17.6784   27.1379 C   0  0  0  0  0  0  0  0  0  0  0  0
   11.9492  -18.7355   26.9499 O   0  0  0  0  0  0  0  0  0  0  0  0
   13.5202  -17.6020   28.1887 O   0  0  0  0  0  0  0  0  0  0  0  0
  2  1  1  1
  2  3  1  0
  3  4  1  0
  4 12  1  0
  4  5  2  0
  5  6  1  0
  7  8  2  0
  7  6  1  0
  9  8  1  0
 10  9  2  0
 11 10  1  0
 11 12  2  0
 12  7  1  0
 13 14  2  0
 13  2  1  0
 15 13  1  0
 16 15  1  0
 17 18  1  0
 16 17  1  6
 18 19  2  0
 20 16  1  0
 20 21  2  0
 22 18  1  0
 23 20  1  0
 24 25  1  1
 24 23  1  0
 25 26  1  0
 26 34  1  0
 26 27  2  0
 27 28  1  0
 29 28  1  0
 29 30  2  0
 31 30  1  0
 32 31  2  0
 33 34  2  0
 33 32  1  0
 34 29  1  0
 35 24  1  0
 36 35  2  0
 37 35  1  0
M  END
$$$$
