WDW.pdb
     RDKit          3D

 37 40  0  0  1  0  0  0  0  0999 V2000
    8.0633  -17.9523   24.1273 N   0  0  0  0  0  0  0  0  0  0  0  0
    8.0241  -18.2422   22.7346 C   0  0  1  0  0  0  0  0  0  0  0  0
    7.0131  -17.4043   22.0391 C   0  0  0  0  0  0  0  0  0  0  0  0
    6.7686  -16.0684   22.5523 C   0  0  0  0  0  0  0  0  0  0  0  0
    6.0762  -15.6244   23.6220 C   0  0  0  0  0  0  0  0  0  0  0  0
    6.1249  -14.2583   23.6528 N   0  0  0  0  0  0  0  0  0  0  0  0
    6.8543  -13.8409   22.5907 C   0  0  0  0  0  0  0  0  0  0  0  0
    7.2067  -12.5709   22.1474 C   0  0  0  0  0  0  0  0  0  0  0  0
    7.9616  -12.3718   21.0219 C   0  0  0  0  0  0  0  0  0  0  0  0
    8.3858  -13.4883   20.3054 C   0  0  0  0  0  0  0  0  0  0  0  0
    8.0265  -14.7568   20.7606 C   0  0  0  0  0  0  0  0  0  0  0  0
    7.2675  -14.9323   21.8912 C   0  0  0  0  0  0  0  0  0  0  0  0
    9.2785  -18.5033   22.0509 C   0  0  0  0  0  0  0  0  0  0  0  0
    9.3704  -19.5522   21.3224 O   0  0  0  0  0  0  0  0  0  0  0  0
   10.4697  -17.7240   22.0882 N   0  0  0  0  0  0  0  0  0  0  0  0
   11.5986  -17.9901   22.9418 C   0  0  1  0  0  0  0  0  0  0  0  0
   12.8994  -17.9312   22.1772 C   0  0  0  0  0  0  0  0  0  0  0  0
   12.8281  -16.8549   21.1738 C   0  0  0  0  0  0  0  0  0  0  0  0
   12.7960  -15.6507   21.5858 O   0  0  0  0  0  0  0  0  0  0  0  0
   11.7104  -17.2151   24.1595 C   0  0  0  0  0  0  0  0  0  0  0  0
   11.2584  -16.0102   24.0747 O   0  0  0  0  0  0  0  0  0  0  0  0
   12.7930  -17.0500   19.7958 O   0  0  0  0  0  0  0  0  0  0  0  0
   12.2263  -17.5420   25.4287 N   0  0  0  0  0  0  0  0  0  0  0  0
   11.4354  -17.3554   26.6378 C   0  0  1  0  0  0  0  0  0  0  0  0
    9.9932  -17.7111   26.5025 C   0  0  0  0  0  0  0  0  0  0  0  0
    9.0840  -16.5448   26.4087 C   0  0  0  0  0  0  0  0  0  0  0  0
    7.9133  -16.3893   25.7379 C   0  0  0  0  0  0  0  0  0  0  0  0
    7.4187  -15.1367   25.9191 N   0  0  0  0  0  0  0  0  0  0  0  0
    8.2926  -14.4876   26.7204 C   0  0  0  0  0  0  0  0  0  0  0  0
    8.2931  -13.1937   27.2283 C   0  0  0  0  0  0  0  0  0  0  0  0
    9.3064  -12.7258   28.0458 C   0  0  0  0  0  0  0  0  0  0  0  0
   10.3512  -13.5802   28.3647 C   0  0  0  0  0  0  0  0  0  0  0  0
   10.3438  -14.8590   27.8581 C   0  0  0  0  0  0  0  0  0  0  0  0
    9.3167  -15.3210   27.0341 C   0  0  0  0  0  0  0  0  0  0  0  0
   11.9841  -18.1137   27.7896 C   0  0  0  0  0  0  0  0  0  0  0  0
   11.5666  -18.0562   28.9626 O   0  0  0  0  0  0  0  0  0  0  0  0
   13.0711  -18.9556   27.4743 O   0  0  0  0  0  0  0  0  0  0  0  0
  2  1  1  1
  2  3  1  0
  3  4  1  0
  4 12  1  0
  4  5  2  0
  5  6  1  0
  7  8  2  0
  7  6  1  0
  9  8  1  0
 10  9  2  0
 11 10  1  0
 11 12  2  0
 12  7  1  0
 13 14  2  0
 13  2  1  0
 15 13  1  0
 16 15  1  0
 17 18  1  0
 16 17  1  6
 18 19  2  0
 20 16  1  0
 20 21  2  0
 22 18  1  0
 23 20  1  0
 24 25  1  6
 24 23  1  0
 25 26  1  0
 26 34  1  0
 26 27  2  0
 27 28  1  0
 29 28  1  0
 29 30  2  0
 31 30  1  0
 32 31  2  0
 33 34  2  0
 33 32  1  0
 34 29  1  0
 35 24  1  0
 36 35  2  0
 37 35  1  0
M  END
$$$$
