WDW.pdb
     RDKit          3D

 37 40  0  0  1  0  0  0  0  0999 V2000
    8.0455  -18.0000   21.2770 N   0  0  0  0  0  0  0  0  0  0  0  0
    8.6357  -16.9629   22.0524 C   0  0  1  0  0  0  0  0  0  0  0  0
    7.6085  -16.0090   22.5454 C   0  0  0  0  0  0  0  0  0  0  0  0
    6.8544  -15.2539   21.5611 C   0  0  0  0  0  0  0  0  0  0  0  0
    5.6080  -15.4059   21.0672 C   0  0  0  0  0  0  0  0  0  0  0  0
    5.3763  -14.4394   20.1280 N   0  0  0  0  0  0  0  0  0  0  0  0
    6.4894  -13.6742   20.0309 C   0  0  0  0  0  0  0  0  0  0  0  0
    6.7939  -12.5742   19.2364 C   0  0  0  0  0  0  0  0  0  0  0  0
    8.0076  -11.9419   19.2959 C   0  0  0  0  0  0  0  0  0  0  0  0
    8.9614  -12.4264   20.1878 C   0  0  0  0  0  0  0  0  0  0  0  0
    8.6437  -13.5297   20.9797 C   0  0  0  0  0  0  0  0  0  0  0  0
    7.4206  -14.1487   20.9020 C   0  0  0  0  0  0  0  0  0  0  0  0
    9.7281  -17.3082   22.9450 C   0  0  0  0  0  0  0  0  0  0  0  0
    9.5046  -18.1434   23.8894 O   0  0  0  0  0  0  0  0  0  0  0  0
   11.0651  -16.8189   22.9157 N   0  0  0  0  0  0  0  0  0  0  0  0
   12.0349  -17.0169   23.9617 C   0  0  1  0  0  0  0  0  0  0  0  0
   13.3940  -16.4911   23.5659 C   0  0  0  0  0  0  0  0  0  0  0  0
   13.7992  -17.0984   22.2863 C   0  0  0  0  0  0  0  0  0  0  0  0
   14.1455  -16.3241   21.3368 O   0  0  0  0  0  0  0  0  0  0  0  0
   11.6927  -16.5428   25.2860 C   0  0  0  0  0  0  0  0  0  0  0  0
   12.2228  -15.4119   25.6072 O   0  0  0  0  0  0  0  0  0  0  0  0
   13.8350  -18.4660   22.0284 O   0  0  0  0  0  0  0  0  0  0  0  0
   10.8791  -17.0970   26.2934 N   0  0  0  0  0  0  0  0  0  0  0  0
   10.9588  -16.6317   27.6716 C   0  0  1  0  0  0  0  0  0  0  0  0
   10.1107  -15.4442   27.9805 C   0  0  0  0  0  0  0  0  0  0  0  0
    8.7722  -15.4693   27.3453 C   0  0  0  0  0  0  0  0  0  0  0  0
    7.9440  -16.5102   27.0712 C   0  0  0  0  0  0  0  0  0  0  0  0
    6.8102  -16.0745   26.4621 N   0  0  0  0  0  0  0  0  0  0  0  0
    6.9227  -14.7321   26.3494 C   0  0  0  0  0  0  0  0  0  0  0  0
    6.0682  -13.7763   25.8125 C   0  0  0  0  0  0  0  0  0  0  0  0
    6.3868  -12.4301   25.8000 C   0  0  0  0  0  0  0  0  0  0  0  0
    7.5985  -12.0288   26.3424 C   0  0  0  0  0  0  0  0  0  0  0  0
    8.4389  -12.9804   26.8716 C   0  0  0  0  0  0  0  0  0  0  0  0
    8.1079  -14.3361   26.8790 C   0  0  0  0  0  0  0  0  0  0  0  0
   10.6173  -17.6992   28.6446 C   0  0  0  0  0  0  0  0  0  0  0  0
   10.1190  -18.8065   28.3630 O   0  0  0  0  0  0  0  0  0  0  0  0
   10.8999  -17.3807   29.9892 O   0  0  0  0  0  0  0  0  0  0  0  0
  2  1  1  1
  2  3  1  0
  3  4  1  0
  4 12  1  0
  4  5  2  0
  5  6  1  0
  7  8  2  0
  7  6  1  0
  9  8  1  0
 10  9  2  0
 11 10  1  0
 11 12  2  0
 12  7  1  0
 13 14  2  0
 13  2  1  0
 15 13  1  0
 16 15  1  0
 17 18  1  0
 16 17  1  6
 18 19  2  0
 20 16  1  0
 20 21  2  0
 22 18  1  0
 23 20  1  0
 24 25  1  6
 24 23  1  0
 25 26  1  0
 26 34  1  0
 26 27  2  0
 27 28  1  0
 29 28  1  0
 29 30  2  0
 31 30  1  0
 32 31  2  0
 33 34  2  0
 33 32  1  0
 34 29  1  0
 35 24  1  0
 36 35  2  0
 37 35  1  0
M  END
$$$$
