QKW.pdb
     RDKit          3D

 33 34  0  0  1  0  0  0  0  0999 V2000
    7.6154  -12.5057   17.6129 N   0  0  0  0  0  0  0  0  0  0  0  0
    7.9193  -13.8007   17.1243 C   0  0  0  0  0  0  0  0  0  0  0  0
    7.3626  -14.1832   16.0666 O   0  0  0  0  0  0  0  0  0  0  0  0
    8.8816  -14.6124   17.9093 C   0  0  0  0  0  0  0  0  0  0  0  0
    9.2618  -13.8185   19.1400 C   0  0  0  0  0  0  0  0  0  0  0  0
   10.3088  -14.5472   19.9642 C   0  0  2  0  0  0  0  0  0  0  0  0
   10.9722  -15.5271   19.1033 N   0  0  0  0  0  0  0  0  0  0  0  0
    9.7428  -15.2421   21.1146 C   0  0  0  0  0  0  0  0  0  0  0  0
    9.0112  -14.5989   21.9411 O   0  0  0  0  0  0  0  0  0  0  0  0
    9.9183  -16.6039   21.4327 N   0  0  0  0  0  0  0  0  0  0  0  0
    9.3008  -17.2508   22.6070 C   0  0  1  0  0  0  0  0  0  0  0  0
    9.4850  -18.7400   22.2815 C   0  0  0  0  0  0  0  0  0  0  0  0
    8.7571  -19.1915   21.0718 C   0  0  0  0  0  0  0  0  0  0  0  0
    9.1085  -20.6451   20.7217 C   0  0  0  0  0  0  0  0  0  0  0  0
    8.3903  -21.0816   19.4647 C   0  0  0  0  0  0  0  0  0  0  0  0
    8.9258  -22.3763   19.0835 N   0  0  0  0  0  0  0  0  0  0  0  0
    9.9810  -16.8451   23.8431 C   0  0  0  0  0  0  0  0  0  0  0  0
   11.2508  -16.7340   23.8519 O   0  0  0  0  0  0  0  0  0  0  0  0
    9.3148  -16.5579   25.0593 N   0  0  0  0  0  0  0  0  0  0  0  0
   10.0530  -16.2781   26.2937 C   0  0  1  0  0  0  0  0  0  0  0  0
    9.6010  -14.9871   26.8931 C   0  0  0  0  0  0  0  0  0  0  0  0
    8.2292  -14.6344   26.5368 C   0  0  0  0  0  0  0  0  0  0  0  0
    7.2328  -15.5713   26.2289 C   0  0  0  0  0  0  0  0  0  0  0  0
    6.1197  -14.9270   25.9040 N   0  0  0  0  0  0  0  0  0  0  0  0
    6.3222  -13.6047   25.9807 C   0  0  0  0  0  0  0  0  0  0  0  0
    5.5075  -12.5192   25.7715 C   0  0  0  0  0  0  0  0  0  0  0  0
    5.9580  -11.2317   25.9445 C   0  0  0  0  0  0  0  0  0  0  0  0
    7.2599  -11.0202   26.3385 C   0  0  0  0  0  0  0  0  0  0  0  0
    8.0790  -12.1008   26.5482 C   0  0  0  0  0  0  0  0  0  0  0  0
    7.6266  -13.4138   26.3725 C   0  0  0  0  0  0  0  0  0  0  0  0
    9.9860  -17.3827   27.2387 C   0  0  0  0  0  0  0  0  0  0  0  0
   10.6082  -17.4227   28.3210 O   0  0  0  0  0  0  0  0  0  0  0  0
    9.1738  -18.4854   26.9313 O   0  0  0  0  0  0  0  0  0  0  0  0
  2  1  1  0
  2  4  1  0
  3  2  2  0
  5  4  1  0
  6  7  1  6
  6  5  1  0
  8  9  2  0
  8  6  1  0
 10  8  1  0
 11 10  1  0
 11 17  1  0
 11 12  1  6
 13 12  1  0
 14 13  1  0
 15 14  1  0
 16 15  1  0
 17 19  1  0
 17 18  2  0
 19 20  1  0
 20 21  1  1
 21 22  1  0
 22 23  2  0
 23 24  1  0
 25 24  1  0
 26 25  2  0
 27 26  1  0
 28 29  1  0
 28 27  2  0
 29 30  2  0
 30 22  1  0
 30 25  1  0
 31 33  1  0
 31 20  1  0
 32 31  2  0
M  END
$$$$
