QKW.pdb
     RDKit          3D

 33 34  0  0  1  0  0  0  0  0999 V2000
    7.5261  -23.1967   19.9592 N   0  0  0  0  0  0  0  0  0  0  0  0
    6.3113  -23.1263   20.6855 C   0  0  0  0  0  0  0  0  0  0  0  0
    5.6719  -24.1886   20.8796 O   0  0  0  0  0  0  0  0  0  0  0  0
    5.8850  -21.7885   21.1646 C   0  0  0  0  0  0  0  0  0  0  0  0
    6.9599  -20.7949   20.7819 C   0  0  0  0  0  0  0  0  0  0  0  0
    7.3455  -19.9186   21.9608 C   0  0  2  0  0  0  0  0  0  0  0  0
    6.1236  -19.5384   22.6708 N   0  0  0  0  0  0  0  0  0  0  0  0
    8.0506  -18.7066   21.5605 C   0  0  0  0  0  0  0  0  0  0  0  0
    9.1101  -18.7993   20.8527 O   0  0  0  0  0  0  0  0  0  0  0  0
    7.6796  -17.3848   21.8792 N   0  0  0  0  0  0  0  0  0  0  0  0
    8.5101  -16.2072   21.5588 C   0  0  1  0  0  0  0  0  0  0  0  0
    7.4483  -15.1637   21.1831 C   0  0  0  0  0  0  0  0  0  0  0  0
    8.0039  -13.8966   20.6511 C   0  0  0  0  0  0  0  0  0  0  0  0
    7.6260  -13.7003   19.1754 C   0  0  0  0  0  0  0  0  0  0  0  0
    8.3339  -12.4956   18.5973 C   0  0  0  0  0  0  0  0  0  0  0  0
    7.8018  -12.2748   17.2645 N   0  0  0  0  0  0  0  0  0  0  0  0
    9.3203  -15.8104   22.7168 C   0  0  0  0  0  0  0  0  0  0  0  0
   10.2401  -14.9403   22.5692 O   0  0  0  0  0  0  0  0  0  0  0  0
    9.1515  -16.3336   24.0218 N   0  0  0  0  0  0  0  0  0  0  0  0
   10.0697  -15.9940   25.1120 C   0  0  1  0  0  0  0  0  0  0  0  0
    9.3200  -15.8133   26.3910 C   0  0  0  0  0  0  0  0  0  0  0  0
    8.1044  -15.0180   26.2400 C   0  0  0  0  0  0  0  0  0  0  0  0
    6.8412  -15.5600   25.9644 C   0  0  0  0  0  0  0  0  0  0  0  0
    5.9647  -14.5719   25.8418 N   0  0  0  0  0  0  0  0  0  0  0  0
    6.5793  -13.3952   26.0231 C   0  0  0  0  0  0  0  0  0  0  0  0
    6.1337  -12.0963   26.0221 C   0  0  0  0  0  0  0  0  0  0  0  0
    6.9799  -11.0402   26.2650 C   0  0  0  0  0  0  0  0  0  0  0  0
    8.3106  -11.2868   26.5172 C   0  0  0  0  0  0  0  0  0  0  0  0
    8.7620  -12.5825   26.5188 C   0  0  0  0  0  0  0  0  0  0  0  0
    7.9056  -13.6617   26.2708 C   0  0  0  0  0  0  0  0  0  0  0  0
   11.1570  -16.9531   25.2364 C   0  0  0  0  0  0  0  0  0  0  0  0
   11.2161  -18.0354   24.6157 O   0  0  0  0  0  0  0  0  0  0  0  0
   12.2187  -16.6604   26.1066 O   0  0  0  0  0  0  0  0  0  0  0  0
  2  1  1  0
  2  4  1  0
  3  2  2  0
  5  4  1  0
  6  7  1  6
  6  5  1  0
  8  9  2  0
  8  6  1  0
 10  8  1  0
 11 10  1  0
 11 17  1  0
 11 12  1  1
 13 12  1  0
 14 13  1  0
 15 14  1  0
 16 15  1  0
 17 19  1  0
 17 18  2  0
 19 20  1  0
 20 21  1  1
 21 22  1  0
 22 23  2  0
 23 24  1  0
 25 24  1  0
 26 25  2  0
 27 26  1  0
 28 29  1  0
 28 27  2  0
 29 30  2  0
 30 22  1  0
 30 25  1  0
 31 33  1  0
 31 20  1  0
 32 31  2  0
M  END
$$$$
