QKW.pdb
     RDKit          3D

 33 34  0  0  1  0  0  0  0  0999 V2000
   10.0126  -22.2821   23.0886 N   0  0  0  0  0  0  0  0  0  0  0  0
   10.2283  -22.6168   21.7286 C   0  0  0  0  0  0  0  0  0  0  0  0
   10.5677  -23.7929   21.4520 O   0  0  0  0  0  0  0  0  0  0  0  0
   10.0347  -21.5396   20.7269 C   0  0  0  0  0  0  0  0  0  0  0  0
    9.6488  -20.2795   21.4702 C   0  0  0  0  0  0  0  0  0  0  0  0
    9.3929  -19.1303   20.5108 C   0  0  2  0  0  0  0  0  0  0  0  0
   10.0179  -19.4538   19.2278 N   0  0  0  0  0  0  0  0  0  0  0  0
    9.9321  -17.8621   20.9876 C   0  0  0  0  0  0  0  0  0  0  0  0
   11.1423  -17.5522   20.7201 O   0  0  0  0  0  0  0  0  0  0  0  0
    9.2391  -16.8953   21.7435 N   0  0  0  0  0  0  0  0  0  0  0  0
    9.8333  -15.6101   22.1610 C   0  0  1  0  0  0  0  0  0  0  0  0
    8.8191  -14.5982   21.6089 C   0  0  0  0  0  0  0  0  0  0  0  0
    8.7040  -14.5985   20.1312 C   0  0  0  0  0  0  0  0  0  0  0  0
    7.8350  -13.4307   19.6410 C   0  0  0  0  0  0  0  0  0  0  0  0
    7.6002  -13.5271   18.1504 C   0  0  0  0  0  0  0  0  0  0  0  0
    6.7334  -12.4250   17.7731 N   0  0  0  0  0  0  0  0  0  0  0  0
    9.9687  -15.5486   23.6214 C   0  0  0  0  0  0  0  0  0  0  0  0
   10.5170  -14.5302   24.1573 O   0  0  0  0  0  0  0  0  0  0  0  0
    9.5222  -16.5617   24.5044 N   0  0  0  0  0  0  0  0  0  0  0  0
    9.8262  -16.5227   25.9373 C   0  0  1  0  0  0  0  0  0  0  0  0
    8.5688  -16.5784   26.7411 C   0  0  0  0  0  0  0  0  0  0  0  0
    7.5681  -15.6036   26.3153 C   0  0  0  0  0  0  0  0  0  0  0  0
    6.3727  -15.9394   25.6644 C   0  0  0  0  0  0  0  0  0  0  0  0
    5.7122  -14.8264   25.3730 N   0  0  0  0  0  0  0  0  0  0  0  0
    6.4067  -13.7624   25.7982 C   0  0  0  0  0  0  0  0  0  0  0  0
    6.1636  -12.4112   25.7639 C   0  0  0  0  0  0  0  0  0  0  0  0
    7.0436  -11.5032   26.3039 C   0  0  0  0  0  0  0  0  0  0  0  0
    8.2007  -11.9562   26.8964 C   0  0  0  0  0  0  0  0  0  0  0  0
    8.4495  -13.3051   26.9330 C   0  0  0  0  0  0  0  0  0  0  0  0
    7.5581  -14.2342   26.3838 C   0  0  0  0  0  0  0  0  0  0  0  0
   10.7803  -17.5501   26.3268 C   0  0  0  0  0  0  0  0  0  0  0  0
   11.2115  -17.7071   27.4884 O   0  0  0  0  0  0  0  0  0  0  0  0
   11.2594  -18.4327   25.3461 O   0  0  0  0  0  0  0  0  0  0  0  0
  2  1  1  0
  2  4  1  0
  3  2  2  0
  5  4  1  0
  6  7  1  6
  6  5  1  0
  8  9  2  0
  8  6  1  0
 10  8  1  0
 11 10  1  0
 11 17  1  0
 11 12  1  1
 13 12  1  0
 14 13  1  0
 15 14  1  0
 16 15  1  0
 17 19  1  0
 17 18  2  0
 19 20  1  0
 20 21  1  1
 21 22  1  0
 22 23  2  0
 23 24  1  0
 25 24  1  0
 26 25  2  0
 27 26  1  0
 28 29  1  0
 28 27  2  0
 29 30  2  0
 30 22  1  0
 30 25  1  0
 31 33  1  0
 31 20  1  0
 32 31  2  0
M  END
$$$$
