QKW.pdb
     RDKit          3D

 33 34  0  0  1  0  0  0  0  0999 V2000
    6.8579  -19.1204   26.4953 N   0  0  0  0  0  0  0  0  0  0  0  0
    6.1755  -20.1882   25.8610 C   0  0  0  0  0  0  0  0  0  0  0  0
    5.6290  -21.0572   26.5828 O   0  0  0  0  0  0  0  0  0  0  0  0
    6.1604  -20.1963   24.3775 C   0  0  0  0  0  0  0  0  0  0  0  0
    6.8366  -18.9296   23.9002 C   0  0  0  0  0  0  0  0  0  0  0  0
    6.2534  -18.4576   22.5798 C   0  0  2  0  0  0  0  0  0  0  0  0
    5.9205  -19.6346   21.7765 N   0  0  0  0  0  0  0  0  0  0  0  0
    7.1730  -17.6178   21.8211 C   0  0  0  0  0  0  0  0  0  0  0  0
    8.0993  -18.1629   21.1306 O   0  0  0  0  0  0  0  0  0  0  0  0
    7.1552  -16.2099   21.7593 N   0  0  0  0  0  0  0  0  0  0  0  0
    8.3708  -15.3873   21.6019 C   0  0  1  0  0  0  0  0  0  0  0  0
    7.8199  -14.1400   20.8962 C   0  0  0  0  0  0  0  0  0  0  0  0
    7.4037  -14.3707   19.4924 C   0  0  0  0  0  0  0  0  0  0  0  0
    8.2866  -13.5818   18.5140 C   0  0  0  0  0  0  0  0  0  0  0  0
    7.8999  -13.8813   17.0832 C   0  0  0  0  0  0  0  0  0  0  0  0
    8.7111  -13.0356   16.2258 N   0  0  0  0  0  0  0  0  0  0  0  0
    8.9713  -15.0897   22.9080 C   0  0  0  0  0  0  0  0  0  0  0  0
    9.1386  -13.8756   23.2584 O   0  0  0  0  0  0  0  0  0  0  0  0
    9.3882  -16.0762   23.8344 N   0  0  0  0  0  0  0  0  0  0  0  0
   10.2331  -15.7438   24.9846 C   0  0  1  0  0  0  0  0  0  0  0  0
    9.5088  -16.0151   26.2622 C   0  0  0  0  0  0  0  0  0  0  0  0
    8.1790  -15.4132   26.3107 C   0  0  0  0  0  0  0  0  0  0  0  0
    6.9878  -16.1248   26.1112 C   0  0  0  0  0  0  0  0  0  0  0  0
    5.9655  -15.2816   26.1728 N   0  0  0  0  0  0  0  0  0  0  0  0
    6.4144  -14.0407   26.4050 C   0  0  0  0  0  0  0  0  0  0  0  0
    5.7829  -12.8330   26.5741 C   0  0  0  0  0  0  0  0  0  0  0  0
    6.4843  -11.6791   26.8326 C   0  0  0  0  0  0  0  0  0  0  0  0
    7.8568  -11.7309   26.9259 C   0  0  0  0  0  0  0  0  0  0  0  0
    8.4935  -12.9345   26.7571 C   0  0  0  0  0  0  0  0  0  0  0  0
    7.7850  -14.1125   26.4924 C   0  0  0  0  0  0  0  0  0  0  0  0
   11.5272  -16.4070   24.9282 C   0  0  0  0  0  0  0  0  0  0  0  0
   11.8351  -17.2808   24.0907 O   0  0  0  0  0  0  0  0  0  0  0  0
   12.5074  -16.0546   25.8691 O   0  0  0  0  0  0  0  0  0  0  0  0
  2  1  1  0
  2  4  1  0
  3  2  2  0
  5  4  1  0
  6  7  1  6
  6  5  1  0
  8  9  2  0
  8  6  1  0
 10  8  1  0
 11 10  1  0
 11 17  1  0
 11 12  1  1
 13 12  1  0
 14 13  1  0
 15 14  1  0
 16 15  1  0
 17 19  1  0
 17 18  2  0
 19 20  1  0
 20 21  1  1
 21 22  1  0
 22 23  2  0
 23 24  1  0
 25 24  1  0
 26 25  2  0
 27 26  1  0
 28 29  1  0
 28 27  2  0
 29 30  2  0
 30 22  1  0
 30 25  1  0
 31 33  1  0
 31 20  1  0
 32 31  2  0
M  END
$$$$
