QKW.pdb
     RDKit          3D

 33 34  0  0  1  0  0  0  0  0999 V2000
    6.8970  -12.2927   17.4938 N   0  0  0  0  0  0  0  0  0  0  0  0
    7.2477  -13.5948   17.0584 C   0  0  0  0  0  0  0  0  0  0  0  0
    6.6780  -14.0549   16.0392 O   0  0  0  0  0  0  0  0  0  0  0  0
    8.2713  -14.3210   17.8497 C   0  0  0  0  0  0  0  0  0  0  0  0
    8.6571  -13.4461   19.0223 C   0  0  0  0  0  0  0  0  0  0  0  0
    9.7803  -14.0719   19.8306 C   0  0  2  0  0  0  0  0  0  0  0  0
   10.6748  -14.7736   18.9093 N   0  0  0  0  0  0  0  0  0  0  0  0
    9.3006  -15.0193   20.8300 C   0  0  0  0  0  0  0  0  0  0  0  0
    8.4490  -14.6371   21.7022 O   0  0  0  0  0  0  0  0  0  0  0  0
    9.6862  -16.3698   20.9484 N   0  0  0  0  0  0  0  0  0  0  0  0
    9.1250  -17.2904   21.9566 C   0  0  1  0  0  0  0  0  0  0  0  0
    9.3281  -18.6565   21.2858 C   0  0  0  0  0  0  0  0  0  0  0  0
    9.1762  -18.6375   19.8115 C   0  0  0  0  0  0  0  0  0  0  0  0
    9.3664  -20.0399   19.2149 C   0  0  0  0  0  0  0  0  0  0  0  0
    9.1566  -20.0177   17.7176 C   0  0  0  0  0  0  0  0  0  0  0  0
    8.9110  -21.3837   17.2910 N   0  0  0  0  0  0  0  0  0  0  0  0
    9.8408  -17.1653   23.2322 C   0  0  0  0  0  0  0  0  0  0  0  0
   10.9595  -17.7572   23.3834 O   0  0  0  0  0  0  0  0  0  0  0  0
    9.3707  -16.4144   24.3370 N   0  0  0  0  0  0  0  0  0  0  0  0
   10.0409  -16.4594   25.6393 C   0  0  1  0  0  0  0  0  0  0  0  0
    9.7479  -15.2217   26.4220 C   0  0  0  0  0  0  0  0  0  0  0  0
    8.4185  -14.6758   26.1622 C   0  0  0  0  0  0  0  0  0  0  0  0
    7.2912  -15.4582   25.8752 C   0  0  0  0  0  0  0  0  0  0  0  0
    6.2582  -14.6587   25.6436 N   0  0  0  0  0  0  0  0  0  0  0  0
    6.6389  -13.3796   25.7628 C   0  0  0  0  0  0  0  0  0  0  0  0
    5.9662  -12.1880   25.6473 C   0  0  0  0  0  0  0  0  0  0  0  0
    6.5928  -10.9805   25.8465 C   0  0  0  0  0  0  0  0  0  0  0  0
    7.9304  -10.9605   26.1713 C   0  0  0  0  0  0  0  0  0  0  0  0
    8.6081  -12.1479   26.2874 C   0  0  0  0  0  0  0  0  0  0  0  0
    7.9760  -13.3803   26.0845 C   0  0  0  0  0  0  0  0  0  0  0  0
    9.7267  -17.6721   26.3797 C   0  0  0  0  0  0  0  0  0  0  0  0
    8.8411  -18.4890   26.0504 O   0  0  0  0  0  0  0  0  0  0  0  0
   10.4564  -17.9602   27.5436 O   0  0  0  0  0  0  0  0  0  0  0  0
  2  1  1  0
  2  4  1  0
  3  2  2  0
  5  4  1  0
  6  7  1  6
  6  5  1  0
  8  9  2  0
  8  6  1  0
 10  8  1  0
 11 10  1  0
 11 17  1  0
 11 12  1  6
 13 12  1  0
 14 13  1  0
 15 14  1  0
 16 15  1  0
 17 19  1  0
 17 18  2  0
 19 20  1  0
 20 21  1  1
 21 22  1  0
 22 23  2  0
 23 24  1  0
 25 24  1  0
 26 25  2  0
 27 26  1  0
 28 29  1  0
 28 27  2  0
 29 30  2  0
 30 22  1  0
 30 25  1  0
 31 33  1  0
 31 20  1  0
 32 31  2  0
M  END
$$$$
