QKW.pdb
     RDKit          3D

 33 34  0  0  1  0  0  0  0  0999 V2000
    6.5023  -13.6525   15.3757 N   0  0  0  0  0  0  0  0  0  0  0  0
    7.7417  -13.7319   16.0582 C   0  0  0  0  0  0  0  0  0  0  0  0
    8.5661  -14.6054   15.6944 O   0  0  0  0  0  0  0  0  0  0  0  0
    7.9708  -12.7668   17.1613 C   0  0  0  0  0  0  0  0  0  0  0  0
    7.6691  -13.4729   18.4651 C   0  0  0  0  0  0  0  0  0  0  0  0
    8.9316  -14.0421   19.0885 C   0  0  2  0  0  0  0  0  0  0  0  0
    9.6087  -14.8660   18.0865 N   0  0  0  0  0  0  0  0  0  0  0  0
    8.6641  -14.8613   20.2649 C   0  0  0  0  0  0  0  0  0  0  0  0
    7.9948  -14.3695   21.2356 O   0  0  0  0  0  0  0  0  0  0  0  0
    9.0778  -16.1942   20.4618 N   0  0  0  0  0  0  0  0  0  0  0  0
    8.7019  -16.9964   21.6425 C   0  0  1  0  0  0  0  0  0  0  0  0
    8.9131  -18.4290   21.1322 C   0  0  0  0  0  0  0  0  0  0  0  0
    8.3480  -18.6835   19.7857 C   0  0  0  0  0  0  0  0  0  0  0  0
    8.7084  -20.0913   19.2885 C   0  0  0  0  0  0  0  0  0  0  0  0
    8.1817  -20.3157   17.8890 C   0  0  0  0  0  0  0  0  0  0  0  0
    8.6293  -21.6286   17.4597 N   0  0  0  0  0  0  0  0  0  0  0  0
    9.5542  -16.6646   22.7908 C   0  0  0  0  0  0  0  0  0  0  0  0
   10.8211  -16.6625   22.6506 O   0  0  0  0  0  0  0  0  0  0  0  0
    9.0619  -16.3355   24.0771 N   0  0  0  0  0  0  0  0  0  0  0  0
    9.9576  -16.1709   25.2251 C   0  0  1  0  0  0  0  0  0  0  0  0
    9.6847  -14.8781   25.9211 C   0  0  0  0  0  0  0  0  0  0  0  0
    8.2675  -14.5263   25.9504 C   0  0  0  0  0  0  0  0  0  0  0  0
    7.2254  -15.4582   25.8470 C   0  0  0  0  0  0  0  0  0  0  0  0
    6.0663  -14.8131   25.8596 N   0  0  0  0  0  0  0  0  0  0  0  0
    6.2819  -13.4951   25.9674 C   0  0  0  0  0  0  0  0  0  0  0  0
    5.4410  -12.4121   26.0440 C   0  0  0  0  0  0  0  0  0  0  0  0
    5.9210  -11.1308   26.1792 C   0  0  0  0  0  0  0  0  0  0  0  0
    7.2805  -10.9231   26.2406 C   0  0  0  0  0  0  0  0  0  0  0  0
    8.1257  -12.0012   26.1638 C   0  0  0  0  0  0  0  0  0  0  0  0
    7.6431  -13.3078   26.0248 C   0  0  0  0  0  0  0  0  0  0  0  0
    9.9094  -17.3097   26.1299 C   0  0  0  0  0  0  0  0  0  0  0  0
    9.0433  -18.2085   26.0855 O   0  0  0  0  0  0  0  0  0  0  0  0
   10.8928  -17.4228   27.1250 O   0  0  0  0  0  0  0  0  0  0  0  0
  2  1  1  0
  2  4  1  0
  3  2  2  0
  5  4  1  0
  6  7  1  6
  6  5  1  0
  8  9  2  0
  8  6  1  0
 10  8  1  0
 11 10  1  0
 11 17  1  0
 11 12  1  6
 13 12  1  0
 14 13  1  0
 15 14  1  0
 16 15  1  0
 17 19  1  0
 17 18  2  0
 19 20  1  0
 20 21  1  1
 21 22  1  0
 22 23  2  0
 23 24  1  0
 25 24  1  0
 26 25  2  0
 27 26  1  0
 28 29  1  0
 28 27  2  0
 29 30  2  0
 30 22  1  0
 30 25  1  0
 31 33  1  0
 31 20  1  0
 32 31  2  0
M  END
$$$$
