QKW.pdb
     RDKit          3D

 33 34  0  0  1  0  0  0  0  0999 V2000
    7.0202  -14.9084   16.0963 N   0  0  0  0  0  0  0  0  0  0  0  0
    8.3537  -14.6531   16.5023 C   0  0  0  0  0  0  0  0  0  0  0  0
    9.2384  -14.5643   15.6167 O   0  0  0  0  0  0  0  0  0  0  0  0
    8.6031  -14.5097   17.9577 C   0  0  0  0  0  0  0  0  0  0  0  0
    7.3057  -14.7982   18.6809 C   0  0  0  0  0  0  0  0  0  0  0  0
    7.4680  -14.6509   20.1837 C   0  0  2  0  0  0  0  0  0  0  0  0
    8.2062  -13.4154   20.4481 N   0  0  0  0  0  0  0  0  0  0  0  0
    8.1884  -15.7652   20.7887 C   0  0  0  0  0  0  0  0  0  0  0  0
    7.8253  -16.9629   20.5324 O   0  0  0  0  0  0  0  0  0  0  0  0
    9.2896  -15.6671   21.6628 N   0  0  0  0  0  0  0  0  0  0  0  0
    9.8902  -16.8286   22.3477 C   0  0  1  0  0  0  0  0  0  0  0  0
   11.1595  -17.0647   21.5166 C   0  0  0  0  0  0  0  0  0  0  0  0
   11.9511  -18.2445   21.9390 C   0  0  0  0  0  0  0  0  0  0  0  0
   12.7956  -18.7916   20.7787 C   0  0  0  0  0  0  0  0  0  0  0  0
   12.9950  -20.2840   20.9189 C   0  0  0  0  0  0  0  0  0  0  0  0
   13.7407  -20.7356   19.7577 N   0  0  0  0  0  0  0  0  0  0  0  0
   10.1746  -16.5150   23.7533 C   0  0  0  0  0  0  0  0  0  0  0  0
   11.2116  -15.8340   24.0458 O   0  0  0  0  0  0  0  0  0  0  0  0
    9.3606  -16.9210   24.8386 N   0  0  0  0  0  0  0  0  0  0  0  0
    9.7535  -16.6769   26.2290 C   0  0  1  0  0  0  0  0  0  0  0  0
    8.5475  -16.4734   27.0860 C   0  0  0  0  0  0  0  0  0  0  0  0
    7.6202  -15.4801   26.5509 C   0  0  0  0  0  0  0  0  0  0  0  0
    6.4544  -15.7976   25.8400 C   0  0  0  0  0  0  0  0  0  0  0  0
    5.8640  -14.6739   25.4545 N   0  0  0  0  0  0  0  0  0  0  0  0
    6.5773  -13.6199   25.8737 C   0  0  0  0  0  0  0  0  0  0  0  0
    6.3976  -12.2632   25.7605 C   0  0  0  0  0  0  0  0  0  0  0  0
    7.2816  -11.3670   26.3135 C   0  0  0  0  0  0  0  0  0  0  0  0
    8.3777  -11.8379   27.0006 C   0  0  0  0  0  0  0  0  0  0  0  0
    8.5630  -13.1925   27.1164 C   0  0  0  0  0  0  0  0  0  0  0  0
    7.6672  -14.1097   26.5544 C   0  0  0  0  0  0  0  0  0  0  0  0
   10.6322  -17.7161   26.7444 C   0  0  0  0  0  0  0  0  0  0  0  0
   10.9006  -18.7755   26.1397 O   0  0  0  0  0  0  0  0  0  0  0  0
   11.2268  -17.5340   28.0028 O   0  0  0  0  0  0  0  0  0  0  0  0
  2  1  1  0
  2  4  1  0
  3  2  2  0
  5  4  1  0
  6  7  1  6
  6  5  1  0
  8  9  2  0
  8  6  1  0
 10  8  1  0
 11 10  1  0
 11 17  1  0
 11 12  1  6
 13 12  1  0
 14 13  1  0
 15 14  1  0
 16 15  1  0
 17 19  1  0
 17 18  2  0
 19 20  1  0
 20 21  1  1
 21 22  1  0
 22 23  2  0
 23 24  1  0
 25 24  1  0
 26 25  2  0
 27 26  1  0
 28 29  1  0
 28 27  2  0
 29 30  2  0
 30 22  1  0
 30 25  1  0
 31 33  1  0
 31 20  1  0
 32 31  2  0
M  END
$$$$
