QKW.pdb
     RDKit          3D

 33 34  0  0  1  0  0  0  0  0999 V2000
    8.4246  -19.1686   25.6206 N   0  0  0  0  0  0  0  0  0  0  0  0
    7.0740  -19.5623   25.7909 C   0  0  0  0  0  0  0  0  0  0  0  0
    6.4755  -19.1998   26.8326 O   0  0  0  0  0  0  0  0  0  0  0  0
    6.4662  -20.3814   24.7136 C   0  0  0  0  0  0  0  0  0  0  0  0
    5.3679  -19.5619   24.0719 C   0  0  0  0  0  0  0  0  0  0  0  0
    5.6026  -19.3978   22.5804 C   0  0  2  0  0  0  0  0  0  0  0  0
    6.1257  -20.6594   22.0551 N   0  0  0  0  0  0  0  0  0  0  0  0
    6.5487  -18.3328   22.2686 C   0  0  0  0  0  0  0  0  0  0  0  0
    7.7920  -18.6064   22.1619 O   0  0  0  0  0  0  0  0  0  0  0  0
    6.2336  -16.9747   22.0615 N   0  0  0  0  0  0  0  0  0  0  0  0
    7.2456  -15.9404   21.7701 C   0  0  1  0  0  0  0  0  0  0  0  0
    6.3755  -14.7777   21.2713 C   0  0  0  0  0  0  0  0  0  0  0  0
    7.1444  -13.6396   20.7140 C   0  0  0  0  0  0  0  0  0  0  0  0
    7.3047  -13.7692   19.1920 C   0  0  0  0  0  0  0  0  0  0  0  0
    8.0002  -12.5538   18.6216 C   0  0  0  0  0  0  0  0  0  0  0  0
    7.9757  -12.6759   17.1749 N   0  0  0  0  0  0  0  0  0  0  0  0
    8.0123  -15.6069   22.9768 C   0  0  0  0  0  0  0  0  0  0  0  0
    7.4660  -14.9094   23.8932 O   0  0  0  0  0  0  0  0  0  0  0  0
    9.3488  -16.0144   23.2071 N   0  0  0  0  0  0  0  0  0  0  0  0
   10.1219  -15.5104   24.3453 C   0  0  1  0  0  0  0  0  0  0  0  0
    9.4947  -15.9336   25.6328 C   0  0  0  0  0  0  0  0  0  0  0  0
    8.1815  -15.3358   25.8590 C   0  0  0  0  0  0  0  0  0  0  0  0
    6.9676  -15.9978   25.6279 C   0  0  0  0  0  0  0  0  0  0  0  0
    5.9664  -15.1662   25.8847 N   0  0  0  0  0  0  0  0  0  0  0  0
    6.4511  -13.9805   26.2775 C   0  0  0  0  0  0  0  0  0  0  0  0
    5.8530  -12.8089   26.6719 C   0  0  0  0  0  0  0  0  0  0  0  0
    6.5897  -11.7151   27.0610 C   0  0  0  0  0  0  0  0  0  0  0  0
    7.9642  -11.7921   27.0574 C   0  0  0  0  0  0  0  0  0  0  0  0
    8.5675  -12.9598   26.6635 C   0  0  0  0  0  0  0  0  0  0  0  0
    7.8229  -14.0761   26.2650 C   0  0  0  0  0  0  0  0  0  0  0  0
   11.5272  -15.8797   24.2643 C   0  0  0  0  0  0  0  0  0  0  0  0
   12.0045  -16.6511   23.4058 O   0  0  0  0  0  0  0  0  0  0  0  0
   12.4209  -15.3437   25.2046 O   0  0  0  0  0  0  0  0  0  0  0  0
  2  1  1  0
  2  4  1  0
  3  2  2  0
  5  4  1  0
  6  7  1  1
  6  5  1  0
  8  9  2  0
  8  6  1  0
 10  8  1  0
 11 10  1  0
 11 17  1  0
 11 12  1  1
 13 12  1  0
 14 13  1  0
 15 14  1  0
 16 15  1  0
 17 19  1  0
 17 18  2  0
 19 20  1  0
 20 21  1  1
 21 22  1  0
 22 23  2  0
 23 24  1  0
 25 24  1  0
 26 25  2  0
 27 26  1  0
 28 29  1  0
 28 27  2  0
 29 30  2  0
 30 22  1  0
 30 25  1  0
 31 33  1  0
 31 20  1  0
 32 31  2  0
M  END
$$$$
