QKW.pdb
     RDKit          3D

 33 34  0  0  1  0  0  0  0  0999 V2000
    7.8812  -20.3964   16.8319 N   0  0  0  0  0  0  0  0  0  0  0  0
    6.7178  -20.0751   17.5745 C   0  0  0  0  0  0  0  0  0  0  0  0
    5.6393  -19.9184   16.9523 O   0  0  0  0  0  0  0  0  0  0  0  0
    6.8667  -19.9469   19.0450 C   0  0  0  0  0  0  0  0  0  0  0  0
    8.3062  -20.2561   19.3938 C   0  0  0  0  0  0  0  0  0  0  0  0
    8.6506  -19.7725   20.7917 C   0  0  2  0  0  0  0  0  0  0  0  0
    7.5027  -20.0273   21.6628 N   0  0  0  0  0  0  0  0  0  0  0  0
    8.9669  -18.3497   20.8381 C   0  0  0  0  0  0  0  0  0  0  0  0
   10.0095  -17.9167   20.2402 O   0  0  0  0  0  0  0  0  0  0  0  0
    8.2194  -17.3527   21.4966 N   0  0  0  0  0  0  0  0  0  0  0  0
    8.5933  -15.9247   21.4995 C   0  0  1  0  0  0  0  0  0  0  0  0
    7.2224  -15.2382   21.4162 C   0  0  0  0  0  0  0  0  0  0  0  0
    7.2836  -13.8017   21.0561 C   0  0  0  0  0  0  0  0  0  0  0  0
    7.6759  -13.6141   19.5831 C   0  0  0  0  0  0  0  0  0  0  0  0
    7.6556  -12.1499   19.2060 C   0  0  0  0  0  0  0  0  0  0  0  0
    7.9634  -12.0597   17.7899 N   0  0  0  0  0  0  0  0  0  0  0  0
    9.3334  -15.5823   22.7202 C   0  0  0  0  0  0  0  0  0  0  0  0
    9.9706  -14.4798   22.7779 O   0  0  0  0  0  0  0  0  0  0  0  0
    9.3929  -16.4056   23.8708 N   0  0  0  0  0  0  0  0  0  0  0  0
   10.2049  -16.0430   25.0355 C   0  0  1  0  0  0  0  0  0  0  0  0
    9.3759  -16.0601   26.2776 C   0  0  0  0  0  0  0  0  0  0  0  0
    8.1802  -15.2266   26.1849 C   0  0  0  0  0  0  0  0  0  0  0  0
    6.8858  -15.7298   25.9939 C   0  0  0  0  0  0  0  0  0  0  0  0
    6.0363  -14.7147   25.9062 N   0  0  0  0  0  0  0  0  0  0  0  0
    6.6990  -13.5568   26.0305 C   0  0  0  0  0  0  0  0  0  0  0  0
    6.2970  -12.2437   26.0333 C   0  0  0  0  0  0  0  0  0  0  0  0
    7.1903  -11.2132   26.2075 C   0  0  0  0  0  0  0  0  0  0  0  0
    8.5249  -11.5007   26.3849 C   0  0  0  0  0  0  0  0  0  0  0  0
    8.9328  -12.8108   26.3822 C   0  0  0  0  0  0  0  0  0  0  0  0
    8.0282  -13.8641   26.2040 C   0  0  0  0  0  0  0  0  0  0  0  0
   11.3989  -16.8665   25.1533 C   0  0  0  0  0  0  0  0  0  0  0  0
   11.6841  -17.8080   24.3837 O   0  0  0  0  0  0  0  0  0  0  0  0
   12.3020  -16.6005   26.1943 O   0  0  0  0  0  0  0  0  0  0  0  0
  2  1  1  0
  2  4  1  0
  3  2  2  0
  5  4  1  0
  6  7  1  1
  6  5  1  0
  8  9  2  0
  8  6  1  0
 10  8  1  0
 11 10  1  0
 11 17  1  0
 11 12  1  1
 13 12  1  0
 14 13  1  0
 15 14  1  0
 16 15  1  0
 17 19  1  0
 17 18  2  0
 19 20  1  0
 20 21  1  1
 21 22  1  0
 22 23  2  0
 23 24  1  0
 25 24  1  0
 26 25  2  0
 27 26  1  0
 28 29  1  0
 28 27  2  0
 29 30  2  0
 30 22  1  0
 30 25  1  0
 31 33  1  0
 31 20  1  0
 32 31  2  0
M  END
$$$$
