QKW.pdb
     RDKit          3D

 33 34  0  0  1  0  0  0  0  0999 V2000
   14.2420  -17.1128   15.8848 N   0  0  0  0  0  0  0  0  0  0  0  0
   12.9425  -16.5505   15.8291 C   0  0  0  0  0  0  0  0  0  0  0  0
   12.7313  -15.6202   15.0136 O   0  0  0  0  0  0  0  0  0  0  0  0
   11.9219  -17.1105   16.7488 C   0  0  0  0  0  0  0  0  0  0  0  0
   12.5682  -18.2342   17.5293 C   0  0  0  0  0  0  0  0  0  0  0  0
   11.6377  -18.7631   18.6067 C   0  0  2  0  0  0  0  0  0  0  0  0
   10.3372  -19.0407   17.9961 N   0  0  0  0  0  0  0  0  0  0  0  0
   11.4480  -17.8224   19.7047 C   0  0  0  0  0  0  0  0  0  0  0  0
   12.4638  -17.2460   20.2225 O   0  0  0  0  0  0  0  0  0  0  0  0
   10.2162  -17.4596   20.2856 N   0  0  0  0  0  0  0  0  0  0  0  0
   10.0941  -16.4986   21.3995 C   0  0  1  0  0  0  0  0  0  0  0  0
    8.7662  -15.8010   21.0715 C   0  0  0  0  0  0  0  0  0  0  0  0
    8.8727  -14.7514   20.0303 C   0  0  0  0  0  0  0  0  0  0  0  0
    7.5135  -14.0841   19.7725 C   0  0  0  0  0  0  0  0  0  0  0  0
    7.6549  -12.9440   18.7893 C   0  0  0  0  0  0  0  0  0  0  0  0
    6.3190  -12.4664   18.4801 N   0  0  0  0  0  0  0  0  0  0  0  0
   10.0719  -17.1972   22.6904 C   0  0  0  0  0  0  0  0  0  0  0  0
    9.4308  -18.2936   22.7984 O   0  0  0  0  0  0  0  0  0  0  0  0
   10.7287  -16.7338   23.8562 N   0  0  0  0  0  0  0  0  0  0  0  0
   10.8359  -17.5623   25.0600 C   0  0  1  0  0  0  0  0  0  0  0  0
   11.8961  -17.0317   25.9682 C   0  0  0  0  0  0  0  0  0  0  0  0
   11.3622  -16.4082   27.1762 C   0  0  0  0  0  0  0  0  0  0  0  0
   11.3726  -17.0122   28.4413 C   0  0  0  0  0  0  0  0  0  0  0  0
   10.7731  -16.2076   29.3090 N   0  0  0  0  0  0  0  0  0  0  0  0
   10.3630  -15.0942   28.6866 C   0  0  0  0  0  0  0  0  0  0  0  0
    9.7223  -13.9602   29.1219 C   0  0  0  0  0  0  0  0  0  0  0  0
    9.4275  -12.9226   28.2694 C   0  0  0  0  0  0  0  0  0  0  0  0
    9.7828  -13.0182   26.9429 C   0  0  0  0  0  0  0  0  0  0  0  0
   10.4224  -14.1491   26.5018 C   0  0  0  0  0  0  0  0  0  0  0  0
   10.7240  -15.2093   27.3646 C   0  0  0  0  0  0  0  0  0  0  0  0
    9.5565  -17.7233   25.7345 C   0  0  0  0  0  0  0  0  0  0  0  0
    8.5399  -17.0404   25.4891 O   0  0  0  0  0  0  0  0  0  0  0  0
    9.4373  -18.7060   26.7296 O   0  0  0  0  0  0  0  0  0  0  0  0
  2  1  1  0
  2  4  1  0
  3  2  2  0
  5  4  1  0
  6  7  1  6
  6  5  1  0
  8  9  2  0
  8  6  1  0
 10  8  1  0
 11 10  1  0
 11 17  1  0
 11 12  1  6
 13 12  1  0
 14 13  1  0
 15 14  1  0
 16 15  1  0
 17 19  1  0
 17 18  2  0
 19 20  1  0
 20 21  1  1
 21 22  1  0
 22 23  2  0
 23 24  1  0
 25 24  1  0
 26 25  2  0
 27 26  1  0
 28 29  1  0
 28 27  2  0
 29 30  2  0
 30 22  1  0
 30 25  1  0
 31 33  1  0
 31 20  1  0
 32 31  2  0
M  END
$$$$
