QKW.pdb
     RDKit          3D

 33 34  0  0  1  0  0  0  0  0999 V2000
    7.0247  -12.3480   18.4450 N   0  0  0  0  0  0  0  0  0  0  0  0
    7.7615  -13.2623   17.6518 C   0  0  0  0  0  0  0  0  0  0  0  0
    7.8983  -13.0135   16.4294 O   0  0  0  0  0  0  0  0  0  0  0  0
    8.3195  -14.4553   18.3349 C   0  0  0  0  0  0  0  0  0  0  0  0
    7.7681  -14.4829   19.7436 C   0  0  0  0  0  0  0  0  0  0  0  0
    8.8085  -14.9778   20.7331 C   0  0  2  0  0  0  0  0  0  0  0  0
    9.8725  -15.6487   19.9852 N   0  0  0  0  0  0  0  0  0  0  0  0
    8.2628  -15.9121   21.7107 C   0  0  0  0  0  0  0  0  0  0  0  0
    7.1236  -15.6767   22.2388 O   0  0  0  0  0  0  0  0  0  0  0  0
    8.8761  -17.0992   22.1592 N   0  0  0  0  0  0  0  0  0  0  0  0
    8.2947  -17.9729   23.1972 C   0  0  1  0  0  0  0  0  0  0  0  0
    8.7359  -19.3650   22.7228 C   0  0  0  0  0  0  0  0  0  0  0  0
    8.2216  -20.4804   23.5526 C   0  0  0  0  0  0  0  0  0  0  0  0
    8.6747  -21.8397   22.9993 C   0  0  0  0  0  0  0  0  0  0  0  0
    8.1333  -22.9696   23.8458 C   0  0  0  0  0  0  0  0  0  0  0  0
    8.5734  -24.2154   23.2438 N   0  0  0  0  0  0  0  0  0  0  0  0
    8.8189  -17.6259   24.5238 C   0  0  0  0  0  0  0  0  0  0  0  0
    8.5222  -18.3565   25.5254 O   0  0  0  0  0  0  0  0  0  0  0  0
    9.6538  -16.5117   24.7819 N   0  0  0  0  0  0  0  0  0  0  0  0
    9.9114  -16.0424   26.1460 C   0  0  1  0  0  0  0  0  0  0  0  0
    8.6290  -15.8723   26.8922 C   0  0  0  0  0  0  0  0  0  0  0  0
    7.6949  -14.9624   26.2344 C   0  0  0  0  0  0  0  0  0  0  0  0
    6.4847  -15.3655   25.6529 C   0  0  0  0  0  0  0  0  0  0  0  0
    5.8982  -14.3112   25.1014 N   0  0  0  0  0  0  0  0  0  0  0  0
    6.6563  -13.2220   25.2864 C   0  0  0  0  0  0  0  0  0  0  0  0
    6.4999  -11.9026   24.9394 C   0  0  0  0  0  0  0  0  0  0  0  0
    7.4325  -10.9500   25.2756 C   0  0  0  0  0  0  0  0  0  0  0  0
    8.5547  -11.3241   25.9797 C   0  0  0  0  0  0  0  0  0  0  0  0
    8.7170  -12.6411   26.3286 C   0  0  0  0  0  0  0  0  0  0  0  0
    7.7717  -13.6158   25.9880 C   0  0  0  0  0  0  0  0  0  0  0  0
   10.8565  -16.8938   26.8528 C   0  0  0  0  0  0  0  0  0  0  0  0
   11.2057  -16.7246   28.0400 O   0  0  0  0  0  0  0  0  0  0  0  0
   11.4240  -17.9823   26.1721 O   0  0  0  0  0  0  0  0  0  0  0  0
  2  1  1  0
  2  4  1  0
  3  2  2  0
  5  4  1  0
  6  7  1  6
  6  5  1  0
  8  9  2  0
  8  6  1  0
 10  8  1  0
 11 10  1  0
 11 17  1  0
 11 12  1  6
 13 12  1  0
 14 13  1  0
 15 14  1  0
 16 15  1  0
 17 19  1  0
 17 18  2  0
 19 20  1  0
 20 21  1  1
 21 22  1  0
 22 23  2  0
 23 24  1  0
 25 24  1  0
 26 25  2  0
 27 26  1  0
 28 29  1  0
 28 27  2  0
 29 30  2  0
 30 22  1  0
 30 25  1  0
 31 33  1  0
 31 20  1  0
 32 31  2  0
M  END
$$$$
