QKW.pdb
     RDKit          3D

 33 34  0  0  1  0  0  0  0  0999 V2000
    7.8724  -18.2077   16.0368 N   0  0  0  0  0  0  0  0  0  0  0  0
    9.2360  -17.8914   16.2570 C   0  0  0  0  0  0  0  0  0  0  0  0
    9.9297  -17.5328   15.2745 O   0  0  0  0  0  0  0  0  0  0  0  0
    9.7433  -18.0104   17.6460 C   0  0  0  0  0  0  0  0  0  0  0  0
    8.6036  -18.4939   18.5159 C   0  0  0  0  0  0  0  0  0  0  0  0
    9.0158  -18.5635   19.9759 C   0  0  2  0  0  0  0  0  0  0  0  0
    7.8839  -19.0745   20.7500 N   0  0  0  0  0  0  0  0  0  0  0  0
    9.4065  -17.2673   20.5178 C   0  0  0  0  0  0  0  0  0  0  0  0
   10.5469  -16.7768   20.2166 O   0  0  0  0  0  0  0  0  0  0  0  0
    8.6342  -16.4569   21.3742 N   0  0  0  0  0  0  0  0  0  0  0  0
    9.0622  -15.1215   21.8349 C   0  0  1  0  0  0  0  0  0  0  0  0
    7.8007  -14.2819   21.5876 C   0  0  0  0  0  0  0  0  0  0  0  0
    7.2169  -14.4471   20.2352 C   0  0  0  0  0  0  0  0  0  0  0  0
    7.9231  -13.5464   19.2110 C   0  0  0  0  0  0  0  0  0  0  0  0
    7.2470  -13.6379   17.8616 C   0  0  0  0  0  0  0  0  0  0  0  0
    8.0135  -12.8258   16.9336 N   0  0  0  0  0  0  0  0  0  0  0  0
    9.4583  -15.1599   23.2479 C   0  0  0  0  0  0  0  0  0  0  0  0
    9.9841  -14.1274   23.7794 O   0  0  0  0  0  0  0  0  0  0  0  0
    9.2939  -16.2871   24.0890 N   0  0  0  0  0  0  0  0  0  0  0  0
    9.9052  -16.3507   25.4192 C   0  0  1  0  0  0  0  0  0  0  0  0
    8.8560  -16.5042   26.4709 C   0  0  0  0  0  0  0  0  0  0  0  0
    7.7210  -15.6032   26.2896 C   0  0  0  0  0  0  0  0  0  0  0  0
    6.4563  -16.0138   25.8453 C   0  0  0  0  0  0  0  0  0  0  0  0
    5.6686  -14.9514   25.7430 N   0  0  0  0  0  0  0  0  0  0  0  0
    6.3440  -13.8501   26.0982 C   0  0  0  0  0  0  0  0  0  0  0  0
    5.9939  -12.5252   26.1873 C   0  0  0  0  0  0  0  0  0  0  0  0
    6.8844  -11.5679   26.6128 C   0  0  0  0  0  0  0  0  0  0  0  0
    8.1625  -11.9431   26.9604 C   0  0  0  0  0  0  0  0  0  0  0  0
    8.5185  -13.2653   26.8726 C   0  0  0  0  0  0  0  0  0  0  0  0
    7.6167  -14.2442   26.4389 C   0  0  0  0  0  0  0  0  0  0  0  0
   10.9326  -17.3776   25.5056 C   0  0  0  0  0  0  0  0  0  0  0  0
   11.2209  -18.1652   24.5801 O   0  0  0  0  0  0  0  0  0  0  0  0
   11.6583  -17.5073   26.7000 O   0  0  0  0  0  0  0  0  0  0  0  0
  2  1  1  0
  2  4  1  0
  3  2  2  0
  5  4  1  0
  6  7  1  1
  6  5  1  0
  8  9  2  0
  8  6  1  0
 10  8  1  0
 11 10  1  0
 11 17  1  0
 11 12  1  1
 13 12  1  0
 14 13  1  0
 15 14  1  0
 16 15  1  0
 17 19  1  0
 17 18  2  0
 19 20  1  0
 20 21  1  1
 21 22  1  0
 22 23  2  0
 23 24  1  0
 25 24  1  0
 26 25  2  0
 27 26  1  0
 28 29  1  0
 28 27  2  0
 29 30  2  0
 30 22  1  0
 30 25  1  0
 31 33  1  0
 31 20  1  0
 32 31  2  0
M  END
$$$$
