QKW.pdb
     RDKit          3D

 33 34  0  0  1  0  0  0  0  0999 V2000
    8.0433  -13.3621   15.2460 N   0  0  0  0  0  0  0  0  0  0  0  0
    7.4207  -14.1781   16.2231 C   0  0  0  0  0  0  0  0  0  0  0  0
    6.8560  -15.2331   15.8450 O   0  0  0  0  0  0  0  0  0  0  0  0
    7.4850  -13.7169   17.6318 C   0  0  0  0  0  0  0  0  0  0  0  0
    7.7903  -14.9184   18.4993 C   0  0  0  0  0  0  0  0  0  0  0  0
    8.1398  -14.5000   19.9168 C   0  0  2  0  0  0  0  0  0  0  0  0
    9.2271  -13.5227   19.8535 N   0  0  0  0  0  0  0  0  0  0  0  0
    8.5639  -15.6188   20.7505 C   0  0  0  0  0  0  0  0  0  0  0  0
    7.7847  -16.6192   20.9056 O   0  0  0  0  0  0  0  0  0  0  0  0
    9.7912  -15.7276   21.4350 N   0  0  0  0  0  0  0  0  0  0  0  0
   10.1413  -16.8713   22.2999 C   0  0  1  0  0  0  0  0  0  0  0  0
   11.5213  -17.2685   21.7563 C   0  0  0  0  0  0  0  0  0  0  0  0
   11.4755  -18.0644   20.5067 C   0  0  0  0  0  0  0  0  0  0  0  0
   12.8890  -18.4178   20.0206 C   0  0  0  0  0  0  0  0  0  0  0  0
   12.8342  -19.1297   18.6877 C   0  0  0  0  0  0  0  0  0  0  0  0
   14.2018  -19.3938   18.2776 N   0  0  0  0  0  0  0  0  0  0  0  0
   10.1749  -16.4668   23.7106 C   0  0  0  0  0  0  0  0  0  0  0  0
   10.8396  -15.4335   24.0504 O   0  0  0  0  0  0  0  0  0  0  0  0
    9.5046  -17.1550   24.7510 N   0  0  0  0  0  0  0  0  0  0  0  0
    9.6851  -16.7877   26.1580 C   0  0  1  0  0  0  0  0  0  0  0  0
    8.3618  -16.6347   26.8332 C   0  0  0  0  0  0  0  0  0  0  0  0
    7.5672  -15.5303   26.3021 C   0  0  0  0  0  0  0  0  0  0  0  0
    6.5307  -15.6859   25.3711 C   0  0  0  0  0  0  0  0  0  0  0  0
    6.0463  -14.4907   25.0602 N   0  0  0  0  0  0  0  0  0  0  0  0
    6.7073  -13.5430   25.7386 C   0  0  0  0  0  0  0  0  0  0  0  0
    6.5877  -12.1761   25.7945 C   0  0  0  0  0  0  0  0  0  0  0  0
    7.3897  -11.4117   26.6087 C   0  0  0  0  0  0  0  0  0  0  0  0
    8.3393  -12.0290   27.3912 C   0  0  0  0  0  0  0  0  0  0  0  0
    8.4641  -13.3944   27.3391 C   0  0  0  0  0  0  0  0  0  0  0  0
    7.6515  -14.1778   26.5112 C   0  0  0  0  0  0  0  0  0  0  0  0
   10.5636  -17.7107   26.8606 C   0  0  0  0  0  0  0  0  0  0  0  0
   11.0160  -18.7656   26.3681 O   0  0  0  0  0  0  0  0  0  0  0  0
   10.9386  -17.4131   28.1801 O   0  0  0  0  0  0  0  0  0  0  0  0
  2  1  1  0
  2  4  1  0
  3  2  2  0
  5  4  1  0
  6  7  1  6
  6  5  1  0
  8  9  2  0
  8  6  1  0
 10  8  1  0
 11 10  1  0
 11 17  1  0
 11 12  1  6
 13 12  1  0
 14 13  1  0
 15 14  1  0
 16 15  1  0
 17 19  1  0
 17 18  2  0
 19 20  1  0
 20 21  1  1
 21 22  1  0
 22 23  2  0
 23 24  1  0
 25 24  1  0
 26 25  2  0
 27 26  1  0
 28 29  1  0
 28 27  2  0
 29 30  2  0
 30 22  1  0
 30 25  1  0
 31 33  1  0
 31 20  1  0
 32 31  2  0
M  END
$$$$
