KMH.pdb
     RDKit          3D

 28 28  0  0  1  0  0  0  0  0999 V2000
    7.7414  -16.6178   20.6319 N   0  0  0  0  0  0  0  0  0  0  0  0
    8.8756  -15.7478   20.7371 C   0  0  1  0  0  0  0  0  0  0  0  0
    8.7410  -14.5034   19.9103 C   0  0  0  0  0  0  0  0  0  0  0  0
    8.2604  -14.7400   18.5312 C   0  0  0  0  0  0  0  0  0  0  0  0
    8.2050  -13.5279   17.6640 C   0  0  0  0  0  0  0  0  0  0  0  0
    7.7089  -13.8887   16.2536 C   0  0  0  0  0  0  0  0  0  0  0  0
    7.5753  -12.6471   15.5269 N   0  0  0  0  0  0  0  0  0  0  0  0
    9.2112  -15.4096   22.1576 C   0  0  0  0  0  0  0  0  0  0  0  0
   10.2430  -14.7348   22.4111 O   0  0  0  0  0  0  0  0  0  0  0  0
    6.0757  -11.3712   26.9946 C   0  0  0  0  0  0  0  0  0  0  0  0
    6.1345  -13.1374   26.6879 S   0  0  0  0  0  0  0  0  0  0  0  0
    7.5107  -13.5891   25.5421 C   0  0  0  0  0  0  0  0  0  0  0  0
    7.5535  -15.0822   25.3715 C   0  0  0  0  0  0  0  0  0  0  0  0
    8.8006  -15.5626   24.6038 C   0  0  2  0  0  0  0  0  0  0  0  0
    8.3789  -15.8383   23.2187 N   0  0  0  0  0  0  0  0  0  0  0  0
    9.3078  -16.7512   25.2604 C   0  0  0  0  0  0  0  0  0  0  0  0
    9.2043  -17.8719   24.6394 O   0  0  0  0  0  0  0  0  0  0  0  0
    9.9138  -16.8419   26.5187 N   0  0  0  0  0  0  0  0  0  0  0  0
   10.5972  -18.0829   26.9357 C   0  0  1  0  0  0  0  0  0  0  0  0
   11.8918  -18.2227   26.1660 C   0  0  0  0  0  0  0  0  0  0  0  0
   11.6082  -18.7886   24.8326 C   0  0  0  0  0  0  0  0  0  0  0  0
   10.8617  -19.8886   24.4906 C   0  0  0  0  0  0  0  0  0  0  0  0
   10.8923  -20.0628   23.1374 N   0  0  0  0  0  0  0  0  0  0  0  0
   11.6513  -19.0815   22.6386 C   0  0  0  0  0  0  0  0  0  0  0  0
   12.0835  -18.3150   23.6457 N   0  0  0  0  0  0  0  0  0  0  0  0
   10.8956  -17.9268   28.3662 C   0  0  0  0  0  0  0  0  0  0  0  0
   10.5350  -16.7898   29.0592 O   0  0  0  0  0  0  0  0  0  0  0  0
   11.4896  -18.8350   28.9772 O   0  0  0  0  0  0  0  0  0  0  0  0
  2  1  1  1
  2  3  1  0
  3  4  1  0
  4  5  1  0
  5  6  1  0
  7  6  1  0
  8  9  2  0
  8  2  1  0
 11 10  1  0
 11 12  1  0
 12 13  1  0
 14 13  1  1
 14 15  1  0
 15  8  1  0
 16 18  1  0
 16 14  1  0
 17 16  2  0
 19 18  1  0
 19 26  1  0
 19 20  1  6
 21 20  1  0
 22 21  2  0
 23 24  1  0
 23 22  1  0
 24 25  2  0
 25 21  1  0
 26 28  2  0
 26 27  1  0
M  END
$$$$
