KMH.pdb
     RDKit          3D

 28 28  0  0  1  0  0  0  0  0999 V2000
    9.2621  -15.3369   19.9473 N   0  0  0  0  0  0  0  0  0  0  0  0
    8.6250  -16.1317   20.9558 C   0  0  1  0  0  0  0  0  0  0  0  0
    8.7525  -17.6061   20.7103 C   0  0  0  0  0  0  0  0  0  0  0  0
    8.4636  -18.0168   19.3186 C   0  0  0  0  0  0  0  0  0  0  0  0
    8.3542  -19.4885   19.1033 C   0  0  0  0  0  0  0  0  0  0  0  0
    7.9701  -19.7995   17.6468 C   0  0  0  0  0  0  0  0  0  0  0  0
    7.8401  -21.2349   17.5460 N   0  0  0  0  0  0  0  0  0  0  0  0
    9.0823  -15.7807   22.3387 C   0  0  0  0  0  0  0  0  0  0  0  0
   10.3062  -15.5886   22.5611 O   0  0  0  0  0  0  0  0  0  0  0  0
    6.2559  -10.7506   26.3065 C   0  0  0  0  0  0  0  0  0  0  0  0
    6.7193  -12.4378   26.7013 S   0  0  0  0  0  0  0  0  0  0  0  0
    7.0597  -13.4293   25.1808 C   0  0  0  0  0  0  0  0  0  0  0  0
    7.4637  -14.8241   25.5700 C   0  0  0  0  0  0  0  0  0  0  0  0
    8.6561  -15.3540   24.7495 C   0  0  2  0  0  0  0  0  0  0  0  0
    8.1524  -15.6597   23.3986 N   0  0  0  0  0  0  0  0  0  0  0  0
    9.1743  -16.5343   25.4125 C   0  0  0  0  0  0  0  0  0  0  0  0
    8.3989  -17.5540   25.5181 O   0  0  0  0  0  0  0  0  0  0  0  0
   10.4456  -16.7154   25.9689 N   0  0  0  0  0  0  0  0  0  0  0  0
   10.7703  -17.9473   26.7158 C   0  0  1  0  0  0  0  0  0  0  0  0
   12.2080  -18.3315   26.4441 C   0  0  0  0  0  0  0  0  0  0  0  0
   12.3495  -18.7219   25.0277 C   0  0  0  0  0  0  0  0  0  0  0  0
   11.4062  -19.2058   24.1559 C   0  0  0  0  0  0  0  0  0  0  0  0
   11.9854  -19.4621   22.9470 N   0  0  0  0  0  0  0  0  0  0  0  0
   13.2786  -19.1422   23.0626 C   0  0  0  0  0  0  0  0  0  0  0  0
   13.5047  -18.6986   24.3039 N   0  0  0  0  0  0  0  0  0  0  0  0
   10.6150  -17.6178   28.1395 C   0  0  0  0  0  0  0  0  0  0  0  0
   10.2312  -16.3584   28.5515 O   0  0  0  0  0  0  0  0  0  0  0  0
   10.8345  -18.4873   29.0035 O   0  0  0  0  0  0  0  0  0  0  0  0
  2  1  1  6
  2  3  1  0
  3  4  1  0
  4  5  1  0
  5  6  1  0
  7  6  1  0
  8  9  2  0
  8  2  1  0
 11 10  1  0
 11 12  1  0
 12 13  1  0
 14 13  1  1
 14 15  1  0
 15  8  1  0
 16 18  1  0
 16 14  1  0
 17 16  2  0
 19 18  1  0
 19 26  1  0
 19 20  1  1
 21 20  1  0
 22 21  2  0
 23 24  1  0
 23 22  1  0
 24 25  2  0
 25 21  1  0
 26 28  2  0
 26 27  1  0
M  END
$$$$
