KMH.pdb
     RDKit          3D

 28 28  0  0  1  0  0  0  0  0999 V2000
    7.9597  -17.2229   20.6530 N   0  0  0  0  0  0  0  0  0  0  0  0
    9.3218  -16.7873   20.7506 C   0  0  1  0  0  0  0  0  0  0  0  0
    9.8486  -16.2120   19.4692 C   0  0  0  0  0  0  0  0  0  0  0  0
    9.5684  -17.0366   18.2732 C   0  0  0  0  0  0  0  0  0  0  0  0
    8.8093  -16.3450   17.1918 C   0  0  0  0  0  0  0  0  0  0  0  0
    8.4924  -17.3156   16.0415 C   0  0  0  0  0  0  0  0  0  0  0  0
    7.8164  -16.5480   15.0210 N   0  0  0  0  0  0  0  0  0  0  0  0
    9.5424  -15.8398   21.8900 C   0  0  0  0  0  0  0  0  0  0  0  0
   10.6839  -15.3433   22.0765 O   0  0  0  0  0  0  0  0  0  0  0  0
    5.7022  -10.9044   25.8861 C   0  0  0  0  0  0  0  0  0  0  0  0
    5.9341  -12.6499   26.2273 S   0  0  0  0  0  0  0  0  0  0  0  0
    7.5936  -13.2424   25.6741 C   0  0  0  0  0  0  0  0  0  0  0  0
    7.4329  -14.1529   24.4886 C   0  0  0  0  0  0  0  0  0  0  0  0
    8.7777  -14.6800   23.9506 C   0  0  2  0  0  0  0  0  0  0  0  0
    8.4800  -15.4940   22.7586 N   0  0  0  0  0  0  0  0  0  0  0  0
    9.4088  -15.4625   24.9949 C   0  0  0  0  0  0  0  0  0  0  0  0
    9.6328  -14.8896   26.1236 O   0  0  0  0  0  0  0  0  0  0  0  0
    9.8182  -16.7994   24.9344 N   0  0  0  0  0  0  0  0  0  0  0  0
   10.5254  -17.4208   26.0723 C   0  0  1  0  0  0  0  0  0  0  0  0
    9.5597  -18.2919   26.8447 C   0  0  0  0  0  0  0  0  0  0  0  0
   10.1076  -18.5539   28.1900 C   0  0  0  0  0  0  0  0  0  0  0  0
   11.2629  -18.0909   28.7688 C   0  0  0  0  0  0  0  0  0  0  0  0
   11.3903  -18.6128   30.0233 N   0  0  0  0  0  0  0  0  0  0  0  0
   10.3250  -19.3951   30.2263 C   0  0  0  0  0  0  0  0  0  0  0  0
    9.5529  -19.3655   29.1347 N   0  0  0  0  0  0  0  0  0  0  0  0
   11.5811  -18.2614   25.4904 C   0  0  0  0  0  0  0  0  0  0  0  0
   12.6128  -18.7598   26.2587 O   0  0  0  0  0  0  0  0  0  0  0  0
   11.5554  -18.5350   24.2758 O   0  0  0  0  0  0  0  0  0  0  0  0
  2  1  1  6
  2  3  1  0
  3  4  1  0
  4  5  1  0
  5  6  1  0
  7  6  1  0
  8  9  2  0
  8  2  1  0
 11 10  1  0
 11 12  1  0
 12 13  1  0
 14 13  1  1
 14 15  1  0
 15  8  1  0
 16 18  1  0
 16 14  1  0
 17 16  2  0
 19 18  1  0
 19 26  1  0
 19 20  1  6
 21 20  1  0
 22 21  2  0
 23 24  1  0
 23 22  1  0
 24 25  2  0
 25 21  1  0
 26 28  2  0
 26 27  1  0
M  END
$$$$
