KMH.pdb
     RDKit          3D

 28 28  0  0  1  0  0  0  0  0999 V2000
    7.3216  -15.8023   20.2590 N   0  0  0  0  0  0  0  0  0  0  0  0
    8.6380  -15.2484   20.3813 C   0  0  1  0  0  0  0  0  0  0  0  0
    8.9496  -14.2332   19.3218 C   0  0  0  0  0  0  0  0  0  0  0  0
    8.0416  -14.2758   18.1545 C   0  0  0  0  0  0  0  0  0  0  0  0
    8.7081  -14.1250   16.8289 C   0  0  0  0  0  0  0  0  0  0  0  0
    7.6684  -14.0961   15.6959 C   0  0  0  0  0  0  0  0  0  0  0  0
    8.4004  -13.9369   14.4605 N   0  0  0  0  0  0  0  0  0  0  0  0
    8.9030  -14.6916   21.7467 C   0  0  0  0  0  0  0  0  0  0  0  0
   10.0815  -14.4098   22.0875 O   0  0  0  0  0  0  0  0  0  0  0  0
    5.8930  -12.7567   28.3920 C   0  0  0  0  0  0  0  0  0  0  0  0
    5.5735  -12.3262   26.6804 S   0  0  0  0  0  0  0  0  0  0  0  0
    7.1241  -12.3051   25.6775 C   0  0  0  0  0  0  0  0  0  0  0  0
    6.9083  -13.0705   24.4016 C   0  0  0  0  0  0  0  0  0  0  0  0
    8.1475  -13.8793   23.9705 C   0  0  2  0  0  0  0  0  0  0  0  0
    7.8420  -14.4760   22.6579 N   0  0  0  0  0  0  0  0  0  0  0  0
    8.4020  -14.8906   24.9772 C   0  0  0  0  0  0  0  0  0  0  0  0
    8.7716  -14.4980   26.1441 O   0  0  0  0  0  0  0  0  0  0  0  0
    8.2946  -16.2795   24.8423 N   0  0  0  0  0  0  0  0  0  0  0  0
    8.4640  -17.1634   26.0132 C   0  0  1  0  0  0  0  0  0  0  0  0
    7.3763  -18.2147   26.0065 C   0  0  0  0  0  0  0  0  0  0  0  0
    7.7095  -19.2679   26.9854 C   0  0  0  0  0  0  0  0  0  0  0  0
    8.8029  -19.3833   27.8072 C   0  0  0  0  0  0  0  0  0  0  0  0
    8.7146  -20.5366   28.5314 N   0  0  0  0  0  0  0  0  0  0  0  0
    7.5772  -21.1367   28.1650 C   0  0  0  0  0  0  0  0  0  0  0  0
    6.9700  -20.3845   27.2408 N   0  0  0  0  0  0  0  0  0  0  0  0
    9.7715  -17.8144   25.8510 C   0  0  0  0  0  0  0  0  0  0  0  0
   10.5312  -17.6352   24.7135 O   0  0  0  0  0  0  0  0  0  0  0  0
   10.2133  -18.5492   26.7541 O   0  0  0  0  0  0  0  0  0  0  0  0
  2  1  1  1
  2  3  1  0
  3  4  1  0
  4  5  1  0
  5  6  1  0
  7  6  1  0
  8  9  2  0
  8  2  1  0
 11 10  1  0
 11 12  1  0
 12 13  1  0
 14 13  1  1
 14 15  1  0
 15  8  1  0
 16 18  1  0
 16 14  1  0
 17 16  2  0
 19 18  1  0
 19 26  1  0
 19 20  1  6
 21 20  1  0
 22 21  2  0
 23 24  1  0
 23 22  1  0
 24 25  2  0
 25 21  1  0
 26 28  2  0
 26 27  1  0
M  END
$$$$
