KMH.pdb
     RDKit          3D

 28 28  0  0  1  0  0  0  0  0999 V2000
    6.2811  -17.3093   21.5670 N   0  0  0  0  0  0  0  0  0  0  0  0
    7.6509  -17.5841   21.8876 C   0  0  1  0  0  0  0  0  0  0  0  0
    8.4916  -17.8715   20.6789 C   0  0  0  0  0  0  0  0  0  0  0  0
    7.9534  -18.9368   19.8046 C   0  0  0  0  0  0  0  0  0  0  0  0
    8.7837  -19.2513   18.6064 C   0  0  0  0  0  0  0  0  0  0  0  0
    8.1880  -20.4348   17.8254 C   0  0  0  0  0  0  0  0  0  0  0  0
    9.0124  -20.6199   16.6533 N   0  0  0  0  0  0  0  0  0  0  0  0
    8.2725  -16.5084   22.7250 C   0  0  0  0  0  0  0  0  0  0  0  0
    9.1220  -15.7327   22.2141 O   0  0  0  0  0  0  0  0  0  0  0  0
    5.1651  -11.7154   27.0088 C   0  0  0  0  0  0  0  0  0  0  0  0
    6.6109  -11.7907   25.9501 S   0  0  0  0  0  0  0  0  0  0  0  0
    7.6333  -13.2905   26.2911 C   0  0  0  0  0  0  0  0  0  0  0  0
    7.2400  -14.3926   25.3471 C   0  0  0  0  0  0  0  0  0  0  0  0
    8.4476  -15.1984   24.8295 C   0  0  2  0  0  0  0  0  0  0  0  0
    7.9131  -16.3524   24.0848 N   0  0  0  0  0  0  0  0  0  0  0  0
    9.2397  -15.6122   25.9707 C   0  0  0  0  0  0  0  0  0  0  0  0
   10.4016  -15.0829   26.1201 O   0  0  0  0  0  0  0  0  0  0  0  0
    8.8958  -16.5393   26.9610 N   0  0  0  0  0  0  0  0  0  0  0  0
    9.6274  -17.8166   27.0811 C   0  0  1  0  0  0  0  0  0  0  0  0
    9.3792  -18.6521   25.8448 C   0  0  0  0  0  0  0  0  0  0  0  0
    8.1181  -19.4017   26.0074 C   0  0  0  0  0  0  0  0  0  0  0  0
    7.2740  -19.4686   27.0877 C   0  0  0  0  0  0  0  0  0  0  0  0
    6.2352  -20.3085   26.8086 N   0  0  0  0  0  0  0  0  0  0  0  0
    6.4288  -20.7628   25.5660 C   0  0  0  0  0  0  0  0  0  0  0  0
    7.5527  -20.2254   25.0796 N   0  0  0  0  0  0  0  0  0  0  0  0
   11.0531  -17.4682   27.1554 C   0  0  0  0  0  0  0  0  0  0  0  0
   11.5131  -16.2241   26.7762 O   0  0  0  0  0  0  0  0  0  0  0  0
   11.8750  -18.3086   27.5665 O   0  0  0  0  0  0  0  0  0  0  0  0
  2  1  1  6
  2  3  1  0
  3  4  1  0
  4  5  1  0
  5  6  1  0
  7  6  1  0
  8  9  2  0
  8  2  1  0
 11 10  1  0
 11 12  1  0
 12 13  1  0
 14 13  1  1
 14 15  1  0
 15  8  1  0
 16 18  1  0
 16 14  1  0
 17 16  2  0
 19 18  1  0
 19 26  1  0
 19 20  1  6
 21 20  1  0
 22 21  2  0
 23 24  1  0
 23 22  1  0
 24 25  2  0
 25 21  1  0
 26 28  2  0
 26 27  1  0
M  END
$$$$
