KMH.pdb
     RDKit          3D

 28 28  0  0  1  0  0  0  0  0999 V2000
   75.6229   -8.0063   85.0611 N   0  0  0  0  0  0  0  0  0  0  0  0
   76.6175   -7.3750   84.2445 C   0  0  1  0  0  0  0  0  0  0  0  0
   76.5995   -7.8511   82.8221 C   0  0  0  0  0  0  0  0  0  0  0  0
   77.9030   -7.7453   82.1301 C   0  0  0  0  0  0  0  0  0  0  0  0
   77.8248   -7.3773   80.6870 C   0  0  0  0  0  0  0  0  0  0  0  0
   79.0264   -7.9460   79.9134 C   0  0  0  0  0  0  0  0  0  0  0  0
   79.7938   -6.8156   79.4431 N   0  0  0  0  0  0  0  0  0  0  0  0
   76.5480   -5.8797   84.3065 C   0  0  0  0  0  0  0  0  0  0  0  0
   76.0892   -5.3186   85.3355 O   0  0  0  0  0  0  0  0  0  0  0  0
   79.1073   -2.2639   86.2463 C   0  0  0  0  0  0  0  0  0  0  0  0
   79.4876   -1.8646   84.5396 S   0  0  0  0  0  0  0  0  0  0  0  0
   77.9573   -1.6344   83.5316 C   0  0  0  0  0  0  0  0  0  0  0  0
   77.7362   -2.8459   82.6692 C   0  0  0  0  0  0  0  0  0  0  0  0
   76.5322   -3.6940   83.1239 C   0  0  2  0  0  0  0  0  0  0  0  0
   76.9957   -5.0897   83.2210 N   0  0  0  0  0  0  0  0  0  0  0  0
   75.4749   -3.5432   82.1439 C   0  0  0  0  0  0  0  0  0  0  0  0
   74.3042   -3.2224   82.5668 O   0  0  0  0  0  0  0  0  0  0  0  0
   75.5635   -3.7051   80.7567 N   0  0  0  0  0  0  0  0  0  0  0  0
   74.6857   -2.9348   79.8527 C   0  0  1  0  0  0  0  0  0  0  0  0
   75.0381   -1.4668   79.9460 C   0  0  0  0  0  0  0  0  0  0  0  0
   74.1466   -0.8120   80.9234 C   0  0  0  0  0  0  0  0  0  0  0  0
   73.3534   -1.3708   81.8943 C   0  0  0  0  0  0  0  0  0  0  0  0
   72.6721   -0.3889   82.5532 N   0  0  0  0  0  0  0  0  0  0  0  0
   73.0356    0.7723   81.9989 C   0  0  0  0  0  0  0  0  0  0  0  0
   73.9173    0.5282   81.0233 N   0  0  0  0  0  0  0  0  0  0  0  0
   74.9691   -3.4183   78.4942 C   0  0  0  0  0  0  0  0  0  0  0  0
   74.0711   -4.2086   77.8071 O   0  0  0  0  0  0  0  0  0  0  0  0
   76.0430   -3.1158   77.9410 O   0  0  0  0  0  0  0  0  0  0  0  0
  2  1  1  1
  2  3  1  0
  3  4  1  0
  4  5  1  0
  5  6  1  0
  7  6  1  0
  8  9  2  0
  8  2  1  0
 11 10  1  0
 11 12  1  0
 12 13  1  0
 14 13  1  6
 14 15  1  0
 15  8  1  0
 16 18  1  0
 16 14  1  0
 17 16  2  0
 19 18  1  0
 19 26  1  0
 19 20  1  6
 21 20  1  0
 22 21  2  0
 23 24  1  0
 23 22  1  0
 24 25  2  0
 25 21  1  0
 26 28  2  0
 26 27  1  0
M  END
$$$$
