KMH.pdb
     RDKit          3D

 28 28  0  0  1  0  0  0  0  0999 V2000
    7.5591  -16.4961   20.5028 N   0  0  0  0  0  0  0  0  0  0  0  0
    8.9644  -16.6125   20.7599 C   0  0  1  0  0  0  0  0  0  0  0  0
    9.8086  -15.8913   19.7512 C   0  0  0  0  0  0  0  0  0  0  0  0
    9.6653  -16.3959   18.3678 C   0  0  0  0  0  0  0  0  0  0  0  0
   10.9355  -16.8310   17.7186 C   0  0  0  0  0  0  0  0  0  0  0  0
   10.6674  -17.3722   16.3041 C   0  0  0  0  0  0  0  0  0  0  0  0
   11.9412  -17.7967   15.7704 N   0  0  0  0  0  0  0  0  0  0  0  0
    9.3303  -16.2000   22.1530 C   0  0  0  0  0  0  0  0  0  0  0  0
   10.5316  -16.2549   22.5246 O   0  0  0  0  0  0  0  0  0  0  0  0
    6.2418  -10.7738   25.7161 C   0  0  0  0  0  0  0  0  0  0  0  0
    6.4177  -12.5191   26.0899 S   0  0  0  0  0  0  0  0  0  0  0  0
    7.3335  -13.4164   24.7605 C   0  0  0  0  0  0  0  0  0  0  0  0
    7.5106  -14.8561   25.1556 C   0  0  0  0  0  0  0  0  0  0  0  0
    8.7153  -15.5240   24.4639 C   0  0  2  0  0  0  0  0  0  0  0  0
    8.3399  -15.7460   23.0561 N   0  0  0  0  0  0  0  0  0  0  0  0
    8.9994  -16.7690   25.1498 C   0  0  0  0  0  0  0  0  0  0  0  0
    8.8383  -17.8651   24.4978 O   0  0  0  0  0  0  0  0  0  0  0  0
    9.4394  -16.9399   26.4672 N   0  0  0  0  0  0  0  0  0  0  0  0
   10.4997  -17.9178   26.7843 C   0  0  1  0  0  0  0  0  0  0  0  0
   11.7747  -17.5194   26.0746 C   0  0  0  0  0  0  0  0  0  0  0  0
   11.9698  -18.3880   24.8972 C   0  0  0  0  0  0  0  0  0  0  0  0
   11.1788  -19.4025   24.4187 C   0  0  0  0  0  0  0  0  0  0  0  0
   11.7600  -19.9581   23.3160 N   0  0  0  0  0  0  0  0  0  0  0  0
   12.9038  -19.2975   23.1079 C   0  0  0  0  0  0  0  0  0  0  0  0
   13.0369  -18.3568   24.0491 N   0  0  0  0  0  0  0  0  0  0  0  0
   10.7071  -17.8426   28.2372 C   0  0  0  0  0  0  0  0  0  0  0  0
   11.1322  -18.9356   28.9635 O   0  0  0  0  0  0  0  0  0  0  0  0
   10.4949  -16.7726   28.8381 O   0  0  0  0  0  0  0  0  0  0  0  0
  2  1  1  6
  2  3  1  0
  3  4  1  0
  4  5  1  0
  5  6  1  0
  7  6  1  0
  8  9  2  0
  8  2  1  0
 11 10  1  0
 11 12  1  0
 12 13  1  0
 14 13  1  1
 14 15  1  0
 15  8  1  0
 16 18  1  0
 16 14  1  0
 17 16  2  0
 19 18  1  0
 19 26  1  0
 19 20  1  6
 21 20  1  0
 22 21  2  0
 23 24  1  0
 23 22  1  0
 24 25  2  0
 25 21  1  0
 26 28  2  0
 26 27  1  0
M  END
$$$$
