KMH.pdb
     RDKit          3D

 28 28  0  0  1  0  0  0  0  0999 V2000
    8.7023  -19.5028   20.2976 N   0  0  0  0  0  0  0  0  0  0  0  0
    9.8566  -18.7658   19.8746 C   0  0  1  0  0  0  0  0  0  0  0  0
    9.8986  -18.5384   18.3924 C   0  0  0  0  0  0  0  0  0  0  0  0
    9.0857  -19.4941   17.6085 C   0  0  0  0  0  0  0  0  0  0  0  0
    9.0475  -19.2362   16.1401 C   0  0  0  0  0  0  0  0  0  0  0  0
    8.0573  -20.1861   15.4452 C   0  0  0  0  0  0  0  0  0  0  0  0
    7.9981  -19.7866   14.0579 N   0  0  0  0  0  0  0  0  0  0  0  0
   10.0179  -17.4740   20.6163 C   0  0  0  0  0  0  0  0  0  0  0  0
   11.0718  -16.8007   20.4746 O   0  0  0  0  0  0  0  0  0  0  0  0
    7.4857  -11.9015   20.0051 C   0  0  0  0  0  0  0  0  0  0  0  0
    7.1739  -12.1865   21.7483 S   0  0  0  0  0  0  0  0  0  0  0  0
    8.3660  -13.3991   22.4690 C   0  0  0  0  0  0  0  0  0  0  0  0
    8.1941  -14.7332   21.7974 C   0  0  0  0  0  0  0  0  0  0  0  0
    9.2389  -15.7718   22.2508 C   0  0  2  0  0  0  0  0  0  0  0  0
    8.9962  -17.0002   21.4733 N   0  0  0  0  0  0  0  0  0  0  0  0
    9.0721  -15.9918   23.6738 C   0  0  0  0  0  0  0  0  0  0  0  0
    8.2052  -16.8631   24.0501 O   0  0  0  0  0  0  0  0  0  0  0  0
    9.7511  -15.3621   24.7230 N   0  0  0  0  0  0  0  0  0  0  0  0
    9.4302  -15.6866   26.1276 C   0  0  1  0  0  0  0  0  0  0  0  0
    7.9292  -15.7875   26.2862 C   0  0  0  0  0  0  0  0  0  0  0  0
    7.3541  -14.4302   26.3621 C   0  0  0  0  0  0  0  0  0  0  0  0
    7.9874  -13.2126   26.3853 C   0  0  0  0  0  0  0  0  0  0  0  0
    7.0622  -12.2148   26.4903 N   0  0  0  0  0  0  0  0  0  0  0  0
    5.8623  -12.8034   26.5331 C   0  0  0  0  0  0  0  0  0  0  0  0
    6.0280  -14.1283   26.4570 N   0  0  0  0  0  0  0  0  0  0  0  0
   10.0375  -16.9977   26.3956 C   0  0  0  0  0  0  0  0  0  0  0  0
   10.6471  -17.7288   25.3971 O   0  0  0  0  0  0  0  0  0  0  0  0
   10.0049  -17.4712   27.5469 O   0  0  0  0  0  0  0  0  0  0  0  0
  2  1  1  6
  2  3  1  0
  3  4  1  0
  4  5  1  0
  5  6  1  0
  7  6  1  0
  8  9  2  0
  8  2  1  0
 11 10  1  0
 11 12  1  0
 12 13  1  0
 14 13  1  6
 14 15  1  0
 15  8  1  0
 16 18  1  0
 16 14  1  0
 17 16  2  0
 19 18  1  0
 19 26  1  0
 19 20  1  6
 21 20  1  0
 22 21  2  0
 23 24  1  0
 23 22  1  0
 24 25  2  0
 25 21  1  0
 26 28  2  0
 26 27  1  0
M  END
$$$$
