KMH.pdb
     RDKit          3D

 28 28  0  0  1  0  0  0  0  0999 V2000
    6.4661  -13.4243   20.7629 N   0  0  0  0  0  0  0  0  0  0  0  0
    7.3554  -14.5357   20.9322 C   0  0  1  0  0  0  0  0  0  0  0  0
    7.9746  -14.9947   19.6452 C   0  0  0  0  0  0  0  0  0  0  0  0
    7.3791  -14.3875   18.4346 C   0  0  0  0  0  0  0  0  0  0  0  0
    8.3228  -14.1892   17.2970 C   0  0  0  0  0  0  0  0  0  0  0  0
    7.5720  -13.7111   16.0427 C   0  0  0  0  0  0  0  0  0  0  0  0
    8.5645  -13.5119   15.0117 N   0  0  0  0  0  0  0  0  0  0  0  0
    8.4076  -14.2778   21.9671 C   0  0  0  0  0  0  0  0  0  0  0  0
    8.8980  -13.1245   22.0842 O   0  0  0  0  0  0  0  0  0  0  0  0
    6.8716  -11.4915   26.9953 C   0  0  0  0  0  0  0  0  0  0  0  0
    7.4532  -13.1130   26.4960 S   0  0  0  0  0  0  0  0  0  0  0  0
    6.7632  -13.6149   24.8581 C   0  0  0  0  0  0  0  0  0  0  0  0
    7.1794  -15.0259   24.5481 C   0  0  0  0  0  0  0  0  0  0  0  0
    8.6902  -15.1589   24.2735 C   0  0  2  0  0  0  0  0  0  0  0  0
    8.8551  -15.3167   22.8175 N   0  0  0  0  0  0  0  0  0  0  0  0
    9.1838  -16.3115   25.0008 C   0  0  0  0  0  0  0  0  0  0  0  0
    8.3698  -17.2840   25.2107 O   0  0  0  0  0  0  0  0  0  0  0  0
   10.4681  -16.5111   25.5197 N   0  0  0  0  0  0  0  0  0  0  0  0
   10.8222  -17.7837   26.1802 C   0  0  1  0  0  0  0  0  0  0  0  0
   12.3241  -17.9618   26.1480 C   0  0  0  0  0  0  0  0  0  0  0  0
   12.7672  -18.1177   24.7487 C   0  0  0  0  0  0  0  0  0  0  0  0
   12.0309  -18.3978   23.6247 C   0  0  0  0  0  0  0  0  0  0  0  0
   12.8575  -18.4801   22.5419 N   0  0  0  0  0  0  0  0  0  0  0  0
   14.0986  -18.2542   22.9852 C   0  0  0  0  0  0  0  0  0  0  0  0
   14.0535  -18.0366   24.3040 N   0  0  0  0  0  0  0  0  0  0  0  0
   10.3761  -17.6609   27.5750 C   0  0  0  0  0  0  0  0  0  0  0  0
   10.5336  -18.6927   28.4770 O   0  0  0  0  0  0  0  0  0  0  0  0
    9.8397  -16.6060   27.9626 O   0  0  0  0  0  0  0  0  0  0  0  0
  2  1  1  6
  2  3  1  0
  3  4  1  0
  4  5  1  0
  5  6  1  0
  7  6  1  0
  8  9  2  0
  8  2  1  0
 11 10  1  0
 11 12  1  0
 12 13  1  0
 14 13  1  6
 14 15  1  0
 15  8  1  0
 16 18  1  0
 16 14  1  0
 17 16  2  0
 19 18  1  0
 19 26  1  0
 19 20  1  1
 21 20  1  0
 22 21  2  0
 23 24  1  0
 23 22  1  0
 24 25  2  0
 25 21  1  0
 26 28  2  0
 26 27  1  0
M  END
$$$$
