KMH.pdb
     RDKit          3D

 28 28  0  0  1  0  0  0  0  0999 V2000
    7.1949  -16.7705   21.0390 N   0  0  0  0  0  0  0  0  0  0  0  0
    8.5936  -16.5004   21.1974 C   0  0  1  0  0  0  0  0  0  0  0  0
    9.1978  -15.8117   20.0095 C   0  0  0  0  0  0  0  0  0  0  0  0
    8.5621  -14.5199   19.6686 C   0  0  0  0  0  0  0  0  0  0  0  0
    8.0706  -14.4078   18.2650 C   0  0  0  0  0  0  0  0  0  0  0  0
    7.5753  -12.9813   17.9730 C   0  0  0  0  0  0  0  0  0  0  0  0
    8.5178  -12.3921   17.0500 N   0  0  0  0  0  0  0  0  0  0  0  0
    8.8953  -15.7497   22.4584 C   0  0  0  0  0  0  0  0  0  0  0  0
   10.0914  -15.5255   22.7799 O   0  0  0  0  0  0  0  0  0  0  0  0
    5.9536  -10.5068   26.6564 C   0  0  0  0  0  0  0  0  0  0  0  0
    5.6669  -12.2659   26.8570 S   0  0  0  0  0  0  0  0  0  0  0  0
    7.1604  -13.2589   26.4162 C   0  0  0  0  0  0  0  0  0  0  0  0
    6.9875  -13.8444   25.0423 C   0  0  0  0  0  0  0  0  0  0  0  0
    8.1950  -14.6918   24.5952 C   0  0  2  0  0  0  0  0  0  0  0  0
    7.8495  -15.2869   23.2919 N   0  0  0  0  0  0  0  0  0  0  0  0
    8.4372  -15.7042   25.6039 C   0  0  0  0  0  0  0  0  0  0  0  0
    8.6046  -15.3158   26.8178 O   0  0  0  0  0  0  0  0  0  0  0  0
    8.5146  -17.0900   25.4250 N   0  0  0  0  0  0  0  0  0  0  0  0
    8.7555  -17.9838   26.5757 C   0  0  1  0  0  0  0  0  0  0  0  0
    7.8574  -19.1958   26.4630 C   0  0  0  0  0  0  0  0  0  0  0  0
    8.1922  -20.1528   27.5358 C   0  0  0  0  0  0  0  0  0  0  0  0
    9.1141  -20.0450   28.5470 C   0  0  0  0  0  0  0  0  0  0  0  0
    9.1088  -21.1846   29.2978 N   0  0  0  0  0  0  0  0  0  0  0  0
    8.1929  -21.9972   28.7604 C   0  0  0  0  0  0  0  0  0  0  0  0
    7.6400  -21.3877   27.7061 N   0  0  0  0  0  0  0  0  0  0  0  0
   10.1595  -18.4075   26.4802 C   0  0  0  0  0  0  0  0  0  0  0  0
   10.8754  -18.7908   27.5953 O   0  0  0  0  0  0  0  0  0  0  0  0
   10.7273  -18.4225   25.3720 O   0  0  0  0  0  0  0  0  0  0  0  0
  2  1  1  6
  2  3  1  0
  3  4  1  0
  4  5  1  0
  5  6  1  0
  7  6  1  0
  8  9  2  0
  8  2  1  0
 11 10  1  0
 11 12  1  0
 12 13  1  0
 14 13  1  1
 14 15  1  0
 15  8  1  0
 16 18  1  0
 16 14  1  0
 17 16  2  0
 19 18  1  0
 19 26  1  0
 19 20  1  6
 21 20  1  0
 22 21  2  0
 23 24  1  0
 23 22  1  0
 24 25  2  0
 25 21  1  0
 26 28  2  0
 26 27  1  0
M  END
$$$$
