KMH.pdb
     RDKit          3D

 28 28  0  0  1  0  0  0  0  0999 V2000
    9.6677  -16.1821   19.4057 N   0  0  0  0  0  0  0  0  0  0  0  0
    8.7260  -16.4891   20.4418 C   0  0  1  0  0  0  0  0  0  0  0  0
    8.4313  -17.9558   20.5530 C   0  0  0  0  0  0  0  0  0  0  0  0
    8.1516  -18.6184   19.2601 C   0  0  0  0  0  0  0  0  0  0  0  0
    7.8637  -20.0791   19.3472 C   0  0  0  0  0  0  0  0  0  0  0  0
    7.5806  -20.6632   17.9528 C   0  0  0  0  0  0  0  0  0  0  0  0
    8.8507  -20.7476   17.2691 N   0  0  0  0  0  0  0  0  0  0  0  0
    9.1279  -15.9246   21.7701 C   0  0  0  0  0  0  0  0  0  0  0  0
   10.3446  -15.8901   22.0909 O   0  0  0  0  0  0  0  0  0  0  0  0
    6.5897  -11.7002   28.0393 C   0  0  0  0  0  0  0  0  0  0  0  0
    6.2342  -12.5742   26.5139 S   0  0  0  0  0  0  0  0  0  0  0  0
    7.6933  -13.5376   25.9193 C   0  0  0  0  0  0  0  0  0  0  0  0
    7.4095  -14.0852   24.5482 C   0  0  0  0  0  0  0  0  0  0  0  0
    8.6021  -14.8592   23.9529 C   0  0  2  0  0  0  0  0  0  0  0  0
    8.1544  -15.4265   22.6684 N   0  0  0  0  0  0  0  0  0  0  0  0
    8.9881  -15.8918   24.8939 C   0  0  0  0  0  0  0  0  0  0  0  0
    8.1437  -16.8301   25.1371 O   0  0  0  0  0  0  0  0  0  0  0  0
   10.1951  -16.0056   25.5931 N   0  0  0  0  0  0  0  0  0  0  0  0
   10.4095  -17.1126   26.5468 C   0  0  1  0  0  0  0  0  0  0  0  0
   11.8185  -17.6404   26.3905 C   0  0  0  0  0  0  0  0  0  0  0  0
   11.8970  -18.4683   25.1710 C   0  0  0  0  0  0  0  0  0  0  0  0
   10.8922  -18.9011   24.3420 C   0  0  0  0  0  0  0  0  0  0  0  0
   11.4178  -19.6704   23.3448 N   0  0  0  0  0  0  0  0  0  0  0  0
   12.7383  -19.7186   23.5492 C   0  0  0  0  0  0  0  0  0  0  0  0
   13.0333  -19.0022   24.6394 N   0  0  0  0  0  0  0  0  0  0  0  0
   10.2518  -16.5351   27.8890 C   0  0  0  0  0  0  0  0  0  0  0  0
   10.3640  -17.3088   29.0256 O   0  0  0  0  0  0  0  0  0  0  0  0
   10.0087  -15.3203   28.0154 O   0  0  0  0  0  0  0  0  0  0  0  0
  2  1  1  6
  2  3  1  0
  3  4  1  0
  4  5  1  0
  5  6  1  0
  7  6  1  0
  8  9  2  0
  8  2  1  0
 11 10  1  0
 11 12  1  0
 12 13  1  0
 14 13  1  1
 14 15  1  0
 15  8  1  0
 16 18  1  0
 16 14  1  0
 17 16  2  0
 19 18  1  0
 19 26  1  0
 19 20  1  1
 21 20  1  0
 22 21  2  0
 23 24  1  0
 23 22  1  0
 24 25  2  0
 25 21  1  0
 26 28  2  0
 26 27  1  0
M  END
$$$$
