IPT.pdb
     RDKit          3D

 23 23  0  0  1  0  0  0  0  0999 V2000
   12.8864  -11.7717  -16.6445 C   0  0  0  0  0  0  0  0  0  0  0  0
   14.3607  -11.9231  -16.3345 C   0  0  0  0  0  0  0  0  0  0  0  0
   14.7057  -11.0492  -15.1624 C   0  0  2  0  0  0  0  0  0  0  0  0
   14.5257   -9.5917  -15.5243 C   0  0  0  0  0  0  0  0  0  0  0  0
   16.0991  -11.3118  -14.6357 C   0  0  2  0  0  0  0  0  0  0  0  0
   16.3970  -12.6889  -14.4751 N   0  0  0  0  0  0  0  0  0  0  0  0
   16.4087  -10.4782  -13.4535 C   0  0  0  0  0  0  0  0  0  0  0  0
   15.6399  -10.6351  -12.4625 O   0  0  0  0  0  0  0  0  0  0  0  0
   17.4925   -9.5403  -13.3819 N   0  0  0  0  0  0  0  0  0  0  0  0
   18.5233   -9.5525  -14.4088 C   0  0  0  0  0  0  0  0  0  0  0  0
   19.5685   -8.5535  -13.9403 C   0  0  0  0  0  0  0  0  0  0  0  0
   18.6802   -7.5627  -13.2332 C   0  0  0  0  0  0  0  0  0  0  0  0
   17.7861   -8.5300  -12.4419 C   0  0  1  0  0  0  0  0  0  0  0  0
   16.6409   -7.7964  -11.8654 C   0  0  0  0  0  0  0  0  0  0  0  0
   15.6341   -7.5764  -12.5667 O   0  0  0  0  0  0  0  0  0  0  0  0
   15.0288   -7.9791   -8.1601 C   0  0  0  0  0  0  0  0  0  0  0  0
   15.4681   -6.5621   -8.5011 C   0  0  1  0  0  0  0  0  0  0  0  0
   16.7138   -6.3605   -7.9097 O   0  0  0  0  0  0  0  0  0  0  0  0
   15.5636   -6.4768  -10.0072 C   0  0  2  0  0  0  0  0  0  0  0  0
   16.6255   -7.3187  -10.5274 N   0  0  0  0  0  0  0  0  0  0  0  0
   15.7083   -5.0747  -10.4433 C   0  0  0  0  0  0  0  0  0  0  0  0
   16.7622   -4.6266  -10.9548 O   0  0  0  0  0  0  0  0  0  0  0  0
   14.6443   -4.1961  -10.2904 O   0  0  0  0  0  0  0  0  0  0  0  0
  2  1  1  0
  3  4  1  6
  3  2  1  0
  5  6  1  1
  5  3  1  0
  7  8  2  0
  7  5  1  0
  9  7  1  0
 10  9  1  0
 10 11  1  0
 12 13  1  0
 12 11  1  0
 13  9  1  0
 13 14  1  6
 15 14  2  0
 17 16  1  6
 18 17  1  0
 19 17  1  0
 19 20  1  1
 20 14  1  0
 21 23  1  0
 21 19  1  0
 22 21  2  0
M  END
$$$$
