IPT.pdb
     RDKit          3D

 23 23  0  0  1  0  0  0  0  0999 V2000
   11.5255  -13.3975  -10.7812 C   0  0  0  0  0  0  0  0  0  0  0  0
   12.5856  -13.1183  -11.8255 C   0  0  0  0  0  0  0  0  0  0  0  0
   13.2640  -11.8187  -11.4977 C   0  0  2  0  0  0  0  0  0  0  0  0
   12.2626  -10.6853  -11.5164 C   0  0  0  0  0  0  0  0  0  0  0  0
   14.4321  -11.5289  -12.4139 C   0  0  2  0  0  0  0  0  0  0  0  0
   15.2742  -12.6485  -12.6345 N   0  0  0  0  0  0  0  0  0  0  0  0
   15.1474  -10.2944  -12.0231 C   0  0  0  0  0  0  0  0  0  0  0  0
   15.5387  -10.2512  -10.8219 O   0  0  0  0  0  0  0  0  0  0  0  0
   15.4060   -9.1916  -12.9042 N   0  0  0  0  0  0  0  0  0  0  0  0
   15.2492   -9.3662  -14.3402 C   0  0  0  0  0  0  0  0  0  0  0  0
   15.7448   -8.0693  -14.9587 C   0  0  0  0  0  0  0  0  0  0  0  0
   15.3392   -7.0975  -13.8808 C   0  0  0  0  0  0  0  0  0  0  0  0
   15.8164   -7.8679  -12.6398 C   0  0  1  0  0  0  0  0  0  0  0  0
   15.2828   -7.2311  -11.4185 C   0  0  0  0  0  0  0  0  0  0  0  0
   14.1582   -7.5601  -10.9931 O   0  0  0  0  0  0  0  0  0  0  0  0
   15.7302   -4.9218   -7.1848 C   0  0  0  0  0  0  0  0  0  0  0  0
   16.4017   -5.6451   -8.3438 C   0  0  1  0  0  0  0  0  0  0  0  0
   16.6166   -6.9622   -7.9419 O   0  0  0  0  0  0  0  0  0  0  0  0
   15.4496   -5.5854   -9.5162 C   0  0  2  0  0  0  0  0  0  0  0  0
   15.9974   -6.2438  -10.6881 N   0  0  0  0  0  0  0  0  0  0  0  0
   15.0570   -4.1918   -9.8003 C   0  0  0  0  0  0  0  0  0  0  0  0
   14.0699   -3.6391   -9.2586 O   0  0  0  0  0  0  0  0  0  0  0  0
   15.7982   -3.4413  -10.7030 O   0  0  0  0  0  0  0  0  0  0  0  0
  2  1  1  0
  3  4  1  6
  3  2  1  0
  5  6  1  1
  5  3  1  0
  7  8  2  0
  7  5  1  0
  9  7  1  0
 10  9  1  0
 10 11  1  0
 12 13  1  0
 12 11  1  0
 13  9  1  0
 13 14  1  1
 15 14  2  0
 17 16  1  1
 18 17  1  0
 19 17  1  0
 19 20  1  6
 20 14  1  0
 21 23  1  0
 21 19  1  0
 22 21  2  0
M  END
$$$$
