IPT.pdb
     RDKit          3D

 23 23  0  0  1  0  0  0  0  0999 V2000
   16.7681  -12.4654  -18.5508 C   0  0  0  0  0  0  0  0  0  0  0  0
   18.2660  -12.4825  -18.7709 C   0  0  0  0  0  0  0  0  0  0  0  0
   18.9024  -11.4534  -17.8805 C   0  0  2  0  0  0  0  0  0  0  0  0
   18.4079  -10.0703  -18.2412 C   0  0  0  0  0  0  0  0  0  0  0  0
   20.4132  -11.5171  -17.9112 C   0  0  2  0  0  0  0  0  0  0  0  0
   20.9313  -12.8277  -17.7531 N   0  0  0  0  0  0  0  0  0  0  0  0
   21.0267  -10.5067  -17.0217 C   0  0  0  0  0  0  0  0  0  0  0  0
   20.5251  -10.4268  -15.8642 O   0  0  0  0  0  0  0  0  0  0  0  0
   22.1159   -9.6499  -17.3947 N   0  0  0  0  0  0  0  0  0  0  0  0
   22.8449   -9.9085  -18.6271 C   0  0  0  0  0  0  0  0  0  0  0  0
   24.0012   -8.9221  -18.6239 C   0  0  0  0  0  0  0  0  0  0  0  0
   23.3520   -7.7654  -17.9086 C   0  0  0  0  0  0  0  0  0  0  0  0
   22.6686   -8.5193  -16.7570 C   0  0  1  0  0  0  0  0  0  0  0  0
   21.7311   -7.6192  -16.0552 C   0  0  0  0  0  0  0  0  0  0  0  0
   20.6097   -7.3908  -16.5494 O   0  0  0  0  0  0  0  0  0  0  0  0
   21.1012   -7.4554  -12.1606 C   0  0  0  0  0  0  0  0  0  0  0  0
   20.2216   -6.7689  -13.1962 C   0  0  1  0  0  0  0  0  0  0  0  0
   19.4154   -5.8575  -12.5167 O   0  0  0  0  0  0  0  0  0  0  0  0
   21.1432   -6.0610  -14.1628 C   0  0  2  0  0  0  0  0  0  0  0  0
   22.0455   -6.9873  -14.8221 N   0  0  0  0  0  0  0  0  0  0  0  0
   21.8708   -4.9695  -13.4873 C   0  0  0  0  0  0  0  0  0  0  0  0
   23.0817   -5.0527  -13.1712 O   0  0  0  0  0  0  0  0  0  0  0  0
   21.2057   -3.7906  -13.1787 O   0  0  0  0  0  0  0  0  0  0  0  0
  2  1  1  0
  3  4  1  6
  3  2  1  0
  5  6  1  1
  5  3  1  0
  7  8  2  0
  7  5  1  0
  9  7  1  0
 10  9  1  0
 10 11  1  0
 12 13  1  0
 12 11  1  0
 13  9  1  0
 13 14  1  6
 15 14  2  0
 17 16  1  1
 18 17  1  0
 19 17  1  0
 19 20  1  1
 20 14  1  0
 21 23  1  0
 21 19  1  0
 22 21  2  0
M  END
$$$$
