IPT.pdb
     RDKit          3D

 23 23  0  0  1  0  0  0  0  0999 V2000
   25.4288  -21.0410   -8.5867 C   0  0  0  0  0  0  0  0  0  0  0  0
   24.7925  -20.2364   -9.7003 C   0  0  0  0  0  0  0  0  0  0  0  0
   25.2454  -20.7882  -11.0220 C   0  0  2  0  0  0  0  0  0  0  0  0
   26.7560  -20.7919  -11.0986 C   0  0  0  0  0  0  0  0  0  0  0  0
   24.6423  -20.0479  -12.1950 C   0  0  2  0  0  0  0  0  0  0  0  0
   23.2309  -19.9271  -12.1273 N   0  0  0  0  0  0  0  0  0  0  0  0
   25.1503  -20.5551  -13.4885 C   0  0  0  0  0  0  0  0  0  0  0  0
   24.5484  -21.5670  -13.9486 O   0  0  0  0  0  0  0  0  0  0  0  0
   26.2466  -19.9787  -14.2133 N   0  0  0  0  0  0  0  0  0  0  0  0
   26.8346  -18.7294  -13.7544 C   0  0  0  0  0  0  0  0  0  0  0  0
   27.8436  -18.3441  -14.8237 C   0  0  0  0  0  0  0  0  0  0  0  0
   28.2877  -19.7147  -15.2656 C   0  0  0  0  0  0  0  0  0  0  0  0
   26.9220  -20.4107  -15.3742 C   0  0  1  0  0  0  0  0  0  0  0  0
   27.1128  -21.8663  -15.5373 C   0  0  0  0  0  0  0  0  0  0  0  0
   27.4634  -22.5551  -14.5593 O   0  0  0  0  0  0  0  0  0  0  0  0
   26.0566  -24.4166  -14.7196 C   0  0  0  0  0  0  0  0  0  0  0  0
   25.9065  -24.7004  -16.2076 C   0  0  1  0  0  0  0  0  0  0  0  0
   24.6662  -24.2019  -16.6018 O   0  0  0  0  0  0  0  0  0  0  0  0
   27.0301  -23.9767  -16.9136 C   0  0  2  0  0  0  0  0  0  0  0  0
   26.9138  -22.5366  -16.7742 N   0  0  0  0  0  0  0  0  0  0  0  0
   27.1100  -24.3887  -18.3281 C   0  0  0  0  0  0  0  0  0  0  0  0
   26.8528  -23.6118  -19.2785 O   0  0  0  0  0  0  0  0  0  0  0  0
   27.4840  -25.6879  -18.6434 O   0  0  0  0  0  0  0  0  0  0  0  0
  2  1  1  0
  3  4  1  1
  3  2  1  0
  5  6  1  6
  5  3  1  0
  7  8  2  0
  7  5  1  0
  9  7  1  0
 10  9  1  0
 10 11  1  0
 12 13  1  0
 12 11  1  0
 13  9  1  0
 13 14  1  1
 15 14  2  0
 17 16  1  1
 18 17  1  0
 19 17  1  0
 19 20  1  6
 20 14  1  0
 21 23  1  0
 21 19  1  0
 22 21  2  0
M  END
$$$$
