IPT.pdb
     RDKit          3D

 23 23  0  0  1  0  0  0  0  0999 V2000
   24.2888  -13.2461  -14.5973 C   0  0  0  0  0  0  0  0  0  0  0  0
   23.6881  -12.9523  -15.9557 C   0  0  0  0  0  0  0  0  0  0  0  0
   23.0159  -11.6096  -15.9126 C   0  0  2  0  0  0  0  0  0  0  0  0
   21.8643  -11.6311  -14.9322 C   0  0  0  0  0  0  0  0  0  0  0  0
   22.5598  -11.1471  -17.2786 C   0  0  2  0  0  0  0  0  0  0  0  0
   23.4833  -11.4362  -18.3153 N   0  0  0  0  0  0  0  0  0  0  0  0
   22.0847   -9.7464  -17.2572 C   0  0  0  0  0  0  0  0  0  0  0  0
   22.9198   -8.8966  -16.8352 O   0  0  0  0  0  0  0  0  0  0  0  0
   20.7775   -9.3253  -17.6737 N   0  0  0  0  0  0  0  0  0  0  0  0
   19.9216  -10.2503  -18.4010 C   0  0  0  0  0  0  0  0  0  0  0  0
   18.7043   -9.4359  -18.8071 C   0  0  0  0  0  0  0  0  0  0  0  0
   18.6213   -8.4931  -17.6345 C   0  0  0  0  0  0  0  0  0  0  0  0
   20.1010   -8.0980  -17.5102 C   0  0  1  0  0  0  0  0  0  0  0  0
   20.3217   -7.3738  -16.2419 C   0  0  0  0  0  0  0  0  0  0  0  0
   20.3124   -8.0009  -15.1646 O   0  0  0  0  0  0  0  0  0  0  0  0
   22.8049   -6.2487  -14.3642 C   0  0  0  0  0  0  0  0  0  0  0  0
   22.0897   -4.9237  -14.5884 C   0  0  1  0  0  0  0  0  0  0  0  0
   22.7247   -4.2845  -15.6516 O   0  0  0  0  0  0  0  0  0  0  0  0
   20.6532   -5.2465  -14.9306 C   0  0  2  0  0  0  0  0  0  0  0  0
   20.5488   -5.9724  -16.1832 N   0  0  0  0  0  0  0  0  0  0  0  0
   19.8286   -4.0229  -14.9324 C   0  0  0  0  0  0  0  0  0  0  0  0
   19.6619   -3.3133  -13.9117 O   0  0  0  0  0  0  0  0  0  0  0  0
   19.2010   -3.6212  -16.1038 O   0  0  0  0  0  0  0  0  0  0  0  0
  2  1  1  0
  3  4  1  1
  3  2  1  0
  5  6  1  6
  5  3  1  0
  7  8  2  0
  7  5  1  0
  9  7  1  0
 10  9  1  0
 10 11  1  0
 12 13  1  0
 12 11  1  0
 13  9  1  0
 13 14  1  1
 15 14  2  0
 17 16  1  6
 18 17  1  0
 19 17  1  0
 19 20  1  6
 20 14  1  0
 21 23  1  0
 21 19  1  0
 22 21  2  0
M  END
$$$$
