IPT.pdb
     RDKit          3D

 23 23  0  0  1  0  0  0  0  0999 V2000
   24.8655  -22.5497  -18.2225 C   0  0  0  0  0  0  0  0  0  0  0  0
   25.2270  -23.2512  -16.9303 C   0  0  0  0  0  0  0  0  0  0  0  0
   25.1118  -22.2741  -15.7951 C   0  0  2  0  0  0  0  0  0  0  0  0
   26.1331  -21.1691  -15.9489 C   0  0  0  0  0  0  0  0  0  0  0  0
   25.2307  -22.9417  -14.4431 C   0  0  2  0  0  0  0  0  0  0  0  0
   25.9480  -24.1648  -14.4732 N   0  0  0  0  0  0  0  0  0  0  0  0
   23.9276  -23.0151  -13.7469 C   0  0  0  0  0  0  0  0  0  0  0  0
   23.1755  -23.9669  -14.1020 O   0  0  0  0  0  0  0  0  0  0  0  0
   23.4955  -22.0965  -12.7325 N   0  0  0  0  0  0  0  0  0  0  0  0
   24.4716  -21.2440  -12.0711 C   0  0  0  0  0  0  0  0  0  0  0  0
   23.7016  -20.5293  -10.9728 C   0  0  0  0  0  0  0  0  0  0  0  0
   22.3541  -20.4111  -11.6370 C   0  0  0  0  0  0  0  0  0  0  0  0
   22.2147  -21.8330  -12.2026 C   0  0  1  0  0  0  0  0  0  0  0  0
   21.0755  -21.8899  -13.1410 C   0  0  0  0  0  0  0  0  0  0  0  0
   21.1871  -21.3885  -14.2768 O   0  0  0  0  0  0  0  0  0  0  0  0
   18.8112  -24.9645  -14.0333 C   0  0  0  0  0  0  0  0  0  0  0  0
   17.9161  -23.8191  -13.5816 C   0  0  1  0  0  0  0  0  0  0  0  0
   17.5918  -24.0483  -12.2457 O   0  0  0  0  0  0  0  0  0  0  0  0
   18.7144  -22.5447  -13.7339 C   0  0  2  0  0  0  0  0  0  0  0  0
   19.8343  -22.4979  -12.8116 N   0  0  0  0  0  0  0  0  0  0  0  0
   17.8418  -21.3622  -13.6016 C   0  0  0  0  0  0  0  0  0  0  0  0
   16.9069  -21.1138  -14.3999 O   0  0  0  0  0  0  0  0  0  0  0  0
   18.0468  -20.4729  -12.5554 O   0  0  0  0  0  0  0  0  0  0  0  0
  2  1  1  0
  3  4  1  6
  3  2  1  0
  5  6  1  6
  5  3  1  0
  7  8  2  0
  7  5  1  0
  9  7  1  0
 10  9  1  0
 10 11  1  0
 12 13  1  0
 12 11  1  0
 13  9  1  0
 13 14  1  6
 15 14  2  0
 17 16  1  1
 18 17  1  0
 19 17  1  0
 19 20  1  1
 20 14  1  0
 21 23  1  0
 21 19  1  0
 22 21  2  0
M  END
$$$$
