IPT.pdb
     RDKit          3D

 23 23  0  0  1  0  0  0  0  0999 V2000
   25.5989  -19.6700  -20.9779 C   0  0  0  0  0  0  0  0  0  0  0  0
   26.1381  -19.4678  -19.5776 C   0  0  0  0  0  0  0  0  0  0  0  0
   25.2353  -18.5216  -18.8383 C   0  0  2  0  0  0  0  0  0  0  0  0
   25.1706  -17.1912  -19.5550 C   0  0  0  0  0  0  0  0  0  0  0  0
   25.6440  -18.3427  -17.3931 C   0  0  2  0  0  0  0  0  0  0  0  0
   25.9619  -19.5588  -16.7365 N   0  0  0  0  0  0  0  0  0  0  0  0
   24.6970  -17.4792  -16.6542 C   0  0  0  0  0  0  0  0  0  0  0  0
   23.5095  -17.9075  -16.5895 O   0  0  0  0  0  0  0  0  0  0  0  0
   25.0471  -16.2327  -16.0354 N   0  0  0  0  0  0  0  0  0  0  0  0
   26.4492  -15.8862  -15.8585 C   0  0  0  0  0  0  0  0  0  0  0  0
   26.4458  -14.5997  -15.0493 C   0  0  0  0  0  0  0  0  0  0  0  0
   25.1765  -13.9729  -15.5661 C   0  0  0  0  0  0  0  0  0  0  0  0
   24.2438  -15.1933  -15.5206 C   0  0  1  0  0  0  0  0  0  0  0  0
   22.9904  -14.8935  -16.2423 C   0  0  0  0  0  0  0  0  0  0  0  0
   22.9389  -15.0483  -17.4782 O   0  0  0  0  0  0  0  0  0  0  0  0
   18.2046  -14.3365  -16.6075 C   0  0  0  0  0  0  0  0  0  0  0  0
   19.4037  -14.8163  -15.8017 C   0  0  1  0  0  0  0  0  0  0  0  0
   19.5361  -16.1847  -16.0303 O   0  0  0  0  0  0  0  0  0  0  0  0
   20.6112  -14.0630  -16.3108 C   0  0  2  0  0  0  0  0  0  0  0  0
   21.8168  -14.4290  -15.5899 N   0  0  0  0  0  0  0  0  0  0  0  0
   20.3709  -12.6076  -16.2795 C   0  0  0  0  0  0  0  0  0  0  0  0
   20.4393  -11.9293  -15.2267 O   0  0  0  0  0  0  0  0  0  0  0  0
   20.0540  -11.9398  -17.4547 O   0  0  0  0  0  0  0  0  0  0  0  0
  2  1  1  0
  3  4  1  6
  3  2  1  0
  5  6  1  1
  5  3  1  0
  7  8  2  0
  7  5  1  0
  9  7  1  0
 10  9  1  0
 10 11  1  0
 12 13  1  0
 12 11  1  0
 13  9  1  0
 13 14  1  6
 15 14  2  0
 17 16  1  6
 18 17  1  0
 19 17  1  0
 19 20  1  1
 20 14  1  0
 21 23  1  0
 21 19  1  0
 22 21  2  0
M  END
$$$$
