IPT.pdb
     RDKit          3D

 23 23  0  0  1  0  0  0  0  0999 V2000
   21.3344  -20.7805   -9.6733 C   0  0  0  0  0  0  0  0  0  0  0  0
   22.7994  -21.1625   -9.6774 C   0  0  0  0  0  0  0  0  0  0  0  0
   23.4776  -20.4856  -10.8344 C   0  0  2  0  0  0  0  0  0  0  0  0
   22.8121  -20.8780  -12.1347 C   0  0  0  0  0  0  0  0  0  0  0  0
   24.9637  -20.7642  -10.8771 C   0  0  2  0  0  0  0  0  0  0  0  0
   25.5935  -20.6908   -9.6086 N   0  0  0  0  0  0  0  0  0  0  0  0
   25.6403  -19.9899  -11.9406 C   0  0  0  0  0  0  0  0  0  0  0  0
   25.5368  -18.7336  -11.8464 O   0  0  0  0  0  0  0  0  0  0  0  0
   26.3756  -20.5719  -13.0269 N   0  0  0  0  0  0  0  0  0  0  0  0
   26.8095  -21.9581  -12.9407 C   0  0  0  0  0  0  0  0  0  0  0  0
   27.6732  -22.1855  -14.1705 C   0  0  0  0  0  0  0  0  0  0  0  0
   26.9795  -21.2702  -15.1461 C   0  0  0  0  0  0  0  0  0  0  0  0
   26.7987  -20.0290  -14.2584 C   0  0  1  0  0  0  0  0  0  0  0  0
   25.8889  -19.0698  -14.9171 C   0  0  0  0  0  0  0  0  0  0  0  0
   24.6583  -19.2656  -14.8840 O   0  0  0  0  0  0  0  0  0  0  0  0
   24.8452  -14.6396  -16.6487 C   0  0  0  0  0  0  0  0  0  0  0  0
   25.9158  -15.5405  -16.0489 C   0  0  1  0  0  0  0  0  0  0  0  0
   26.0149  -15.2223  -14.6957 O   0  0  0  0  0  0  0  0  0  0  0  0
   25.4528  -16.9670  -16.2372 C   0  0  2  0  0  0  0  0  0  0  0  0
   26.3508  -17.9126  -15.5999 N   0  0  0  0  0  0  0  0  0  0  0  0
   25.2595  -17.2692  -17.6684 C   0  0  0  0  0  0  0  0  0  0  0  0
   26.2141  -17.3954  -18.4721 O   0  0  0  0  0  0  0  0  0  0  0  0
   23.9738  -17.4248  -18.1685 O   0  0  0  0  0  0  0  0  0  0  0  0
  2  1  1  0
  3  4  1  6
  3  2  1  0
  5  6  1  1
  5  3  1  0
  7  8  2  0
  7  5  1  0
  9  7  1  0
 10  9  1  0
 10 11  1  0
 12 13  1  0
 12 11  1  0
 13  9  1  0
 13 14  1  6
 15 14  2  0
 17 16  1  6
 18 17  1  0
 19 17  1  0
 19 20  1  6
 20 14  1  0
 21 23  1  0
 21 19  1  0
 22 21  2  0
M  END
$$$$
