IPT.pdb
     RDKit          3D

 23 23  0  0  1  0  0  0  0  0999 V2000
   27.3998  -15.8349  -16.6464 C   0  0  0  0  0  0  0  0  0  0  0  0
   27.9806  -17.1538  -16.1822 C   0  0  0  0  0  0  0  0  0  0  0  0
   26.9015  -17.9527  -15.5085 C   0  0  2  0  0  0  0  0  0  0  0  0
   26.4842  -17.2855  -14.2168 C   0  0  0  0  0  0  0  0  0  0  0  0
   27.3081  -19.3903  -15.2725 C   0  0  2  0  0  0  0  0  0  0  0  0
   27.9474  -19.9915  -16.3866 N   0  0  0  0  0  0  0  0  0  0  0  0
   26.2037  -20.1894  -14.6978 C   0  0  0  0  0  0  0  0  0  0  0  0
   25.2687  -20.4771  -15.4982 O   0  0  0  0  0  0  0  0  0  0  0  0
   26.1458  -20.6330  -13.3342 N   0  0  0  0  0  0  0  0  0  0  0  0
   27.3643  -20.6780  -12.5401 C   0  0  0  0  0  0  0  0  0  0  0  0
   26.9632  -21.3280  -11.2261 C   0  0  0  0  0  0  0  0  0  0  0  0
   25.5483  -20.8227  -11.1093 C   0  0  0  0  0  0  0  0  0  0  0  0
   25.0614  -21.0714  -12.5454 C   0  0  1  0  0  0  0  0  0  0  0  0
   23.7626  -20.4007  -12.7577 C   0  0  0  0  0  0  0  0  0  0  0  0
   23.7268  -19.1658  -12.9235 O   0  0  0  0  0  0  0  0  0  0  0  0
   20.0042  -19.4044  -14.9832 C   0  0  0  0  0  0  0  0  0  0  0  0
   21.3181  -20.1075  -14.6720 C   0  0  1  0  0  0  0  0  0  0  0  0
   22.3447  -19.2007  -14.9293 O   0  0  0  0  0  0  0  0  0  0  0  0
   21.2839  -20.4858  -13.2090 C   0  0  2  0  0  0  0  0  0  0  0  0
   22.5273  -21.1022  -12.7835 N   0  0  0  0  0  0  0  0  0  0  0  0
   20.1171  -21.3404  -12.9171 C   0  0  0  0  0  0  0  0  0  0  0  0
   20.0353  -22.5330  -13.2969 O   0  0  0  0  0  0  0  0  0  0  0  0
   19.0524  -20.8225  -12.1922 O   0  0  0  0  0  0  0  0  0  0  0  0
  2  1  1  0
  3  4  1  1
  3  2  1  0
  5  6  1  6
  5  3  1  0
  7  8  2  0
  7  5  1  0
  9  7  1  0
 10  9  1  0
 10 11  1  0
 12 13  1  0
 12 11  1  0
 13  9  1  0
 13 14  1  6
 15 14  2  0
 17 16  1  1
 18 17  1  0
 19 17  1  0
 19 20  1  6
 20 14  1  0
 21 23  1  0
 21 19  1  0
 22 21  2  0
M  END
$$$$
