IPT.pdb
     RDKit          3D

 23 23  0  0  1  0  0  0  0  0999 V2000
   29.8052  -21.2000   -9.8906 C   0  0  0  0  0  0  0  0  0  0  0  0
   28.3977  -20.6731  -10.0743 C   0  0  0  0  0  0  0  0  0  0  0  0
   28.0093  -20.8103  -11.5189 C   0  0  2  0  0  0  0  0  0  0  0  0
   29.0882  -20.2343  -12.4088 C   0  0  0  0  0  0  0  0  0  0  0  0
   26.6649  -20.1852  -11.8182 C   0  0  2  0  0  0  0  0  0  0  0  0
   25.6224  -20.6453  -10.9739 N   0  0  0  0  0  0  0  0  0  0  0  0
   26.3451  -20.2278  -13.2619 C   0  0  0  0  0  0  0  0  0  0  0  0
   25.8192  -21.3025  -13.6696 O   0  0  0  0  0  0  0  0  0  0  0  0
   26.5938  -19.1544  -14.1813 N   0  0  0  0  0  0  0  0  0  0  0  0
   26.9398  -17.8363  -13.6714 C   0  0  0  0  0  0  0  0  0  0  0  0
   26.9794  -16.9314  -14.8919 C   0  0  0  0  0  0  0  0  0  0  0  0
   27.4656  -17.9138  -15.9261 C   0  0  0  0  0  0  0  0  0  0  0  0
   26.5662  -19.1139  -15.5913 C   0  0  1  0  0  0  0  0  0  0  0  0
   27.0449  -20.3142  -16.3067 C   0  0  0  0  0  0  0  0  0  0  0  0
   28.2034  -20.7291  -16.1074 O   0  0  0  0  0  0  0  0  0  0  0  0
   26.7604  -24.6077  -18.2527 C   0  0  0  0  0  0  0  0  0  0  0  0
   26.0949  -23.4704  -17.4904 C   0  0  1  0  0  0  0  0  0  0  0  0
   26.3445  -23.6777  -16.1350 O   0  0  0  0  0  0  0  0  0  0  0  0
   26.7299  -22.1844  -17.9674 C   0  0  2  0  0  0  0  0  0  0  0  0
   26.2392  -21.0356  -17.2282 N   0  0  0  0  0  0  0  0  0  0  0  0
   26.5502  -22.0209  -19.4227 C   0  0  0  0  0  0  0  0  0  0  0  0
   25.4517  -21.7095  -19.9418 O   0  0  0  0  0  0  0  0  0  0  0  0
   27.6304  -22.2156  -20.2728 O   0  0  0  0  0  0  0  0  0  0  0  0
  2  1  1  0
  3  4  1  6
  3  2  1  0
  5  6  1  1
  5  3  1  0
  7  8  2  0
  7  5  1  0
  9  7  1  0
 10  9  1  0
 10 11  1  0
 12 13  1  0
 12 11  1  0
 13  9  1  0
 13 14  1  6
 15 14  2  0
 17 16  1  6
 18 17  1  0
 19 17  1  0
 19 20  1  1
 20 14  1  0
 21 23  1  0
 21 19  1  0
 22 21  2  0
M  END
$$$$
