IPT.pdb
     RDKit          3D

 23 23  0  0  1  0  0  0  0  0999 V2000
   25.5346  -20.5277   -8.5021 C   0  0  0  0  0  0  0  0  0  0  0  0
   26.2133  -19.6953   -9.5694 C   0  0  0  0  0  0  0  0  0  0  0  0
   25.8162  -20.2162  -10.9213 C   0  0  2  0  0  0  0  0  0  0  0  0
   26.1646  -21.6831  -11.0409 C   0  0  0  0  0  0  0  0  0  0  0  0
   26.4271  -19.4172  -12.0511 C   0  0  2  0  0  0  0  0  0  0  0  0
   26.3965  -18.0154  -11.8386 N   0  0  0  0  0  0  0  0  0  0  0  0
   25.9145  -19.8461  -13.3708 C   0  0  0  0  0  0  0  0  0  0  0  0
   24.7413  -19.4654  -13.6470 O   0  0  0  0  0  0  0  0  0  0  0  0
   26.6534  -20.6399  -14.3107 N   0  0  0  0  0  0  0  0  0  0  0  0
   28.0788  -20.8518  -14.1093 C   0  0  0  0  0  0  0  0  0  0  0  0
   28.5539  -21.5909  -15.3494 C   0  0  0  0  0  0  0  0  0  0  0  0
   27.3179  -22.3951  -15.6602 C   0  0  0  0  0  0  0  0  0  0  0  0
   26.2464  -21.3076  -15.4849 C   0  0  1  0  0  0  0  0  0  0  0  0
   24.9039  -21.9235  -15.4758 C   0  0  0  0  0  0  0  0  0  0  0  0
   24.6501  -22.8358  -14.6651 O   0  0  0  0  0  0  0  0  0  0  0  0
   21.5810  -20.3325  -14.9075 C   0  0  0  0  0  0  0  0  0  0  0  0
   21.4672  -21.0171  -16.2624 C   0  0  1  0  0  0  0  0  0  0  0  0
   21.6942  -20.0474  -17.2373 O   0  0  0  0  0  0  0  0  0  0  0  0
   22.5304  -22.0906  -16.3085 C   0  0  2  0  0  0  0  0  0  0  0  0
   23.8656  -21.5235  -16.3593 N   0  0  0  0  0  0  0  0  0  0  0  0
   22.2846  -23.0222  -17.4259 C   0  0  0  0  0  0  0  0  0  0  0  0
   23.0273  -23.0858  -18.4346 O   0  0  0  0  0  0  0  0  0  0  0  0
   21.1895  -23.8743  -17.3796 O   0  0  0  0  0  0  0  0  0  0  0  0
  2  1  1  0
  3  4  1  1
  3  2  1  0
  5  6  1  1
  5  3  1  0
  7  8  2  0
  7  5  1  0
  9  7  1  0
 10  9  1  0
 10 11  1  0
 12 13  1  0
 12 11  1  0
 13  9  1  0
 13 14  1  1
 15 14  2  0
 17 16  1  1
 18 17  1  0
 19 17  1  0
 19 20  1  6
 20 14  1  0
 21 23  1  0
 21 19  1  0
 22 21  2  0
M  END
$$$$
