IPT.pdb
     RDKit          3D

 23 23  0  0  1  0  0  0  0  0999 V2000
   22.0896  -16.1267  -16.2508 C   0  0  0  0  0  0  0  0  0  0  0  0
   22.6015  -17.4376  -16.8091 C   0  0  0  0  0  0  0  0  0  0  0  0
   24.0769  -17.5382  -16.5449 C   0  0  2  0  0  0  0  0  0  0  0  0
   24.8169  -16.4426  -17.2796 C   0  0  0  0  0  0  0  0  0  0  0  0
   24.6351  -18.9004  -16.8924 C   0  0  2  0  0  0  0  0  0  0  0  0
   23.8087  -19.6474  -17.7701 N   0  0  0  0  0  0  0  0  0  0  0  0
   25.0742  -19.6406  -15.6892 C   0  0  0  0  0  0  0  0  0  0  0  0
   24.1465  -20.1407  -14.9913 O   0  0  0  0  0  0  0  0  0  0  0  0
   26.4433  -19.8096  -15.2938 N   0  0  0  0  0  0  0  0  0  0  0  0
   27.5069  -19.5306  -16.2468 C   0  0  0  0  0  0  0  0  0  0  0  0
   28.7899  -19.9564  -15.5523 C   0  0  0  0  0  0  0  0  0  0  0  0
   28.4298  -19.6353  -14.1247 C   0  0  0  0  0  0  0  0  0  0  0  0
   27.0125  -20.2269  -14.0722 C   0  0  1  0  0  0  0  0  0  0  0  0
   26.3343  -19.7944  -12.8334 C   0  0  0  0  0  0  0  0  0  0  0  0
   26.0474  -18.5916  -12.6757 O   0  0  0  0  0  0  0  0  0  0  0  0
   24.4884  -22.4906  -10.1374 C   0  0  0  0  0  0  0  0  0  0  0  0
   24.1114  -21.0193  -10.2405 C   0  0  1  0  0  0  0  0  0  0  0  0
   23.5848  -20.6389   -9.0075 O   0  0  0  0  0  0  0  0  0  0  0  0
   25.3797  -20.2561  -10.5463 C   0  0  2  0  0  0  0  0  0  0  0  0
   25.9844  -20.6943  -11.7910 N   0  0  0  0  0  0  0  0  0  0  0  0
   26.3245  -20.3377   -9.4159 C   0  0  0  0  0  0  0  0  0  0  0  0
   27.4041  -20.9734   -9.4761 O   0  0  0  0  0  0  0  0  0  0  0  0
   26.0255  -19.6905   -8.2247 O   0  0  0  0  0  0  0  0  0  0  0  0
  2  1  1  0
  3  4  1  6
  3  2  1  0
  5  6  1  1
  5  3  1  0
  7  8  2  0
  7  5  1  0
  9  7  1  0
 10  9  1  0
 10 11  1  0
 12 13  1  0
 12 11  1  0
 13  9  1  0
 13 14  1  1
 15 14  2  0
 17 16  1  1
 18 17  1  0
 19 17  1  0
 19 20  1  6
 20 14  1  0
 21 23  1  0
 21 19  1  0
 22 21  2  0
M  END
$$$$
