GVE.pdb
     RDKit          3D

 21 20  0  0  1  0  0  0  0  0999 V2000
   12.2268  -11.8265   -9.8139 N   0  0  0  0  0  0  0  0  0  0  0  0
   13.4070  -11.2843   -9.1713 C   0  0  0  0  0  0  0  0  0  0  0  0
   13.6391   -9.9059   -9.6752 C   0  0  0  0  0  0  0  0  0  0  0  0
   12.8174   -9.3644  -10.4951 O   0  0  0  0  0  0  0  0  0  0  0  0
   13.3191   -6.8432   -8.0350 C   0  0  0  0  0  0  0  0  0  0  0  0
   14.7241   -6.7527   -8.6219 C   0  0  1  0  0  0  0  0  0  0  0  0
   15.7035   -6.7519   -7.4895 C   0  0  0  0  0  0  0  0  0  0  0  0
   14.9861   -7.7801   -9.6519 C   0  0  2  0  0  0  0  0  0  0  0  0
   14.7833   -9.1540   -9.2599 N   0  0  0  0  0  0  0  0  0  0  0  0
   16.2112   -7.5512  -10.4613 C   0  0  0  0  0  0  0  0  0  0  0  0
   17.3022   -7.9127   -9.9498 O   0  0  0  0  0  0  0  0  0  0  0  0
   16.2323   -6.9704  -11.7274 N   0  0  0  0  0  0  0  0  0  0  0  0
   17.5155   -6.7716  -12.4680 C   0  0  1  0  0  0  0  0  0  0  0  0
   17.6084   -7.8708  -13.4708 C   0  0  0  0  0  0  0  0  0  0  0  0
   18.8333   -7.7250  -14.3212 C   0  0  0  0  0  0  0  0  0  0  0  0
   18.8758   -8.7977  -15.3509 C   0  0  0  0  0  0  0  0  0  0  0  0
   18.5865   -9.9557  -15.0154 O   0  0  0  0  0  0  0  0  0  0  0  0
   17.3947   -5.4751  -13.1768 C   0  0  0  0  0  0  0  0  0  0  0  0
   18.4460   -4.6978  -13.6134 O   0  0  0  0  0  0  0  0  0  0  0  0
   19.2287   -8.4788  -16.6550 O   0  0  0  0  0  0  0  0  0  0  0  0
   16.2444   -5.0283  -13.4048 O   0  0  0  0  0  0  0  0  0  0  0  0
  2  1  1  0
  3  2  1  0
  4  3  2  0
  6  5  1  1
  6  8  1  0
  7  6  1  0
  8  9  1  1
  9  3  1  0
 10  8  1  0
 10 11  2  0
 12 10  1  0
 13 12  1  0
 13 14  1  6
 14 15  1  0
 15 16  1  0
 16 20  1  0
 17 16  2  0
 18 13  1  0
 19 18  1  0
 21 18  2  0
M  END
$$$$
