GVE.pdb
     RDKit          3D

 21 20  0  0  1  0  0  0  0  0999 V2000
   26.5512  -13.6038  -16.1052 N   0  0  0  0  0  0  0  0  0  0  0  0
   25.1713  -13.7715  -15.6958 C   0  0  0  0  0  0  0  0  0  0  0  0
   24.3515  -12.6982  -16.3154 C   0  0  0  0  0  0  0  0  0  0  0  0
   24.8996  -11.7953  -17.0400 O   0  0  0  0  0  0  0  0  0  0  0  0
   20.0133  -11.0948  -17.9994 C   0  0  0  0  0  0  0  0  0  0  0  0
   21.1013  -12.1239  -17.7096 C   0  0  1  0  0  0  0  0  0  0  0  0
   21.6749  -12.5768  -19.0163 C   0  0  0  0  0  0  0  0  0  0  0  0
   22.1063  -11.6427  -16.7383 C   0  0  2  0  0  0  0  0  0  0  0  0
   22.9357  -12.6465  -16.1164 N   0  0  0  0  0  0  0  0  0  0  0  0
   21.6186  -10.5921  -15.8074 C   0  0  0  0  0  0  0  0  0  0  0  0
   20.9806  -10.9844  -14.7966 O   0  0  0  0  0  0  0  0  0  0  0  0
   21.8155   -9.2234  -15.9776 N   0  0  0  0  0  0  0  0  0  0  0  0
   21.3714   -8.2415  -14.9416 C   0  0  1  0  0  0  0  0  0  0  0  0
   22.1307   -6.9826  -15.1883 C   0  0  0  0  0  0  0  0  0  0  0  0
   21.8245   -5.9527  -14.1440 C   0  0  0  0  0  0  0  0  0  0  0  0
   22.5485   -4.6876  -14.4406 C   0  0  0  0  0  0  0  0  0  0  0  0
   23.5319   -4.7282  -15.1946 O   0  0  0  0  0  0  0  0  0  0  0  0
   19.9298   -7.9963  -15.1861 C   0  0  0  0  0  0  0  0  0  0  0  0
   18.9851   -7.7313  -14.2181 O   0  0  0  0  0  0  0  0  0  0  0  0
   22.1056   -3.4991  -13.8767 O   0  0  0  0  0  0  0  0  0  0  0  0
   19.5141   -8.0326  -16.3696 O   0  0  0  0  0  0  0  0  0  0  0  0
  2  1  1  0
  3  2  1  0
  4  3  2  0
  6  5  1  6
  6  8  1  0
  7  6  1  0
  8  9  1  1
  9  3  1  0
 10  8  1  0
 10 11  2  0
 12 10  1  0
 13 12  1  0
 13 14  1  6
 14 15  1  0
 15 16  1  0
 16 20  1  0
 17 16  2  0
 18 13  1  0
 19 18  1  0
 21 18  2  0
M  END
$$$$
