GVE.pdb
     RDKit          3D

 21 20  0  0  1  0  0  0  0  0999 V2000
   22.4281  -13.8781  -17.4682 N   0  0  0  0  0  0  0  0  0  0  0  0
   22.3420  -12.5232  -17.9748 C   0  0  0  0  0  0  0  0  0  0  0  0
   22.7101  -11.5788  -16.8883 C   0  0  0  0  0  0  0  0  0  0  0  0
   22.0385  -11.5455  -15.7982 O   0  0  0  0  0  0  0  0  0  0  0  0
   25.9803  -10.8990  -14.9713 C   0  0  0  0  0  0  0  0  0  0  0  0
   25.4965   -9.5823  -15.5705 C   0  0  1  0  0  0  0  0  0  0  0  0
   26.4968   -9.1395  -16.5927 C   0  0  0  0  0  0  0  0  0  0  0  0
   24.1069   -9.6519  -16.0697 C   0  0  2  0  0  0  0  0  0  0  0  0
   23.8182  -10.6857  -17.0342 N   0  0  0  0  0  0  0  0  0  0  0  0
   23.4919   -8.3360  -16.3834 C   0  0  0  0  0  0  0  0  0  0  0  0
   23.6250   -7.9165  -17.5619 O   0  0  0  0  0  0  0  0  0  0  0  0
   22.7910   -7.5473  -15.4736 N   0  0  0  0  0  0  0  0  0  0  0  0
   22.2536   -6.2075  -15.8619 C   0  0  1  0  0  0  0  0  0  0  0  0
   20.7733   -6.2737  -15.6989 C   0  0  0  0  0  0  0  0  0  0  0  0
   20.1425   -4.9356  -15.9366 C   0  0  0  0  0  0  0  0  0  0  0  0
   18.6684   -5.0222  -15.7572 C   0  0  0  0  0  0  0  0  0  0  0  0
   18.0125   -5.7133  -16.5505 O   0  0  0  0  0  0  0  0  0  0  0  0
   22.8074   -5.2351  -14.8894 C   0  0  0  0  0  0  0  0  0  0  0  0
   22.9488   -3.8804  -15.1006 O   0  0  0  0  0  0  0  0  0  0  0  0
   18.0668   -4.3384  -14.7096 O   0  0  0  0  0  0  0  0  0  0  0  0
   23.1891   -5.6638  -13.7734 O   0  0  0  0  0  0  0  0  0  0  0  0
  2  1  1  0
  3  2  1  0
  4  3  2  0
  6  5  1  6
  6  8  1  0
  7  6  1  0
  8  9  1  6
  9  3  1  0
 10  8  1  0
 10 11  2  0
 12 10  1  0
 13 12  1  0
 13 14  1  1
 14 15  1  0
 15 16  1  0
 16 20  1  0
 17 16  2  0
 18 13  1  0
 19 18  1  0
 21 18  2  0
M  END
$$$$
