GVE.pdb
     RDKit          3D

 21 20  0  0  1  0  0  0  0  0999 V2000
   14.3245  -12.4958  -11.5574 N   0  0  0  0  0  0  0  0  0  0  0  0
   15.4230  -11.8093  -10.9078 C   0  0  0  0  0  0  0  0  0  0  0  0
   15.1113  -10.3580  -10.8407 C   0  0  0  0  0  0  0  0  0  0  0  0
   14.3261   -9.8196  -11.6975 O   0  0  0  0  0  0  0  0  0  0  0  0
   15.0503   -6.0202   -8.4412 C   0  0  0  0  0  0  0  0  0  0  0  0
   15.0924   -7.5450   -8.4475 C   0  0  1  0  0  0  0  0  0  0  0  0
   13.7966   -8.0496   -7.8927 C   0  0  0  0  0  0  0  0  0  0  0  0
   15.4487   -8.1067   -9.7676 C   0  0  2  0  0  0  0  0  0  0  0  0
   15.6807   -9.5299   -9.8225 N   0  0  0  0  0  0  0  0  0  0  0  0
   16.4246   -7.2991  -10.5444 C   0  0  0  0  0  0  0  0  0  0  0  0
   17.5957   -7.2366  -10.0892 O   0  0  0  0  0  0  0  0  0  0  0  0
   16.1336   -6.6157  -11.7231 N   0  0  0  0  0  0  0  0  0  0  0  0
   17.1921   -5.8657  -12.4660 C   0  0  1  0  0  0  0  0  0  0  0  0
   17.0498   -6.2316  -13.9041 C   0  0  0  0  0  0  0  0  0  0  0  0
   18.0678   -5.5240  -14.7455 C   0  0  0  0  0  0  0  0  0  0  0  0
   17.8742   -5.8624  -16.1810 C   0  0  0  0  0  0  0  0  0  0  0  0
   18.4252   -5.1558  -17.0380 O   0  0  0  0  0  0  0  0  0  0  0  0
   16.8830   -4.4255  -12.2972 C   0  0  0  0  0  0  0  0  0  0  0  0
   17.7963   -3.3953  -12.3635 O   0  0  0  0  0  0  0  0  0  0  0  0
   17.0930   -6.9570  -16.5251 O   0  0  0  0  0  0  0  0  0  0  0  0
   15.6935   -4.0965  -12.0702 O   0  0  0  0  0  0  0  0  0  0  0  0
  2  1  1  0
  3  2  1  0
  4  3  2  0
  6  5  1  6
  6  8  1  0
  7  6  1  0
  8  9  1  1
  9  3  1  0
 10  8  1  0
 10 11  2  0
 12 10  1  0
 13 12  1  0
 13 14  1  6
 14 15  1  0
 15 16  1  0
 16 20  1  0
 17 16  2  0
 18 13  1  0
 19 18  1  0
 21 18  2  0
M  END
$$$$
