GVE.pdb
     RDKit          3D

 21 20  0  0  1  0  0  0  0  0999 V2000
   28.3331  -21.6610  -16.1226 N   0  0  0  0  0  0  0  0  0  0  0  0
   28.1941  -20.8485  -14.9309 C   0  0  0  0  0  0  0  0  0  0  0  0
   26.9467  -21.2396  -14.2245 C   0  0  0  0  0  0  0  0  0  0  0  0
   26.1126  -22.0435  -14.7711 O   0  0  0  0  0  0  0  0  0  0  0  0
   26.1570  -19.8937  -10.1381 C   0  0  0  0  0  0  0  0  0  0  0  0
   25.4654  -21.0986  -10.7680 C   0  0  1  0  0  0  0  0  0  0  0  0
   24.1320  -21.2684  -10.1087 C   0  0  0  0  0  0  0  0  0  0  0  0
   25.4095  -21.0254  -12.2434 C   0  0  2  0  0  0  0  0  0  0  0  0
   26.6473  -20.7276  -12.9225 N   0  0  0  0  0  0  0  0  0  0  0  0
   24.2276  -20.3064  -12.7861 C   0  0  0  0  0  0  0  0  0  0  0  0
   24.2604  -19.0497  -12.7402 O   0  0  0  0  0  0  0  0  0  0  0  0
   23.1028  -20.9212  -13.3317 N   0  0  0  0  0  0  0  0  0  0  0  0
   21.9773  -20.1165  -13.8979 C   0  0  1  0  0  0  0  0  0  0  0  0
   21.9480  -20.3890  -15.3633 C   0  0  0  0  0  0  0  0  0  0  0  0
   21.3385  -21.7269  -15.6525 C   0  0  0  0  0  0  0  0  0  0  0  0
   21.2901  -21.9641  -17.1202 C   0  0  0  0  0  0  0  0  0  0  0  0
   21.6798  -21.0658  -17.8808 O   0  0  0  0  0  0  0  0  0  0  0  0
   20.7351  -20.6397  -13.2806 C   0  0  0  0  0  0  0  0  0  0  0  0
   19.4955  -20.0395  -13.3382 O   0  0  0  0  0  0  0  0  0  0  0  0
   20.8202  -23.1787  -17.6004 O   0  0  0  0  0  0  0  0  0  0  0  0
   20.7980  -21.7189  -12.6433 O   0  0  0  0  0  0  0  0  0  0  0  0
  2  1  1  0
  3  2  1  0
  4  3  2  0
  6  5  1  1
  6  8  1  0
  7  6  1  0
  8  9  1  1
  9  3  1  0
 10  8  1  0
 10 11  2  0
 12 10  1  0
 13 12  1  0
 13 14  1  6
 14 15  1  0
 15 16  1  0
 16 20  1  0
 17 16  2  0
 18 13  1  0
 19 18  1  0
 21 18  2  0
M  END
$$$$
