GVE.pdb
     RDKit          3D

 21 20  0  0  1  0  0  0  0  0999 V2000
   28.5207  -20.4750  -16.3596 N   0  0  0  0  0  0  0  0  0  0  0  0
   28.0603  -19.7296  -15.2054 C   0  0  0  0  0  0  0  0  0  0  0  0
   26.9365  -20.4676  -14.5728 C   0  0  0  0  0  0  0  0  0  0  0  0
   26.3133  -21.3830  -15.2165 O   0  0  0  0  0  0  0  0  0  0  0  0
   25.9118  -19.8834  -10.3408 C   0  0  0  0  0  0  0  0  0  0  0  0
   25.5863  -21.1378  -11.1453 C   0  0  1  0  0  0  0  0  0  0  0  0
   24.4009  -21.8012  -10.5157 C   0  0  0  0  0  0  0  0  0  0  0  0
   25.4378  -20.8728  -12.5920 C   0  0  2  0  0  0  0  0  0  0  0  0
   26.5236  -20.1730  -13.2351 N   0  0  0  0  0  0  0  0  0  0  0  0
   24.0863  -20.4129  -13.0046 C   0  0  0  0  0  0  0  0  0  0  0  0
   23.8527  -19.1811  -12.9021 O   0  0  0  0  0  0  0  0  0  0  0  0
   23.0761  -21.2419  -13.4876 N   0  0  0  0  0  0  0  0  0  0  0  0
   21.7755  -20.6811  -13.9660 C   0  0  1  0  0  0  0  0  0  0  0  0
   21.4386  -21.3944  -15.2309 C   0  0  0  0  0  0  0  0  0  0  0  0
   20.1845  -20.8481  -15.8423 C   0  0  0  0  0  0  0  0  0  0  0  0
   19.8683  -21.5725  -17.1025 C   0  0  0  0  0  0  0  0  0  0  0  0
   20.5403  -22.5715  -17.3987 O   0  0  0  0  0  0  0  0  0  0  0  0
   20.7672  -21.0194  -12.9330 C   0  0  0  0  0  0  0  0  0  0  0  0
   19.6256  -20.2973  -12.6586 O   0  0  0  0  0  0  0  0  0  0  0  0
   18.8316  -21.1211  -17.9078 O   0  0  0  0  0  0  0  0  0  0  0  0
   20.9533  -22.0460  -12.2357 O   0  0  0  0  0  0  0  0  0  0  0  0
  2  1  1  0
  3  2  1  0
  4  3  2  0
  6  5  1  1
  6  8  1  0
  7  6  1  0
  8  9  1  1
  9  3  1  0
 10  8  1  0
 10 11  2  0
 12 10  1  0
 13 12  1  0
 13 14  1  6
 14 15  1  0
 15 16  1  0
 16 20  1  0
 17 16  2  0
 18 13  1  0
 19 18  1  0
 21 18  2  0
M  END
$$$$
