GVE.pdb
     RDKit          3D

 21 20  0  0  1  0  0  0  0  0999 V2000
   15.0207  -11.3342   -9.7661 N   0  0  0  0  0  0  0  0  0  0  0  0
   15.7238  -10.0674   -9.7916 C   0  0  0  0  0  0  0  0  0  0  0  0
   16.2478   -9.8352  -11.1625 C   0  0  0  0  0  0  0  0  0  0  0  0
   16.1209  -10.7309  -12.0693 O   0  0  0  0  0  0  0  0  0  0  0  0
   15.0870   -8.9746  -13.8878 C   0  0  0  0  0  0  0  0  0  0  0  0
   16.1511   -7.8897  -13.7559 C   0  0  1  0  0  0  0  0  0  0  0  0
   15.4696   -6.6114  -13.3775 C   0  0  0  0  0  0  0  0  0  0  0  0
   17.2606   -8.2761  -12.8587 C   0  0  2  0  0  0  0  0  0  0  0  0
   16.9062   -8.6109  -11.5006 N   0  0  0  0  0  0  0  0  0  0  0  0
   18.4810   -7.4372  -12.9817 C   0  0  0  0  0  0  0  0  0  0  0  0
   18.7255   -6.6523  -12.0295 O   0  0  0  0  0  0  0  0  0  0  0  0
   19.3572   -7.4598  -14.0646 N   0  0  0  0  0  0  0  0  0  0  0  0
   20.5750   -6.5933  -14.0947 C   0  0  1  0  0  0  0  0  0  0  0  0
   21.3556   -6.9899  -15.3012 C   0  0  0  0  0  0  0  0  0  0  0  0
   22.5982   -6.1638  -15.4371 C   0  0  0  0  0  0  0  0  0  0  0  0
   23.3983   -6.6253  -16.6032 C   0  0  0  0  0  0  0  0  0  0  0  0
   23.5768   -5.8433  -17.5486 O   0  0  0  0  0  0  0  0  0  0  0  0
   20.0952   -5.2004  -14.2615 C   0  0  0  0  0  0  0  0  0  0  0  0
   20.6888   -4.0773  -13.7265 O   0  0  0  0  0  0  0  0  0  0  0  0
   23.9284   -7.9082  -16.6027 O   0  0  0  0  0  0  0  0  0  0  0  0
   19.0587   -5.0073  -14.9421 O   0  0  0  0  0  0  0  0  0  0  0  0
  2  1  1  0
  3  2  1  0
  4  3  2  0
  6  5  1  1
  6  8  1  0
  7  6  1  0
  8  9  1  1
  9  3  1  0
 10  8  1  0
 10 11  2  0
 12 10  1  0
 13 12  1  0
 13 14  1  6
 14 15  1  0
 15 16  1  0
 16 20  1  0
 17 16  2  0
 18 13  1  0
 19 18  1  0
 21 18  2  0
M  END
$$$$
