GVE.pdb
     RDKit          3D

 21 20  0  0  1  0  0  0  0  0999 V2000
   16.0935  -18.2221    2.6300 N   0  0  0  0  0  0  0  0  0  0  0  0
   15.7394  -16.8578    2.9664 C   0  0  0  0  0  0  0  0  0  0  0  0
   16.7077  -16.3423    3.9686 C   0  0  0  0  0  0  0  0  0  0  0  0
   17.5799  -17.1203    4.4927 O   0  0  0  0  0  0  0  0  0  0  0  0
   19.0527  -12.5419    6.1522 C   0  0  0  0  0  0  0  0  0  0  0  0
   18.0467  -13.0252    5.1124 C   0  0  1  0  0  0  0  0  0  0  0  0
   18.6059  -12.7379    3.7536 C   0  0  0  0  0  0  0  0  0  0  0  0
   17.6364  -14.4306    5.3165 C   0  0  2  0  0  0  0  0  0  0  0  0
   16.6876  -14.9699    4.3725 N   0  0  0  0  0  0  0  0  0  0  0  0
   17.3681  -14.8013    6.7303 C   0  0  0  0  0  0  0  0  0  0  0  0
   16.2227  -14.5345    7.1770 O   0  0  0  0  0  0  0  0  0  0  0  0
   18.2862  -15.4126    7.5814 N   0  0  0  0  0  0  0  0  0  0  0  0
   17.9028  -15.8290    8.9650 C   0  0  1  0  0  0  0  0  0  0  0  0
   18.4219  -17.2132    9.1573 C   0  0  0  0  0  0  0  0  0  0  0  0
   18.1029  -17.7248   10.5289 C   0  0  0  0  0  0  0  0  0  0  0  0
   18.7465  -19.0480   10.7474 C   0  0  0  0  0  0  0  0  0  0  0  0
   19.4362  -19.5312    9.8374 O   0  0  0  0  0  0  0  0  0  0  0  0
   18.6094  -14.9113    9.8906 C   0  0  0  0  0  0  0  0  0  0  0  0
   18.2685  -14.6781   11.2056 O   0  0  0  0  0  0  0  0  0  0  0  0
   18.5672  -19.7029   11.9581 O   0  0  0  0  0  0  0  0  0  0  0  0
   19.6037  -14.2806    9.4567 O   0  0  0  0  0  0  0  0  0  0  0  0
  2  1  1  0
  3  2  1  0
  4  3  2  0
  6  5  1  1
  6  8  1  0
  7  6  1  0
  8  9  1  6
  9  3  1  0
 10  8  1  0
 10 11  2  0
 12 10  1  0
 13 12  1  0
 13 14  1  1
 14 15  1  0
 15 16  1  0
 16 20  1  0
 17 16  2  0
 18 13  1  0
 19 18  1  0
 21 18  2  0
M  END
$$$$
