GVE.pdb
     RDKit          3D

 21 20  0  0  1  0  0  0  0  0999 V2000
   26.6433  -12.5123  -16.6246 N   0  0  0  0  0  0  0  0  0  0  0  0
   25.9631  -11.8809  -15.5117 C   0  0  0  0  0  0  0  0  0  0  0  0
   24.8640  -11.0312  -16.0389 C   0  0  0  0  0  0  0  0  0  0  0  0
   24.7557  -10.8111  -17.2961 O   0  0  0  0  0  0  0  0  0  0  0  0
   21.4588  -11.5480  -16.4310 C   0  0  0  0  0  0  0  0  0  0  0  0
   21.4845  -10.2219  -15.6776 C   0  0  1  0  0  0  0  0  0  0  0  0
   20.8660  -10.4383  -14.3314 C   0  0  0  0  0  0  0  0  0  0  0  0
   22.8281   -9.6070  -15.6380 C   0  0  2  0  0  0  0  0  0  0  0  0
   23.9050  -10.4388  -15.1578 N   0  0  0  0  0  0  0  0  0  0  0  0
   22.8592   -8.2126  -15.1253 C   0  0  0  0  0  0  0  0  0  0  0  0
   23.2361   -8.0562  -13.9353 O   0  0  0  0  0  0  0  0  0  0  0  0
   22.5024   -7.0851  -15.8618 N   0  0  0  0  0  0  0  0  0  0  0  0
   22.6005   -5.7133  -15.2759 C   0  0  1  0  0  0  0  0  0  0  0  0
   22.2727   -4.7540  -16.3689 C   0  0  0  0  0  0  0  0  0  0  0  0
   22.4455   -3.3368  -15.9146 C   0  0  0  0  0  0  0  0  0  0  0  0
   22.0902   -2.3975  -17.0120 C   0  0  0  0  0  0  0  0  0  0  0  0
   21.2900   -1.4807  -16.7741 O   0  0  0  0  0  0  0  0  0  0  0  0
   21.5573   -5.6297  -14.2258 C   0  0  0  0  0  0  0  0  0  0  0  0
   21.6802   -4.9678  -13.0229 O   0  0  0  0  0  0  0  0  0  0  0  0
   22.6636   -2.5633  -18.2652 O   0  0  0  0  0  0  0  0  0  0  0  0
   20.4624   -6.2080  -14.4295 O   0  0  0  0  0  0  0  0  0  0  0  0
  2  1  1  0
  3  2  1  0
  4  3  2  0
  6  5  1  1
  6  8  1  0
  7  6  1  0
  8  9  1  1
  9  3  1  0
 10  8  1  0
 10 11  2  0
 12 10  1  0
 13 12  1  0
 13 14  1  6
 14 15  1  0
 15 16  1  0
 16 20  1  0
 17 16  2  0
 18 13  1  0
 19 18  1  0
 21 18  2  0
M  END
$$$$
