GVE.pdb
     RDKit          3D

 21 20  0  0  1  0  0  0  0  0999 V2000
   26.6641  -21.7834  -12.0507 N   0  0  0  0  0  0  0  0  0  0  0  0
   26.6063  -21.4410  -13.4575 C   0  0  0  0  0  0  0  0  0  0  0  0
   25.7650  -20.2275  -13.6234 C   0  0  0  0  0  0  0  0  0  0  0  0
   25.0520  -19.7909  -12.6530 O   0  0  0  0  0  0  0  0  0  0  0  0
   27.0034  -16.8130  -14.7009 C   0  0  0  0  0  0  0  0  0  0  0  0
   25.7722  -17.1304  -15.5437 C   0  0  1  0  0  0  0  0  0  0  0  0
   26.2054  -17.2635  -16.9706 C   0  0  0  0  0  0  0  0  0  0  0  0
   25.0043  -18.2848  -15.0309 C   0  0  2  0  0  0  0  0  0  0  0  0
   25.7296  -19.5215  -14.8672 N   0  0  0  0  0  0  0  0  0  0  0  0
   23.6514  -18.4450  -15.6244 C   0  0  0  0  0  0  0  0  0  0  0  0
   23.5509  -19.2370  -16.5966 O   0  0  0  0  0  0  0  0  0  0  0  0
   22.5056  -17.7856  -15.1847 N   0  0  0  0  0  0  0  0  0  0  0  0
   21.1610  -18.1035  -15.7553 C   0  0  1  0  0  0  0  0  0  0  0  0
   20.2359  -18.2869  -14.6008 C   0  0  0  0  0  0  0  0  0  0  0  0
   18.8249  -18.4842  -15.0643 C   0  0  0  0  0  0  0  0  0  0  0  0
   17.9059  -18.5629  -13.8973 C   0  0  0  0  0  0  0  0  0  0  0  0
   18.3859  -18.7891  -12.7767 O   0  0  0  0  0  0  0  0  0  0  0  0
   20.7415  -16.9115  -16.5306 C   0  0  0  0  0  0  0  0  0  0  0  0
   19.8169  -16.9033  -17.5529 O   0  0  0  0  0  0  0  0  0  0  0  0
   16.5436  -18.3758  -14.0871 O   0  0  0  0  0  0  0  0  0  0  0  0
   21.2646  -15.8061  -16.2490 O   0  0  0  0  0  0  0  0  0  0  0  0
  2  1  1  0
  3  2  1  0
  4  3  2  0
  6  5  1  1
  6  8  1  0
  7  6  1  0
  8  9  1  6
  9  3  1  0
 10  8  1  0
 10 11  2  0
 12 10  1  0
 13 12  1  0
 13 14  1  1
 14 15  1  0
 15 16  1  0
 16 20  1  0
 17 16  2  0
 18 13  1  0
 19 18  1  0
 21 18  2  0
M  END
$$$$
