GVE.pdb
     RDKit          3D

 21 20  0  0  1  0  0  0  0  0999 V2000
   18.9845  -12.3122  -18.1073 N   0  0  0  0  0  0  0  0  0  0  0  0
   19.6630  -11.0532  -18.3403 C   0  0  0  0  0  0  0  0  0  0  0  0
   19.8189  -10.3433  -17.0443 C   0  0  0  0  0  0  0  0  0  0  0  0
   18.7909   -9.9669  -16.3794 O   0  0  0  0  0  0  0  0  0  0  0  0
   23.5706  -10.3389  -14.7773 C   0  0  0  0  0  0  0  0  0  0  0  0
   22.1624  -10.0694  -14.2567 C   0  0  1  0  0  0  0  0  0  0  0  0
   22.2785   -9.3526  -12.9473 C   0  0  0  0  0  0  0  0  0  0  0  0
   21.3013   -9.3901  -15.2477 C   0  0  2  0  0  0  0  0  0  0  0  0
   21.1165  -10.0623  -16.5111 N   0  0  0  0  0  0  0  0  0  0  0  0
   21.5215   -7.9250  -15.3628 C   0  0  0  0  0  0  0  0  0  0  0  0
   22.4283   -7.5499  -16.1499 O   0  0  0  0  0  0  0  0  0  0  0  0
   20.8040   -6.9547  -14.6667 N   0  0  0  0  0  0  0  0  0  0  0  0
   21.1210   -5.5012  -14.8143 C   0  0  1  0  0  0  0  0  0  0  0  0
   19.8179   -4.7779  -14.8485 C   0  0  0  0  0  0  0  0  0  0  0  0
   20.0238   -3.2944  -14.8911 C   0  0  0  0  0  0  0  0  0  0  0  0
   18.7141   -2.5912  -14.8371 C   0  0  0  0  0  0  0  0  0  0  0  0
   18.3688   -2.0583  -13.7722 O   0  0  0  0  0  0  0  0  0  0  0  0
   21.8643   -5.1076  -13.5934 C   0  0  0  0  0  0  0  0  0  0  0  0
   21.8513   -5.7840  -12.3925 O   0  0  0  0  0  0  0  0  0  0  0  0
   17.9182   -2.5419  -15.9733 O   0  0  0  0  0  0  0  0  0  0  0  0
   22.5687   -4.0699  -13.6362 O   0  0  0  0  0  0  0  0  0  0  0  0
  2  1  1  0
  3  2  1  0
  4  3  2  0
  6  5  1  6
  6  8  1  0
  7  6  1  0
  8  9  1  6
  9  3  1  0
 10  8  1  0
 10 11  2  0
 12 10  1  0
 13 12  1  0
 13 14  1  1
 14 15  1  0
 15 16  1  0
 16 20  1  0
 17 16  2  0
 18 13  1  0
 19 18  1  0
 21 18  2  0
M  END
$$$$
