GVE.pdb
     RDKit          3D

 21 20  0  0  1  0  0  0  0  0999 V2000
   16.4374  -11.6460  -12.4504 N   0  0  0  0  0  0  0  0  0  0  0  0
   17.1018  -10.6396  -11.6470 C   0  0  0  0  0  0  0  0  0  0  0  0
   16.1666   -9.5064  -11.4250 C   0  0  0  0  0  0  0  0  0  0  0  0
   15.2767   -9.2147  -12.2988 O   0  0  0  0  0  0  0  0  0  0  0  0
   13.7196   -8.8517   -8.6686 C   0  0  0  0  0  0  0  0  0  0  0  0
   14.5543   -7.5819   -8.8020 C   0  0  1  0  0  0  0  0  0  0  0  0
   15.3168   -7.3889   -7.5281 C   0  0  0  0  0  0  0  0  0  0  0  0
   15.3916   -7.5674  -10.0202 C   0  0  2  0  0  0  0  0  0  0  0  0
   16.2389   -8.7155  -10.2350 N   0  0  0  0  0  0  0  0  0  0  0  0
   16.0444   -6.2645  -10.3109 C   0  0  0  0  0  0  0  0  0  0  0  0
   17.2195   -6.1143   -9.8877 O   0  0  0  0  0  0  0  0  0  0  0  0
   15.4507   -5.2142  -11.0076 N   0  0  0  0  0  0  0  0  0  0  0  0
   16.1931   -3.9450  -11.2771 C   0  0  1  0  0  0  0  0  0  0  0  0
   16.0152   -3.6416  -12.7257 C   0  0  0  0  0  0  0  0  0  0  0  0
   16.6727   -2.3459  -13.0917 C   0  0  0  0  0  0  0  0  0  0  0  0
   16.4946   -2.0701  -14.5426 C   0  0  0  0  0  0  0  0  0  0  0  0
   16.0934   -0.9495  -14.8899 O   0  0  0  0  0  0  0  0  0  0  0  0
   15.5282   -2.8911  -10.4738 C   0  0  0  0  0  0  0  0  0  0  0  0
   16.0971   -1.6959  -10.0892 O   0  0  0  0  0  0  0  0  0  0  0  0
   16.7862   -3.0634  -15.4673 O   0  0  0  0  0  0  0  0  0  0  0  0
   14.3467   -3.0872  -10.0991 O   0  0  0  0  0  0  0  0  0  0  0  0
  2  1  1  0
  3  2  1  0
  4  3  2  0
  6  5  1  1
  6  8  1  0
  7  6  1  0
  8  9  1  1
  9  3  1  0
 10  8  1  0
 10 11  2  0
 12 10  1  0
 13 12  1  0
 13 14  1  6
 14 15  1  0
 15 16  1  0
 16 20  1  0
 17 16  2  0
 18 13  1  0
 19 18  1  0
 21 18  2  0
M  END
$$$$
