GVE.pdb
     RDKit          3D

 21 20  0  0  1  0  0  0  0  0999 V2000
   20.2335  -21.7589  -15.1093 N   0  0  0  0  0  0  0  0  0  0  0  0
   19.9743  -20.8542  -14.0075 C   0  0  0  0  0  0  0  0  0  0  0  0
   20.2987  -21.5439  -12.7319 C   0  0  0  0  0  0  0  0  0  0  0  0
   20.2362  -22.8203  -12.6467 O   0  0  0  0  0  0  0  0  0  0  0  0
   21.4017  -19.2953   -9.0770 C   0  0  0  0  0  0  0  0  0  0  0  0
   21.7794  -20.7493   -9.3411 C   0  0  1  0  0  0  0  0  0  0  0  0
   21.9259  -21.4404   -8.0210 C   0  0  0  0  0  0  0  0  0  0  0  0
   20.8588  -21.4228  -10.2813 C   0  0  2  0  0  0  0  0  0  0  0  0
   20.6852  -20.8010  -11.5719 N   0  0  0  0  0  0  0  0  0  0  0  0
   19.5993  -21.9205   -9.6696 C   0  0  0  0  0  0  0  0  0  0  0  0
   18.5919  -21.1728   -9.7625 O   0  0  0  0  0  0  0  0  0  0  0  0
   19.4623  -23.1392   -9.0086 N   0  0  0  0  0  0  0  0  0  0  0  0
   18.1624  -23.5448   -8.3917 C   0  0  1  0  0  0  0  0  0  0  0  0
   17.6690  -24.7217   -9.1624 C   0  0  0  0  0  0  0  0  0  0  0  0
   16.3444  -25.1915   -8.6431 C   0  0  0  0  0  0  0  0  0  0  0  0
   15.3020  -25.0582   -9.6959 C   0  0  0  0  0  0  0  0  0  0  0  0
   15.2647  -25.8997  -10.6056 O   0  0  0  0  0  0  0  0  0  0  0  0
   18.4696  -23.9658   -7.0038 C   0  0  0  0  0  0  0  0  0  0  0  0
   17.5609  -24.0501   -5.9707 O   0  0  0  0  0  0  0  0  0  0  0  0
   14.3977  -24.0070   -9.6321 O   0  0  0  0  0  0  0  0  0  0  0  0
   19.6541  -24.2724   -6.7250 O   0  0  0  0  0  0  0  0  0  0  0  0
  2  1  1  0
  3  2  1  0
  4  3  2  0
  6  5  1  1
  6  8  1  0
  7  6  1  0
  8  9  1  6
  9  3  1  0
 10  8  1  0
 10 11  2  0
 12 10  1  0
 13 12  1  0
 13 14  1  6
 14 15  1  0
 15 16  1  0
 16 20  1  0
 17 16  2  0
 18 13  1  0
 19 18  1  0
 21 18  2  0
M  END
$$$$
