GVE.pdb
     RDKit          3D

 21 20  0  0  1  0  0  0  0  0999 V2000
   28.5706  -21.2698  -15.6167 N   0  0  0  0  0  0  0  0  0  0  0  0
   27.9177  -20.2847  -14.7782 C   0  0  0  0  0  0  0  0  0  0  0  0
   26.7421  -20.9140  -14.1225 C   0  0  0  0  0  0  0  0  0  0  0  0
   26.1978  -21.9593  -14.6242 O   0  0  0  0  0  0  0  0  0  0  0  0
   26.6067  -21.6926  -10.3620 C   0  0  0  0  0  0  0  0  0  0  0  0
   25.2372  -21.1550  -10.7647 C   0  0  1  0  0  0  0  0  0  0  0  0
   24.9737  -19.9108   -9.9745 C   0  0  0  0  0  0  0  0  0  0  0  0
   25.0892  -20.9900  -12.2262 C   0  0  2  0  0  0  0  0  0  0  0  0
   26.1906  -20.3680  -12.9206 N   0  0  0  0  0  0  0  0  0  0  0  0
   23.7488  -20.5240  -12.6671 C   0  0  0  0  0  0  0  0  0  0  0  0
   23.6104  -19.2860  -12.8427 O   0  0  0  0  0  0  0  0  0  0  0  0
   22.6520  -21.3528  -12.8932 N   0  0  0  0  0  0  0  0  0  0  0  0
   21.3499  -20.8009  -13.3775 C   0  0  1  0  0  0  0  0  0  0  0  0
   20.7311  -21.8498  -14.2373 C   0  0  0  0  0  0  0  0  0  0  0  0
   19.3766  -21.4258  -14.7174 C   0  0  0  0  0  0  0  0  0  0  0  0
   18.7653  -22.4986  -15.5469 C   0  0  0  0  0  0  0  0  0  0  0  0
   19.4289  -23.5192  -15.7821 O   0  0  0  0  0  0  0  0  0  0  0  0
   20.5069  -20.5973  -12.1751 C   0  0  0  0  0  0  0  0  0  0  0  0
   19.5170  -19.6477  -12.0400 O   0  0  0  0  0  0  0  0  0  0  0  0
   17.4737  -22.3368  -16.0289 O   0  0  0  0  0  0  0  0  0  0  0  0
   20.6986  -21.3415  -11.1830 O   0  0  0  0  0  0  0  0  0  0  0  0
  2  1  1  0
  3  2  1  0
  4  3  2  0
  6  5  1  6
  6  8  1  0
  7  6  1  0
  8  9  1  1
  9  3  1  0
 10  8  1  0
 10 11  2  0
 12 10  1  0
 13 12  1  0
 13 14  1  6
 14 15  1  0
 15 16  1  0
 16 20  1  0
 17 16  2  0
 18 13  1  0
 19 18  1  0
 21 18  2  0
M  END
$$$$
