VMW.pdb
     RDKit          3D

 30 31  0  0  1  0  0  0  0  0999 V2000
   21.6402  -17.4365  -16.2234 C   0  0  0  0  0  0  0  0  0  0  0  0
   22.5422  -18.5929  -15.9192 C   0  0  1  0  0  0  0  0  0  0  0  0
   21.7319  -19.8796  -15.9708 C   0  0  0  0  0  0  0  0  0  0  0  0
   23.6671  -18.6253  -16.9391 C   0  0  2  0  0  0  0  0  0  0  0  0
   23.1617  -18.9199  -18.2678 N   0  0  0  0  0  0  0  0  0  0  0  0
   24.5683  -19.7253  -16.5554 C   0  0  0  0  0  0  0  0  0  0  0  0
   24.4260  -20.8758  -17.0468 O   0  0  0  0  0  0  0  0  0  0  0  0
   29.9405  -17.5269  -15.9062 C   0  0  0  0  0  0  0  0  0  0  0  0
   29.8644  -18.9103  -17.0676 S   0  0  0  0  0  0  0  0  0  0  0  0
   28.2509  -19.7181  -16.8953 C   0  0  0  0  0  0  0  0  0  0  0  0
   28.0057  -20.0907  -15.4465 C   0  0  0  0  0  0  0  0  0  0  0  0
   26.5831  -20.6126  -15.3365 C   0  0  2  0  0  0  0  0  0  0  0  0
   25.6365  -19.5541  -15.6215 N   0  0  0  0  0  0  0  0  0  0  0  0
   26.3315  -21.1966  -13.9939 C   0  0  0  0  0  0  0  0  0  0  0  0
   26.9631  -22.2364  -13.6272 O   0  0  0  0  0  0  0  0  0  0  0  0
   25.3800  -20.5660  -13.1514 N   0  0  0  0  0  0  0  0  0  0  0  0
   25.0778  -21.0740  -11.8325 C   0  0  1  0  0  0  0  0  0  0  0  0
   25.6245  -20.1131  -10.8001 C   0  0  0  0  0  0  0  0  0  0  0  0
   26.9448  -20.5129  -10.2956 C   0  0  0  0  0  0  0  0  0  0  0  0
   27.9246  -21.2263  -10.9710 C   0  0  0  0  0  0  0  0  0  0  0  0
   28.9684  -21.3739  -10.1450 N   0  0  0  0  0  0  0  0  0  0  0  0
   28.7453  -20.8025   -8.9594 C   0  0  0  0  0  0  0  0  0  0  0  0
   29.4970  -20.6887   -7.8112 C   0  0  0  0  0  0  0  0  0  0  0  0
   28.9664  -20.0195   -6.7336 C   0  0  0  0  0  0  0  0  0  0  0  0
   27.7017  -19.4818   -6.8286 C   0  0  0  0  0  0  0  0  0  0  0  0
   26.9436  -19.5908   -7.9721 C   0  0  0  0  0  0  0  0  0  0  0  0
   27.4697  -20.2565   -9.0459 C   0  0  0  0  0  0  0  0  0  0  0  0
   23.6146  -21.2687  -11.6904 C   0  0  0  0  0  0  0  0  0  0  0  0
   22.8599  -20.9483  -12.6417 O   0  0  0  0  0  0  0  0  0  0  0  0
   23.0922  -21.7948  -10.5272 O   0  0  0  0  0  0  0  0  0  0  0  0
  2  1  1  6
  3  2  1  0
  4  6  1  0
  4  2  1  0
  4  5  1  6
  6  7  2  0
  9  8  1  0
 10  9  1  0
 11 10  1  0
 12 11  1  1
 12 14  1  0
 13 12  1  0
 13  6  1  0
 14 15  2  0
 16 14  1  0
 16 17  1  0
 17 28  1  0
 17 18  1  1
 19 27  1  0
 19 18  1  0
 20 19  2  0
 21 20  1  0
 21 22  1  0
 22 27  2  0
 23 22  1  0
 23 24  2  0
 24 25  1  0
 25 26  2  0
 27 26  1  0
 28 29  2  0
 28 30  1  0
M  END
$$$$
