VMW.pdb
     RDKit          3D

 30 31  0  0  1  0  0  0  0  0999 V2000
   27.3846  -15.4075  -16.7728 C   0  0  0  0  0  0  0  0  0  0  0  0
   26.5037  -16.3114  -15.9662 C   0  0  1  0  0  0  0  0  0  0  0  0
   25.8641  -17.3350  -16.8925 C   0  0  0  0  0  0  0  0  0  0  0  0
   27.3414  -16.9992  -14.9023 C   0  0  2  0  0  0  0  0  0  0  0  0
   28.3405  -17.8660  -15.5010 N   0  0  0  0  0  0  0  0  0  0  0  0
   26.4312  -17.8506  -14.1175 C   0  0  0  0  0  0  0  0  0  0  0  0
   25.4179  -17.3610  -13.5526 O   0  0  0  0  0  0  0  0  0  0  0  0
   25.7369  -24.5609  -14.2320 C   0  0  0  0  0  0  0  0  0  0  0  0
   24.1316  -23.7746  -13.9615 S   0  0  0  0  0  0  0  0  0  0  0  0
   24.4056  -22.1571  -13.1906 C   0  0  0  0  0  0  0  0  0  0  0  0
   25.4825  -21.3974  -13.9397 C   0  0  0  0  0  0  0  0  0  0  0  0
   25.7185  -20.0865  -13.2091 C   0  0  2  0  0  0  0  0  0  0  0  0
   26.6405  -19.2549  -13.9549 N   0  0  0  0  0  0  0  0  0  0  0  0
   26.2217  -20.3265  -11.8320 C   0  0  0  0  0  0  0  0  0  0  0  0
   27.4726  -20.3680  -11.6132 O   0  0  0  0  0  0  0  0  0  0  0  0
   25.2758  -20.5046  -10.7896 N   0  0  0  0  0  0  0  0  0  0  0  0
   25.6768  -20.9022   -9.4592 C   0  0  1  0  0  0  0  0  0  0  0  0
   26.2411  -19.6987   -8.7372 C   0  0  0  0  0  0  0  0  0  0  0  0
   26.5830  -19.9854   -7.3377 C   0  0  0  0  0  0  0  0  0  0  0  0
   25.8673  -20.7613   -6.4370 C   0  0  0  0  0  0  0  0  0  0  0  0
   26.5313  -20.7583   -5.2740 N   0  0  0  0  0  0  0  0  0  0  0  0
   27.6466  -20.0280   -5.3432 C   0  0  0  0  0  0  0  0  0  0  0  0
   28.6360  -19.7293   -4.4331 C   0  0  0  0  0  0  0  0  0  0  0  0
   29.6810  -18.9276   -4.8275 C   0  0  0  0  0  0  0  0  0  0  0  0
   29.7125  -18.4450   -6.1175 C   0  0  0  0  0  0  0  0  0  0  0  0
   28.7281  -18.7385   -7.0333 C   0  0  0  0  0  0  0  0  0  0  0  0
   27.6869  -19.5363   -6.6430 C   0  0  0  0  0  0  0  0  0  0  0  0
   24.5215  -21.4906   -8.7393 C   0  0  0  0  0  0  0  0  0  0  0  0
   23.4210  -20.8858   -8.7516 O   0  0  0  0  0  0  0  0  0  0  0  0
   24.6571  -22.6867   -8.0657 O   0  0  0  0  0  0  0  0  0  0  0  0
  2  1  1  6
  3  2  1  0
  4  6  1  0
  4  2  1  0
  4  5  1  6
  6  7  2  0
  9  8  1  0
 10  9  1  0
 11 10  1  0
 12 11  1  6
 12 14  1  0
 13 12  1  0
 13  6  1  0
 14 15  2  0
 16 14  1  0
 16 17  1  0
 17 28  1  0
 17 18  1  1
 19 27  1  0
 19 18  1  0
 20 19  2  0
 21 20  1  0
 21 22  1  0
 22 27  2  0
 23 22  1  0
 23 24  2  0
 24 25  1  0
 25 26  2  0
 27 26  1  0
 28 29  2  0
 28 30  1  0
M  END
$$$$
