VMW.pdb
     RDKit          3D

 30 31  0  0  1  0  0  0  0  0999 V2000
   25.1865  -19.1155  -14.4727 C   0  0  0  0  0  0  0  0  0  0  0  0
   25.4118  -20.0537  -15.6184 C   0  0  1  0  0  0  0  0  0  0  0  0
   25.0276  -19.3545  -16.9138 C   0  0  0  0  0  0  0  0  0  0  0  0
   26.8740  -20.4638  -15.6425 C   0  0  2  0  0  0  0  0  0  0  0  0
   27.1299  -21.4308  -16.6948 N   0  0  0  0  0  0  0  0  0  0  0  0
   27.1603  -21.1236  -14.3571 C   0  0  0  0  0  0  0  0  0  0  0  0
   26.6631  -22.2481  -14.0855 O   0  0  0  0  0  0  0  0  0  0  0  0
   32.7218  -22.2780  -10.7458 C   0  0  0  0  0  0  0  0  0  0  0  0
   31.5828  -21.3181   -9.7212 S   0  0  0  0  0  0  0  0  0  0  0  0
   29.8941  -21.6058  -10.3136 C   0  0  0  0  0  0  0  0  0  0  0  0
   29.6500  -20.8295  -11.5926 C   0  0  0  0  0  0  0  0  0  0  0  0
   28.2626  -21.1899  -12.0960 C   0  0  2  0  0  0  0  0  0  0  0  0
   28.0030  -20.5376  -13.3628 N   0  0  0  0  0  0  0  0  0  0  0  0
   27.2230  -20.8323  -11.0968 C   0  0  0  0  0  0  0  0  0  0  0  0
   26.6728  -19.6878  -11.1374 O   0  0  0  0  0  0  0  0  0  0  0  0
   26.8725  -21.7939  -10.1143 N   0  0  0  0  0  0  0  0  0  0  0  0
   25.7796  -21.5766   -9.1939 C   0  0  1  0  0  0  0  0  0  0  0  0
   26.2904  -21.7389   -7.7794 C   0  0  0  0  0  0  0  0  0  0  0  0
   26.8315  -20.4910   -7.2247 C   0  0  0  0  0  0  0  0  0  0  0  0
   26.6792  -19.2080   -7.7305 C   0  0  0  0  0  0  0  0  0  0  0  0
   27.3329  -18.3664   -6.9194 N   0  0  0  0  0  0  0  0  0  0  0  0
   27.9122  -19.0091   -5.9030 C   0  0  0  0  0  0  0  0  0  0  0  0
   28.6746  -18.5913   -4.8349 C   0  0  0  0  0  0  0  0  0  0  0  0
   29.1322  -19.5283   -3.9388 C   0  0  0  0  0  0  0  0  0  0  0  0
   28.8183  -20.8559   -4.1304 C   0  0  0  0  0  0  0  0  0  0  0  0
   28.0571  -21.2822   -5.1948 C   0  0  0  0  0  0  0  0  0  0  0  0
   27.6006  -20.3513   -6.0881 C   0  0  0  0  0  0  0  0  0  0  0  0
   25.1887  -20.2355   -9.4206 C   0  0  0  0  0  0  0  0  0  0  0  0
   24.0090  -20.0165   -9.0499 O   0  0  0  0  0  0  0  0  0  0  0  0
   25.9276  -19.2436  -10.0313 O   0  0  0  0  0  0  0  0  0  0  0  0
  2  1  1  1
  3  2  1  0
  4  6  1  0
  4  2  1  0
  4  5  1  6
  6  7  2  0
  9  8  1  0
 10  9  1  0
 11 10  1  0
 12 11  1  1
 12 14  1  0
 13 12  1  0
 13  6  1  0
 14 15  2  0
 16 14  1  0
 16 17  1  0
 17 28  1  0
 17 18  1  1
 19 27  1  0
 19 18  1  0
 20 19  2  0
 21 20  1  0
 21 22  1  0
 22 27  2  0
 23 22  1  0
 23 24  2  0
 24 25  1  0
 25 26  2  0
 27 26  1  0
 28 29  2  0
 28 30  1  0
M  END
$$$$
