VMW.pdb
     RDKit          3D

 30 31  0  0  1  0  0  0  0  0999 V2000
   24.3411  -23.5438  -17.2842 C   0  0  0  0  0  0  0  0  0  0  0  0
   24.0291  -22.0789  -17.3040 C   0  0  1  0  0  0  0  0  0  0  0  0
   23.0150  -21.8036  -18.4042 C   0  0  0  0  0  0  0  0  0  0  0  0
   23.4758  -21.6720  -15.9493 C   0  0  2  0  0  0  0  0  0  0  0  0
   23.0366  -20.2883  -15.9567 N   0  0  0  0  0  0  0  0  0  0  0  0
   24.5798  -21.7799  -14.9802 C   0  0  0  0  0  0  0  0  0  0  0  0
   25.0989  -22.8965  -14.7168 O   0  0  0  0  0  0  0  0  0  0  0  0
   29.1300  -17.7837  -14.9978 C   0  0  0  0  0  0  0  0  0  0  0  0
   29.7474  -18.8574  -13.6808 S   0  0  0  0  0  0  0  0  0  0  0  0
   28.5382  -20.1784  -13.4009 C   0  0  0  0  0  0  0  0  0  0  0  0
   27.1330  -19.6098  -13.4069 C   0  0  0  0  0  0  0  0  0  0  0  0
   26.1617  -20.7732  -13.3020 C   0  0  2  0  0  0  0  0  0  0  0  0
   25.1161  -20.6456  -14.2961 N   0  0  0  0  0  0  0  0  0  0  0  0
   25.5824  -20.8631  -11.9370 C   0  0  0  0  0  0  0  0  0  0  0  0
   24.3788  -20.5092  -11.7353 O   0  0  0  0  0  0  0  0  0  0  0  0
   26.4033  -21.3479  -10.8862 N   0  0  0  0  0  0  0  0  0  0  0  0
   25.9458  -21.3761   -9.5155 C   0  0  1  0  0  0  0  0  0  0  0  0
   27.1380  -21.5696   -8.6049 C   0  0  0  0  0  0  0  0  0  0  0  0
   27.4166  -20.3893   -7.7761 C   0  0  0  0  0  0  0  0  0  0  0  0
   26.8763  -19.1184   -7.9106 C   0  0  0  0  0  0  0  0  0  0  0  0
   27.4010  -18.3453   -6.9511 N   0  0  0  0  0  0  0  0  0  0  0  0
   28.2585  -19.0224   -6.1843 C   0  0  0  0  0  0  0  0  0  0  0  0
   29.0299  -18.6742   -5.0980 C   0  0  0  0  0  0  0  0  0  0  0  0
   29.8288  -19.6304   -4.5168 C   0  0  0  0  0  0  0  0  0  0  0  0
   29.8380  -20.9076   -5.0331 C   0  0  0  0  0  0  0  0  0  0  0  0
   29.0703  -21.2643   -6.1183 C   0  0  0  0  0  0  0  0  0  0  0  0
   28.2743  -20.3141   -6.6983 C   0  0  0  0  0  0  0  0  0  0  0  0
   25.2064  -20.1287   -9.2051 C   0  0  0  0  0  0  0  0  0  0  0  0
   25.6043  -19.0437   -9.6967 O   0  0  0  0  0  0  0  0  0  0  0  0
   24.0966  -20.1628   -8.3867 O   0  0  0  0  0  0  0  0  0  0  0  0
  2  1  1  1
  3  2  1  0
  4  6  1  0
  4  2  1  0
  4  5  1  6
  6  7  2  0
  9  8  1  0
 10  9  1  0
 11 10  1  0
 12 11  1  1
 12 14  1  0
 13 12  1  0
 13  6  1  0
 14 15  2  0
 16 14  1  0
 16 17  1  0
 17 28  1  0
 17 18  1  1
 19 27  1  0
 19 18  1  0
 20 19  2  0
 21 20  1  0
 21 22  1  0
 22 27  2  0
 23 22  1  0
 23 24  2  0
 24 25  1  0
 25 26  2  0
 27 26  1  0
 28 29  2  0
 28 30  1  0
M  END
$$$$
