VMW.pdb
     RDKit          3D

 30 31  0  0  1  0  0  0  0  0999 V2000
   29.9262  -19.5652  -19.3949 C   0  0  0  0  0  0  0  0  0  0  0  0
   29.1214  -19.1807  -18.1915 C   0  0  1  0  0  0  0  0  0  0  0  0
   27.9229  -18.3576  -18.6399 C   0  0  0  0  0  0  0  0  0  0  0  0
   28.6695  -20.4410  -17.4745 C   0  0  2  0  0  0  0  0  0  0  0  0
   27.7126  -21.1845  -18.2741 N   0  0  0  0  0  0  0  0  0  0  0  0
   27.9811  -20.0161  -16.2437 C   0  0  0  0  0  0  0  0  0  0  0  0
   28.6137  -19.4475  -15.3153 O   0  0  0  0  0  0  0  0  0  0  0  0
   22.0247  -17.6423  -15.3048 C   0  0  0  0  0  0  0  0  0  0  0  0
   23.3969  -16.8163  -16.1435 S   0  0  0  0  0  0  0  0  0  0  0  0
   24.9243  -17.7200  -15.7749 C   0  0  0  0  0  0  0  0  0  0  0  0
   24.5980  -19.0830  -15.1971 C   0  0  0  0  0  0  0  0  0  0  0  0
   25.9097  -19.7602  -14.8379 C   0  0  2  0  0  0  0  0  0  0  0  0
   26.5819  -20.2199  -16.0356 N   0  0  0  0  0  0  0  0  0  0  0  0
   25.6879  -20.8855  -13.8937 C   0  0  0  0  0  0  0  0  0  0  0  0
   25.3894  -22.0371  -14.3399 O   0  0  0  0  0  0  0  0  0  0  0  0
   25.8181  -20.6352  -12.5033 N   0  0  0  0  0  0  0  0  0  0  0  0
   25.4961  -21.6409  -11.5164 C   0  0  1  0  0  0  0  0  0  0  0  0
   26.6587  -21.7773  -10.5584 C   0  0  0  0  0  0  0  0  0  0  0  0
   26.7582  -20.6495   -9.6226 C   0  0  0  0  0  0  0  0  0  0  0  0
   25.8934  -19.5705   -9.5079 C   0  0  0  0  0  0  0  0  0  0  0  0
   26.3542  -18.7766   -8.5327 N   0  0  0  0  0  0  0  0  0  0  0  0
   27.4737  -19.2596   -7.9894 C   0  0  0  0  0  0  0  0  0  0  0  0
   28.3002  -18.8158   -6.9812 C   0  0  0  0  0  0  0  0  0  0  0  0
   29.4048  -19.5644   -6.6501 C   0  0  0  0  0  0  0  0  0  0  0  0
   29.6565  -20.7348   -7.3317 C   0  0  0  0  0  0  0  0  0  0  0  0
   28.8360  -21.1858   -8.3404 C   0  0  0  0  0  0  0  0  0  0  0  0
   27.7359  -20.4422   -8.6717 C   0  0  0  0  0  0  0  0  0  0  0  0
   24.2399  -21.2772  -10.8173 C   0  0  0  0  0  0  0  0  0  0  0  0
   23.8086  -20.1011  -10.9072 O   0  0  0  0  0  0  0  0  0  0  0  0
   23.5564  -22.2204  -10.0785 O   0  0  0  0  0  0  0  0  0  0  0  0
  2  1  1  6
  3  2  1  0
  4  6  1  0
  4  2  1  0
  4  5  1  6
  6  7  2  0
  9  8  1  0
 10  9  1  0
 11 10  1  0
 12 11  1  6
 12 14  1  0
 13 12  1  0
 13  6  1  0
 14 15  2  0
 16 14  1  0
 16 17  1  0
 17 28  1  0
 17 18  1  1
 19 27  1  0
 19 18  1  0
 20 19  2  0
 21 20  1  0
 21 22  1  0
 22 27  2  0
 23 22  1  0
 23 24  2  0
 24 25  1  0
 25 26  2  0
 27 26  1  0
 28 29  2  0
 28 30  1  0
M  END
$$$$
