VMW.pdb
     RDKit          3D

 30 31  0  0  1  0  0  0  0  0999 V2000
   26.6062  -18.5731  -15.7412 C   0  0  0  0  0  0  0  0  0  0  0  0
   27.0143  -19.7855  -16.5204 C   0  0  1  0  0  0  0  0  0  0  0  0
   27.9513  -19.3612  -17.6414 C   0  0  0  0  0  0  0  0  0  0  0  0
   27.7029  -20.7657  -15.5868 C   0  0  2  0  0  0  0  0  0  0  0  0
   28.0037  -22.0132  -16.2657 N   0  0  0  0  0  0  0  0  0  0  0  0
   26.7541  -21.0707  -14.5023 C   0  0  0  0  0  0  0  0  0  0  0  0
   25.7195  -21.7531  -14.7245 O   0  0  0  0  0  0  0  0  0  0  0  0
   24.6964  -20.4442   -6.9003 C   0  0  0  0  0  0  0  0  0  0  0  0
   25.9814  -20.0657   -8.1145 S   0  0  0  0  0  0  0  0  0  0  0  0
   25.4374  -20.6687   -9.7350 C   0  0  0  0  0  0  0  0  0  0  0  0
   26.5176  -20.4286  -10.7710 C   0  0  0  0  0  0  0  0  0  0  0  0
   25.9683  -20.8566  -12.1213 C   0  0  2  0  0  0  0  0  0  0  0  0
   26.9488  -20.6190  -13.1605 N   0  0  0  0  0  0  0  0  0  0  0  0
   24.6961  -20.1531  -12.4269 C   0  0  0  0  0  0  0  0  0  0  0  0
   24.6980  -18.8979  -12.6239 O   0  0  0  0  0  0  0  0  0  0  0  0
   23.5015  -20.9161  -12.4898 N   0  0  0  0  0  0  0  0  0  0  0  0
   22.3345  -20.4437  -13.1996 C   0  0  1  0  0  0  0  0  0  0  0  0
   22.7315  -20.0916  -14.6160 C   0  0  0  0  0  0  0  0  0  0  0  0
   21.5995  -19.6125  -15.4202 C   0  0  0  0  0  0  0  0  0  0  0  0
   20.6602  -18.6543  -15.0668 C   0  0  0  0  0  0  0  0  0  0  0  0
   19.8049  -18.5211  -16.0887 N   0  0  0  0  0  0  0  0  0  0  0  0
   20.1158  -19.3315  -17.1027 C   0  0  0  0  0  0  0  0  0  0  0  0
   19.5526  -19.5529  -18.3397 C   0  0  0  0  0  0  0  0  0  0  0  0
   20.1288  -20.4802  -19.1755 C   0  0  0  0  0  0  0  0  0  0  0  0
   21.2504  -21.1618  -18.7569 C   0  0  0  0  0  0  0  0  0  0  0  0
   21.8198  -20.9468  -17.5226 C   0  0  0  0  0  0  0  0  0  0  0  0
   21.2479  -20.0244  -16.6890 C   0  0  0  0  0  0  0  0  0  0  0  0
   21.2695  -21.4750  -13.1612 C   0  0  0  0  0  0  0  0  0  0  0  0
   21.5861  -22.6853  -13.2721 O   0  0  0  0  0  0  0  0  0  0  0  0
   19.9493  -21.1068  -13.0060 O   0  0  0  0  0  0  0  0  0  0  0  0
  2  1  1  1
  3  2  1  0
  4  6  1  0
  4  2  1  0
  4  5  1  6
  6  7  2  0
  9  8  1  0
 10  9  1  0
 11 10  1  0
 12 11  1  1
 12 14  1  0
 13 12  1  0
 13  6  1  0
 14 15  2  0
 16 14  1  0
 16 17  1  0
 17 28  1  0
 17 18  1  6
 19 27  1  0
 19 18  1  0
 20 19  2  0
 21 20  1  0
 21 22  1  0
 22 27  2  0
 23 22  1  0
 23 24  2  0
 24 25  1  0
 25 26  2  0
 27 26  1  0
 28 29  2  0
 28 30  1  0
M  END
$$$$
