VMW.pdb
     RDKit          3D

 30 31  0  0  1  0  0  0  0  0999 V2000
   26.4450  -16.5269  -13.2716 C   0  0  0  0  0  0  0  0  0  0  0  0
   26.2438  -16.5700  -14.7553 C   0  0  1  0  0  0  0  0  0  0  0  0
   26.4079  -15.1660  -15.3180 C   0  0  0  0  0  0  0  0  0  0  0  0
   27.2630  -17.5160  -15.3660 C   0  0  2  0  0  0  0  0  0  0  0  0
   27.1212  -17.5784  -16.8096 N   0  0  0  0  0  0  0  0  0  0  0  0
   26.9785  -18.8604  -14.8358 C   0  0  0  0  0  0  0  0  0  0  0  0
   25.9965  -19.5252  -15.2589 O   0  0  0  0  0  0  0  0  0  0  0  0
   30.5999  -23.8567  -14.3749 C   0  0  0  0  0  0  0  0  0  0  0  0
   29.8865  -23.0594  -15.8323 S   0  0  0  0  0  0  0  0  0  0  0  0
   28.6560  -21.8479  -15.2811 C   0  0  0  0  0  0  0  0  0  0  0  0
   28.6630  -21.7478  -13.7685 C   0  0  0  0  0  0  0  0  0  0  0  0
   27.5294  -20.8227  -13.3599 C   0  0  2  0  0  0  0  0  0  0  0  0
   27.7852  -19.4769  -13.8300 N   0  0  0  0  0  0  0  0  0  0  0  0
   27.3330  -20.8377  -11.8874 C   0  0  0  0  0  0  0  0  0  0  0  0
   28.3412  -20.8561  -11.1143 O   0  0  0  0  0  0  0  0  0  0  0  0
   26.0068  -20.8312  -11.3835 N   0  0  0  0  0  0  0  0  0  0  0  0
   25.7323  -20.8768   -9.9652 C   0  0  1  0  0  0  0  0  0  0  0  0
   26.4855  -19.7558   -9.2840 C   0  0  0  0  0  0  0  0  0  0  0  0
   27.6631  -20.2302   -8.5452 C   0  0  0  0  0  0  0  0  0  0  0  0
   28.7335  -20.9590   -9.0436 C   0  0  0  0  0  0  0  0  0  0  0  0
   29.5845  -21.1817   -8.0338 N   0  0  0  0  0  0  0  0  0  0  0  0
   29.1477  -20.6462   -6.8918 C   0  0  0  0  0  0  0  0  0  0  0  0
   29.6570  -20.6076   -5.6129 C   0  0  0  0  0  0  0  0  0  0  0  0
   28.9442  -19.9572   -4.6335 C   0  0  0  0  0  0  0  0  0  0  0  0
   27.7435  -19.3628   -4.9540 C   0  0  0  0  0  0  0  0  0  0  0  0
   27.2271  -19.3964   -6.2293 C   0  0  0  0  0  0  0  0  0  0  0  0
   27.9349  -20.0433   -7.2058 C   0  0  0  0  0  0  0  0  0  0  0  0
   24.2707  -20.7863   -9.7315 C   0  0  0  0  0  0  0  0  0  0  0  0
   23.5198  -20.4465  -10.6792 O   0  0  0  0  0  0  0  0  0  0  0  0
   23.7456  -21.0720   -8.4884 O   0  0  0  0  0  0  0  0  0  0  0  0
  2  1  1  1
  3  2  1  0
  4  6  1  0
  4  2  1  0
  4  5  1  6
  6  7  2  0
  9  8  1  0
 10  9  1  0
 11 10  1  0
 12 11  1  1
 12 14  1  0
 13 12  1  0
 13  6  1  0
 14 15  2  0
 16 14  1  0
 16 17  1  0
 17 28  1  0
 17 18  1  1
 19 27  1  0
 19 18  1  0
 20 19  2  0
 21 20  1  0
 21 22  1  0
 22 27  2  0
 23 22  1  0
 23 24  2  0
 24 25  1  0
 25 26  2  0
 27 26  1  0
 28 29  2  0
 28 30  1  0
M  END
$$$$
