VMW.pdb
     RDKit          3D

 30 31  0  0  1  0  0  0  0  0999 V2000
   28.8154  -20.2281  -16.8928 C   0  0  0  0  0  0  0  0  0  0  0  0
   27.4479  -20.0134  -16.3204 C   0  0  1  0  0  0  0  0  0  0  0  0
   27.5821  -19.5614  -14.8739 C   0  0  0  0  0  0  0  0  0  0  0  0
   26.7245  -18.9639  -17.1462 C   0  0  2  0  0  0  0  0  0  0  0  0
   27.4389  -17.7002  -17.1301 N   0  0  0  0  0  0  0  0  0  0  0  0
   25.4150  -18.7392  -16.5104 C   0  0  0  0  0  0  0  0  0  0  0  0
   25.3042  -17.9733  -15.5171 O   0  0  0  0  0  0  0  0  0  0  0  0
   19.9258  -17.7720  -19.1571 C   0  0  0  0  0  0  0  0  0  0  0  0
   21.1152  -16.5029  -18.6637 S   0  0  0  0  0  0  0  0  0  0  0  0
   22.3343  -17.2571  -17.5545 C   0  0  0  0  0  0  0  0  0  0  0  0
   21.8951  -18.6560  -17.1696 C   0  0  0  0  0  0  0  0  0  0  0  0
   22.9622  -19.2436  -16.2619 C   0  0  2  0  0  0  0  0  0  0  0  0
   24.2170  -19.3647  -16.9750 N   0  0  0  0  0  0  0  0  0  0  0  0
   22.5357  -20.5593  -15.7194 C   0  0  0  0  0  0  0  0  0  0  0  0
   23.0692  -21.6269  -16.1553 O   0  0  0  0  0  0  0  0  0  0  0  0
   21.5315  -20.5824  -14.7175 N   0  0  0  0  0  0  0  0  0  0  0  0
   21.1473  -21.8079  -14.0546 C   0  0  1  0  0  0  0  0  0  0  0  0
   22.3392  -22.3498  -13.2971 C   0  0  0  0  0  0  0  0  0  0  0  0
   22.7852  -21.4520  -12.2234 C   0  0  0  0  0  0  0  0  0  0  0  0
   21.9987  -20.6217  -11.4378 C   0  0  0  0  0  0  0  0  0  0  0  0
   22.8058  -19.9778  -10.5848 N   0  0  0  0  0  0  0  0  0  0  0  0
   24.0830  -20.3277  -10.7529 C   0  0  0  0  0  0  0  0  0  0  0  0
   25.2533  -19.9510  -10.1325 C   0  0  0  0  0  0  0  0  0  0  0  0
   26.4369  -20.5122  -10.5502 C   0  0  0  0  0  0  0  0  0  0  0  0
   26.4231  -21.4335  -11.5743 C   0  0  0  0  0  0  0  0  0  0  0  0
   25.2583  -21.8157  -12.1998 C   0  0  0  0  0  0  0  0  0  0  0  0
   24.0790  -21.2583  -11.7857 C   0  0  0  0  0  0  0  0  0  0  0  0
   19.9895  -21.5569  -13.1626 C   0  0  0  0  0  0  0  0  0  0  0  0
   19.4727  -22.5210  -12.5456 O   0  0  0  0  0  0  0  0  0  0  0  0
   19.4889  -20.2801  -13.0146 O   0  0  0  0  0  0  0  0  0  0  0  0
  2  1  1  6
  3  2  1  0
  4  6  1  0
  4  2  1  0
  4  5  1  1
  6  7  2  0
  9  8  1  0
 10  9  1  0
 11 10  1  0
 12 11  1  6
 12 14  1  0
 13 12  1  0
 13  6  1  0
 14 15  2  0
 16 14  1  0
 16 17  1  0
 17 28  1  0
 17 18  1  1
 19 27  1  0
 19 18  1  0
 20 19  2  0
 21 20  1  0
 21 22  1  0
 22 27  2  0
 23 22  1  0
 23 24  2  0
 24 25  1  0
 25 26  2  0
 27 26  1  0
 28 29  2  0
 28 30  1  0
M  END
$$$$
