VMW.pdb
     RDKit          3D

 30 31  0  0  1  0  0  0  0  0999 V2000
   28.5683  -19.3584  -17.4315 C   0  0  0  0  0  0  0  0  0  0  0  0
   27.6141  -19.8232  -16.3746 C   0  0  1  0  0  0  0  0  0  0  0  0
   26.2811  -20.1615  -17.0253 C   0  0  0  0  0  0  0  0  0  0  0  0
   28.1979  -21.0417  -15.6812 C   0  0  2  0  0  0  0  0  0  0  0  0
   28.2322  -22.1864  -16.5736 N   0  0  0  0  0  0  0  0  0  0  0  0
   27.2974  -21.3784  -14.5653 C   0  0  0  0  0  0  0  0  0  0  0  0
   26.3246  -22.1595  -14.7358 O   0  0  0  0  0  0  0  0  0  0  0  0
   25.3450  -20.3792   -7.0647 C   0  0  0  0  0  0  0  0  0  0  0  0
   25.7500  -19.7925   -8.7262 S   0  0  0  0  0  0  0  0  0  0  0  0
   26.2144  -21.2193   -9.7430 C   0  0  0  0  0  0  0  0  0  0  0  0
   27.1781  -20.7925  -10.8325 C   0  0  0  0  0  0  0  0  0  0  0  0
   26.5581  -21.1600  -12.1699 C   0  0  2  0  0  0  0  0  0  0  0  0
   27.4720  -20.8487  -13.2495 N   0  0  0  0  0  0  0  0  0  0  0  0
   25.2584  -20.4670  -12.3638 C   0  0  0  0  0  0  0  0  0  0  0  0
   25.2259  -19.2017  -12.4753 O   0  0  0  0  0  0  0  0  0  0  0  0
   24.0774  -21.2512  -12.4190 N   0  0  0  0  0  0  0  0  0  0  0  0
   22.8235  -20.7050  -12.8866 C   0  0  1  0  0  0  0  0  0  0  0  0
   22.9872  -20.2628  -14.3238 C   0  0  0  0  0  0  0  0  0  0  0  0
   21.7388  -19.7530  -14.9064 C   0  0  0  0  0  0  0  0  0  0  0  0
   21.1312  -18.5303  -14.6595 C   0  0  0  0  0  0  0  0  0  0  0  0
   20.0140  -18.4707  -15.3956 N   0  0  0  0  0  0  0  0  0  0  0  0
   19.8387  -19.5788  -16.1189 C   0  0  0  0  0  0  0  0  0  0  0  0
   18.8664  -19.9810  -17.0073 C   0  0  0  0  0  0  0  0  0  0  0  0
   18.9796  -21.2156  -17.6018 C   0  0  0  0  0  0  0  0  0  0  0  0
   20.0579  -22.0163  -17.2954 C   0  0  0  0  0  0  0  0  0  0  0  0
   21.0341  -21.6224  -16.4088 C   0  0  0  0  0  0  0  0  0  0  0  0
   20.9234  -20.3940  -15.8159 C   0  0  0  0  0  0  0  0  0  0  0  0
   21.7467  -21.7133  -12.7348 C   0  0  0  0  0  0  0  0  0  0  0  0
   20.6268  -21.3506  -12.2971 O   0  0  0  0  0  0  0  0  0  0  0  0
   21.9752  -23.0315  -13.0705 O   0  0  0  0  0  0  0  0  0  0  0  0
  2  1  1  6
  3  2  1  0
  4  6  1  0
  4  2  1  0
  4  5  1  6
  6  7  2  0
  9  8  1  0
 10  9  1  0
 11 10  1  0
 12 11  1  1
 12 14  1  0
 13 12  1  0
 13  6  1  0
 14 15  2  0
 16 14  1  0
 16 17  1  0
 17 28  1  0
 17 18  1  6
 19 27  1  0
 19 18  1  0
 20 19  2  0
 21 20  1  0
 21 22  1  0
 22 27  2  0
 23 22  1  0
 23 24  2  0
 24 25  1  0
 25 26  2  0
 27 26  1  0
 28 29  2  0
 28 30  1  0
M  END
$$$$
