VMW.pdb
     RDKit          3D

 30 31  0  0  1  0  0  0  0  0999 V2000
   26.9456  -17.8943  -14.2023 C   0  0  0  0  0  0  0  0  0  0  0  0
   27.1828  -19.1126  -15.0407 C   0  0  1  0  0  0  0  0  0  0  0  0
   28.1662  -18.7671  -16.1491 C   0  0  0  0  0  0  0  0  0  0  0  0
   27.7337  -20.2205  -14.1600 C   0  0  2  0  0  0  0  0  0  0  0  0
   28.0537  -21.4014  -14.9415 N   0  0  0  0  0  0  0  0  0  0  0  0
   26.6679  -20.5924  -13.2139 C   0  0  0  0  0  0  0  0  0  0  0  0
   25.7019  -21.3114  -13.5819 O   0  0  0  0  0  0  0  0  0  0  0  0
   26.6432  -20.3954   -6.4129 C   0  0  0  0  0  0  0  0  0  0  0  0
   28.0096  -20.4493   -7.5955 S   0  0  0  0  0  0  0  0  0  0  0  0
   27.3563  -20.9622   -9.2066 C   0  0  0  0  0  0  0  0  0  0  0  0
   26.0528  -20.2439   -9.4941 C   0  0  0  0  0  0  0  0  0  0  0  0
   25.6407  -20.5826  -10.9166 C   0  0  2  0  0  0  0  0  0  0  0  0
   26.6681  -20.1675  -11.8494 N   0  0  0  0  0  0  0  0  0  0  0  0
   24.3366  -19.9580  -11.2573 C   0  0  0  0  0  0  0  0  0  0  0  0
   24.3082  -18.8344  -11.8499 O   0  0  0  0  0  0  0  0  0  0  0  0
   23.1467  -20.6456  -10.9050 N   0  0  0  0  0  0  0  0  0  0  0  0
   22.0470  -20.7862  -11.8324 C   0  0  1  0  0  0  0  0  0  0  0  0
   22.5571  -21.4271  -13.1040 C   0  0  0  0  0  0  0  0  0  0  0  0
   22.3068  -20.6038  -14.2944 C   0  0  0  0  0  0  0  0  0  0  0  0
   22.1588  -19.2253  -14.3500 C   0  0  0  0  0  0  0  0  0  0  0  0
   21.9446  -18.8863  -15.6278 N   0  0  0  0  0  0  0  0  0  0  0  0
   21.9407  -19.9542  -16.4287 C   0  0  0  0  0  0  0  0  0  0  0  0
   21.7670  -20.1148  -17.7853 C   0  0  0  0  0  0  0  0  0  0  0  0
   21.8220  -21.3818  -18.3165 C   0  0  0  0  0  0  0  0  0  0  0  0
   22.0484  -22.4545  -17.4825 C   0  0  0  0  0  0  0  0  0  0  0  0
   22.2231  -22.3032  -16.1257 C   0  0  0  0  0  0  0  0  0  0  0  0
   22.1687  -21.0430  -15.5948 C   0  0  0  0  0  0  0  0  0  0  0  0
   20.9597  -21.5784  -11.2085 C   0  0  0  0  0  0  0  0  0  0  0  0
   19.7857  -21.4475  -11.6350 O   0  0  0  0  0  0  0  0  0  0  0  0
   21.2371  -22.4467  -10.1733 O   0  0  0  0  0  0  0  0  0  0  0  0
  2  1  1  1
  3  2  1  0
  4  6  1  0
  4  2  1  0
  4  5  1  6
  6  7  2  0
  9  8  1  0
 10  9  1  0
 11 10  1  0
 12 11  1  1
 12 14  1  0
 13 12  1  0
 13  6  1  0
 14 15  2  0
 16 14  1  0
 16 17  1  0
 17 28  1  0
 17 18  1  6
 19 27  1  0
 19 18  1  0
 20 19  2  0
 21 20  1  0
 21 22  1  0
 22 27  2  0
 23 22  1  0
 23 24  2  0
 24 25  1  0
 25 26  2  0
 27 26  1  0
 28 29  2  0
 28 30  1  0
M  END
$$$$
