VMW.pdb
     RDKit          3D

 30 31  0  0  1  0  0  0  0  0999 V2000
   18.9924  -23.7142   -8.9287 C   0  0  0  0  0  0  0  0  0  0  0  0
   18.4325  -23.8624  -10.3101 C   0  0  1  0  0  0  0  0  0  0  0  0
   18.9360  -22.7157  -11.1740 C   0  0  0  0  0  0  0  0  0  0  0  0
   18.8720  -25.1990  -10.8819 C   0  0  2  0  0  0  0  0  0  0  0  0
   18.3318  -25.4023  -12.2141 N   0  0  0  0  0  0  0  0  0  0  0  0
   18.3111  -26.2477  -10.0130 C   0  0  0  0  0  0  0  0  0  0  0  0
   17.0663  -26.3586   -9.8585 O   0  0  0  0  0  0  0  0  0  0  0  0
   20.8973  -29.8696  -11.0022 C   0  0  0  0  0  0  0  0  0  0  0  0
   20.1825  -31.1863   -9.9903 S   0  0  0  0  0  0  0  0  0  0  0  0
   18.9275  -30.4594   -8.9030 C   0  0  0  0  0  0  0  0  0  0  0  0
   19.5124  -29.2861   -8.1419 C   0  0  0  0  0  0  0  0  0  0  0  0
   18.5819  -28.1003   -8.3317 C   0  0  2  0  0  0  0  0  0  0  0  0
   19.1308  -27.1826   -9.3085 N   0  0  0  0  0  0  0  0  0  0  0  0
   18.3304  -27.4078   -7.0416 C   0  0  0  0  0  0  0  0  0  0  0  0
   18.9340  -26.3213   -6.7780 O   0  0  0  0  0  0  0  0  0  0  0  0
   17.4111  -27.9901   -6.1313 N   0  0  0  0  0  0  0  0  0  0  0  0
   16.5839  -27.1815   -5.2648 C   0  0  1  0  0  0  0  0  0  0  0  0
   15.8840  -26.1299   -6.0968 C   0  0  0  0  0  0  0  0  0  0  0  0
   15.0218  -25.2524   -5.2942 C   0  0  0  0  0  0  0  0  0  0  0  0
   15.4194  -24.2611   -4.4083 C   0  0  0  0  0  0  0  0  0  0  0  0
   14.3159  -23.7060   -3.8909 N   0  0  0  0  0  0  0  0  0  0  0  0
   13.2060  -24.2659   -4.3772 C   0  0  0  0  0  0  0  0  0  0  0  0
   11.8645  -24.0452   -4.1580 C   0  0  0  0  0  0  0  0  0  0  0  0
   10.9459  -24.8124   -4.8348 C   0  0  0  0  0  0  0  0  0  0  0  0
   11.3880  -25.7785   -5.7116 C   0  0  0  0  0  0  0  0  0  0  0  0
   12.7266  -26.0059   -5.9367 C   0  0  0  0  0  0  0  0  0  0  0  0
   13.6427  -25.2435   -5.2641 C   0  0  0  0  0  0  0  0  0  0  0  0
   15.6224  -28.0444   -4.5367 C   0  0  0  0  0  0  0  0  0  0  0  0
   15.0162  -28.9484   -5.1633 O   0  0  0  0  0  0  0  0  0  0  0  0
   15.3987  -27.8540   -3.1890 O   0  0  0  0  0  0  0  0  0  0  0  0
  2  1  1  1
  3  2  1  0
  4  6  1  0
  4  2  1  0
  4  5  1  6
  6  7  2  0
  9  8  1  0
 10  9  1  0
 11 10  1  0
 12 11  1  1
 12 14  1  0
 13 12  1  0
 13  6  1  0
 14 15  2  0
 16 14  1  0
 16 17  1  0
 17 28  1  0
 17 18  1  6
 19 27  1  0
 19 18  1  0
 20 19  2  0
 21 20  1  0
 21 22  1  0
 22 27  2  0
 23 22  1  0
 23 24  2  0
 24 25  1  0
 25 26  2  0
 27 26  1  0
 28 29  2  0
 28 30  1  0
M  END
$$$$
