VMW.pdb
     RDKit          3D

 30 31  0  0  1  0  0  0  0  0999 V2000
   26.9156  -17.9468  -13.9307 C   0  0  0  0  0  0  0  0  0  0  0  0
   27.3347  -18.8833  -15.0220 C   0  0  1  0  0  0  0  0  0  0  0  0
   28.4186  -18.2175  -15.8566 C   0  0  0  0  0  0  0  0  0  0  0  0
   27.8497  -20.1697  -14.4001 C   0  0  2  0  0  0  0  0  0  0  0  0
   28.2602  -21.1175  -15.4204 N   0  0  0  0  0  0  0  0  0  0  0  0
   26.7275  -20.7738  -13.6619 C   0  0  0  0  0  0  0  0  0  0  0  0
   25.7522  -21.2819  -14.2751 O   0  0  0  0  0  0  0  0  0  0  0  0
   26.8253  -19.0810   -6.9497 C   0  0  0  0  0  0  0  0  0  0  0  0
   26.1274  -20.5734   -7.6941 S   0  0  0  0  0  0  0  0  0  0  0  0
   26.6156  -20.6286   -9.4388 C   0  0  0  0  0  0  0  0  0  0  0  0
   25.9524  -21.8037  -10.1297 C   0  0  0  0  0  0  0  0  0  0  0  0
   25.5395  -21.3513  -11.5200 C   0  0  2  0  0  0  0  0  0  0  0  0
   26.6812  -20.8180  -12.2342 N   0  0  0  0  0  0  0  0  0  0  0  0
   24.4457  -20.3483  -11.4517 C   0  0  0  0  0  0  0  0  0  0  0  0
   24.7249  -19.1111  -11.3756 O   0  0  0  0  0  0  0  0  0  0  0  0
   23.1045  -20.8103  -11.4737 N   0  0  0  0  0  0  0  0  0  0  0  0
   22.1801  -20.4114  -12.5107 C   0  0  1  0  0  0  0  0  0  0  0  0
   22.8045  -20.6942  -13.8591 C   0  0  0  0  0  0  0  0  0  0  0  0
   22.7911  -19.5243  -14.7473 C   0  0  0  0  0  0  0  0  0  0  0  0
   23.0126  -18.1994  -14.3995 C   0  0  0  0  0  0  0  0  0  0  0  0
   22.9071  -17.4599  -15.5110 N   0  0  0  0  0  0  0  0  0  0  0  0
   22.6289  -18.2100  -16.5795 C   0  0  0  0  0  0  0  0  0  0  0  0
   22.4314  -17.9183  -17.9108 C   0  0  0  0  0  0  0  0  0  0  0  0
   22.1549  -18.9455  -18.7818 C   0  0  0  0  0  0  0  0  0  0  0  0
   22.0826  -20.2354  -18.3037 C   0  0  0  0  0  0  0  0  0  0  0  0
   22.2786  -20.5359  -16.9750 C   0  0  0  0  0  0  0  0  0  0  0  0
   22.5539  -19.5150  -16.1062 C   0  0  0  0  0  0  0  0  0  0  0  0
   20.8898  -21.1213  -12.3362 C   0  0  0  0  0  0  0  0  0  0  0  0
   20.8941  -22.2995  -11.9015 O   0  0  0  0  0  0  0  0  0  0  0  0
   19.7021  -20.4931  -12.6482 O   0  0  0  0  0  0  0  0  0  0  0  0
  2  1  1  1
  3  2  1  0
  4  6  1  0
  4  2  1  0
  4  5  1  6
  6  7  2  0
  9  8  1  0
 10  9  1  0
 11 10  1  0
 12 11  1  1
 12 14  1  0
 13 12  1  0
 13  6  1  0
 14 15  2  0
 16 14  1  0
 16 17  1  0
 17 28  1  0
 17 18  1  6
 19 27  1  0
 19 18  1  0
 20 19  2  0
 21 20  1  0
 21 22  1  0
 22 27  2  0
 23 22  1  0
 23 24  2  0
 24 25  1  0
 25 26  2  0
 27 26  1  0
 28 29  2  0
 28 30  1  0
M  END
$$$$
