WHG.pdb
     RDKit          3D

 29 31  0  0  1  0  0  0  0  0999 V2000
    6.3669  -17.1577   23.4196 N   0  0  0  0  0  0  0  0  0  0  0  0
    7.4270  -16.2022   23.2524 C   0  0  1  0  0  0  0  0  0  0  0  0
    8.1397  -16.1087   24.6017 C   0  0  0  0  0  0  0  0  0  0  0  0
    7.3436  -15.2911   25.5369 C   0  0  0  0  0  0  0  0  0  0  0  0
    6.4090  -15.7707   26.4523 C   0  0  0  0  0  0  0  0  0  0  0  0
    5.8820  -14.7413   27.1322 N   0  0  0  0  0  0  0  0  0  0  0  0
    6.4422  -13.5955   26.6916 C   0  0  0  0  0  0  0  0  0  0  0  0
    6.2404  -12.2668   27.0692 C   0  0  0  0  0  0  0  0  0  0  0  0
    6.9447  -11.2489   26.4617 C   0  0  0  0  0  0  0  0  0  0  0  0
    7.8418  -11.6060   25.4801 C   0  0  0  0  0  0  0  0  0  0  0  0
    8.0571  -12.9106   25.0915 C   0  0  0  0  0  0  0  0  0  0  0  0
    7.3532  -13.9298   25.6984 C   0  0  0  0  0  0  0  0  0  0  0  0
    8.4192  -16.6841   22.2508 C   0  0  0  0  0  0  0  0  0  0  0  0
    8.3612  -17.8586   21.8057 O   0  0  0  0  0  0  0  0  0  0  0  0
    9.4350  -15.8432   21.7836 N   0  0  0  0  0  0  0  0  0  0  0  0
   10.2582  -16.1748   20.6024 C   0  0  1  0  0  0  0  0  0  0  0  0
   10.4596  -14.9672   19.7518 C   0  0  0  0  0  0  0  0  0  0  0  0
    9.2480  -14.4352   19.1114 C   0  0  0  0  0  0  0  0  0  0  0  0
    8.4799  -15.1514   18.1851 C   0  0  0  0  0  0  0  0  0  0  0  0
    7.4675  -14.3858   17.8085 N   0  0  0  0  0  0  0  0  0  0  0  0
    7.5347  -13.2124   18.4383 C   0  0  0  0  0  0  0  0  0  0  0  0
    8.6145  -13.2638   19.2178 N   0  0  0  0  0  0  0  0  0  0  0  0
   11.5082  -16.7945   21.1100 C   0  0  0  0  0  0  0  0  0  0  0  0
   12.4379  -17.1919   20.3721 O   0  0  0  0  0  0  0  0  0  0  0  0
   11.7446  -16.9864   22.5191 N   0  0  0  0  0  0  0  0  0  0  0  0
   12.9265  -17.6311   23.0182 C   0  0  0  0  0  0  0  0  0  0  0  0
   14.0838  -16.7136   23.1081 C   0  0  0  0  0  0  0  0  0  0  0  0
   14.2055  -15.9067   24.0545 O   0  0  0  0  0  0  0  0  0  0  0  0
   15.0664  -16.7322   22.1324 O   0  0  0  0  0  0  0  0  0  0  0  0
  2 13  1  0
  2  1  1  1
  3  4  1  0
  3  2  1  0
  4  5  2  0
  5  6  1  0
  7  6  1  0
  8  7  2  0
  9  8  1  0
 10 11  1  0
 10  9  2  0
 11 12  2  0
 12  4  1  0
 12  7  1  0
 13 14  2  0
 15 16  1  0
 15 13  1  0
 16 17  1  1
 18 22  1  0
 18 17  1  0
 19 18  2  0
 20 19  1  0
 20 21  1  0
 21 22  2  0
 23 24  2  0
 23 16  1  0
 25 23  1  0
 26 25  1  0
 27 26  1  0
 27 29  1  0
 28 27  2  0
M  END
$$$$
