WHG.pdb
     RDKit          3D

 29 31  0  0  1  0  0  0  0  0999 V2000
    6.8799  -17.4552   25.2269 N   0  0  0  0  0  0  0  0  0  0  0  0
    7.1379  -16.1774   24.6222 C   0  0  1  0  0  0  0  0  0  0  0  0
    8.4127  -15.6416   25.2741 C   0  0  0  0  0  0  0  0  0  0  0  0
    8.0680  -14.7050   26.3608 C   0  0  0  0  0  0  0  0  0  0  0  0
    8.3568  -14.8776   27.7130 C   0  0  0  0  0  0  0  0  0  0  0  0
    7.8927  -13.8267   28.4057 N   0  0  0  0  0  0  0  0  0  0  0  0
    7.3057  -12.9650   27.5492 C   0  0  0  0  0  0  0  0  0  0  0  0
    6.6770  -11.7372   27.7641 C   0  0  0  0  0  0  0  0  0  0  0  0
    6.1425  -11.0274   26.7098 C   0  0  0  0  0  0  0  0  0  0  0  0
    6.2595  -11.5838   25.4558 C   0  0  0  0  0  0  0  0  0  0  0  0
    6.8758  -12.7938   25.2205 C   0  0  0  0  0  0  0  0  0  0  0  0
    7.4109  -13.5049   26.2742 C   0  0  0  0  0  0  0  0  0  0  0  0
    7.4058  -16.3276   23.1643 C   0  0  0  0  0  0  0  0  0  0  0  0
    7.2873  -17.4466   22.6032 O   0  0  0  0  0  0  0  0  0  0  0  0
    7.7941  -15.2303   22.3882 N   0  0  0  0  0  0  0  0  0  0  0  0
    7.9212  -15.3041   20.9181 C   0  0  1  0  0  0  0  0  0  0  0  0
    7.6904  -13.9640   20.3071 C   0  0  0  0  0  0  0  0  0  0  0  0
    7.8367  -13.9014   18.8457 C   0  0  0  0  0  0  0  0  0  0  0  0
    8.1182  -15.0146   18.0442 C   0  0  0  0  0  0  0  0  0  0  0  0
    8.1829  -14.6109   16.7849 N   0  0  0  0  0  0  0  0  0  0  0  0
    7.9591  -13.2979   16.7234 C   0  0  0  0  0  0  0  0  0  0  0  0
    7.7530  -12.8911   17.9756 N   0  0  0  0  0  0  0  0  0  0  0  0
    9.2509  -15.8988   20.6310 C   0  0  0  0  0  0  0  0  0  0  0  0
    9.6046  -16.3001   19.4994 O   0  0  0  0  0  0  0  0  0  0  0  0
   10.2503  -16.0594   21.6575 N   0  0  0  0  0  0  0  0  0  0  0  0
   11.5289  -16.6583   21.3968 C   0  0  0  0  0  0  0  0  0  0  0  0
   12.4240  -16.6312   22.5746 C   0  0  0  0  0  0  0  0  0  0  0  0
   11.9802  -16.4460   23.7280 O   0  0  0  0  0  0  0  0  0  0  0  0
   13.7880  -16.8129   22.4187 O   0  0  0  0  0  0  0  0  0  0  0  0
  2 13  1  0
  2  1  1  1
  3  4  1  0
  3  2  1  0
  4  5  2  0
  5  6  1  0
  7  6  1  0
  8  7  2  0
  9  8  1  0
 10 11  1  0
 10  9  2  0
 11 12  2  0
 12  4  1  0
 12  7  1  0
 13 14  2  0
 15 16  1  0
 15 13  1  0
 16 17  1  6
 18 22  1  0
 18 17  1  0
 19 18  2  0
 20 19  1  0
 20 21  1  0
 21 22  2  0
 23 24  2  0
 23 16  1  0
 25 23  1  0
 26 25  1  0
 27 26  1  0
 27 29  1  0
 28 27  2  0
M  END
$$$$
