WHG.pdb
     RDKit          3D

 29 31  0  0  1  0  0  0  0  0999 V2000
    6.0925  -17.6483   23.3218 N   0  0  0  0  0  0  0  0  0  0  0  0
    6.9492  -16.4981   23.4116 C   0  0  1  0  0  0  0  0  0  0  0  0
    7.5848  -16.5417   24.8014 C   0  0  0  0  0  0  0  0  0  0  0  0
    7.0048  -15.4868   25.6545 C   0  0  0  0  0  0  0  0  0  0  0  0
    5.8973  -15.6251   26.4886 C   0  0  0  0  0  0  0  0  0  0  0  0
    5.6581  -14.4600   27.1091 N   0  0  0  0  0  0  0  0  0  0  0  0
    6.5765  -13.5563   26.7082 C   0  0  0  0  0  0  0  0  0  0  0  0
    6.7620  -12.2164   27.0533 C   0  0  0  0  0  0  0  0  0  0  0  0
    7.7913  -11.4843   26.5002 C   0  0  0  0  0  0  0  0  0  0  0  0
    8.6120  -12.1334   25.6052 C   0  0  0  0  0  0  0  0  0  0  0  0
    8.4475  -13.4548   25.2501 C   0  0  0  0  0  0  0  0  0  0  0  0
    7.4184  -14.1882   25.8027 C   0  0  0  0  0  0  0  0  0  0  0  0
    8.0491  -16.5793   22.4099 C   0  0  0  0  0  0  0  0  0  0  0  0
    8.3088  -17.6644   21.8304 O   0  0  0  0  0  0  0  0  0  0  0  0
    8.8158  -15.4531   22.0918 N   0  0  0  0  0  0  0  0  0  0  0  0
    9.9270  -15.4995   21.1192 C   0  0  1  0  0  0  0  0  0  0  0  0
    9.9297  -14.2728   20.2722 C   0  0  0  0  0  0  0  0  0  0  0  0
    8.8356  -14.1762   19.2951 C   0  0  0  0  0  0  0  0  0  0  0  0
    7.8057  -13.2306   19.3724 C   0  0  0  0  0  0  0  0  0  0  0  0
    6.9939  -13.4193   18.3436 N   0  0  0  0  0  0  0  0  0  0  0  0
    7.4386  -14.4344   17.6024 C   0  0  0  0  0  0  0  0  0  0  0  0
    8.5487  -14.8754   18.1936 N   0  0  0  0  0  0  0  0  0  0  0  0
   11.1711  -15.7209   21.8985 C   0  0  0  0  0  0  0  0  0  0  0  0
   12.3164  -15.7315   21.3937 O   0  0  0  0  0  0  0  0  0  0  0  0
   11.1475  -15.9441   23.3226 N   0  0  0  0  0  0  0  0  0  0  0  0
   12.3453  -16.1484   24.0873 C   0  0  0  0  0  0  0  0  0  0  0  0
   12.7860  -17.5609   24.0936 C   0  0  0  0  0  0  0  0  0  0  0  0
   13.7446  -17.9428   24.7985 O   0  0  0  0  0  0  0  0  0  0  0  0
   12.1359  -18.4980   23.3082 O   0  0  0  0  0  0  0  0  0  0  0  0
  2 13  1  0
  2  1  1  1
  3  4  1  0
  3  2  1  0
  4  5  2  0
  5  6  1  0
  7  6  1  0
  8  7  2  0
  9  8  1  0
 10 11  1  0
 10  9  2  0
 11 12  2  0
 12  4  1  0
 12  7  1  0
 13 14  2  0
 15 16  1  0
 15 13  1  0
 16 17  1  1
 18 22  1  0
 18 17  1  0
 19 18  2  0
 20 19  1  0
 20 21  1  0
 21 22  2  0
 23 24  2  0
 23 16  1  0
 25 23  1  0
 26 25  1  0
 27 26  1  0
 27 29  1  0
 28 27  2  0
M  END
$$$$
