WHG.pdb
     RDKit          3D

 29 31  0  0  1  0  0  0  0  0999 V2000
    6.5850  -17.3300   23.5250 N   0  0  0  0  0  0  0  0  0  0  0  0
    7.4614  -16.1978   23.4021 C   0  0  1  0  0  0  0  0  0  0  0  0
    8.0412  -15.9483   24.7946 C   0  0  0  0  0  0  0  0  0  0  0  0
    7.1471  -15.0597   25.5613 C   0  0  0  0  0  0  0  0  0  0  0  0
    5.9108  -15.4093   26.1006 C   0  0  0  0  0  0  0  0  0  0  0  0
    5.3826  -14.3486   26.7294 N   0  0  0  0  0  0  0  0  0  0  0  0
    6.2351  -13.3084   26.6206 C   0  0  0  0  0  0  0  0  0  0  0  0
    6.1544  -11.9977   27.0944 C   0  0  0  0  0  0  0  0  0  0  0  0
    7.1714  -11.0989   26.8516 C   0  0  0  0  0  0  0  0  0  0  0  0
    8.2518  -11.5543   26.1297 C   0  0  0  0  0  0  0  0  0  0  0  0
    8.3525  -12.8432   25.6525 C   0  0  0  0  0  0  0  0  0  0  0  0
    7.3360  -13.7434   25.8946 C   0  0  0  0  0  0  0  0  0  0  0  0
    8.5977  -16.5063   22.4892 C   0  0  0  0  0  0  0  0  0  0  0  0
    8.7913  -17.6798   22.0813 O   0  0  0  0  0  0  0  0  0  0  0  0
    9.4728  -15.5002   22.0658 N   0  0  0  0  0  0  0  0  0  0  0  0
   10.5520  -15.7480   21.0877 C   0  0  1  0  0  0  0  0  0  0  0  0
   10.5394  -14.7054   20.0224 C   0  0  0  0  0  0  0  0  0  0  0  0
    9.2297  -14.4448   19.4076 C   0  0  0  0  0  0  0  0  0  0  0  0
    8.6452  -15.2741   18.4425 C   0  0  0  0  0  0  0  0  0  0  0  0
    7.4759  -14.7533   18.1042 N   0  0  0  0  0  0  0  0  0  0  0  0
    7.2680  -13.6322   18.7954 C   0  0  0  0  0  0  0  0  0  0  0  0
    8.3366  -13.4654   19.5742 N   0  0  0  0  0  0  0  0  0  0  0  0
   11.8182  -15.8361   21.8579 C   0  0  0  0  0  0  0  0  0  0  0  0
   12.7034  -14.9513   21.8461 O   0  0  0  0  0  0  0  0  0  0  0  0
   12.1241  -16.9714   22.6920 N   0  0  0  0  0  0  0  0  0  0  0  0
   13.3616  -17.0840   23.4113 C   0  0  0  0  0  0  0  0  0  0  0  0
   13.4142  -18.2846   24.2745 C   0  0  0  0  0  0  0  0  0  0  0  0
   14.4264  -18.5556   24.9554 O   0  0  0  0  0  0  0  0  0  0  0  0
   12.3286  -19.1415   24.3448 O   0  0  0  0  0  0  0  0  0  0  0  0
  2 13  1  0
  2  1  1  1
  3  4  1  0
  3  2  1  0
  4  5  2  0
  5  6  1  0
  7  6  1  0
  8  7  2  0
  9  8  1  0
 10 11  1  0
 10  9  2  0
 11 12  2  0
 12  4  1  0
 12  7  1  0
 13 14  2  0
 15 16  1  0
 15 13  1  0
 16 17  1  6
 18 22  1  0
 18 17  1  0
 19 18  2  0
 20 19  1  0
 20 21  1  0
 21 22  2  0
 23 24  2  0
 23 16  1  0
 25 23  1  0
 26 25  1  0
 27 26  1  0
 27 29  1  0
 28 27  2  0
M  END
$$$$
