WHG.pdb
     RDKit          3D

 29 31  0  0  1  0  0  0  0  0999 V2000
    7.6712  -16.9421   23.4981 N   0  0  0  0  0  0  0  0  0  0  0  0
    8.7190  -16.5395   24.3953 C   0  0  1  0  0  0  0  0  0  0  0  0
    8.0902  -16.4658   25.7869 C   0  0  0  0  0  0  0  0  0  0  0  0
    7.1184  -15.3570   25.8430 C   0  0  0  0  0  0  0  0  0  0  0  0
    5.7361  -15.4723   25.7107 C   0  0  0  0  0  0  0  0  0  0  0  0
    5.1754  -14.2581   25.8144 N   0  0  0  0  0  0  0  0  0  0  0  0
    6.1485  -13.3442   26.0114 C   0  0  0  0  0  0  0  0  0  0  0  0
    6.0914  -11.9594   26.1790 C   0  0  0  0  0  0  0  0  0  0  0  0
    7.2438  -11.2264   26.3685 C   0  0  0  0  0  0  0  0  0  0  0  0
    8.4330  -11.9203   26.3834 C   0  0  0  0  0  0  0  0  0  0  0  0
    8.5128  -13.2864   26.2201 C   0  0  0  0  0  0  0  0  0  0  0  0
    7.3609  -14.0208   26.0305 C   0  0  0  0  0  0  0  0  0  0  0  0
    9.7979  -17.5660   24.4418 C   0  0  0  0  0  0  0  0  0  0  0  0
    9.5665  -18.7187   24.8873 O   0  0  0  0  0  0  0  0  0  0  0  0
   11.0895  -17.2717   23.9918 N   0  0  0  0  0  0  0  0  0  0  0  0
   12.2001  -18.2420   24.0803 C   0  0  1  0  0  0  0  0  0  0  0  0
   13.3520  -17.7930   23.2473 C   0  0  0  0  0  0  0  0  0  0  0  0
   13.0711  -17.6319   21.8133 C   0  0  0  0  0  0  0  0  0  0  0  0
   12.2541  -18.5003   21.0789 C   0  0  0  0  0  0  0  0  0  0  0  0
   12.2141  -18.0700   19.8275 N   0  0  0  0  0  0  0  0  0  0  0  0
   12.9592  -16.9708   19.7077 C   0  0  0  0  0  0  0  0  0  0  0  0
   13.4659  -16.7249   20.9156 N   0  0  0  0  0  0  0  0  0  0  0  0
   12.5051  -18.4157   25.5229 C   0  0  0  0  0  0  0  0  0  0  0  0
   12.9244  -17.4965   26.2616 O   0  0  0  0  0  0  0  0  0  0  0  0
   12.3360  -19.6829   26.1891 N   0  0  0  0  0  0  0  0  0  0  0  0
   12.5444  -19.8416   27.6008 C   0  0  0  0  0  0  0  0  0  0  0  0
   13.9369  -20.2139   27.9350 C   0  0  0  0  0  0  0  0  0  0  0  0
   14.8211  -20.2919   27.0553 O   0  0  0  0  0  0  0  0  0  0  0  0
   14.2909  -20.4863   29.2458 O   0  0  0  0  0  0  0  0  0  0  0  0
  2 13  1  0
  2  1  1  6
  3  4  1  0
  3  2  1  0
  4  5  2  0
  5  6  1  0
  7  6  1  0
  8  7  2  0
  9  8  1  0
 10 11  1  0
 10  9  2  0
 11 12  2  0
 12  4  1  0
 12  7  1  0
 13 14  2  0
 15 16  1  0
 15 13  1  0
 16 17  1  6
 18 22  1  0
 18 17  1  0
 19 18  2  0
 20 19  1  0
 20 21  1  0
 21 22  2  0
 23 24  2  0
 23 16  1  0
 25 23  1  0
 26 25  1  0
 27 26  1  0
 27 29  1  0
 28 27  2  0
M  END
$$$$
