WHG.pdb
     RDKit          3D

 29 31  0  0  1  0  0  0  0  0999 V2000
    6.4687  -17.1150   23.5011 N   0  0  0  0  0  0  0  0  0  0  0  0
    7.4702  -16.0853   23.4606 C   0  0  1  0  0  0  0  0  0  0  0  0
    8.0334  -15.9758   24.8776 C   0  0  0  0  0  0  0  0  0  0  0  0
    7.1716  -15.1022   25.6968 C   0  0  0  0  0  0  0  0  0  0  0  0
    6.0370  -15.4992   26.4014 C   0  0  0  0  0  0  0  0  0  0  0  0
    5.5084  -14.4384   27.0297 N   0  0  0  0  0  0  0  0  0  0  0  0
    6.2620  -13.3520   26.7599 C   0  0  0  0  0  0  0  0  0  0  0  0
    6.1396  -12.0221   27.1662 C   0  0  0  0  0  0  0  0  0  0  0  0
    7.0509  -11.0740   26.7515 C   0  0  0  0  0  0  0  0  0  0  0  0
    8.0700  -11.5008   25.9299 C   0  0  0  0  0  0  0  0  0  0  0  0
    8.2102  -12.8080   25.5166 C   0  0  0  0  0  0  0  0  0  0  0  0
    7.2994  -13.7574   25.9307 C   0  0  0  0  0  0  0  0  0  0  0  0
    8.5907  -16.4736   22.5586 C   0  0  0  0  0  0  0  0  0  0  0  0
    8.6489  -17.6312   22.0713 O   0  0  0  0  0  0  0  0  0  0  0  0
    9.6008  -15.5618   22.2340 N   0  0  0  0  0  0  0  0  0  0  0  0
   10.5446  -15.7874   21.1200 C   0  0  1  0  0  0  0  0  0  0  0  0
   10.4808  -14.6603   20.1464 C   0  0  0  0  0  0  0  0  0  0  0  0
    9.2129  -14.5275   19.4144 C   0  0  0  0  0  0  0  0  0  0  0  0
    8.5726  -15.5928   18.7692 C   0  0  0  0  0  0  0  0  0  0  0  0
    7.4632  -15.1316   18.2127 N   0  0  0  0  0  0  0  0  0  0  0  0
    7.3469  -13.8266   18.4603 C   0  0  0  0  0  0  0  0  0  0  0  0
    8.4113  -13.4837   19.1854 N   0  0  0  0  0  0  0  0  0  0  0  0
   11.8808  -16.0109   21.7273 C   0  0  0  0  0  0  0  0  0  0  0  0
   12.9051  -16.3011   21.0691 O   0  0  0  0  0  0  0  0  0  0  0  0
   12.0976  -15.9069   23.1487 N   0  0  0  0  0  0  0  0  0  0  0  0
   12.5172  -17.0257   23.9449 C   0  0  0  0  0  0  0  0  0  0  0  0
   13.7473  -17.6657   23.4288 C   0  0  0  0  0  0  0  0  0  0  0  0
   13.7509  -18.3005   22.3523 O   0  0  0  0  0  0  0  0  0  0  0  0
   14.9329  -17.5719   24.1381 O   0  0  0  0  0  0  0  0  0  0  0  0
  2 13  1  0
  2  1  1  1
  3  4  1  0
  3  2  1  0
  4  5  2  0
  5  6  1  0
  7  6  1  0
  8  7  2  0
  9  8  1  0
 10 11  1  0
 10  9  2  0
 11 12  2  0
 12  4  1  0
 12  7  1  0
 13 14  2  0
 15 16  1  0
 15 13  1  0
 16 17  1  6
 18 22  1  0
 18 17  1  0
 19 18  2  0
 20 19  1  0
 20 21  1  0
 21 22  2  0
 23 24  2  0
 23 16  1  0
 25 23  1  0
 26 25  1  0
 27 26  1  0
 27 29  1  0
 28 27  2  0
M  END
$$$$
