WHG.pdb
     RDKit          3D

 29 31  0  0  1  0  0  0  0  0999 V2000
    6.7827  -17.0514   23.4324 N   0  0  0  0  0  0  0  0  0  0  0  0
    8.0546  -16.3898   23.5302 C   0  0  1  0  0  0  0  0  0  0  0  0
    8.3660  -16.2730   25.0224 C   0  0  0  0  0  0  0  0  0  0  0  0
    7.4513  -15.3029   25.6541 C   0  0  0  0  0  0  0  0  0  0  0  0
    6.3232  -15.6137   26.4105 C   0  0  0  0  0  0  0  0  0  0  0  0
    5.7363  -14.4800   26.8225 N   0  0  0  0  0  0  0  0  0  0  0  0
    6.4451  -13.4292   26.3595 C   0  0  0  0  0  0  0  0  0  0  0  0
    6.2558  -12.0539   26.5064 C   0  0  0  0  0  0  0  0  0  0  0  0
    7.1308  -11.1585   25.9286 C   0  0  0  0  0  0  0  0  0  0  0  0
    8.1826  -11.6834   25.2117 C   0  0  0  0  0  0  0  0  0  0  0  0
    8.3888  -13.0368   25.0537 C   0  0  0  0  0  0  0  0  0  0  0  0
    7.5143  -13.9336   25.6312 C   0  0  0  0  0  0  0  0  0  0  0  0
    9.1282  -17.2149   22.9087 C   0  0  0  0  0  0  0  0  0  0  0  0
    9.6934  -18.1284   23.5622 O   0  0  0  0  0  0  0  0  0  0  0  0
    9.5309  -16.9931   21.5874 N   0  0  0  0  0  0  0  0  0  0  0  0
   10.6872  -17.6869   20.9838 C   0  0  1  0  0  0  0  0  0  0  0  0
   10.6663  -17.5411   19.5004 C   0  0  0  0  0  0  0  0  0  0  0  0
   11.7567  -18.2173   18.7827 C   0  0  0  0  0  0  0  0  0  0  0  0
   11.7054  -19.5556   18.3737 C   0  0  0  0  0  0  0  0  0  0  0  0
   12.8427  -19.8436   17.7600 N   0  0  0  0  0  0  0  0  0  0  0  0
   13.6299  -18.7674   17.7475 C   0  0  0  0  0  0  0  0  0  0  0  0
   12.9561  -17.7998   18.3686 N   0  0  0  0  0  0  0  0  0  0  0  0
   11.9033  -17.1507   21.6453 C   0  0  0  0  0  0  0  0  0  0  0  0
   12.0814  -15.9376   21.8973 O   0  0  0  0  0  0  0  0  0  0  0  0
   12.9885  -18.0077   22.0530 N   0  0  0  0  0  0  0  0  0  0  0  0
   14.1760  -17.4976   22.6782 C   0  0  0  0  0  0  0  0  0  0  0  0
   15.1943  -18.5453   22.9122 C   0  0  0  0  0  0  0  0  0  0  0  0
   16.3176  -18.4976   22.3665 O   0  0  0  0  0  0  0  0  0  0  0  0
   14.9181  -19.6119   23.7510 O   0  0  0  0  0  0  0  0  0  0  0  0
  2 13  1  0
  2  1  1  1
  3  4  1  0
  3  2  1  0
  4  5  2  0
  5  6  1  0
  7  6  1  0
  8  7  2  0
  9  8  1  0
 10 11  1  0
 10  9  2  0
 11 12  2  0
 12  4  1  0
 12  7  1  0
 13 14  2  0
 15 16  1  0
 15 13  1  0
 16 17  1  6
 18 22  1  0
 18 17  1  0
 19 18  2  0
 20 19  1  0
 20 21  1  0
 21 22  2  0
 23 24  2  0
 23 16  1  0
 25 23  1  0
 26 25  1  0
 27 26  1  0
 27 29  1  0
 28 27  2  0
M  END
$$$$
