WHG.pdb
     RDKit          3D

 29 31  0  0  1  0  0  0  0  0999 V2000
    6.2240  -17.4677   23.4064 N   0  0  0  0  0  0  0  0  0  0  0  0
    7.0762  -16.3107   23.3927 C   0  0  1  0  0  0  0  0  0  0  0  0
    7.6758  -16.2005   24.7947 C   0  0  0  0  0  0  0  0  0  0  0  0
    6.9679  -15.1605   25.5656 C   0  0  0  0  0  0  0  0  0  0  0  0
    5.8267  -15.3510   26.3419 C   0  0  0  0  0  0  0  0  0  0  0  0
    5.4634  -14.1840   26.8947 N   0  0  0  0  0  0  0  0  0  0  0  0
    6.3327  -13.2281   26.5053 C   0  0  0  0  0  0  0  0  0  0  0  0
    6.3952  -11.8648   26.7993 C   0  0  0  0  0  0  0  0  0  0  0  0
    7.3968  -11.0775   26.2720 C   0  0  0  0  0  0  0  0  0  0  0  0
    8.3160  -11.6962   25.4545 C   0  0  0  0  0  0  0  0  0  0  0  0
    8.2736  -13.0397   25.1509 C   0  0  0  0  0  0  0  0  0  0  0  0
    7.2722  -13.8285   25.6777 C   0  0  0  0  0  0  0  0  0  0  0  0
    8.2017  -16.4952   22.4341 C   0  0  0  0  0  0  0  0  0  0  0  0
    8.3711  -17.5952   21.8491 O   0  0  0  0  0  0  0  0  0  0  0  0
    9.0934  -15.4517   22.1634 N   0  0  0  0  0  0  0  0  0  0  0  0
   10.1391  -15.5518   21.1246 C   0  0  1  0  0  0  0  0  0  0  0  0
   10.1099  -14.3533   20.2385 C   0  0  0  0  0  0  0  0  0  0  0  0
    8.9962  -14.3019   19.2803 C   0  0  0  0  0  0  0  0  0  0  0  0
    8.1240  -13.2129   19.1600 C   0  0  0  0  0  0  0  0  0  0  0  0
    7.2439  -13.4918   18.2110 N   0  0  0  0  0  0  0  0  0  0  0  0
    7.4955  -14.7007   17.7080 C   0  0  0  0  0  0  0  0  0  0  0  0
    8.5548  -15.1704   18.3664 N   0  0  0  0  0  0  0  0  0  0  0  0
   11.4263  -15.7732   21.8304 C   0  0  0  0  0  0  0  0  0  0  0  0
   12.5415  -15.7716   21.2620 O   0  0  0  0  0  0  0  0  0  0  0  0
   11.4840  -16.0107   23.2512 N   0  0  0  0  0  0  0  0  0  0  0  0
   12.7264  -16.1733   23.9523 C   0  0  0  0  0  0  0  0  0  0  0  0
   13.2234  -17.5665   23.9196 C   0  0  0  0  0  0  0  0  0  0  0  0
   12.6345  -18.4548   23.2671 O   0  0  0  0  0  0  0  0  0  0  0  0
   14.3653  -17.9166   24.6205 O   0  0  0  0  0  0  0  0  0  0  0  0
  2 13  1  0
  2  1  1  1
  3  4  1  0
  3  2  1  0
  4  5  2  0
  5  6  1  0
  7  6  1  0
  8  7  2  0
  9  8  1  0
 10 11  1  0
 10  9  2  0
 11 12  2  0
 12  4  1  0
 12  7  1  0
 13 14  2  0
 15 16  1  0
 15 13  1  0
 16 17  1  1
 18 22  1  0
 18 17  1  0
 19 18  2  0
 20 19  1  0
 20 21  1  0
 21 22  2  0
 23 24  2  0
 23 16  1  0
 25 23  1  0
 26 25  1  0
 27 26  1  0
 27 29  1  0
 28 27  2  0
M  END
$$$$
