WHG.pdb
     RDKit          3D

 29 31  0  0  1  0  0  0  0  0999 V2000
    6.1080  -16.9837   23.6441 N   0  0  0  0  0  0  0  0  0  0  0  0
    7.3224  -16.2602   23.3854 C   0  0  1  0  0  0  0  0  0  0  0  0
    7.9780  -16.0183   24.7452 C   0  0  0  0  0  0  0  0  0  0  0  0
    7.1493  -15.0988   25.5481 C   0  0  0  0  0  0  0  0  0  0  0  0
    6.0256  -15.4489   26.2939 C   0  0  0  0  0  0  0  0  0  0  0  0
    5.5284  -14.3554   26.8911 N   0  0  0  0  0  0  0  0  0  0  0  0
    6.2920  -13.2931   26.5606 C   0  0  0  0  0  0  0  0  0  0  0  0
    6.1997  -11.9462   26.9158 C   0  0  0  0  0  0  0  0  0  0  0  0
    7.1154  -11.0303   26.4426 C   0  0  0  0  0  0  0  0  0  0  0  0
    8.1082  -11.5062   25.6157 C   0  0  0  0  0  0  0  0  0  0  0  0
    8.2184  -12.8309   25.2521 C   0  0  0  0  0  0  0  0  0  0  0  0
    7.3032  -13.7480   25.7248 C   0  0  0  0  0  0  0  0  0  0  0  0
    8.2625  -17.0805   22.5710 C   0  0  0  0  0  0  0  0  0  0  0  0
    7.8279  -17.9470   21.7703 O   0  0  0  0  0  0  0  0  0  0  0  0
    9.6464  -16.9058   22.6780 N   0  0  0  0  0  0  0  0  0  0  0  0
   10.4023  -16.0004   21.7884 C   0  0  1  0  0  0  0  0  0  0  0  0
    9.7554  -14.6583   21.7390 C   0  0  0  0  0  0  0  0  0  0  0  0
    8.8896  -14.4156   20.5759 C   0  0  0  0  0  0  0  0  0  0  0  0
    8.6951  -15.3429   19.5447 C   0  0  0  0  0  0  0  0  0  0  0  0
    7.8637  -14.8108   18.6624 N   0  0  0  0  0  0  0  0  0  0  0  0
    7.5071  -13.5899   19.0626 C   0  0  0  0  0  0  0  0  0  0  0  0
    8.1365  -13.3723   20.2170 N   0  0  0  0  0  0  0  0  0  0  0  0
   11.8064  -15.9975   22.2707 C   0  0  0  0  0  0  0  0  0  0  0  0
   12.7498  -15.4411   21.6647 O   0  0  0  0  0  0  0  0  0  0  0  0
   12.1908  -16.6493   23.4977 N   0  0  0  0  0  0  0  0  0  0  0  0
   13.5325  -16.5978   24.0065 C   0  0  0  0  0  0  0  0  0  0  0  0
   14.3797  -17.6989   23.4976 C   0  0  0  0  0  0  0  0  0  0  0  0
   13.9645  -18.4936   22.6271 O   0  0  0  0  0  0  0  0  0  0  0  0
   15.6652  -17.8716   23.9828 O   0  0  0  0  0  0  0  0  0  0  0  0
  2 13  1  0
  2  1  1  1
  3  4  1  0
  3  2  1  0
  4  5  2  0
  5  6  1  0
  7  6  1  0
  8  7  2  0
  9  8  1  0
 10 11  1  0
 10  9  2  0
 11 12  2  0
 12  4  1  0
 12  7  1  0
 13 14  2  0
 15 16  1  0
 15 13  1  0
 16 17  1  1
 18 22  1  0
 18 17  1  0
 19 18  2  0
 20 19  1  0
 20 21  1  0
 21 22  2  0
 23 24  2  0
 23 16  1  0
 25 23  1  0
 26 25  1  0
 27 26  1  0
 27 29  1  0
 28 27  2  0
M  END
$$$$
