WHG.pdb
     RDKit          3D

 29 31  0  0  1  0  0  0  0  0999 V2000
    6.6701  -17.2753   23.3605 N   0  0  0  0  0  0  0  0  0  0  0  0
    7.6097  -16.1952   23.2357 C   0  0  1  0  0  0  0  0  0  0  0  0
    8.2859  -16.0525   24.5994 C   0  0  0  0  0  0  0  0  0  0  0  0
    7.3975  -15.3300   25.5297 C   0  0  0  0  0  0  0  0  0  0  0  0
    6.4269  -15.9046   26.3477 C   0  0  0  0  0  0  0  0  0  0  0  0
    5.8143  -14.9437   27.0555 N   0  0  0  0  0  0  0  0  0  0  0  0
    6.3530  -13.7507   26.7279 C   0  0  0  0  0  0  0  0  0  0  0  0
    6.0716  -12.4588   27.1758 C   0  0  0  0  0  0  0  0  0  0  0  0
    6.7701  -11.3767   26.6834 C   0  0  0  0  0  0  0  0  0  0  0  0
    7.7427  -11.6332   25.7433 C   0  0  0  0  0  0  0  0  0  0  0  0
    8.0373  -12.8998   25.2870 C   0  0  0  0  0  0  0  0  0  0  0  0
    7.3394  -13.9831   25.7786 C   0  0  0  0  0  0  0  0  0  0  0  0
    8.6673  -16.5276   22.2404 C   0  0  0  0  0  0  0  0  0  0  0  0
    8.9768  -17.7243   22.0102 O   0  0  0  0  0  0  0  0  0  0  0  0
    9.3383  -15.5188   21.5409 N   0  0  0  0  0  0  0  0  0  0  0  0
   10.3448  -15.8109   20.4995 C   0  0  1  0  0  0  0  0  0  0  0  0
   10.4401  -14.6785   19.5347 C   0  0  0  0  0  0  0  0  0  0  0  0
    9.2277  -14.4155   18.7460 C   0  0  0  0  0  0  0  0  0  0  0  0
    8.6575  -15.3423   17.8645 C   0  0  0  0  0  0  0  0  0  0  0  0
    7.5839  -14.7894   17.3217 N   0  0  0  0  0  0  0  0  0  0  0  0
    7.4246  -13.5554   17.8011 C   0  0  0  0  0  0  0  0  0  0  0  0
    8.4255  -13.3510   18.6570 N   0  0  0  0  0  0  0  0  0  0  0  0
   11.6102  -16.1368   21.2041 C   0  0  0  0  0  0  0  0  0  0  0  0
   12.0137  -15.5353   22.2250 O   0  0  0  0  0  0  0  0  0  0  0  0
   12.4826  -17.1920   20.7526 N   0  0  0  0  0  0  0  0  0  0  0  0
   13.6820  -17.5499   21.4560 C   0  0  0  0  0  0  0  0  0  0  0  0
   14.5312  -18.4931   20.6954 C   0  0  0  0  0  0  0  0  0  0  0  0
   15.5684  -18.1127   20.1113 O   0  0  0  0  0  0  0  0  0  0  0  0
   14.1880  -19.8323   20.6157 O   0  0  0  0  0  0  0  0  0  0  0  0
  2 13  1  0
  2  1  1  1
  3  4  1  0
  3  2  1  0
  4  5  2  0
  5  6  1  0
  7  6  1  0
  8  7  2  0
  9  8  1  0
 10 11  1  0
 10  9  2  0
 11 12  2  0
 12  4  1  0
 12  7  1  0
 13 14  2  0
 15 16  1  0
 15 13  1  0
 16 17  1  6
 18 22  1  0
 18 17  1  0
 19 18  2  0
 20 19  1  0
 20 21  1  0
 21 22  2  0
 23 24  2  0
 23 16  1  0
 25 23  1  0
 26 25  1  0
 27 26  1  0
 27 29  1  0
 28 27  2  0
M  END
$$$$
