WHG.pdb
     RDKit          3D

 29 31  0  0  1  0  0  0  0  0999 V2000
   10.7261  -17.0597   21.1848 N   0  0  0  0  0  0  0  0  0  0  0  0
   10.4617  -16.1615   22.2750 C   0  0  1  0  0  0  0  0  0  0  0  0
    8.9730  -16.2987   22.5951 C   0  0  0  0  0  0  0  0  0  0  0  0
    8.1673  -15.7088   21.5090 C   0  0  0  0  0  0  0  0  0  0  0  0
    7.4851  -16.4140   20.5197 C   0  0  0  0  0  0  0  0  0  0  0  0
    6.8633  -15.5494   19.7040 N   0  0  0  0  0  0  0  0  0  0  0  0
    7.1156  -14.2930   20.1268 C   0  0  0  0  0  0  0  0  0  0  0  0
    6.7074  -13.0542   19.6292 C   0  0  0  0  0  0  0  0  0  0  0  0
    7.1021  -11.8851   20.2445 C   0  0  0  0  0  0  0  0  0  0  0  0
    7.9060  -12.0021   21.3562 C   0  0  0  0  0  0  0  0  0  0  0  0
    8.3208  -13.2140   21.8647 C   0  0  0  0  0  0  0  0  0  0  0  0
    7.9267  -14.3842   21.2501 C   0  0  0  0  0  0  0  0  0  0  0  0
   11.2234  -16.5667   23.4896 C   0  0  0  0  0  0  0  0  0  0  0  0
   10.9563  -16.0636   24.6106 O   0  0  0  0  0  0  0  0  0  0  0  0
   12.2502  -17.5136   23.4112 N   0  0  0  0  0  0  0  0  0  0  0  0
   13.1095  -17.8488   24.5653 C   0  0  1  0  0  0  0  0  0  0  0  0
   13.3201  -19.3223   24.6478 C   0  0  0  0  0  0  0  0  0  0  0  0
   12.1383  -20.1101   25.0273 C   0  0  0  0  0  0  0  0  0  0  0  0
   11.1663  -19.6664   25.9325 C   0  0  0  0  0  0  0  0  0  0  0  0
   10.2467  -20.6121   26.0471 N   0  0  0  0  0  0  0  0  0  0  0  0
   10.5668  -21.6451   25.2672 C   0  0  0  0  0  0  0  0  0  0  0  0
   11.7094  -21.3214   24.6623 N   0  0  0  0  0  0  0  0  0  0  0  0
   14.3522  -17.0492   24.4225 C   0  0  0  0  0  0  0  0  0  0  0  0
   15.2149  -16.9363   25.3223 O   0  0  0  0  0  0  0  0  0  0  0  0
   14.6597  -16.3308   23.2111 N   0  0  0  0  0  0  0  0  0  0  0  0
   15.8336  -15.5145   23.0798 C   0  0  0  0  0  0  0  0  0  0  0  0
   17.0443  -16.3016   22.7571 C   0  0  0  0  0  0  0  0  0  0  0  0
   16.9997  -17.5434   22.6242 O   0  0  0  0  0  0  0  0  0  0  0  0
   18.2651  -15.6686   22.5941 O   0  0  0  0  0  0  0  0  0  0  0  0
  2 13  1  0
  2  1  1  6
  3  4  1  0
  3  2  1  0
  4  5  2  0
  5  6  1  0
  7  6  1  0
  8  7  2  0
  9  8  1  0
 10 11  1  0
 10  9  2  0
 11 12  2  0
 12  4  1  0
 12  7  1  0
 13 14  2  0
 15 16  1  0
 15 13  1  0
 16 17  1  6
 18 22  1  0
 18 17  1  0
 19 18  2  0
 20 19  1  0
 20 21  1  0
 21 22  2  0
 23 24  2  0
 23 16  1  0
 25 23  1  0
 26 25  1  0
 27 26  1  0
 27 29  1  0
 28 27  2  0
M  END
$$$$
