WHG.pdb
     RDKit          3D

 29 31  0  0  1  0  0  0  0  0999 V2000
    6.4946  -17.1535   23.3378 N   0  0  0  0  0  0  0  0  0  0  0  0
    7.3903  -16.0483   23.1350 C   0  0  1  0  0  0  0  0  0  0  0  0
    8.0761  -15.7972   24.4781 C   0  0  0  0  0  0  0  0  0  0  0  0
    7.1918  -15.0070   25.3559 C   0  0  0  0  0  0  0  0  0  0  0  0
    6.1854  -15.5144   26.1751 C   0  0  0  0  0  0  0  0  0  0  0  0
    5.5893  -14.5045   26.8267 N   0  0  0  0  0  0  0  0  0  0  0  0
    6.1737  -13.3446   26.4609 C   0  0  0  0  0  0  0  0  0  0  0  0
    5.9250  -12.0261   26.8463 C   0  0  0  0  0  0  0  0  0  0  0  0
    6.6690  -10.9892   26.3243 C   0  0  0  0  0  0  0  0  0  0  0  0
    7.6529  -11.3172   25.4187 C   0  0  0  0  0  0  0  0  0  0  0  0
    7.9158  -12.6111   25.0241 C   0  0  0  0  0  0  0  0  0  0  0  0
    7.1723  -13.6493   25.5454 C   0  0  0  0  0  0  0  0  0  0  0  0
    8.4486  -16.4006   22.1472 C   0  0  0  0  0  0  0  0  0  0  0  0
    8.4740  -17.5391   21.6144 O   0  0  0  0  0  0  0  0  0  0  0  0
    9.4355  -15.4753   21.7907 N   0  0  0  0  0  0  0  0  0  0  0  0
   10.2988  -15.6540   20.6052 C   0  0  1  0  0  0  0  0  0  0  0  0
   10.2802  -14.4280   19.7573 C   0  0  0  0  0  0  0  0  0  0  0  0
    8.9935  -14.1221   19.1154 C   0  0  0  0  0  0  0  0  0  0  0  0
    8.2351  -12.9798   19.3998 C   0  0  0  0  0  0  0  0  0  0  0  0
    7.1425  -13.0131   18.6528 N   0  0  0  0  0  0  0  0  0  0  0  0
    7.1486  -14.1130   17.8991 C   0  0  0  0  0  0  0  0  0  0  0  0
    8.2723  -14.7662   18.1937 N   0  0  0  0  0  0  0  0  0  0  0  0
   11.6408  -16.0448   21.1057 C   0  0  0  0  0  0  0  0  0  0  0  0
   12.6637  -16.0986   20.3865 O   0  0  0  0  0  0  0  0  0  0  0  0
   11.8654  -16.3973   22.4854 N   0  0  0  0  0  0  0  0  0  0  0  0
   13.1535  -16.8007   22.9745 C   0  0  0  0  0  0  0  0  0  0  0  0
   13.1466  -17.1019   24.4232 C   0  0  0  0  0  0  0  0  0  0  0  0
   12.0783  -17.2122   25.0621 O   0  0  0  0  0  0  0  0  0  0  0  0
   14.3392  -17.2692   25.1068 O   0  0  0  0  0  0  0  0  0  0  0  0
  2 13  1  0
  2  1  1  1
  3  4  1  0
  3  2  1  0
  4  5  2  0
  5  6  1  0
  7  6  1  0
  8  7  2  0
  9  8  1  0
 10 11  1  0
 10  9  2  0
 11 12  2  0
 12  4  1  0
 12  7  1  0
 13 14  2  0
 15 16  1  0
 15 13  1  0
 16 17  1  1
 18 22  1  0
 18 17  1  0
 19 18  2  0
 20 19  1  0
 20 21  1  0
 21 22  2  0
 23 24  2  0
 23 16  1  0
 25 23  1  0
 26 25  1  0
 27 26  1  0
 27 29  1  0
 28 27  2  0
M  END
$$$$
