WHG.pdb
     RDKit          3D

 29 31  0  0  1  0  0  0  0  0999 V2000
    6.9510  -17.9436   23.6593 N   0  0  0  0  0  0  0  0  0  0  0  0
    7.5824  -16.6528   23.6473 C   0  0  1  0  0  0  0  0  0  0  0  0
    8.0424  -16.3847   25.0804 C   0  0  0  0  0  0  0  0  0  0  0  0
    7.1717  -15.3726   25.7085 C   0  0  0  0  0  0  0  0  0  0  0  0
    5.9827  -15.6245   26.3897 C   0  0  0  0  0  0  0  0  0  0  0  0
    5.4632  -14.4663   26.8234 N   0  0  0  0  0  0  0  0  0  0  0  0
    6.2757  -13.4565   26.4478 C   0  0  0  0  0  0  0  0  0  0  0  0
    6.1855  -12.0781   26.6492 C   0  0  0  0  0  0  0  0  0  0  0  0
    7.1580  -11.2314   26.1605 C   0  0  0  0  0  0  0  0  0  0  0  0
    8.2043  -11.8074   25.4755 C   0  0  0  0  0  0  0  0  0  0  0  0
    8.3136  -13.1649   25.2650 C   0  0  0  0  0  0  0  0  0  0  0  0
    7.3416  -14.0130   25.7533 C   0  0  0  0  0  0  0  0  0  0  0  0
    8.7937  -16.6655   22.7798 C   0  0  0  0  0  0  0  0  0  0  0  0
    9.2839  -17.7521   22.3801 O   0  0  0  0  0  0  0  0  0  0  0  0
    9.4115  -15.4720   22.3909 N   0  0  0  0  0  0  0  0  0  0  0  0
   10.4594  -15.4241   21.3506 C   0  0  1  0  0  0  0  0  0  0  0  0
   10.3348  -14.1776   20.5424 C   0  0  0  0  0  0  0  0  0  0  0  0
    9.0867  -14.0415   19.7777 C   0  0  0  0  0  0  0  0  0  0  0  0
    8.6308  -14.9938   18.8578 C   0  0  0  0  0  0  0  0  0  0  0  0
    7.4857  -14.5635   18.3514 N   0  0  0  0  0  0  0  0  0  0  0  0
    7.1720  -13.3852   18.8908 C   0  0  0  0  0  0  0  0  0  0  0  0
    8.1497  -13.0897   19.7469 N   0  0  0  0  0  0  0  0  0  0  0  0
   11.7616  -15.5889   22.0443 C   0  0  0  0  0  0  0  0  0  0  0  0
   12.8719  -15.4596   21.4812 O   0  0  0  0  0  0  0  0  0  0  0  0
   11.8409  -15.9166   23.4460 N   0  0  0  0  0  0  0  0  0  0  0  0
   13.0942  -16.0393   24.1357 C   0  0  0  0  0  0  0  0  0  0  0  0
   13.7601  -17.3367   23.8853 C   0  0  0  0  0  0  0  0  0  0  0  0
   13.2604  -18.1906   23.1219 O   0  0  0  0  0  0  0  0  0  0  0  0
   14.9651  -17.6325   24.5002 O   0  0  0  0  0  0  0  0  0  0  0  0
  2 13  1  0
  2  1  1  1
  3  4  1  0
  3  2  1  0
  4  5  2  0
  5  6  1  0
  7  6  1  0
  8  7  2  0
  9  8  1  0
 10 11  1  0
 10  9  2  0
 11 12  2  0
 12  4  1  0
 12  7  1  0
 13 14  2  0
 15 16  1  0
 15 13  1  0
 16 17  1  1
 18 22  1  0
 18 17  1  0
 19 18  2  0
 20 19  1  0
 20 21  1  0
 21 22  2  0
 23 24  2  0
 23 16  1  0
 25 23  1  0
 26 25  1  0
 27 26  1  0
 27 29  1  0
 28 27  2  0
M  END
$$$$
