WHG.pdb
     RDKit          3D

 29 31  0  0  1  0  0  0  0  0999 V2000
    6.7243  -17.8366   23.7011 N   0  0  0  0  0  0  0  0  0  0  0  0
    7.6971  -16.8083   23.4534 C   0  0  1  0  0  0  0  0  0  0  0  0
    8.3278  -16.4769   24.8061 C   0  0  0  0  0  0  0  0  0  0  0  0
    7.4703  -15.5297   25.5438 C   0  0  0  0  0  0  0  0  0  0  0  0
    6.3728  -15.8637   26.3346 C   0  0  0  0  0  0  0  0  0  0  0  0
    5.8361  -14.7464   26.8474 N   0  0  0  0  0  0  0  0  0  0  0  0
    6.5482  -13.6838   26.4175 C   0  0  0  0  0  0  0  0  0  0  0  0
    6.4017  -12.3171   26.6616 C   0  0  0  0  0  0  0  0  0  0  0  0
    7.2703  -11.4059   26.0990 C   0  0  0  0  0  0  0  0  0  0  0  0
    8.2720  -11.9064   25.2979 C   0  0  0  0  0  0  0  0  0  0  0  0
    8.4353  -13.2509   25.0434 C   0  0  0  0  0  0  0  0  0  0  0  0
    7.5673  -14.1636   25.6055 C   0  0  0  0  0  0  0  0  0  0  0  0
    8.7801  -17.3098   22.5616 C   0  0  0  0  0  0  0  0  0  0  0  0
    9.0927  -18.5276   22.5558 O   0  0  0  0  0  0  0  0  0  0  0  0
    9.4721  -16.4397   21.7123 N   0  0  0  0  0  0  0  0  0  0  0  0
   10.5373  -16.9031   20.7993 C   0  0  1  0  0  0  0  0  0  0  0  0
   10.5677  -16.0658   19.5663 C   0  0  0  0  0  0  0  0  0  0  0  0
    9.3814  -16.1662   18.7039 C   0  0  0  0  0  0  0  0  0  0  0  0
    8.7497  -17.3756   18.3887 C   0  0  0  0  0  0  0  0  0  0  0  0
    7.7218  -17.1104   17.5975 N   0  0  0  0  0  0  0  0  0  0  0  0
    7.6503  -15.7967   17.3810 C   0  0  0  0  0  0  0  0  0  0  0  0
    8.6592  -15.2474   18.0567 N   0  0  0  0  0  0  0  0  0  0  0  0
   11.8001  -16.9083   21.5798 C   0  0  0  0  0  0  0  0  0  0  0  0
   12.2808  -15.8939   22.1335 O   0  0  0  0  0  0  0  0  0  0  0  0
   12.5789  -18.1082   21.7592 N   0  0  0  0  0  0  0  0  0  0  0  0
   13.7366  -18.1522   22.6072 C   0  0  0  0  0  0  0  0  0  0  0  0
   14.9553  -17.6459   21.9380 C   0  0  0  0  0  0  0  0  0  0  0  0
   16.0555  -17.6045   22.5291 O   0  0  0  0  0  0  0  0  0  0  0  0
   14.8986  -17.2026   20.6273 O   0  0  0  0  0  0  0  0  0  0  0  0
  2 13  1  0
  2  1  1  1
  3  4  1  0
  3  2  1  0
  4  5  2  0
  5  6  1  0
  7  6  1  0
  8  7  2  0
  9  8  1  0
 10 11  1  0
 10  9  2  0
 11 12  2  0
 12  4  1  0
 12  7  1  0
 13 14  2  0
 15 16  1  0
 15 13  1  0
 16 17  1  6
 18 22  1  0
 18 17  1  0
 19 18  2  0
 20 19  1  0
 20 21  1  0
 21 22  2  0
 23 24  2  0
 23 16  1  0
 25 23  1  0
 26 25  1  0
 27 26  1  0
 27 29  1  0
 28 27  2  0
M  END
$$$$
