QYD.pdb
     RDKit          3D

 30 30  0  0  1  0  0  0  0  0999 V2000
   29.5934  -19.7263  -12.1089 N   0  0  0  0  0  0  0  0  0  0  0  0
   29.8024  -20.4329  -10.8761 C   0  0  0  0  0  0  0  0  0  0  0  0
   30.7355  -20.0352  -10.1621 O   0  0  0  0  0  0  0  0  0  0  0  0
   28.8823  -21.5495  -10.6012 C   0  0  0  0  0  0  0  0  0  0  0  0
   27.8445  -21.7867  -11.6614 C   0  0  0  0  0  0  0  0  0  0  0  0
   26.7270  -20.7933  -11.4982 C   0  0  2  0  0  0  0  0  0  0  0  0
   26.1515  -20.9606  -10.1731 N   0  0  0  0  0  0  0  0  0  0  0  0
   25.6601  -20.9536  -12.4928 C   0  0  0  0  0  0  0  0  0  0  0  0
   25.9633  -20.9856  -13.7103 O   0  0  0  0  0  0  0  0  0  0  0  0
   18.4977  -21.9255  -17.2034 O   0  0  0  0  0  0  0  0  0  0  0  0
   19.3501  -21.8716  -16.0984 C   0  0  0  0  0  0  0  0  0  0  0  0
   19.0912  -21.0174  -15.0467 C   0  0  0  0  0  0  0  0  0  0  0  0
   19.9429  -20.9750  -13.9609 C   0  0  0  0  0  0  0  0  0  0  0  0
   21.0622  -21.7767  -13.9003 C   0  0  0  0  0  0  0  0  0  0  0  0
   22.0044  -21.7647  -12.7540 C   0  0  0  0  0  0  0  0  0  0  0  0
   23.2829  -21.0699  -13.1685 C   0  0  2  0  0  0  0  0  0  0  0  0
   24.2780  -21.0767  -12.1481 N   0  0  0  0  0  0  0  0  0  0  0  0
   22.9071  -19.6919  -13.5958 C   0  0  0  0  0  0  0  0  0  0  0  0
   22.6986  -18.7593  -12.7792 O   0  0  0  0  0  0  0  0  0  0  0  0
   21.3231  -22.6300  -14.9483 C   0  0  0  0  0  0  0  0  0  0  0  0
   20.4702  -22.6731  -16.0367 C   0  0  0  0  0  0  0  0  0  0  0  0
   22.7749  -19.4029  -14.9721 N   0  0  0  0  0  0  0  0  0  0  0  0
   22.5341  -18.0444  -15.4651 C   0  0  1  0  0  0  0  0  0  0  0  0
   23.7966  -17.3803  -15.8855 C   0  0  0  0  0  0  0  0  0  0  0  0
   23.5394  -16.0262  -16.4176 C   0  0  0  0  0  0  0  0  0  0  0  0
   23.3353  -15.8380  -17.6717 O   0  0  0  0  0  0  0  0  0  0  0  0
   21.6142  -18.1206  -16.6481 C   0  0  0  0  0  0  0  0  0  0  0  0
   20.6338  -17.2301  -16.9592 O   0  0  0  0  0  0  0  0  0  0  0  0
   23.4991  -14.8823  -15.6486 O   0  0  0  0  0  0  0  0  0  0  0  0
   21.7490  -19.1064  -17.4489 O   0  0  0  0  0  0  0  0  0  0  0  0
  1  2  1  0
  2  3  2  0
  4  5  1  0
  4  2  1  0
  6  7  1  1
  6  5  1  0
  8  6  1  0
  9  8  2  0
 10 11  1  0
 11 12  2  0
 11 21  1  0
 12 13  1  0
 13 14  2  0
 14 15  1  0
 16 15  1  1
 16 17  1  0
 17  8  1  0
 18 22  1  0
 18 16  1  0
 19 18  2  0
 20 14  1  0
 21 20  2  0
 23 27  1  0
 23 22  1  0
 23 24  1  6
 25 24  1  0
 25 26  2  0
 27 28  1  0
 29 25  1  0
 30 27  2  0
M  END
$$$$
