QYD.pdb
     RDKit          3D

 30 30  0  0  1  0  0  0  0  0999 V2000
   21.4928  -16.2082  -18.4446 N   0  0  0  0  0  0  0  0  0  0  0  0
   22.5806  -15.4204  -18.9535 C   0  0  0  0  0  0  0  0  0  0  0  0
   22.4364  -14.1891  -18.9162 O   0  0  0  0  0  0  0  0  0  0  0  0
   23.7441  -16.1673  -19.4609 C   0  0  0  0  0  0  0  0  0  0  0  0
   23.6441  -17.6600  -19.3227 C   0  0  0  0  0  0  0  0  0  0  0  0
   24.8024  -18.1652  -18.5070 C   0  0  2  0  0  0  0  0  0  0  0  0
   25.8011  -18.7103  -19.4128 N   0  0  0  0  0  0  0  0  0  0  0  0
   24.4236  -19.2096  -17.5485 C   0  0  0  0  0  0  0  0  0  0  0  0
   24.3436  -20.3981  -17.9439 O   0  0  0  0  0  0  0  0  0  0  0  0
   29.4192  -22.2685  -16.9126 O   0  0  0  0  0  0  0  0  0  0  0  0
   28.2840  -21.7794  -16.2627 C   0  0  0  0  0  0  0  0  0  0  0  0
   28.1793  -20.4446  -15.9305 C   0  0  0  0  0  0  0  0  0  0  0  0
   27.0509  -19.9755  -15.2881 C   0  0  0  0  0  0  0  0  0  0  0  0
   26.0106  -20.8197  -14.9655 C   0  0  0  0  0  0  0  0  0  0  0  0
   24.7797  -20.3596  -14.2760 C   0  0  0  0  0  0  0  0  0  0  0  0
   23.7334  -20.0059  -15.3100 C   0  0  2  0  0  0  0  0  0  0  0  0
   24.1372  -18.9458  -16.1729 N   0  0  0  0  0  0  0  0  0  0  0  0
   22.4786  -19.6960  -14.5669 C   0  0  0  0  0  0  0  0  0  0  0  0
   22.1618  -18.5291  -14.2233 O   0  0  0  0  0  0  0  0  0  0  0  0
   26.1122  -22.1521  -15.2957 C   0  0  0  0  0  0  0  0  0  0  0  0
   27.2425  -22.6231  -15.9393 C   0  0  0  0  0  0  0  0  0  0  0  0
   21.5959  -20.7447  -14.2257 N   0  0  0  0  0  0  0  0  0  0  0  0
   20.2742  -20.4950  -13.6451 C   0  0  1  0  0  0  0  0  0  0  0  0
   19.4399  -19.6357  -14.5268 C   0  0  0  0  0  0  0  0  0  0  0  0
   18.1166  -19.3733  -13.9242 C   0  0  0  0  0  0  0  0  0  0  0  0
   18.0069  -18.6750  -12.8517 O   0  0  0  0  0  0  0  0  0  0  0  0
   19.5775  -21.8107  -13.4577 C   0  0  0  0  0  0  0  0  0  0  0  0
   18.5860  -22.0719  -12.5634 O   0  0  0  0  0  0  0  0  0  0  0  0
   16.9229  -19.8378  -14.4347 O   0  0  0  0  0  0  0  0  0  0  0  0
   19.9352  -22.7884  -14.1976 O   0  0  0  0  0  0  0  0  0  0  0  0
  1  2  1  0
  2  3  2  0
  4  5  1  0
  4  2  1  0
  6  7  1  6
  6  5  1  0
  8  6  1  0
  9  8  2  0
 10 11  1  0
 11 12  2  0
 11 21  1  0
 12 13  1  0
 13 14  2  0
 14 15  1  0
 16 15  1  1
 16 17  1  0
 17  8  1  0
 18 22  1  0
 18 16  1  0
 19 18  2  0
 20 14  1  0
 21 20  2  0
 23 27  1  0
 23 22  1  0
 23 24  1  6
 25 24  1  0
 25 26  2  0
 27 28  1  0
 29 25  1  0
 30 27  2  0
M  END
$$$$
