QYD.pdb
     RDKit          3D

 30 30  0  0  1  0  0  0  0  0999 V2000
   31.6818  -20.7304  -18.7815 N   0  0  0  0  0  0  0  0  0  0  0  0
   31.0644  -20.7334  -20.0783 C   0  0  0  0  0  0  0  0  0  0  0  0
   31.7052  -20.2005  -20.9970 O   0  0  0  0  0  0  0  0  0  0  0  0
   29.7398  -21.3708  -20.1677 C   0  0  0  0  0  0  0  0  0  0  0  0
   29.2221  -21.9328  -18.8741 C   0  0  0  0  0  0  0  0  0  0  0  0
   28.0075  -21.1574  -18.4428 C   0  0  2  0  0  0  0  0  0  0  0  0
   28.2519  -19.7447  -18.6870 N   0  0  0  0  0  0  0  0  0  0  0  0
   27.6815  -21.3349  -17.0231 C   0  0  0  0  0  0  0  0  0  0  0  0
   27.3849  -22.4808  -16.6058 O   0  0  0  0  0  0  0  0  0  0  0  0
   25.1845  -20.7961   -8.7800 O   0  0  0  0  0  0  0  0  0  0  0  0
   25.8317  -20.5262   -9.9877 C   0  0  0  0  0  0  0  0  0  0  0  0
   25.6974  -19.2989  -10.6031 C   0  0  0  0  0  0  0  0  0  0  0  0
   26.3433  -19.0465  -11.7969 C   0  0  0  0  0  0  0  0  0  0  0  0
   27.1309  -20.0041  -12.3984 C   0  0  0  0  0  0  0  0  0  0  0  0
   27.8434  -19.7768  -13.6802 C   0  0  0  0  0  0  0  0  0  0  0  0
   27.0690  -20.4321  -14.8025 C   0  0  2  0  0  0  0  0  0  0  0  0
   27.6828  -20.2625  -16.0777 N   0  0  0  0  0  0  0  0  0  0  0  0
   25.6850  -19.8799  -14.7528 C   0  0  0  0  0  0  0  0  0  0  0  0
   25.4089  -18.7035  -15.0993 O   0  0  0  0  0  0  0  0  0  0  0  0
   27.2668  -21.2296  -11.7868 C   0  0  0  0  0  0  0  0  0  0  0  0
   26.6199  -21.4834  -10.5906 C   0  0  0  0  0  0  0  0  0  0  0  0
   24.6262  -20.6979  -14.3000 N   0  0  0  0  0  0  0  0  0  0  0  0
   23.2423  -20.2209  -14.2383 C   0  0  1  0  0  0  0  0  0  0  0  0
   22.5077  -20.5000  -15.5009 C   0  0  0  0  0  0  0  0  0  0  0  0
   21.1231  -19.9880  -15.4407 C   0  0  0  0  0  0  0  0  0  0  0  0
   20.8862  -18.7595  -15.1499 O   0  0  0  0  0  0  0  0  0  0  0  0
   22.5440  -20.9228  -13.1108 C   0  0  0  0  0  0  0  0  0  0  0  0
   22.7934  -22.1883  -12.6780 O   0  0  0  0  0  0  0  0  0  0  0  0
   19.9998  -20.7514  -15.6785 O   0  0  0  0  0  0  0  0  0  0  0  0
   21.6270  -20.2890  -12.4874 O   0  0  0  0  0  0  0  0  0  0  0  0
  1  2  1  0
  2  3  2  0
  4  5  1  0
  4  2  1  0
  6  7  1  1
  6  5  1  0
  8  6  1  0
  9  8  2  0
 10 11  1  0
 11 12  2  0
 11 21  1  0
 12 13  1  0
 13 14  2  0
 14 15  1  0
 16 15  1  1
 16 17  1  0
 17  8  1  0
 18 22  1  0
 18 16  1  0
 19 18  2  0
 20 14  1  0
 21 20  2  0
 23 27  1  0
 23 22  1  0
 23 24  1  6
 25 24  1  0
 25 26  2  0
 27 28  1  0
 29 25  1  0
 30 27  2  0
M  END
$$$$
