QYD.pdb
     RDKit          3D

 30 30  0  0  1  0  0  0  0  0999 V2000
   17.6585  -13.4300  -15.8032 N   0  0  0  0  0  0  0  0  0  0  0  0
   18.1862  -12.9731  -17.0584 C   0  0  0  0  0  0  0  0  0  0  0  0
   17.6830  -13.4626  -18.0809 O   0  0  0  0  0  0  0  0  0  0  0  0
   19.2653  -11.9734  -16.9861 C   0  0  0  0  0  0  0  0  0  0  0  0
   19.5725  -11.4764  -15.6020 C   0  0  0  0  0  0  0  0  0  0  0  0
   19.0315  -10.0824  -15.4399 C   0  0  2  0  0  0  0  0  0  0  0  0
   19.8571   -9.1740  -16.2198 N   0  0  0  0  0  0  0  0  0  0  0  0
   19.0226   -9.6232  -14.0462 C   0  0  0  0  0  0  0  0  0  0  0  0
   18.4130  -10.3035  -13.1855 O   0  0  0  0  0  0  0  0  0  0  0  0
   22.7672   -3.5152  -15.3476 O   0  0  0  0  0  0  0  0  0  0  0  0
   22.2841   -4.4611  -14.4408 C   0  0  0  0  0  0  0  0  0  0  0  0
   21.4603   -4.0863  -13.3997 C   0  0  0  0  0  0  0  0  0  0  0  0
   20.9903   -5.0327  -12.5112 C   0  0  0  0  0  0  0  0  0  0  0  0
   21.3284   -6.3625  -12.6399 C   0  0  0  0  0  0  0  0  0  0  0  0
   20.8467   -7.4132  -11.7093 C   0  0  0  0  0  0  0  0  0  0  0  0
   19.5662   -8.0089  -12.2519 C   0  0  2  0  0  0  0  0  0  0  0  0
   19.6775   -8.4299  -13.6091 N   0  0  0  0  0  0  0  0  0  0  0  0
   18.4966   -6.9898  -12.0521 C   0  0  0  0  0  0  0  0  0  0  0  0
   18.0630   -6.2666  -12.9843 O   0  0  0  0  0  0  0  0  0  0  0  0
   22.1503   -6.7394  -13.6778 C   0  0  0  0  0  0  0  0  0  0  0  0
   22.6217   -5.7918  -14.5686 C   0  0  0  0  0  0  0  0  0  0  0  0
   17.9344   -6.8148  -10.7680 N   0  0  0  0  0  0  0  0  0  0  0  0
   16.9468   -5.7708  -10.4837 C   0  0  1  0  0  0  0  0  0  0  0  0
   15.5601   -6.3081  -10.4947 C   0  0  0  0  0  0  0  0  0  0  0  0
   14.5746   -5.2572  -10.1672 C   0  0  0  0  0  0  0  0  0  0  0  0
   13.9494   -5.2659   -9.0451 O   0  0  0  0  0  0  0  0  0  0  0  0
   17.2304   -5.2009   -9.1249 C   0  0  0  0  0  0  0  0  0  0  0  0
   16.7482   -4.0283   -8.6314 O   0  0  0  0  0  0  0  0  0  0  0  0
   14.2443   -4.2118  -11.0035 O   0  0  0  0  0  0  0  0  0  0  0  0
   17.9939   -5.8642   -8.3449 O   0  0  0  0  0  0  0  0  0  0  0  0
  1  2  1  0
  2  3  2  0
  4  5  1  0
  4  2  1  0
  6  7  1  6
  6  5  1  0
  8  6  1  0
  9  8  2  0
 10 11  1  0
 11 12  2  0
 11 21  1  0
 12 13  1  0
 13 14  2  0
 14 15  1  0
 16 15  1  6
 16 17  1  0
 17  8  1  0
 18 22  1  0
 18 16  1  0
 19 18  2  0
 20 14  1  0
 21 20  2  0
 23 27  1  0
 23 22  1  0
 23 24  1  1
 25 24  1  0
 25 26  2  0
 27 28  1  0
 29 25  1  0
 30 27  2  0
M  END
$$$$
