QYD.pdb
     RDKit          3D

 30 30  0  0  1  0  0  0  0  0999 V2000
   27.0993  -17.9100  -14.6019 N   0  0  0  0  0  0  0  0  0  0  0  0
   28.3977  -18.2230  -15.1301 C   0  0  0  0  0  0  0  0  0  0  0  0
   29.0301  -17.2834  -15.6357 O   0  0  0  0  0  0  0  0  0  0  0  0
   28.8292  -19.6259  -15.0094 C   0  0  0  0  0  0  0  0  0  0  0  0
   27.9389  -20.4885  -14.1606 C   0  0  0  0  0  0  0  0  0  0  0  0
   28.5324  -20.6177  -12.7846 C   0  0  2  0  0  0  0  0  0  0  0  0
   29.6055  -21.5979  -12.8357 N   0  0  0  0  0  0  0  0  0  0  0  0
   27.5597  -21.0446  -11.7723 C   0  0  0  0  0  0  0  0  0  0  0  0
   27.1169  -22.2183  -11.8109 O   0  0  0  0  0  0  0  0  0  0  0  0
   29.1414  -20.4816   -4.7510 O   0  0  0  0  0  0  0  0  0  0  0  0
   28.2452  -20.2584   -5.7986 C   0  0  0  0  0  0  0  0  0  0  0  0
   27.7554  -21.3091   -6.5462 C   0  0  0  0  0  0  0  0  0  0  0  0
   26.8700  -21.0730   -7.5788 C   0  0  0  0  0  0  0  0  0  0  0  0
   26.4569  -19.7948   -7.8863 C   0  0  0  0  0  0  0  0  0  0  0  0
   25.5072  -19.4944   -8.9863 C   0  0  0  0  0  0  0  0  0  0  0  0
   25.7971  -20.4080  -10.1569 C   0  0  2  0  0  0  0  0  0  0  0  0
   27.0825  -20.1877  -10.7321 N   0  0  0  0  0  0  0  0  0  0  0  0
   24.6891  -20.2205  -11.1366 C   0  0  0  0  0  0  0  0  0  0  0  0
   24.8355  -19.5971  -12.2182 O   0  0  0  0  0  0  0  0  0  0  0  0
   26.9439  -18.7443   -7.1421 C   0  0  0  0  0  0  0  0  0  0  0  0
   27.8312  -18.9800   -6.1072 C   0  0  0  0  0  0  0  0  0  0  0  0
   23.4138  -20.7589  -10.8551 N   0  0  0  0  0  0  0  0  0  0  0  0
   22.3576  -20.8351  -11.8675 C   0  0  1  0  0  0  0  0  0  0  0  0
   22.4169  -22.1114  -12.6287 C   0  0  0  0  0  0  0  0  0  0  0  0
   21.3519  -22.1767  -13.6506 C   0  0  0  0  0  0  0  0  0  0  0  0
   20.5031  -21.2214  -13.7808 O   0  0  0  0  0  0  0  0  0  0  0  0
   21.0274  -20.7477  -11.1788 C   0  0  0  0  0  0  0  0  0  0  0  0
   19.8769  -20.2608  -11.7175 O   0  0  0  0  0  0  0  0  0  0  0  0
   21.1743  -23.2291  -14.5237 O   0  0  0  0  0  0  0  0  0  0  0  0
   20.9483  -21.1644   -9.9741 O   0  0  0  0  0  0  0  0  0  0  0  0
  1  2  1  0
  2  3  2  0
  4  5  1  0
  4  2  1  0
  6  7  1  6
  6  5  1  0
  8  6  1  0
  9  8  2  0
 10 11  1  0
 11 12  2  0
 11 21  1  0
 12 13  1  0
 13 14  2  0
 14 15  1  0
 16 15  1  1
 16 17  1  0
 17  8  1  0
 18 22  1  0
 18 16  1  0
 19 18  2  0
 20 14  1  0
 21 20  2  0
 23 27  1  0
 23 22  1  0
 23 24  1  1
 25 24  1  0
 25 26  2  0
 27 28  1  0
 29 25  1  0
 30 27  2  0
M  END
$$$$
