QYD.pdb
     RDKit          3D

 30 30  0  0  1  0  0  0  0  0999 V2000
   22.4085  -27.0062  -12.7023 N   0  0  0  0  0  0  0  0  0  0  0  0
   21.9243  -27.5017  -13.9603 C   0  0  0  0  0  0  0  0  0  0  0  0
   21.8235  -28.7332  -14.0677 O   0  0  0  0  0  0  0  0  0  0  0  0
   21.6019  -26.4882  -14.9791 C   0  0  0  0  0  0  0  0  0  0  0  0
   21.9240  -25.0744  -14.5858 C   0  0  0  0  0  0  0  0  0  0  0  0
   23.1074  -24.5921  -15.3789 C   0  0  2  0  0  0  0  0  0  0  0  0
   24.3071  -25.2134  -14.8407 N   0  0  0  0  0  0  0  0  0  0  0  0
   23.2782  -23.1353  -15.3361 C   0  0  0  0  0  0  0  0  0  0  0  0
   22.2921  -22.4155  -15.0452 O   0  0  0  0  0  0  0  0  0  0  0  0
   24.5595  -21.3383   -9.1904 O   0  0  0  0  0  0  0  0  0  0  0  0
   24.8525  -21.1399  -10.5414 C   0  0  0  0  0  0  0  0  0  0  0  0
   24.4278  -20.0032  -11.1976 C   0  0  0  0  0  0  0  0  0  0  0  0
   24.7251  -19.8209  -12.5334 C   0  0  0  0  0  0  0  0  0  0  0  0
   25.4463  -20.7599  -13.2385 C   0  0  0  0  0  0  0  0  0  0  0  0
   25.7889  -20.6055  -14.6742 C   0  0  0  0  0  0  0  0  0  0  0  0
   24.6187  -21.0637  -15.5166 C   0  0  2  0  0  0  0  0  0  0  0  0
   24.5201  -22.4825  -15.6107 N   0  0  0  0  0  0  0  0  0  0  0  0
   24.7613  -20.4078  -16.8479 C   0  0  0  0  0  0  0  0  0  0  0  0
   25.4415  -20.9037  -17.7814 O   0  0  0  0  0  0  0  0  0  0  0  0
   25.8714  -21.8950  -12.5864 C   0  0  0  0  0  0  0  0  0  0  0  0
   25.5740  -22.0786  -11.2479 C   0  0  0  0  0  0  0  0  0  0  0  0
   24.1121  -19.1767  -17.0892 N   0  0  0  0  0  0  0  0  0  0  0  0
   24.0977  -18.5478  -18.4123 C   0  0  1  0  0  0  0  0  0  0  0  0
   23.0965  -17.4507  -18.4887 C   0  0  0  0  0  0  0  0  0  0  0  0
   21.7236  -17.9630  -18.3006 C   0  0  0  0  0  0  0  0  0  0  0  0
   21.3994  -19.1416  -18.6953 O   0  0  0  0  0  0  0  0  0  0  0  0
   25.4581  -17.9767  -18.6856 C   0  0  0  0  0  0  0  0  0  0  0  0
   26.0387  -17.8400  -19.9084 O   0  0  0  0  0  0  0  0  0  0  0  0
   20.7011  -17.2509  -17.7101 O   0  0  0  0  0  0  0  0  0  0  0  0
   26.1505  -17.5763  -17.6898 O   0  0  0  0  0  0  0  0  0  0  0  0
  1  2  1  0
  2  3  2  0
  4  5  1  0
  4  2  1  0
  6  7  1  1
  6  5  1  0
  8  6  1  0
  9  8  2  0
 10 11  1  0
 11 12  2  0
 11 21  1  0
 12 13  1  0
 13 14  2  0
 14 15  1  0
 16 15  1  1
 16 17  1  0
 17  8  1  0
 18 22  1  0
 18 16  1  0
 19 18  2  0
 20 14  1  0
 21 20  2  0
 23 27  1  0
 23 22  1  0
 23 24  1  1
 25 24  1  0
 25 26  2  0
 27 28  1  0
 29 25  1  0
 30 27  2  0
M  END
$$$$
