QYD.pdb
     RDKit          3D

 30 30  0  0  1  0  0  0  0  0999 V2000
   27.4064  -21.5706  -21.0211 N   0  0  0  0  0  0  0  0  0  0  0  0
   28.5841  -20.7524  -20.9412 C   0  0  0  0  0  0  0  0  0  0  0  0
   29.2299  -20.6088  -21.9903 O   0  0  0  0  0  0  0  0  0  0  0  0
   28.8888  -20.1766  -19.6203 C   0  0  0  0  0  0  0  0  0  0  0  0
   27.8405  -20.4164  -18.5711 C   0  0  0  0  0  0  0  0  0  0  0  0
   28.3827  -21.3549  -17.5281 C   0  0  2  0  0  0  0  0  0  0  0  0
   28.4267  -22.6947  -18.0919 N   0  0  0  0  0  0  0  0  0  0  0  0
   27.5733  -21.3908  -16.3047 C   0  0  0  0  0  0  0  0  0  0  0  0
   26.4876  -22.0206  -16.3120 O   0  0  0  0  0  0  0  0  0  0  0  0
   24.1978  -21.0243   -8.3594 O   0  0  0  0  0  0  0  0  0  0  0  0
   25.0612  -20.7899   -9.4317 C   0  0  0  0  0  0  0  0  0  0  0  0
   25.4137  -19.5046   -9.7878 C   0  0  0  0  0  0  0  0  0  0  0  0
   26.2684  -19.2884  -10.8503 C   0  0  0  0  0  0  0  0  0  0  0  0
   26.7862  -20.3399  -11.5750 C   0  0  0  0  0  0  0  0  0  0  0  0
   27.7077  -20.1546  -12.7233 C   0  0  0  0  0  0  0  0  0  0  0  0
   27.0860  -20.7601  -13.9625 C   0  0  2  0  0  0  0  0  0  0  0  0
   27.9569  -20.7406  -15.0906 N   0  0  0  0  0  0  0  0  0  0  0  0
   25.8106  -20.0281  -14.2082 C   0  0  0  0  0  0  0  0  0  0  0  0
   25.7760  -18.8375  -14.6101 O   0  0  0  0  0  0  0  0  0  0  0  0
   26.4362  -21.6234  -11.2220 C   0  0  0  0  0  0  0  0  0  0  0  0
   25.5799  -21.8411  -10.1575 C   0  0  0  0  0  0  0  0  0  0  0  0
   24.5792  -20.6833  -13.9857 N   0  0  0  0  0  0  0  0  0  0  0  0
   23.2912  -20.0251  -14.2187 C   0  0  1  0  0  0  0  0  0  0  0  0
   22.7268  -20.3769  -15.5490 C   0  0  0  0  0  0  0  0  0  0  0  0
   22.5838  -19.1809  -16.4046 C   0  0  0  0  0  0  0  0  0  0  0  0
   22.5023  -18.0071  -15.8894 O   0  0  0  0  0  0  0  0  0  0  0  0
   22.3285  -20.4674  -13.1561 C   0  0  0  0  0  0  0  0  0  0  0  0
   21.3446  -19.7094  -12.6008 O   0  0  0  0  0  0  0  0  0  0  0  0
   22.5234  -19.2118  -17.7818 O   0  0  0  0  0  0  0  0  0  0  0  0
   22.4265  -21.6637  -12.7197 O   0  0  0  0  0  0  0  0  0  0  0  0
  1  2  1  0
  2  3  2  0
  4  5  1  0
  4  2  1  0
  6  7  1  6
  6  5  1  0
  8  6  1  0
  9  8  2  0
 10 11  1  0
 11 12  2  0
 11 21  1  0
 12 13  1  0
 13 14  2  0
 14 15  1  0
 16 15  1  1
 16 17  1  0
 17  8  1  0
 18 22  1  0
 18 16  1  0
 19 18  2  0
 20 14  1  0
 21 20  2  0
 23 27  1  0
 23 22  1  0
 23 24  1  6
 25 24  1  0
 25 26  2  0
 27 28  1  0
 29 25  1  0
 30 27  2  0
M  END
$$$$
