QYD.pdb
     RDKit          3D

 30 30  0  0  1  0  0  0  0  0999 V2000
   26.4934  -19.4783  -20.8225 N   0  0  0  0  0  0  0  0  0  0  0  0
   27.4267  -18.3883  -20.7627 C   0  0  0  0  0  0  0  0  0  0  0  0
   27.8794  -17.9879  -21.8458 O   0  0  0  0  0  0  0  0  0  0  0  0
   27.7380  -17.8704  -19.4196 C   0  0  0  0  0  0  0  0  0  0  0  0
   27.0159  -18.5579  -18.2958 C   0  0  0  0  0  0  0  0  0  0  0  0
   27.9863  -19.4114  -17.5262 C   0  0  2  0  0  0  0  0  0  0  0  0
   28.4540  -20.4777  -18.3976 N   0  0  0  0  0  0  0  0  0  0  0  0
   27.3993  -20.0157  -16.3248 C   0  0  0  0  0  0  0  0  0  0  0  0
   26.6640  -21.0253  -16.4488 O   0  0  0  0  0  0  0  0  0  0  0  0
   24.2888  -21.4455   -8.3240 O   0  0  0  0  0  0  0  0  0  0  0  0
   25.1234  -21.0437   -9.3691 C   0  0  0  0  0  0  0  0  0  0  0  0
   25.3567  -19.7062   -9.6136 C   0  0  0  0  0  0  0  0  0  0  0  0
   26.1843  -19.3241  -10.6505 C   0  0  0  0  0  0  0  0  0  0  0  0
   26.7925  -20.2592  -11.4597 C   0  0  0  0  0  0  0  0  0  0  0  0
   27.6892  -19.8945  -12.5845 C   0  0  0  0  0  0  0  0  0  0  0  0
   26.9584  -20.1072  -13.8920 C   0  0  2  0  0  0  0  0  0  0  0  0
   27.6210  -19.5125  -15.0050 N   0  0  0  0  0  0  0  0  0  0  0  0
   25.5737  -19.5880  -13.7028 C   0  0  0  0  0  0  0  0  0  0  0  0
   25.3041  -18.3604  -13.6826 O   0  0  0  0  0  0  0  0  0  0  0  0
   26.5617  -21.5945  -11.2181 C   0  0  0  0  0  0  0  0  0  0  0  0
   25.7325  -21.9783  -10.1794 C   0  0  0  0  0  0  0  0  0  0  0  0
   24.5065  -20.4986  -13.5376 N   0  0  0  0  0  0  0  0  0  0  0  0
   23.1146  -20.0571  -13.4194 C   0  0  1  0  0  0  0  0  0  0  0  0
   22.6293  -19.4262  -14.6757 C   0  0  0  0  0  0  0  0  0  0  0  0
   21.2452  -18.9311  -14.5278 C   0  0  0  0  0  0  0  0  0  0  0  0
   20.8547  -18.3808  -13.4349 O   0  0  0  0  0  0  0  0  0  0  0  0
   22.2575  -21.2516  -13.1194 C   0  0  0  0  0  0  0  0  0  0  0  0
   21.1221  -21.2550  -12.3699 O   0  0  0  0  0  0  0  0  0  0  0  0
   20.2801  -19.0130  -15.5093 O   0  0  0  0  0  0  0  0  0  0  0  0
   22.6109  -22.3791  -13.6043 O   0  0  0  0  0  0  0  0  0  0  0  0
  1  2  1  0
  2  3  2  0
  4  5  1  0
  4  2  1  0
  6  7  1  6
  6  5  1  0
  8  6  1  0
  9  8  2  0
 10 11  1  0
 11 12  2  0
 11 21  1  0
 12 13  1  0
 13 14  2  0
 14 15  1  0
 16 15  1  1
 16 17  1  0
 17  8  1  0
 18 22  1  0
 18 16  1  0
 19 18  2  0
 20 14  1  0
 21 20  2  0
 23 27  1  0
 23 22  1  0
 23 24  1  6
 25 24  1  0
 25 26  2  0
 27 28  1  0
 29 25  1  0
 30 27  2  0
M  END
$$$$
