QYD.pdb
     RDKit          3D

 30 30  0  0  1  0  0  0  0  0999 V2000
   26.1536  -24.4743  -16.6456 N   0  0  0  0  0  0  0  0  0  0  0  0
   27.5630  -24.5686  -16.9054 C   0  0  0  0  0  0  0  0  0  0  0  0
   27.9443  -25.5696  -17.5306 O   0  0  0  0  0  0  0  0  0  0  0  0
   28.3940  -23.4631  -16.3992 C   0  0  0  0  0  0  0  0  0  0  0  0
   27.6301  -22.3540  -15.7332 C   0  0  0  0  0  0  0  0  0  0  0  0
   26.9666  -21.5041  -16.7820 C   0  0  2  0  0  0  0  0  0  0  0  0
   27.9938  -20.7460  -17.4785 N   0  0  0  0  0  0  0  0  0  0  0  0
   25.9870  -20.5620  -16.2290 C   0  0  0  0  0  0  0  0  0  0  0  0
   26.3816  -19.6633  -15.4468 O   0  0  0  0  0  0  0  0  0  0  0  0
   20.4653  -21.6926  -20.9982 O   0  0  0  0  0  0  0  0  0  0  0  0
   21.1272  -20.9628  -20.0086 C   0  0  0  0  0  0  0  0  0  0  0  0
   22.4765  -20.6947  -20.1110 C   0  0  0  0  0  0  0  0  0  0  0  0
   23.1174  -19.9718  -19.1246 C   0  0  0  0  0  0  0  0  0  0  0  0
   22.4330  -19.5043  -18.0237 C   0  0  0  0  0  0  0  0  0  0  0  0
   23.0804  -18.7237  -16.9403 C   0  0  0  0  0  0  0  0  0  0  0  0
   23.6946  -19.6773  -15.9392 C   0  0  2  0  0  0  0  0  0  0  0  0
   24.5913  -20.6113  -16.5353 N   0  0  0  0  0  0  0  0  0  0  0  0
   22.5663  -20.3397  -15.2244 C   0  0  0  0  0  0  0  0  0  0  0  0
   22.2089  -21.5208  -15.4637 O   0  0  0  0  0  0  0  0  0  0  0  0
   21.0866  -19.7704  -17.9188 C   0  0  0  0  0  0  0  0  0  0  0  0
   20.4436  -20.4946  -18.9066 C   0  0  0  0  0  0  0  0  0  0  0  0
   21.8568  -19.6258  -14.2332 N   0  0  0  0  0  0  0  0  0  0  0  0
   20.7538  -20.2254  -13.4781 C   0  0  1  0  0  0  0  0  0  0  0  0
   20.5515  -19.5484  -12.1695 C   0  0  0  0  0  0  0  0  0  0  0  0
   19.4579  -20.1794  -11.4022 C   0  0  0  0  0  0  0  0  0  0  0  0
   18.8659  -21.2315  -11.8409 O   0  0  0  0  0  0  0  0  0  0  0  0
   19.4956  -20.0966  -14.2853 C   0  0  0  0  0  0  0  0  0  0  0  0
   18.5389  -21.0522  -14.4356 O   0  0  0  0  0  0  0  0  0  0  0  0
   18.9867  -19.7145  -10.1926 O   0  0  0  0  0  0  0  0  0  0  0  0
   19.2857  -18.9944  -14.8955 O   0  0  0  0  0  0  0  0  0  0  0  0
  1  2  1  0
  2  3  2  0
  4  5  1  0
  4  2  1  0
  6  7  1  1
  6  5  1  0
  8  6  1  0
  9  8  2  0
 10 11  1  0
 11 12  2  0
 11 21  1  0
 12 13  1  0
 13 14  2  0
 14 15  1  0
 16 15  1  6
 16 17  1  0
 17  8  1  0
 18 22  1  0
 18 16  1  0
 19 18  2  0
 20 14  1  0
 21 20  2  0
 23 27  1  0
 23 22  1  0
 23 24  1  1
 25 24  1  0
 25 26  2  0
 27 28  1  0
 29 25  1  0
 30 27  2  0
M  END
$$$$
