QYD.pdb
     RDKit          3D

 30 30  0  0  1  0  0  0  0  0999 V2000
   17.3745  -15.6579  -15.8062 N   0  0  0  0  0  0  0  0  0  0  0  0
   17.3588  -16.1801  -17.1441 C   0  0  0  0  0  0  0  0  0  0  0  0
   16.3762  -16.8690  -17.4573 O   0  0  0  0  0  0  0  0  0  0  0  0
   18.5132  -15.8356  -17.9914 C   0  0  0  0  0  0  0  0  0  0  0  0
   19.6060  -15.0792  -17.2908 C   0  0  0  0  0  0  0  0  0  0  0  0
   20.7728  -14.9075  -18.2242 C   0  0  2  0  0  0  0  0  0  0  0  0
   21.2851  -16.2242  -18.5687 N   0  0  0  0  0  0  0  0  0  0  0  0
   21.8665  -14.1192  -17.6449 C   0  0  0  0  0  0  0  0  0  0  0  0
   21.9978  -14.0861  -16.3972 O   0  0  0  0  0  0  0  0  0  0  0  0
   29.1705  -10.2333  -15.3577 O   0  0  0  0  0  0  0  0  0  0  0  0
   28.1863  -10.8754  -16.1123 C   0  0  0  0  0  0  0  0  0  0  0  0
   27.6665  -12.0885  -15.7108 C   0  0  0  0  0  0  0  0  0  0  0  0
   26.6939  -12.7114  -16.4672 C   0  0  0  0  0  0  0  0  0  0  0  0
   26.2220  -12.1434  -17.6307 C   0  0  0  0  0  0  0  0  0  0  0  0
   25.1781  -12.7764  -18.4743 C   0  0  0  0  0  0  0  0  0  0  0  0
   23.8333  -12.6260  -17.7977 C   0  0  2  0  0  0  0  0  0  0  0  0
   22.8019  -13.3780  -18.4320 N   0  0  0  0  0  0  0  0  0  0  0  0
   23.5341  -11.1663  -17.7501 C   0  0  0  0  0  0  0  0  0  0  0  0
   23.3538  -10.4745  -18.7840 O   0  0  0  0  0  0  0  0  0  0  0  0
   26.7388  -10.9330  -18.0338 C   0  0  0  0  0  0  0  0  0  0  0  0
   27.7134  -10.3081  -17.2766 C   0  0  0  0  0  0  0  0  0  0  0  0
   23.4455  -10.5154  -16.4995 N   0  0  0  0  0  0  0  0  0  0  0  0
   23.1903   -9.0774  -16.3840 C   0  0  1  0  0  0  0  0  0  0  0  0
   22.1579   -8.7832  -15.3548 C   0  0  0  0  0  0  0  0  0  0  0  0
   20.8203   -9.2329  -15.7924 C   0  0  0  0  0  0  0  0  0  0  0  0
   20.5500   -9.3827  -17.0392 O   0  0  0  0  0  0  0  0  0  0  0  0
   24.4677   -8.3946  -15.9921 C   0  0  0  0  0  0  0  0  0  0  0  0
   25.6186   -9.0088  -15.6061 O   0  0  0  0  0  0  0  0  0  0  0  0
   19.7771   -9.5194  -14.9375 O   0  0  0  0  0  0  0  0  0  0  0  0
   24.4962   -7.1179  -16.0171 O   0  0  0  0  0  0  0  0  0  0  0  0
  1  2  1  0
  2  3  2  0
  4  5  1  0
  4  2  1  0
  6  7  1  1
  6  5  1  0
  8  6  1  0
  9  8  2  0
 10 11  1  0
 11 12  2  0
 11 21  1  0
 12 13  1  0
 13 14  2  0
 14 15  1  0
 16 15  1  6
 16 17  1  0
 17  8  1  0
 18 22  1  0
 18 16  1  0
 19 18  2  0
 20 14  1  0
 21 20  2  0
 23 27  1  0
 23 22  1  0
 23 24  1  1
 25 24  1  0
 25 26  2  0
 27 28  1  0
 29 25  1  0
 30 27  2  0
M  END
$$$$
