QYD.pdb
     RDKit          3D

 30 30  0  0  1  0  0  0  0  0999 V2000
   27.1022  -21.7698  -21.3220 N   0  0  0  0  0  0  0  0  0  0  0  0
   28.2416  -20.9032  -21.4380 C   0  0  0  0  0  0  0  0  0  0  0  0
   28.7728  -20.8348  -22.5567 O   0  0  0  0  0  0  0  0  0  0  0  0
   28.6478  -20.1939  -20.2129 C   0  0  0  0  0  0  0  0  0  0  0  0
   27.7359  -20.3953  -19.0361 C   0  0  0  0  0  0  0  0  0  0  0  0
   28.5223  -20.9605  -17.8852 C   0  0  2  0  0  0  0  0  0  0  0  0
   29.0045  -22.2802  -18.2604 N   0  0  0  0  0  0  0  0  0  0  0  0
   27.7361  -21.0851  -16.6525 C   0  0  0  0  0  0  0  0  0  0  0  0
   26.7934  -21.9128  -16.6134 O   0  0  0  0  0  0  0  0  0  0  0  0
   24.2746  -20.8806   -8.7270 O   0  0  0  0  0  0  0  0  0  0  0  0
   25.1006  -20.5784   -9.8117 C   0  0  0  0  0  0  0  0  0  0  0  0
   24.9729  -19.3818  -10.4861 C   0  0  0  0  0  0  0  0  0  0  0  0
   25.7968  -19.0970  -11.5567 C   0  0  0  0  0  0  0  0  0  0  0  0
   26.7581  -19.9914  -11.9750 C   0  0  0  0  0  0  0  0  0  0  0  0
   27.6650  -19.7274  -13.1196 C   0  0  0  0  0  0  0  0  0  0  0  0
   27.1167  -20.4064  -14.3553 C   0  0  2  0  0  0  0  0  0  0  0  0
   27.9871  -20.3070  -15.4797 N   0  0  0  0  0  0  0  0  0  0  0  0
   25.7734  -19.8139  -14.6142 C   0  0  0  0  0  0  0  0  0  0  0  0
   25.6175  -18.7017  -15.1790 O   0  0  0  0  0  0  0  0  0  0  0  0
   26.8878  -21.1862  -11.3041 C   0  0  0  0  0  0  0  0  0  0  0  0
   26.0627  -21.4725  -10.2312 C   0  0  0  0  0  0  0  0  0  0  0  0
   24.6150  -20.5170  -14.2152 N   0  0  0  0  0  0  0  0  0  0  0  0
   23.2734  -19.9389  -14.3270 C   0  0  1  0  0  0  0  0  0  0  0  0
   22.7103  -20.1163  -15.6919 C   0  0  0  0  0  0  0  0  0  0  0  0
   22.0003  -18.9013  -16.1418 C   0  0  0  0  0  0  0  0  0  0  0  0
   20.7832  -18.6819  -15.7947 O   0  0  0  0  0  0  0  0  0  0  0  0
   22.3729  -20.6256  -13.3426 C   0  0  0  0  0  0  0  0  0  0  0  0
   21.1496  -20.1901  -12.9368 O   0  0  0  0  0  0  0  0  0  0  0  0
   22.5546  -17.9289  -16.9471 O   0  0  0  0  0  0  0  0  0  0  0  0
   22.7754  -21.7226  -12.8269 O   0  0  0  0  0  0  0  0  0  0  0  0
  1  2  1  0
  2  3  2  0
  4  5  1  0
  4  2  1  0
  6  7  1  6
  6  5  1  0
  8  6  1  0
  9  8  2  0
 10 11  1  0
 11 12  2  0
 11 21  1  0
 12 13  1  0
 13 14  2  0
 14 15  1  0
 16 15  1  1
 16 17  1  0
 17  8  1  0
 18 22  1  0
 18 16  1  0
 19 18  2  0
 20 14  1  0
 21 20  2  0
 23 27  1  0
 23 22  1  0
 23 24  1  6
 25 24  1  0
 25 26  2  0
 27 28  1  0
 29 25  1  0
 30 27  2  0
M  END
$$$$
