QYD.pdb
     RDKit          3D

 30 30  0  0  1  0  0  0  0  0999 V2000
   29.8158  -22.0306  -19.1340 N   0  0  0  0  0  0  0  0  0  0  0  0
   28.3969  -21.8094  -19.1091 C   0  0  0  0  0  0  0  0  0  0  0  0
   28.0226  -20.6372  -18.9531 O   0  0  0  0  0  0  0  0  0  0  0  0
   27.5487  -23.0022  -19.2728 C   0  0  0  0  0  0  0  0  0  0  0  0
   26.4445  -23.1340  -18.2627 C   0  0  0  0  0  0  0  0  0  0  0  0
   27.0342  -23.4521  -16.9160 C   0  0  2  0  0  0  0  0  0  0  0  0
   27.3690  -24.8670  -16.8820 N   0  0  0  0  0  0  0  0  0  0  0  0
   26.1239  -23.1622  -15.8023 C   0  0  0  0  0  0  0  0  0  0  0  0
   25.3848  -24.0782  -15.3664 O   0  0  0  0  0  0  0  0  0  0  0  0
   21.9528  -20.2301   -8.8179 O   0  0  0  0  0  0  0  0  0  0  0  0
   22.8477  -20.3112   -9.8870 C   0  0  0  0  0  0  0  0  0  0  0  0
   24.0493  -20.9757   -9.7545 C   0  0  0  0  0  0  0  0  0  0  0  0
   24.9240  -21.0475  -10.8202 C   0  0  0  0  0  0  0  0  0  0  0  0
   24.6225  -20.4634  -12.0314 C   0  0  0  0  0  0  0  0  0  0  0  0
   25.5316  -20.5158  -13.2032 C   0  0  0  0  0  0  0  0  0  0  0  0
   25.1349  -21.6766  -14.0887 C   0  0  2  0  0  0  0  0  0  0  0  0
   26.0309  -21.8791  -15.1785 N   0  0  0  0  0  0  0  0  0  0  0  0
   23.7355  -21.4215  -14.5349 C   0  0  0  0  0  0  0  0  0  0  0  0
   23.4365  -20.5152  -15.3530 O   0  0  0  0  0  0  0  0  0  0  0  0
   23.4243  -19.7997  -12.1666 C   0  0  0  0  0  0  0  0  0  0  0  0
   22.5472  -19.7272  -11.0993 C   0  0  0  0  0  0  0  0  0  0  0  0
   22.6876  -22.2217  -14.0279 N   0  0  0  0  0  0  0  0  0  0  0  0
   21.2900  -22.0159  -14.4161 C   0  0  1  0  0  0  0  0  0  0  0  0
   20.5609  -23.3052  -14.5498 C   0  0  0  0  0  0  0  0  0  0  0  0
   19.5561  -23.2440  -15.6312 C   0  0  0  0  0  0  0  0  0  0  0  0
   19.2929  -22.1359  -16.2251 O   0  0  0  0  0  0  0  0  0  0  0  0
   20.6164  -21.1904  -13.3596 C   0  0  0  0  0  0  0  0  0  0  0  0
   19.8810  -20.0652  -13.5699 O   0  0  0  0  0  0  0  0  0  0  0  0
   18.8329  -24.3271  -16.0841 O   0  0  0  0  0  0  0  0  0  0  0  0
   20.7331  -21.5630  -12.1436 O   0  0  0  0  0  0  0  0  0  0  0  0
  1  2  1  0
  2  3  2  0
  4  5  1  0
  4  2  1  0
  6  7  1  6
  6  5  1  0
  8  6  1  0
  9  8  2  0
 10 11  1  0
 11 12  2  0
 11 21  1  0
 12 13  1  0
 13 14  2  0
 14 15  1  0
 16 15  1  6
 16 17  1  0
 17  8  1  0
 18 22  1  0
 18 16  1  0
 19 18  2  0
 20 14  1  0
 21 20  2  0
 23 27  1  0
 23 22  1  0
 23 24  1  1
 25 24  1  0
 25 26  2  0
 27 28  1  0
 29 25  1  0
 30 27  2  0
M  END
$$$$
