QYD.pdb
     RDKit          3D

 30 30  0  0  1  0  0  0  0  0999 V2000
   27.9967  -22.9803  -20.4050 N   0  0  0  0  0  0  0  0  0  0  0  0
   29.3444  -22.7486  -19.9657 C   0  0  0  0  0  0  0  0  0  0  0  0
   30.1688  -22.4514  -20.8434 O   0  0  0  0  0  0  0  0  0  0  0  0
   29.5919  -22.8902  -18.5208 C   0  0  0  0  0  0  0  0  0  0  0  0
   28.3881  -23.2784  -17.7101 C   0  0  0  0  0  0  0  0  0  0  0  0
   27.6001  -22.0451  -17.3631 C   0  0  2  0  0  0  0  0  0  0  0  0
   28.4980  -20.9014  -17.3915 N   0  0  0  0  0  0  0  0  0  0  0  0
   26.9735  -22.1123  -16.0380 C   0  0  0  0  0  0  0  0  0  0  0  0
   26.5764  -23.2227  -15.6084 O   0  0  0  0  0  0  0  0  0  0  0  0
   23.2351  -21.0446   -8.3317 O   0  0  0  0  0  0  0  0  0  0  0  0
   24.0266  -20.8220   -9.4605 C   0  0  0  0  0  0  0  0  0  0  0  0
   25.2777  -21.3927   -9.5707 C   0  0  0  0  0  0  0  0  0  0  0  0
   26.0488  -21.1635  -10.6927 C   0  0  0  0  0  0  0  0  0  0  0  0
   25.5935  -20.3670  -11.7209 C   0  0  0  0  0  0  0  0  0  0  0  0
   26.3873  -20.0937  -12.9446 C   0  0  0  0  0  0  0  0  0  0  0  0
   25.9773  -21.0642  -14.0303 C   0  0  2  0  0  0  0  0  0  0  0  0
   26.7878  -20.9696  -15.1990 N   0  0  0  0  0  0  0  0  0  0  0  0
   24.5342  -20.8157  -14.3100 C   0  0  0  0  0  0  0  0  0  0  0  0
   24.1159  -19.7529  -14.8350 O   0  0  0  0  0  0  0  0  0  0  0  0
   24.3456  -19.7962  -11.6138 C   0  0  0  0  0  0  0  0  0  0  0  0
   23.5722  -20.0253  -10.4899 C   0  0  0  0  0  0  0  0  0  0  0  0
   23.5815  -21.8045  -13.9781 N   0  0  0  0  0  0  0  0  0  0  0  0
   22.1493  -21.6240  -14.2278 C   0  0  1  0  0  0  0  0  0  0  0  0
   21.5984  -22.7113  -15.0798 C   0  0  0  0  0  0  0  0  0  0  0  0
   22.0415  -22.5711  -16.4823 C   0  0  0  0  0  0  0  0  0  0  0  0
   22.1060  -21.4164  -17.0413 O   0  0  0  0  0  0  0  0  0  0  0  0
   21.4290  -21.6332  -12.9116 C   0  0  0  0  0  0  0  0  0  0  0  0
   20.1837  -21.1384  -12.6762 O   0  0  0  0  0  0  0  0  0  0  0  0
   22.4097  -23.6251  -17.2915 O   0  0  0  0  0  0  0  0  0  0  0  0
   22.0247  -22.1496  -11.9067 O   0  0  0  0  0  0  0  0  0  0  0  0
  1  2  1  0
  2  3  2  0
  4  5  1  0
  4  2  1  0
  6  7  1  1
  6  5  1  0
  8  6  1  0
  9  8  2  0
 10 11  1  0
 11 12  2  0
 11 21  1  0
 12 13  1  0
 13 14  2  0
 14 15  1  0
 16 15  1  1
 16 17  1  0
 17  8  1  0
 18 22  1  0
 18 16  1  0
 19 18  2  0
 20 14  1  0
 21 20  2  0
 23 27  1  0
 23 22  1  0
 23 24  1  6
 25 24  1  0
 25 26  2  0
 27 28  1  0
 29 25  1  0
 30 27  2  0
M  END
$$$$
