QYD.pdb
     RDKit          3D

 30 30  0  0  1  0  0  0  0  0999 V2000
   24.2188  -14.9288  -17.7765 N   0  0  0  0  0  0  0  0  0  0  0  0
   25.0183  -14.6149  -18.9276 C   0  0  0  0  0  0  0  0  0  0  0  0
   25.2946  -13.4180  -19.0993 O   0  0  0  0  0  0  0  0  0  0  0  0
   25.4193  -15.7529  -19.7722 C   0  0  0  0  0  0  0  0  0  0  0  0
   24.9570  -17.0956  -19.2817 C   0  0  0  0  0  0  0  0  0  0  0  0
   25.7726  -17.4982  -18.0837 C   0  0  2  0  0  0  0  0  0  0  0  0
   27.1034  -17.8710  -18.5364 N   0  0  0  0  0  0  0  0  0  0  0  0
   25.1981  -18.6288  -17.3457 C   0  0  0  0  0  0  0  0  0  0  0  0
   24.8763  -19.6658  -17.9753 O   0  0  0  0  0  0  0  0  0  0  0  0
   29.4833  -23.0560  -17.1146 O   0  0  0  0  0  0  0  0  0  0  0  0
   28.4765  -22.3847  -16.4174 C   0  0  0  0  0  0  0  0  0  0  0  0
   28.6620  -21.0897  -15.9798 C   0  0  0  0  0  0  0  0  0  0  0  0
   27.6575  -20.4389  -15.2918 C   0  0  0  0  0  0  0  0  0  0  0  0
   26.4560  -21.0596  -15.0270 C   0  0  0  0  0  0  0  0  0  0  0  0
   25.3491  -20.3989  -14.2918 C   0  0  0  0  0  0  0  0  0  0  0  0
   24.4109  -19.7489  -15.2848 C   0  0  2  0  0  0  0  0  0  0  0  0
   24.9818  -18.6148  -15.9325 N   0  0  0  0  0  0  0  0  0  0  0  0
   23.1593  -19.4187  -14.5450 C   0  0  0  0  0  0  0  0  0  0  0  0
   23.1390  -18.6484  -13.5519 O   0  0  0  0  0  0  0  0  0  0  0  0
   26.2680  -22.3517  -15.4623 C   0  0  0  0  0  0  0  0  0  0  0  0
   27.2740  -23.0047  -16.1518 C   0  0  0  0  0  0  0  0  0  0  0  0
   21.9349  -19.9858  -14.9628 N   0  0  0  0  0  0  0  0  0  0  0  0
   20.6612  -19.6549  -14.3190 C   0  0  1  0  0  0  0  0  0  0  0  0
   19.6657  -19.1451  -15.2992 C   0  0  0  0  0  0  0  0  0  0  0  0
   18.3834  -18.8190  -14.6418 C   0  0  0  0  0  0  0  0  0  0  0  0
   17.2659  -19.0039  -15.2474 O   0  0  0  0  0  0  0  0  0  0  0  0
   20.1124  -20.8956  -13.6780 C   0  0  0  0  0  0  0  0  0  0  0  0
   20.6727  -22.1346  -13.7212 O   0  0  0  0  0  0  0  0  0  0  0  0
   18.2707  -18.3030  -13.3681 O   0  0  0  0  0  0  0  0  0  0  0  0
   19.0179  -20.7992  -13.0268 O   0  0  0  0  0  0  0  0  0  0  0  0
  1  2  1  0
  2  3  2  0
  4  5  1  0
  4  2  1  0
  6  7  1  6
  6  5  1  0
  8  6  1  0
  9  8  2  0
 10 11  1  0
 11 12  2  0
 11 21  1  0
 12 13  1  0
 13 14  2  0
 14 15  1  0
 16 15  1  1
 16 17  1  0
 17  8  1  0
 18 22  1  0
 18 16  1  0
 19 18  2  0
 20 14  1  0
 21 20  2  0
 23 27  1  0
 23 22  1  0
 23 24  1  6
 25 24  1  0
 25 26  2  0
 27 28  1  0
 29 25  1  0
 30 27  2  0
M  END
$$$$
