CIQ.pdb
     RDKit          3D

 24 23  0  0  1  0  0  0  0  0999 V2000
   28.6875  -20.8926  -16.1106 N   0  0  0  0  0  0  0  0  0  0  0  0
   28.1083  -20.0358  -15.1249 C   0  0  1  0  0  0  0  0  0  0  0  0
   27.4347  -18.8154  -15.7444 C   0  0  0  0  0  0  0  0  0  0  0  0
   28.6810  -17.7405  -16.5134 S   0  0  0  0  0  0  0  0  0  0  0  0
   27.1008  -20.7120  -14.2791 C   0  0  0  0  0  0  0  0  0  0  0  0
   26.4001  -21.6214  -14.7939 O   0  0  0  0  0  0  0  0  0  0  0  0
   25.2493  -21.2998   -8.4009 C   0  0  0  0  0  0  0  0  0  0  0  0
   24.9569  -21.5834   -9.8665 C   0  0  0  0  0  0  0  0  0  0  0  0
   25.9480  -20.7827  -10.6733 C   0  0  2  0  0  0  0  0  0  0  0  0
   25.7943  -19.3290  -10.3533 C   0  0  0  0  0  0  0  0  0  0  0  0
   25.8177  -21.0302  -12.1572 C   0  0  2  0  0  0  0  0  0  0  0  0
   26.8720  -20.3981  -12.9126 N   0  0  0  0  0  0  0  0  0  0  0  0
   24.4716  -20.5519  -12.5919 C   0  0  0  0  0  0  0  0  0  0  0  0
   24.3679  -19.3643  -12.9914 O   0  0  0  0  0  0  0  0  0  0  0  0
   21.4079  -24.0471  -16.2285 N   0  0  0  0  0  0  0  0  0  0  0  0
   20.4863  -22.9792  -16.2291 C   0  0  0  0  0  0  0  0  0  0  0  0
   19.5208  -22.8702  -17.0234 O   0  0  0  0  0  0  0  0  0  0  0  0
   20.6675  -21.8926  -15.2100 C   0  0  0  0  0  0  0  0  0  0  0  0
   21.8845  -22.1436  -14.3729 C   0  0  0  0  0  0  0  0  0  0  0  0
   22.1131  -21.0602  -13.3839 C   0  0  2  0  0  0  0  0  0  0  0  0
   23.3246  -21.3597  -12.5758 N   0  0  0  0  0  0  0  0  0  0  0  0
   21.0241  -20.9473  -12.4168 C   0  0  0  0  0  0  0  0  0  0  0  0
   19.9329  -20.1386  -12.6634 O   0  0  0  0  0  0  0  0  0  0  0  0
   21.0392  -21.5713  -11.3417 O   0  0  0  0  0  0  0  0  0  0  0  0
  2  1  1  6
  3  2  1  0
  4  3  1  0
  5  2  1  0
  5  6  2  0
  7  8  1  0
  8  9  1  0
  9 11  1  0
  9 10  1  6
 11 12  1  6
 12  5  1  0
 13 11  1  0
 14 13  2  0
 16 15  1  0
 17 16  2  0
 18 16  1  0
 19 18  1  0
 20 19  1  6
 20 21  1  0
 21 13  1  0
 22 20  1  0
 23 22  1  0
 24 22  2  0
M  END
$$$$
