CIQ.pdb
     RDKit          3D

 24 23  0  0  1  0  0  0  0  0999 V2000
   28.0881  -18.8684  -16.4730 N   0  0  0  0  0  0  0  0  0  0  0  0
   27.8318  -18.5963  -15.0941 C   0  0  1  0  0  0  0  0  0  0  0  0
   27.2712  -17.1944  -14.8766 C   0  0  0  0  0  0  0  0  0  0  0  0
   25.5696  -17.1005  -15.5056 S   0  0  0  0  0  0  0  0  0  0  0  0
   26.8856  -19.5492  -14.4742 C   0  0  0  0  0  0  0  0  0  0  0  0
   26.3245  -20.4007  -15.2113 O   0  0  0  0  0  0  0  0  0  0  0  0
   27.4663  -21.3428   -9.3425 C   0  0  0  0  0  0  0  0  0  0  0  0
   27.2271  -21.3801  -10.8443 C   0  0  0  0  0  0  0  0  0  0  0  0
   25.8610  -20.7882  -11.0847 C   0  0  2  0  0  0  0  0  0  0  0  0
   24.8152  -21.7035  -10.5298 C   0  0  0  0  0  0  0  0  0  0  0  0
   25.6084  -20.4944  -12.5441 C   0  0  2  0  0  0  0  0  0  0  0  0
   26.5673  -19.5648  -13.0898 N   0  0  0  0  0  0  0  0  0  0  0  0
   24.2122  -19.9823  -12.6804 C   0  0  0  0  0  0  0  0  0  0  0  0
   24.0416  -18.7374  -12.7208 O   0  0  0  0  0  0  0  0  0  0  0  0
   21.3195  -20.3572  -17.4641 N   0  0  0  0  0  0  0  0  0  0  0  0
   20.9734  -19.1424  -16.8362 C   0  0  0  0  0  0  0  0  0  0  0  0
   20.3897  -18.1869  -17.4033 O   0  0  0  0  0  0  0  0  0  0  0  0
   21.3255  -18.9738  -15.3872 C   0  0  0  0  0  0  0  0  0  0  0  0
   22.0858  -20.1614  -14.8810 C   0  0  0  0  0  0  0  0  0  0  0  0
   21.8284  -20.4147  -13.4410 C   0  0  2  0  0  0  0  0  0  0  0  0
   23.0893  -20.8192  -12.7649 N   0  0  0  0  0  0  0  0  0  0  0  0
   20.9035  -21.5246  -13.2252 C   0  0  0  0  0  0  0  0  0  0  0  0
   19.5445  -21.3087  -13.1150 O   0  0  0  0  0  0  0  0  0  0  0  0
   21.3030  -22.6982  -13.1330 O   0  0  0  0  0  0  0  0  0  0  0  0
  2  1  1  6
  3  2  1  0
  4  3  1  0
  5  2  1  0
  5  6  2  0
  7  8  1  0
  8  9  1  0
  9 11  1  0
  9 10  1  6
 11 12  1  1
 12  5  1  0
 13 11  1  0
 14 13  2  0
 16 15  1  0
 17 16  2  0
 18 16  1  0
 19 18  1  0
 20 19  1  6
 20 21  1  0
 21 13  1  0
 22 20  1  0
 23 22  1  0
 24 22  2  0
M  END
$$$$
