CIQ.pdb
     RDKit          3D

 24 23  0  0  1  0  0  0  0  0999 V2000
   20.1723  -21.2804  -13.4013 N   0  0  0  0  0  0  0  0  0  0  0  0
   21.3441  -22.0976  -13.4006 C   0  0  1  0  0  0  0  0  0  0  0  0
   21.4182  -23.0020  -14.6268 C   0  0  0  0  0  0  0  0  0  0  0  0
   22.7986  -24.1704  -14.4553 S   0  0  0  0  0  0  0  0  0  0  0  0
   22.6014  -21.3200  -13.3513 C   0  0  0  0  0  0  0  0  0  0  0  0
   22.6484  -20.2189  -13.9582 O   0  0  0  0  0  0  0  0  0  0  0  0
   25.4816  -20.6020   -8.8497 C   0  0  0  0  0  0  0  0  0  0  0  0
   24.6942  -20.5100  -10.1481 C   0  0  0  0  0  0  0  0  0  0  0  0
   25.6190  -20.9547  -11.2532 C   0  0  2  0  0  0  0  0  0  0  0  0
   26.8565  -20.1136  -11.2379 C   0  0  0  0  0  0  0  0  0  0  0  0
   24.9552  -20.9219  -12.6090 C   0  0  2  0  0  0  0  0  0  0  0  0
   23.7678  -21.7400  -12.6576 N   0  0  0  0  0  0  0  0  0  0  0  0
   25.9579  -21.3529  -13.6282 C   0  0  0  0  0  0  0  0  0  0  0  0
   26.7082  -22.3212  -13.3452 O   0  0  0  0  0  0  0  0  0  0  0  0
   26.6465  -25.4202  -16.3230 N   0  0  0  0  0  0  0  0  0  0  0  0
   25.6379  -24.6714  -16.9648 C   0  0  0  0  0  0  0  0  0  0  0  0
   24.6919  -25.1665  -17.6244 O   0  0  0  0  0  0  0  0  0  0  0  0
   25.6940  -23.1758  -16.8549 C   0  0  0  0  0  0  0  0  0  0  0  0
   26.8580  -22.7457  -16.0153 C   0  0  0  0  0  0  0  0  0  0  0  0
   26.9817  -21.2676  -15.9504 C   0  0  2  0  0  0  0  0  0  0  0  0
   26.1013  -20.7325  -14.8785 N   0  0  0  0  0  0  0  0  0  0  0  0
   26.5332  -20.6147  -17.1778 C   0  0  0  0  0  0  0  0  0  0  0  0
   27.3699  -20.4975  -18.2694 O   0  0  0  0  0  0  0  0  0  0  0  0
   25.3880  -20.1428  -17.2847 O   0  0  0  0  0  0  0  0  0  0  0  0
  2  1  1  6
  3  2  1  0
  4  3  1  0
  5  2  1  0
  5  6  2  0
  7  8  1  0
  8  9  1  0
  9 11  1  0
  9 10  1  6
 11 12  1  1
 12  5  1  0
 13 11  1  0
 14 13  2  0
 16 15  1  0
 17 16  2  0
 18 16  1  0
 19 18  1  0
 20 19  1  6
 20 21  1  0
 21 13  1  0
 22 20  1  0
 23 22  1  0
 24 22  2  0
M  END
$$$$
