CIQ.pdb
     RDKit          3D

 24 23  0  0  1  0  0  0  0  0999 V2000
   14.5804  -13.5108  -12.0766 N   0  0  0  0  0  0  0  0  0  0  0  0
   15.6890  -12.7723  -11.5603 C   0  0  1  0  0  0  0  0  0  0  0  0
   16.9333  -12.9138  -12.4315 C   0  0  0  0  0  0  0  0  0  0  0  0
   17.5227  -14.6318  -12.3996 S   0  0  0  0  0  0  0  0  0  0  0  0
   15.4148  -11.3260  -11.4171 C   0  0  0  0  0  0  0  0  0  0  0  0
   14.8845  -10.7187  -12.3831 O   0  0  0  0  0  0  0  0  0  0  0  0
   12.1037   -9.3407   -8.1471 C   0  0  0  0  0  0  0  0  0  0  0  0
   12.9921   -9.5621   -9.3619 C   0  0  0  0  0  0  0  0  0  0  0  0
   14.3313   -8.9464   -9.0427 C   0  0  2  0  0  0  0  0  0  0  0  0
   14.1577   -7.4846   -8.7737 C   0  0  0  0  0  0  0  0  0  0  0  0
   15.3491   -9.1821  -10.1329 C   0  0  2  0  0  0  0  0  0  0  0  0
   15.7140  -10.5729  -10.2503 N   0  0  0  0  0  0  0  0  0  0  0  0
   16.5400   -8.3267   -9.8499 C   0  0  0  0  0  0  0  0  0  0  0  0
   17.3138   -8.6799   -8.9242 O   0  0  0  0  0  0  0  0  0  0  0  0
   21.1313   -7.0154  -12.9698 N   0  0  0  0  0  0  0  0  0  0  0  0
   21.3909   -6.0397  -11.9847 C   0  0  0  0  0  0  0  0  0  0  0  0
   22.4840   -5.4387  -11.8460 O   0  0  0  0  0  0  0  0  0  0  0  0
   20.2857   -5.6908  -11.0313 C   0  0  0  0  0  0  0  0  0  0  0  0
   19.1023   -6.5867  -11.2352 C   0  0  0  0  0  0  0  0  0  0  0  0
   18.0147   -6.3017  -10.2657 C   0  0  2  0  0  0  0  0  0  0  0  0
   16.8343   -7.1551  -10.5637 N   0  0  0  0  0  0  0  0  0  0  0  0
   17.5286   -4.9273  -10.3591 C   0  0  0  0  0  0  0  0  0  0  0  0
   18.0573   -3.9289   -9.5658 O   0  0  0  0  0  0  0  0  0  0  0  0
   16.6258   -4.6070  -11.1515 O   0  0  0  0  0  0  0  0  0  0  0  0
  2  1  1  6
  3  2  1  0
  4  3  1  0
  5  2  1  0
  5  6  2  0
  7  8  1  0
  8  9  1  0
  9 11  1  0
  9 10  1  6
 11 12  1  1
 12  5  1  0
 13 11  1  0
 14 13  2  0
 16 15  1  0
 17 16  2  0
 18 16  1  0
 19 18  1  0
 20 19  1  6
 20 21  1  0
 21 13  1  0
 22 20  1  0
 23 22  1  0
 24 22  2  0
M  END
$$$$
