CIQ.pdb
     RDKit          3D

 24 23  0  0  1  0  0  0  0  0999 V2000
   18.5749  -10.8381  -18.9252 N   0  0  0  0  0  0  0  0  0  0  0  0
   17.8651  -10.5492  -17.7194 C   0  0  1  0  0  0  0  0  0  0  0  0
   17.0884  -11.7563  -17.2032 C   0  0  0  0  0  0  0  0  0  0  0  0
   16.3523  -12.6635  -18.5943 S   0  0  0  0  0  0  0  0  0  0  0  0
   18.7400  -10.0865  -16.6203 C   0  0  0  0  0  0  0  0  0  0  0  0
   18.2198   -9.8542  -15.4985 O   0  0  0  0  0  0  0  0  0  0  0  0
   22.6724  -10.5834  -13.0849 C   0  0  0  0  0  0  0  0  0  0  0  0
   22.9985   -9.6836  -14.2673 C   0  0  0  0  0  0  0  0  0  0  0  0
   22.1891  -10.1863  -15.4361 C   0  0  2  0  0  0  0  0  0  0  0  0
   23.0452  -10.2106  -16.6632 C   0  0  0  0  0  0  0  0  0  0  0  0
   20.9365   -9.3739  -15.6623 C   0  0  2  0  0  0  0  0  0  0  0  0
   20.1404   -9.8863  -16.7510 N   0  0  0  0  0  0  0  0  0  0  0  0
   21.3388   -7.9556  -15.8998 C   0  0  0  0  0  0  0  0  0  0  0  0
   21.5624   -7.5959  -17.0835 O   0  0  0  0  0  0  0  0  0  0  0  0
   18.9931   -1.7423  -16.9640 N   0  0  0  0  0  0  0  0  0  0  0  0
   19.1878   -3.1278  -16.7845 C   0  0  0  0  0  0  0  0  0  0  0  0
   18.4259   -4.0194  -17.2314 O   0  0  0  0  0  0  0  0  0  0  0  0
   20.3895   -3.5745  -16.0046 C   0  0  0  0  0  0  0  0  0  0  0  0
   20.3288   -5.0455  -15.7265 C   0  0  0  0  0  0  0  0  0  0  0  0
   21.5882   -5.5506  -15.1240 C   0  0  2  0  0  0  0  0  0  0  0  0
   21.4780   -7.0116  -14.8712 N   0  0  0  0  0  0  0  0  0  0  0  0
   21.8619   -4.9543  -13.8188 C   0  0  0  0  0  0  0  0  0  0  0  0
   22.2673   -3.6395  -13.7069 O   0  0  0  0  0  0  0  0  0  0  0  0
   21.7409   -5.6046  -12.7662 O   0  0  0  0  0  0  0  0  0  0  0  0
  2  1  1  6
  3  2  1  0
  4  3  1  0
  5  2  1  0
  5  6  2  0
  7  8  1  0
  8  9  1  0
  9 11  1  0
  9 10  1  6
 11 12  1  6
 12  5  1  0
 13 11  1  0
 14 13  2  0
 16 15  1  0
 17 16  2  0
 18 16  1  0
 19 18  1  0
 20 19  1  1
 20 21  1  0
 21 13  1  0
 22 20  1  0
 23 22  1  0
 24 22  2  0
M  END
$$$$
