CIQ.pdb
     RDKit          3D

 24 23  0  0  1  0  0  0  0  0999 V2000
   21.9742  -19.4200  -14.6626 N   0  0  0  0  0  0  0  0  0  0  0  0
   22.0218  -18.4529  -15.7131 C   0  0  1  0  0  0  0  0  0  0  0  0
   20.6415  -18.1632  -16.2943 C   0  0  0  0  0  0  0  0  0  0  0  0
   19.8605  -19.7091  -16.8423 S   0  0  0  0  0  0  0  0  0  0  0  0
   22.6025  -17.1590  -15.2932 C   0  0  0  0  0  0  0  0  0  0  0  0
   22.2274  -16.6610  -14.2004 O   0  0  0  0  0  0  0  0  0  0  0  0
   26.5544  -17.5255  -16.2134 C   0  0  0  0  0  0  0  0  0  0  0  0
   26.3979  -16.4631  -15.1359 C   0  0  0  0  0  0  0  0  0  0  0  0
   25.7117  -15.2846  -15.7797 C   0  0  2  0  0  0  0  0  0  0  0  0
   26.3537  -14.0162  -15.3126 C   0  0  0  0  0  0  0  0  0  0  0  0
   24.2245  -15.2701  -15.5189 C   0  0  2  0  0  0  0  0  0  0  0  0
   23.5636  -16.4372  -16.0504 N   0  0  0  0  0  0  0  0  0  0  0  0
   23.6632  -14.0131  -16.0978 C   0  0  0  0  0  0  0  0  0  0  0  0
   23.4950  -13.9603  -17.3425 O   0  0  0  0  0  0  0  0  0  0  0  0
   21.9879   -8.7954  -12.9472 N   0  0  0  0  0  0  0  0  0  0  0  0
   21.5346   -8.4605  -14.2404 C   0  0  0  0  0  0  0  0  0  0  0  0
   20.9830   -7.3749  -14.5444 O   0  0  0  0  0  0  0  0  0  0  0  0
   21.7222   -9.4695  -15.3352 C   0  0  0  0  0  0  0  0  0  0  0  0
   22.3870  -10.7065  -14.8128 C   0  0  0  0  0  0  0  0  0  0  0  0
   22.6194  -11.7082  -15.8836 C   0  0  2  0  0  0  0  0  0  0  0  0
   23.3168  -12.8957  -15.3232 N   0  0  0  0  0  0  0  0  0  0  0  0
   23.4994  -11.2070  -16.9364 C   0  0  0  0  0  0  0  0  0  0  0  0
   24.8573  -11.0740  -16.7270 O   0  0  0  0  0  0  0  0  0  0  0  0
   23.0610  -10.8831  -18.0537 O   0  0  0  0  0  0  0  0  0  0  0  0
  2  1  1  1
  3  2  1  0
  4  3  1  0
  5  2  1  0
  5  6  2  0
  7  8  1  0
  8  9  1  0
  9 11  1  0
  9 10  1  1
 11 12  1  6
 12  5  1  0
 13 11  1  0
 14 13  2  0
 16 15  1  0
 17 16  2  0
 18 16  1  0
 19 18  1  0
 20 19  1  1
 20 21  1  0
 21 13  1  0
 22 20  1  0
 23 22  1  0
 24 22  2  0
M  END
$$$$
