CIQ.pdb
     RDKit          3D

 24 23  0  0  1  0  0  0  0  0999 V2000
   36.7616  -27.3099    3.6170 N   0  0  0  0  0  0  0  0  0  0  0  0
   35.5306  -26.9878    4.2664 C   0  0  1  0  0  0  0  0  0  0  0  0
   35.1132  -28.0538    5.2746 C   0  0  0  0  0  0  0  0  0  0  0  0
   34.7629  -29.6169    4.4178 S   0  0  0  0  0  0  0  0  0  0  0  0
   35.5665  -25.6946    4.9834 C   0  0  0  0  0  0  0  0  0  0  0  0
   36.6695  -25.2907    5.4345 O   0  0  0  0  0  0  0  0  0  0  0  0
   31.9721  -21.4781    4.1726 C   0  0  0  0  0  0  0  0  0  0  0  0
   33.2299  -22.3245    4.2976 C   0  0  0  0  0  0  0  0  0  0  0  0
   33.3306  -22.7481    5.7414 C   0  0  2  0  0  0  0  0  0  0  0  0
   33.4055  -21.5347    6.6140 C   0  0  0  0  0  0  0  0  0  0  0  0
   34.4990  -23.6713    5.9916 C   0  0  2  0  0  0  0  0  0  0  0  0
   34.4272  -24.8734    5.1971 N   0  0  0  0  0  0  0  0  0  0  0  0
   34.5412  -23.9828    7.4514 C   0  0  0  0  0  0  0  0  0  0  0  0
   33.8349  -24.9337    7.8727 O   0  0  0  0  0  0  0  0  0  0  0  0
   37.9007  -28.0293   11.0966 N   0  0  0  0  0  0  0  0  0  0  0  0
   36.9718  -27.1415   10.5144 C   0  0  0  0  0  0  0  0  0  0  0  0
   35.8783  -27.4864   10.0039 O   0  0  0  0  0  0  0  0  0  0  0  0
   37.3089  -25.6793   10.5011 C   0  0  0  0  0  0  0  0  0  0  0  0
   36.7568  -25.0154    9.2766 C   0  0  0  0  0  0  0  0  0  0  0  0
   35.8673  -23.8757    9.6144 C   0  0  2  0  0  0  0  0  0  0  0  0
   35.3267  -23.2692    8.3692 N   0  0  0  0  0  0  0  0  0  0  0  0
   36.5777  -22.7939   10.2919 C   0  0  0  0  0  0  0  0  0  0  0  0
   37.0427  -21.6986    9.5921 O   0  0  0  0  0  0  0  0  0  0  0  0
   36.7890  -22.8189   11.5167 O   0  0  0  0  0  0  0  0  0  0  0  0
  2  1  1  1
  3  2  1  0
  4  3  1  0
  5  2  1  0
  5  6  2  0
  7  8  1  0
  8  9  1  0
  9 11  1  0
  9 10  1  1
 11 12  1  6
 12  5  1  0
 13 11  1  0
 14 13  2  0
 16 15  1  0
 17 16  2  0
 18 16  1  0
 19 18  1  0
 20 19  1  6
 20 21  1  0
 21 13  1  0
 22 20  1  0
 23 22  1  0
 24 22  2  0
M  END
$$$$
