CIQ.pdb
     RDKit          3D

 24 23  0  0  1  0  0  0  0  0999 V2000
   22.6303  -15.9630  -17.0333 N   0  0  0  0  0  0  0  0  0  0  0  0
   23.1259  -14.8499  -17.7792 C   0  0  1  0  0  0  0  0  0  0  0  0
   22.0743  -14.2716  -18.7210 C   0  0  0  0  0  0  0  0  0  0  0  0
   21.4003  -15.5837  -19.7813 S   0  0  0  0  0  0  0  0  0  0  0  0
   23.6100  -13.7419  -16.9274 C   0  0  0  0  0  0  0  0  0  0  0  0
   22.8697  -13.3367  -15.9942 O   0  0  0  0  0  0  0  0  0  0  0  0
   28.8872  -12.8879  -15.7884 C   0  0  0  0  0  0  0  0  0  0  0  0
   27.3868  -13.0384  -15.5877 C   0  0  0  0  0  0  0  0  0  0  0  0
   26.7408  -11.8114  -16.1802 C   0  0  2  0  0  0  0  0  0  0  0  0
   27.1012  -10.6120  -15.3611 C   0  0  0  0  0  0  0  0  0  0  0  0
   25.2429  -11.9529  -16.3083 C   0  0  2  0  0  0  0  0  0  0  0  0
   24.8666  -13.1011  -17.0967 N   0  0  0  0  0  0  0  0  0  0  0  0
   24.7047  -10.6885  -16.8928 C   0  0  0  0  0  0  0  0  0  0  0  0
   25.0306  -10.3977  -18.0717 O   0  0  0  0  0  0  0  0  0  0  0  0
   18.8120   -6.3574  -17.1533 N   0  0  0  0  0  0  0  0  0  0  0  0
   19.6108   -7.4259  -16.6950 C   0  0  0  0  0  0  0  0  0  0  0  0
   19.1859   -8.3985  -16.0251 O   0  0  0  0  0  0  0  0  0  0  0  0
   21.0738   -7.4044  -17.0288 C   0  0  0  0  0  0  0  0  0  0  0  0
   21.7532   -8.6431  -16.5301 C   0  0  0  0  0  0  0  0  0  0  0  0
   23.2077   -8.6384  -16.8273 C   0  0  2  0  0  0  0  0  0  0  0  0
   23.8579   -9.8155  -16.1932 N   0  0  0  0  0  0  0  0  0  0  0  0
   23.8891   -7.4744  -16.2663 C   0  0  0  0  0  0  0  0  0  0  0  0
   23.8263   -6.2435  -16.8880 O   0  0  0  0  0  0  0  0  0  0  0  0
   24.5474   -7.5481  -15.2143 O   0  0  0  0  0  0  0  0  0  0  0  0
  2  1  1  1
  3  2  1  0
  4  3  1  0
  5  2  1  0
  5  6  2  0
  7  8  1  0
  8  9  1  0
  9 11  1  0
  9 10  1  1
 11 12  1  6
 12  5  1  0
 13 11  1  0
 14 13  2  0
 16 15  1  0
 17 16  2  0
 18 16  1  0
 19 18  1  0
 20 19  1  1
 20 21  1  0
 21 13  1  0
 22 20  1  0
 23 22  1  0
 24 22  2  0
M  END
$$$$
