CIQ.pdb
     RDKit          3D

 24 23  0  0  1  0  0  0  0  0999 V2000
   13.7266  -13.3618  -12.0462 N   0  0  0  0  0  0  0  0  0  0  0  0
   14.9397  -12.6985  -11.6863 C   0  0  1  0  0  0  0  0  0  0  0  0
   16.0813  -13.0224  -12.6449 C   0  0  0  0  0  0  0  0  0  0  0  0
   16.6289  -14.7375  -12.4028 S   0  0  0  0  0  0  0  0  0  0  0  0
   14.8108  -11.2259  -11.6379 C   0  0  0  0  0  0  0  0  0  0  0  0
   14.1822  -10.6492  -12.5626 O   0  0  0  0  0  0  0  0  0  0  0  0
   12.5000   -8.2820   -8.0004 C   0  0  0  0  0  0  0  0  0  0  0  0
   13.0539   -8.8540   -9.2966 C   0  0  0  0  0  0  0  0  0  0  0  0
   14.5148   -8.4838   -9.3493 C   0  0  2  0  0  0  0  0  0  0  0  0
   14.6598   -7.0009   -9.2102 C   0  0  0  0  0  0  0  0  0  0  0  0
   15.1911   -8.9815  -10.6043 C   0  0  2  0  0  0  0  0  0  0  0  0
   15.3555  -10.4149  -10.6064 N   0  0  0  0  0  0  0  0  0  0  0  0
   16.5034   -8.2808  -10.7345 C   0  0  0  0  0  0  0  0  0  0  0  0
   17.4207   -8.5923   -9.9332 O   0  0  0  0  0  0  0  0  0  0  0  0
   20.6781   -9.3298  -13.8909 N   0  0  0  0  0  0  0  0  0  0  0  0
   21.2156   -8.0594  -13.5957 C   0  0  0  0  0  0  0  0  0  0  0  0
   22.4012   -7.7158  -13.8229 O   0  0  0  0  0  0  0  0  0  0  0  0
   20.3109   -7.0417  -12.9651 C   0  0  0  0  0  0  0  0  0  0  0  0
   18.9719   -7.6377  -12.6544 C   0  0  0  0  0  0  0  0  0  0  0  0
   18.1027   -6.6945  -11.9066 C   0  0  2  0  0  0  0  0  0  0  0  0
   16.7592   -7.2977  -11.7023 N   0  0  0  0  0  0  0  0  0  0  0  0
   17.8600   -5.4556  -12.6415 C   0  0  0  0  0  0  0  0  0  0  0  0
   18.7676   -4.4161  -12.6054 O   0  0  0  0  0  0  0  0  0  0  0  0
   16.8331   -5.2917  -13.3228 O   0  0  0  0  0  0  0  0  0  0  0  0
  2  1  1  6
  3  2  1  0
  4  3  1  0
  5  2  1  0
  5  6  2  0
  7  8  1  0
  8  9  1  0
  9 11  1  0
  9 10  1  6
 11 12  1  1
 12  5  1  0
 13 11  1  0
 14 13  2  0
 16 15  1  0
 17 16  2  0
 18 16  1  0
 19 18  1  0
 20 19  1  6
 20 21  1  0
 21 13  1  0
 22 20  1  0
 23 22  1  0
 24 22  2  0
M  END
$$$$
