CIQ.pdb
     RDKit          3D

 24 23  0  0  1  0  0  0  0  0999 V2000
   14.7307  -11.0823  -11.5918 N   0  0  0  0  0  0  0  0  0  0  0  0
   14.9335  -10.2595  -10.4416 C   0  0  1  0  0  0  0  0  0  0  0  0
   15.0205  -11.0757   -9.1557 C   0  0  0  0  0  0  0  0  0  0  0  0
   13.4976  -12.0393   -8.9266 S   0  0  0  0  0  0  0  0  0  0  0  0
   16.1569   -9.4321  -10.5207 C   0  0  0  0  0  0  0  0  0  0  0  0
   16.5228   -8.8048   -9.4932 O   0  0  0  0  0  0  0  0  0  0  0  0
   21.5999   -8.9984  -13.1449 C   0  0  0  0  0  0  0  0  0  0  0  0
   20.5236   -8.2436  -12.3794 C   0  0  0  0  0  0  0  0  0  0  0  0
   19.2575   -9.0553  -12.4894 C   0  0  2  0  0  0  0  0  0  0  0  0
   18.9075   -9.2420  -13.9324 C   0  0  0  0  0  0  0  0  0  0  0  0
   18.1094   -8.4396  -11.7261 C   0  0  2  0  0  0  0  0  0  0  0  0
   16.9512   -9.2992  -11.6909 N   0  0  0  0  0  0  0  0  0  0  0  0
   17.7917   -7.1199  -12.3485 C   0  0  0  0  0  0  0  0  0  0  0  0
   17.2193   -7.1179  -13.4678 O   0  0  0  0  0  0  0  0  0  0  0  0
   14.1454   -3.2533   -9.0115 N   0  0  0  0  0  0  0  0  0  0  0  0
   15.4675   -3.1781   -9.4976 C   0  0  0  0  0  0  0  0  0  0  0  0
   16.3635   -2.4416   -9.0180 O   0  0  0  0  0  0  0  0  0  0  0  0
   15.8356   -4.0373  -10.6717 C   0  0  0  0  0  0  0  0  0  0  0  0
   17.2086   -3.7018  -11.1688 C   0  0  0  0  0  0  0  0  0  0  0  0
   17.6282   -4.5866  -12.2847 C   0  0  2  0  0  0  0  0  0  0  0  0
   18.0998   -5.8902  -11.7472 N   0  0  0  0  0  0  0  0  0  0  0  0
   18.7617   -4.0459  -13.0309 C   0  0  0  0  0  0  0  0  0  0  0  0
   20.0530   -4.4499  -12.7573 O   0  0  0  0  0  0  0  0  0  0  0  0
   18.6070   -3.2066  -13.9348 O   0  0  0  0  0  0  0  0  0  0  0  0
  2  1  1  6
  3  2  1  0
  4  3  1  0
  5  2  1  0
  5  6  2  0
  7  8  1  0
  8  9  1  0
  9 11  1  0
  9 10  1  6
 11 12  1  6
 12  5  1  0
 13 11  1  0
 14 13  2  0
 16 15  1  0
 17 16  2  0
 18 16  1  0
 19 18  1  0
 20 19  1  1
 20 21  1  0
 21 13  1  0
 22 20  1  0
 23 22  1  0
 24 22  2  0
M  END
$$$$
