CIQ.pdb
     RDKit          3D

 24 23  0  0  1  0  0  0  0  0999 V2000
   28.4366  -20.4858  -15.4159 N   0  0  0  0  0  0  0  0  0  0  0  0
   27.7716  -19.6517  -14.4657 C   0  0  1  0  0  0  0  0  0  0  0  0
   27.1150  -18.4403  -15.1203 C   0  0  0  0  0  0  0  0  0  0  0  0
   28.3879  -17.2928  -15.7228 S   0  0  0  0  0  0  0  0  0  0  0  0
   26.7236  -20.3579  -13.6972 C   0  0  0  0  0  0  0  0  0  0  0  0
   26.1414  -21.3343  -14.2364 O   0  0  0  0  0  0  0  0  0  0  0  0
   26.5618  -20.4551   -8.1689 C   0  0  0  0  0  0  0  0  0  0  0  0
   26.5274  -20.9735   -9.5987 C   0  0  0  0  0  0  0  0  0  0  0  0
   25.2555  -20.4555  -10.2216 C   0  0  2  0  0  0  0  0  0  0  0  0
   24.0776  -21.1064   -9.5673 C   0  0  0  0  0  0  0  0  0  0  0  0
   25.2244  -20.6524  -11.7183 C   0  0  2  0  0  0  0  0  0  0  0  0
   26.3294  -20.0019  -12.3796 N   0  0  0  0  0  0  0  0  0  0  0  0
   23.9124  -20.1518  -12.2261 C   0  0  0  0  0  0  0  0  0  0  0  0
   23.6792  -18.9191  -12.1438 O   0  0  0  0  0  0  0  0  0  0  0  0
   22.0923  -20.0641  -17.5197 N   0  0  0  0  0  0  0  0  0  0  0  0
   21.9322  -21.3857  -17.0530 C   0  0  0  0  0  0  0  0  0  0  0  0
   21.9050  -22.4034  -17.7870 O   0  0  0  0  0  0  0  0  0  0  0  0
   21.7831  -21.5968  -15.5748 C   0  0  0  0  0  0  0  0  0  0  0  0
   21.8325  -20.2912  -14.8415 C   0  0  0  0  0  0  0  0  0  0  0  0
   21.6709  -20.4690  -13.3765 C   0  0  2  0  0  0  0  0  0  0  0  0
   22.9339  -20.9864  -12.7869 N   0  0  0  0  0  0  0  0  0  0  0  0
   20.6550  -21.4643  -13.0429 C   0  0  0  0  0  0  0  0  0  0  0  0
   19.3099  -21.1661  -13.1290 O   0  0  0  0  0  0  0  0  0  0  0  0
   20.9617  -22.6101  -12.6710 O   0  0  0  0  0  0  0  0  0  0  0  0
  2  1  1  6
  3  2  1  0
  4  3  1  0
  5  2  1  0
  5  6  2  0
  7  8  1  0
  8  9  1  0
  9 11  1  0
  9 10  1  1
 11 12  1  6
 12  5  1  0
 13 11  1  0
 14 13  2  0
 16 15  1  0
 17 16  2  0
 18 16  1  0
 19 18  1  0
 20 19  1  6
 20 21  1  0
 21 13  1  0
 22 20  1  0
 23 22  1  0
 24 22  2  0
M  END
$$$$
