CIQ.pdb
     RDKit          3D

 24 23  0  0  1  0  0  0  0  0999 V2000
   22.7346  -16.6878  -16.3189 N   0  0  0  0  0  0  0  0  0  0  0  0
   23.1934  -15.6144  -17.1426 C   0  0  1  0  0  0  0  0  0  0  0  0
   22.1433  -15.1768  -18.1590 C   0  0  0  0  0  0  0  0  0  0  0  0
   21.5912  -16.6048  -19.1367 S   0  0  0  0  0  0  0  0  0  0  0  0
   23.5892  -14.4138  -16.3748 C   0  0  0  0  0  0  0  0  0  0  0  0
   22.8636  -14.0525  -15.4125 O   0  0  0  0  0  0  0  0  0  0  0  0
   28.8102  -12.7054  -15.8972 C   0  0  0  0  0  0  0  0  0  0  0  0
   27.3905  -13.1244  -15.5466 C   0  0  0  0  0  0  0  0  0  0  0  0
   26.4786  -12.0218  -16.0227 C   0  0  2  0  0  0  0  0  0  0  0  0
   26.7457  -10.7775  -15.2354 C   0  0  0  0  0  0  0  0  0  0  0  0
   25.0206  -12.4082  -15.9520 C   0  0  2  0  0  0  0  0  0  0  0  0
   24.7445  -13.6366  -16.6564 N   0  0  0  0  0  0  0  0  0  0  0  0
   24.2124  -11.2748  -16.4926 C   0  0  0  0  0  0  0  0  0  0  0  0
   24.3545  -10.9742  -17.7050 O   0  0  0  0  0  0  0  0  0  0  0  0
   18.4380  -10.5576  -16.4286 N   0  0  0  0  0  0  0  0  0  0  0  0
   18.7346   -9.2838  -16.9572 C   0  0  0  0  0  0  0  0  0  0  0  0
   17.8892   -8.5066  -17.4635 O   0  0  0  0  0  0  0  0  0  0  0  0
   20.1608   -8.8188  -16.9143 C   0  0  0  0  0  0  0  0  0  0  0  0
   21.0576   -9.8958  -16.3847 C   0  0  0  0  0  0  0  0  0  0  0  0
   22.4673   -9.4429  -16.2758 C   0  0  2  0  0  0  0  0  0  0  0  0
   23.3079  -10.5344  -15.7166 N   0  0  0  0  0  0  0  0  0  0  0  0
   22.6249   -8.3238  -15.3502 C   0  0  0  0  0  0  0  0  0  0  0  0
   22.3244   -7.0327  -15.7354 O   0  0  0  0  0  0  0  0  0  0  0  0
   23.0334   -8.4910  -14.1880 O   0  0  0  0  0  0  0  0  0  0  0  0
  2  1  1  1
  3  2  1  0
  4  3  1  0
  5  2  1  0
  5  6  2  0
  7  8  1  0
  8  9  1  0
  9 11  1  0
  9 10  1  1
 11 12  1  6
 12  5  1  0
 13 11  1  0
 14 13  2  0
 16 15  1  0
 17 16  2  0
 18 16  1  0
 19 18  1  0
 20 19  1  1
 20 21  1  0
 21 13  1  0
 22 20  1  0
 23 22  1  0
 24 22  2  0
M  END
$$$$
