CIQ.pdb
     RDKit          3D

 24 23  0  0  1  0  0  0  0  0999 V2000
   18.3303  -23.4786   -6.4091 N   0  0  0  0  0  0  0  0  0  0  0  0
   19.2128  -23.8769   -7.4597 C   0  0  1  0  0  0  0  0  0  0  0  0
   18.6489  -25.0324   -8.2807 C   0  0  0  0  0  0  0  0  0  0  0  0
   18.6166  -26.5484   -7.2803 S   0  0  0  0  0  0  0  0  0  0  0  0
   19.5336  -22.7833   -8.4024 C   0  0  0  0  0  0  0  0  0  0  0  0
   18.6295  -21.9573   -8.6911 O   0  0  0  0  0  0  0  0  0  0  0  0
   24.5909  -20.5972   -8.6998 C   0  0  0  0  0  0  0  0  0  0  0  0
   23.0926  -20.8069   -8.5406 C   0  0  0  0  0  0  0  0  0  0  0  0
   22.5483  -21.1317   -9.9089 C   0  0  2  0  0  0  0  0  0  0  0  0
   22.8057  -19.9843  -10.8344 C   0  0  0  0  0  0  0  0  0  0  0  0
   21.0810  -21.4864   -9.8768 C   0  0  2  0  0  0  0  0  0  0  0  0
   20.8065  -22.6045   -9.0072 N   0  0  0  0  0  0  0  0  0  0  0  0
   20.6382  -21.7610  -11.2763 C   0  0  0  0  0  0  0  0  0  0  0  0
   21.0385  -22.8189  -11.8251 O   0  0  0  0  0  0  0  0  0  0  0  0
   15.9558  -23.5254  -13.7229 N   0  0  0  0  0  0  0  0  0  0  0  0
   15.8363  -22.3944  -12.8883 C   0  0  0  0  0  0  0  0  0  0  0  0
   14.7974  -22.0784  -12.2591 O   0  0  0  0  0  0  0  0  0  0  0  0
   17.0329  -21.5014  -12.7377 C   0  0  0  0  0  0  0  0  0  0  0  0
   18.2272  -22.0889  -13.4255 C   0  0  0  0  0  0  0  0  0  0  0  0
   19.3904  -21.1665  -13.4064 C   0  0  2  0  0  0  0  0  0  0  0  0
   19.8020  -20.8999  -12.0029 N   0  0  0  0  0  0  0  0  0  0  0  0
   19.0741  -19.8562  -13.9696 C   0  0  0  0  0  0  0  0  0  0  0  0
   18.7690  -19.7106  -15.3080 O   0  0  0  0  0  0  0  0  0  0  0  0
   19.0679  -18.8293  -13.2691 O   0  0  0  0  0  0  0  0  0  0  0  0
  2  1  1  1
  3  2  1  0
  4  3  1  0
  5  2  1  0
  5  6  2  0
  7  8  1  0
  8  9  1  0
  9 11  1  0
  9 10  1  6
 11 12  1  1
 12  5  1  0
 13 11  1  0
 14 13  2  0
 16 15  1  0
 17 16  2  0
 18 16  1  0
 19 18  1  0
 20 19  1  1
 20 21  1  0
 21 13  1  0
 22 20  1  0
 23 22  1  0
 24 22  2  0
M  END
$$$$
