CIQ.pdb
     RDKit          3D

 24 23  0  0  1  0  0  0  0  0999 V2000
   30.5440  -24.7067  -16.2638 N   0  0  0  0  0  0  0  0  0  0  0  0
   29.3986  -24.2657  -16.9950 C   0  0  1  0  0  0  0  0  0  0  0  0
   28.3182  -25.3393  -17.0786 C   0  0  0  0  0  0  0  0  0  0  0  0
   28.9938  -26.8435  -17.8409 S   0  0  0  0  0  0  0  0  0  0  0  0
   28.7706  -23.0534  -16.4261 C   0  0  0  0  0  0  0  0  0  0  0  0
   28.7750  -22.9072  -15.1765 O   0  0  0  0  0  0  0  0  0  0  0  0
   29.4086  -18.3584  -18.8425 C   0  0  0  0  0  0  0  0  0  0  0  0
   29.3245  -19.3749  -17.7139 C   0  0  0  0  0  0  0  0  0  0  0  0
   27.8593  -19.6137  -17.4484 C   0  0  2  0  0  0  0  0  0  0  0  0
   27.2616  -18.3970  -16.8147 C   0  0  0  0  0  0  0  0  0  0  0  0
   27.6189  -20.8415  -16.6030 C   0  0  2  0  0  0  0  0  0  0  0  0
   28.1582  -22.0361  -17.2060 N   0  0  0  0  0  0  0  0  0  0  0  0
   26.1493  -20.9637  -16.3678 C   0  0  0  0  0  0  0  0  0  0  0  0
   25.4326  -21.3776  -17.3142 O   0  0  0  0  0  0  0  0  0  0  0  0
   23.1330  -20.0238  -10.9056 N   0  0  0  0  0  0  0  0  0  0  0  0
   22.0637  -20.4937  -11.6967 C   0  0  0  0  0  0  0  0  0  0  0  0
   20.8875  -20.6489  -11.2873 O   0  0  0  0  0  0  0  0  0  0  0  0
   22.3458  -20.8340  -13.1308 C   0  0  0  0  0  0  0  0  0  0  0  0
   23.8032  -20.6754  -13.4402 C   0  0  0  0  0  0  0  0  0  0  0  0
   24.0918  -20.8811  -14.8819 C   0  0  2  0  0  0  0  0  0  0  0  0
   25.5346  -20.6407  -15.1487 N   0  0  0  0  0  0  0  0  0  0  0  0
   23.3799  -19.9329  -15.7353 C   0  0  0  0  0  0  0  0  0  0  0  0
   23.8415  -18.6434  -15.9076 O   0  0  0  0  0  0  0  0  0  0  0  0
   22.3380  -20.2498  -16.3348 O   0  0  0  0  0  0  0  0  0  0  0  0
  2  1  1  1
  3  2  1  0
  4  3  1  0
  5  2  1  0
  5  6  2  0
  7  8  1  0
  8  9  1  0
  9 11  1  0
  9 10  1  1
 11 12  1  6
 12  5  1  0
 13 11  1  0
 14 13  2  0
 16 15  1  0
 17 16  2  0
 18 16  1  0
 19 18  1  0
 20 19  1  1
 20 21  1  0
 21 13  1  0
 22 20  1  0
 23 22  1  0
 24 22  2  0
M  END
$$$$
