CIQ.pdb
     RDKit          3D

 24 23  0  0  1  0  0  0  0  0999 V2000
   19.0809  -21.1394  -10.9684 N   0  0  0  0  0  0  0  0  0  0  0  0
   19.8498  -21.7113  -12.0280 C   0  0  1  0  0  0  0  0  0  0  0  0
   19.0198  -21.9353  -13.2882 C   0  0  0  0  0  0  0  0  0  0  0  0
   18.1276  -23.5136  -13.1727 S   0  0  0  0  0  0  0  0  0  0  0  0
   21.0197  -20.8918  -12.4122 C   0  0  0  0  0  0  0  0  0  0  0  0
   21.0213  -19.6710  -12.1077 O   0  0  0  0  0  0  0  0  0  0  0  0
   26.0459  -21.9065  -11.2707 C   0  0  0  0  0  0  0  0  0  0  0  0
   24.6751  -21.3122  -11.5570 C   0  0  0  0  0  0  0  0  0  0  0  0
   24.5857  -21.1173  -13.0497 C   0  0  2  0  0  0  0  0  0  0  0  0
   25.7162  -20.2511  -13.5091 C   0  0  0  0  0  0  0  0  0  0  0  0
   23.2546  -20.5478  -13.4784 C   0  0  2  0  0  0  0  0  0  0  0  0
   22.1498  -21.3985  -13.1080 N   0  0  0  0  0  0  0  0  0  0  0  0
   23.2991  -20.3212  -14.9537 C   0  0  0  0  0  0  0  0  0  0  0  0
   23.3432  -21.3287  -15.7044 O   0  0  0  0  0  0  0  0  0  0  0  0
   18.4028  -18.9425  -16.0527 N   0  0  0  0  0  0  0  0  0  0  0  0
   18.7723  -18.5027  -17.3411 C   0  0  0  0  0  0  0  0  0  0  0  0
   17.9632  -18.1646  -18.2390 O   0  0  0  0  0  0  0  0  0  0  0  0
   20.2352  -18.4316  -17.6679 C   0  0  0  0  0  0  0  0  0  0  0  0
   21.0655  -18.8495  -16.4929 C   0  0  0  0  0  0  0  0  0  0  0  0
   22.5194  -18.7209  -16.7646 C   0  0  2  0  0  0  0  0  0  0  0  0
   23.2943  -19.0456  -15.5379 N   0  0  0  0  0  0  0  0  0  0  0  0
   22.9044  -17.3553  -17.1123 C   0  0  0  0  0  0  0  0  0  0  0  0
   22.5942  -16.8197  -18.3461 O   0  0  0  0  0  0  0  0  0  0  0  0
   23.5223  -16.6288  -16.3150 O   0  0  0  0  0  0  0  0  0  0  0  0
  2  1  1  1
  3  2  1  0
  4  3  1  0
  5  2  1  0
  5  6  2  0
  7  8  1  0
  8  9  1  0
  9 11  1  0
  9 10  1  1
 11 12  1  6
 12  5  1  0
 13 11  1  0
 14 13  2  0
 16 15  1  0
 17 16  2  0
 18 16  1  0
 19 18  1  0
 20 19  1  1
 20 21  1  0
 21 13  1  0
 22 20  1  0
 23 22  1  0
 24 22  2  0
M  END
$$$$
