CIQ.pdb
     RDKit          3D

 24 23  0  0  1  0  0  0  0  0999 V2000
   13.4981  -12.0480  -10.7116 N   0  0  0  0  0  0  0  0  0  0  0  0
   14.7855  -11.4754  -10.4754 C   0  0  1  0  0  0  0  0  0  0  0  0
   15.8472  -12.0324  -11.4187 C   0  0  0  0  0  0  0  0  0  0  0  0
   16.1570  -13.7824  -11.0425 S   0  0  0  0  0  0  0  0  0  0  0  0
   14.8063  -10.0027  -10.6106 C   0  0  0  0  0  0  0  0  0  0  0  0
   14.1038   -9.4742  -11.5107 O   0  0  0  0  0  0  0  0  0  0  0  0
   13.3490   -6.5532   -6.9981 C   0  0  0  0  0  0  0  0  0  0  0  0
   13.6187   -7.2192   -8.3390 C   0  0  0  0  0  0  0  0  0  0  0  0
   15.0851   -7.0288   -8.6350 C   0  0  2  0  0  0  0  0  0  0  0  0
   15.4028   -5.5668   -8.6666 C   0  0  0  0  0  0  0  0  0  0  0  0
   15.5074   -7.7054   -9.9172 C   0  0  2  0  0  0  0  0  0  0  0  0
   15.5742   -9.1403   -9.7831 N   0  0  0  0  0  0  0  0  0  0  0  0
   16.8225   -7.1335  -10.3334 C   0  0  0  0  0  0  0  0  0  0  0  0
   17.8028   -7.2845   -9.5609 O   0  0  0  0  0  0  0  0  0  0  0  0
   22.2198   -7.3936  -14.6773 N   0  0  0  0  0  0  0  0  0  0  0  0
   21.1742   -7.5648  -13.7460 C   0  0  0  0  0  0  0  0  0  0  0  0
   20.9942   -8.5984  -13.0572 O   0  0  0  0  0  0  0  0  0  0  0  0
   20.2046   -6.4345  -13.5608 C   0  0  0  0  0  0  0  0  0  0  0  0
   18.9167   -6.9268  -12.9746 C   0  0  0  0  0  0  0  0  0  0  0  0
   18.3481   -5.9672  -11.9949 C   0  0  2  0  0  0  0  0  0  0  0  0
   17.0147   -6.4404  -11.5381 N   0  0  0  0  0  0  0  0  0  0  0  0
   18.1094   -4.6490  -12.5774 C   0  0  0  0  0  0  0  0  0  0  0  0
   19.1375   -3.7407  -12.7306 O   0  0  0  0  0  0  0  0  0  0  0  0
   16.9781   -4.2978  -12.9547 O   0  0  0  0  0  0  0  0  0  0  0  0
  2  1  1  6
  3  2  1  0
  4  3  1  0
  5  2  1  0
  5  6  2  0
  7  8  1  0
  8  9  1  0
  9 11  1  0
  9 10  1  6
 11 12  1  1
 12  5  1  0
 13 11  1  0
 14 13  2  0
 16 15  1  0
 17 16  2  0
 18 16  1  0
 19 18  1  0
 20 19  1  6
 20 21  1  0
 21 13  1  0
 22 20  1  0
 23 22  1  0
 24 22  2  0
M  END
$$$$
