NQM.pdb
     RDKit          3D

 26 25  0  0  1  0  0  0  0  0999 V2000
   20.0053  -18.7462  -13.7109 N   0  0  0  0  0  0  0  0  0  0  0  0
   20.4947  -19.3139  -14.9302 C   0  0  0  0  0  0  0  0  0  0  0  0
   19.9480  -19.0632  -16.0160 O   0  0  0  0  0  0  0  0  0  0  0  0
   21.6719  -20.2071  -14.8476 C   0  0  0  0  0  0  0  0  0  0  0  0
   22.4034  -19.8994  -13.5604 C   0  0  2  0  0  0  0  0  0  0  0  0
   22.4716  -18.4766  -13.4202 N   0  0  0  0  0  0  0  0  0  0  0  0
   23.7431  -20.5402  -13.5503 C   0  0  0  0  0  0  0  0  0  0  0  0
   23.7938  -21.7841  -13.7223 O   0  0  0  0  0  0  0  0  0  0  0  0
   27.7112  -20.7536  -16.1632 N   0  0  0  0  0  0  0  0  0  0  0  0
   28.8071  -20.6967  -15.2601 C   0  0  0  0  0  0  0  0  0  0  0  0
   29.9148  -21.2143  -15.5237 O   0  0  0  0  0  0  0  0  0  0  0  0
   28.6221  -20.0009  -13.9678 C   0  0  0  0  0  0  0  0  0  0  0  0
   27.2422  -19.5254  -13.7282 C   0  0  0  0  0  0  0  0  0  0  0  0
   26.2220  -20.5202  -13.3085 C   0  0  2  0  0  0  0  0  0  0  0  0
   24.9236  -19.7864  -13.3549 N   0  0  0  0  0  0  0  0  0  0  0  0
   26.3138  -21.0264  -11.9421 C   0  0  0  0  0  0  0  0  0  0  0  0
   26.8978  -22.1249  -11.6323 O   0  0  0  0  0  0  0  0  0  0  0  0
   28.1603  -19.9443   -4.6972 C   0  0  0  0  0  0  0  0  0  0  0  0
   27.6162  -19.1141   -6.2078 S   0  0  0  0  0  0  0  0  0  0  0  0
   26.6120  -20.2739   -7.1955 C   0  0  0  0  0  0  0  0  0  0  0  0
   26.6176  -19.9060   -8.6410 C   0  0  0  0  0  0  0  0  0  0  0  0
   25.8321  -20.8551   -9.4982 C   0  0  2  0  0  0  0  0  0  0  0  0
   25.7575  -20.3205  -10.8625 N   0  0  0  0  0  0  0  0  0  0  0  0
   24.4532  -20.9493   -8.9763 C   0  0  0  0  0  0  0  0  0  0  0  0
   23.4331  -20.4815   -9.5756 O   0  0  0  0  0  0  0  0  0  0  0  0
   24.1974  -21.5842   -7.7480 O   0  0  0  0  0  0  0  0  0  0  0  0
  2  3  2  0
  2  1  1  0
  4  2  1  0
  5  4  1  0
  5  7  1  0
  5  6  1  6
  7  8  2  0
  9 10  1  0
 10 12  1  0
 11 10  2  0
 13 12  1  0
 14 13  1  1
 15 14  1  0
 15  7  1  0
 16 14  1  0
 16 17  2  0
 18 19  1  0
 19 20  1  0
 20 21  1  0
 22 21  1  1
 22 23  1  0
 22 24  1  0
 23 16  1  0
 24 26  1  0
 25 24  2  0
M  END
$$$$
