NQM.pdb
     RDKit          3D

 26 25  0  0  1  0  0  0  0  0999 V2000
   20.9801  -15.9710  -19.3644 N   0  0  0  0  0  0  0  0  0  0  0  0
   20.8063  -15.1742  -20.5406 C   0  0  0  0  0  0  0  0  0  0  0  0
   21.0343  -15.6412  -21.6678 O   0  0  0  0  0  0  0  0  0  0  0  0
   20.3464  -13.7788  -20.3627 C   0  0  0  0  0  0  0  0  0  0  0  0
   20.1500  -13.5358  -18.8831 C   0  0  2  0  0  0  0  0  0  0  0  0
   18.9338  -14.1785  -18.4875 N   0  0  0  0  0  0  0  0  0  0  0  0
   20.1521  -12.0812  -18.5838 C   0  0  0  0  0  0  0  0  0  0  0  0
   21.0645  -11.3839  -19.0945 O   0  0  0  0  0  0  0  0  0  0  0  0
   15.2398   -9.0580  -16.3328 N   0  0  0  0  0  0  0  0  0  0  0  0
   16.1975   -8.0147  -16.2143 C   0  0  0  0  0  0  0  0  0  0  0  0
   15.9118   -6.9011  -15.7220 O   0  0  0  0  0  0  0  0  0  0  0  0
   17.5753   -8.2631  -16.6924 C   0  0  0  0  0  0  0  0  0  0  0  0
   17.8233   -9.6545  -17.1285 C   0  0  0  0  0  0  0  0  0  0  0  0
   19.1908  -10.0115  -17.5859 C   0  0  2  0  0  0  0  0  0  0  0  0
   19.1677  -11.4937  -17.7557 N   0  0  0  0  0  0  0  0  0  0  0  0
   20.2868   -9.7614  -16.6543 C   0  0  0  0  0  0  0  0  0  0  0  0
   20.6577  -10.5987  -15.7571 O   0  0  0  0  0  0  0  0  0  0  0  0
   27.1148  -10.3072  -14.5938 C   0  0  0  0  0  0  0  0  0  0  0  0
   25.6387  -10.5746  -15.6022 S   0  0  0  0  0  0  0  0  0  0  0  0
   24.4486   -9.2287  -15.2836 C   0  0  0  0  0  0  0  0  0  0  0  0
   23.1965   -9.4091  -16.0739 C   0  0  0  0  0  0  0  0  0  0  0  0
   22.1642   -8.3548  -15.7994 C   0  0  2  0  0  0  0  0  0  0  0  0
   21.0174   -8.5622  -16.6909 N   0  0  0  0  0  0  0  0  0  0  0  0
   22.7363   -7.0273  -16.1044 C   0  0  0  0  0  0  0  0  0  0  0  0
   22.7429   -6.5059  -17.2648 O   0  0  0  0  0  0  0  0  0  0  0  0
   23.3209   -6.2519  -15.0873 O   0  0  0  0  0  0  0  0  0  0  0  0
  2  3  2  0
  2  1  1  0
  4  2  1  0
  5  4  1  0
  5  7  1  0
  5  6  1  6
  7  8  2  0
  9 10  1  0
 10 12  1  0
 11 10  2  0
 13 12  1  0
 14 13  1  1
 15 14  1  0
 15  7  1  0
 16 14  1  0
 16 17  2  0
 18 19  1  0
 19 20  1  0
 20 21  1  0
 22 21  1  6
 22 23  1  0
 22 24  1  0
 23 16  1  0
 24 26  1  0
 25 24  2  0
M  END
$$$$
