NQM.pdb
     RDKit          3D

 26 25  0  0  1  0  0  0  0  0999 V2000
   25.9029  -18.1798  -16.2078 N   0  0  0  0  0  0  0  0  0  0  0  0
   27.1152  -18.9392  -16.1599 C   0  0  0  0  0  0  0  0  0  0  0  0
   27.2771  -19.9304  -16.8892 O   0  0  0  0  0  0  0  0  0  0  0  0
   28.1636  -18.4998  -15.2122 C   0  0  0  0  0  0  0  0  0  0  0  0
   28.3405  -19.5849  -14.1740 C   0  0  2  0  0  0  0  0  0  0  0  0
   28.3311  -20.8474  -14.8483 N   0  0  0  0  0  0  0  0  0  0  0  0
   27.2917  -19.4876  -13.1270 C   0  0  0  0  0  0  0  0  0  0  0  0
   27.0934  -18.3614  -12.6057 O   0  0  0  0  0  0  0  0  0  0  0  0
   23.0088  -22.6860  -14.1317 N   0  0  0  0  0  0  0  0  0  0  0  0
   22.7898  -21.2850  -14.2255 C   0  0  0  0  0  0  0  0  0  0  0  0
   22.0619  -20.7824  -15.1097 O   0  0  0  0  0  0  0  0  0  0  0  0
   23.4492  -20.3995  -13.2408 C   0  0  0  0  0  0  0  0  0  0  0  0
   24.2793  -21.1126  -12.2457 C   0  0  0  0  0  0  0  0  0  0  0  0
   25.4725  -20.4154  -11.7010 C   0  0  2  0  0  0  0  0  0  0  0  0
   26.5391  -20.6154  -12.7251 N   0  0  0  0  0  0  0  0  0  0  0  0
   26.0411  -20.9440  -10.4645 C   0  0  0  0  0  0  0  0  0  0  0  0
   26.6453  -22.0722  -10.3893 O   0  0  0  0  0  0  0  0  0  0  0  0
   29.2246  -18.3020   -5.6362 C   0  0  0  0  0  0  0  0  0  0  0  0
   28.0276  -19.2248   -4.6449 S   0  0  0  0  0  0  0  0  0  0  0  0
   27.1976  -20.4546   -5.7070 C   0  0  0  0  0  0  0  0  0  0  0  0
   26.9576  -19.9180   -7.0780 C   0  0  0  0  0  0  0  0  0  0  0  0
   26.2417  -20.8837   -7.9765 C   0  0  2  0  0  0  0  0  0  0  0  0
   25.9600  -20.2282   -9.2585 N   0  0  0  0  0  0  0  0  0  0  0  0
   24.9475  -21.2461   -7.3630 C   0  0  0  0  0  0  0  0  0  0  0  0
   23.8193  -20.8510   -7.7983 O   0  0  0  0  0  0  0  0  0  0  0  0
   24.9037  -22.0750   -6.2279 O   0  0  0  0  0  0  0  0  0  0  0  0
  2  3  2  0
  2  1  1  0
  4  2  1  0
  5  4  1  0
  5  7  1  0
  5  6  1  6
  7  8  2  0
  9 10  1  0
 10 12  1  0
 11 10  2  0
 13 12  1  0
 14 13  1  6
 15 14  1  0
 15  7  1  0
 16 14  1  0
 16 17  2  0
 18 19  1  0
 19 20  1  0
 20 21  1  0
 22 21  1  1
 22 23  1  0
 22 24  1  0
 23 16  1  0
 24 26  1  0
 25 24  2  0
M  END
$$$$
