NQM.pdb
     RDKit          3D

 26 25  0  0  1  0  0  0  0  0999 V2000
   15.4648  -13.1860  -16.0115 N   0  0  0  0  0  0  0  0  0  0  0  0
   16.8731  -13.2333  -16.2625 C   0  0  0  0  0  0  0  0  0  0  0  0
   17.5155  -14.2831  -16.1016 O   0  0  0  0  0  0  0  0  0  0  0  0
   17.5313  -11.9888  -16.7190 C   0  0  0  0  0  0  0  0  0  0  0  0
   16.5115  -10.8735  -16.6658 C   0  0  2  0  0  0  0  0  0  0  0  0
   15.5408  -11.1129  -17.6900 N   0  0  0  0  0  0  0  0  0  0  0  0
   17.1716   -9.5500  -16.8011 C   0  0  0  0  0  0  0  0  0  0  0  0
   17.0600   -8.9546  -17.9022 O   0  0  0  0  0  0  0  0  0  0  0  0
   14.9958   -4.9708  -15.9792 N   0  0  0  0  0  0  0  0  0  0  0  0
   15.1775   -5.6995  -14.7727 C   0  0  0  0  0  0  0  0  0  0  0  0
   14.4270   -5.5480  -13.7837 O   0  0  0  0  0  0  0  0  0  0  0  0
   16.2941   -6.6665  -14.6929 C   0  0  0  0  0  0  0  0  0  0  0  0
   17.1071   -6.7559  -15.9253 C   0  0  0  0  0  0  0  0  0  0  0  0
   18.3554   -7.5599  -15.8837 C   0  0  2  0  0  0  0  0  0  0  0  0
   17.9009   -8.9734  -15.7355 N   0  0  0  0  0  0  0  0  0  0  0  0
   19.2493   -7.3365  -14.7510 C   0  0  0  0  0  0  0  0  0  0  0  0
   19.1953   -8.0126  -13.6631 O   0  0  0  0  0  0  0  0  0  0  0  0
   25.9563   -9.7672  -14.2389 C   0  0  0  0  0  0  0  0  0  0  0  0
   24.3395   -9.4760  -14.9927 S   0  0  0  0  0  0  0  0  0  0  0  0
   23.5990   -7.9810  -14.2538 C   0  0  0  0  0  0  0  0  0  0  0  0
   22.2358   -7.7202  -14.8003 C   0  0  0  0  0  0  0  0  0  0  0  0
   21.5436   -6.5628  -14.1416 C   0  0  2  0  0  0  0  0  0  0  0  0
   20.2456   -6.3471  -14.7907 N   0  0  0  0  0  0  0  0  0  0  0  0
   22.3521   -5.3418  -14.3363 C   0  0  0  0  0  0  0  0  0  0  0  0
   23.3600   -5.0356  -13.6229 O   0  0  0  0  0  0  0  0  0  0  0  0
   22.0317   -4.4297  -15.3575 O   0  0  0  0  0  0  0  0  0  0  0  0
  2  3  2  0
  2  1  1  0
  4  2  1  0
  5  4  1  0
  5  7  1  0
  5  6  1  6
  7  8  2  0
  9 10  1  0
 10 12  1  0
 11 10  2  0
 13 12  1  0
 14 13  1  1
 15 14  1  0
 15  7  1  0
 16 14  1  0
 16 17  2  0
 18 19  1  0
 19 20  1  0
 20 21  1  0
 22 21  1  6
 22 23  1  0
 22 24  1  0
 23 16  1  0
 24 26  1  0
 25 24  2  0
M  END
$$$$
