NQM.pdb
     RDKit          3D

 26 25  0  0  1  0  0  0  0  0999 V2000
   31.1743  -21.0284  -10.2275 N   0  0  0  0  0  0  0  0  0  0  0  0
   30.6016  -21.2467  -11.5208 C   0  0  0  0  0  0  0  0  0  0  0  0
   30.9958  -22.1741  -12.2455 O   0  0  0  0  0  0  0  0  0  0  0  0
   29.5264  -20.3291  -11.9593 C   0  0  0  0  0  0  0  0  0  0  0  0
   28.5213  -21.1319  -12.7544 C   0  0  2  0  0  0  0  0  0  0  0  0
   29.1656  -21.5885  -13.9481 N   0  0  0  0  0  0  0  0  0  0  0  0
   27.3057  -20.3255  -13.0328 C   0  0  0  0  0  0  0  0  0  0  0  0
   26.7881  -19.7031  -12.0715 O   0  0  0  0  0  0  0  0  0  0  0  0
   25.6301  -18.4482  -18.6685 N   0  0  0  0  0  0  0  0  0  0  0  0
   26.1254  -17.4419  -17.7958 C   0  0  0  0  0  0  0  0  0  0  0  0
   26.5592  -16.3478  -18.2190 O   0  0  0  0  0  0  0  0  0  0  0  0
   26.1247  -17.7063  -16.3403 C   0  0  0  0  0  0  0  0  0  0  0  0
   25.5648  -19.0227  -15.9642 C   0  0  0  0  0  0  0  0  0  0  0  0
   25.5446  -19.3895  -14.5249 C   0  0  2  0  0  0  0  0  0  0  0  0
   26.7443  -20.2548  -14.3289 N   0  0  0  0  0  0  0  0  0  0  0  0
   24.4219  -20.2014  -14.0643 C   0  0  0  0  0  0  0  0  0  0  0  0
   24.3253  -21.4617  -14.2785 O   0  0  0  0  0  0  0  0  0  0  0  0
   19.7359  -21.6590   -8.1085 C   0  0  0  0  0  0  0  0  0  0  0  0
   21.0046  -20.6118   -8.8574 S   0  0  0  0  0  0  0  0  0  0  0  0
   21.0603  -20.9357  -10.6521 C   0  0  0  0  0  0  0  0  0  0  0  0
   22.1636  -20.1770  -11.3095 C   0  0  0  0  0  0  0  0  0  0  0  0
   22.3037  -20.4812  -12.7725 C   0  0  2  0  0  0  0  0  0  0  0  0
   23.3599  -19.6353  -13.3397 N   0  0  0  0  0  0  0  0  0  0  0  0
   21.0400  -20.1437  -13.4593 C   0  0  0  0  0  0  0  0  0  0  0  0
   20.8127  -19.0243  -14.0196 O   0  0  0  0  0  0  0  0  0  0  0  0
   19.9930  -21.0800  -13.5270 O   0  0  0  0  0  0  0  0  0  0  0  0
  2  3  2  0
  2  1  1  0
  4  2  1  0
  5  4  1  0
  5  7  1  0
  5  6  1  6
  7  8  2  0
  9 10  1  0
 10 12  1  0
 11 10  2  0
 13 12  1  0
 14 13  1  6
 15 14  1  0
 15  7  1  0
 16 14  1  0
 16 17  2  0
 18 19  1  0
 19 20  1  0
 20 21  1  0
 22 21  1  1
 22 23  1  0
 22 24  1  0
 23 16  1  0
 24 26  1  0
 25 24  2  0
M  END
$$$$
