NQM.pdb
     RDKit          3D

 26 25  0  0  1  0  0  0  0  0999 V2000
   15.0324  -13.0041  -10.2494 N   0  0  0  0  0  0  0  0  0  0  0  0
   15.9208  -12.7556  -11.3437 C   0  0  0  0  0  0  0  0  0  0  0  0
   16.5145  -13.6878  -11.9086 O   0  0  0  0  0  0  0  0  0  0  0  0
   16.1040  -11.3515  -11.7741 C   0  0  0  0  0  0  0  0  0  0  0  0
   15.2578  -10.4736  -10.8795 C   0  0  2  0  0  0  0  0  0  0  0  0
   13.8827  -10.7241  -11.1876 N   0  0  0  0  0  0  0  0  0  0  0  0
   15.6292   -9.0448  -11.0407 C   0  0  0  0  0  0  0  0  0  0  0  0
   15.2128   -8.4479  -12.0653 O   0  0  0  0  0  0  0  0  0  0  0  0
   15.2284   -5.0106   -6.8248 N   0  0  0  0  0  0  0  0  0  0  0  0
   14.2492   -5.4774   -7.7429 C   0  0  0  0  0  0  0  0  0  0  0  0
   13.0232   -5.3806   -7.5156 O   0  0  0  0  0  0  0  0  0  0  0  0
   14.7046   -6.0976   -9.0064 C   0  0  0  0  0  0  0  0  0  0  0  0
   16.1734   -6.2275   -9.1223 C   0  0  0  0  0  0  0  0  0  0  0  0
   16.7225   -6.9291  -10.3109 C   0  0  2  0  0  0  0  0  0  0  0  0
   16.4219   -8.3726  -10.0816 N   0  0  0  0  0  0  0  0  0  0  0  0
   18.1692   -6.8767  -10.5010 C   0  0  0  0  0  0  0  0  0  0  0  0
   18.9934   -7.6292   -9.8702 O   0  0  0  0  0  0  0  0  0  0  0  0
   23.1809  -10.2600  -12.9332 C   0  0  0  0  0  0  0  0  0  0  0  0
   21.8640   -9.3482  -13.7707 S   0  0  0  0  0  0  0  0  0  0  0  0
   21.7043   -7.6985  -13.0078 C   0  0  0  0  0  0  0  0  0  0  0  0
   20.3134   -7.4509  -12.5293 C   0  0  0  0  0  0  0  0  0  0  0  0
   20.1537   -6.1364  -11.8229 C   0  0  2  0  0  0  0  0  0  0  0  0
   18.7544   -5.9800  -11.4102 N   0  0  0  0  0  0  0  0  0  0  0  0
   20.4703   -5.0413  -12.7627 C   0  0  0  0  0  0  0  0  0  0  0  0
   19.6108   -4.4772  -13.5120 O   0  0  0  0  0  0  0  0  0  0  0  0
   21.7852   -4.5554  -12.8746 O   0  0  0  0  0  0  0  0  0  0  0  0
  2  3  2  0
  2  1  1  0
  4  2  1  0
  5  4  1  0
  5  7  1  0
  5  6  1  6
  7  8  2  0
  9 10  1  0
 10 12  1  0
 11 10  2  0
 13 12  1  0
 14 13  1  1
 15 14  1  0
 15  7  1  0
 16 14  1  0
 16 17  2  0
 18 19  1  0
 19 20  1  0
 20 21  1  0
 22 21  1  6
 22 23  1  0
 22 24  1  0
 23 16  1  0
 24 26  1  0
 25 24  2  0
M  END
$$$$
