NQM.pdb
     RDKit          3D

 26 25  0  0  1  0  0  0  0  0999 V2000
   14.3434  -22.6906    4.3243 N   0  0  0  0  0  0  0  0  0  0  0  0
   15.0914  -22.4885    3.1209 C   0  0  0  0  0  0  0  0  0  0  0  0
   14.6831  -22.9273    2.0339 O   0  0  0  0  0  0  0  0  0  0  0  0
   16.3642  -21.7399    3.2212 C   0  0  0  0  0  0  0  0  0  0  0  0
   16.0859  -20.2949    2.8732 C   0  0  2  0  0  0  0  0  0  0  0  0
   15.7537  -20.2314    1.4825 N   0  0  0  0  0  0  0  0  0  0  0  0
   17.2456  -19.4363    3.2243 C   0  0  0  0  0  0  0  0  0  0  0  0
   18.2564  -19.4914    2.4794 O   0  0  0  0  0  0  0  0  0  0  0  0
   17.0421  -13.6740    3.8969 N   0  0  0  0  0  0  0  0  0  0  0  0
   16.4932  -14.3308    5.0314 C   0  0  0  0  0  0  0  0  0  0  0  0
   15.7211  -13.7521    5.8271 O   0  0  0  0  0  0  0  0  0  0  0  0
   16.8533  -15.7454    5.2714 C   0  0  0  0  0  0  0  0  0  0  0  0
   17.8173  -16.2989    4.2957 C   0  0  0  0  0  0  0  0  0  0  0  0
   18.3713  -17.6535    4.5503 C   0  0  2  0  0  0  0  0  0  0  0  0
   17.2224  -18.5850    4.3533 N   0  0  0  0  0  0  0  0  0  0  0  0
   18.8468  -17.9309    5.9026 C   0  0  0  0  0  0  0  0  0  0  0  0
   18.1838  -18.6172    6.7588 O   0  0  0  0  0  0  0  0  0  0  0  0
   24.7409  -17.0566   11.1259 C   0  0  0  0  0  0  0  0  0  0  0  0
   24.1760  -16.7999    9.4283 S   0  0  0  0  0  0  0  0  0  0  0  0
   22.4129  -17.2551    9.3126 C   0  0  0  0  0  0  0  0  0  0  0  0
   21.9257  -17.1970    7.9040 C   0  0  0  0  0  0  0  0  0  0  0  0
   20.4926  -17.6167    7.7537 C   0  0  2  0  0  0  0  0  0  0  0  0
   20.0889  -17.4536    6.3526 N   0  0  0  0  0  0  0  0  0  0  0  0
   19.6410  -16.7301    8.5730 C   0  0  0  0  0  0  0  0  0  0  0  0
   19.2215  -15.5926    8.1874 O   0  0  0  0  0  0  0  0  0  0  0  0
   19.2409  -17.1189    9.8638 O   0  0  0  0  0  0  0  0  0  0  0  0
  2  3  2  0
  2  1  1  0
  4  2  1  0
  5  4  1  0
  5  7  1  0
  5  6  1  6
  7  8  2  0
  9 10  1  0
 10 12  1  0
 11 10  2  0
 13 12  1  0
 14 13  1  1
 15 14  1  0
 15  7  1  0
 16 14  1  0
 16 17  2  0
 18 19  1  0
 19 20  1  0
 20 21  1  0
 22 21  1  6
 22 23  1  0
 22 24  1  0
 23 16  1  0
 24 26  1  0
 25 24  2  0
M  END
$$$$
