NQM.pdb
     RDKit          3D

 26 25  0  0  1  0  0  0  0  0999 V2000
   28.9668  -22.2806  -16.0277 N   0  0  0  0  0  0  0  0  0  0  0  0
   28.7874  -20.8718  -16.2061 C   0  0  0  0  0  0  0  0  0  0  0  0
   29.2552  -20.2889  -17.1971 O   0  0  0  0  0  0  0  0  0  0  0  0
   28.0265  -20.1399  -15.1690 C   0  0  0  0  0  0  0  0  0  0  0  0
   26.5566  -20.4279  -15.3763 C   0  0  2  0  0  0  0  0  0  0  0  0
   26.1213  -19.6976  -16.5278 N   0  0  0  0  0  0  0  0  0  0  0  0
   25.7774  -20.0920  -14.1575 C   0  0  0  0  0  0  0  0  0  0  0  0
   25.7493  -18.8878  -13.7990 O   0  0  0  0  0  0  0  0  0  0  0  0
   21.3301  -18.2987  -13.6445 N   0  0  0  0  0  0  0  0  0  0  0  0
   21.3063  -19.4965  -12.8800 C   0  0  0  0  0  0  0  0  0  0  0  0
   20.6536  -19.5958  -11.8178 O   0  0  0  0  0  0  0  0  0  0  0  0
   22.0827  -20.6590  -13.3641 C   0  0  0  0  0  0  0  0  0  0  0  0
   22.9881  -21.2461  -12.3525 C   0  0  0  0  0  0  0  0  0  0  0  0
   24.3437  -20.6580  -12.2010 C   0  0  2  0  0  0  0  0  0  0  0  0
   25.0893  -21.0842  -13.4212 N   0  0  0  0  0  0  0  0  0  0  0  0
   25.1528  -21.1384  -11.0846 C   0  0  0  0  0  0  0  0  0  0  0  0
   25.5687  -22.3466  -10.9807 O   0  0  0  0  0  0  0  0  0  0  0  0
   29.2235  -19.3954   -4.5434 C   0  0  0  0  0  0  0  0  0  0  0  0
   28.3660  -18.7649   -6.0043 S   0  0  0  0  0  0  0  0  0  0  0  0
   27.4731  -20.1377   -6.8089 C   0  0  0  0  0  0  0  0  0  0  0  0
   26.8564  -19.7069   -8.0969 C   0  0  0  0  0  0  0  0  0  0  0  0
   26.1521  -20.8182   -8.8191 C   0  0  2  0  0  0  0  0  0  0  0  0
   25.5339  -20.2832  -10.0374 N   0  0  0  0  0  0  0  0  0  0  0  0
   25.0713  -21.3440   -7.9601 C   0  0  0  0  0  0  0  0  0  0  0  0
   23.8414  -21.0544   -8.1082 O   0  0  0  0  0  0  0  0  0  0  0  0
   25.3650  -22.2210   -6.9008 O   0  0  0  0  0  0  0  0  0  0  0  0
  2  3  2  0
  2  1  1  0
  4  2  1  0
  5  4  1  0
  5  7  1  0
  5  6  1  6
  7  8  2  0
  9 10  1  0
 10 12  1  0
 11 10  2  0
 13 12  1  0
 14 13  1  6
 15 14  1  0
 15  7  1  0
 16 14  1  0
 16 17  2  0
 18 19  1  0
 19 20  1  0
 20 21  1  0
 22 21  1  1
 22 23  1  0
 22 24  1  0
 23 16  1  0
 24 26  1  0
 25 24  2  0
M  END
$$$$
