NQM.pdb
     RDKit          3D

 26 25  0  0  1  0  0  0  0  0999 V2000
   13.3958  -12.0941  -16.7511 N   0  0  0  0  0  0  0  0  0  0  0  0
   13.8376  -11.7158  -15.4434 C   0  0  0  0  0  0  0  0  0  0  0  0
   13.0237  -11.4035  -14.5598 O   0  0  0  0  0  0  0  0  0  0  0  0
   15.2950  -11.7110  -15.1858 C   0  0  0  0  0  0  0  0  0  0  0  0
   16.0000  -12.0514  -16.4795 C   0  0  2  0  0  0  0  0  0  0  0  0
   16.1285  -13.4751  -16.5514 N   0  0  0  0  0  0  0  0  0  0  0  0
   17.3083  -11.3538  -16.5653 C   0  0  0  0  0  0  0  0  0  0  0  0
   18.2661  -11.8314  -15.9066 O   0  0  0  0  0  0  0  0  0  0  0  0
   21.4182   -7.2973  -21.0711 N   0  0  0  0  0  0  0  0  0  0  0  0
   20.2937   -8.0376  -20.6163 C   0  0  0  0  0  0  0  0  0  0  0  0
   19.5047   -8.6024  -21.4054 O   0  0  0  0  0  0  0  0  0  0  0  0
   20.0560   -8.1375  -19.1596 C   0  0  0  0  0  0  0  0  0  0  0  0
   18.8555   -8.9204  -18.7942 C   0  0  0  0  0  0  0  0  0  0  0  0
   18.8569   -9.6379  -17.4935 C   0  0  2  0  0  0  0  0  0  0  0  0
   17.4791  -10.1942  -17.3566 N   0  0  0  0  0  0  0  0  0  0  0  0
   19.0527   -8.8310  -16.2925 C   0  0  0  0  0  0  0  0  0  0  0  0
   18.1009   -8.2232  -15.6856 O   0  0  0  0  0  0  0  0  0  0  0  0
   22.8162  -10.4562  -11.4839 C   0  0  0  0  0  0  0  0  0  0  0  0
   21.7472   -9.1733  -10.7923 S   0  0  0  0  0  0  0  0  0  0  0  0
   21.2568   -8.0258  -12.1235 C   0  0  0  0  0  0  0  0  0  0  0  0
   21.0780   -8.7398  -13.4209 C   0  0  0  0  0  0  0  0  0  0  0  0
   20.5046   -7.8714  -14.5023 C   0  0  2  0  0  0  0  0  0  0  0  0
   20.3246   -8.6737  -15.7175 N   0  0  0  0  0  0  0  0  0  0  0  0
   21.4637   -6.7918  -14.8144 C   0  0  0  0  0  0  0  0  0  0  0  0
   22.2151   -6.7836  -15.8410 O   0  0  0  0  0  0  0  0  0  0  0  0
   21.5932   -5.6836  -13.9585 O   0  0  0  0  0  0  0  0  0  0  0  0
  2  3  2  0
  2  1  1  0
  4  2  1  0
  5  4  1  0
  5  7  1  0
  5  6  1  1
  7  8  2  0
  9 10  1  0
 10 12  1  0
 11 10  2  0
 13 12  1  0
 14 13  1  6
 15 14  1  0
 15  7  1  0
 16 14  1  0
 16 17  2  0
 18 19  1  0
 19 20  1  0
 20 21  1  0
 22 21  1  1
 22 23  1  0
 22 24  1  0
 23 16  1  0
 24 26  1  0
 25 24  2  0
M  END
$$$$
