NQM.pdb
     RDKit          3D

 26 25  0  0  1  0  0  0  0  0999 V2000
   15.9391  -12.0884  -15.4594 N   0  0  0  0  0  0  0  0  0  0  0  0
   16.9959  -12.9271  -14.9815 C   0  0  0  0  0  0  0  0  0  0  0  0
   16.7700  -13.8398  -14.1712 O   0  0  0  0  0  0  0  0  0  0  0  0
   18.3619  -12.6660  -15.4878 C   0  0  0  0  0  0  0  0  0  0  0  0
   18.2815  -11.5366  -16.4902 C   0  0  2  0  0  0  0  0  0  0  0  0
   17.7470  -12.0645  -17.7086 N   0  0  0  0  0  0  0  0  0  0  0  0
   19.6114  -10.9024  -16.6762 C   0  0  0  0  0  0  0  0  0  0  0  0
   20.3485  -10.7902  -15.6646 O   0  0  0  0  0  0  0  0  0  0  0  0
   21.5643   -8.3308  -21.7713 N   0  0  0  0  0  0  0  0  0  0  0  0
   22.8112   -8.2954  -21.0903 C   0  0  0  0  0  0  0  0  0  0  0  0
   23.7612   -7.5799  -21.4770 O   0  0  0  0  0  0  0  0  0  0  0  0
   22.9820   -9.1367  -19.8854 C   0  0  0  0  0  0  0  0  0  0  0  0
   21.7515   -9.8360  -19.4557 C   0  0  0  0  0  0  0  0  0  0  0  0
   21.3654   -9.7569  -18.0235 C   0  0  2  0  0  0  0  0  0  0  0  0
   20.0407  -10.4388  -17.9414 N   0  0  0  0  0  0  0  0  0  0  0  0
   21.1321   -8.4248  -17.4732 C   0  0  0  0  0  0  0  0  0  0  0  0
   20.0517   -7.7608  -17.6613 O   0  0  0  0  0  0  0  0  0  0  0  0
   21.9015   -6.6693  -11.7292 C   0  0  0  0  0  0  0  0  0  0  0  0
   21.3669   -5.0644  -12.3661 S   0  0  0  0  0  0  0  0  0  0  0  0
   21.6464   -5.0165  -14.1685 C   0  0  0  0  0  0  0  0  0  0  0  0
   21.6829   -6.3889  -14.7517 C   0  0  0  0  0  0  0  0  0  0  0  0
   21.9026   -6.3974  -16.2364 C   0  0  2  0  0  0  0  0  0  0  0  0
   22.0997   -7.7805  -16.6846 N   0  0  0  0  0  0  0  0  0  0  0  0
   23.1351   -5.6443  -16.5467 C   0  0  0  0  0  0  0  0  0  0  0  0
   24.2118   -6.1822  -16.9590 O   0  0  0  0  0  0  0  0  0  0  0  0
   23.1743   -4.2469  -16.3946 O   0  0  0  0  0  0  0  0  0  0  0  0
  2  3  2  0
  2  1  1  0
  4  2  1  0
  5  4  1  0
  5  7  1  0
  5  6  1  6
  7  8  2  0
  9 10  1  0
 10 12  1  0
 11 10  2  0
 13 12  1  0
 14 13  1  6
 15 14  1  0
 15  7  1  0
 16 14  1  0
 16 17  2  0
 18 19  1  0
 19 20  1  0
 20 21  1  0
 22 21  1  1
 22 23  1  0
 22 24  1  0
 23 16  1  0
 24 26  1  0
 25 24  2  0
M  END
$$$$
