NQM.pdb
     RDKit          3D

 26 25  0  0  1  0  0  0  0  0999 V2000
   15.0517  -12.2402  -15.7049 N   0  0  0  0  0  0  0  0  0  0  0  0
   15.9146  -12.0301  -14.5825 C   0  0  0  0  0  0  0  0  0  0  0  0
   15.8041  -12.7170  -13.5546 O   0  0  0  0  0  0  0  0  0  0  0  0
   16.9390  -10.9677  -14.6935 C   0  0  0  0  0  0  0  0  0  0  0  0
   16.6780  -10.1973  -15.9683 C   0  0  2  0  0  0  0  0  0  0  0  0
   17.1539  -10.9840  -17.0653 N   0  0  0  0  0  0  0  0  0  0  0  0
   17.3098   -8.8546  -15.9106 C   0  0  0  0  0  0  0  0  0  0  0  0
   18.4291   -8.7145  -16.4646 O   0  0  0  0  0  0  0  0  0  0  0  0
   15.6684   -1.9705  -13.8729 N   0  0  0  0  0  0  0  0  0  0  0  0
   15.4571   -3.1311  -14.6654 C   0  0  0  0  0  0  0  0  0  0  0  0
   14.3369   -3.4169  -15.1424 O   0  0  0  0  0  0  0  0  0  0  0  0
   16.6059   -4.0251  -14.9290 C   0  0  0  0  0  0  0  0  0  0  0  0
   16.2471   -5.4559  -15.0379 C   0  0  0  0  0  0  0  0  0  0  0  0
   17.3253   -6.4253  -15.3608 C   0  0  2  0  0  0  0  0  0  0  0  0
   16.6823   -7.7679  -15.2584 N   0  0  0  0  0  0  0  0  0  0  0  0
   18.4586   -6.4853  -14.4421 C   0  0  0  0  0  0  0  0  0  0  0  0
   18.5559   -7.3422  -13.4936 O   0  0  0  0  0  0  0  0  0  0  0  0
   22.9112  -10.2505  -12.8245 C   0  0  0  0  0  0  0  0  0  0  0  0
   23.3549   -9.0098  -14.0618 S   0  0  0  0  0  0  0  0  0  0  0  0
   22.6887   -7.3911  -13.5468 C   0  0  0  0  0  0  0  0  0  0  0  0
   21.4404   -7.0533  -14.2902 C   0  0  0  0  0  0  0  0  0  0  0  0
   20.7713   -5.8060  -13.7912 C   0  0  2  0  0  0  0  0  0  0  0  0
   19.5344   -5.5884  -14.5498 N   0  0  0  0  0  0  0  0  0  0  0  0
   21.6584   -4.6505  -14.0368 C   0  0  0  0  0  0  0  0  0  0  0  0
   22.7464   -4.4441  -13.4106 O   0  0  0  0  0  0  0  0  0  0  0  0
   21.3272   -3.6915  -15.0105 O   0  0  0  0  0  0  0  0  0  0  0  0
  2  3  2  0
  2  1  1  0
  4  2  1  0
  5  4  1  0
  5  7  1  0
  5  6  1  6
  7  8  2  0
  9 10  1  0
 10 12  1  0
 11 10  2  0
 13 12  1  0
 14 13  1  1
 15 14  1  0
 15  7  1  0
 16 14  1  0
 16 17  2  0
 18 19  1  0
 19 20  1  0
 20 21  1  0
 22 21  1  6
 22 23  1  0
 22 24  1  0
 23 16  1  0
 24 26  1  0
 25 24  2  0
M  END
$$$$
