NQM.pdb
     RDKit          3D

 26 25  0  0  1  0  0  0  0  0999 V2000
   16.2049  -13.1432  -15.8425 N   0  0  0  0  0  0  0  0  0  0  0  0
   17.3916  -13.5359  -15.1454 C   0  0  0  0  0  0  0  0  0  0  0  0
   17.5730  -14.7166  -14.8081 O   0  0  0  0  0  0  0  0  0  0  0  0
   18.3897  -12.4857  -14.8434 C   0  0  0  0  0  0  0  0  0  0  0  0
   18.6282  -11.6895  -16.1068 C   0  0  2  0  0  0  0  0  0  0  0  0
   19.2793  -12.5448  -17.0518 N   0  0  0  0  0  0  0  0  0  0  0  0
   19.4088  -10.4603  -15.8148 C   0  0  0  0  0  0  0  0  0  0  0  0
   19.0092   -9.7274  -14.8753 O   0  0  0  0  0  0  0  0  0  0  0  0
   25.2288   -9.5245  -17.6321 N   0  0  0  0  0  0  0  0  0  0  0  0
   24.9599   -8.2183  -17.1409 C   0  0  0  0  0  0  0  0  0  0  0  0
   25.8241   -7.3142  -17.1450 O   0  0  0  0  0  0  0  0  0  0  0  0
   23.6105   -7.9278  -16.6086 C   0  0  0  0  0  0  0  0  0  0  0  0
   22.6766   -9.0732  -16.6682 C   0  0  0  0  0  0  0  0  0  0  0  0
   21.2829   -8.8652  -16.1981 C   0  0  2  0  0  0  0  0  0  0  0  0
   20.5605  -10.1193  -16.5612 N   0  0  0  0  0  0  0  0  0  0  0  0
   20.5202   -7.7981  -16.8395 C   0  0  0  0  0  0  0  0  0  0  0  0
   20.0314   -7.8898  -18.0211 O   0  0  0  0  0  0  0  0  0  0  0  0
   14.4340   -3.7678  -17.7912 C   0  0  0  0  0  0  0  0  0  0  0  0
   15.4200   -5.1644  -17.2042 S   0  0  0  0  0  0  0  0  0  0  0  0
   17.1855   -4.7056  -17.2457 C   0  0  0  0  0  0  0  0  0  0  0  0
   18.0519   -5.8277  -16.7817 C   0  0  0  0  0  0  0  0  0  0  0  0
   19.5176   -5.5115  -16.8455 C   0  0  2  0  0  0  0  0  0  0  0  0
   20.2692   -6.5826  -16.1817 N   0  0  0  0  0  0  0  0  0  0  0  0
   19.7741   -4.2580  -16.1069 C   0  0  0  0  0  0  0  0  0  0  0  0
   20.3179   -4.2088  -14.9579 O   0  0  0  0  0  0  0  0  0  0  0  0
   19.4153   -3.0169  -16.6623 O   0  0  0  0  0  0  0  0  0  0  0  0
  2  3  2  0
  2  1  1  0
  4  2  1  0
  5  4  1  0
  5  7  1  0
  5  6  1  6
  7  8  2  0
  9 10  1  0
 10 12  1  0
 11 10  2  0
 13 12  1  0
 14 13  1  6
 15 14  1  0
 15  7  1  0
 16 14  1  0
 16 17  2  0
 18 19  1  0
 19 20  1  0
 20 21  1  0
 22 21  1  1
 22 23  1  0
 22 24  1  0
 23 16  1  0
 24 26  1  0
 25 24  2  0
M  END
$$$$
