NQM.pdb
     RDKit          3D

 26 25  0  0  1  0  0  0  0  0999 V2000
   20.9678  -16.2823  -19.6591 N   0  0  0  0  0  0  0  0  0  0  0  0
   20.7339  -15.4092  -20.7688 C   0  0  0  0  0  0  0  0  0  0  0  0
   20.4231  -15.8609  -21.8823 O   0  0  0  0  0  0  0  0  0  0  0  0
   20.8760  -13.9540  -20.5393 C   0  0  0  0  0  0  0  0  0  0  0  0
   21.2854  -13.7452  -19.0986 C   0  0  2  0  0  0  0  0  0  0  0  0
   20.6847  -14.7808  -18.3141 N   0  0  0  0  0  0  0  0  0  0  0  0
   20.9084  -12.3853  -18.6361 C   0  0  0  0  0  0  0  0  0  0  0  0
   21.3060  -11.4080  -19.3190 O   0  0  0  0  0  0  0  0  0  0  0  0
   16.1974  -11.2064  -14.8594 N   0  0  0  0  0  0  0  0  0  0  0  0
   16.6580   -9.8748  -15.0441 C   0  0  0  0  0  0  0  0  0  0  0  0
   16.0282   -8.8857  -14.6090 O   0  0  0  0  0  0  0  0  0  0  0  0
   17.9251   -9.6610  -15.7772 C   0  0  0  0  0  0  0  0  0  0  0  0
   18.4758  -10.8825  -16.4035 C   0  0  0  0  0  0  0  0  0  0  0  0
   19.7912  -10.7866  -17.0869 C   0  0  2  0  0  0  0  0  0  0  0  0
   20.1309  -12.1878  -17.4715 N   0  0  0  0  0  0  0  0  0  0  0  0
   20.9239  -10.3372  -16.2826 C   0  0  0  0  0  0  0  0  0  0  0  0
   21.5875  -11.1080  -15.5022 O   0  0  0  0  0  0  0  0  0  0  0  0
   28.0327   -9.2445  -16.1055 C   0  0  0  0  0  0  0  0  0  0  0  0
   26.4373   -9.7904  -16.7566 S   0  0  0  0  0  0  0  0  0  0  0  0
   25.1030   -8.9070  -15.8800 C   0  0  0  0  0  0  0  0  0  0  0  0
   23.7572   -9.3494  -16.3470 C   0  0  0  0  0  0  0  0  0  0  0  0
   22.6282   -8.6123  -15.6877 C   0  0  2  0  0  0  0  0  0  0  0  0
   21.3643   -9.0039  -16.3216 N   0  0  0  0  0  0  0  0  0  0  0  0
   22.8080   -7.1617  -15.9017 C   0  0  0  0  0  0  0  0  0  0  0  0
   22.2847   -6.5151  -16.8643 O   0  0  0  0  0  0  0  0  0  0  0  0
   23.5949   -6.4025  -15.0174 O   0  0  0  0  0  0  0  0  0  0  0  0
  2  3  2  0
  2  1  1  0
  4  2  1  0
  5  4  1  0
  5  7  1  0
  5  6  1  1
  7  8  2  0
  9 10  1  0
 10 12  1  0
 11 10  2  0
 13 12  1  0
 14 13  1  1
 15 14  1  0
 15  7  1  0
 16 14  1  0
 16 17  2  0
 18 19  1  0
 19 20  1  0
 20 21  1  0
 22 21  1  6
 22 23  1  0
 22 24  1  0
 23 16  1  0
 24 26  1  0
 25 24  2  0
M  END
$$$$
