NQM.pdb
     RDKit          3D

 26 25  0  0  1  0  0  0  0  0999 V2000
   27.0594  -24.8209  -18.3796 N   0  0  0  0  0  0  0  0  0  0  0  0
   27.4082  -25.3476  -17.0953 C   0  0  0  0  0  0  0  0  0  0  0  0
   27.2577  -26.5523  -16.8367 O   0  0  0  0  0  0  0  0  0  0  0  0
   27.9526  -24.4058  -16.0918 C   0  0  0  0  0  0  0  0  0  0  0  0
   28.0336  -23.0373  -16.7300 C   0  0  2  0  0  0  0  0  0  0  0  0
   29.3755  -22.8420  -17.1879 N   0  0  0  0  0  0  0  0  0  0  0  0
   27.5953  -21.9856  -15.7775 C   0  0  0  0  0  0  0  0  0  0  0  0
   28.4585  -21.5129  -14.9958 O   0  0  0  0  0  0  0  0  0  0  0  0
   22.8232  -18.3489  -16.9463 N   0  0  0  0  0  0  0  0  0  0  0  0
   23.1170  -17.8601  -15.6446 C   0  0  0  0  0  0  0  0  0  0  0  0
   22.5290  -16.8700  -15.1565 O   0  0  0  0  0  0  0  0  0  0  0  0
   24.1545  -18.5512  -14.8482 C   0  0  0  0  0  0  0  0  0  0  0  0
   24.8531  -19.6345  -15.5735 C   0  0  0  0  0  0  0  0  0  0  0  0
   25.9405  -20.3609  -14.8688 C   0  0  2  0  0  0  0  0  0  0  0  0
   26.2580  -21.5268  -15.7442 N   0  0  0  0  0  0  0  0  0  0  0  0
   25.6128  -20.9480  -13.5727 C   0  0  0  0  0  0  0  0  0  0  0  0
   24.8598  -21.9759  -13.4317 O   0  0  0  0  0  0  0  0  0  0  0  0
   28.7715  -19.9452   -7.7819 C   0  0  0  0  0  0  0  0  0  0  0  0
   27.0248  -19.8117   -7.3365 S   0  0  0  0  0  0  0  0  0  0  0  0
   26.0194  -20.6337   -8.6182 C   0  0  0  0  0  0  0  0  0  0  0  0
   26.4401  -20.2223   -9.9888 C   0  0  0  0  0  0  0  0  0  0  0  0
   25.7159  -20.9581  -11.0781 C   0  0  2  0  0  0  0  0  0  0  0  0
   26.1186  -20.4095  -12.3779 N   0  0  0  0  0  0  0  0  0  0  0  0
   24.2630  -20.7368  -10.9274 C   0  0  0  0  0  0  0  0  0  0  0  0
   23.5374  -21.3385  -10.0730 O   0  0  0  0  0  0  0  0  0  0  0  0
   23.5925  -19.8164  -11.7524 O   0  0  0  0  0  0  0  0  0  0  0  0
  2  3  2  0
  2  1  1  0
  4  2  1  0
  5  4  1  0
  5  7  1  0
  5  6  1  1
  7  8  2  0
  9 10  1  0
 10 12  1  0
 11 10  2  0
 13 12  1  0
 14 13  1  6
 15 14  1  0
 15  7  1  0
 16 14  1  0
 16 17  2  0
 18 19  1  0
 19 20  1  0
 20 21  1  0
 22 21  1  1
 22 23  1  0
 22 24  1  0
 23 16  1  0
 24 26  1  0
 25 24  2  0
M  END
$$$$
