NQM.pdb
     RDKit          3D

 26 25  0  0  1  0  0  0  0  0999 V2000
   26.7400  -13.9942  -14.8277 N   0  0  0  0  0  0  0  0  0  0  0  0
   26.1298  -13.9228  -16.1204 C   0  0  0  0  0  0  0  0  0  0  0  0
   26.1630  -14.8907  -16.8967 O   0  0  0  0  0  0  0  0  0  0  0  0
   25.4607  -12.6568  -16.4946 C   0  0  0  0  0  0  0  0  0  0  0  0
   24.1063  -12.9970  -17.0749 C   0  0  2  0  0  0  0  0  0  0  0  0
   24.3162  -13.7116  -18.2972 N   0  0  0  0  0  0  0  0  0  0  0  0
   23.2907  -11.7702  -17.2621 C   0  0  0  0  0  0  0  0  0  0  0  0
   23.4415  -11.1297  -18.3328 O   0  0  0  0  0  0  0  0  0  0  0  0
   17.6037  -11.3151  -15.4924 N   0  0  0  0  0  0  0  0  0  0  0  0
   17.7805   -9.9316  -15.7654 C   0  0  0  0  0  0  0  0  0  0  0  0
   16.8391   -9.1119  -15.6880 O   0  0  0  0  0  0  0  0  0  0  0  0
   19.1259   -9.4547  -16.1540 C   0  0  0  0  0  0  0  0  0  0  0  0
   20.1638  -10.5084  -16.1591 C   0  0  0  0  0  0  0  0  0  0  0  0
   21.5374  -10.1359  -16.5848 C   0  0  2  0  0  0  0  0  0  0  0  0
   22.3757  -11.3313  -16.2772 N   0  0  0  0  0  0  0  0  0  0  0  0
   22.1782   -9.0380  -15.8666 C   0  0  0  0  0  0  0  0  0  0  0  0
   22.7984   -9.1867  -14.7545 O   0  0  0  0  0  0  0  0  0  0  0  0
   22.0287   -2.1522  -17.3100 C   0  0  0  0  0  0  0  0  0  0  0  0
   23.6741   -2.8451  -17.0276 S   0  0  0  0  0  0  0  0  0  0  0  0
   23.5368   -4.2547  -15.8773 C   0  0  0  0  0  0  0  0  0  0  0  0
   22.9775   -5.4598  -16.5554 C   0  0  0  0  0  0  0  0  0  0  0  0
   22.8027   -6.6318  -15.6343 C   0  0  2  0  0  0  0  0  0  0  0  0
   22.1546   -7.7255  -16.3667 N   0  0  0  0  0  0  0  0  0  0  0  0
   21.9099   -6.2439  -14.5230 C   0  0  0  0  0  0  0  0  0  0  0  0
   22.3209   -5.8191  -13.3964 O   0  0  0  0  0  0  0  0  0  0  0  0
   20.5137   -6.3302  -14.6666 O   0  0  0  0  0  0  0  0  0  0  0  0
  2  3  2  0
  2  1  1  0
  4  2  1  0
  5  4  1  0
  5  7  1  0
  5  6  1  6
  7  8  2  0
  9 10  1  0
 10 12  1  0
 11 10  2  0
 13 12  1  0
 14 13  1  1
 15 14  1  0
 15  7  1  0
 16 14  1  0
 16 17  2  0
 18 19  1  0
 19 20  1  0
 20 21  1  0
 22 21  1  6
 22 23  1  0
 22 24  1  0
 23 16  1  0
 24 26  1  0
 25 24  2  0
M  END
$$$$
