NQM.pdb
     RDKit          3D

 26 25  0  0  1  0  0  0  0  0999 V2000
   16.2810  -15.7121  -15.4139 N   0  0  0  0  0  0  0  0  0  0  0  0
   17.5351  -15.4914  -14.7603 C   0  0  0  0  0  0  0  0  0  0  0  0
   17.8329  -16.1079  -13.7250 O   0  0  0  0  0  0  0  0  0  0  0  0
   18.4592  -14.5049  -15.3631 C   0  0  0  0  0  0  0  0  0  0  0  0
   17.7902  -13.9255  -16.5894 C   0  0  2  0  0  0  0  0  0  0  0  0
   18.0227  -14.8189  -17.6832 N   0  0  0  0  0  0  0  0  0  0  0  0
   18.2840  -12.5510  -16.8583 C   0  0  0  0  0  0  0  0  0  0  0  0
   19.2703  -12.4277  -17.6274 O   0  0  0  0  0  0  0  0  0  0  0  0
   14.6352   -7.9957  -15.7813 N   0  0  0  0  0  0  0  0  0  0  0  0
   14.7134   -8.5504  -17.0873 C   0  0  0  0  0  0  0  0  0  0  0  0
   13.7496   -8.5173  -17.8838 O   0  0  0  0  0  0  0  0  0  0  0  0
   15.9804   -9.1865  -17.5099 C   0  0  0  0  0  0  0  0  0  0  0  0
   17.0479   -9.1480  -16.4868 C   0  0  0  0  0  0  0  0  0  0  0  0
   18.2013  -10.0709  -16.6436 C   0  0  2  0  0  0  0  0  0  0  0  0
   17.6731  -11.4169  -16.2749 N   0  0  0  0  0  0  0  0  0  0  0  0
   19.3411   -9.8630  -15.7552 C   0  0  0  0  0  0  0  0  0  0  0  0
   19.4125  -10.3481  -14.5706 O   0  0  0  0  0  0  0  0  0  0  0  0
   26.7521  -10.8521  -14.7908 C   0  0  0  0  0  0  0  0  0  0  0  0
   25.2842  -10.8764  -15.8453 S   0  0  0  0  0  0  0  0  0  0  0  0
   24.0049   -9.8036  -15.1092 C   0  0  0  0  0  0  0  0  0  0  0  0
   22.7490   -9.8213  -15.9137 C   0  0  0  0  0  0  0  0  0  0  0  0
   21.6435   -9.0078  -15.3066 C   0  0  2  0  0  0  0  0  0  0  0  0
   20.4527   -9.1046  -16.1582 N   0  0  0  0  0  0  0  0  0  0  0  0
   22.0535   -7.5890  -15.2667 C   0  0  0  0  0  0  0  0  0  0  0  0
   21.8098   -6.7526  -16.1938 O   0  0  0  0  0  0  0  0  0  0  0  0
   22.7576   -7.0810  -14.1605 O   0  0  0  0  0  0  0  0  0  0  0  0
  2  3  2  0
  2  1  1  0
  4  2  1  0
  5  4  1  0
  5  7  1  0
  5  6  1  6
  7  8  2  0
  9 10  1  0
 10 12  1  0
 11 10  2  0
 13 12  1  0
 14 13  1  1
 15 14  1  0
 15  7  1  0
 16 14  1  0
 16 17  2  0
 18 19  1  0
 19 20  1  0
 20 21  1  0
 22 21  1  6
 22 23  1  0
 22 24  1  0
 23 16  1  0
 24 26  1  0
 25 24  2  0
M  END
$$$$
