NTL.pdb
     RDKit          3D

 24 23  0  0  1  0  0  0  0  0999 V2000
    8.4154  -12.4161   16.9544 N   0  0  0  0  0  0  0  0  0  0  0  0
    7.9752  -13.7450   17.2009 C   0  0  0  0  0  0  0  0  0  0  0  0
    7.9873  -14.6118   16.2833 O   0  0  0  0  0  0  0  0  0  0  0  0
    7.5065  -14.0687   18.5635 C   0  0  0  0  0  0  0  0  0  0  0  0
    8.6633  -14.1188   19.5447 C   0  0  2  0  0  0  0  0  0  0  0  0
    9.6795  -14.9583   18.9606 N   0  0  0  0  0  0  0  0  0  0  0  0
    8.1586  -14.6514   20.8303 C   0  0  0  0  0  0  0  0  0  0  0  0
    7.1489  -14.1140   21.3394 O   0  0  0  0  0  0  0  0  0  0  0  0
    7.8020  -18.5631   21.9210 C   0  0  0  0  0  0  0  0  0  0  0  0
    8.6029  -17.7372   22.9108 C   0  0  1  0  0  0  0  0  0  0  0  0
    9.9498  -18.0085   22.8459 O   0  0  0  0  0  0  0  0  0  0  0  0
    8.3001  -16.2541   22.7468 C   0  0  2  0  0  0  0  0  0  0  0  0
    8.7702  -15.7384   21.5021 N   0  0  0  0  0  0  0  0  0  0  0  0
    8.8953  -15.5541   23.9216 C   0  0  0  0  0  0  0  0  0  0  0  0
   10.0650  -15.0981   23.8453 O   0  0  0  0  0  0  0  0  0  0  0  0
    8.2761  -11.7619   25.5417 C   0  0  0  0  0  0  0  0  0  0  0  0
    7.2324  -12.7808   26.0065 C   0  0  2  0  0  0  0  0  0  0  0  0
    5.9931  -12.0997   26.4170 C   0  0  0  0  0  0  0  0  0  0  0  0
    7.8016  -13.8317   26.8633 C   0  0  0  0  0  0  0  0  0  0  0  0
    8.8284  -14.7513   26.3240 C   0  0  2  0  0  0  0  0  0  0  0  0
    8.1926  -15.3777   25.1351 N   0  0  0  0  0  0  0  0  0  0  0  0
    9.2075  -15.8534   27.2120 C   0  0  0  0  0  0  0  0  0  0  0  0
    8.8373  -17.1513   26.9114 O   0  0  0  0  0  0  0  0  0  0  0  0
    9.8666  -15.6886   28.2596 O   0  0  0  0  0  0  0  0  0  0  0  0
  1  2  1  0
  2  4  1  0
  3  2  2  0
  4  5  1  0
  5  7  1  0
  5  6  1  6
  7  8  2  0
 10  9  1  6
 10 12  1  0
 11 10  1  0
 12 14  1  0
 12 13  1  6
 13  7  1  0
 14 21  1  0
 15 14  2  0
 17 18  1  1
 17 16  1  0
 19 17  1  0
 20 19  1  1
 21 20  1  0
 22 20  1  0
 23 22  1  0
 24 22  2  0
M  END
$$$$
