NTL.pdb
     RDKit          3D

 24 23  0  0  1  0  0  0  0  0999 V2000
   13.8439  -16.5870   18.2966 N   0  0  0  0  0  0  0  0  0  0  0  0
   14.2047  -15.4104   19.0079 C   0  0  0  0  0  0  0  0  0  0  0  0
   15.4171  -15.1133   19.1958 O   0  0  0  0  0  0  0  0  0  0  0  0
   13.1122  -14.5554   19.5148 C   0  0  0  0  0  0  0  0  0  0  0  0
   11.7553  -15.1749   19.2350 C   0  0  2  0  0  0  0  0  0  0  0  0
   11.4683  -14.9567   17.8392 N   0  0  0  0  0  0  0  0  0  0  0  0
   10.7605  -14.5346   20.1247 C   0  0  0  0  0  0  0  0  0  0  0  0
   10.6127  -13.2934   20.0528 O   0  0  0  0  0  0  0  0  0  0  0  0
    7.1851  -14.3602   20.1991 C   0  0  0  0  0  0  0  0  0  0  0  0
    7.5765  -15.0380   21.4993 C   0  0  1  0  0  0  0  0  0  0  0  0
    7.3834  -16.3991   21.4558 O   0  0  0  0  0  0  0  0  0  0  0  0
    8.9983  -14.6649   21.8965 C   0  0  2  0  0  0  0  0  0  0  0  0
    9.9747  -15.2674   21.0481 N   0  0  0  0  0  0  0  0  0  0  0  0
    9.1661  -15.0460   23.3286 C   0  0  0  0  0  0  0  0  0  0  0  0
    9.8287  -16.0735   23.6240 O   0  0  0  0  0  0  0  0  0  0  0  0
    7.0284  -11.9384   25.2464 C   0  0  0  0  0  0  0  0  0  0  0  0
    7.1857  -12.8121   26.4935 C   0  0  2  0  0  0  0  0  0  0  0  0
    6.6303  -12.1306   27.6747 C   0  0  0  0  0  0  0  0  0  0  0  0
    8.5063  -13.4535   26.5792 C   0  0  0  0  0  0  0  0  0  0  0  0
    8.7822  -14.6859   25.8072 C   0  0  2  0  0  0  0  0  0  0  0  0
    8.6053  -14.2924   24.3846 N   0  0  0  0  0  0  0  0  0  0  0  0
    7.8505  -15.7920   26.0432 C   0  0  0  0  0  0  0  0  0  0  0  0
    7.9442  -16.5499   27.1960 O   0  0  0  0  0  0  0  0  0  0  0  0
    6.9460  -16.1041   25.2410 O   0  0  0  0  0  0  0  0  0  0  0  0
  1  2  1  0
  2  4  1  0
  3  2  2  0
  4  5  1  0
  5  7  1  0
  5  6  1  6
  7  8  2  0
 10  9  1  6
 10 12  1  0
 11 10  1  0
 12 14  1  0
 12 13  1  6
 13  7  1  0
 14 21  1  0
 15 14  2  0
 17 18  1  1
 17 16  1  0
 19 17  1  0
 20 19  1  1
 21 20  1  0
 22 20  1  0
 23 22  1  0
 24 22  2  0
M  END
$$$$
