NTL.pdb
     RDKit          3D

 24 23  0  0  1  0  0  0  0  0999 V2000
    9.4165  -13.6710   16.3846 N   0  0  0  0  0  0  0  0  0  0  0  0
    8.0018  -13.6768   16.5228 C   0  0  0  0  0  0  0  0  0  0  0  0
    7.2519  -13.6642   15.5074 O   0  0  0  0  0  0  0  0  0  0  0  0
    7.4482  -13.6980   17.8919 C   0  0  0  0  0  0  0  0  0  0  0  0
    8.5491  -13.8380   18.9272 C   0  0  2  0  0  0  0  0  0  0  0  0
    9.5185  -14.7624   18.3941 N   0  0  0  0  0  0  0  0  0  0  0  0
    7.9416  -14.3189   20.1885 C   0  0  0  0  0  0  0  0  0  0  0  0
    6.9985  -13.6596   20.6816 O   0  0  0  0  0  0  0  0  0  0  0  0
    6.7336  -18.0113   21.0281 C   0  0  0  0  0  0  0  0  0  0  0  0
    7.7073  -17.5033   22.0756 C   0  0  1  0  0  0  0  0  0  0  0  0
    8.9452  -18.0926   21.9653 O   0  0  0  0  0  0  0  0  0  0  0  0
    7.7830  -15.9828   22.0507 C   0  0  2  0  0  0  0  0  0  0  0  0
    8.3836  -15.4887   20.8543 N   0  0  0  0  0  0  0  0  0  0  0  0
    8.5161  -15.5616   23.2793 C   0  0  0  0  0  0  0  0  0  0  0  0
    9.7575  -15.3668   23.2253 O   0  0  0  0  0  0  0  0  0  0  0  0
    8.3157  -11.8149   25.6670 C   0  0  0  0  0  0  0  0  0  0  0  0
    7.1644  -12.7895   25.9279 C   0  0  2  0  0  0  0  0  0  0  0  0
    6.0316  -12.0930   26.5601 C   0  0  0  0  0  0  0  0  0  0  0  0
    7.6186  -14.0786   26.4705 C   0  0  0  0  0  0  0  0  0  0  0  0
    8.6028  -14.8917   25.7215 C   0  0  2  0  0  0  0  0  0  0  0  0
    7.8681  -15.3688   24.5204 N   0  0  0  0  0  0  0  0  0  0  0  0
    9.0761  -16.0932   26.4141 C   0  0  0  0  0  0  0  0  0  0  0  0
   10.0954  -16.0070   27.3443 O   0  0  0  0  0  0  0  0  0  0  0  0
    8.6003  -17.2294   26.2098 O   0  0  0  0  0  0  0  0  0  0  0  0
  1  2  1  0
  2  4  1  0
  3  2  2  0
  4  5  1  0
  5  7  1  0
  5  6  1  6
  7  8  2  0
 10  9  1  6
 10 12  1  0
 11 10  1  0
 12 14  1  0
 12 13  1  6
 13  7  1  0
 14 21  1  0
 15 14  2  0
 17 18  1  1
 17 16  1  0
 19 17  1  0
 20 19  1  1
 21 20  1  0
 22 20  1  0
 23 22  1  0
 24 22  2  0
M  END
$$$$
