NTL.pdb
     RDKit          3D

 24 23  0  0  1  0  0  0  0  0999 V2000
    9.2400  -12.8866   17.0298 N   0  0  0  0  0  0  0  0  0  0  0  0
    7.9277  -13.4236   17.1286 C   0  0  0  0  0  0  0  0  0  0  0  0
    7.1676  -13.4656   16.1216 O   0  0  0  0  0  0  0  0  0  0  0  0
    7.4919  -13.9268   18.4470 C   0  0  0  0  0  0  0  0  0  0  0  0
    8.6322  -13.9026   19.4483 C   0  0  2  0  0  0  0  0  0  0  0  0
    9.7267  -14.6364   18.8633 N   0  0  0  0  0  0  0  0  0  0  0  0
    8.1541  -14.5094   20.7109 C   0  0  0  0  0  0  0  0  0  0  0  0
    7.0794  -14.0925   21.1996 O   0  0  0  0  0  0  0  0  0  0  0  0
    8.0920  -18.4381   21.6127 C   0  0  0  0  0  0  0  0  0  0  0  0
    8.7969  -17.6174   22.6770 C   0  0  1  0  0  0  0  0  0  0  0  0
   10.1611  -17.7908   22.6498 O   0  0  0  0  0  0  0  0  0  0  0  0
    8.3952  -16.1517   22.5834 C   0  0  2  0  0  0  0  0  0  0  0  0
    8.8611  -15.5368   21.3830 N   0  0  0  0  0  0  0  0  0  0  0  0
    8.9082  -15.4788   23.8116 C   0  0  0  0  0  0  0  0  0  0  0  0
   10.0753  -15.0100   23.8210 O   0  0  0  0  0  0  0  0  0  0  0  0
    8.0800  -11.7773   25.7162 C   0  0  0  0  0  0  0  0  0  0  0  0
    7.0086  -12.8070   26.0841 C   0  0  2  0  0  0  0  0  0  0  0  0
    5.8022  -12.1362   26.5966 C   0  0  0  0  0  0  0  0  0  0  0  0
    7.5547  -13.9681   26.8026 C   0  0  0  0  0  0  0  0  0  0  0  0
    8.6801  -14.7351   26.2231 C   0  0  2  0  0  0  0  0  0  0  0  0
    8.1293  -15.3423   24.9830 N   0  0  0  0  0  0  0  0  0  0  0  0
    9.1637  -15.8493   27.0427 C   0  0  0  0  0  0  0  0  0  0  0  0
    8.8767  -17.1542   26.6865 O   0  0  0  0  0  0  0  0  0  0  0  0
    9.8421  -15.6890   28.0786 O   0  0  0  0  0  0  0  0  0  0  0  0
  1  2  1  0
  2  4  1  0
  3  2  2  0
  4  5  1  0
  5  7  1  0
  5  6  1  6
  7  8  2  0
 10  9  1  6
 10 12  1  0
 11 10  1  0
 12 14  1  0
 12 13  1  6
 13  7  1  0
 14 21  1  0
 15 14  2  0
 17 18  1  1
 17 16  1  0
 19 17  1  0
 20 19  1  1
 21 20  1  0
 22 20  1  0
 23 22  1  0
 24 22  2  0
M  END
$$$$
