NTL.pdb
     RDKit          3D

 24 23  0  0  1  0  0  0  0  0999 V2000
   14.0913  -19.3350   18.9004 N   0  0  0  0  0  0  0  0  0  0  0  0
   14.6084  -18.0437   19.1930 C   0  0  0  0  0  0  0  0  0  0  0  0
   15.8000  -17.7427   18.9048 O   0  0  0  0  0  0  0  0  0  0  0  0
   13.7025  -17.0751   19.8431 C   0  0  0  0  0  0  0  0  0  0  0  0
   12.2484  -17.4487   19.6208 C   0  0  2  0  0  0  0  0  0  0  0  0
   11.9240  -17.1015   18.2596 N   0  0  0  0  0  0  0  0  0  0  0  0
   11.4243  -16.7119   20.6052 C   0  0  0  0  0  0  0  0  0  0  0  0
   11.4762  -15.4610   20.6042 O   0  0  0  0  0  0  0  0  0  0  0  0
    7.5672  -17.0005   21.1798 C   0  0  0  0  0  0  0  0  0  0  0  0
    8.3174  -17.2796   22.4693 C   0  0  1  0  0  0  0  0  0  0  0  0
    8.3431  -18.6198   22.7773 O   0  0  0  0  0  0  0  0  0  0  0  0
    9.7102  -16.6658   22.4277 C   0  0  2  0  0  0  0  0  0  0  0  0
   10.5847  -17.3636   21.5420 N   0  0  0  0  0  0  0  0  0  0  0  0
   10.2162  -16.6350   23.8304 C   0  0  0  0  0  0  0  0  0  0  0  0
   11.0966  -17.4578   24.1909 O   0  0  0  0  0  0  0  0  0  0  0  0
    9.0732  -13.0096   28.7227 C   0  0  0  0  0  0  0  0  0  0  0  0
    9.8683  -14.2215   28.2303 C   0  0  2  0  0  0  0  0  0  0  0  0
   11.2335  -14.2019   28.7816 C   0  0  0  0  0  0  0  0  0  0  0  0
    9.6667  -14.4943   26.7994 C   0  0  0  0  0  0  0  0  0  0  0  0
   10.2089  -15.7335   26.1984 C   0  0  2  0  0  0  0  0  0  0  0  0
    9.7431  -15.7083   24.7869 N   0  0  0  0  0  0  0  0  0  0  0  0
    9.6993  -16.9810   26.7739 C   0  0  0  0  0  0  0  0  0  0  0  0
    8.4500  -17.4550   26.4180 O   0  0  0  0  0  0  0  0  0  0  0  0
   10.3445  -17.6668   27.5939 O   0  0  0  0  0  0  0  0  0  0  0  0
  1  2  1  0
  2  4  1  0
  3  2  2  0
  4  5  1  0
  5  7  1  0
  5  6  1  6
  7  8  2  0
 10  9  1  6
 10 12  1  0
 11 10  1  0
 12 14  1  0
 12 13  1  6
 13  7  1  0
 14 21  1  0
 15 14  2  0
 17 18  1  6
 17 16  1  0
 19 17  1  0
 20 19  1  1
 21 20  1  0
 22 20  1  0
 23 22  1  0
 24 22  2  0
M  END
$$$$
