NTL.pdb
     RDKit          3D

 24 23  0  0  1  0  0  0  0  0999 V2000
    6.1988  -21.8808   22.8654 N   0  0  0  0  0  0  0  0  0  0  0  0
    6.4007  -21.4050   21.5413 C   0  0  0  0  0  0  0  0  0  0  0  0
    6.0451  -22.0931   20.5446 O   0  0  0  0  0  0  0  0  0  0  0  0
    7.0387  -20.0828   21.3793 C   0  0  0  0  0  0  0  0  0  0  0  0
    7.5045  -19.5307   22.7140 C   0  0  2  0  0  0  0  0  0  0  0  0
    6.3266  -19.3015   23.5132 N   0  0  0  0  0  0  0  0  0  0  0  0
    8.2680  -18.2880   22.4612 C   0  0  0  0  0  0  0  0  0  0  0  0
    9.4351  -18.3887   22.0193 O   0  0  0  0  0  0  0  0  0  0  0  0
    7.5651  -14.8699   20.4156 C   0  0  0  0  0  0  0  0  0  0  0  0
    7.6744  -14.6759   21.9168 C   0  0  1  0  0  0  0  0  0  0  0  0
    6.4446  -14.5193   22.5126 O   0  0  0  0  0  0  0  0  0  0  0  0
    8.4881  -15.7970   22.5487 C   0  0  2  0  0  0  0  0  0  0  0  0
    7.7325  -16.9981   22.6986 N   0  0  0  0  0  0  0  0  0  0  0  0
    9.0105  -15.2798   23.8464 C   0  0  0  0  0  0  0  0  0  0  0  0
    9.6442  -14.1937   23.8718 O   0  0  0  0  0  0  0  0  0  0  0  0
    8.7896  -12.3082   26.5936 C   0  0  0  0  0  0  0  0  0  0  0  0
    7.6359  -13.2685   26.2931 C   0  0  2  0  0  0  0  0  0  0  0  0
    6.3422  -12.6279   26.5831 C   0  0  0  0  0  0  0  0  0  0  0  0
    7.8920  -14.6362   26.7690 C   0  0  0  0  0  0  0  0  0  0  0  0
    9.1359  -15.3358   26.3765 C   0  0  2  0  0  0  0  0  0  0  0  0
    8.8220  -15.9663   25.0674 N   0  0  0  0  0  0  0  0  0  0  0  0
    9.5463  -16.4255   27.2660 C   0  0  0  0  0  0  0  0  0  0  0  0
    9.3669  -17.7427   26.8855 O   0  0  0  0  0  0  0  0  0  0  0  0
   10.0658  -16.2328   28.3850 O   0  0  0  0  0  0  0  0  0  0  0  0
  1  2  1  0
  2  4  1  0
  3  2  2  0
  4  5  1  0
  5  7  1  0
  5  6  1  1
  7  8  2  0
 10  9  1  6
 10 12  1  0
 11 10  1  0
 12 14  1  0
 12 13  1  1
 13  7  1  0
 14 21  1  0
 15 14  2  0
 17 18  1  1
 17 16  1  0
 19 17  1  0
 20 19  1  1
 21 20  1  0
 22 20  1  0
 23 22  1  0
 24 22  2  0
M  END
$$$$
