NTL.pdb
     RDKit          3D

 24 23  0  0  1  0  0  0  0  0999 V2000
   14.9807  -13.4848   17.9993 N   0  0  0  0  0  0  0  0  0  0  0  0
   14.5275  -14.1808   19.1529 C   0  0  0  0  0  0  0  0  0  0  0  0
   15.3434  -14.7630   19.9201 O   0  0  0  0  0  0  0  0  0  0  0  0
   13.0742  -14.1956   19.4160 C   0  0  0  0  0  0  0  0  0  0  0  0
   12.5656  -15.6124   19.6090 C   0  0  2  0  0  0  0  0  0  0  0  0
   12.5829  -16.2499   18.3160 N   0  0  0  0  0  0  0  0  0  0  0  0
   11.2050  -15.5422   20.1878 C   0  0  0  0  0  0  0  0  0  0  0  0
   10.3389  -14.8669   19.5867 O   0  0  0  0  0  0  0  0  0  0  0  0
    8.5016  -17.9661   20.6872 C   0  0  0  0  0  0  0  0  0  0  0  0
    8.8497  -17.4496   22.0711 C   0  0  1  0  0  0  0  0  0  0  0  0
    9.5615  -18.3688   22.8062 O   0  0  0  0  0  0  0  0  0  0  0  0
    9.5553  -16.1032   21.9837 C   0  0  2  0  0  0  0  0  0  0  0  0
   10.8477  -16.2053   21.3877 N   0  0  0  0  0  0  0  0  0  0  0  0
    9.6010  -15.5434   23.3654 C   0  0  0  0  0  0  0  0  0  0  0  0
   10.6609  -15.6327   24.0365 O   0  0  0  0  0  0  0  0  0  0  0  0
    5.4711  -12.6405   26.9367 C   0  0  0  0  0  0  0  0  0  0  0  0
    6.9310  -13.0937   26.8545 C   0  0  2  0  0  0  0  0  0  0  0  0
    7.8149  -12.1065   27.4966 C   0  0  0  0  0  0  0  0  0  0  0  0
    7.2871  -13.6379   25.5356 C   0  0  0  0  0  0  0  0  0  0  0  0
    8.5187  -14.4431   25.3749 C   0  0  2  0  0  0  0  0  0  0  0  0
    8.4894  -14.9072   23.9629 N   0  0  0  0  0  0  0  0  0  0  0  0
    8.5862  -15.6520   26.2002 C   0  0  0  0  0  0  0  0  0  0  0  0
    7.8204  -16.7584   25.8819 O   0  0  0  0  0  0  0  0  0  0  0  0
    9.3170  -15.7491   27.2080 O   0  0  0  0  0  0  0  0  0  0  0  0
  1  2  1  0
  2  4  1  0
  3  2  2  0
  4  5  1  0
  5  7  1  0
  5  6  1  6
  7  8  2  0
 10  9  1  6
 10 12  1  0
 11 10  1  0
 12 14  1  0
 12 13  1  1
 13  7  1  0
 14 21  1  0
 15 14  2  0
 17 18  1  6
 17 16  1  0
 19 17  1  0
 20 19  1  1
 21 20  1  0
 22 20  1  0
 23 22  1  0
 24 22  2  0
M  END
$$$$
