NTL.pdb
     RDKit          3D

 24 23  0  0  1  0  0  0  0  0999 V2000
   14.5389  -15.4783   19.3438 N   0  0  0  0  0  0  0  0  0  0  0  0
   13.8789  -14.2620   19.0189 C   0  0  0  0  0  0  0  0  0  0  0  0
   14.5297  -13.2624   18.6059 O   0  0  0  0  0  0  0  0  0  0  0  0
   12.4118  -14.2148   19.1826 C   0  0  0  0  0  0  0  0  0  0  0  0
   11.8715  -15.5442   19.6768 C   0  0  2  0  0  0  0  0  0  0  0  0
   11.5464  -16.3298   18.5126 N   0  0  0  0  0  0  0  0  0  0  0  0
   10.6903  -15.2773   20.5281 C   0  0  0  0  0  0  0  0  0  0  0  0
    9.9620  -14.2999   20.2424 O   0  0  0  0  0  0  0  0  0  0  0  0
    7.6719  -17.3285   20.9042 C   0  0  0  0  0  0  0  0  0  0  0  0
    8.2606  -17.1765   22.2948 C   0  0  1  0  0  0  0  0  0  0  0  0
    8.9170  -18.3118   22.7095 O   0  0  0  0  0  0  0  0  0  0  0  0
    9.1379  -15.9348   22.3773 C   0  0  2  0  0  0  0  0  0  0  0  0
   10.3546  -16.0802   21.6461 N   0  0  0  0  0  0  0  0  0  0  0  0
    9.3659  -15.6563   23.8247 C   0  0  0  0  0  0  0  0  0  0  0  0
   10.5104  -15.8287   24.3172 O   0  0  0  0  0  0  0  0  0  0  0  0
    7.9560  -12.0030   26.4144 C   0  0  0  0  0  0  0  0  0  0  0  0
    6.8969  -13.0783   26.1586 C   0  0  2  0  0  0  0  0  0  0  0  0
    5.5544  -12.5682   26.4833 C   0  0  0  0  0  0  0  0  0  0  0  0
    7.3044  -14.4074   26.6383 C   0  0  0  0  0  0  0  0  0  0  0  0
    8.5551  -15.0228   26.1402 C   0  0  2  0  0  0  0  0  0  0  0  0
    8.3376  -15.2004   24.6804 N   0  0  0  0  0  0  0  0  0  0  0  0
    8.8506  -16.3552   26.6736 C   0  0  0  0  0  0  0  0  0  0  0  0
    9.5484  -16.4937   27.8593 O   0  0  0  0  0  0  0  0  0  0  0  0
    8.4997  -17.4101   26.1050 O   0  0  0  0  0  0  0  0  0  0  0  0
  1  2  1  0
  2  4  1  0
  3  2  2  0
  4  5  1  0
  5  7  1  0
  5  6  1  6
  7  8  2  0
 10  9  1  6
 10 12  1  0
 11 10  1  0
 12 14  1  0
 12 13  1  6
 13  7  1  0
 14 21  1  0
 15 14  2  0
 17 18  1  1
 17 16  1  0
 19 17  1  0
 20 19  1  1
 21 20  1  0
 22 20  1  0
 23 22  1  0
 24 22  2  0
M  END
$$$$
