NTL.pdb
     RDKit          3D

 24 23  0  0  1  0  0  0  0  0999 V2000
   14.3318  -15.7865   19.3244 N   0  0  0  0  0  0  0  0  0  0  0  0
   13.9961  -14.4330   19.0490 C   0  0  0  0  0  0  0  0  0  0  0  0
   14.8936  -13.5814   18.7984 O   0  0  0  0  0  0  0  0  0  0  0  0
   12.5658  -14.0654   19.0675 C   0  0  0  0  0  0  0  0  0  0  0  0
   11.6888  -15.2833   19.2937 C   0  0  2  0  0  0  0  0  0  0  0  0
   11.3645  -15.8201   17.9955 N   0  0  0  0  0  0  0  0  0  0  0  0
   10.4878  -14.8570   20.0466 C   0  0  0  0  0  0  0  0  0  0  0  0
    9.8450  -13.8678   19.6271 O   0  0  0  0  0  0  0  0  0  0  0  0
    7.2217  -15.9051   20.1667 C   0  0  0  0  0  0  0  0  0  0  0  0
    7.6883  -16.0917   21.5988 C   0  0  1  0  0  0  0  0  0  0  0  0
    7.9761  -17.4057   21.8858 O   0  0  0  0  0  0  0  0  0  0  0  0
    8.8502  -15.1597   21.9143 C   0  0  2  0  0  0  0  0  0  0  0  0
   10.0409  -15.5208   21.2156 N   0  0  0  0  0  0  0  0  0  0  0  0
    9.0269  -15.1675   23.3952 C   0  0  0  0  0  0  0  0  0  0  0  0
   10.0852  -15.6319   23.8916 O   0  0  0  0  0  0  0  0  0  0  0  0
    8.2006  -11.7656   26.5588 C   0  0  0  0  0  0  0  0  0  0  0  0
    6.9714  -12.5311   26.0622 C   0  0  2  0  0  0  0  0  0  0  0  0
    5.7367  -11.8124   26.4190 C   0  0  0  0  0  0  0  0  0  0  0  0
    7.0642  -13.9790   26.3026 C   0  0  0  0  0  0  0  0  0  0  0  0
    8.2034  -14.7489   25.7546 C   0  0  2  0  0  0  0  0  0  0  0  0
    8.0432  -14.6686   24.2789 N   0  0  0  0  0  0  0  0  0  0  0  0
    8.2099  -16.1760   26.0872 C   0  0  0  0  0  0  0  0  0  0  0  0
    7.6509  -17.0974   25.2208 O   0  0  0  0  0  0  0  0  0  0  0  0
    8.7055  -16.6280   27.1403 O   0  0  0  0  0  0  0  0  0  0  0  0
  1  2  1  0
  2  4  1  0
  3  2  2  0
  4  5  1  0
  5  7  1  0
  5  6  1  6
  7  8  2  0
 10  9  1  6
 10 12  1  0
 11 10  1  0
 12 14  1  0
 12 13  1  6
 13  7  1  0
 14 21  1  0
 15 14  2  0
 17 18  1  1
 17 16  1  0
 19 17  1  0
 20 19  1  1
 21 20  1  0
 22 20  1  0
 23 22  1  0
 24 22  2  0
M  END
$$$$
