NTL.pdb
     RDKit          3D

 24 23  0  0  1  0  0  0  0  0999 V2000
    9.0927  -21.3645   20.1994 N   0  0  0  0  0  0  0  0  0  0  0  0
    9.4218  -20.4943   19.1247 C   0  0  0  0  0  0  0  0  0  0  0  0
    9.6587  -20.9501   17.9716 O   0  0  0  0  0  0  0  0  0  0  0  0
    9.4751  -19.0460   19.4089 C   0  0  0  0  0  0  0  0  0  0  0  0
    9.2257  -18.7655   20.8794 C   0  0  2  0  0  0  0  0  0  0  0  0
    7.8612  -19.1385   21.1576 N   0  0  0  0  0  0  0  0  0  0  0  0
    9.4821  -17.3289   21.1279 C   0  0  0  0  0  0  0  0  0  0  0  0
   10.5836  -16.8527   20.7709 O   0  0  0  0  0  0  0  0  0  0  0  0
    7.6840  -13.9439   20.0888 C   0  0  0  0  0  0  0  0  0  0  0  0
    7.6249  -14.2086   21.5820 C   0  0  1  0  0  0  0  0  0  0  0  0
    6.4033  -14.7033   21.9753 O   0  0  0  0  0  0  0  0  0  0  0  0
    8.7805  -15.0984   22.0191 C   0  0  2  0  0  0  0  0  0  0  0  0
    8.5353  -16.4781   21.7497 N   0  0  0  0  0  0  0  0  0  0  0  0
    9.0172  -14.8277   23.4666 C   0  0  0  0  0  0  0  0  0  0  0  0
    9.7371  -13.8539   23.8063 O   0  0  0  0  0  0  0  0  0  0  0  0
    7.9785  -12.4073   26.6952 C   0  0  0  0  0  0  0  0  0  0  0  0
    7.0180  -13.4633   26.1423 C   0  0  2  0  0  0  0  0  0  0  0  0
    5.6204  -13.0609   26.3723 C   0  0  0  0  0  0  0  0  0  0  0  0
    7.4387  -14.8375   26.4537 C   0  0  0  0  0  0  0  0  0  0  0  0
    8.7208  -15.3566   25.9268 C   0  0  2  0  0  0  0  0  0  0  0  0
    8.4599  -15.6289   24.4888 N   0  0  0  0  0  0  0  0  0  0  0  0
    9.1664  -16.6258   26.5079 C   0  0  0  0  0  0  0  0  0  0  0  0
    9.2884  -17.7521   25.7152 O   0  0  0  0  0  0  0  0  0  0  0  0
    9.4527  -16.7589   27.7160 O   0  0  0  0  0  0  0  0  0  0  0  0
  1  2  1  0
  2  4  1  0
  3  2  2  0
  4  5  1  0
  5  7  1  0
  5  6  1  6
  7  8  2  0
 10  9  1  6
 10 12  1  0
 11 10  1  0
 12 14  1  0
 12 13  1  1
 13  7  1  0
 14 21  1  0
 15 14  2  0
 17 18  1  1
 17 16  1  0
 19 17  1  0
 20 19  1  1
 21 20  1  0
 22 20  1  0
 23 22  1  0
 24 22  2  0
M  END
$$$$
