NTL.pdb
     RDKit          3D

 24 23  0  0  1  0  0  0  0  0999 V2000
    8.1494  -15.3263   14.8871 N   0  0  0  0  0  0  0  0  0  0  0  0
    8.2384  -14.2860   15.8516 C   0  0  0  0  0  0  0  0  0  0  0  0
    8.8430  -13.2094   15.5889 O   0  0  0  0  0  0  0  0  0  0  0  0
    7.6000  -14.5132   17.1639 C   0  0  0  0  0  0  0  0  0  0  0  0
    8.6106  -14.4097   18.2914 C   0  0  2  0  0  0  0  0  0  0  0  0
    9.7335  -15.2398   17.9330 N   0  0  0  0  0  0  0  0  0  0  0  0
    7.9560  -14.8518   19.5433 C   0  0  0  0  0  0  0  0  0  0  0  0
    6.8700  -14.3184   19.8652 O   0  0  0  0  0  0  0  0  0  0  0  0
    7.4103  -18.5955   20.9119 C   0  0  0  0  0  0  0  0  0  0  0  0
    8.1372  -17.7240   21.9196 C   0  0  1  0  0  0  0  0  0  0  0  0
    9.4716  -18.0428   22.0170 O   0  0  0  0  0  0  0  0  0  0  0  0
    7.9124  -16.2483   21.6192 C   0  0  2  0  0  0  0  0  0  0  0  0
    8.5075  -15.8487   20.3854 N   0  0  0  0  0  0  0  0  0  0  0  0
    8.4353  -15.4804   22.7860 C   0  0  0  0  0  0  0  0  0  0  0  0
    9.6435  -15.1314   22.8083 O   0  0  0  0  0  0  0  0  0  0  0  0
    5.8091  -11.9626   27.0245 C   0  0  0  0  0  0  0  0  0  0  0  0
    7.1518  -12.4263   26.4539 C   0  0  2  0  0  0  0  0  0  0  0  0
    8.0648  -11.2830   26.2882 C   0  0  0  0  0  0  0  0  0  0  0  0
    7.0031  -13.4011   25.3629 C   0  0  0  0  0  0  0  0  0  0  0  0
    8.1348  -14.2828   24.9986 C   0  0  2  0  0  0  0  0  0  0  0  0
    7.6211  -15.1219   23.8842 N   0  0  0  0  0  0  0  0  0  0  0  0
    8.5632  -15.2136   26.0462 C   0  0  0  0  0  0  0  0  0  0  0  0
    9.6640  -14.9232   26.8309 O   0  0  0  0  0  0  0  0  0  0  0  0
    7.9763  -16.2900   26.2829 O   0  0  0  0  0  0  0  0  0  0  0  0
  1  2  1  0
  2  4  1  0
  3  2  2  0
  4  5  1  0
  5  7  1  0
  5  6  1  6
  7  8  2  0
 10  9  1  6
 10 12  1  0
 11 10  1  0
 12 14  1  0
 12 13  1  6
 13  7  1  0
 14 21  1  0
 15 14  2  0
 17 18  1  6
 17 16  1  0
 19 17  1  0
 20 19  1  1
 21 20  1  0
 22 20  1  0
 23 22  1  0
 24 22  2  0
M  END
$$$$
