NTL.pdb
     RDKit          3D

 24 23  0  0  1  0  0  0  0  0999 V2000
   14.6671  -13.7343   18.2983 N   0  0  0  0  0  0  0  0  0  0  0  0
   14.0164  -14.3556   19.3988 C   0  0  0  0  0  0  0  0  0  0  0  0
   14.6387  -15.1550   20.1519 O   0  0  0  0  0  0  0  0  0  0  0  0
   12.5934  -14.0309   19.6243 C   0  0  0  0  0  0  0  0  0  0  0  0
   11.7342  -15.2817   19.5995 C   0  0  2  0  0  0  0  0  0  0  0  0
   11.4401  -15.5677   18.2174 N   0  0  0  0  0  0  0  0  0  0  0  0
   10.5139  -15.0223   20.3964 C   0  0  0  0  0  0  0  0  0  0  0  0
    9.8134  -14.0274   20.1015 O   0  0  0  0  0  0  0  0  0  0  0  0
    7.3071  -16.6906   20.5832 C   0  0  0  0  0  0  0  0  0  0  0  0
    7.8963  -16.7701   21.9795 C   0  0  1  0  0  0  0  0  0  0  0  0
    8.4207  -18.0117   22.2536 O   0  0  0  0  0  0  0  0  0  0  0  0
    8.9035  -15.6508   22.2055 C   0  0  2  0  0  0  0  0  0  0  0  0
   10.1112  -15.8511   21.4725 N   0  0  0  0  0  0  0  0  0  0  0  0
    9.1314  -15.5585   23.6766 C   0  0  0  0  0  0  0  0  0  0  0  0
   10.2061  -15.9909   24.1665 O   0  0  0  0  0  0  0  0  0  0  0  0
    8.3143  -11.8571   26.4606 C   0  0  0  0  0  0  0  0  0  0  0  0
    7.0957  -12.7302   26.1501 C   0  0  2  0  0  0  0  0  0  0  0  0
    5.8525  -12.0285   26.5110 C   0  0  0  0  0  0  0  0  0  0  0  0
    7.2806  -14.1329   26.5512 C   0  0  0  0  0  0  0  0  0  0  0  0
    8.4236  -14.9098   26.0215 C   0  0  2  0  0  0  0  0  0  0  0  0
    8.1790  -14.9983   24.5578 N   0  0  0  0  0  0  0  0  0  0  0  0
    8.5169  -16.2904   26.5036 C   0  0  0  0  0  0  0  0  0  0  0  0
    7.9664  -17.3250   25.7697 O   0  0  0  0  0  0  0  0  0  0  0  0
    9.0816  -16.6022   27.5726 O   0  0  0  0  0  0  0  0  0  0  0  0
  1  2  1  0
  2  4  1  0
  3  2  2  0
  4  5  1  0
  5  7  1  0
  5  6  1  6
  7  8  2  0
 10  9  1  6
 10 12  1  0
 11 10  1  0
 12 14  1  0
 12 13  1  6
 13  7  1  0
 14 21  1  0
 15 14  2  0
 17 18  1  1
 17 16  1  0
 19 17  1  0
 20 19  1  1
 21 20  1  0
 22 20  1  0
 23 22  1  0
 24 22  2  0
M  END
$$$$
