NTL.pdb
     RDKit          3D

 24 23  0  0  1  0  0  0  0  0999 V2000
    7.9672  -12.9392   15.9856 N   0  0  0  0  0  0  0  0  0  0  0  0
    8.2157  -14.0382   16.8521 C   0  0  0  0  0  0  0  0  0  0  0  0
    8.9563  -14.9941   16.4897 O   0  0  0  0  0  0  0  0  0  0  0  0
    7.5773  -14.0174   18.1838 C   0  0  0  0  0  0  0  0  0  0  0  0
    8.6052  -13.8172   19.2824 C   0  0  2  0  0  0  0  0  0  0  0  0
    9.8134  -14.4803   18.8595 N   0  0  0  0  0  0  0  0  0  0  0  0
    8.0590  -14.3811   20.5373 C   0  0  0  0  0  0  0  0  0  0  0  0
    6.9539  -13.9578   20.9461 O   0  0  0  0  0  0  0  0  0  0  0  0
    7.6483  -18.1894   21.4869 C   0  0  0  0  0  0  0  0  0  0  0  0
    8.4491  -17.4576   22.5483 C   0  0  1  0  0  0  0  0  0  0  0  0
    9.7878  -17.7696   22.4981 O   0  0  0  0  0  0  0  0  0  0  0  0
    8.1986  -15.9575   22.4756 C   0  0  2  0  0  0  0  0  0  0  0  0
    8.7342  -15.3747   21.2883 N   0  0  0  0  0  0  0  0  0  0  0  0
    8.7671  -15.3589   23.7178 C   0  0  0  0  0  0  0  0  0  0  0  0
    9.9528  -14.9395   23.7183 O   0  0  0  0  0  0  0  0  0  0  0  0
    8.1401  -11.7131   25.9061 C   0  0  0  0  0  0  0  0  0  0  0  0
    7.0442  -12.7405   26.2012 C   0  0  2  0  0  0  0  0  0  0  0  0
    5.8547  -12.0794   26.7636 C   0  0  0  0  0  0  0  0  0  0  0  0
    7.5623  -13.9633   26.8329 C   0  0  0  0  0  0  0  0  0  0  0  0
    8.6338  -14.7413   26.1715 C   0  0  2  0  0  0  0  0  0  0  0  0
    8.0211  -15.2402   24.9123 N   0  0  0  0  0  0  0  0  0  0  0  0
    9.0861  -15.9276   26.9031 C   0  0  0  0  0  0  0  0  0  0  0  0
    9.9615  -15.8010   27.9659 O   0  0  0  0  0  0  0  0  0  0  0  0
    8.7182  -17.0860   26.6170 O   0  0  0  0  0  0  0  0  0  0  0  0
  1  2  1  0
  2  4  1  0
  3  2  2  0
  4  5  1  0
  5  7  1  0
  5  6  1  6
  7  8  2  0
 10  9  1  6
 10 12  1  0
 11 10  1  0
 12 14  1  0
 12 13  1  6
 13  7  1  0
 14 21  1  0
 15 14  2  0
 17 18  1  1
 17 16  1  0
 19 17  1  0
 20 19  1  1
 21 20  1  0
 22 20  1  0
 23 22  1  0
 24 22  2  0
M  END
$$$$
