NTL.pdb
     RDKit          3D

 24 23  0  0  1  0  0  0  0  0999 V2000
    7.3472  -15.1157   15.1456 N   0  0  0  0  0  0  0  0  0  0  0  0
    8.0972  -14.1531   15.8746 C   0  0  0  0  0  0  0  0  0  0  0  0
    9.1824  -13.6972   15.4188 O   0  0  0  0  0  0  0  0  0  0  0  0
    7.5599  -13.7109   17.1774 C   0  0  0  0  0  0  0  0  0  0  0  0
    8.5912  -13.8706   18.2794 C   0  0  2  0  0  0  0  0  0  0  0  0
    9.5670  -14.8240   17.8131 N   0  0  0  0  0  0  0  0  0  0  0  0
    7.8951  -14.3255   19.5040 C   0  0  0  0  0  0  0  0  0  0  0  0
    6.9121  -13.6636   19.9079 O   0  0  0  0  0  0  0  0  0  0  0  0
    6.7830  -18.0502   20.4821 C   0  0  0  0  0  0  0  0  0  0  0  0
    7.6379  -17.4206   21.5665 C   0  0  1  0  0  0  0  0  0  0  0  0
    8.9038  -17.9567   21.6087 O   0  0  0  0  0  0  0  0  0  0  0  0
    7.6530  -15.9042   21.4303 C   0  0  2  0  0  0  0  0  0  0  0  0
    8.2958  -15.4732   20.2314 N   0  0  0  0  0  0  0  0  0  0  0  0
    8.3022  -15.3616   22.6586 C   0  0  0  0  0  0  0  0  0  0  0  0
    9.4803  -14.9255   22.5970 O   0  0  0  0  0  0  0  0  0  0  0  0
    5.9405  -12.2932   27.2449 C   0  0  0  0  0  0  0  0  0  0  0  0
    7.2627  -12.8563   26.7174 C   0  0  2  0  0  0  0  0  0  0  0  0
    8.3062  -11.8175   26.7257 C   0  0  0  0  0  0  0  0  0  0  0  0
    7.0892  -13.7019   25.5268 C   0  0  0  0  0  0  0  0  0  0  0  0
    8.2008  -14.5608   25.0604 C   0  0  2  0  0  0  0  0  0  0  0  0
    7.6422  -15.3149   23.9075 N   0  0  0  0  0  0  0  0  0  0  0  0
    8.6584  -15.5667   26.0226 C   0  0  0  0  0  0  0  0  0  0  0  0
    9.7588  -15.3185   26.8222 O   0  0  0  0  0  0  0  0  0  0  0  0
    8.0976  -16.6724   26.1710 O   0  0  0  0  0  0  0  0  0  0  0  0
  1  2  1  0
  2  4  1  0
  3  2  2  0
  4  5  1  0
  5  7  1  0
  5  6  1  6
  7  8  2  0
 10  9  1  6
 10 12  1  0
 11 10  1  0
 12 14  1  0
 12 13  1  6
 13  7  1  0
 14 21  1  0
 15 14  2  0
 17 18  1  6
 17 16  1  0
 19 17  1  0
 20 19  1  1
 21 20  1  0
 22 20  1  0
 23 22  1  0
 24 22  2  0
M  END
$$$$
