NTL.pdb
     RDKit          3D

 24 23  0  0  1  0  0  0  0  0999 V2000
   13.7143  -13.5045   18.5716 N   0  0  0  0  0  0  0  0  0  0  0  0
   12.9025  -14.6161   18.2169 C   0  0  0  0  0  0  0  0  0  0  0  0
   13.2230  -15.3723   17.2583 O   0  0  0  0  0  0  0  0  0  0  0  0
   11.6780  -14.8494   19.0089 C   0  0  0  0  0  0  0  0  0  0  0  0
   12.0121  -15.3532   20.4010 C   0  0  2  0  0  0  0  0  0  0  0  0
   12.6183  -16.6523   20.2484 N   0  0  0  0  0  0  0  0  0  0  0  0
   10.7606  -15.4013   21.1900 C   0  0  0  0  0  0  0  0  0  0  0  0
    9.9546  -14.4493   21.0821 O   0  0  0  0  0  0  0  0  0  0  0  0
    8.1932  -18.4862   21.7213 C   0  0  0  0  0  0  0  0  0  0  0  0
    8.7320  -17.9374   23.0297 C   0  0  1  0  0  0  0  0  0  0  0  0
    9.6657  -18.7715   23.5992 O   0  0  0  0  0  0  0  0  0  0  0  0
    9.2544  -16.5190   22.8463 C   0  0  2  0  0  0  0  0  0  0  0  0
   10.4420  -16.4758   22.0565 N   0  0  0  0  0  0  0  0  0  0  0  0
    9.4483  -15.9453   24.2093 C   0  0  0  0  0  0  0  0  0  0  0  0
   10.6103  -15.8404   24.6791 O   0  0  0  0  0  0  0  0  0  0  0  0
    8.1351  -12.0301   26.2839 C   0  0  0  0  0  0  0  0  0  0  0  0
    7.0124  -13.0579   26.1211 C   0  0  2  0  0  0  0  0  0  0  0  0
    5.7000  -12.4284   26.3435 C   0  0  0  0  0  0  0  0  0  0  0  0
    7.3185  -14.3452   26.7627 C   0  0  0  0  0  0  0  0  0  0  0  0
    8.5624  -15.0683   26.4153 C   0  0  2  0  0  0  0  0  0  0  0  0
    8.3679  -15.5074   25.0084 N   0  0  0  0  0  0  0  0  0  0  0  0
    8.8143  -16.2855   27.1913 C   0  0  0  0  0  0  0  0  0  0  0  0
    9.4621  -16.2145   28.4109 O   0  0  0  0  0  0  0  0  0  0  0  0
    8.4688  -17.4223   26.8072 O   0  0  0  0  0  0  0  0  0  0  0  0
  1  2  1  0
  2  4  1  0
  3  2  2  0
  4  5  1  0
  5  7  1  0
  5  6  1  6
  7  8  2  0
 10  9  1  6
 10 12  1  0
 11 10  1  0
 12 14  1  0
 12 13  1  1
 13  7  1  0
 14 21  1  0
 15 14  2  0
 17 18  1  1
 17 16  1  0
 19 17  1  0
 20 19  1  1
 21 20  1  0
 22 20  1  0
 23 22  1  0
 24 22  2  0
M  END
$$$$
