NTL.pdb
     RDKit          3D

 24 23  0  0  1  0  0  0  0  0999 V2000
    6.3740  -21.1856   25.7944 N   0  0  0  0  0  0  0  0  0  0  0  0
    7.7811  -21.0023   25.7108 C   0  0  0  0  0  0  0  0  0  0  0  0
    8.5138  -21.1407   26.7294 O   0  0  0  0  0  0  0  0  0  0  0  0
    8.3476  -20.6460   24.3942 C   0  0  0  0  0  0  0  0  0  0  0  0
    7.4446  -19.6784   23.6516 C   0  0  2  0  0  0  0  0  0  0  0  0
    6.8389  -20.4099   22.5669 N   0  0  0  0  0  0  0  0  0  0  0  0
    8.2693  -18.5438   23.1787 C   0  0  0  0  0  0  0  0  0  0  0  0
    9.5082  -18.5989   23.3508 O   0  0  0  0  0  0  0  0  0  0  0  0
    7.5920  -16.2237   19.7251 C   0  0  0  0  0  0  0  0  0  0  0  0
    7.7507  -15.4740   21.0351 C   0  0  1  0  0  0  0  0  0  0  0  0
    6.5493  -15.0112   21.5192 O   0  0  0  0  0  0  0  0  0  0  0  0
    8.5010  -16.3203   22.0544 C   0  0  2  0  0  0  0  0  0  0  0  0
    7.7142  -17.4057   22.5433 N   0  0  0  0  0  0  0  0  0  0  0  0
    8.9508  -15.4009   23.1393 C   0  0  0  0  0  0  0  0  0  0  0  0
    9.4164  -14.2710   22.8420 O   0  0  0  0  0  0  0  0  0  0  0  0
    5.6710  -12.6674   26.3135 C   0  0  0  0  0  0  0  0  0  0  0  0
    7.1622  -13.0022   26.4011 C   0  0  2  0  0  0  0  0  0  0  0  0
    7.9574  -11.7753   26.5753 C   0  0  0  0  0  0  0  0  0  0  0  0
    7.5818  -14.0052   25.4109 C   0  0  0  0  0  0  0  0  0  0  0  0
    8.8689  -14.7168   25.5776 C   0  0  2  0  0  0  0  0  0  0  0  0
    8.8759  -15.7483   24.5072 N   0  0  0  0  0  0  0  0  0  0  0  0
    9.0227  -15.4405   26.8425 C   0  0  0  0  0  0  0  0  0  0  0  0
    8.4269  -16.6760   27.0170 O   0  0  0  0  0  0  0  0  0  0  0  0
    9.6808  -14.9962   27.8061 O   0  0  0  0  0  0  0  0  0  0  0  0
  1  2  1  0
  2  4  1  0
  3  2  2  0
  4  5  1  0
  5  7  1  0
  5  6  1  6
  7  8  2  0
 10  9  1  6
 10 12  1  0
 11 10  1  0
 12 14  1  0
 12 13  1  1
 13  7  1  0
 14 21  1  0
 15 14  2  0
 17 18  1  6
 17 16  1  0
 19 17  1  0
 20 19  1  1
 21 20  1  0
 22 20  1  0
 23 22  1  0
 24 22  2  0
M  END
$$$$
