NTL.pdb
     RDKit          3D

 24 23  0  0  1  0  0  0  0  0999 V2000
   13.6643  -14.6370   19.6354 N   0  0  0  0  0  0  0  0  0  0  0  0
   12.7306  -14.1352   18.6883 C   0  0  0  0  0  0  0  0  0  0  0  0
   13.1132  -13.7185   17.5599 O   0  0  0  0  0  0  0  0  0  0  0  0
   11.3051  -14.1208   19.0745 C   0  0  0  0  0  0  0  0  0  0  0  0
   10.7757  -15.5293   19.2728 C   0  0  2  0  0  0  0  0  0  0  0  0
   10.3632  -16.0140   17.9792 N   0  0  0  0  0  0  0  0  0  0  0  0
    9.6564  -15.4725   20.2398 C   0  0  0  0  0  0  0  0  0  0  0  0
    8.6018  -14.8936   19.8929 O   0  0  0  0  0  0  0  0  0  0  0  0
    7.3927  -17.9348   21.2469 C   0  0  0  0  0  0  0  0  0  0  0  0
    8.0496  -17.5101   22.5474 C   0  0  1  0  0  0  0  0  0  0  0  0
    8.9821  -18.4228   22.9822 O   0  0  0  0  0  0  0  0  0  0  0  0
    8.6229  -16.1045   22.4293 C   0  0  2  0  0  0  0  0  0  0  0  0
    9.7322  -16.0442   21.5338 N   0  0  0  0  0  0  0  0  0  0  0  0
    8.9717  -15.6575   23.8088 C   0  0  0  0  0  0  0  0  0  0  0  0
   10.1678  -15.7090   24.1941 O   0  0  0  0  0  0  0  0  0  0  0  0
    5.5894  -12.1123   26.9218 C   0  0  0  0  0  0  0  0  0  0  0  0
    6.9681  -12.5873   26.4559 C   0  0  2  0  0  0  0  0  0  0  0  0
    7.3450  -11.9227   25.1972 C   0  0  0  0  0  0  0  0  0  0  0  0
    7.1480  -14.0405   26.5921 C   0  0  0  0  0  0  0  0  0  0  0  0
    8.3737  -14.6867   26.0716 C   0  0  2  0  0  0  0  0  0  0  0  0
    8.0031  -15.1713   24.7159 N   0  0  0  0  0  0  0  0  0  0  0  0
    8.8227  -15.8654   26.8174 C   0  0  0  0  0  0  0  0  0  0  0  0
    9.7187  -15.7312   27.8620 O   0  0  0  0  0  0  0  0  0  0  0  0
    8.4337  -17.0236   26.5600 O   0  0  0  0  0  0  0  0  0  0  0  0
  1  2  1  0
  2  4  1  0
  3  2  2  0
  4  5  1  0
  5  7  1  0
  5  6  1  6
  7  8  2  0
 10  9  1  6
 10 12  1  0
 11 10  1  0
 12 14  1  0
 12 13  1  6
 13  7  1  0
 14 21  1  0
 15 14  2  0
 17 18  1  6
 17 16  1  0
 19 17  1  0
 20 19  1  1
 21 20  1  0
 22 20  1  0
 23 22  1  0
 24 22  2  0
M  END
$$$$
