NTL.pdb
     RDKit          3D

 24 23  0  0  1  0  0  0  0  0999 V2000
   14.4188  -13.7020   19.1434 N   0  0  0  0  0  0  0  0  0  0  0  0
   13.3748  -14.3801   18.4574 C   0  0  0  0  0  0  0  0  0  0  0  0
   13.6019  -14.9968   17.3796 O   0  0  0  0  0  0  0  0  0  0  0  0
   12.0234  -14.3347   19.0515 C   0  0  0  0  0  0  0  0  0  0  0  0
   11.7730  -15.5401   19.9389 C   0  0  2  0  0  0  0  0  0  0  0  0
   11.5709  -16.6726   19.0700 N   0  0  0  0  0  0  0  0  0  0  0  0
   10.5913  -15.2567   20.7842 C   0  0  0  0  0  0  0  0  0  0  0  0
   10.2087  -14.0692   20.8897 O   0  0  0  0  0  0  0  0  0  0  0  0
    7.0894  -17.2949   20.8643 C   0  0  0  0  0  0  0  0  0  0  0  0
    7.7329  -17.1726   22.2333 C   0  0  1  0  0  0  0  0  0  0  0  0
    8.2963  -18.3556   22.6516 O   0  0  0  0  0  0  0  0  0  0  0  0
    8.7215  -16.0150   22.2641 C   0  0  2  0  0  0  0  0  0  0  0  0
    9.8816  -16.2706   21.4736 N   0  0  0  0  0  0  0  0  0  0  0  0
    9.0466  -15.7560   23.6965 C   0  0  0  0  0  0  0  0  0  0  0  0
   10.1708  -16.0932   24.1487 O   0  0  0  0  0  0  0  0  0  0  0  0
    8.6245  -11.8769   26.1017 C   0  0  0  0  0  0  0  0  0  0  0  0
    7.3266  -12.6741   25.9484 C   0  0  2  0  0  0  0  0  0  0  0  0
    6.1615  -11.8275   26.2548 C   0  0  0  0  0  0  0  0  0  0  0  0
    7.4142  -14.0248   26.5235 C   0  0  0  0  0  0  0  0  0  0  0  0
    8.4349  -14.9755   26.0282 C   0  0  2  0  0  0  0  0  0  0  0  0
    8.1337  -15.1392   24.5817 N   0  0  0  0  0  0  0  0  0  0  0  0
    8.3730  -16.3179   26.6122 C   0  0  0  0  0  0  0  0  0  0  0  0
    9.0272  -16.5942   27.7986 O   0  0  0  0  0  0  0  0  0  0  0  0
    7.7448  -17.2610   26.0876 O   0  0  0  0  0  0  0  0  0  0  0  0
  1  2  1  0
  2  4  1  0
  3  2  2  0
  4  5  1  0
  5  7  1  0
  5  6  1  6
  7  8  2  0
 10  9  1  6
 10 12  1  0
 11 10  1  0
 12 14  1  0
 12 13  1  6
 13  7  1  0
 14 21  1  0
 15 14  2  0
 17 18  1  1
 17 16  1  0
 19 17  1  0
 20 19  1  1
 21 20  1  0
 22 20  1  0
 23 22  1  0
 24 22  2  0
M  END
$$$$
