NTL.pdb
     RDKit          3D

 24 23  0  0  1  0  0  0  0  0999 V2000
    7.7323  -14.4610   15.4262 N   0  0  0  0  0  0  0  0  0  0  0  0
    8.6005  -13.8781   16.3890 C   0  0  0  0  0  0  0  0  0  0  0  0
    9.8127  -13.6545   16.1167 O   0  0  0  0  0  0  0  0  0  0  0  0
    8.0318  -13.5468   17.7112 C   0  0  0  0  0  0  0  0  0  0  0  0
    8.9519  -13.9941   18.8323 C   0  0  2  0  0  0  0  0  0  0  0  0
    9.5972  -15.2065   18.3941 N   0  0  0  0  0  0  0  0  0  0  0  0
    8.1352  -14.1955   20.0504 C   0  0  0  0  0  0  0  0  0  0  0  0
    7.4094  -13.2528   20.4404 O   0  0  0  0  0  0  0  0  0  0  0  0
    5.9127  -17.3817   21.1451 C   0  0  0  0  0  0  0  0  0  0  0  0
    6.9483  -17.0184   22.1934 C   0  0  1  0  0  0  0  0  0  0  0  0
    7.9884  -17.9175   22.2315 O   0  0  0  0  0  0  0  0  0  0  0  0
    7.4257  -15.5846   22.0070 C   0  0  2  0  0  0  0  0  0  0  0  0
    8.1434  -15.4058   20.7868 N   0  0  0  0  0  0  0  0  0  0  0  0
    8.2369  -15.2346   23.2086 C   0  0  0  0  0  0  0  0  0  0  0  0
    9.4882  -15.1535   23.1107 O   0  0  0  0  0  0  0  0  0  0  0  0
    7.7196  -11.5816   25.5539 C   0  0  0  0  0  0  0  0  0  0  0  0
    6.7956  -12.6997   26.0436 C   0  0  2  0  0  0  0  0  0  0  0  0
    5.6904  -12.1436   26.8420 C   0  0  0  0  0  0  0  0  0  0  0  0
    7.5310  -13.8728   26.5392 C   0  0  0  0  0  0  0  0  0  0  0  0
    8.4710  -14.5883   25.6475 C   0  0  2  0  0  0  0  0  0  0  0  0
    7.6531  -14.9861   24.4716 N   0  0  0  0  0  0  0  0  0  0  0  0
    9.0290  -15.8280   26.1944 C   0  0  0  0  0  0  0  0  0  0  0  0
   10.0660  -15.7836   27.1080 O   0  0  0  0  0  0  0  0  0  0  0  0
    8.6126  -16.9613   25.8761 O   0  0  0  0  0  0  0  0  0  0  0  0
  1  2  1  0
  2  4  1  0
  3  2  2  0
  4  5  1  0
  5  7  1  0
  5  6  1  6
  7  8  2  0
 10  9  1  6
 10 12  1  0
 11 10  1  0
 12 14  1  0
 12 13  1  6
 13  7  1  0
 14 21  1  0
 15 14  2  0
 17 18  1  1
 17 16  1  0
 19 17  1  0
 20 19  1  1
 21 20  1  0
 22 20  1  0
 23 22  1  0
 24 22  2  0
M  END
$$$$
