GWD.pdb
     RDKit          3D

 27 28  0  0  1  0  0  0  0  0999 V2000
   10.5521  -16.5110   19.6592 N   0  0  0  0  0  0  0  0  0  0  0  0
    9.9259  -17.4575   20.5675 C   0  0  0  0  0  0  0  0  0  0  0  0
   10.0081  -16.9828   21.9746 C   0  0  0  0  0  0  0  0  0  0  0  0
   11.1387  -16.5499   22.3666 O   0  0  0  0  0  0  0  0  0  0  0  0
    8.9412  -16.9763   22.8948 N   0  0  0  0  0  0  0  0  0  0  0  0
    9.1551  -16.7211   24.2786 C   0  0  1  0  0  0  0  0  0  0  0  0
    7.9834  -16.1976   25.0169 C   0  0  0  0  0  0  0  0  0  0  0  0
    7.4421  -14.9027   24.6049 C   0  0  0  0  0  0  0  0  0  0  0  0
    6.9764  -14.4871   23.3897 C   0  0  0  0  0  0  0  0  0  0  0  0
    6.5578  -13.1866   23.4830 N   0  0  0  0  0  0  0  0  0  0  0  0
    6.7641  -12.8009   24.7520 C   0  0  0  0  0  0  0  0  0  0  0  0
    6.5225  -11.5967   25.3963 C   0  0  0  0  0  0  0  0  0  0  0  0
    6.8220  -11.4268   26.7473 C   0  0  0  0  0  0  0  0  0  0  0  0
    7.3637  -12.4518   27.4683 C   0  0  0  0  0  0  0  0  0  0  0  0
    7.5919  -13.6352   26.7992 C   0  0  0  0  0  0  0  0  0  0  0  0
    7.3063  -13.8337   25.4638 C   0  0  0  0  0  0  0  0  0  0  0  0
    9.7382  -17.8952   24.9898 C   0  0  0  0  0  0  0  0  0  0  0  0
    9.2494  -19.0447   24.9353 O   0  0  0  0  0  0  0  0  0  0  0  0
   10.9030  -17.6775   25.7579 N   0  0  0  0  0  0  0  0  0  0  0  0
   11.6289  -18.7745   26.4057 C   0  0  1  0  0  0  0  0  0  0  0  0
   13.0933  -18.7194   26.0204 C   0  0  0  0  0  0  0  0  0  0  0  0
   13.7865  -19.8753   26.6150 C   0  0  0  0  0  0  0  0  0  0  0  0
   13.3259  -21.0583   26.5162 O   0  0  0  0  0  0  0  0  0  0  0  0
   11.5283  -18.5831   27.8696 C   0  0  0  0  0  0  0  0  0  0  0  0
   10.9006  -17.5356   28.4950 O   0  0  0  0  0  0  0  0  0  0  0  0
   14.9949  -19.7770   27.3304 O   0  0  0  0  0  0  0  0  0  0  0  0
   12.0574  -19.4404   28.6671 O   0  0  0  0  0  0  0  0  0  0  0  0
  2  3  1  0
  2  1  1  0
  3  4  2  0
  5  6  1  0
  5  3  1  0
  6 17  1  0
  7  8  1  0
  6  7  1  1
  8 16  1  0
  9 10  1  0
  9  8  2  0
 10 11  1  0
 11 16  2  0
 11 12  1  0
 12 13  2  0
 13 14  1  0
 15 14  2  0
 16 15  1  0
 17 18  2  0
 17 19  1  0
 19 20  1  0
 20 24  1  0
 20 21  1  6
 22 21  1  0
 23 22  2  0
 24 27  2  0
 24 25  1  0
 26 22  1  0
M  END
$$$$
