GWD.pdb
     RDKit          3D

 27 28  0  0  1  0  0  0  0  0999 V2000
    7.4162  -15.5792   19.9101 N   0  0  0  0  0  0  0  0  0  0  0  0
    7.5639  -16.4534   21.0620 C   0  0  0  0  0  0  0  0  0  0  0  0
    8.4187  -15.8249   22.1043 C   0  0  0  0  0  0  0  0  0  0  0  0
    9.0275  -14.7566   21.7762 O   0  0  0  0  0  0  0  0  0  0  0  0
    8.6026  -16.3172   23.4115 N   0  0  0  0  0  0  0  0  0  0  0  0
    9.5054  -15.6956   24.3194 C   0  0  1  0  0  0  0  0  0  0  0  0
    9.0128  -15.5537   25.7084 C   0  0  0  0  0  0  0  0  0  0  0  0
    7.7202  -14.8991   25.9088 C   0  0  0  0  0  0  0  0  0  0  0  0
    6.4594  -15.4243   25.9335 C   0  0  0  0  0  0  0  0  0  0  0  0
    5.5536  -14.4236   26.1644 N   0  0  0  0  0  0  0  0  0  0  0  0
    6.2534  -13.2842   26.2821 C   0  0  0  0  0  0  0  0  0  0  0  0
    5.8492  -11.9790   26.5203 C   0  0  0  0  0  0  0  0  0  0  0  0
    6.7745  -10.9398   26.6059 C   0  0  0  0  0  0  0  0  0  0  0  0
    8.1083  -11.1892   26.4553 C   0  0  0  0  0  0  0  0  0  0  0  0
    8.4777  -12.4962   26.2193 C   0  0  0  0  0  0  0  0  0  0  0  0
    7.5859  -13.5455   26.1295 C   0  0  0  0  0  0  0  0  0  0  0  0
   10.8538  -16.3327   24.3063 C   0  0  0  0  0  0  0  0  0  0  0  0
   11.7822  -15.9937   25.0719 O   0  0  0  0  0  0  0  0  0  0  0  0
   11.0732  -17.3715   23.3751 N   0  0  0  0  0  0  0  0  0  0  0  0
   12.3555  -18.0758   23.2770 C   0  0  1  0  0  0  0  0  0  0  0  0
   12.1299  -19.4846   22.7669 C   0  0  0  0  0  0  0  0  0  0  0  0
   11.4111  -20.2550   23.7964 C   0  0  0  0  0  0  0  0  0  0  0  0
   10.4253  -21.0069   23.5064 O   0  0  0  0  0  0  0  0  0  0  0  0
   13.1942  -17.3562   22.2928 C   0  0  0  0  0  0  0  0  0  0  0  0
   14.5158  -17.6158   22.0311 O   0  0  0  0  0  0  0  0  0  0  0  0
   11.7434  -20.2292   25.1642 O   0  0  0  0  0  0  0  0  0  0  0  0
   12.6916  -16.3981   21.5996 O   0  0  0  0  0  0  0  0  0  0  0  0
  2  3  1  0
  2  1  1  0
  3  4  2  0
  5  6  1  0
  5  3  1  0
  6 17  1  0
  7  8  1  0
  6  7  1  1
  8 16  1  0
  9 10  1  0
  9  8  2  0
 10 11  1  0
 11 16  2  0
 11 12  1  0
 12 13  2  0
 13 14  1  0
 15 14  2  0
 16 15  1  0
 17 18  2  0
 17 19  1  0
 19 20  1  0
 20 24  1  0
 20 21  1  6
 22 21  1  0
 23 22  2  0
 24 27  2  0
 24 25  1  0
 26 22  1  0
M  END
$$$$
