GWD.pdb
     RDKit          3D

 27 28  0  0  1  0  0  0  0  0999 V2000
    7.0024  -14.6108   20.0152 N   0  0  0  0  0  0  0  0  0  0  0  0
    7.0192  -15.6734   21.0070 C   0  0  0  0  0  0  0  0  0  0  0  0
    8.0627  -15.4265   22.0377 C   0  0  0  0  0  0  0  0  0  0  0  0
    8.8766  -14.4751   21.8104 O   0  0  0  0  0  0  0  0  0  0  0  0
    8.2156  -16.1577   23.2322 N   0  0  0  0  0  0  0  0  0  0  0  0
    9.2940  -15.9042   24.1257 C   0  0  1  0  0  0  0  0  0  0  0  0
    8.9068  -15.6341   25.5290 C   0  0  0  0  0  0  0  0  0  0  0  0
    7.6438  -14.9349   25.7641 C   0  0  0  0  0  0  0  0  0  0  0  0
    6.3647  -15.4129   25.8058 C   0  0  0  0  0  0  0  0  0  0  0  0
    5.5018  -14.3827   26.0689 N   0  0  0  0  0  0  0  0  0  0  0  0
    6.2461  -13.2722   26.1896 C   0  0  0  0  0  0  0  0  0  0  0  0
    5.8960  -11.9566   26.4547 C   0  0  0  0  0  0  0  0  0  0  0  0
    6.8613  -10.9541   26.5373 C   0  0  0  0  0  0  0  0  0  0  0  0
    8.1816  -11.2509   26.3571 C   0  0  0  0  0  0  0  0  0  0  0  0
    8.4969  -12.5670   26.0949 C   0  0  0  0  0  0  0  0  0  0  0  0
    7.5648  -13.5807   26.0072 C   0  0  0  0  0  0  0  0  0  0  0  0
   10.3415  -16.9643   24.0681 C   0  0  0  0  0  0  0  0  0  0  0  0
   10.0975  -18.1577   23.7864 O   0  0  0  0  0  0  0  0  0  0  0  0
   11.6714  -16.5804   24.3477 N   0  0  0  0  0  0  0  0  0  0  0  0
   12.7612  -17.5558   24.4531 C   0  0  1  0  0  0  0  0  0  0  0  0
   14.0949  -16.8548   24.2933 C   0  0  0  0  0  0  0  0  0  0  0  0
   14.1670  -16.2691   22.9435 C   0  0  0  0  0  0  0  0  0  0  0  0
   13.7997  -16.9162   21.9102 O   0  0  0  0  0  0  0  0  0  0  0  0
   12.7097  -18.1489   25.8079 C   0  0  0  0  0  0  0  0  0  0  0  0
   13.4674  -19.2062   26.2442 O   0  0  0  0  0  0  0  0  0  0  0  0
   14.6383  -14.9688   22.6813 O   0  0  0  0  0  0  0  0  0  0  0  0
   11.9035  -17.6719   26.6874 O   0  0  0  0  0  0  0  0  0  0  0  0
  2  3  1  0
  2  1  1  0
  3  4  2  0
  5  6  1  0
  5  3  1  0
  6 17  1  0
  7  8  1  0
  6  7  1  1
  8 16  1  0
  9 10  1  0
  9  8  2  0
 10 11  1  0
 11 16  2  0
 11 12  1  0
 12 13  2  0
 13 14  1  0
 15 14  2  0
 16 15  1  0
 17 18  2  0
 17 19  1  0
 19 20  1  0
 20 24  1  0
 20 21  1  1
 22 21  1  0
 23 22  2  0
 24 27  2  0
 24 25  1  0
 26 22  1  0
M  END
$$$$
