GWD.pdb
     RDKit          3D

 27 28  0  0  1  0  0  0  0  0999 V2000
    9.2650  -19.2460   19.5503 N   0  0  0  0  0  0  0  0  0  0  0  0
    8.3590  -18.6782   20.5350 C   0  0  0  0  0  0  0  0  0  0  0  0
    8.8210  -17.3347   20.9750 C   0  0  0  0  0  0  0  0  0  0  0  0
    9.9143  -16.9150   20.4770 O   0  0  0  0  0  0  0  0  0  0  0  0
    8.1474  -16.5020   21.8903 N   0  0  0  0  0  0  0  0  0  0  0  0
    8.7080  -15.2676   22.3236 C   0  0  1  0  0  0  0  0  0  0  0  0
    7.7321  -14.2504   22.7764 C   0  0  0  0  0  0  0  0  0  0  0  0
    7.1475  -14.4129   24.1074 C   0  0  0  0  0  0  0  0  0  0  0  0
    6.6377  -15.5235   24.7179 C   0  0  0  0  0  0  0  0  0  0  0  0
    6.2093  -15.1952   25.9764 N   0  0  0  0  0  0  0  0  0  0  0  0
    6.4543  -13.8859   26.1423 C   0  0  0  0  0  0  0  0  0  0  0  0
    6.2265  -13.0381   27.2160 C   0  0  0  0  0  0  0  0  0  0  0  0
    6.5734  -11.6891   27.1582 C   0  0  0  0  0  0  0  0  0  0  0  0
    7.1491  -11.1721   26.0335 C   0  0  0  0  0  0  0  0  0  0  0  0
    7.3619  -12.0401   24.9839 C   0  0  0  0  0  0  0  0  0  0  0  0
    7.0298  -13.3793   25.0111 C   0  0  0  0  0  0  0  0  0  0  0  0
    9.7774  -15.4565   23.3460 C   0  0  0  0  0  0  0  0  0  0  0  0
   10.5559  -14.5459   23.7033 O   0  0  0  0  0  0  0  0  0  0  0  0
    9.8999  -16.7364   23.9299 N   0  0  0  0  0  0  0  0  0  0  0  0
   10.8563  -17.0169   25.0055 C   0  0  1  0  0  0  0  0  0  0  0  0
   10.2781  -18.0509   25.9500 C   0  0  0  0  0  0  0  0  0  0  0  0
   11.2812  -18.3685   26.9811 C   0  0  0  0  0  0  0  0  0  0  0  0
   12.5295  -18.3542   26.7304 O   0  0  0  0  0  0  0  0  0  0  0  0
   12.0772  -17.5835   24.3905 C   0  0  0  0  0  0  0  0  0  0  0  0
   12.2161  -17.9334   23.0712 O   0  0  0  0  0  0  0  0  0  0  0  0
   10.9558  -18.7089   28.3077 O   0  0  0  0  0  0  0  0  0  0  0  0
   13.1232  -17.7860   25.1088 O   0  0  0  0  0  0  0  0  0  0  0  0
  2  3  1  0
  2  1  1  0
  3  4  2  0
  5  6  1  0
  5  3  1  0
  6 17  1  0
  7  8  1  0
  6  7  1  1
  8 16  1  0
  9 10  1  0
  9  8  2  0
 10 11  1  0
 11 16  2  0
 11 12  1  0
 12 13  2  0
 13 14  1  0
 15 14  2  0
 16 15  1  0
 17 18  2  0
 17 19  1  0
 19 20  1  0
 20 24  1  0
 20 21  1  1
 22 21  1  0
 23 22  2  0
 24 27  2  0
 24 25  1  0
 26 22  1  0
M  END
$$$$
