GWD.pdb
     RDKit          3D

 27 28  0  0  1  0  0  0  0  0999 V2000
    6.8062  -14.6641   20.1577 N   0  0  0  0  0  0  0  0  0  0  0  0
    6.8252  -15.7169   21.1597 C   0  0  0  0  0  0  0  0  0  0  0  0
    7.9277  -15.5067   22.1356 C   0  0  0  0  0  0  0  0  0  0  0  0
    8.7423  -14.5622   21.8828 O   0  0  0  0  0  0  0  0  0  0  0  0
    8.1353  -16.2652   23.3046 N   0  0  0  0  0  0  0  0  0  0  0  0
    9.2634  -16.0435   24.1436 C   0  0  1  0  0  0  0  0  0  0  0  0
    8.9537  -15.5871   25.5176 C   0  0  0  0  0  0  0  0  0  0  0  0
    7.6744  -14.9135   25.7391 C   0  0  0  0  0  0  0  0  0  0  0  0
    6.4056  -15.4185   25.7754 C   0  0  0  0  0  0  0  0  0  0  0  0
    5.5190  -14.4053   26.0251 N   0  0  0  0  0  0  0  0  0  0  0  0
    6.2385  -13.2782   26.1430 C   0  0  0  0  0  0  0  0  0  0  0  0
    5.8584  -11.9686   26.3963 C   0  0  0  0  0  0  0  0  0  0  0  0
    6.8014  -10.9451   26.4783 C   0  0  0  0  0  0  0  0  0  0  0  0
    8.1290  -11.2147   26.3093 C   0  0  0  0  0  0  0  0  0  0  0  0
    8.4743  -12.5255   26.0587 C   0  0  0  0  0  0  0  0  0  0  0  0
    7.5647  -13.5596   25.9718 C   0  0  0  0  0  0  0  0  0  0  0  0
   10.1854  -17.2153   24.1782 C   0  0  0  0  0  0  0  0  0  0  0  0
    9.7919  -18.4014   24.1411 O   0  0  0  0  0  0  0  0  0  0  0  0
   11.5704  -16.9508   24.2554 N   0  0  0  0  0  0  0  0  0  0  0  0
   12.5558  -18.0082   24.5029 C   0  0  1  0  0  0  0  0  0  0  0  0
   13.9327  -17.5354   24.0829 C   0  0  0  0  0  0  0  0  0  0  0  0
   13.8582  -17.0123   22.7077 C   0  0  0  0  0  0  0  0  0  0  0  0
   13.7183  -17.7820   21.7031 O   0  0  0  0  0  0  0  0  0  0  0  0
   12.5816  -18.2725   25.9587 C   0  0  0  0  0  0  0  0  0  0  0  0
   11.8899  -17.5652   26.9094 O   0  0  0  0  0  0  0  0  0  0  0  0
   13.9333  -15.6433   22.3886 O   0  0  0  0  0  0  0  0  0  0  0  0
   13.2971  -19.2329   26.4243 O   0  0  0  0  0  0  0  0  0  0  0  0
  2  3  1  0
  2  1  1  0
  3  4  2  0
  5  6  1  0
  5  3  1  0
  6 17  1  0
  7  8  1  0
  6  7  1  1
  8 16  1  0
  9 10  1  0
  9  8  2  0
 10 11  1  0
 11 16  2  0
 11 12  1  0
 12 13  2  0
 13 14  1  0
 15 14  2  0
 16 15  1  0
 17 18  2  0
 17 19  1  0
 19 20  1  0
 20 24  1  0
 20 21  1  1
 22 21  1  0
 23 22  2  0
 24 27  2  0
 24 25  1  0
 26 22  1  0
M  END
$$$$
