GWD.pdb
     RDKit          3D

 27 28  0  0  1  0  0  0  0  0999 V2000
    6.6336  -16.1568   20.0093 N   0  0  0  0  0  0  0  0  0  0  0  0
    6.8256  -16.8599   21.2670 C   0  0  0  0  0  0  0  0  0  0  0  0
    7.8985  -16.2235   22.0770 C   0  0  0  0  0  0  0  0  0  0  0  0
    8.6773  -15.4235   21.4663 O   0  0  0  0  0  0  0  0  0  0  0  0
    8.1145  -16.4371   23.4527 N   0  0  0  0  0  0  0  0  0  0  0  0
    9.2080  -15.8340   24.1355 C   0  0  1  0  0  0  0  0  0  0  0  0
    8.8921  -15.2687   25.4670 C   0  0  0  0  0  0  0  0  0  0  0  0
    7.5821  -14.6437   25.6479 C   0  0  0  0  0  0  0  0  0  0  0  0
    6.3325  -15.1957   25.6423 C   0  0  0  0  0  0  0  0  0  0  0  0
    5.4012  -14.2167   25.8647 N   0  0  0  0  0  0  0  0  0  0  0  0
    6.0741  -13.0640   26.0075 C   0  0  0  0  0  0  0  0  0  0  0  0
    5.6375  -11.7702   26.2504 C   0  0  0  0  0  0  0  0  0  0  0  0
    6.5386  -10.7125   26.3645 C   0  0  0  0  0  0  0  0  0  0  0  0
    7.8801  -10.9322   26.2382 C   0  0  0  0  0  0  0  0  0  0  0  0
    8.2819  -12.2286   25.9969 C   0  0  0  0  0  0  0  0  0  0  0  0
    7.4147  -13.2955   25.8790 C   0  0  0  0  0  0  0  0  0  0  0  0
   10.3932  -16.7355   24.2190 C   0  0  0  0  0  0  0  0  0  0  0  0
   10.3726  -17.8475   24.7901 O   0  0  0  0  0  0  0  0  0  0  0  0
   11.5904  -16.2934   23.6146 N   0  0  0  0  0  0  0  0  0  0  0  0
   12.7917  -17.1320   23.5535 C   0  0  1  0  0  0  0  0  0  0  0  0
   12.7155  -18.0514   22.3516 C   0  0  0  0  0  0  0  0  0  0  0  0
   12.5209  -19.4342   22.8207 C   0  0  0  0  0  0  0  0  0  0  0  0
   11.4102  -19.8303   23.3011 O   0  0  0  0  0  0  0  0  0  0  0  0
   13.9595  -16.2398   23.3802 C   0  0  0  0  0  0  0  0  0  0  0  0
   15.1791  -16.3964   23.9889 O   0  0  0  0  0  0  0  0  0  0  0  0
   13.5246  -20.4204   22.7803 O   0  0  0  0  0  0  0  0  0  0  0  0
   13.8770  -15.2172   22.6067 O   0  0  0  0  0  0  0  0  0  0  0  0
  2  3  1  0
  2  1  1  0
  3  4  2  0
  5  6  1  0
  5  3  1  0
  6 17  1  0
  7  8  1  0
  6  7  1  1
  8 16  1  0
  9 10  1  0
  9  8  2  0
 10 11  1  0
 11 16  2  0
 11 12  1  0
 12 13  2  0
 13 14  1  0
 15 14  2  0
 16 15  1  0
 17 18  2  0
 17 19  1  0
 19 20  1  0
 20 24  1  0
 20 21  1  6
 22 21  1  0
 23 22  2  0
 24 27  2  0
 24 25  1  0
 26 22  1  0
M  END
$$$$
