GWD.pdb
     RDKit          3D

 27 28  0  0  1  0  0  0  0  0999 V2000
    6.7773  -16.3951   19.5178 N   0  0  0  0  0  0  0  0  0  0  0  0
    6.7673  -16.9783   20.8492 C   0  0  0  0  0  0  0  0  0  0  0  0
    7.8148  -16.3659   21.7093 C   0  0  0  0  0  0  0  0  0  0  0  0
    8.5850  -15.5176   21.1555 O   0  0  0  0  0  0  0  0  0  0  0  0
    8.0158  -16.6506   23.0744 N   0  0  0  0  0  0  0  0  0  0  0  0
    9.0744  -16.0485   23.8110 C   0  0  1  0  0  0  0  0  0  0  0  0
    8.8044  -15.8326   25.2506 C   0  0  0  0  0  0  0  0  0  0  0  0
    7.5975  -15.0901   25.6131 C   0  0  0  0  0  0  0  0  0  0  0  0
    6.3131  -15.5227   25.7841 C   0  0  0  0  0  0  0  0  0  0  0  0
    5.5185  -14.4637   26.1339 N   0  0  0  0  0  0  0  0  0  0  0  0
    6.3103  -13.3807   26.1790 C   0  0  0  0  0  0  0  0  0  0  0  0
    6.0359  -12.0547   26.4790 C   0  0  0  0  0  0  0  0  0  0  0  0
    7.0397  -11.0874   26.4637 C   0  0  0  0  0  0  0  0  0  0  0  0
    8.3235  -11.4299   26.1503 C   0  0  0  0  0  0  0  0  0  0  0  0
    8.5636  -12.7552   25.8568 C   0  0  0  0  0  0  0  0  0  0  0  0
    7.5918  -13.7350   25.8636 C   0  0  0  0  0  0  0  0  0  0  0  0
   10.3727  -16.7583   23.6241 C   0  0  0  0  0  0  0  0  0  0  0  0
   10.4626  -17.9929   23.4485 O   0  0  0  0  0  0  0  0  0  0  0  0
   11.5496  -15.9783   23.6483 N   0  0  0  0  0  0  0  0  0  0  0  0
   12.8678  -16.5421   23.3407 C   0  0  1  0  0  0  0  0  0  0  0  0
   13.8119  -15.4369   22.9131 C   0  0  0  0  0  0  0  0  0  0  0  0
   15.1292  -16.0244   22.6135 C   0  0  0  0  0  0  0  0  0  0  0  0
   15.6329  -16.9460   23.3335 O   0  0  0  0  0  0  0  0  0  0  0  0
   13.4006  -17.1522   24.5792 C   0  0  0  0  0  0  0  0  0  0  0  0
   12.8377  -17.0456   25.8259 O   0  0  0  0  0  0  0  0  0  0  0  0
   15.9317  -15.6278   21.5271 O   0  0  0  0  0  0  0  0  0  0  0  0
   14.4793  -17.8492   24.5389 O   0  0  0  0  0  0  0  0  0  0  0  0
  2  3  1  0
  2  1  1  0
  3  4  2  0
  5  6  1  0
  5  3  1  0
  6 17  1  0
  7  8  1  0
  6  7  1  1
  8 16  1  0
  9 10  1  0
  9  8  2  0
 10 11  1  0
 11 16  2  0
 11 12  1  0
 12 13  2  0
 13 14  1  0
 15 14  2  0
 16 15  1  0
 17 18  2  0
 17 19  1  0
 19 20  1  0
 20 24  1  0
 20 21  1  1
 22 21  1  0
 23 22  2  0
 24 27  2  0
 24 25  1  0
 26 22  1  0
M  END
$$$$
