GWD.pdb
     RDKit          3D

 27 28  0  0  1  0  0  0  0  0999 V2000
    7.3954  -17.3289   18.9636 N   0  0  0  0  0  0  0  0  0  0  0  0
    6.9746  -17.0366   20.3239 C   0  0  0  0  0  0  0  0  0  0  0  0
    8.1271  -16.6049   21.1591 C   0  0  0  0  0  0  0  0  0  0  0  0
    9.2807  -16.6895   20.6286 O   0  0  0  0  0  0  0  0  0  0  0  0
    8.0386  -16.1151   22.4771 N   0  0  0  0  0  0  0  0  0  0  0  0
    9.2016  -15.7676   23.2203 C   0  0  1  0  0  0  0  0  0  0  0  0
    9.0867  -14.5432   24.0448 C   0  0  0  0  0  0  0  0  0  0  0  0
    7.8864  -14.3855   24.8658 C   0  0  0  0  0  0  0  0  0  0  0  0
    6.9216  -15.2923   25.2019 C   0  0  0  0  0  0  0  0  0  0  0  0
    5.9893  -14.6894   26.0034 N   0  0  0  0  0  0  0  0  0  0  0  0
    6.3777  -13.4142   26.1617 C   0  0  0  0  0  0  0  0  0  0  0  0
    5.8136  -12.3639   26.8704 C   0  0  0  0  0  0  0  0  0  0  0  0
    6.4093  -11.1036   26.8916 C   0  0  0  0  0  0  0  0  0  0  0  0
    7.5697  -10.8772   26.2089 C   0  0  0  0  0  0  0  0  0  0  0  0
    8.1047  -11.9409   25.5143 C   0  0  0  0  0  0  0  0  0  0  0  0
    7.5390  -13.1990   25.4744 C   0  0  0  0  0  0  0  0  0  0  0  0
    9.7125  -16.9034   24.0409 C   0  0  0  0  0  0  0  0  0  0  0  0
    9.0403  -17.9269   24.2928 O   0  0  0  0  0  0  0  0  0  0  0  0
   11.0259  -16.7993   24.5491 N   0  0  0  0  0  0  0  0  0  0  0  0
   11.9207  -17.9568   24.6467 C   0  0  1  0  0  0  0  0  0  0  0  0
   12.3576  -18.3864   23.2610 C   0  0  0  0  0  0  0  0  0  0  0  0
   13.3117  -17.3957   22.7334 C   0  0  0  0  0  0  0  0  0  0  0  0
   14.1766  -16.8328   23.4793 O   0  0  0  0  0  0  0  0  0  0  0  0
   13.1227  -17.5386   25.4018 C   0  0  0  0  0  0  0  0  0  0  0  0
   13.3384  -16.2904   25.9288 O   0  0  0  0  0  0  0  0  0  0  0  0
   13.3515  -16.9916   21.3855 O   0  0  0  0  0  0  0  0  0  0  0  0
   14.0749  -18.3763   25.6081 O   0  0  0  0  0  0  0  0  0  0  0  0
  2  3  1  0
  2  1  1  0
  3  4  2  0
  5  6  1  0
  5  3  1  0
  6 17  1  0
  7  8  1  0
  6  7  1  1
  8 16  1  0
  9 10  1  0
  9  8  2  0
 10 11  1  0
 11 16  2  0
 11 12  1  0
 12 13  2  0
 13 14  1  0
 15 14  2  0
 16 15  1  0
 17 18  2  0
 17 19  1  0
 19 20  1  0
 20 24  1  0
 20 21  1  6
 22 21  1  0
 23 22  2  0
 24 27  2  0
 24 25  1  0
 26 22  1  0
M  END
$$$$
