GWD.pdb
     RDKit          3D

 27 28  0  0  1  0  0  0  0  0999 V2000
    6.7927  -16.2685   19.8388 N   0  0  0  0  0  0  0  0  0  0  0  0
    6.7966  -16.9636   21.1154 C   0  0  0  0  0  0  0  0  0  0  0  0
    7.9076  -16.4859   21.9811 C   0  0  0  0  0  0  0  0  0  0  0  0
    8.8505  -15.8548   21.4047 O   0  0  0  0  0  0  0  0  0  0  0  0
    7.9934  -16.6769   23.3744 N   0  0  0  0  0  0  0  0  0  0  0  0
    9.1601  -16.3130   24.1038 C   0  0  1  0  0  0  0  0  0  0  0  0
    8.9192  -15.7840   25.4655 C   0  0  0  0  0  0  0  0  0  0  0  0
    7.6525  -15.0962   25.7143 C   0  0  0  0  0  0  0  0  0  0  0  0
    6.3818  -15.5905   25.8000 C   0  0  0  0  0  0  0  0  0  0  0  0
    5.5110  -14.5657   26.0585 N   0  0  0  0  0  0  0  0  0  0  0  0
    6.2421  -13.4424   26.1324 C   0  0  0  0  0  0  0  0  0  0  0  0
    5.8798  -12.1254   26.3729 C   0  0  0  0  0  0  0  0  0  0  0  0
    6.8324  -11.1080   26.4060 C   0  0  0  0  0  0  0  0  0  0  0  0
    8.1520  -11.3913   26.2003 C   0  0  0  0  0  0  0  0  0  0  0  0
    8.4796  -12.7092   25.9637 C   0  0  0  0  0  0  0  0  0  0  0  0
    7.5601  -13.7375   25.9249 C   0  0  0  0  0  0  0  0  0  0  0  0
   10.1721  -17.4080   24.1408 C   0  0  0  0  0  0  0  0  0  0  0  0
    9.8720  -18.6203   24.1959 O   0  0  0  0  0  0  0  0  0  0  0  0
   11.5340  -17.0360   24.1095 N   0  0  0  0  0  0  0  0  0  0  0  0
   12.6159  -18.0251   24.1462 C   0  0  1  0  0  0  0  0  0  0  0  0
   13.6896  -17.6491   23.1454 C   0  0  0  0  0  0  0  0  0  0  0  0
   13.9869  -16.2127   23.2823 C   0  0  0  0  0  0  0  0  0  0  0  0
   13.4663  -15.5040   24.2031 O   0  0  0  0  0  0  0  0  0  0  0  0
   13.2136  -17.9937   25.4996 C   0  0  0  0  0  0  0  0  0  0  0  0
   14.1665  -18.8615   25.9701 O   0  0  0  0  0  0  0  0  0  0  0  0
   14.8551  -15.5105   22.4251 O   0  0  0  0  0  0  0  0  0  0  0  0
   12.8428  -17.0996   26.3446 O   0  0  0  0  0  0  0  0  0  0  0  0
  2  3  1  0
  2  1  1  0
  3  4  2  0
  5  6  1  0
  5  3  1  0
  6 17  1  0
  7  8  1  0
  6  7  1  1
  8 16  1  0
  9 10  1  0
  9  8  2  0
 10 11  1  0
 11 16  2  0
 11 12  1  0
 12 13  2  0
 13 14  1  0
 15 14  2  0
 16 15  1  0
 17 18  2  0
 17 19  1  0
 19 20  1  0
 20 24  1  0
 20 21  1  6
 22 21  1  0
 23 22  2  0
 24 27  2  0
 24 25  1  0
 26 22  1  0
M  END
$$$$
