GWD.pdb
     RDKit          3D

 27 28  0  0  1  0  0  0  0  0999 V2000
    6.9675  -18.2453   20.3985 N   0  0  0  0  0  0  0  0  0  0  0  0
    7.1352  -18.2905   21.8416 C   0  0  0  0  0  0  0  0  0  0  0  0
    7.9732  -17.1580   22.3184 C   0  0  0  0  0  0  0  0  0  0  0  0
    8.2461  -16.2514   21.4681 O   0  0  0  0  0  0  0  0  0  0  0  0
    8.4811  -17.0152   23.6248 N   0  0  0  0  0  0  0  0  0  0  0  0
    9.2708  -15.8909   23.9962 C   0  0  1  0  0  0  0  0  0  0  0  0
    8.9951  -15.3368   25.3412 C   0  0  0  0  0  0  0  0  0  0  0  0
    7.6360  -14.8744   25.6214 C   0  0  0  0  0  0  0  0  0  0  0  0
    6.4666  -15.5746   25.7120 C   0  0  0  0  0  0  0  0  0  0  0  0
    5.4421  -14.7144   26.0044 N   0  0  0  0  0  0  0  0  0  0  0  0
    5.9777  -13.4868   26.0944 C   0  0  0  0  0  0  0  0  0  0  0  0
    5.4058  -12.2535   26.3689 C   0  0  0  0  0  0  0  0  0  0  0  0
    6.1768  -11.0927   26.4128 C   0  0  0  0  0  0  0  0  0  0  0  0
    7.5216  -11.1484   26.1842 C   0  0  0  0  0  0  0  0  0  0  0  0
    8.0595  -12.3886   25.9139 C   0  0  0  0  0  0  0  0  0  0  0  0
    7.3229  -13.5544   25.8637 C   0  0  0  0  0  0  0  0  0  0  0  0
   10.7312  -16.1399   23.8236 C   0  0  0  0  0  0  0  0  0  0  0  0
   11.6098  -15.2911   24.0892 O   0  0  0  0  0  0  0  0  0  0  0  0
   11.1217  -17.4062   23.3354 N   0  0  0  0  0  0  0  0  0  0  0  0
   12.5097  -17.7107   22.9737 C   0  0  1  0  0  0  0  0  0  0  0  0
   13.2406  -16.4316   22.6197 C   0  0  0  0  0  0  0  0  0  0  0  0
   14.6112  -16.7672   22.1966 C   0  0  0  0  0  0  0  0  0  0  0  0
   15.3848  -17.4711   22.9228 O   0  0  0  0  0  0  0  0  0  0  0  0
   13.1669  -18.3065   24.1581 C   0  0  0  0  0  0  0  0  0  0  0  0
   12.6036  -18.4327   25.4028 O   0  0  0  0  0  0  0  0  0  0  0  0
   15.1759  -16.3485   20.9769 O   0  0  0  0  0  0  0  0  0  0  0  0
   14.3667  -18.7576   24.0676 O   0  0  0  0  0  0  0  0  0  0  0  0
  2  3  1  0
  2  1  1  0
  3  4  2  0
  5  6  1  0
  5  3  1  0
  6 17  1  0
  7  8  1  0
  6  7  1  1
  8 16  1  0
  9 10  1  0
  9  8  2  0
 10 11  1  0
 11 16  2  0
 11 12  1  0
 12 13  2  0
 13 14  1  0
 15 14  2  0
 16 15  1  0
 17 18  2  0
 17 19  1  0
 19 20  1  0
 20 24  1  0
 20 21  1  1
 22 21  1  0
 23 22  2  0
 24 27  2  0
 24 25  1  0
 26 22  1  0
M  END
$$$$
