GWD.pdb
     RDKit          3D

 27 28  0  0  1  0  0  0  0  0999 V2000
    6.4667  -15.4676   20.0439 N   0  0  0  0  0  0  0  0  0  0  0  0
    6.6392  -16.3107   21.2154 C   0  0  0  0  0  0  0  0  0  0  0  0
    7.7724  -15.8361   22.0536 C   0  0  0  0  0  0  0  0  0  0  0  0
    8.4856  -14.8984   21.5726 O   0  0  0  0  0  0  0  0  0  0  0  0
    8.1112  -16.3404   23.3248 N   0  0  0  0  0  0  0  0  0  0  0  0
    9.2591  -15.8761   24.0265 C   0  0  1  0  0  0  0  0  0  0  0  0
    9.0065  -15.3725   25.3957 C   0  0  0  0  0  0  0  0  0  0  0  0
    7.6873  -14.8090   25.6812 C   0  0  0  0  0  0  0  0  0  0  0  0
    6.4666  -15.4169   25.7625 C   0  0  0  0  0  0  0  0  0  0  0  0
    5.5120  -14.4830   26.0653 N   0  0  0  0  0  0  0  0  0  0  0  0
    6.1416  -13.3022   26.1707 C   0  0  0  0  0  0  0  0  0  0  0  0
    5.6673  -12.0315   26.4605 C   0  0  0  0  0  0  0  0  0  0  0  0
    6.5264  -10.9351   26.5192 C   0  0  0  0  0  0  0  0  0  0  0  0
    7.8631  -11.0927   26.2905 C   0  0  0  0  0  0  0  0  0  0  0  0
    8.3029  -12.3676   26.0049 C   0  0  0  0  0  0  0  0  0  0  0  0
    7.4777  -13.4717   25.9398 C   0  0  0  0  0  0  0  0  0  0  0  0
   10.3644  -16.8774   24.0344 C   0  0  0  0  0  0  0  0  0  0  0  0
   10.1733  -18.1125   24.0677 O   0  0  0  0  0  0  0  0  0  0  0  0
   11.6877  -16.3856   24.0006 N   0  0  0  0  0  0  0  0  0  0  0  0
   12.8535  -17.2734   24.0535 C   0  0  1  0  0  0  0  0  0  0  0  0
   14.1068  -16.4965   23.7050 C   0  0  0  0  0  0  0  0  0  0  0  0
   14.0489  -16.1107   22.2844 C   0  0  0  0  0  0  0  0  0  0  0  0
   13.4787  -16.8427   21.4124 O   0  0  0  0  0  0  0  0  0  0  0  0
   12.9859  -17.7660   25.4426 C   0  0  0  0  0  0  0  0  0  0  0  0
   13.8382  -18.7574   25.8587 O   0  0  0  0  0  0  0  0  0  0  0  0
   14.6072  -14.9230   21.7750 O   0  0  0  0  0  0  0  0  0  0  0  0
   12.2640  -17.2571   26.3758 O   0  0  0  0  0  0  0  0  0  0  0  0
  2  3  1  0
  2  1  1  0
  3  4  2  0
  5  6  1  0
  5  3  1  0
  6 17  1  0
  7  8  1  0
  6  7  1  1
  8 16  1  0
  9 10  1  0
  9  8  2  0
 10 11  1  0
 11 16  2  0
 11 12  1  0
 12 13  2  0
 13 14  1  0
 15 14  2  0
 16 15  1  0
 17 18  2  0
 17 19  1  0
 19 20  1  0
 20 24  1  0
 20 21  1  1
 22 21  1  0
 23 22  2  0
 24 27  2  0
 24 25  1  0
 26 22  1  0
M  END
$$$$
