GWD.pdb
     RDKit          3D

 27 28  0  0  1  0  0  0  0  0999 V2000
    8.4151  -19.5982   19.9927 N   0  0  0  0  0  0  0  0  0  0  0  0
    7.7671  -18.8364   21.0475 C   0  0  0  0  0  0  0  0  0  0  0  0
    8.5049  -17.5757   21.3272 C   0  0  0  0  0  0  0  0  0  0  0  0
    9.5294  -17.3418   20.6095 O   0  0  0  0  0  0  0  0  0  0  0  0
    8.1588  -16.6323   22.3148 N   0  0  0  0  0  0  0  0  0  0  0  0
    8.9479  -15.4696   22.5406 C   0  0  1  0  0  0  0  0  0  0  0  0
    8.1901  -14.2417   22.8727 C   0  0  0  0  0  0  0  0  0  0  0  0
    7.3432  -14.2661   24.0651 C   0  0  0  0  0  0  0  0  0  0  0  0
    6.6604  -15.2992   24.6418 C   0  0  0  0  0  0  0  0  0  0  0  0
    6.0081  -14.8474   25.7578 N   0  0  0  0  0  0  0  0  0  0  0  0
    6.2877  -13.5393   25.8697 C   0  0  0  0  0  0  0  0  0  0  0  0
    5.8975  -12.5940   26.8066 C   0  0  0  0  0  0  0  0  0  0  0  0
    6.3236  -11.2695   26.7180 C   0  0  0  0  0  0  0  0  0  0  0  0
    7.1405  -10.8742   25.6980 C   0  0  0  0  0  0  0  0  0  0  0  0
    7.5100  -11.8370   24.7833 C   0  0  0  0  0  0  0  0  0  0  0  0
    7.1050  -13.1547   24.8443 C   0  0  0  0  0  0  0  0  0  0  0  0
   10.0296  -15.7019   23.5408 C   0  0  0  0  0  0  0  0  0  0  0  0
   11.0039  -14.9331   23.6912 O   0  0  0  0  0  0  0  0  0  0  0  0
    9.9293  -16.8540   24.3512 N   0  0  0  0  0  0  0  0  0  0  0  0
   10.9533  -17.2060   25.3401 C   0  0  1  0  0  0  0  0  0  0  0  0
   10.4581  -18.3441   26.2091 C   0  0  0  0  0  0  0  0  0  0  0  0
   11.4633  -18.6214   27.2498 C   0  0  0  0  0  0  0  0  0  0  0  0
   12.5322  -17.9369   27.3503 O   0  0  0  0  0  0  0  0  0  0  0  0
   12.1513  -17.6713   24.6066 C   0  0  0  0  0  0  0  0  0  0  0  0
   12.1665  -18.6487   23.6439 O   0  0  0  0  0  0  0  0  0  0  0  0
   11.3341  -19.6464   28.2060 O   0  0  0  0  0  0  0  0  0  0  0  0
   13.2991  -17.1500   24.8553 O   0  0  0  0  0  0  0  0  0  0  0  0
  2  3  1  0
  2  1  1  0
  3  4  2  0
  5  6  1  0
  5  3  1  0
  6 17  1  0
  7  8  1  0
  6  7  1  1
  8 16  1  0
  9 10  1  0
  9  8  2  0
 10 11  1  0
 11 16  2  0
 11 12  1  0
 12 13  2  0
 13 14  1  0
 15 14  2  0
 16 15  1  0
 17 18  2  0
 17 19  1  0
 19 20  1  0
 20 24  1  0
 20 21  1  1
 22 21  1  0
 23 22  2  0
 24 27  2  0
 24 25  1  0
 26 22  1  0
M  END
$$$$
