GWD.pdb
     RDKit          3D

 27 28  0  0  1  0  0  0  0  0999 V2000
    7.3141  -18.6670   19.3875 N   0  0  0  0  0  0  0  0  0  0  0  0
    6.9274  -18.1134   20.6748 C   0  0  0  0  0  0  0  0  0  0  0  0
    8.0302  -17.3076   21.2635 C   0  0  0  0  0  0  0  0  0  0  0  0
    9.1657  -17.3916   20.6951 O   0  0  0  0  0  0  0  0  0  0  0  0
    7.9135  -16.4684   22.3891 N   0  0  0  0  0  0  0  0  0  0  0  0
    9.0520  -15.8431   22.9709 C   0  0  1  0  0  0  0  0  0  0  0  0
    8.7823  -14.5820   23.6983 C   0  0  0  0  0  0  0  0  0  0  0  0
    7.7436  -14.5988   24.7279 C   0  0  0  0  0  0  0  0  0  0  0  0
    6.9690  -15.6277   25.1836 C   0  0  0  0  0  0  0  0  0  0  0  0
    6.1365  -15.1691   26.1694 N   0  0  0  0  0  0  0  0  0  0  0  0
    6.3966  -13.8611   26.3218 C   0  0  0  0  0  0  0  0  0  0  0  0
    5.8545  -12.9105   27.1739 C   0  0  0  0  0  0  0  0  0  0  0  0
    6.2934  -11.5874   27.1538 C   0  0  0  0  0  0  0  0  0  0  0  0
    7.2740  -11.1987   26.2872 C   0  0  0  0  0  0  0  0  0  0  0  0
    7.7920  -12.1666   25.4535 C   0  0  0  0  0  0  0  0  0  0  0  0
    7.3786  -13.4832   25.4500 C   0  0  0  0  0  0  0  0  0  0  0  0
    9.8412  -16.7786   23.8232 C   0  0  0  0  0  0  0  0  0  0  0  0
    9.3231  -17.6818   24.5152 O   0  0  0  0  0  0  0  0  0  0  0  0
   11.2445  -16.6212   23.8345 N   0  0  0  0  0  0  0  0  0  0  0  0
   12.1508  -17.7116   24.2082 C   0  0  1  0  0  0  0  0  0  0  0  0
   13.1752  -17.9262   23.1126 C   0  0  0  0  0  0  0  0  0  0  0  0
   13.8976  -16.6633   22.8814 C   0  0  0  0  0  0  0  0  0  0  0  0
   13.3593  -15.6836   22.2717 O   0  0  0  0  0  0  0  0  0  0  0  0
   12.8668  -17.3052   25.4378 C   0  0  0  0  0  0  0  0  0  0  0  0
   12.7286  -16.1001   26.0790 O   0  0  0  0  0  0  0  0  0  0  0  0
   15.2199  -16.4319   23.3054 O   0  0  0  0  0  0  0  0  0  0  0  0
   13.7005  -18.1111   25.9914 O   0  0  0  0  0  0  0  0  0  0  0  0
  2  3  1  0
  2  1  1  0
  3  4  2  0
  5  6  1  0
  5  3  1  0
  6 17  1  0
  7  8  1  0
  6  7  1  1
  8 16  1  0
  9 10  1  0
  9  8  2  0
 10 11  1  0
 11 16  2  0
 11 12  1  0
 12 13  2  0
 13 14  1  0
 15 14  2  0
 16 15  1  0
 17 18  2  0
 17 19  1  0
 19 20  1  0
 20 24  1  0
 20 21  1  6
 22 21  1  0
 23 22  2  0
 24 27  2  0
 24 25  1  0
 26 22  1  0
M  END
$$$$
