TSM.pdb
     RDKit          3D

 22 21  0  0  1  0  0  0  0  0999 V2000
   10.1886  -13.5128   17.8194 C   0  0  0  0  0  0  0  0  0  0  0  0
   10.0524  -14.1287   19.1940 C   0  0  1  0  0  0  0  0  0  0  0  0
   10.6809  -13.3336   20.1446 O   0  0  0  0  0  0  0  0  0  0  0  0
    8.5747  -14.1887   19.6007 C   0  0  2  0  0  0  0  0  0  0  0  0
    8.1343  -12.8081   19.6962 N   0  0  0  0  0  0  0  0  0  0  0  0
    8.4962  -14.8847   20.9019 C   0  0  0  0  0  0  0  0  0  0  0  0
    8.2441  -14.1748   21.9196 O   0  0  0  0  0  0  0  0  0  0  0  0
    9.8555  -18.9164   21.5987 O   0  0  0  0  0  0  0  0  0  0  0  0
    8.7078  -18.4704   22.1940 C   0  0  0  0  0  0  0  0  0  0  0  0
    8.6063  -16.9783   22.3136 C   0  0  2  0  0  0  0  0  0  0  0  0
    8.6846  -16.2823   21.0686 N   0  0  0  0  0  0  0  0  0  0  0  0
    9.6633  -16.4591   23.2095 C   0  0  0  0  0  0  0  0  0  0  0  0
   10.7462  -15.9787   22.7901 O   0  0  0  0  0  0  0  0  0  0  0  0
    8.0836  -13.0045   28.1216 C   0  0  0  0  0  0  0  0  0  0  0  0
    9.7861  -13.3267   28.5455 S   0  0  0  0  0  0  0  0  0  0  0  0
   10.5831  -14.6465   27.6634 C   0  0  0  0  0  0  0  0  0  0  0  0
    9.8099  -15.0855   26.4729 C   0  0  0  0  0  0  0  0  0  0  0  0
   10.5170  -16.0130   25.5288 C   0  0  2  0  0  0  0  0  0  0  0  0
    9.4549  -16.5007   24.6117 N   0  0  0  0  0  0  0  0  0  0  0  0
   11.0733  -17.2008   26.2376 C   0  0  0  0  0  0  0  0  0  0  0  0
   12.1921  -17.1778   26.7537 O   0  0  0  0  0  0  0  0  0  0  0  0
   10.3027  -18.3456   26.3076 O   0  0  0  0  0  0  0  0  0  0  0  0
  2  1  1  6
  2  4  1  0
  3  2  1  0
  4  5  1  1
  6  4  1  0
  6 11  1  0
  7  6  2  0
  9  8  1  0
 10  9  1  6
 10 12  1  0
 11 10  1  0
 12 13  2  0
 12 19  1  0
 15 14  1  0
 16 15  1  0
 17 16  1  0
 18 17  1  1
 19 18  1  0
 20 18  1  0
 20 22  1  0
 21 20  2  0
M  END
$$$$
