TSM.pdb
     RDKit          3D

 22 21  0  0  1  0  0  0  0  0999 V2000
    9.3826  -12.5796   19.7714 C   0  0  0  0  0  0  0  0  0  0  0  0
    8.4402  -13.1220   18.7201 C   0  0  1  0  0  0  0  0  0  0  0  0
    8.6674  -12.4987   17.4990 O   0  0  0  0  0  0  0  0  0  0  0  0
    8.7088  -14.6147   18.4911 C   0  0  2  0  0  0  0  0  0  0  0  0
    7.8041  -15.0213   17.4304 N   0  0  0  0  0  0  0  0  0  0  0  0
    8.4263  -15.3201   19.7585 C   0  0  0  0  0  0  0  0  0  0  0  0
    7.3092  -15.0898   20.3084 O   0  0  0  0  0  0  0  0  0  0  0  0
   11.3238  -17.7920   21.8833 O   0  0  0  0  0  0  0  0  0  0  0  0
    9.9809  -18.0509   21.8966 C   0  0  0  0  0  0  0  0  0  0  0  0
    9.1122  -16.8532   21.6472 C   0  0  2  0  0  0  0  0  0  0  0  0
    9.3246  -16.2266   20.3812 N   0  0  0  0  0  0  0  0  0  0  0  0
    9.3082  -15.8429   22.7103 C   0  0  0  0  0  0  0  0  0  0  0  0
   10.0939  -14.8687   22.5975 O   0  0  0  0  0  0  0  0  0  0  0  0
    5.8733  -10.8935   27.2950 C   0  0  0  0  0  0  0  0  0  0  0  0
    5.9747  -12.2512   26.1425 S   0  0  0  0  0  0  0  0  0  0  0  0
    7.4024  -13.2990   26.2803 C   0  0  0  0  0  0  0  0  0  0  0  0
    7.4821  -14.3013   25.1864 C   0  0  0  0  0  0  0  0  0  0  0  0
    8.8012  -14.9969   25.0199 C   0  0  2  0  0  0  0  0  0  0  0  0
    8.5790  -15.9705   23.9200 N   0  0  0  0  0  0  0  0  0  0  0  0
    9.1701  -15.7758   26.2364 C   0  0  0  0  0  0  0  0  0  0  0  0
    9.5004  -15.2171   27.2839 O   0  0  0  0  0  0  0  0  0  0  0  0
    9.1353  -17.1556   26.1697 O   0  0  0  0  0  0  0  0  0  0  0  0
  2  1  1  1
  2  4  1  0
  3  2  1  0
  4  5  1  6
  6  4  1  0
  6 11  1  0
  7  6  2  0
  9  8  1  0
 10  9  1  1
 10 12  1  0
 11 10  1  0
 12 13  2  0
 12 19  1  0
 15 14  1  0
 16 15  1  0
 17 16  1  0
 18 17  1  1
 19 18  1  0
 20 18  1  0
 20 22  1  0
 21 20  2  0
M  END
$$$$
