TSM.pdb
     RDKit          3D

 22 21  0  0  1  0  0  0  0  0999 V2000
   10.3675  -13.7222   17.1130 C   0  0  0  0  0  0  0  0  0  0  0  0
    9.9224  -14.1691   18.4877 C   0  0  1  0  0  0  0  0  0  0  0  0
   10.4997  -13.3694   19.4666 O   0  0  0  0  0  0  0  0  0  0  0  0
    8.4060  -13.9916   18.6344 C   0  0  2  0  0  0  0  0  0  0  0  0
    8.1621  -12.5643   18.5237 N   0  0  0  0  0  0  0  0  0  0  0  0
    8.0198  -14.5167   19.9606 C   0  0  0  0  0  0  0  0  0  0  0  0
    7.7591  -13.6667   20.8621 O   0  0  0  0  0  0  0  0  0  0  0  0
    8.8355  -18.4904   21.5338 O   0  0  0  0  0  0  0  0  0  0  0  0
    7.5916  -17.9290   21.6218 C   0  0  0  0  0  0  0  0  0  0  0  0
    7.5771  -16.4304   21.5512 C   0  0  2  0  0  0  0  0  0  0  0  0
    7.9268  -15.8990   20.2722 N   0  0  0  0  0  0  0  0  0  0  0  0
    8.4906  -15.8569   22.5641 C   0  0  0  0  0  0  0  0  0  0  0  0
    9.3387  -14.9677   22.3010 O   0  0  0  0  0  0  0  0  0  0  0  0
    6.4135  -11.1503   27.6123 C   0  0  0  0  0  0  0  0  0  0  0  0
    6.4197  -12.3470   26.2896 S   0  0  0  0  0  0  0  0  0  0  0  0
    7.7808  -13.4880   26.2637 C   0  0  0  0  0  0  0  0  0  0  0  0
    7.7443  -14.3927   25.0855 C   0  0  0  0  0  0  0  0  0  0  0  0
    8.8206  -15.4361   25.0178 C   0  0  2  0  0  0  0  0  0  0  0  0
    8.4142  -16.3264   23.9001 N   0  0  0  0  0  0  0  0  0  0  0  0
    8.8613  -16.2658   26.2558 C   0  0  0  0  0  0  0  0  0  0  0  0
    8.1562  -17.2683   26.3833 O   0  0  0  0  0  0  0  0  0  0  0  0
    9.7154  -15.8870   27.2739 O   0  0  0  0  0  0  0  0  0  0  0  0
  2  1  1  6
  2  4  1  0
  3  2  1  0
  4  5  1  1
  6  4  1  0
  6 11  1  0
  7  6  2  0
  9  8  1  0
 10  9  1  6
 10 12  1  0
 11 10  1  0
 12 13  2  0
 12 19  1  0
 15 14  1  0
 16 15  1  0
 17 16  1  0
 18 17  1  1
 19 18  1  0
 20 18  1  0
 20 22  1  0
 21 20  2  0
M  END
$$$$
