TSM.pdb
     RDKit          3D

 22 21  0  0  1  0  0  0  0  0999 V2000
   10.9894  -13.8865   17.3174 C   0  0  0  0  0  0  0  0  0  0  0  0
   10.3117  -14.2463   18.6208 C   0  0  1  0  0  0  0  0  0  0  0  0
   10.5299  -13.2543   19.5692 O   0  0  0  0  0  0  0  0  0  0  0  0
    8.7923  -14.3174   18.4229 C   0  0  2  0  0  0  0  0  0  0  0  0
    8.3741  -12.9689   18.0830 N   0  0  0  0  0  0  0  0  0  0  0  0
    8.1960  -14.7765   19.6947 C   0  0  0  0  0  0  0  0  0  0  0  0
    7.6961  -13.8905   20.4485 O   0  0  0  0  0  0  0  0  0  0  0  0
    8.9479  -18.5924   21.5659 O   0  0  0  0  0  0  0  0  0  0  0  0
    7.6778  -18.0865   21.5288 C   0  0  0  0  0  0  0  0  0  0  0  0
    7.6038  -16.5996   21.3420 C   0  0  2  0  0  0  0  0  0  0  0  0
    8.1542  -16.1342   20.1087 N   0  0  0  0  0  0  0  0  0  0  0  0
    8.2889  -15.9048   22.4543 C   0  0  0  0  0  0  0  0  0  0  0  0
    9.4950  -15.5547   22.4082 O   0  0  0  0  0  0  0  0  0  0  0  0
    6.4321  -11.0829   28.4158 C   0  0  0  0  0  0  0  0  0  0  0  0
    6.0983  -12.1514   27.0269 S   0  0  0  0  0  0  0  0  0  0  0  0
    7.4141  -13.2372   26.5319 C   0  0  0  0  0  0  0  0  0  0  0  0
    7.0870  -14.0066   25.3036 C   0  0  0  0  0  0  0  0  0  0  0  0
    8.1983  -14.8307   24.7226 C   0  0  2  0  0  0  0  0  0  0  0  0
    7.5585  -15.6147   23.6348 N   0  0  0  0  0  0  0  0  0  0  0  0
    8.7384  -15.8039   25.7145 C   0  0  0  0  0  0  0  0  0  0  0  0
    8.3872  -16.9850   25.7156 O   0  0  0  0  0  0  0  0  0  0  0  0
    9.6531  -15.3534   26.6472 O   0  0  0  0  0  0  0  0  0  0  0  0
  2  1  1  6
  2  4  1  0
  3  2  1  0
  4  5  1  1
  6  4  1  0
  6 11  1  0
  7  6  2  0
  9  8  1  0
 10  9  1  1
 10 12  1  0
 11 10  1  0
 12 13  2  0
 12 19  1  0
 15 14  1  0
 16 15  1  0
 17 16  1  0
 18 17  1  1
 19 18  1  0
 20 18  1  0
 20 22  1  0
 21 20  2  0
M  END
$$$$
