TSM.pdb
     RDKit          3D

 22 21  0  0  1  0  0  0  0  0999 V2000
    7.7927  -12.3310   17.9914 C   0  0  0  0  0  0  0  0  0  0  0  0
    7.5947  -13.3953   19.0477 C   0  0  1  0  0  0  0  0  0  0  0  0
    7.4597  -14.6452   18.4555 O   0  0  0  0  0  0  0  0  0  0  0  0
    8.8345  -13.4831   19.9464 C   0  0  2  0  0  0  0  0  0  0  0  0
    9.8984  -13.9994   19.1035 N   0  0  0  0  0  0  0  0  0  0  0  0
    8.5167  -14.4017   21.0595 C   0  0  0  0  0  0  0  0  0  0  0  0
    7.6585  -14.0079   21.9030 O   0  0  0  0  0  0  0  0  0  0  0  0
   10.6996  -18.0213   21.8332 O   0  0  0  0  0  0  0  0  0  0  0  0
    9.3562  -17.9742   22.0849 C   0  0  0  0  0  0  0  0  0  0  0  0
    8.8072  -16.5924   22.2860 C   0  0  2  0  0  0  0  0  0  0  0  0
    9.1116  -15.6798   21.2301 N   0  0  0  0  0  0  0  0  0  0  0  0
    9.3012  -16.0208   23.5582 C   0  0  0  0  0  0  0  0  0  0  0  0
   10.3659  -15.3592   23.6479 O   0  0  0  0  0  0  0  0  0  0  0  0
    6.3922  -10.9227   26.4694 C   0  0  0  0  0  0  0  0  0  0  0  0
    6.5151  -12.6592   26.8583 S   0  0  0  0  0  0  0  0  0  0  0  0
    7.9186  -13.5202   26.1919 C   0  0  0  0  0  0  0  0  0  0  0  0
    7.9874  -14.9342   26.6433 C   0  0  0  0  0  0  0  0  0  0  0  0
    9.0839  -15.7672   26.0473 C   0  0  2  0  0  0  0  0  0  0  0  0
    8.5444  -16.2231   24.7403 N   0  0  0  0  0  0  0  0  0  0  0  0
    9.3574  -16.9836   26.8648 C   0  0  0  0  0  0  0  0  0  0  0  0
    8.9561  -18.0962   26.5191 O   0  0  0  0  0  0  0  0  0  0  0  0
   10.0792  -16.8414   28.0346 O   0  0  0  0  0  0  0  0  0  0  0  0
  2  1  1  6
  2  4  1  0
  3  2  1  0
  4  5  1  6
  6  4  1  0
  6 11  1  0
  7  6  2  0
  9  8  1  0
 10  9  1  6
 10 12  1  0
 11 10  1  0
 12 13  2  0
 12 19  1  0
 15 14  1  0
 16 15  1  0
 17 16  1  0
 18 17  1  1
 19 18  1  0
 20 18  1  0
 20 22  1  0
 21 20  2  0
M  END
$$$$
