TSM.pdb
     RDKit          3D

 22 21  0  0  1  0  0  0  0  0999 V2000
   11.0979  -14.2119   20.0544 C   0  0  0  0  0  0  0  0  0  0  0  0
   10.1792  -13.3790   19.1884 C   0  0  1  0  0  0  0  0  0  0  0  0
   10.8583  -12.9175   18.0673 O   0  0  0  0  0  0  0  0  0  0  0  0
    9.0262  -14.2419   18.6609 C   0  0  2  0  0  0  0  0  0  0  0  0
    8.1445  -13.3327   17.9503 N   0  0  0  0  0  0  0  0  0  0  0  0
    8.3596  -14.8597   19.8262 C   0  0  0  0  0  0  0  0  0  0  0  0
    7.6735  -14.0964   20.5677 O   0  0  0  0  0  0  0  0  0  0  0  0
    9.3559  -18.7840   21.3547 O   0  0  0  0  0  0  0  0  0  0  0  0
    8.0675  -18.3272   21.3981 C   0  0  0  0  0  0  0  0  0  0  0  0
    7.9331  -16.8337   21.3458 C   0  0  2  0  0  0  0  0  0  0  0  0
    8.4457  -16.2390   20.1525 N   0  0  0  0  0  0  0  0  0  0  0  0
    8.6081  -16.2136   22.5073 C   0  0  0  0  0  0  0  0  0  0  0  0
    9.7888  -15.7847   22.4688 O   0  0  0  0  0  0  0  0  0  0  0  0
    6.7140  -11.0309   27.9285 C   0  0  0  0  0  0  0  0  0  0  0  0
    6.4545  -12.1722   26.5824 S   0  0  0  0  0  0  0  0  0  0  0  0
    7.7196  -13.3927   26.3272 C   0  0  0  0  0  0  0  0  0  0  0  0
    7.4596  -14.2434   25.1370 C   0  0  0  0  0  0  0  0  0  0  0  0
    8.4807  -15.3033   24.8445 C   0  0  2  0  0  0  0  0  0  0  0  0
    7.8977  -16.0922   23.7287 N   0  0  0  0  0  0  0  0  0  0  0  0
    8.6589  -16.2296   25.9991 C   0  0  0  0  0  0  0  0  0  0  0  0
    8.0785  -17.3154   26.0498 O   0  0  0  0  0  0  0  0  0  0  0  0
    9.4979  -15.8451   27.0275 O   0  0  0  0  0  0  0  0  0  0  0  0
  2  1  1  1
  2  4  1  0
  3  2  1  0
  4  5  1  1
  6  4  1  0
  6 11  1  0
  7  6  2  0
  9  8  1  0
 10  9  1  6
 10 12  1  0
 11 10  1  0
 12 13  2  0
 12 19  1  0
 15 14  1  0
 16 15  1  0
 17 16  1  0
 18 17  1  1
 19 18  1  0
 20 18  1  0
 20 22  1  0
 21 20  2  0
M  END
$$$$
