TSM.pdb
     RDKit          3D

 22 21  0  0  1  0  0  0  0  0999 V2000
   12.6389  -19.9094   20.2282 C   0  0  0  0  0  0  0  0  0  0  0  0
   11.8570  -18.7910   20.8804 C   0  0  1  0  0  0  0  0  0  0  0  0
   12.7092  -17.9579   21.5951 O   0  0  0  0  0  0  0  0  0  0  0  0
   11.2030  -17.9102   19.8084 C   0  0  2  0  0  0  0  0  0  0  0  0
   12.2966  -17.2495   19.1181 N   0  0  0  0  0  0  0  0  0  0  0  0
   10.3218  -16.9450   20.4981 C   0  0  0  0  0  0  0  0  0  0  0  0
   10.8456  -15.8556   20.8750 O   0  0  0  0  0  0  0  0  0  0  0  0
    6.2117  -17.7471   21.6739 O   0  0  0  0  0  0  0  0  0  0  0  0
    6.5990  -16.5410   21.1583 C   0  0  0  0  0  0  0  0  0  0  0  0
    8.0530  -16.2210   21.3444 C   0  0  2  0  0  0  0  0  0  0  0  0
    8.9436  -17.1701   20.7556 N   0  0  0  0  0  0  0  0  0  0  0  0
    8.3757  -16.1038   22.7837 C   0  0  0  0  0  0  0  0  0  0  0  0
    9.1770  -16.8711   23.3740 O   0  0  0  0  0  0  0  0  0  0  0  0
    6.7241  -10.6293   26.2161 C   0  0  0  0  0  0  0  0  0  0  0  0
    6.4285  -11.9914   27.3293 S   0  0  0  0  0  0  0  0  0  0  0  0
    7.2129  -13.5313   26.9186 C   0  0  0  0  0  0  0  0  0  0  0  0
    7.2308  -13.7899   25.4555 C   0  0  0  0  0  0  0  0  0  0  0  0
    8.0148  -14.9870   25.0039 C   0  0  2  0  0  0  0  0  0  0  0  0
    7.7563  -15.0793   23.5438 N   0  0  0  0  0  0  0  0  0  0  0  0
    7.5081  -16.2435   25.6261 C   0  0  0  0  0  0  0  0  0  0  0  0
    7.9445  -16.6503   26.7043 O   0  0  0  0  0  0  0  0  0  0  0  0
    6.5261  -16.9558   24.9644 O   0  0  0  0  0  0  0  0  0  0  0  0
  2  1  1  6
  2  4  1  0
  3  2  1  0
  4  5  1  1
  6  4  1  0
  6 11  1  0
  7  6  2  0
  9  8  1  0
 10  9  1  1
 10 12  1  0
 11 10  1  0
 12 13  2  0
 12 19  1  0
 15 14  1  0
 16 15  1  0
 17 16  1  0
 18 17  1  1
 19 18  1  0
 20 18  1  0
 20 22  1  0
 21 20  2  0
M  END
$$$$
