TSM.pdb
     RDKit          3D

 22 21  0  0  1  0  0  0  0  0999 V2000
    6.2162  -18.1190   25.2106 C   0  0  0  0  0  0  0  0  0  0  0  0
    6.6898  -19.3968   24.5545 C   0  0  1  0  0  0  0  0  0  0  0  0
    5.7497  -20.4057   24.7261 O   0  0  0  0  0  0  0  0  0  0  0  0
    6.8229  -19.1939   23.0400 C   0  0  2  0  0  0  0  0  0  0  0  0
    6.9565  -20.5241   22.4728 N   0  0  0  0  0  0  0  0  0  0  0  0
    8.0258  -18.3690   22.8027 C   0  0  0  0  0  0  0  0  0  0  0  0
    9.1462  -18.8968   23.0657 O   0  0  0  0  0  0  0  0  0  0  0  0
    8.3581  -15.6621   19.9045 O   0  0  0  0  0  0  0  0  0  0  0  0
    8.9965  -15.1959   21.0205 C   0  0  0  0  0  0  0  0  0  0  0  0
    9.1352  -16.2014   22.1256 C   0  0  2  0  0  0  0  0  0  0  0  0
    7.9926  -17.0398   22.3040 N   0  0  0  0  0  0  0  0  0  0  0  0
    9.4248  -15.5224   23.4079 C   0  0  0  0  0  0  0  0  0  0  0  0
    9.5443  -14.2760   23.5151 O   0  0  0  0  0  0  0  0  0  0  0  0
    6.4503  -11.3486   25.9036 C   0  0  0  0  0  0  0  0  0  0  0  0
    6.9245  -12.7938   26.8354 S   0  0  0  0  0  0  0  0  0  0  0  0
    8.5119  -13.4935   26.4539 C   0  0  0  0  0  0  0  0  0  0  0  0
    8.4354  -14.9437   26.1393 C   0  0  0  0  0  0  0  0  0  0  0  0
    9.7428  -15.6388   25.8964 C   0  0  2  0  0  0  0  0  0  0  0  0
    9.5769  -16.3066   24.5797 N   0  0  0  0  0  0  0  0  0  0  0  0
    9.9957  -16.7048   26.9076 C   0  0  0  0  0  0  0  0  0  0  0  0
    9.6223  -17.8653   26.7279 O   0  0  0  0  0  0  0  0  0  0  0  0
   10.6655  -16.3655   28.0676 O   0  0  0  0  0  0  0  0  0  0  0  0
  2  1  1  1
  2  4  1  0
  3  2  1  0
  4  5  1  6
  6  4  1  0
  6 11  1  0
  7  6  2  0
  9  8  1  0
 10  9  1  6
 10 12  1  0
 11 10  1  0
 12 13  2  0
 12 19  1  0
 15 14  1  0
 16 15  1  0
 17 16  1  0
 18 17  1  1
 19 18  1  0
 20 18  1  0
 20 22  1  0
 21 20  2  0
M  END
$$$$
