TSM.pdb
     RDKit          3D

 22 21  0  0  1  0  0  0  0  0999 V2000
   11.0563  -13.9027   17.1756 C   0  0  0  0  0  0  0  0  0  0  0  0
   10.3622  -14.2203   18.4813 C   0  0  1  0  0  0  0  0  0  0  0  0
   10.5856  -13.2079   19.4065 O   0  0  0  0  0  0  0  0  0  0  0  0
    8.8438  -14.2759   18.2712 C   0  0  2  0  0  0  0  0  0  0  0  0
    8.4480  -12.9321   17.8884 N   0  0  0  0  0  0  0  0  0  0  0  0
    8.2296  -14.6893   19.5501 C   0  0  0  0  0  0  0  0  0  0  0  0
    7.7893  -13.7694   20.3005 O   0  0  0  0  0  0  0  0  0  0  0  0
    8.7032  -18.5493   21.4462 O   0  0  0  0  0  0  0  0  0  0  0  0
    7.4744  -17.9519   21.3863 C   0  0  0  0  0  0  0  0  0  0  0  0
    7.5127  -16.4635   21.2012 C   0  0  2  0  0  0  0  0  0  0  0  0
    8.1086  -16.0390   19.9744 N   0  0  0  0  0  0  0  0  0  0  0  0
    8.2361  -15.8224   22.3215 C   0  0  0  0  0  0  0  0  0  0  0  0
    9.4363  -15.4574   22.2465 O   0  0  0  0  0  0  0  0  0  0  0  0
    6.3995  -11.0298   28.2712 C   0  0  0  0  0  0  0  0  0  0  0  0
    6.0502  -12.2071   26.9774 S   0  0  0  0  0  0  0  0  0  0  0  0
    7.4243  -13.1694   26.3936 C   0  0  0  0  0  0  0  0  0  0  0  0
    7.0938  -13.9562   25.1772 C   0  0  0  0  0  0  0  0  0  0  0  0
    8.1971  -14.8052   24.6173 C   0  0  2  0  0  0  0  0  0  0  0  0
    7.5516  -15.6046   23.5443 N   0  0  0  0  0  0  0  0  0  0  0  0
    8.7229  -15.7634   25.6314 C   0  0  0  0  0  0  0  0  0  0  0  0
    9.4375  -15.3886   26.5626 O   0  0  0  0  0  0  0  0  0  0  0  0
    8.3911  -17.0991   25.5084 O   0  0  0  0  0  0  0  0  0  0  0  0
  2  1  1  6
  2  4  1  0
  3  2  1  0
  4  5  1  1
  6  4  1  0
  6 11  1  0
  7  6  2  0
  9  8  1  0
 10  9  1  1
 10 12  1  0
 11 10  1  0
 12 13  2  0
 12 19  1  0
 15 14  1  0
 16 15  1  0
 17 16  1  0
 18 17  1  1
 19 18  1  0
 20 18  1  0
 20 22  1  0
 21 20  2  0
M  END
$$$$
