TSM.pdb
     RDKit          3D

 22 21  0  0  1  0  0  0  0  0999 V2000
   11.2109  -14.0113   20.1578 C   0  0  0  0  0  0  0  0  0  0  0  0
   10.1280  -13.1890   19.4954 C   0  0  1  0  0  0  0  0  0  0  0  0
   10.6159  -12.5859   18.3424 O   0  0  0  0  0  0  0  0  0  0  0  0
    8.9774  -14.0976   19.0448 C   0  0  2  0  0  0  0  0  0  0  0  0
    7.9531  -13.2098   18.5235 N   0  0  0  0  0  0  0  0  0  0  0  0
    8.5083  -14.8469   20.2289 C   0  0  0  0  0  0  0  0  0  0  0  0
    7.7834  -14.2198   21.0562 O   0  0  0  0  0  0  0  0  0  0  0  0
    9.8802  -18.8469   21.2914 O   0  0  0  0  0  0  0  0  0  0  0  0
    8.6113  -18.4122   21.5579 C   0  0  0  0  0  0  0  0  0  0  0  0
    8.4731  -16.9224   21.6708 C   0  0  2  0  0  0  0  0  0  0  0  0
    8.8213  -16.2084   20.4836 N   0  0  0  0  0  0  0  0  0  0  0  0
    9.2991  -16.4104   22.7865 C   0  0  0  0  0  0  0  0  0  0  0  0
   10.4506  -15.9329   22.6275 O   0  0  0  0  0  0  0  0  0  0  0  0
   10.8575  -12.7064   28.5932 C   0  0  0  0  0  0  0  0  0  0  0  0
    9.3697  -13.2916   27.8023 S   0  0  0  0  0  0  0  0  0  0  0  0
    9.2493  -15.0452   27.5455 C   0  0  0  0  0  0  0  0  0  0  0  0
    8.6894  -15.3894   26.2130 C   0  0  0  0  0  0  0  0  0  0  0  0
    9.6304  -16.0518   25.2500 C   0  0  2  0  0  0  0  0  0  0  0  0
    8.7759  -16.4559   24.1039 N   0  0  0  0  0  0  0  0  0  0  0  0
   10.2215  -17.2941   25.8244 C   0  0  0  0  0  0  0  0  0  0  0  0
    9.7325  -18.4031   25.6020 O   0  0  0  0  0  0  0  0  0  0  0  0
   11.3437  -17.1805   26.6227 O   0  0  0  0  0  0  0  0  0  0  0  0
  2  1  1  6
  2  4  1  0
  3  2  1  0
  4  5  1  1
  6  4  1  0
  6 11  1  0
  7  6  2  0
  9  8  1  0
 10  9  1  6
 10 12  1  0
 11 10  1  0
 12 13  2  0
 12 19  1  0
 15 14  1  0
 16 15  1  0
 17 16  1  0
 18 17  1  1
 19 18  1  0
 20 18  1  0
 20 22  1  0
 21 20  2  0
M  END
$$$$
