TSM.pdb
     RDKit          3D

 22 21  0  0  1  0  0  0  0  0999 V2000
   11.0041  -14.0079   17.2821 C   0  0  0  0  0  0  0  0  0  0  0  0
   10.3508  -14.3607   18.5998 C   0  0  1  0  0  0  0  0  0  0  0  0
   10.6940  -13.4310   19.5739 O   0  0  0  0  0  0  0  0  0  0  0  0
    8.8243  -14.2919   18.4664 C   0  0  2  0  0  0  0  0  0  0  0  0
    8.5148  -12.9031   18.1759 N   0  0  0  0  0  0  0  0  0  0  0  0
    8.2422  -14.7302   19.7520 C   0  0  0  0  0  0  0  0  0  0  0  0
    7.8084  -13.8261   20.5249 O   0  0  0  0  0  0  0  0  0  0  0  0
    8.8867  -18.5462   21.6747 O   0  0  0  0  0  0  0  0  0  0  0  0
    7.6263  -18.0225   21.5876 C   0  0  0  0  0  0  0  0  0  0  0  0
    7.5807  -16.5355   21.3925 C   0  0  2  0  0  0  0  0  0  0  0  0
    8.1449  -16.0871   20.1591 N   0  0  0  0  0  0  0  0  0  0  0  0
    8.2739  -15.8475   22.5040 C   0  0  0  0  0  0  0  0  0  0  0  0
    9.4253  -15.3554   22.3973 O   0  0  0  0  0  0  0  0  0  0  0  0
    6.3728  -10.6600   27.9056 C   0  0  0  0  0  0  0  0  0  0  0  0
    6.0270  -12.0136   26.7965 S   0  0  0  0  0  0  0  0  0  0  0  0
    7.3943  -13.0737   26.3942 C   0  0  0  0  0  0  0  0  0  0  0  0
    7.1064  -13.9622   25.2385 C   0  0  0  0  0  0  0  0  0  0  0  0
    8.2110  -14.8896   24.8246 C   0  0  2  0  0  0  0  0  0  0  0  0
    7.6164  -15.7321   23.7552 N   0  0  0  0  0  0  0  0  0  0  0  0
    8.6121  -15.7985   25.9363 C   0  0  0  0  0  0  0  0  0  0  0  0
    8.1226  -16.9228   26.0580 O   0  0  0  0  0  0  0  0  0  0  0  0
    9.5560  -15.3533   26.8420 O   0  0  0  0  0  0  0  0  0  0  0  0
  2  1  1  6
  2  4  1  0
  3  2  1  0
  4  5  1  1
  6  4  1  0
  6 11  1  0
  7  6  2  0
  9  8  1  0
 10  9  1  1
 10 12  1  0
 11 10  1  0
 12 13  2  0
 12 19  1  0
 15 14  1  0
 16 15  1  0
 17 16  1  0
 18 17  1  1
 19 18  1  0
 20 18  1  0
 20 22  1  0
 21 20  2  0
M  END
$$$$
