TSM.pdb
     RDKit          3D

 22 21  0  0  1  0  0  0  0  0999 V2000
   10.8415  -13.7649   17.1900 C   0  0  0  0  0  0  0  0  0  0  0  0
   10.2866  -14.1846   18.5329 C   0  0  1  0  0  0  0  0  0  0  0  0
   10.6522  -13.2711   19.5142 O   0  0  0  0  0  0  0  0  0  0  0  0
    8.7532  -14.1765   18.4956 C   0  0  2  0  0  0  0  0  0  0  0  0
    8.3702  -12.7931   18.2754 N   0  0  0  0  0  0  0  0  0  0  0  0
    8.2709  -14.6826   19.7975 C   0  0  0  0  0  0  0  0  0  0  0  0
    7.8616  -13.8234   20.6327 O   0  0  0  0  0  0  0  0  0  0  0  0
    7.3451  -18.5676   22.6874 O   0  0  0  0  0  0  0  0  0  0  0  0
    7.7687  -18.0719   21.4853 C   0  0  0  0  0  0  0  0  0  0  0  0
    7.6789  -16.5795   21.3593 C   0  0  2  0  0  0  0  0  0  0  0  0
    8.2421  -16.0565   20.1552 N   0  0  0  0  0  0  0  0  0  0  0  0
    8.3383  -15.9237   22.5101 C   0  0  0  0  0  0  0  0  0  0  0  0
    9.5667  -15.6603   22.5410 O   0  0  0  0  0  0  0  0  0  0  0  0
    6.2474  -11.1268   28.4572 C   0  0  0  0  0  0  0  0  0  0  0  0
    5.9663  -12.1897   27.0526 S   0  0  0  0  0  0  0  0  0  0  0  0
    7.3508  -13.1595   26.5067 C   0  0  0  0  0  0  0  0  0  0  0  0
    7.0425  -13.9623   25.2950 C   0  0  0  0  0  0  0  0  0  0  0  0
    8.1673  -14.7883   24.7436 C   0  0  2  0  0  0  0  0  0  0  0  0
    7.5556  -15.5707   23.6388 N   0  0  0  0  0  0  0  0  0  0  0  0
    8.6789  -15.7628   25.7493 C   0  0  0  0  0  0  0  0  0  0  0  0
    8.3220  -16.9423   25.7434 O   0  0  0  0  0  0  0  0  0  0  0  0
    9.5732  -15.3156   26.7030 O   0  0  0  0  0  0  0  0  0  0  0  0
  2  1  1  6
  2  4  1  0
  3  2  1  0
  4  5  1  1
  6  4  1  0
  6 11  1  0
  7  6  2  0
  9  8  1  0
 10  9  1  1
 10 12  1  0
 11 10  1  0
 12 13  2  0
 12 19  1  0
 15 14  1  0
 16 15  1  0
 17 16  1  0
 18 17  1  1
 19 18  1  0
 20 18  1  0
 20 22  1  0
 21 20  2  0
M  END
$$$$
