TSM.pdb
     RDKit          3D

 22 21  0  0  1  0  0  0  0  0999 V2000
   10.7536  -14.0494   17.3711 C   0  0  0  0  0  0  0  0  0  0  0  0
   10.0903  -14.2302   18.7183 C   0  0  1  0  0  0  0  0  0  0  0  0
   10.4933  -13.2292   19.5939 O   0  0  0  0  0  0  0  0  0  0  0  0
    8.5694  -14.0866   18.5806 C   0  0  2  0  0  0  0  0  0  0  0  0
    8.3357  -12.7064   18.1943 N   0  0  0  0  0  0  0  0  0  0  0  0
    7.9691  -14.4019   19.8936 C   0  0  0  0  0  0  0  0  0  0  0  0
    7.7020  -13.4249   20.6534 O   0  0  0  0  0  0  0  0  0  0  0  0
    7.7121  -18.3853   21.6089 O   0  0  0  0  0  0  0  0  0  0  0  0
    6.6918  -17.4842   21.7403 C   0  0  0  0  0  0  0  0  0  0  0  0
    7.1063  -16.0485   21.6060 C   0  0  2  0  0  0  0  0  0  0  0  0
    7.6806  -15.7186   20.3404 N   0  0  0  0  0  0  0  0  0  0  0  0
    8.0713  -15.6882   22.6682 C   0  0  0  0  0  0  0  0  0  0  0  0
    9.3124  -15.6293   22.4793 O   0  0  0  0  0  0  0  0  0  0  0  0
    6.5610  -10.9252   27.6774 C   0  0  0  0  0  0  0  0  0  0  0  0
    5.9683  -12.2634   26.6577 S   0  0  0  0  0  0  0  0  0  0  0  0
    7.1396  -12.9723   25.5260 C   0  0  0  0  0  0  0  0  0  0  0  0
    7.7208  -14.2440   26.0290 C   0  0  0  0  0  0  0  0  0  0  0  0
    8.5365  -15.0333   25.0476 C   0  0  2  0  0  0  0  0  0  0  0  0
    7.5832  -15.3932   23.9666 N   0  0  0  0  0  0  0  0  0  0  0  0
    9.0348  -16.3058   25.6437 C   0  0  0  0  0  0  0  0  0  0  0  0
    8.4934  -17.3861   25.4022 O   0  0  0  0  0  0  0  0  0  0  0  0
   10.1303  -16.2538   26.4844 O   0  0  0  0  0  0  0  0  0  0  0  0
  2  1  1  6
  2  4  1  0
  3  2  1  0
  4  5  1  1
  6  4  1  0
  6 11  1  0
  7  6  2  0
  9  8  1  0
 10  9  1  6
 10 12  1  0
 11 10  1  0
 12 13  2  0
 12 19  1  0
 15 14  1  0
 16 15  1  0
 17 16  1  0
 18 17  1  1
 19 18  1  0
 20 18  1  0
 20 22  1  0
 21 20  2  0
M  END
$$$$
