TSM.pdb
     RDKit          3D

 22 21  0  0  1  0  0  0  0  0999 V2000
    9.9059  -14.1985   17.1516 C   0  0  0  0  0  0  0  0  0  0  0  0
    9.5744  -14.4784   18.6005 C   0  0  1  0  0  0  0  0  0  0  0  0
   10.4400  -13.7846   19.4374 O   0  0  0  0  0  0  0  0  0  0  0  0
    8.1662  -13.9662   18.9276 C   0  0  2  0  0  0  0  0  0  0  0  0
    8.2285  -12.5219   18.7892 N   0  0  0  0  0  0  0  0  0  0  0  0
    7.8511  -14.3752   20.3122 C   0  0  0  0  0  0  0  0  0  0  0  0
    7.9098  -13.4786   21.2042 O   0  0  0  0  0  0  0  0  0  0  0  0
    7.5619  -18.4191   21.9605 O   0  0  0  0  0  0  0  0  0  0  0  0
    6.5464  -17.5084   22.0590 C   0  0  0  0  0  0  0  0  0  0  0  0
    6.9824  -16.0756   21.9681 C   0  0  2  0  0  0  0  0  0  0  0  0
    7.4922  -15.6966   20.6887 N   0  0  0  0  0  0  0  0  0  0  0  0
    8.0123  -15.7836   22.9896 C   0  0  0  0  0  0  0  0  0  0  0  0
    9.2445  -15.7788   22.7428 O   0  0  0  0  0  0  0  0  0  0  0  0
    5.8539  -10.5036   26.6212 C   0  0  0  0  0  0  0  0  0  0  0  0
    6.4436  -12.1233   27.0800 S   0  0  0  0  0  0  0  0  0  0  0  0
    7.4197  -12.9805   25.8685 C   0  0  0  0  0  0  0  0  0  0  0  0
    7.8795  -14.3110   26.3442 C   0  0  0  0  0  0  0  0  0  0  0  0
    8.6160  -15.1537   25.3446 C   0  0  2  0  0  0  0  0  0  0  0  0
    7.6001  -15.4937   24.3153 N   0  0  0  0  0  0  0  0  0  0  0  0
    9.0872  -16.4343   25.9451 C   0  0  0  0  0  0  0  0  0  0  0  0
    8.4944  -17.4961   25.7462 O   0  0  0  0  0  0  0  0  0  0  0  0
   10.2168  -16.4114   26.7408 O   0  0  0  0  0  0  0  0  0  0  0  0
  2  1  1  6
  2  4  1  0
  3  2  1  0
  4  5  1  1
  6  4  1  0
  6 11  1  0
  7  6  2  0
  9  8  1  0
 10  9  1  6
 10 12  1  0
 11 10  1  0
 12 13  2  0
 12 19  1  0
 15 14  1  0
 16 15  1  0
 17 16  1  0
 18 17  1  1
 19 18  1  0
 20 18  1  0
 20 22  1  0
 21 20  2  0
M  END
$$$$
