EPR.pdb
     RDKit          3D

 28 28  0  0  1  0  0  0  0  0999 V2000
    8.4287  -12.6429   19.1752 N   0  0  0  0  0  0  0  0  0  0  0  0
    7.9289  -13.7645   19.9908 C   0  0  1  0  0  0  0  0  0  0  0  0
    8.1790  -15.0279   19.1602 C   0  0  0  0  0  0  0  0  0  0  0  0
    7.7843  -16.2567   19.9208 C   0  0  0  0  0  0  0  0  0  0  0  0
    8.0600  -17.4502   19.0900 C   0  0  0  0  0  0  0  0  0  0  0  0
    9.0538  -18.1693   19.3486 O   0  0  0  0  0  0  0  0  0  0  0  0
    8.7358  -13.9176   21.2200 C   0  0  0  0  0  0  0  0  0  0  0  0
    9.9970  -13.7412   21.0961 O   0  0  0  0  0  0  0  0  0  0  0  0
    7.2481  -17.8129   18.0160 O   0  0  0  0  0  0  0  0  0  0  0  0
    8.1709  -14.2370   22.4623 N   0  0  0  0  0  0  0  0  0  0  0  0
    6.7806  -14.5453   22.6988 C   0  0  0  0  0  0  0  0  0  0  0  0
    6.5417  -14.1707   24.1425 C   0  0  0  0  0  0  0  0  0  0  0  0
    7.8674  -13.5744   24.6283 C   0  0  0  0  0  0  0  0  0  0  0  0
    8.8413  -14.3432   23.7229 C   0  0  1  0  0  0  0  0  0  0  0  0
    8.8415  -15.7960   24.1157 C   0  0  0  0  0  0  0  0  0  0  0  0
    7.9377  -16.5953   23.7455 O   0  0  0  0  0  0  0  0  0  0  0  0
   11.4774  -18.5423   30.0946 N   0  0  0  0  0  0  0  0  0  0  0  0
   12.2882  -19.6528   29.7614 C   0  0  0  0  0  0  0  0  0  0  0  0
   12.4732  -20.6217   30.6234 N   0  0  0  0  0  0  0  0  0  0  0  0
   12.9229  -19.7710   28.5159 N   0  0  0  0  0  0  0  0  0  0  0  0
   12.8486  -18.7858   27.4684 C   0  0  0  0  0  0  0  0  0  0  0  0
   11.6487  -18.9585   26.6156 C   0  0  0  0  0  0  0  0  0  0  0  0
   11.3886  -18.1162   25.4532 C   0  0  0  0  0  0  0  0  0  0  0  0
    9.9993  -17.8498   25.0269 C   0  0  2  0  0  0  0  0  0  0  0  0
    9.8612  -16.3427   24.9248 N   0  0  0  0  0  0  0  0  0  0  0  0
    8.9577  -18.1749   26.0103 C   0  0  0  0  0  0  0  0  0  0  0  0
    8.5596  -19.3212   26.2060 O   0  0  0  0  0  0  0  0  0  0  0  0
    8.3528  -17.1701   26.7928 O   0  0  0  0  0  0  0  0  0  0  0  0
  2  1  1  6
  2  7  1  0
  2  3  1  0
  3  4  1  0
  5  9  1  0
  5  4  1  0
  6  5  2  0
  7  8  2  0
 10  7  1  0
 10 11  1  0
 12 11  1  0
 13 14  1  0
 13 12  1  0
 14 10  1  0
 15 25  1  0
 14 15  1  1
 16 15  2  0
 17 18  1  0
 18 19  2  0
 20 21  1  0
 20 18  1  0
 21 22  1  0
 23 22  1  0
 24 23  1  1
 24 25  1  0
 26 28  1  0
 26 24  1  0
 27 26  2  0
M  END
$$$$
