EPR.pdb
     RDKit          3D

 28 28  0  0  1  0  0  0  0  0999 V2000
    8.8860  -13.0644   17.4693 N   0  0  0  0  0  0  0  0  0  0  0  0
    9.1736  -14.4933   17.6898 C   0  0  1  0  0  0  0  0  0  0  0  0
   10.6866  -14.5841   17.9156 C   0  0  0  0  0  0  0  0  0  0  0  0
   11.1154  -13.6932   19.0411 C   0  0  0  0  0  0  0  0  0  0  0  0
   12.5691  -13.8598   19.2643 C   0  0  0  0  0  0  0  0  0  0  0  0
   13.3770  -13.5145   18.3701 O   0  0  0  0  0  0  0  0  0  0  0  0
    8.5448  -14.9664   18.9414 C   0  0  0  0  0  0  0  0  0  0  0  0
    7.9783  -14.0750   19.6635 O   0  0  0  0  0  0  0  0  0  0  0  0
   13.0842  -14.3929   20.4452 O   0  0  0  0  0  0  0  0  0  0  0  0
    8.5563  -16.3119   19.3335 N   0  0  0  0  0  0  0  0  0  0  0  0
    9.3573  -17.3543   18.7369 C   0  0  0  0  0  0  0  0  0  0  0  0
    8.5901  -18.6289   18.9983 C   0  0  0  0  0  0  0  0  0  0  0  0
    7.3006  -18.1862   19.6985 C   0  0  0  0  0  0  0  0  0  0  0  0
    7.8107  -16.9163   20.3959 C   0  0  1  0  0  0  0  0  0  0  0  0
    8.7877  -17.3011   21.4740 C   0  0  0  0  0  0  0  0  0  0  0  0
   10.0053  -17.5280   21.2318 O   0  0  0  0  0  0  0  0  0  0  0  0
    4.7642  -12.0985   27.3294 N   0  0  0  0  0  0  0  0  0  0  0  0
    6.1642  -11.8954   27.3055 C   0  0  0  0  0  0  0  0  0  0  0  0
    6.6870  -10.8152   27.8306 N   0  0  0  0  0  0  0  0  0  0  0  0
    7.0464  -12.8218   26.7298 N   0  0  0  0  0  0  0  0  0  0  0  0
    6.6812  -13.7639   25.7039 C   0  0  0  0  0  0  0  0  0  0  0  0
    7.8426  -14.5442   25.2151 C   0  0  0  0  0  0  0  0  0  0  0  0
    7.7142  -15.5822   24.1980 C   0  0  0  0  0  0  0  0  0  0  0  0
    8.8792  -16.4176   23.8404 C   0  0  2  0  0  0  0  0  0  0  0  0
    8.3880  -17.4289   22.8221 N   0  0  0  0  0  0  0  0  0  0  0  0
    9.3855  -17.2939   24.9050 C   0  0  0  0  0  0  0  0  0  0  0  0
    8.8201  -18.3328   25.2391 O   0  0  0  0  0  0  0  0  0  0  0  0
   10.5668  -16.9811   25.6084 O   0  0  0  0  0  0  0  0  0  0  0  0
  2  1  1  1
  2  7  1  0
  2  3  1  0
  3  4  1  0
  5  9  1  0
  5  4  1  0
  6  5  2  0
  7  8  2  0
 10  7  1  0
 10 11  1  0
 12 11  1  0
 13 14  1  0
 13 12  1  0
 14 10  1  0
 15 25  1  0
 14 15  1  1
 16 15  2  0
 17 18  1  0
 18 19  2  0
 20 21  1  0
 20 18  1  0
 21 22  1  0
 23 22  1  0
 24 23  1  1
 24 25  1  0
 26 28  1  0
 26 24  1  0
 27 26  2  0
M  END
$$$$
