EPR.pdb
     RDKit          3D

 28 28  0  0  1  0  0  0  0  0999 V2000
    8.7909  -17.5806   17.1539 N   0  0  0  0  0  0  0  0  0  0  0  0
    7.9895  -16.6354   17.9525 C   0  0  1  0  0  0  0  0  0  0  0  0
    6.8034  -17.4440   18.4889 C   0  0  0  0  0  0  0  0  0  0  0  0
    7.2529  -18.7751   19.0089 C   0  0  0  0  0  0  0  0  0  0  0  0
    6.0953  -19.4782   19.6059 C   0  0  0  0  0  0  0  0  0  0  0  0
    4.9601  -18.9480   19.5657 O   0  0  0  0  0  0  0  0  0  0  0  0
    8.7450  -16.1821   19.1396 C   0  0  0  0  0  0  0  0  0  0  0  0
    9.8805  -16.7383   19.3356 O   0  0  0  0  0  0  0  0  0  0  0  0
    6.2174  -20.7240   20.2199 O   0  0  0  0  0  0  0  0  0  0  0  0
    8.2631  -15.1986   20.0142 N   0  0  0  0  0  0  0  0  0  0  0  0
    6.9267  -14.6527   20.0107 C   0  0  0  0  0  0  0  0  0  0  0  0
    7.0716  -13.2720   20.6060 C   0  0  0  0  0  0  0  0  0  0  0  0
    8.5741  -13.0945   20.8502 C   0  0  0  0  0  0  0  0  0  0  0  0
    8.9710  -14.5600   21.0825 C   0  0  1  0  0  0  0  0  0  0  0  0
    8.3678  -15.0379   22.3758 C   0  0  0  0  0  0  0  0  0  0  0  0
    7.1407  -15.3101   22.4883 O   0  0  0  0  0  0  0  0  0  0  0  0
    8.2073  -21.4726   25.8822 N   0  0  0  0  0  0  0  0  0  0  0  0
    7.3905  -21.1296   24.7790 C   0  0  0  0  0  0  0  0  0  0  0  0
    6.0937  -21.0138   24.9241 N   0  0  0  0  0  0  0  0  0  0  0  0
    7.9168  -20.9006   23.4989 N   0  0  0  0  0  0  0  0  0  0  0  0
    8.4318  -19.6346   23.0458 C   0  0  0  0  0  0  0  0  0  0  0  0
    9.1108  -18.8821   24.1274 C   0  0  0  0  0  0  0  0  0  0  0  0
    9.6170  -17.5270   23.9375 C   0  0  0  0  0  0  0  0  0  0  0  0
    8.8607  -16.3726   24.4650 C   0  0  2  0  0  0  0  0  0  0  0  0
    9.1510  -15.2073   23.5383 N   0  0  0  0  0  0  0  0  0  0  0  0
    9.3223  -15.8446   25.7556 C   0  0  0  0  0  0  0  0  0  0  0  0
   10.2658  -15.0636   25.8577 O   0  0  0  0  0  0  0  0  0  0  0  0
    8.6938  -16.2136   26.9626 O   0  0  0  0  0  0  0  0  0  0  0  0
  2  1  1  6
  2  7  1  0
  2  3  1  0
  3  4  1  0
  5  9  1  0
  5  4  1  0
  6  5  2  0
  7  8  2  0
 10  7  1  0
 10 11  1  0
 12 11  1  0
 13 14  1  0
 13 12  1  0
 14 10  1  0
 15 25  1  0
 14 15  1  1
 16 15  2  0
 17 18  1  0
 18 19  2  0
 20 21  1  0
 20 18  1  0
 21 22  1  0
 23 22  1  0
 24 23  1  6
 24 25  1  0
 26 28  1  0
 26 24  1  0
 27 26  2  0
M  END
$$$$
