EPR.pdb
     RDKit          3D

 28 28  0  0  1  0  0  0  0  0999 V2000
    9.1907  -15.9828   14.9848 N   0  0  0  0  0  0  0  0  0  0  0  0
    8.3745  -15.8224   16.2018 C   0  0  1  0  0  0  0  0  0  0  0  0
    7.9730  -17.2397   16.6244 C   0  0  0  0  0  0  0  0  0  0  0  0
    6.7728  -17.7077   15.8597 C   0  0  0  0  0  0  0  0  0  0  0  0
    6.4285  -19.0810   16.2911 C   0  0  0  0  0  0  0  0  0  0  0  0
    6.6827  -19.4444   17.4636 O   0  0  0  0  0  0  0  0  0  0  0  0
    9.1892  -15.2812   17.3104 C   0  0  0  0  0  0  0  0  0  0  0  0
   10.4533  -15.4595   17.2247 O   0  0  0  0  0  0  0  0  0  0  0  0
    5.8243  -20.0005   15.4345 O   0  0  0  0  0  0  0  0  0  0  0  0
    8.6285  -14.6063   18.4033 N   0  0  0  0  0  0  0  0  0  0  0  0
    7.2170  -14.4178   18.6404 C   0  0  0  0  0  0  0  0  0  0  0  0
    7.1296  -13.1617   19.4748 C   0  0  0  0  0  0  0  0  0  0  0  0
    8.5719  -12.6578   19.5963 C   0  0  0  0  0  0  0  0  0  0  0  0
    9.3199  -13.9959   19.4984 C   0  0  1  0  0  0  0  0  0  0  0  0
    9.0341  -14.8147   20.7284 C   0  0  0  0  0  0  0  0  0  0  0  0
    7.9036  -15.3310   20.9478 O   0  0  0  0  0  0  0  0  0  0  0  0
   16.5201  -16.0010   24.1782 N   0  0  0  0  0  0  0  0  0  0  0  0
   15.9072  -15.6318   22.9577 C   0  0  0  0  0  0  0  0  0  0  0  0
   16.2549  -14.5252   22.3488 N   0  0  0  0  0  0  0  0  0  0  0  0
   14.9158  -16.4159   22.3492 N   0  0  0  0  0  0  0  0  0  0  0  0
   13.6859  -16.8101   22.9858 C   0  0  0  0  0  0  0  0  0  0  0  0
   12.4914  -16.3345   22.2485 C   0  0  0  0  0  0  0  0  0  0  0  0
   11.2201  -17.0497   22.2762 C   0  0  0  0  0  0  0  0  0  0  0  0
    9.9633  -16.3176   22.5358 C   0  0  2  0  0  0  0  0  0  0  0  0
   10.0245  -15.0486   21.7070 N   0  0  0  0  0  0  0  0  0  0  0  0
    9.8101  -15.7760   23.8926 C   0  0  0  0  0  0  0  0  0  0  0  0
    9.8135  -14.5709   24.1340 O   0  0  0  0  0  0  0  0  0  0  0  0
    9.6479  -16.6272   25.0048 O   0  0  0  0  0  0  0  0  0  0  0  0
  2  1  1  6
  2  7  1  0
  2  3  1  0
  3  4  1  0
  5  9  1  0
  5  4  1  0
  6  5  2  0
  7  8  2  0
 10  7  1  0
 10 11  1  0
 12 11  1  0
 13 14  1  0
 13 12  1  0
 14 10  1  0
 15 25  1  0
 14 15  1  1
 16 15  2  0
 17 18  1  0
 18 19  2  0
 20 21  1  0
 20 18  1  0
 21 22  1  0
 23 22  1  0
 24 23  1  1
 24 25  1  0
 26 28  1  0
 26 24  1  0
 27 26  2  0
M  END
$$$$
