EPR.pdb
     RDKit          3D

 28 28  0  0  1  0  0  0  0  0999 V2000
    5.9387  -17.7713   17.8723 N   0  0  0  0  0  0  0  0  0  0  0  0
    6.0098  -16.8643   19.0323 C   0  0  1  0  0  0  0  0  0  0  0  0
    5.3658  -17.6249   20.1964 C   0  0  0  0  0  0  0  0  0  0  0  0
    5.4619  -16.8398   21.4686 C   0  0  0  0  0  0  0  0  0  0  0  0
    4.8408  -17.6160   22.5651 C   0  0  0  0  0  0  0  0  0  0  0  0
    4.8172  -17.1408   23.7249 O   0  0  0  0  0  0  0  0  0  0  0  0
    7.4150  -16.6282   19.4263 C   0  0  0  0  0  0  0  0  0  0  0  0
    8.2629  -17.5138   19.0606 O   0  0  0  0  0  0  0  0  0  0  0  0
    4.2726  -18.8725   22.3582 O   0  0  0  0  0  0  0  0  0  0  0  0
    7.8177  -15.5032   20.1588 N   0  0  0  0  0  0  0  0  0  0  0  0
    6.9359  -14.5754   20.8265 C   0  0  0  0  0  0  0  0  0  0  0  0
    7.7078  -13.2781   20.8790 C   0  0  0  0  0  0  0  0  0  0  0  0
    9.0156  -13.5571   20.1302 C   0  0  0  0  0  0  0  0  0  0  0  0
    9.1558  -15.0608   20.4109 C   0  0  1  0  0  0  0  0  0  0  0  0
    9.4338  -15.2678   21.8754 C   0  0  0  0  0  0  0  0  0  0  0  0
    8.6245  -14.9061   22.7737 O   0  0  0  0  0  0  0  0  0  0  0  0
    7.4213  -22.1114   24.3934 N   0  0  0  0  0  0  0  0  0  0  0  0
    7.4256  -20.9402   23.5997 C   0  0  0  0  0  0  0  0  0  0  0  0
    6.4257  -20.0958   23.6576 N   0  0  0  0  0  0  0  0  0  0  0  0
    8.4795  -20.6293   22.7276 N   0  0  0  0  0  0  0  0  0  0  0  0
    9.7387  -20.0667   23.1415 C   0  0  0  0  0  0  0  0  0  0  0  0
    9.6602  -18.6015   23.3510 C   0  0  0  0  0  0  0  0  0  0  0  0
   10.8179  -17.8054   23.7440 C   0  0  0  0  0  0  0  0  0  0  0  0
   10.7299  -16.3307   23.7673 C   0  0  2  0  0  0  0  0  0  0  0  0
   10.6238  -15.8824   22.3221 N   0  0  0  0  0  0  0  0  0  0  0  0
   11.9424  -15.6270   24.2057 C   0  0  0  0  0  0  0  0  0  0  0  0
   12.2741  -15.5416   25.3860 O   0  0  0  0  0  0  0  0  0  0  0  0
   12.8014  -15.0042   23.2771 O   0  0  0  0  0  0  0  0  0  0  0  0
  2  1  1  6
  2  7  1  0
  2  3  1  0
  3  4  1  0
  5  9  1  0
  5  4  1  0
  6  5  2  0
  7  8  2  0
 10  7  1  0
 10 11  1  0
 12 11  1  0
 13 14  1  0
 13 12  1  0
 14 10  1  0
 15 25  1  0
 14 15  1  1
 16 15  2  0
 17 18  1  0
 18 19  2  0
 20 21  1  0
 20 18  1  0
 21 22  1  0
 23 22  1  0
 24 23  1  6
 24 25  1  0
 26 28  1  0
 26 24  1  0
 27 26  2  0
M  END
$$$$
