EPR.pdb
     RDKit          3D

 28 28  0  0  1  0  0  0  0  0999 V2000
    9.4327  -12.9043   17.2029 N   0  0  0  0  0  0  0  0  0  0  0  0
    9.2027  -14.1537   17.9507 C   0  0  1  0  0  0  0  0  0  0  0  0
   10.3471  -15.0930   17.5551 C   0  0  0  0  0  0  0  0  0  0  0  0
   10.2431  -16.4000   18.2798 C   0  0  0  0  0  0  0  0  0  0  0  0
   11.5975  -16.9757   18.4376 C   0  0  0  0  0  0  0  0  0  0  0  0
   11.8962  -17.5763   19.4967 O   0  0  0  0  0  0  0  0  0  0  0  0
    9.3447  -13.9267   19.4046 C   0  0  0  0  0  0  0  0  0  0  0  0
   10.3650  -13.2498   19.7759 O   0  0  0  0  0  0  0  0  0  0  0  0
   12.5688  -16.8761   17.4423 O   0  0  0  0  0  0  0  0  0  0  0  0
    8.4241  -14.4161   20.3412 N   0  0  0  0  0  0  0  0  0  0  0  0
    7.3314  -15.3152   20.0550 C   0  0  0  0  0  0  0  0  0  0  0  0
    6.3057  -15.0304   21.1267 C   0  0  0  0  0  0  0  0  0  0  0  0
    6.8898  -13.8745   21.9462 C   0  0  0  0  0  0  0  0  0  0  0  0
    8.3877  -14.1510   21.7478 C   0  0  1  0  0  0  0  0  0  0  0  0
    8.7550  -15.4253   22.4593 C   0  0  0  0  0  0  0  0  0  0  0  0
    8.8446  -16.5318   21.8589 O   0  0  0  0  0  0  0  0  0  0  0  0
   12.2705  -18.2240   30.6798 N   0  0  0  0  0  0  0  0  0  0  0  0
   11.6351  -17.1920   29.9497 C   0  0  0  0  0  0  0  0  0  0  0  0
   10.4204  -16.8113   30.2591 N   0  0  0  0  0  0  0  0  0  0  0  0
   12.2607  -16.5367   28.8786 N   0  0  0  0  0  0  0  0  0  0  0  0
   11.6009  -15.6121   27.9937 C   0  0  0  0  0  0  0  0  0  0  0  0
   11.3443  -16.1970   26.6561 C   0  0  0  0  0  0  0  0  0  0  0  0
   10.6567  -15.4612   25.6006 C   0  0  0  0  0  0  0  0  0  0  0  0
   10.2673  -16.1475   24.3515 C   0  0  2  0  0  0  0  0  0  0  0  0
    9.0201  -15.4475   23.8458 N   0  0  0  0  0  0  0  0  0  0  0  0
    9.7883  -17.5275   24.5055 C   0  0  0  0  0  0  0  0  0  0  0  0
   10.5456  -18.4938   24.5631 O   0  0  0  0  0  0  0  0  0  0  0  0
    8.4114  -17.8168   24.5972 O   0  0  0  0  0  0  0  0  0  0  0  0
  2  1  1  6
  2  7  1  0
  2  3  1  0
  3  4  1  0
  5  9  1  0
  5  4  1  0
  6  5  2  0
  7  8  2  0
 10  7  1  0
 10 11  1  0
 12 11  1  0
 13 14  1  0
 13 12  1  0
 14 10  1  0
 15 25  1  0
 14 15  1  1
 16 15  2  0
 17 18  1  0
 18 19  2  0
 20 21  1  0
 20 18  1  0
 21 22  1  0
 23 22  1  0
 24 23  1  1
 24 25  1  0
 26 28  1  0
 26 24  1  0
 27 26  2  0
M  END
$$$$
