EPR.pdb
     RDKit          3D

 28 28  0  0  1  0  0  0  0  0999 V2000
    6.9282  -14.8000   21.1796 N   0  0  0  0  0  0  0  0  0  0  0  0
    6.5240  -14.6567   22.5900 C   0  0  1  0  0  0  0  0  0  0  0  0
    6.2538  -16.0789   23.0928 C   0  0  0  0  0  0  0  0  0  0  0  0
    7.4714  -16.9395   22.9476 C   0  0  0  0  0  0  0  0  0  0  0  0
    7.2132  -18.2543   23.5764 C   0  0  0  0  0  0  0  0  0  0  0  0
    6.1100  -18.4701   24.1313 O   0  0  0  0  0  0  0  0  0  0  0  0
    7.6442  -14.1412   23.4053 C   0  0  0  0  0  0  0  0  0  0  0  0
    8.7869  -14.0909   22.8318 O   0  0  0  0  0  0  0  0  0  0  0  0
    8.1605  -19.2775   23.5771 O   0  0  0  0  0  0  0  0  0  0  0  0
    7.4852  -13.7245   24.7340 N   0  0  0  0  0  0  0  0  0  0  0  0
    6.2345  -13.6668   25.4527 C   0  0  0  0  0  0  0  0  0  0  0  0
    6.4423  -12.6037   26.5054 C   0  0  0  0  0  0  0  0  0  0  0  0
    7.8485  -12.0512   26.2477 C   0  0  0  0  0  0  0  0  0  0  0  0
    8.5073  -13.2997   25.6422 C   0  0  1  0  0  0  0  0  0  0  0  0
    8.6372  -14.3568   26.7056 C   0  0  0  0  0  0  0  0  0  0  0  0
    7.6355  -14.9470   27.1964 O   0  0  0  0  0  0  0  0  0  0  0  0
   16.7125  -15.9483   24.3203 N   0  0  0  0  0  0  0  0  0  0  0  0
   15.8253  -17.0382   24.4835 C   0  0  0  0  0  0  0  0  0  0  0  0
   16.2800  -18.2666   24.5032 N   0  0  0  0  0  0  0  0  0  0  0  0
   14.4411  -16.8630   24.6297 N   0  0  0  0  0  0  0  0  0  0  0  0
   13.8318  -15.8461   25.4470 C   0  0  0  0  0  0  0  0  0  0  0  0
   12.7561  -16.3867   26.3115 C   0  0  0  0  0  0  0  0  0  0  0  0
   11.3418  -16.2229   25.9936 C   0  0  0  0  0  0  0  0  0  0  0  0
   10.3375  -16.1898   27.0768 C   0  0  2  0  0  0  0  0  0  0  0  0
    9.8968  -14.7446   27.2120 N   0  0  0  0  0  0  0  0  0  0  0  0
   10.8463  -16.4699   28.4260 C   0  0  0  0  0  0  0  0  0  0  0  0
   11.3126  -17.5599   28.7500 O   0  0  0  0  0  0  0  0  0  0  0  0
   10.8251  -15.4840   29.4338 O   0  0  0  0  0  0  0  0  0  0  0  0
  2  1  1  6
  2  7  1  0
  2  3  1  0
  3  4  1  0
  5  9  1  0
  5  4  1  0
  6  5  2  0
  7  8  2  0
 10  7  1  0
 10 11  1  0
 12 11  1  0
 13 14  1  0
 13 12  1  0
 14 10  1  0
 15 25  1  0
 14 15  1  1
 16 15  2  0
 17 18  1  0
 18 19  2  0
 20 21  1  0
 20 18  1  0
 21 22  1  0
 23 22  1  0
 24 23  1  6
 24 25  1  0
 26 28  1  0
 26 24  1  0
 27 26  2  0
M  END
$$$$
