EPR.pdb
     RDKit          3D

 28 28  0  0  1  0  0  0  0  0999 V2000
    8.2836  -14.9277   21.0565 N   0  0  0  0  0  0  0  0  0  0  0  0
    7.4905  -14.4215   22.1914 C   0  0  1  0  0  0  0  0  0  0  0  0
    6.5306  -15.5552   22.5678 C   0  0  0  0  0  0  0  0  0  0  0  0
    7.2832  -16.8070   22.9007 C   0  0  0  0  0  0  0  0  0  0  0  0
    6.3338  -17.8229   23.4079 C   0  0  0  0  0  0  0  0  0  0  0  0
    5.1004  -17.6316   23.2911 O   0  0  0  0  0  0  0  0  0  0  0  0
    8.3500  -14.2044   23.3745 C   0  0  0  0  0  0  0  0  0  0  0  0
    9.5939  -14.4650   23.2273 O   0  0  0  0  0  0  0  0  0  0  0  0
    6.7611  -19.0010   24.0193 O   0  0  0  0  0  0  0  0  0  0  0  0
    7.8506  -13.7386   24.5984 N   0  0  0  0  0  0  0  0  0  0  0  0
    6.4601  -13.4951   24.9008 C   0  0  0  0  0  0  0  0  0  0  0  0
    6.4787  -12.4453   25.9866 C   0  0  0  0  0  0  0  0  0  0  0  0
    7.9578  -12.0945   26.1822 C   0  0  0  0  0  0  0  0  0  0  0  0
    8.5939  -13.4346   25.7838 C   0  0  1  0  0  0  0  0  0  0  0  0
    8.2474  -14.4740   26.8156 C   0  0  0  0  0  0  0  0  0  0  0  0
    7.1944  -15.1664   26.7489 O   0  0  0  0  0  0  0  0  0  0  0  0
    9.6735  -20.9076   26.4104 N   0  0  0  0  0  0  0  0  0  0  0  0
   11.0736  -21.0565   26.2719 C   0  0  0  0  0  0  0  0  0  0  0  0
   11.6081  -22.2489   26.1789 N   0  0  0  0  0  0  0  0  0  0  0  0
   11.9438  -19.9570   26.2279 N   0  0  0  0  0  0  0  0  0  0  0  0
   11.5285  -18.6003   25.9825 C   0  0  0  0  0  0  0  0  0  0  0  0
   10.7331  -18.0427   27.1020 C   0  0  0  0  0  0  0  0  0  0  0  0
   10.2529  -16.6651   27.1091 C   0  0  0  0  0  0  0  0  0  0  0  0
    9.4638  -16.1610   28.2519 C   0  0  2  0  0  0  0  0  0  0  0  0
    9.0898  -14.7290   27.9195 N   0  0  0  0  0  0  0  0  0  0  0  0
   10.2029  -15.9879   29.5095 C   0  0  0  0  0  0  0  0  0  0  0  0
   10.8078  -14.9557   29.7910 O   0  0  0  0  0  0  0  0  0  0  0  0
   10.2551  -17.0157   30.4734 O   0  0  0  0  0  0  0  0  0  0  0  0
  2  1  1  6
  2  7  1  0
  2  3  1  0
  3  4  1  0
  5  9  1  0
  5  4  1  0
  6  5  2  0
  7  8  2  0
 10  7  1  0
 10 11  1  0
 12 11  1  0
 13 14  1  0
 13 12  1  0
 14 10  1  0
 15 25  1  0
 14 15  1  1
 16 15  2  0
 17 18  1  0
 18 19  2  0
 20 21  1  0
 20 18  1  0
 21 22  1  0
 23 22  1  0
 24 23  1  6
 24 25  1  0
 26 28  1  0
 26 24  1  0
 27 26  2  0
M  END
$$$$
