EPR.pdb
     RDKit          3D

 28 28  0  0  1  0  0  0  0  0999 V2000
    8.1664  -13.8802   20.3145 N   0  0  0  0  0  0  0  0  0  0  0  0
    7.4156  -14.0196   21.5755 C   0  0  1  0  0  0  0  0  0  0  0  0
    6.7820  -15.4143   21.5313 C   0  0  0  0  0  0  0  0  0  0  0  0
    7.8183  -16.4665   21.2799 C   0  0  0  0  0  0  0  0  0  0  0  0
    7.2171  -17.8010   21.5001 C   0  0  0  0  0  0  0  0  0  0  0  0
    6.1844  -18.1275   20.8688 O   0  0  0  0  0  0  0  0  0  0  0  0
    8.3346  -14.0250   22.7335 C   0  0  0  0  0  0  0  0  0  0  0  0
    9.5854  -14.0051   22.4649 O   0  0  0  0  0  0  0  0  0  0  0  0
    7.7601  -18.7233   22.3938 O   0  0  0  0  0  0  0  0  0  0  0  0
    7.8820  -14.0496   24.0597 N   0  0  0  0  0  0  0  0  0  0  0  0
    6.5021  -14.1345   24.4753 C   0  0  0  0  0  0  0  0  0  0  0  0
    6.4687  -13.4873   25.8397 C   0  0  0  0  0  0  0  0  0  0  0  0
    7.8968  -12.9871   26.0831 C   0  0  0  0  0  0  0  0  0  0  0  0
    8.6746  -14.0181   25.2516 C   0  0  1  0  0  0  0  0  0  0  0  0
    8.5632  -15.3687   25.9063 C   0  0  0  0  0  0  0  0  0  0  0  0
    7.6235  -16.1697   25.6454 O   0  0  0  0  0  0  0  0  0  0  0  0
   14.5504  -19.9728   31.1312 N   0  0  0  0  0  0  0  0  0  0  0  0
   13.5547  -20.8264   30.6005 C   0  0  0  0  0  0  0  0  0  0  0  0
   13.5496  -22.1030   30.8946 N   0  0  0  0  0  0  0  0  0  0  0  0
   12.5421  -20.3590   29.7495 N   0  0  0  0  0  0  0  0  0  0  0  0
   12.4284  -18.9987   29.2912 C   0  0  0  0  0  0  0  0  0  0  0  0
   11.1965  -18.7716   28.4989 C   0  0  0  0  0  0  0  0  0  0  0  0
   10.8882  -17.4841   27.8858 C   0  0  0  0  0  0  0  0  0  0  0  0
    9.6115  -17.2921   27.1674 C   0  0  2  0  0  0  0  0  0  0  0  0
    9.5121  -15.8114   26.8533 N   0  0  0  0  0  0  0  0  0  0  0  0
    8.3948  -17.5069   27.9618 C   0  0  0  0  0  0  0  0  0  0  0  0
    7.8733  -16.6212   28.6358 O   0  0  0  0  0  0  0  0  0  0  0  0
    7.7533  -18.7621   27.9903 O   0  0  0  0  0  0  0  0  0  0  0  0
  2  1  1  6
  2  7  1  0
  2  3  1  0
  3  4  1  0
  5  9  1  0
  5  4  1  0
  6  5  2  0
  7  8  2  0
 10  7  1  0
 10 11  1  0
 12 11  1  0
 13 14  1  0
 13 12  1  0
 14 10  1  0
 15 25  1  0
 14 15  1  1
 16 15  2  0
 17 18  1  0
 18 19  2  0
 20 21  1  0
 20 18  1  0
 21 22  1  0
 23 22  1  0
 24 23  1  1
 24 25  1  0
 26 28  1  0
 26 24  1  0
 27 26  2  0
M  END
$$$$
