EPR.pdb
     RDKit          3D

 28 28  0  0  1  0  0  0  0  0999 V2000
    9.1094  -15.9556   15.4501 N   0  0  0  0  0  0  0  0  0  0  0  0
    8.3282  -15.4381   16.5881 C   0  0  1  0  0  0  0  0  0  0  0  0
    7.3746  -16.5691   16.9880 C   0  0  0  0  0  0  0  0  0  0  0  0
    8.1354  -17.7984   17.3809 C   0  0  0  0  0  0  0  0  0  0  0  0
    7.1800  -18.8395   17.8211 C   0  0  0  0  0  0  0  0  0  0  0  0
    5.9479  -18.6164   17.7588 O   0  0  0  0  0  0  0  0  0  0  0  0
    9.2005  -15.2062   17.7589 C   0  0  0  0  0  0  0  0  0  0  0  0
   10.4149  -15.5931   17.6468 O   0  0  0  0  0  0  0  0  0  0  0  0
    7.6000  -20.0762   18.3094 O   0  0  0  0  0  0  0  0  0  0  0  0
    8.7432  -14.5973   18.9356 N   0  0  0  0  0  0  0  0  0  0  0  0
    7.3731  -14.2433   19.2209 C   0  0  0  0  0  0  0  0  0  0  0  0
    7.4659  -13.0981   20.2015 C   0  0  0  0  0  0  0  0  0  0  0  0
    8.9652  -12.8197   20.3547 C   0  0  0  0  0  0  0  0  0  0  0  0
    9.5164  -14.2273   20.0825 C   0  0  1  0  0  0  0  0  0  0  0  0
    9.1205  -15.1414   21.2106 C   0  0  0  0  0  0  0  0  0  0  0  0
    7.9999  -15.7206   21.2484 O   0  0  0  0  0  0  0  0  0  0  0  0
   14.1409  -20.6576   22.2774 N   0  0  0  0  0  0  0  0  0  0  0  0
   14.4587  -19.6871   21.2983 C   0  0  0  0  0  0  0  0  0  0  0  0
   15.7084  -19.4217   21.0083 N   0  0  0  0  0  0  0  0  0  0  0  0
   13.4719  -18.9736   20.6018 N   0  0  0  0  0  0  0  0  0  0  0  0
   12.0622  -19.0471   20.8856 C   0  0  0  0  0  0  0  0  0  0  0  0
   11.6236  -18.0014   21.8401 C   0  0  0  0  0  0  0  0  0  0  0  0
   10.2193  -17.7848   22.1708 C   0  0  0  0  0  0  0  0  0  0  0  0
    9.8329  -16.6863   23.0800 C   0  0  2  0  0  0  0  0  0  0  0  0
    9.9901  -15.3994   22.2925 N   0  0  0  0  0  0  0  0  0  0  0  0
   10.7364  -16.4499   24.2138 C   0  0  0  0  0  0  0  0  0  0  0  0
   10.8008  -17.2023   25.1835 O   0  0  0  0  0  0  0  0  0  0  0  0
   11.5904  -15.3284   24.2457 O   0  0  0  0  0  0  0  0  0  0  0  0
  2  1  1  6
  2  7  1  0
  2  3  1  0
  3  4  1  0
  5  9  1  0
  5  4  1  0
  6  5  2  0
  7  8  2  0
 10  7  1  0
 10 11  1  0
 12 11  1  0
 13 14  1  0
 13 12  1  0
 14 10  1  0
 15 25  1  0
 14 15  1  1
 16 15  2  0
 17 18  1  0
 18 19  2  0
 20 21  1  0
 20 18  1  0
 21 22  1  0
 23 22  1  0
 24 23  1  6
 24 25  1  0
 26 28  1  0
 26 24  1  0
 27 26  2  0
M  END
$$$$
