EPR.pdb
     RDKit          3D

 28 28  0  0  1  0  0  0  0  0999 V2000
    7.7194  -14.5928   21.1054 N   0  0  0  0  0  0  0  0  0  0  0  0
    7.1236  -14.1155   22.3665 C   0  0  1  0  0  0  0  0  0  0  0  0
    6.2351  -15.2594   22.8669 C   0  0  0  0  0  0  0  0  0  0  0  0
    6.9582  -16.5696   22.7986 C   0  0  0  0  0  0  0  0  0  0  0  0
    6.0958  -17.6293   23.3678 C   0  0  0  0  0  0  0  0  0  0  0  0
    6.6151  -18.5744   24.0071 O   0  0  0  0  0  0  0  0  0  0  0  0
    8.1652  -13.9260   23.3983 C   0  0  0  0  0  0  0  0  0  0  0  0
    9.3765  -14.0799   23.0162 O   0  0  0  0  0  0  0  0  0  0  0  0
    4.7093  -17.6195   23.2200 O   0  0  0  0  0  0  0  0  0  0  0  0
    7.8644  -13.5952   24.7266 N   0  0  0  0  0  0  0  0  0  0  0  0
    6.5425  -13.5628   25.3059 C   0  0  0  0  0  0  0  0  0  0  0  0
    6.6436  -12.5754   26.4445 C   0  0  0  0  0  0  0  0  0  0  0  0
    8.0753  -12.0323   26.3806 C   0  0  0  0  0  0  0  0  0  0  0  0
    8.7841  -13.2496   25.7682 C   0  0  1  0  0  0  0  0  0  0  0  0
    8.7845  -14.3767   26.7655 C   0  0  0  0  0  0  0  0  0  0  0  0
    7.7270  -14.9727   27.1107 O   0  0  0  0  0  0  0  0  0  0  0  0
   10.5615  -21.1757   25.5912 N   0  0  0  0  0  0  0  0  0  0  0  0
   10.7046  -20.2206   24.5572 C   0  0  0  0  0  0  0  0  0  0  0  0
    9.9951  -20.3189   23.4603 N   0  0  0  0  0  0  0  0  0  0  0  0
   11.5956  -19.1411   24.6517 N   0  0  0  0  0  0  0  0  0  0  0  0
   11.9812  -18.5105   25.8873 C   0  0  0  0  0  0  0  0  0  0  0  0
   10.8924  -17.6867   26.4641 C   0  0  0  0  0  0  0  0  0  0  0  0
   11.0493  -16.9474   27.7120 C   0  0  0  0  0  0  0  0  0  0  0  0
    9.9525  -16.0914   28.2092 C   0  0  2  0  0  0  0  0  0  0  0  0
    9.9778  -14.8278   27.3702 N   0  0  0  0  0  0  0  0  0  0  0  0
   10.1307  -15.5496   29.5628 C   0  0  0  0  0  0  0  0  0  0  0  0
   10.0810  -16.2483   30.5728 O   0  0  0  0  0  0  0  0  0  0  0  0
   10.3728  -14.1768   29.7741 O   0  0  0  0  0  0  0  0  0  0  0  0
  2  1  1  6
  2  7  1  0
  2  3  1  0
  3  4  1  0
  5  9  1  0
  5  4  1  0
  6  5  2  0
  7  8  2  0
 10  7  1  0
 10 11  1  0
 12 11  1  0
 13 14  1  0
 13 12  1  0
 14 10  1  0
 15 25  1  0
 14 15  1  1
 16 15  2  0
 17 18  1  0
 18 19  2  0
 20 21  1  0
 20 18  1  0
 21 22  1  0
 23 22  1  0
 24 23  1  6
 24 25  1  0
 26 28  1  0
 26 24  1  0
 27 26  2  0
M  END
$$$$
