MLD.pdb
     RDKit          3D

 25 24  0  0  1  0  0  0  0  0999 V2000
   30.2467  -21.3399  -11.9182 C   0  0  0  0  0  0  0  0  0  0  0  0
   29.2022  -20.3830  -10.7786 S   0  0  0  0  0  0  0  0  0  0  0  0
   27.6939  -21.2856  -10.3756 C   0  0  0  0  0  0  0  0  0  0  0  0
   26.8486  -21.4638  -11.5814 C   0  0  0  0  0  0  0  0  0  0  0  0
   25.6946  -20.5556  -11.7815 C   0  0  2  0  0  0  0  0  0  0  0  0
   24.8000  -20.6987  -10.6049 N   0  0  0  0  0  0  0  0  0  0  0  0
   24.8695  -20.7492  -12.9717 C   0  0  0  0  0  0  0  0  0  0  0  0
   25.3761  -20.7151  -14.1377 O   0  0  0  0  0  0  0  0  0  0  0  0
   20.5074  -24.2404  -13.3407 C   0  0  0  0  0  0  0  0  0  0  0  0
   21.7560  -23.4791  -13.7329 C   0  0  1  0  0  0  0  0  0  0  0  0
   22.0718  -23.8773  -15.1705 C   0  0  0  0  0  0  0  0  0  0  0  0
   21.4200  -22.0166  -13.6864 C   0  0  0  0  0  0  0  0  0  0  0  0
   22.6168  -21.1353  -14.0292 C   0  0  2  0  0  0  0  0  0  0  0  0
   23.4777  -20.9815  -12.8486 N   0  0  0  0  0  0  0  0  0  0  0  0
   22.0442  -19.7957  -14.3093 C   0  0  0  0  0  0  0  0  0  0  0  0
   21.6349  -19.1066  -13.3447 O   0  0  0  0  0  0  0  0  0  0  0  0
   21.9445  -19.2693  -15.6282 N   0  0  0  0  0  0  0  0  0  0  0  0
   21.3452  -17.9665  -15.7876 C   0  0  1  0  0  0  0  0  0  0  0  0
   22.2243  -17.1059  -16.6488 C   0  0  0  0  0  0  0  0  0  0  0  0
   21.6015  -15.7944  -16.8971 C   0  0  0  0  0  0  0  0  0  0  0  0
   21.3488  -15.0153  -15.9595 O   0  0  0  0  0  0  0  0  0  0  0  0
   20.0312  -18.0592  -16.5233 C   0  0  0  0  0  0  0  0  0  0  0  0
   19.9467  -18.9496  -17.4035 O   0  0  0  0  0  0  0  0  0  0  0  0
   21.3019  -15.4479  -18.2117 O   0  0  0  0  0  0  0  0  0  0  0  0
   19.0112  -17.2022  -16.2197 O   0  0  0  0  0  0  0  0  0  0  0  0
  1  2  1  0
  3  4  1  0
  3  2  1  0
  5  4  1  0
  5  6  1  1
  7  5  1  0
  8  7  2  0
 10  9  1  6
 11 10  1  0
 12 10  1  0
 13 12  1  1
 13 14  1  0
 14  7  1  0
 15 13  1  0
 15 17  1  0
 16 15  2  0
 18 19  1  6
 18 22  1  0
 18 17  1  0
 19 20  1  0
 20 24  1  0
 20 21  2  0
 22 25  1  0
 23 22  2  0
M  END
$$$$
