MLD.pdb
     RDKit          3D

 25 24  0  0  1  0  0  0  0  0999 V2000
   26.9252  -21.5263  -17.8900 C   0  0  0  0  0  0  0  0  0  0  0  0
   28.2032  -20.2649  -18.1739 S   0  0  0  0  0  0  0  0  0  0  0  0
   28.8877  -19.6787  -16.6118 C   0  0  0  0  0  0  0  0  0  0  0  0
   28.3323  -20.4478  -15.4716 C   0  0  0  0  0  0  0  0  0  0  0  0
   27.2834  -19.8198  -14.6338 C   0  0  2  0  0  0  0  0  0  0  0  0
   27.8203  -18.5290  -14.1330 N   0  0  0  0  0  0  0  0  0  0  0  0
   26.8008  -20.5616  -13.4711 C   0  0  0  0  0  0  0  0  0  0  0  0
   26.3014  -21.7249  -13.5923 O   0  0  0  0  0  0  0  0  0  0  0  0
   26.3672  -21.9083   -8.2152 C   0  0  0  0  0  0  0  0  0  0  0  0
   26.0652  -20.4546   -8.5120 C   0  0  1  0  0  0  0  0  0  0  0  0
   26.5624  -19.6558   -7.3121 C   0  0  0  0  0  0  0  0  0  0  0  0
   26.8615  -20.0722   -9.7259 C   0  0  0  0  0  0  0  0  0  0  0  0
   26.2778  -20.6539  -11.0095 C   0  0  2  0  0  0  0  0  0  0  0  0
   26.8814  -19.9948  -12.1757 N   0  0  0  0  0  0  0  0  0  0  0  0
   24.8475  -20.2607  -10.9980 C   0  0  0  0  0  0  0  0  0  0  0  0
   24.5556  -19.0741  -10.7160 O   0  0  0  0  0  0  0  0  0  0  0  0
   23.8013  -21.1796  -11.2945 N   0  0  0  0  0  0  0  0  0  0  0  0
   22.5721  -20.6473  -11.8306 C   0  0  1  0  0  0  0  0  0  0  0  0
   22.3195  -21.2275  -13.1923 C   0  0  0  0  0  0  0  0  0  0  0  0
   21.0285  -20.7678  -13.7326 C   0  0  0  0  0  0  0  0  0  0  0  0
   20.3558  -19.9032  -13.1411 O   0  0  0  0  0  0  0  0  0  0  0  0
   21.3886  -21.0632  -10.9922 C   0  0  0  0  0  0  0  0  0  0  0  0
   20.2633  -20.6667  -11.3808 O   0  0  0  0  0  0  0  0  0  0  0  0
   20.5792  -21.3271  -14.9255 O   0  0  0  0  0  0  0  0  0  0  0  0
   21.5719  -21.8307   -9.8767 O   0  0  0  0  0  0  0  0  0  0  0  0
  1  2  1  0
  3  4  1  0
  3  2  1  0
  5  4  1  0
  5  6  1  1
  7  5  1  0
  8  7  2  0
 10  9  1  1
 11 10  1  0
 12 10  1  0
 13 12  1  1
 13 14  1  0
 14  7  1  0
 15 13  1  0
 15 17  1  0
 16 15  2  0
 18 19  1  6
 18 22  1  0
 18 17  1  0
 19 20  1  0
 20 24  1  0
 20 21  2  0
 22 25  1  0
 23 22  2  0
M  END
$$$$
