MLD.pdb
     RDKit          3D

 25 24  0  0  1  0  0  0  0  0999 V2000
   10.3681  -20.9851    0.9159 C   0  0  0  0  0  0  0  0  0  0  0  0
   11.8585  -20.2440    1.6470 S   0  0  0  0  0  0  0  0  0  0  0  0
   13.0443  -21.5171    2.1216 C   0  0  0  0  0  0  0  0  0  0  0  0
   14.1917  -20.9231    2.8501 C   0  0  0  0  0  0  0  0  0  0  0  0
   15.0936  -19.9983    2.1235 C   0  0  2  0  0  0  0  0  0  0  0  0
   15.6951  -20.7514    0.9938 N   0  0  0  0  0  0  0  0  0  0  0  0
   16.1953  -19.3915    2.8671 C   0  0  0  0  0  0  0  0  0  0  0  0
   17.3225  -19.9721    2.9661 O   0  0  0  0  0  0  0  0  0  0  0  0
   17.8971  -14.3244    2.3432 C   0  0  0  0  0  0  0  0  0  0  0  0
   17.8849  -15.8168    2.5981 C   0  0  1  0  0  0  0  0  0  0  0  0
   19.3434  -16.2528    2.6849 C   0  0  0  0  0  0  0  0  0  0  0  0
   17.2222  -16.0371    3.9270 C   0  0  0  0  0  0  0  0  0  0  0  0
   17.1071  -17.5167    4.2797 C   0  0  2  0  0  0  0  0  0  0  0  0
   16.0279  -18.1339    3.4967 N   0  0  0  0  0  0  0  0  0  0  0  0
   16.6675  -17.5445    5.6963 C   0  0  0  0  0  0  0  0  0  0  0  0
   15.4681  -17.2858    5.9555 O   0  0  0  0  0  0  0  0  0  0  0  0
   17.5560  -17.8532    6.7648 N   0  0  0  0  0  0  0  0  0  0  0  0
   17.0442  -17.7637    8.1109 C   0  0  1  0  0  0  0  0  0  0  0  0
   17.8465  -18.6508    9.0186 C   0  0  0  0  0  0  0  0  0  0  0  0
   17.6370  -20.0716    8.6911 C   0  0  0  0  0  0  0  0  0  0  0  0
   16.5035  -20.5072    8.4164 O   0  0  0  0  0  0  0  0  0  0  0  0
   17.2105  -16.3697    8.6637 C   0  0  0  0  0  0  0  0  0  0  0  0
   17.7875  -15.5401    7.9198 O   0  0  0  0  0  0  0  0  0  0  0  0
   18.7429  -20.9170    8.6970 O   0  0  0  0  0  0  0  0  0  0  0  0
   16.7447  -16.0647    9.9116 O   0  0  0  0  0  0  0  0  0  0  0  0
  1  2  1  0
  3  4  1  0
  3  2  1  0
  5  4  1  0
  5  6  1  6
  7  5  1  0
  8  7  2  0
 10  9  1  1
 11 10  1  0
 12 10  1  0
 13 12  1  6
 13 14  1  0
 14  7  1  0
 15 13  1  0
 15 17  1  0
 16 15  2  0
 18 19  1  1
 18 22  1  0
 18 17  1  0
 19 20  1  0
 20 24  1  0
 20 21  2  0
 22 25  1  0
 23 22  2  0
M  END
$$$$
