MLD.pdb
     RDKit          3D

 25 24  0  0  1  0  0  0  0  0999 V2000
   17.1921  -16.3970  -18.8919 C   0  0  0  0  0  0  0  0  0  0  0  0
   17.7839  -15.2674  -17.5961 S   0  0  0  0  0  0  0  0  0  0  0  0
   18.5314  -13.7938  -18.3186 C   0  0  0  0  0  0  0  0  0  0  0  0
   19.1599  -12.9538  -17.2700 C   0  0  0  0  0  0  0  0  0  0  0  0
   19.8289  -11.6945  -17.6738 C   0  0  2  0  0  0  0  0  0  0  0  0
   20.6307  -11.9809  -18.8905 N   0  0  0  0  0  0  0  0  0  0  0  0
   20.7251  -11.0566  -16.7121 C   0  0  0  0  0  0  0  0  0  0  0  0
   20.3122  -10.6978  -15.5639 O   0  0  0  0  0  0  0  0  0  0  0  0
   25.4750  -10.3421  -14.3735 C   0  0  0  0  0  0  0  0  0  0  0  0
   25.4260   -9.6264  -15.7069 C   0  0  1  0  0  0  0  0  0  0  0  0
   26.8193   -9.7476  -16.3144 C   0  0  0  0  0  0  0  0  0  0  0  0
   24.4430  -10.3609  -16.5717 C   0  0  0  0  0  0  0  0  0  0  0  0
   23.0048  -10.1814  -16.0964 C   0  0  2  0  0  0  0  0  0  0  0  0
   22.0826  -10.8243  -17.0425 N   0  0  0  0  0  0  0  0  0  0  0  0
   22.7469   -8.7231  -16.1833 C   0  0  0  0  0  0  0  0  0  0  0  0
   23.0598   -8.1222  -17.2386 O   0  0  0  0  0  0  0  0  0  0  0  0
   22.1595   -7.9873  -15.1154 N   0  0  0  0  0  0  0  0  0  0  0  0
   22.0544   -6.5560  -15.2643 C   0  0  1  0  0  0  0  0  0  0  0  0
   20.6624   -6.1919  -15.6940 C   0  0  0  0  0  0  0  0  0  0  0  0
   20.5129   -4.7321  -15.8226 C   0  0  0  0  0  0  0  0  0  0  0  0
   21.4980   -4.0018  -16.0374 O   0  0  0  0  0  0  0  0  0  0  0  0
   22.2621   -5.8557  -13.9442 C   0  0  0  0  0  0  0  0  0  0  0  0
   22.4022   -4.6096  -13.9902 O   0  0  0  0  0  0  0  0  0  0  0  0
   19.2373   -4.1890  -15.6973 O   0  0  0  0  0  0  0  0  0  0  0  0
   22.2903   -6.5735  -12.7818 O   0  0  0  0  0  0  0  0  0  0  0  0
  1  2  1  0
  3  4  1  0
  3  2  1  0
  5  4  1  0
  5  6  1  6
  7  5  1  0
  8  7  2  0
 10  9  1  1
 11 10  1  0
 12 10  1  0
 13 12  1  6
 13 14  1  0
 14  7  1  0
 15 13  1  0
 15 17  1  0
 16 15  2  0
 18 19  1  1
 18 22  1  0
 18 17  1  0
 19 20  1  0
 20 24  1  0
 20 21  2  0
 22 25  1  0
 23 22  2  0
M  END
$$$$
