MLD.pdb
     RDKit          3D

 25 24  0  0  1  0  0  0  0  0999 V2000
   20.7001  -16.5094  -17.0931 C   0  0  0  0  0  0  0  0  0  0  0  0
   21.9786  -15.2175  -17.0534 S   0  0  0  0  0  0  0  0  0  0  0  0
   23.6260  -15.9445  -16.9552 C   0  0  0  0  0  0  0  0  0  0  0  0
   23.5711  -17.2924  -16.3388 C   0  0  0  0  0  0  0  0  0  0  0  0
   24.8440  -17.9904  -16.0403 C   0  0  2  0  0  0  0  0  0  0  0  0
   25.6433  -18.0232  -17.2914 N   0  0  0  0  0  0  0  0  0  0  0  0
   24.7721  -19.3625  -15.5432 C   0  0  0  0  0  0  0  0  0  0  0  0
   24.8392  -20.3550  -16.3356 O   0  0  0  0  0  0  0  0  0  0  0  0
   27.2688  -20.4373  -12.7447 C   0  0  0  0  0  0  0  0  0  0  0  0
   26.4068  -21.4098  -11.9676 C   0  0  1  0  0  0  0  0  0  0  0  0
   26.7862  -21.2467  -10.4998 C   0  0  0  0  0  0  0  0  0  0  0  0
   24.9779  -20.9911  -12.1593 C   0  0  0  0  0  0  0  0  0  0  0  0
   24.5672  -20.9852  -13.6283 C   0  0  2  0  0  0  0  0  0  0  0  0
   24.6259  -19.6157  -14.1574 N   0  0  0  0  0  0  0  0  0  0  0  0
   23.1363  -21.3764  -13.6324 C   0  0  0  0  0  0  0  0  0  0  0  0
   22.8363  -22.5509  -13.3115 O   0  0  0  0  0  0  0  0  0  0  0  0
   22.0983  -20.4685  -13.9863 N   0  0  0  0  0  0  0  0  0  0  0  0
   20.7483  -20.9759  -14.0294 C   0  0  1  0  0  0  0  0  0  0  0  0
   19.8762  -20.1759  -13.1052 C   0  0  0  0  0  0  0  0  0  0  0  0
   18.4940  -20.6851  -13.1086 C   0  0  0  0  0  0  0  0  0  0  0  0
   17.5728  -20.0397  -13.6422 O   0  0  0  0  0  0  0  0  0  0  0  0
   20.1454  -20.8002  -15.4013 C   0  0  0  0  0  0  0  0  0  0  0  0
   20.6687  -19.9247  -16.1322 O   0  0  0  0  0  0  0  0  0  0  0  0
   18.2441  -21.9106  -12.4975 O   0  0  0  0  0  0  0  0  0  0  0  0
   19.0869  -21.5713  -15.7912 O   0  0  0  0  0  0  0  0  0  0  0  0
  1  2  1  0
  3  4  1  0
  3  2  1  0
  5  4  1  0
  5  6  1  6
  7  5  1  0
  8  7  2  0
 10  9  1  6
 11 10  1  0
 12 10  1  0
 13 12  1  1
 13 14  1  0
 14  7  1  0
 15 13  1  0
 15 17  1  0
 16 15  2  0
 18 19  1  1
 18 22  1  0
 18 17  1  0
 19 20  1  0
 20 24  1  0
 20 21  2  0
 22 25  1  0
 23 22  2  0
M  END
$$$$
