MLD.pdb
     RDKit          3D

 25 24  0  0  1  0  0  0  0  0999 V2000
   30.2846  -17.7595  -18.1018 C   0  0  0  0  0  0  0  0  0  0  0  0
   29.2786  -18.9291  -17.1399 S   0  0  0  0  0  0  0  0  0  0  0  0
   27.7374  -18.1625  -16.6022 C   0  0  0  0  0  0  0  0  0  0  0  0
   26.8937  -19.1355  -15.8664 C   0  0  0  0  0  0  0  0  0  0  0  0
   27.5476  -20.0735  -14.9235 C   0  0  2  0  0  0  0  0  0  0  0  0
   28.3321  -21.0453  -15.7268 N   0  0  0  0  0  0  0  0  0  0  0  0
   26.6934  -20.8505  -14.0282 C   0  0  0  0  0  0  0  0  0  0  0  0
   26.3595  -22.0454  -14.3079 O   0  0  0  0  0  0  0  0  0  0  0  0
   26.2101  -19.8453   -8.5137 C   0  0  0  0  0  0  0  0  0  0  0  0
   26.3555  -20.5849   -9.8269 C   0  0  1  0  0  0  0  0  0  0  0  0
   26.4176  -22.0690   -9.4829 C   0  0  0  0  0  0  0  0  0  0  0  0
   25.1168  -20.3143  -10.6309 C   0  0  0  0  0  0  0  0  0  0  0  0
   25.1776  -20.9430  -12.0193 C   0  0  2  0  0  0  0  0  0  0  0  0
   26.2174  -20.2834  -12.8208 N   0  0  0  0  0  0  0  0  0  0  0  0
   23.8801  -20.6058  -12.6546 C   0  0  0  0  0  0  0  0  0  0  0  0
   23.7585  -19.4878  -13.2094 O   0  0  0  0  0  0  0  0  0  0  0  0
   22.7752  -21.5035  -12.6557 N   0  0  0  0  0  0  0  0  0  0  0  0
   21.7356  -21.2875  -13.6326 C   0  0  1  0  0  0  0  0  0  0  0  0
   21.9194  -22.2313  -14.7860 C   0  0  0  0  0  0  0  0  0  0  0  0
   20.8520  -22.0591  -15.7863 C   0  0  0  0  0  0  0  0  0  0  0  0
   19.9190  -21.2565  -15.5987 O   0  0  0  0  0  0  0  0  0  0  0  0
   20.3774  -21.6126  -13.0616 C   0  0  0  0  0  0  0  0  0  0  0  0
   20.3628  -22.1324  -11.9195 O   0  0  0  0  0  0  0  0  0  0  0  0
   20.9140  -22.8197  -16.9506 O   0  0  0  0  0  0  0  0  0  0  0  0
   19.2467  -21.3412  -13.7792 O   0  0  0  0  0  0  0  0  0  0  0  0
  1  2  1  0
  3  4  1  0
  3  2  1  0
  5  4  1  0
  5  6  1  6
  7  5  1  0
  8  7  2  0
 10  9  1  1
 11 10  1  0
 12 10  1  0
 13 12  1  1
 13 14  1  0
 14  7  1  0
 15 13  1  0
 15 17  1  0
 16 15  2  0
 18 19  1  6
 18 22  1  0
 18 17  1  0
 19 20  1  0
 20 24  1  0
 20 21  2  0
 22 25  1  0
 23 22  2  0
M  END
$$$$
