MLD.pdb
     RDKit          3D

 25 24  0  0  1  0  0  0  0  0999 V2000
   33.6276  -23.4125   -7.7639 C   0  0  0  0  0  0  0  0  0  0  0  0
   33.8320  -23.4140   -9.5704 S   0  0  0  0  0  0  0  0  0  0  0  0
   32.5832  -22.3806  -10.3607 C   0  0  0  0  0  0  0  0  0  0  0  0
   31.2647  -22.5517   -9.7032 C   0  0  0  0  0  0  0  0  0  0  0  0
   30.1121  -21.7672  -10.2058 C   0  0  2  0  0  0  0  0  0  0  0  0
   30.5386  -20.3475  -10.2948 N   0  0  0  0  0  0  0  0  0  0  0  0
   28.8750  -21.7937   -9.4288 C   0  0  0  0  0  0  0  0  0  0  0  0
   28.1484  -22.8365   -9.3816 O   0  0  0  0  0  0  0  0  0  0  0  0
   28.4464  -18.6003   -4.9918 C   0  0  0  0  0  0  0  0  0  0  0  0
   28.4630  -19.7328   -5.9966 C   0  0  1  0  0  0  0  0  0  0  0  0
   28.3469  -21.0244   -5.1945 C   0  0  0  0  0  0  0  0  0  0  0  0
   27.2475  -19.5775   -6.8640 C   0  0  0  0  0  0  0  0  0  0  0  0
   27.1866  -20.6258   -7.9703 C   0  0  2  0  0  0  0  0  0  0  0  0
   28.4580  -20.6491   -8.7063 N   0  0  0  0  0  0  0  0  0  0  0  0
   26.1606  -20.1286   -8.9195 C   0  0  0  0  0  0  0  0  0  0  0  0
   25.9650  -18.8922   -8.9953 O   0  0  0  0  0  0  0  0  0  0  0  0
   25.3953  -21.0026   -9.7423 N   0  0  0  0  0  0  0  0  0  0  0  0
   24.4653  -20.4075  -10.6712 C   0  0  1  0  0  0  0  0  0  0  0  0
   24.4174  -21.2212  -11.9323 C   0  0  0  0  0  0  0  0  0  0  0  0
   24.7300  -20.3926  -13.1093 C   0  0  0  0  0  0  0  0  0  0  0  0
   24.8396  -19.1561  -13.0137 O   0  0  0  0  0  0  0  0  0  0  0  0
   23.0594  -20.4334  -10.1242 C   0  0  0  0  0  0  0  0  0  0  0  0
   22.8943  -21.0431   -9.0400 O   0  0  0  0  0  0  0  0  0  0  0  0
   24.9002  -21.0302  -14.3350 O   0  0  0  0  0  0  0  0  0  0  0  0
   22.0465  -19.8150  -10.8015 O   0  0  0  0  0  0  0  0  0  0  0  0
  1  2  1  0
  3  4  1  0
  3  2  1  0
  5  4  1  0
  5  6  1  1
  7  5  1  0
  8  7  2  0
 10  9  1  1
 11 10  1  0
 12 10  1  0
 13 12  1  1
 13 14  1  0
 14  7  1  0
 15 13  1  0
 15 17  1  0
 16 15  2  0
 18 19  1  6
 18 22  1  0
 18 17  1  0
 19 20  1  0
 20 24  1  0
 20 21  2  0
 22 25  1  0
 23 22  2  0
M  END
$$$$
