MLD.pdb
     RDKit          3D

 25 24  0  0  1  0  0  0  0  0999 V2000
   25.5966  -16.2935  -17.5576 C   0  0  0  0  0  0  0  0  0  0  0  0
   27.2381  -15.7996  -16.9518 S   0  0  0  0  0  0  0  0  0  0  0  0
   28.0530  -17.1703  -16.1097 C   0  0  0  0  0  0  0  0  0  0  0  0
   27.0583  -18.1614  -15.6322 C   0  0  0  0  0  0  0  0  0  0  0  0
   27.5367  -19.3377  -14.8680 C   0  0  2  0  0  0  0  0  0  0  0  0
   28.3344  -20.1816  -15.7936 N   0  0  0  0  0  0  0  0  0  0  0  0
   26.5366  -20.2069  -14.2522 C   0  0  0  0  0  0  0  0  0  0  0  0
   26.1804  -21.2961  -14.8039 O   0  0  0  0  0  0  0  0  0  0  0  0
   25.8260  -20.5032   -8.6701 C   0  0  0  0  0  0  0  0  0  0  0  0
   26.0515  -20.8472  -10.1273 C   0  0  1  0  0  0  0  0  0  0  0  0
   26.1336  -22.3678  -10.2051 C   0  0  0  0  0  0  0  0  0  0  0  0
   24.8462  -20.3766  -10.8886 C   0  0  0  0  0  0  0  0  0  0  0  0
   24.9338  -20.7066  -12.3752 C   0  0  2  0  0  0  0  0  0  0  0  0
   25.9401  -19.8505  -13.0180 N   0  0  0  0  0  0  0  0  0  0  0  0
   23.6208  -20.3078  -12.9388 C   0  0  0  0  0  0  0  0  0  0  0  0
   23.3109  -19.0927  -12.9314 O   0  0  0  0  0  0  0  0  0  0  0  0
   22.7062  -21.2526  -13.4846 N   0  0  0  0  0  0  0  0  0  0  0  0
   21.4506  -20.7554  -13.9925 C   0  0  1  0  0  0  0  0  0  0  0  0
   20.9450  -21.6659  -15.0743 C   0  0  0  0  0  0  0  0  0  0  0  0
   19.6735  -21.1722  -15.6304 C   0  0  0  0  0  0  0  0  0  0  0  0
   19.1996  -20.0767  -15.2764 O   0  0  0  0  0  0  0  0  0  0  0  0
   20.3863  -20.7743  -12.9232 C   0  0  0  0  0  0  0  0  0  0  0  0
   20.4470  -21.7132  -12.0929 O   0  0  0  0  0  0  0  0  0  0  0  0
   19.0136  -21.9651  -16.5651 O   0  0  0  0  0  0  0  0  0  0  0  0
   19.4244  -19.8043  -12.8931 O   0  0  0  0  0  0  0  0  0  0  0  0
  1  2  1  0
  3  4  1  0
  3  2  1  0
  5  4  1  0
  5  6  1  6
  7  5  1  0
  8  7  2  0
 10  9  1  1
 11 10  1  0
 12 10  1  0
 13 12  1  1
 13 14  1  0
 14  7  1  0
 15 13  1  0
 15 17  1  0
 16 15  2  0
 18 19  1  6
 18 22  1  0
 18 17  1  0
 19 20  1  0
 20 24  1  0
 20 21  2  0
 22 25  1  0
 23 22  2  0
M  END
$$$$
