MLD.pdb
     RDKit          3D

 25 24  0  0  1  0  0  0  0  0999 V2000
   29.4728  -18.9722  -18.0332 C   0  0  0  0  0  0  0  0  0  0  0  0
   28.5248  -17.4813  -17.6043 S   0  0  0  0  0  0  0  0  0  0  0  0
   27.9960  -17.5280  -15.8808 C   0  0  0  0  0  0  0  0  0  0  0  0
   27.4144  -18.8502  -15.5439 C   0  0  0  0  0  0  0  0  0  0  0  0
   25.9437  -18.9645  -15.4006 C   0  0  2  0  0  0  0  0  0  0  0  0
   25.4811  -17.8174  -14.5786 N   0  0  0  0  0  0  0  0  0  0  0  0
   25.4081  -20.1757  -14.7834 C   0  0  0  0  0  0  0  0  0  0  0  0
   25.4864  -21.3029  -15.3671 O   0  0  0  0  0  0  0  0  0  0  0  0
   25.5384  -20.4097   -9.4291 C   0  0  0  0  0  0  0  0  0  0  0  0
   25.6326  -20.6575  -10.9198 C   0  0  1  0  0  0  0  0  0  0  0  0
   26.7047  -21.7242  -11.1141 C   0  0  0  0  0  0  0  0  0  0  0  0
   24.3064  -21.2010  -11.3665 C   0  0  0  0  0  0  0  0  0  0  0  0
   24.2067  -21.3127  -12.8845 C   0  0  2  0  0  0  0  0  0  0  0  0
   24.7868  -20.1174  -13.5119 N   0  0  0  0  0  0  0  0  0  0  0  0
   22.7536  -21.2797  -13.1811 C   0  0  0  0  0  0  0  0  0  0  0  0
   22.0243  -22.1794  -12.7000 O   0  0  0  0  0  0  0  0  0  0  0  0
   22.1627  -20.2671  -13.9886 N   0  0  0  0  0  0  0  0  0  0  0  0
   20.7548  -20.3800  -14.2837 C   0  0  1  0  0  0  0  0  0  0  0  0
   20.0797  -19.0597  -14.0474 C   0  0  0  0  0  0  0  0  0  0  0  0
   18.6392  -19.1410  -14.3441 C   0  0  0  0  0  0  0  0  0  0  0  0
   17.9675  -20.1315  -14.0011 O   0  0  0  0  0  0  0  0  0  0  0  0
   20.5287  -20.6900  -15.7428 C   0  0  0  0  0  0  0  0  0  0  0  0
   21.4917  -20.4670  -16.5159 O   0  0  0  0  0  0  0  0  0  0  0  0
   18.0469  -18.0781  -15.0202 O   0  0  0  0  0  0  0  0  0  0  0  0
   19.3264  -21.1857  -16.1623 O   0  0  0  0  0  0  0  0  0  0  0  0
  1  2  1  0
  3  4  1  0
  3  2  1  0
  5  4  1  0
  5  6  1  1
  7  5  1  0
  8  7  2  0
 10  9  1  1
 11 10  1  0
 12 10  1  0
 13 12  1  1
 13 14  1  0
 14  7  1  0
 15 13  1  0
 15 17  1  0
 16 15  2  0
 18 19  1  6
 18 22  1  0
 18 17  1  0
 19 20  1  0
 20 24  1  0
 20 21  2  0
 22 25  1  0
 23 22  2  0
M  END
$$$$
