MLD.pdb
     RDKit          3D

 25 24  0  0  1  0  0  0  0  0999 V2000
   27.3351  -19.8780  -19.7298 C   0  0  0  0  0  0  0  0  0  0  0  0
   27.7719  -18.5894  -18.5240 S   0  0  0  0  0  0  0  0  0  0  0  0
   28.7068  -19.2853  -17.1479 C   0  0  0  0  0  0  0  0  0  0  0  0
   27.8457  -20.1599  -16.3149 C   0  0  0  0  0  0  0  0  0  0  0  0
   26.5844  -19.6047  -15.7696 C   0  0  2  0  0  0  0  0  0  0  0  0
   26.9373  -18.4484  -14.9073 N   0  0  0  0  0  0  0  0  0  0  0  0
   25.7356  -20.4881  -14.9732 C   0  0  0  0  0  0  0  0  0  0  0  0
   25.3017  -21.5866  -15.4448 O   0  0  0  0  0  0  0  0  0  0  0  0
   26.1060  -20.3570   -9.4559 C   0  0  0  0  0  0  0  0  0  0  0  0
   26.0619  -20.7710  -10.9117 C   0  0  1  0  0  0  0  0  0  0  0  0
   26.4763  -22.2377  -10.9570 C   0  0  0  0  0  0  0  0  0  0  0  0
   24.6374  -20.6445  -11.3685 C   0  0  0  0  0  0  0  0  0  0  0  0
   24.4719  -20.9714  -12.8492 C   0  0  2  0  0  0  0  0  0  0  0  0
   25.3773  -20.1353  -13.6491 N   0  0  0  0  0  0  0  0  0  0  0  0
   23.0932  -20.5422  -13.1892 C   0  0  0  0  0  0  0  0  0  0  0  0
   22.7125  -19.4056  -12.8208 O   0  0  0  0  0  0  0  0  0  0  0  0
   22.1931  -21.3725  -13.9155 N   0  0  0  0  0  0  0  0  0  0  0  0
   20.8947  -20.8328  -14.2393 C   0  0  1  0  0  0  0  0  0  0  0  0
   20.7414  -20.7408  -15.7303 C   0  0  0  0  0  0  0  0  0  0  0  0
   19.4391  -20.1561  -16.0934 C   0  0  0  0  0  0  0  0  0  0  0  0
   18.6678  -19.7140  -15.2219 O   0  0  0  0  0  0  0  0  0  0  0  0
   19.7929  -21.7553  -13.7796 C   0  0  0  0  0  0  0  0  0  0  0  0
   20.0968  -22.9660  -13.6512 O   0  0  0  0  0  0  0  0  0  0  0  0
   19.0923  -20.1108  -17.4408 O   0  0  0  0  0  0  0  0  0  0  0  0
   18.5440  -21.2622  -13.5265 O   0  0  0  0  0  0  0  0  0  0  0  0
  1  2  1  0
  3  4  1  0
  3  2  1  0
  5  4  1  0
  5  6  1  1
  7  5  1  0
  8  7  2  0
 10  9  1  1
 11 10  1  0
 12 10  1  0
 13 12  1  1
 13 14  1  0
 14  7  1  0
 15 13  1  0
 15 17  1  0
 16 15  2  0
 18 19  1  6
 18 22  1  0
 18 17  1  0
 19 20  1  0
 20 24  1  0
 20 21  2  0
 22 25  1  0
 23 22  2  0
M  END
$$$$
