MLD.pdb
     RDKit          3D

 25 24  0  0  1  0  0  0  0  0999 V2000
   23.0767   -9.8457  -15.0724 C   0  0  0  0  0  0  0  0  0  0  0  0
   21.5369   -9.0847  -14.4765 S   0  0  0  0  0  0  0  0  0  0  0  0
   20.1306  -10.1812  -14.7451 C   0  0  0  0  0  0  0  0  0  0  0  0
   18.8793   -9.5669  -14.2383 C   0  0  0  0  0  0  0  0  0  0  0  0
   18.9532   -8.6716  -13.0595 C   0  0  2  0  0  0  0  0  0  0  0  0
   19.4432   -9.4774  -11.9125 N   0  0  0  0  0  0  0  0  0  0  0  0
   17.7251   -8.0107  -12.6237 C   0  0  0  0  0  0  0  0  0  0  0  0
   16.9536   -7.4377  -13.4567 O   0  0  0  0  0  0  0  0  0  0  0  0
   13.5786   -7.5376   -9.2790 C   0  0  0  0  0  0  0  0  0  0  0  0
   14.7871   -6.8042   -8.7367 C   0  0  1  0  0  0  0  0  0  0  0  0
   14.7479   -6.9673   -7.2212 C   0  0  0  0  0  0  0  0  0  0  0  0
   16.0066   -7.4927   -9.2776 C   0  0  0  0  0  0  0  0  0  0  0  0
   16.1776   -7.2762  -10.7778 C   0  0  2  0  0  0  0  0  0  0  0  0
   17.3667   -7.9962  -11.2536 N   0  0  0  0  0  0  0  0  0  0  0  0
   16.4730   -5.8303  -10.9296 C   0  0  0  0  0  0  0  0  0  0  0  0
   17.6465   -5.4355  -10.7305 O   0  0  0  0  0  0  0  0  0  0  0  0
   15.4751   -4.8818  -11.2917 N   0  0  0  0  0  0  0  0  0  0  0  0
   15.9060   -3.5418  -11.6089 C   0  0  1  0  0  0  0  0  0  0  0  0
   16.7152   -3.5554  -12.8738 C   0  0  0  0  0  0  0  0  0  0  0  0
   17.1306   -2.1936  -13.2513 C   0  0  0  0  0  0  0  0  0  0  0  0
   16.8364   -1.2127  -12.5433 O   0  0  0  0  0  0  0  0  0  0  0  0
   14.7269   -2.6459  -11.8975 C   0  0  0  0  0  0  0  0  0  0  0  0
   13.7048   -3.2032  -12.3658 O   0  0  0  0  0  0  0  0  0  0  0  0
   17.8632   -2.0316  -14.4239 O   0  0  0  0  0  0  0  0  0  0  0  0
   14.8053   -1.3045  -11.6491 O   0  0  0  0  0  0  0  0  0  0  0  0
  1  2  1  0
  3  4  1  0
  3  2  1  0
  5  4  1  0
  5  6  1  1
  7  5  1  0
  8  7  2  0
 10  9  1  6
 11 10  1  0
 12 10  1  0
 13 12  1  1
 13 14  1  0
 14  7  1  0
 15 13  1  0
 15 17  1  0
 16 15  2  0
 18 19  1  6
 18 22  1  0
 18 17  1  0
 19 20  1  0
 20 24  1  0
 20 21  2  0
 22 25  1  0
 23 22  2  0
M  END
$$$$
