MLD.pdb
     RDKit          3D

 25 24  0  0  1  0  0  0  0  0999 V2000
   28.6465  -23.9172  -16.8426 C   0  0  0  0  0  0  0  0  0  0  0  0
   28.0572  -22.3520  -17.5554 S   0  0  0  0  0  0  0  0  0  0  0  0
   28.6529  -20.9440  -16.5989 C   0  0  0  0  0  0  0  0  0  0  0  0
   28.4075  -21.1494  -15.1506 C   0  0  0  0  0  0  0  0  0  0  0  0
   27.0639  -20.8412  -14.6062 C   0  0  2  0  0  0  0  0  0  0  0  0
   26.9221  -19.3635  -14.5675 N   0  0  0  0  0  0  0  0  0  0  0  0
   26.7359  -21.3369  -13.2715 C   0  0  0  0  0  0  0  0  0  0  0  0
   26.6789  -22.5836  -13.0269 O   0  0  0  0  0  0  0  0  0  0  0  0
   26.9411  -21.3214   -7.9499 C   0  0  0  0  0  0  0  0  0  0  0  0
   25.9968  -20.2507   -8.4541 C   0  0  1  0  0  0  0  0  0  0  0  0
   26.1554  -19.0581   -7.5174 C   0  0  0  0  0  0  0  0  0  0  0  0
   26.4548  -19.8639   -9.8305 C   0  0  0  0  0  0  0  0  0  0  0  0
   26.0708  -20.8997  -10.8822 C   0  0  2  0  0  0  0  0  0  0  0  0
   26.4736  -20.4306  -12.2150 N   0  0  0  0  0  0  0  0  0  0  0  0
   24.5876  -20.9265  -10.8766 C   0  0  0  0  0  0  0  0  0  0  0  0
   24.0010  -21.3572   -9.8553 O   0  0  0  0  0  0  0  0  0  0  0  0
   23.8125  -20.4822  -11.9850 N   0  0  0  0  0  0  0  0  0  0  0  0
   22.3792  -20.6265  -11.9029 C   0  0  1  0  0  0  0  0  0  0  0  0
   21.7131  -19.4182  -12.4954 C   0  0  0  0  0  0  0  0  0  0  0  0
   20.2495  -19.4943  -12.3471 C   0  0  0  0  0  0  0  0  0  0  0  0
   19.7163  -20.4155  -11.7013 O   0  0  0  0  0  0  0  0  0  0  0  0
   21.9023  -21.7936  -12.7317 C   0  0  0  0  0  0  0  0  0  0  0  0
   20.6898  -22.0974  -12.6210 O   0  0  0  0  0  0  0  0  0  0  0  0
   19.4760  -18.5062  -12.9496 O   0  0  0  0  0  0  0  0  0  0  0  0
   22.7733  -22.4593  -13.5474 O   0  0  0  0  0  0  0  0  0  0  0  0
  1  2  1  0
  3  4  1  0
  3  2  1  0
  5  4  1  0
  5  6  1  1
  7  5  1  0
  8  7  2  0
 10  9  1  1
 11 10  1  0
 12 10  1  0
 13 12  1  1
 13 14  1  0
 14  7  1  0
 15 13  1  0
 15 17  1  0
 16 15  2  0
 18 19  1  6
 18 22  1  0
 18 17  1  0
 19 20  1  0
 20 24  1  0
 20 21  2  0
 22 25  1  0
 23 22  2  0
M  END
$$$$
