MLD.pdb
     RDKit          3D

 25 24  0  0  1  0  0  0  0  0999 V2000
   18.2283  -12.3754  -23.0123 C   0  0  0  0  0  0  0  0  0  0  0  0
   17.8664  -11.3670  -21.5434 S   0  0  0  0  0  0  0  0  0  0  0  0
   18.6693  -12.0495  -20.0799 C   0  0  0  0  0  0  0  0  0  0  0  0
   18.4785  -11.1576  -18.9102 C   0  0  0  0  0  0  0  0  0  0  0  0
   19.1413  -11.5095  -17.6321 C   0  0  2  0  0  0  0  0  0  0  0  0
   18.4968  -12.7437  -17.1158 N   0  0  0  0  0  0  0  0  0  0  0  0
   19.1093  -10.5268  -16.5513 C   0  0  0  0  0  0  0  0  0  0  0  0
   18.0647  -10.3561  -15.8462 O   0  0  0  0  0  0  0  0  0  0  0  0
   23.3060   -9.4475  -13.1188 C   0  0  0  0  0  0  0  0  0  0  0  0
   21.8717   -9.6133  -13.5746 C   0  0  1  0  0  0  0  0  0  0  0  0
   20.9972   -9.3613  -12.3511 C   0  0  0  0  0  0  0  0  0  0  0  0
   21.6043   -8.5516  -14.6017 C   0  0  0  0  0  0  0  0  0  0  0  0
   20.2238   -8.6917  -15.2350 C   0  0  2  0  0  0  0  0  0  0  0  0
   20.2512   -9.7392  -16.2650 N   0  0  0  0  0  0  0  0  0  0  0  0
   19.9911   -7.4101  -15.9451 C   0  0  0  0  0  0  0  0  0  0  0  0
   20.6810   -7.1553  -16.9608 O   0  0  0  0  0  0  0  0  0  0  0  0
   19.0167   -6.4656  -15.5147 N   0  0  0  0  0  0  0  0  0  0  0  0
   18.9116   -5.2277  -16.2485 C   0  0  1  0  0  0  0  0  0  0  0  0
   17.5401   -5.1087  -16.8482 C   0  0  0  0  0  0  0  0  0  0  0  0
   17.3910   -3.8397  -17.5811 C   0  0  0  0  0  0  0  0  0  0  0  0
   16.8443   -2.8534  -17.0536 O   0  0  0  0  0  0  0  0  0  0  0  0
   19.0520   -4.0385  -15.3307 C   0  0  0  0  0  0  0  0  0  0  0  0
   18.8096   -4.2400  -14.1161 O   0  0  0  0  0  0  0  0  0  0  0  0
   17.8792   -3.7720  -18.8830 O   0  0  0  0  0  0  0  0  0  0  0  0
   19.4251   -2.8233  -15.8319 O   0  0  0  0  0  0  0  0  0  0  0  0
  1  2  1  0
  3  4  1  0
  3  2  1  0
  5  4  1  0
  5  6  1  1
  7  5  1  0
  8  7  2  0
 10  9  1  1
 11 10  1  0
 12 10  1  0
 13 12  1  6
 13 14  1  0
 14  7  1  0
 15 13  1  0
 15 17  1  0
 16 15  2  0
 18 19  1  1
 18 22  1  0
 18 17  1  0
 19 20  1  0
 20 24  1  0
 20 21  2  0
 22 25  1  0
 23 22  2  0
M  END
$$$$
