ILW.pdb
     RDKit          3D

 31 32  0  0  1  0  0  0  0  0999 V2000
   10.8698  -21.0430   17.4905 C   0  0  0  0  0  0  0  0  0  0  0  0
   10.8870  -20.3778   18.8291 C   0  0  0  0  0  0  0  0  0  0  0  0
    9.6224  -20.3488   19.5877 C   0  0  2  0  0  0  0  0  0  0  0  0
    8.5288  -19.7326   18.7058 C   0  0  0  0  0  0  0  0  0  0  0  0
    9.6075  -19.6689   20.9085 C   0  0  2  0  0  0  0  0  0  0  0  0
    8.3194  -19.8831   21.5880 N   0  0  0  0  0  0  0  0  0  0  0  0
    9.9034  -18.2319   20.9119 C   0  0  0  0  0  0  0  0  0  0  0  0
   10.9727  -17.8011   20.4287 O   0  0  0  0  0  0  0  0  0  0  0  0
    6.3861  -13.2786   21.7285 C   0  0  0  0  0  0  0  0  0  0  0  0
    7.8618  -13.7261   21.6637 C   0  0  2  0  0  0  0  0  0  0  0  0
    8.4598  -12.9954   20.5139 C   0  0  0  0  0  0  0  0  0  0  0  0
    7.8422  -15.2029   21.5882 C   0  0  0  0  0  0  0  0  0  0  0  0
    9.1792  -15.8905   21.5566 C   0  0  2  0  0  0  0  0  0  0  0  0
    8.9662  -17.3192   21.4629 N   0  0  0  0  0  0  0  0  0  0  0  0
    9.8994  -15.6244   22.8586 C   0  0  0  0  0  0  0  0  0  0  0  0
   10.7330  -14.6939   22.9577 O   0  0  0  0  0  0  0  0  0  0  0  0
    9.6505  -16.4209   24.0012 N   0  0  0  0  0  0  0  0  0  0  0  0
   10.3684  -16.2400   25.2806 C   0  0  1  0  0  0  0  0  0  0  0  0
    9.4059  -16.1807   26.4079 C   0  0  0  0  0  0  0  0  0  0  0  0
    8.1249  -15.5458   26.0806 C   0  0  0  0  0  0  0  0  0  0  0  0
    6.9887  -16.1660   25.5714 C   0  0  0  0  0  0  0  0  0  0  0  0
    6.0227  -15.2583   25.3684 N   0  0  0  0  0  0  0  0  0  0  0  0
    6.4705  -14.0464   25.7248 C   0  0  0  0  0  0  0  0  0  0  0  0
    5.9202  -12.7753   25.7465 C   0  0  0  0  0  0  0  0  0  0  0  0
    6.6202  -11.6749   26.1934 C   0  0  0  0  0  0  0  0  0  0  0  0
    7.9220  -11.8319   26.6398 C   0  0  0  0  0  0  0  0  0  0  0  0
    8.4778  -13.0900   26.6215 C   0  0  0  0  0  0  0  0  0  0  0  0
    7.7873  -14.2057   26.1746 C   0  0  0  0  0  0  0  0  0  0  0  0
   11.4842  -17.1803   25.3758 C   0  0  0  0  0  0  0  0  0  0  0  0
   11.7776  -18.2016   24.4937 O   0  0  0  0  0  0  0  0  0  0  0  0
   12.2843  -17.0742   26.3688 O   0  0  0  0  0  0  0  0  0  0  0  0
  2  3  1  0
  2  1  1  0
  3  4  1  6
  5  3  1  0
  5  7  1  0
  5  6  1  6
  7  8  2  0
 10  9  1  6
 10 12  1  0
 11 10  1  0
 13 12  1  1
 13 15  1  0
 14 13  1  0
 14  7  1  0
 15 17  1  0
 16 15  2  0
 17 18  1  0
 18 19  1  1
 19 20  1  0
 20 21  2  0
 22 21  1  0
 23 22  1  0
 24 23  2  0
 25 24  1  0
 26 27  1  0
 26 25  2  0
 27 28  2  0
 28 23  1  0
 28 20  1  0
 29 30  1  0
 29 18  1  0
 31 29  2  0
M  END
$$$$
