ILW.pdb
     RDKit          3D

 31 32  0  0  1  0  0  0  0  0999 V2000
   10.2042  -22.9128   22.4214 C   0  0  0  0  0  0  0  0  0  0  0  0
    9.4155  -21.9984   21.5403 C   0  0  0  0  0  0  0  0  0  0  0  0
    9.7869  -20.5710   21.5396 C   0  0  2  0  0  0  0  0  0  0  0  0
    9.8177  -20.0655   22.9878 C   0  0  0  0  0  0  0  0  0  0  0  0
    8.9744  -19.6310   20.7251 C   0  0  2  0  0  0  0  0  0  0  0  0
    8.9155  -20.0764   19.3233 N   0  0  0  0  0  0  0  0  0  0  0  0
    9.3784  -18.2208   20.7498 C   0  0  0  0  0  0  0  0  0  0  0  0
   10.4688  -17.8624   20.2547 O   0  0  0  0  0  0  0  0  0  0  0  0
    6.2144  -13.0416   21.2745 C   0  0  0  0  0  0  0  0  0  0  0  0
    7.6534  -13.5890   21.3835 C   0  0  2  0  0  0  0  0  0  0  0  0
    8.4264  -12.9233   20.3004 C   0  0  0  0  0  0  0  0  0  0  0  0
    7.5401  -15.0623   21.3240 C   0  0  0  0  0  0  0  0  0  0  0  0
    8.8256  -15.8378   21.4112 C   0  0  2  0  0  0  0  0  0  0  0  0
    8.5229  -17.2513   21.3355 N   0  0  0  0  0  0  0  0  0  0  0  0
    9.4630  -15.5825   22.7578 C   0  0  0  0  0  0  0  0  0  0  0  0
    9.9945  -14.4790   23.0225 O   0  0  0  0  0  0  0  0  0  0  0  0
    9.4761  -16.5853   23.7558 N   0  0  0  0  0  0  0  0  0  0  0  0
   10.1699  -16.4230   25.0509 C   0  0  1  0  0  0  0  0  0  0  0  0
    9.2050  -16.5436   26.1713 C   0  0  0  0  0  0  0  0  0  0  0  0
    7.9613  -15.7885   25.9863 C   0  0  0  0  0  0  0  0  0  0  0  0
    6.7355  -16.2861   25.5565 C   0  0  0  0  0  0  0  0  0  0  0  0
    5.8390  -15.2919   25.4779 N   0  0  0  0  0  0  0  0  0  0  0  0
    6.4204  -14.1404   25.8415 C   0  0  0  0  0  0  0  0  0  0  0  0
    5.9877  -12.8301   25.9639 C   0  0  0  0  0  0  0  0  0  0  0  0
    6.8173  -11.8151   26.3904 C   0  0  0  0  0  0  0  0  0  0  0  0
    8.1339  -12.1019   26.7113 C   0  0  0  0  0  0  0  0  0  0  0  0
    8.5735  -13.3999   26.5923 C   0  0  0  0  0  0  0  0  0  0  0  0
    7.7519  -14.4309   26.1644 C   0  0  0  0  0  0  0  0  0  0  0  0
   11.3767  -17.2477   25.0889 C   0  0  0  0  0  0  0  0  0  0  0  0
   11.7729  -18.1712   24.1415 O   0  0  0  0  0  0  0  0  0  0  0  0
   12.1627  -17.1276   26.0916 O   0  0  0  0  0  0  0  0  0  0  0  0
  2  3  1  0
  2  1  1  0
  3  4  1  1
  5  3  1  0
  5  7  1  0
  5  6  1  6
  7  8  2  0
 10  9  1  6
 10 12  1  0
 11 10  1  0
 13 12  1  1
 13 15  1  0
 14 13  1  0
 14  7  1  0
 15 17  1  0
 16 15  2  0
 17 18  1  0
 18 19  1  1
 19 20  1  0
 20 21  2  0
 22 21  1  0
 23 22  1  0
 24 23  2  0
 25 24  1  0
 26 27  1  0
 26 25  2  0
 27 28  2  0
 28 23  1  0
 28 20  1  0
 29 30  1  0
 29 18  1  0
 31 29  2  0
M  END
$$$$
