ILW.pdb
     RDKit          3D

 31 32  0  0  1  0  0  0  0  0999 V2000
   11.9562  -19.4030   16.4193 C   0  0  0  0  0  0  0  0  0  0  0  0
   11.3000  -19.4759   17.7605 C   0  0  0  0  0  0  0  0  0  0  0  0
   11.1891  -18.2224   18.5297 C   0  0  2  0  0  0  0  0  0  0  0  0
   12.5879  -17.6128   18.6895 C   0  0  0  0  0  0  0  0  0  0  0  0
   10.5353  -18.2683   19.8630 C   0  0  2  0  0  0  0  0  0  0  0  0
    9.1496  -18.7509   19.7451 N   0  0  0  0  0  0  0  0  0  0  0  0
   10.5307  -17.0217   20.6365 C   0  0  0  0  0  0  0  0  0  0  0  0
   11.5986  -16.4181   20.8772 O   0  0  0  0  0  0  0  0  0  0  0  0
    8.7276  -12.9341   20.1053 C   0  0  0  0  0  0  0  0  0  0  0  0
    7.7248  -14.0991   20.2459 C   0  0  2  0  0  0  0  0  0  0  0  0
    6.3946  -13.5381   19.8861 C   0  0  0  0  0  0  0  0  0  0  0  0
    7.8880  -14.6204   21.6201 C   0  0  0  0  0  0  0  0  0  0  0  0
    9.1936  -15.3000   21.9288 C   0  0  2  0  0  0  0  0  0  0  0  0
    9.3035  -16.4904   21.1125 N   0  0  0  0  0  0  0  0  0  0  0  0
    9.1880  -15.7411   23.3745 C   0  0  0  0  0  0  0  0  0  0  0  0
    8.3556  -16.5801   23.7910 O   0  0  0  0  0  0  0  0  0  0  0  0
   10.1244  -15.2167   24.2964 N   0  0  0  0  0  0  0  0  0  0  0  0
   10.2312  -15.6902   25.6927 C   0  0  1  0  0  0  0  0  0  0  0  0
    8.9224  -16.2062   26.1635 C   0  0  0  0  0  0  0  0  0  0  0  0
    7.8173  -15.2477   26.0573 C   0  0  0  0  0  0  0  0  0  0  0  0
    6.5503  -15.4848   25.5345 C   0  0  0  0  0  0  0  0  0  0  0  0
    5.8198  -14.3609   25.5749 N   0  0  0  0  0  0  0  0  0  0  0  0
    6.5529  -13.3741   26.1087 C   0  0  0  0  0  0  0  0  0  0  0  0
    6.3194  -12.0407   26.4028 C   0  0  0  0  0  0  0  0  0  0  0  0
    7.2741  -11.2347   26.9855 C   0  0  0  0  0  0  0  0  0  0  0  0
    8.5163  -11.7647   27.2932 C   0  0  0  0  0  0  0  0  0  0  0  0
    8.7582  -13.0877   27.0044 C   0  0  0  0  0  0  0  0  0  0  0  0
    7.8091  -13.9103   26.4183 C   0  0  0  0  0  0  0  0  0  0  0  0
   11.4067  -16.5452   25.8520 C   0  0  0  0  0  0  0  0  0  0  0  0
   11.8227  -17.1646   27.0141 O   0  0  0  0  0  0  0  0  0  0  0  0
   12.1473  -16.7554   24.8298 O   0  0  0  0  0  0  0  0  0  0  0  0
  2  3  1  0
  2  1  1  0
  3  4  1  1
  5  3  1  0
  5  7  1  0
  5  6  1  6
  7  8  2  0
 10  9  1  1
 10 12  1  0
 11 10  1  0
 13 12  1  6
 13 15  1  0
 14 13  1  0
 14  7  1  0
 15 17  1  0
 16 15  2  0
 17 18  1  0
 18 19  1  6
 19 20  1  0
 20 21  2  0
 22 21  1  0
 23 22  1  0
 24 23  2  0
 25 24  1  0
 26 27  1  0
 26 25  2  0
 27 28  2  0
 28 23  1  0
 28 20  1  0
 29 30  1  0
 29 18  1  0
 31 29  2  0
M  END
$$$$
