ILW.pdb
     RDKit          3D

 31 32  0  0  1  0  0  0  0  0999 V2000
    6.4488  -20.6315   17.1522 C   0  0  0  0  0  0  0  0  0  0  0  0
    6.8965  -20.3947   18.5587 C   0  0  0  0  0  0  0  0  0  0  0  0
    7.7444  -19.2143   18.8104 C   0  0  2  0  0  0  0  0  0  0  0  0
    8.9806  -19.2894   17.9050 C   0  0  0  0  0  0  0  0  0  0  0  0
    8.1899  -18.9496   20.2027 C   0  0  2  0  0  0  0  0  0  0  0  0
    7.0374  -18.9086   21.1174 N   0  0  0  0  0  0  0  0  0  0  0  0
    8.9983  -17.7441   20.4166 C   0  0  0  0  0  0  0  0  0  0  0  0
   10.1315  -17.6378   19.8998 O   0  0  0  0  0  0  0  0  0  0  0  0
    8.6076  -13.5023   19.2007 C   0  0  0  0  0  0  0  0  0  0  0  0
    7.5026  -14.0276   20.1416 C   0  0  2  0  0  0  0  0  0  0  0  0
    6.4385  -12.9877   20.1420 C   0  0  0  0  0  0  0  0  0  0  0  0
    8.1632  -14.3175   21.4325 C   0  0  0  0  0  0  0  0  0  0  0  0
    9.1758  -15.4294   21.4327 C   0  0  2  0  0  0  0  0  0  0  0  0
    8.4894  -16.6846   21.2125 N   0  0  0  0  0  0  0  0  0  0  0  0
    9.8259  -15.5016   22.7953 C   0  0  0  0  0  0  0  0  0  0  0  0
   10.6836  -14.6586   23.1477 O   0  0  0  0  0  0  0  0  0  0  0  0
    9.4823  -16.5252   23.7096 N   0  0  0  0  0  0  0  0  0  0  0  0
   10.1268  -16.6735   25.0316 C   0  0  1  0  0  0  0  0  0  0  0  0
    9.9913  -15.4208   25.8146 C   0  0  0  0  0  0  0  0  0  0  0  0
    8.6070  -14.9910   26.0391 C   0  0  0  0  0  0  0  0  0  0  0  0
    7.4598  -15.7696   25.9270 C   0  0  0  0  0  0  0  0  0  0  0  0
    6.3734  -15.0240   26.1761 N   0  0  0  0  0  0  0  0  0  0  0  0
    6.7510  -13.7683   26.4532 C   0  0  0  0  0  0  0  0  0  0  0  0
    6.0799  -12.6045   26.7913 C   0  0  0  0  0  0  0  0  0  0  0  0
    6.7380  -11.4209   27.0496 C   0  0  0  0  0  0  0  0  0  0  0  0
    8.1203  -11.3799   26.9716 C   0  0  0  0  0  0  0  0  0  0  0  0
    8.7958  -12.5301   26.6357 C   0  0  0  0  0  0  0  0  0  0  0  0
    8.1486  -13.7272   26.3727 C   0  0  0  0  0  0  0  0  0  0  0  0
    9.7153  -17.9275   25.6609 C   0  0  0  0  0  0  0  0  0  0  0  0
    8.8107  -18.8425   25.1589 O   0  0  0  0  0  0  0  0  0  0  0  0
   10.2239  -18.2332   26.7947 O   0  0  0  0  0  0  0  0  0  0  0  0
  2  3  1  0
  2  1  1  0
  3  4  1  6
  5  3  1  0
  5  7  1  0
  5  6  1  1
  7  8  2  0
 10  9  1  6
 10 12  1  0
 11 10  1  0
 13 12  1  1
 13 15  1  0
 14 13  1  0
 14  7  1  0
 15 17  1  0
 16 15  2  0
 17 18  1  0
 18 19  1  1
 19 20  1  0
 20 21  2  0
 22 21  1  0
 23 22  1  0
 24 23  2  0
 25 24  1  0
 26 27  1  0
 26 25  2  0
 27 28  2  0
 28 23  1  0
 28 20  1  0
 29 30  1  0
 29 18  1  0
 31 29  2  0
M  END
$$$$
