ILW.pdb
     RDKit          3D

 31 32  0  0  1  0  0  0  0  0999 V2000
    7.5376  -20.4217   16.7032 C   0  0  0  0  0  0  0  0  0  0  0  0
    7.8064  -20.2238   18.1604 C   0  0  0  0  0  0  0  0  0  0  0  0
    8.5152  -18.9929   18.5577 C   0  0  2  0  0  0  0  0  0  0  0  0
    9.8247  -18.8963   17.7643 C   0  0  0  0  0  0  0  0  0  0  0  0
    8.8154  -18.7852   19.9978 C   0  0  2  0  0  0  0  0  0  0  0  0
    7.5819  -18.8451   20.7989 N   0  0  0  0  0  0  0  0  0  0  0  0
    9.5401  -17.5587   20.3484 C   0  0  0  0  0  0  0  0  0  0  0  0
   10.6711  -17.3285   19.8683 O   0  0  0  0  0  0  0  0  0  0  0  0
    8.8244  -13.2270   19.4362 C   0  0  0  0  0  0  0  0  0  0  0  0
    7.7693  -13.9966   20.2590 C   0  0  2  0  0  0  0  0  0  0  0  0
    6.5599  -13.1304   20.2839 C   0  0  0  0  0  0  0  0  0  0  0  0
    8.4046  -14.3061   21.5581 C   0  0  0  0  0  0  0  0  0  0  0  0
    9.5144  -15.3207   21.5369 C   0  0  2  0  0  0  0  0  0  0  0  0
    8.9520  -16.6201   21.2361 N   0  0  0  0  0  0  0  0  0  0  0  0
   10.1319  -15.4022   22.9142 C   0  0  0  0  0  0  0  0  0  0  0  0
   10.9465  -14.5359   23.3095 O   0  0  0  0  0  0  0  0  0  0  0  0
    9.8053  -16.4610   23.7939 N   0  0  0  0  0  0  0  0  0  0  0  0
   10.3033  -16.5355   25.1837 C   0  0  1  0  0  0  0  0  0  0  0  0
    9.8887  -15.3316   25.9451 C   0  0  0  0  0  0  0  0  0  0  0  0
    8.4695  -14.9866   25.8109 C   0  0  0  0  0  0  0  0  0  0  0  0
    7.4340  -15.8336   25.4298 C   0  0  0  0  0  0  0  0  0  0  0  0
    6.2781  -15.1551   25.3884 N   0  0  0  0  0  0  0  0  0  0  0  0
    6.5005  -13.8784   25.7299 C   0  0  0  0  0  0  0  0  0  0  0  0
    5.6994  -12.7571   25.8712 C   0  0  0  0  0  0  0  0  0  0  0  0
    6.2018  -11.5353   26.2655 C   0  0  0  0  0  0  0  0  0  0  0  0
    7.5550  -11.4104   26.5332 C   0  0  0  0  0  0  0  0  0  0  0  0
    8.3591  -12.5179   26.3950 C   0  0  0  0  0  0  0  0  0  0  0  0
    7.8691  -13.7525   25.9990 C   0  0  0  0  0  0  0  0  0  0  0  0
   10.0135  -17.8483   25.7588 C   0  0  0  0  0  0  0  0  0  0  0  0
    9.3395  -18.8854   25.1446 O   0  0  0  0  0  0  0  0  0  0  0  0
   10.4075  -18.0885   26.9524 O   0  0  0  0  0  0  0  0  0  0  0  0
  2  3  1  0
  2  1  1  0
  3  4  1  6
  5  3  1  0
  5  7  1  0
  5  6  1  1
  7  8  2  0
 10  9  1  6
 10 12  1  0
 11 10  1  0
 13 12  1  1
 13 15  1  0
 14 13  1  0
 14  7  1  0
 15 17  1  0
 16 15  2  0
 17 18  1  0
 18 19  1  1
 19 20  1  0
 20 21  2  0
 22 21  1  0
 23 22  1  0
 24 23  2  0
 25 24  1  0
 26 27  1  0
 26 25  2  0
 27 28  2  0
 28 23  1  0
 28 20  1  0
 29 30  1  0
 29 18  1  0
 31 29  2  0
M  END
$$$$
