ILW.pdb
     RDKit          3D

 31 32  0  0  1  0  0  0  0  0999 V2000
    7.6576  -20.9442   17.8465 C   0  0  0  0  0  0  0  0  0  0  0  0
    7.9206  -20.4915   19.2467 C   0  0  0  0  0  0  0  0  0  0  0  0
    8.6019  -19.1953   19.4231 C   0  0  2  0  0  0  0  0  0  0  0  0
    9.9402  -19.2322   18.6739 C   0  0  0  0  0  0  0  0  0  0  0  0
    8.8442  -18.7081   20.8055 C   0  0  2  0  0  0  0  0  0  0  0  0
    7.5759  -18.5873   21.5429 N   0  0  0  0  0  0  0  0  0  0  0  0
    9.5829  -17.4475   20.9386 C   0  0  0  0  0  0  0  0  0  0  0  0
   10.6177  -17.2424   20.2680 O   0  0  0  0  0  0  0  0  0  0  0  0
    7.5908  -12.6402   20.5234 C   0  0  0  0  0  0  0  0  0  0  0  0
    8.2133  -14.0473   20.6463 C   0  0  2  0  0  0  0  0  0  0  0  0
    7.0817  -15.0060   20.5267 C   0  0  0  0  0  0  0  0  0  0  0  0
    8.9717  -14.0535   21.9158 C   0  0  0  0  0  0  0  0  0  0  0  0
    9.8538  -15.2459   22.1641 C   0  0  2  0  0  0  0  0  0  0  0  0
    9.1176  -16.4472   21.8318 N   0  0  0  0  0  0  0  0  0  0  0  0
   10.1875  -15.3120   23.6368 C   0  0  0  0  0  0  0  0  0  0  0  0
   10.9336  -14.4576   24.1694 O   0  0  0  0  0  0  0  0  0  0  0  0
    9.6653  -16.3427   24.4534 N   0  0  0  0  0  0  0  0  0  0  0  0
   10.1166  -16.5768   25.8414 C   0  0  1  0  0  0  0  0  0  0  0  0
    8.9558  -16.5941   26.7649 C   0  0  0  0  0  0  0  0  0  0  0  0
    7.8706  -15.6796   26.3944 C   0  0  0  0  0  0  0  0  0  0  0  0
    6.7106  -15.9961   25.6951 C   0  0  0  0  0  0  0  0  0  0  0  0
    5.9684  -14.8939   25.5150 N   0  0  0  0  0  0  0  0  0  0  0  0
    6.5900  -13.8447   26.0708 C   0  0  0  0  0  0  0  0  0  0  0  0
    6.2934  -12.4979   26.2023 C   0  0  0  0  0  0  0  0  0  0  0  0
    7.1278  -11.6184   26.8585 C   0  0  0  0  0  0  0  0  0  0  0  0
    8.3092  -12.0850   27.4111 C   0  0  0  0  0  0  0  0  0  0  0  0
    8.6132  -13.4206   27.2852 C   0  0  0  0  0  0  0  0  0  0  0  0
    7.7850  -14.3169   26.6280 C   0  0  0  0  0  0  0  0  0  0  0  0
   11.0527  -17.6991   25.8899 C   0  0  0  0  0  0  0  0  0  0  0  0
   11.4342  -18.4993   24.8309 O   0  0  0  0  0  0  0  0  0  0  0  0
   11.5849  -17.9974   27.0148 O   0  0  0  0  0  0  0  0  0  0  0  0
  2  3  1  0
  2  1  1  0
  3  4  1  1
  5  3  1  0
  5  7  1  0
  5  6  1  6
  7  8  2  0
 10  9  1  1
 10 12  1  0
 11 10  1  0
 13 12  1  1
 13 15  1  0
 14 13  1  0
 14  7  1  0
 15 17  1  0
 16 15  2  0
 17 18  1  0
 18 19  1  1
 19 20  1  0
 20 21  2  0
 22 21  1  0
 23 22  1  0
 24 23  2  0
 25 24  1  0
 26 27  1  0
 26 25  2  0
 27 28  2  0
 28 23  1  0
 28 20  1  0
 29 30  1  0
 29 18  1  0
 31 29  2  0
M  END
$$$$
