ILW.pdb
     RDKit          3D

 31 32  0  0  1  0  0  0  0  0999 V2000
   10.3239  -22.4842   21.0689 C   0  0  0  0  0  0  0  0  0  0  0  0
    9.6484  -21.3088   20.4389 C   0  0  0  0  0  0  0  0  0  0  0  0
   10.0661  -19.9669   20.8864 C   0  0  2  0  0  0  0  0  0  0  0  0
    9.9598  -19.8983   22.4154 C   0  0  0  0  0  0  0  0  0  0  0  0
    9.3774  -18.7843   20.3083 C   0  0  2  0  0  0  0  0  0  0  0  0
    9.3882  -18.8451   18.8376 N   0  0  0  0  0  0  0  0  0  0  0  0
    9.8715  -17.4670   20.7244 C   0  0  0  0  0  0  0  0  0  0  0  0
   11.0348  -17.1059   20.4437 O   0  0  0  0  0  0  0  0  0  0  0  0
    8.7326  -13.5654   19.4537 C   0  0  0  0  0  0  0  0  0  0  0  0
    7.6419  -14.2441   20.3095 C   0  0  2  0  0  0  0  0  0  0  0  0
    6.4151  -13.4206   20.1350 C   0  0  0  0  0  0  0  0  0  0  0  0
    8.1958  -14.3485   21.6767 C   0  0  0  0  0  0  0  0  0  0  0  0
    9.3878  -15.2488   21.8503 C   0  0  2  0  0  0  0  0  0  0  0  0
    9.0212  -16.5899   21.4474 N   0  0  0  0  0  0  0  0  0  0  0  0
    9.7551  -15.3006   23.3156 C   0  0  0  0  0  0  0  0  0  0  0  0
   10.2810  -14.3160   23.8852 O   0  0  0  0  0  0  0  0  0  0  0  0
    9.5142  -16.4645   24.0831 N   0  0  0  0  0  0  0  0  0  0  0  0
   10.0031  -16.6309   25.4681 C   0  0  1  0  0  0  0  0  0  0  0  0
    8.8611  -16.7154   26.4112 C   0  0  0  0  0  0  0  0  0  0  0  0
    7.8012  -15.7302   26.1721 C   0  0  0  0  0  0  0  0  0  0  0  0
    6.5732  -15.9536   25.5582 C   0  0  0  0  0  0  0  0  0  0  0  0
    5.8801  -14.8076   25.4885 N   0  0  0  0  0  0  0  0  0  0  0  0
    6.6008  -13.8192   26.0360 C   0  0  0  0  0  0  0  0  0  0  0  0
    6.3896  -12.4669   26.2502 C   0  0  0  0  0  0  0  0  0  0  0  0
    7.3209  -11.6634   26.8727 C   0  0  0  0  0  0  0  0  0  0  0  0
    8.5156  -12.2154   27.3046 C   0  0  0  0  0  0  0  0  0  0  0  0
    8.7352  -13.5571   27.0959 C   0  0  0  0  0  0  0  0  0  0  0  0
    7.8091  -14.3777   26.4712 C   0  0  0  0  0  0  0  0  0  0  0  0
   11.0234  -17.6768   25.5257 C   0  0  0  0  0  0  0  0  0  0  0  0
   11.4656  -18.4543   24.4735 O   0  0  0  0  0  0  0  0  0  0  0  0
   11.5773  -17.9230   26.6528 O   0  0  0  0  0  0  0  0  0  0  0  0
  2  3  1  0
  2  1  1  0
  3  4  1  1
  5  3  1  0
  5  7  1  0
  5  6  1  6
  7  8  2  0
 10  9  1  6
 10 12  1  0
 11 10  1  0
 13 12  1  1
 13 15  1  0
 14 13  1  0
 14  7  1  0
 15 17  1  0
 16 15  2  0
 17 18  1  0
 18 19  1  1
 19 20  1  0
 20 21  2  0
 22 21  1  0
 23 22  1  0
 24 23  2  0
 25 24  1  0
 26 27  1  0
 26 25  2  0
 27 28  2  0
 28 23  1  0
 28 20  1  0
 29 30  1  0
 29 18  1  0
 31 29  2  0
M  END
$$$$
