ILW.pdb
     RDKit          3D

 31 32  0  0  1  0  0  0  0  0999 V2000
    5.7413  -18.9383   17.5815 C   0  0  0  0  0  0  0  0  0  0  0  0
    6.4496  -19.0298   18.8948 C   0  0  0  0  0  0  0  0  0  0  0  0
    6.9965  -17.7812   19.4582 C   0  0  2  0  0  0  0  0  0  0  0  0
    7.9203  -17.1313   18.4200 C   0  0  0  0  0  0  0  0  0  0  0  0
    7.7141  -17.8484   20.7573 C   0  0  2  0  0  0  0  0  0  0  0  0
    6.9243  -18.5975   21.7482 N   0  0  0  0  0  0  0  0  0  0  0  0
    8.1174  -16.5696   21.3527 C   0  0  0  0  0  0  0  0  0  0  0  0
    8.8834  -15.7954   20.7391 O   0  0  0  0  0  0  0  0  0  0  0  0
    8.3772  -13.7529   26.0007 C   0  0  0  0  0  0  0  0  0  0  0  0
    7.0827  -13.5032   25.1980 C   0  0  2  0  0  0  0  0  0  0  0  0
    6.0290  -13.2050   26.2053 C   0  0  0  0  0  0  0  0  0  0  0  0
    6.8864  -14.6983   24.3496 C   0  0  0  0  0  0  0  0  0  0  0  0
    7.9210  -14.9430   23.2860 C   0  0  2  0  0  0  0  0  0  0  0  0
    7.6306  -16.2026   22.6346 N   0  0  0  0  0  0  0  0  0  0  0  0
    9.2771  -15.0738   23.9407 C   0  0  0  0  0  0  0  0  0  0  0  0
    9.9233  -14.0608   24.2967 O   0  0  0  0  0  0  0  0  0  0  0  0
    9.8530  -16.3459   24.1685 N   0  0  0  0  0  0  0  0  0  0  0  0
   11.2538  -16.5292   24.6035 C   0  0  1  0  0  0  0  0  0  0  0  0
   11.3036  -17.3015   25.8692 C   0  0  0  0  0  0  0  0  0  0  0  0
   10.3771  -16.8320   26.9047 C   0  0  0  0  0  0  0  0  0  0  0  0
    9.1248  -17.3559   27.2080 C   0  0  0  0  0  0  0  0  0  0  0  0
    8.5565  -16.6451   28.1929 N   0  0  0  0  0  0  0  0  0  0  0  0
    9.3853  -15.6595   28.5639 C   0  0  0  0  0  0  0  0  0  0  0  0
    9.3344  -14.6543   29.5158 C   0  0  0  0  0  0  0  0  0  0  0  0
   10.3675  -13.7608   29.7026 C   0  0  0  0  0  0  0  0  0  0  0  0
   11.5036  -13.8604   28.9165 C   0  0  0  0  0  0  0  0  0  0  0  0
   11.5636  -14.8547   27.9678 C   0  0  0  0  0  0  0  0  0  0  0  0
   10.5331  -15.7598   27.7678 C   0  0  0  0  0  0  0  0  0  0  0  0
   12.0788  -16.9845   23.4854 C   0  0  0  0  0  0  0  0  0  0  0  0
   13.4533  -17.1182   23.4775 O   0  0  0  0  0  0  0  0  0  0  0  0
   11.4971  -17.2929   22.3881 O   0  0  0  0  0  0  0  0  0  0  0  0
  2  3  1  0
  2  1  1  0
  3  4  1  6
  5  3  1  0
  5  7  1  0
  5  6  1  1
  7  8  2  0
 10  9  1  1
 10 12  1  0
 11 10  1  0
 13 12  1  1
 13 15  1  0
 14 13  1  0
 14  7  1  0
 15 17  1  0
 16 15  2  0
 17 18  1  0
 18 19  1  1
 19 20  1  0
 20 21  2  0
 22 21  1  0
 23 22  1  0
 24 23  2  0
 25 24  1  0
 26 27  1  0
 26 25  2  0
 27 28  2  0
 28 23  1  0
 28 20  1  0
 29 30  1  0
 29 18  1  0
 31 29  2  0
M  END
$$$$
