ILW.pdb
     RDKit          3D

 31 32  0  0  1  0  0  0  0  0999 V2000
    6.7024  -18.4048   16.9664 C   0  0  0  0  0  0  0  0  0  0  0  0
    7.0862  -18.6099   18.3965 C   0  0  0  0  0  0  0  0  0  0  0  0
    8.1567  -17.7534   18.9404 C   0  0  2  0  0  0  0  0  0  0  0  0
    9.4306  -17.9652   18.1121 C   0  0  0  0  0  0  0  0  0  0  0  0
    8.4991  -17.8810   20.3804 C   0  0  2  0  0  0  0  0  0  0  0  0
    7.4261  -18.5768   21.1093 N   0  0  0  0  0  0  0  0  0  0  0  0
    8.8177  -16.6388   21.0932 C   0  0  0  0  0  0  0  0  0  0  0  0
    9.7565  -15.9079   20.7097 O   0  0  0  0  0  0  0  0  0  0  0  0
    5.8598  -13.6906   25.6271 C   0  0  0  0  0  0  0  0  0  0  0  0
    7.1410  -13.6382   24.7680 C   0  0  2  0  0  0  0  0  0  0  0  0
    7.1834  -12.2715   24.1814 C   0  0  0  0  0  0  0  0  0  0  0  0
    7.0527  -14.7745   23.8257 C   0  0  0  0  0  0  0  0  0  0  0  0
    8.2716  -15.0475   22.9883 C   0  0  2  0  0  0  0  0  0  0  0  0
    8.0512  -16.2579   22.2256 N   0  0  0  0  0  0  0  0  0  0  0  0
    9.4497  -15.2962   23.9020 C   0  0  0  0  0  0  0  0  0  0  0  0
   10.1090  -14.3438   24.3803 O   0  0  0  0  0  0  0  0  0  0  0  0
    9.8392  -16.6134   24.2412 N   0  0  0  0  0  0  0  0  0  0  0  0
   11.0448  -16.9154   25.0415 C   0  0  1  0  0  0  0  0  0  0  0  0
   10.6829  -17.7166   26.2365 C   0  0  0  0  0  0  0  0  0  0  0  0
    9.7367  -17.0600   27.1447 C   0  0  0  0  0  0  0  0  0  0  0  0
    8.3916  -17.3685   27.3188 C   0  0  0  0  0  0  0  0  0  0  0  0
    7.8408  -16.5318   28.2103 N   0  0  0  0  0  0  0  0  0  0  0  0
    8.7711  -15.6698   28.6434 C   0  0  0  0  0  0  0  0  0  0  0  0
    8.7785  -14.6243   29.5523 C   0  0  0  0  0  0  0  0  0  0  0  0
    9.9145  -13.8937   29.8286 C   0  0  0  0  0  0  0  0  0  0  0  0
   11.0983  -14.2057   29.1807 C   0  0  0  0  0  0  0  0  0  0  0  0
   11.1012  -15.2416   28.2758 C   0  0  0  0  0  0  0  0  0  0  0  0
    9.9674  -15.9848   27.9870 C   0  0  0  0  0  0  0  0  0  0  0  0
   12.1175  -17.4097   24.1794 C   0  0  0  0  0  0  0  0  0  0  0  0
   13.4294  -17.6373   24.5461 O   0  0  0  0  0  0  0  0  0  0  0  0
   11.8448  -17.6613   22.9547 O   0  0  0  0  0  0  0  0  0  0  0  0
  2  3  1  0
  2  1  1  0
  3  4  1  6
  5  3  1  0
  5  7  1  0
  5  6  1  1
  7  8  2  0
 10  9  1  1
 10 12  1  0
 11 10  1  0
 13 12  1  1
 13 15  1  0
 14 13  1  0
 14  7  1  0
 15 17  1  0
 16 15  2  0
 17 18  1  0
 18 19  1  1
 19 20  1  0
 20 21  2  0
 22 21  1  0
 23 22  1  0
 24 23  2  0
 25 24  1  0
 26 27  1  0
 26 25  2  0
 27 28  2  0
 28 23  1  0
 28 20  1  0
 29 30  1  0
 29 18  1  0
 31 29  2  0
M  END
$$$$
