ILW.pdb
     RDKit          3D

 31 32  0  0  1  0  0  0  0  0999 V2000
    9.9747  -22.3463   20.9327 C   0  0  0  0  0  0  0  0  0  0  0  0
    9.3572  -21.1312   20.3189 C   0  0  0  0  0  0  0  0  0  0  0  0
    9.8455  -19.8174   20.7781 C   0  0  2  0  0  0  0  0  0  0  0  0
    9.7737  -19.7691   22.3098 C   0  0  0  0  0  0  0  0  0  0  0  0
    9.2004  -18.5951   20.2331 C   0  0  2  0  0  0  0  0  0  0  0  0
    9.2163  -18.6123   18.7612 N   0  0  0  0  0  0  0  0  0  0  0  0
    9.7371  -17.3085   20.6904 C   0  0  0  0  0  0  0  0  0  0  0  0
   10.8817  -16.9393   20.3497 O   0  0  0  0  0  0  0  0  0  0  0  0
    8.7042  -13.2068   19.7225 C   0  0  0  0  0  0  0  0  0  0  0  0
    7.6084  -13.9887   20.4775 C   0  0  2  0  0  0  0  0  0  0  0  0
    6.3726  -13.1672   20.3690 C   0  0  0  0  0  0  0  0  0  0  0  0
    8.1384  -14.2342   21.8361 C   0  0  0  0  0  0  0  0  0  0  0  0
    9.3361  -15.1380   21.9354 C   0  0  2  0  0  0  0  0  0  0  0  0
    8.9497  -16.4705   21.5226 N   0  0  0  0  0  0  0  0  0  0  0  0
    9.7714  -15.2199   23.3806 C   0  0  0  0  0  0  0  0  0  0  0  0
   10.3354  -14.2517   23.9416 O   0  0  0  0  0  0  0  0  0  0  0  0
    9.5528  -16.3945   24.1384 N   0  0  0  0  0  0  0  0  0  0  0  0
   10.0175  -16.5509   25.5329 C   0  0  1  0  0  0  0  0  0  0  0  0
    8.8657  -16.7922   26.4361 C   0  0  0  0  0  0  0  0  0  0  0  0
    7.7282  -15.8907   26.2247 C   0  0  0  0  0  0  0  0  0  0  0  0
    6.5019  -16.2099   25.6510 C   0  0  0  0  0  0  0  0  0  0  0  0
    5.7234  -15.1194   25.5963 N   0  0  0  0  0  0  0  0  0  0  0  0
    6.3847  -14.0756   26.1151 C   0  0  0  0  0  0  0  0  0  0  0  0
    6.0798  -12.7411   26.3279 C   0  0  0  0  0  0  0  0  0  0  0  0
    6.9672  -11.8653   26.9160 C   0  0  0  0  0  0  0  0  0  0  0  0
    8.2126  -12.3232   27.3134 C   0  0  0  0  0  0  0  0  0  0  0  0
    8.5253  -13.6465   27.1058 C   0  0  0  0  0  0  0  0  0  0  0  0
    7.6443  -14.5389   26.5153 C   0  0  0  0  0  0  0  0  0  0  0  0
   11.1462  -17.4786   25.5926 C   0  0  0  0  0  0  0  0  0  0  0  0
   11.9156  -17.7687   26.7022 O   0  0  0  0  0  0  0  0  0  0  0  0
   11.4820  -18.0955   24.5229 O   0  0  0  0  0  0  0  0  0  0  0  0
  2  3  1  0
  2  1  1  0
  3  4  1  1
  5  3  1  0
  5  7  1  0
  5  6  1  6
  7  8  2  0
 10  9  1  6
 10 12  1  0
 11 10  1  0
 13 12  1  1
 13 15  1  0
 14 13  1  0
 14  7  1  0
 15 17  1  0
 16 15  2  0
 17 18  1  0
 18 19  1  1
 19 20  1  0
 20 21  2  0
 22 21  1  0
 23 22  1  0
 24 23  2  0
 25 24  1  0
 26 27  1  0
 26 25  2  0
 27 28  2  0
 28 23  1  0
 28 20  1  0
 29 30  1  0
 29 18  1  0
 31 29  2  0
M  END
$$$$
