ILW.pdb
     RDKit          3D

 31 32  0  0  1  0  0  0  0  0999 V2000
   11.3658  -21.5681   18.5221 C   0  0  0  0  0  0  0  0  0  0  0  0
   10.3306  -20.7527   19.2280 C   0  0  0  0  0  0  0  0  0  0  0  0
   10.6812  -19.3615   19.5703 C   0  0  2  0  0  0  0  0  0  0  0  0
   11.9674  -19.3654   20.4066 C   0  0  0  0  0  0  0  0  0  0  0  0
    9.6656  -18.5283   20.2640 C   0  0  2  0  0  0  0  0  0  0  0  0
    8.4296  -18.4473   19.4685 N   0  0  0  0  0  0  0  0  0  0  0  0
   10.0721  -17.1680   20.6339 C   0  0  0  0  0  0  0  0  0  0  0  0
   11.1675  -16.7045   20.2496 O   0  0  0  0  0  0  0  0  0  0  0  0
    8.7574  -13.2485   19.5679 C   0  0  0  0  0  0  0  0  0  0  0  0
    7.7168  -14.0305   20.3974 C   0  0  2  0  0  0  0  0  0  0  0  0
    6.4440  -13.2693   20.2776 C   0  0  0  0  0  0  0  0  0  0  0  0
    8.2924  -14.1740   21.7520 C   0  0  0  0  0  0  0  0  0  0  0  0
    9.5280  -15.0231   21.8690 C   0  0  2  0  0  0  0  0  0  0  0  0
    9.2134  -16.3663   21.4307 N   0  0  0  0  0  0  0  0  0  0  0  0
    9.9325  -15.1043   23.3232 C   0  0  0  0  0  0  0  0  0  0  0  0
   10.4657  -14.1286   23.9011 O   0  0  0  0  0  0  0  0  0  0  0  0
    9.7191  -16.2865   24.0705 N   0  0  0  0  0  0  0  0  0  0  0  0
   10.1565  -16.4416   25.4740 C   0  0  1  0  0  0  0  0  0  0  0  0
    8.9889  -16.6989   26.3523 C   0  0  0  0  0  0  0  0  0  0  0  0
    7.8254  -15.8478   26.0816 C   0  0  0  0  0  0  0  0  0  0  0  0
    6.6567  -16.2123   25.4213 C   0  0  0  0  0  0  0  0  0  0  0  0
    5.8314  -15.1589   25.3344 N   0  0  0  0  0  0  0  0  0  0  0  0
    6.4055  -14.0963   25.9153 C   0  0  0  0  0  0  0  0  0  0  0  0
    6.0227  -12.7826   26.1315 C   0  0  0  0  0  0  0  0  0  0  0  0
    6.8258  -11.8787   26.7937 C   0  0  0  0  0  0  0  0  0  0  0  0
    8.0631  -12.2856   27.2652 C   0  0  0  0  0  0  0  0  0  0  0  0
    8.4527  -13.5879   27.0549 C   0  0  0  0  0  0  0  0  0  0  0  0
    7.6569  -14.5081   26.3905 C   0  0  0  0  0  0  0  0  0  0  0  0
   11.2943  -17.3565   25.5546 C   0  0  0  0  0  0  0  0  0  0  0  0
   12.0516  -17.6315   26.6763 O   0  0  0  0  0  0  0  0  0  0  0  0
   11.6515  -17.9760   24.4934 O   0  0  0  0  0  0  0  0  0  0  0  0
  2  3  1  0
  2  1  1  0
  3  4  1  1
  5  3  1  0
  5  7  1  0
  5  6  1  6
  7  8  2  0
 10  9  1  6
 10 12  1  0
 11 10  1  0
 13 12  1  1
 13 15  1  0
 14 13  1  0
 14  7  1  0
 15 17  1  0
 16 15  2  0
 17 18  1  0
 18 19  1  1
 19 20  1  0
 20 21  2  0
 22 21  1  0
 23 22  1  0
 24 23  2  0
 25 24  1  0
 26 27  1  0
 26 25  2  0
 27 28  2  0
 28 23  1  0
 28 20  1  0
 29 30  1  0
 29 18  1  0
 31 29  2  0
M  END
$$$$
