ILW.pdb
     RDKit          3D

 31 32  0  0  1  0  0  0  0  0999 V2000
    3.1138  -17.4130   20.0631 C   0  0  0  0  0  0  0  0  0  0  0  0
    4.2532  -17.3749   21.0301 C   0  0  0  0  0  0  0  0  0  0  0  0
    4.9127  -18.6546   21.3511 C   0  0  2  0  0  0  0  0  0  0  0  0
    3.8714  -19.6156   21.9390 C   0  0  0  0  0  0  0  0  0  0  0  0
    6.0981  -18.6323   22.2462 C   0  0  2  0  0  0  0  0  0  0  0  0
    5.7363  -18.1086   23.5735 N   0  0  0  0  0  0  0  0  0  0  0  0
    7.2746  -17.9019   21.7615 C   0  0  0  0  0  0  0  0  0  0  0  0
    8.0588  -18.4296   20.9436 O   0  0  0  0  0  0  0  0  0  0  0  0
    8.0908  -14.2427   19.3474 C   0  0  0  0  0  0  0  0  0  0  0  0
    7.3317  -13.9852   20.6665 C   0  0  2  0  0  0  0  0  0  0  0  0
    6.8748  -12.5706   20.6049 C   0  0  0  0  0  0  0  0  0  0  0  0
    8.2639  -14.3464   21.7562 C   0  0  0  0  0  0  0  0  0  0  0  0
    8.6746  -15.7908   21.8361 C   0  0  2  0  0  0  0  0  0  0  0  0
    7.5243  -16.5817   22.2193 N   0  0  0  0  0  0  0  0  0  0  0  0
    9.7137  -15.9468   22.9227 C   0  0  0  0  0  0  0  0  0  0  0  0
   10.7465  -15.2372   22.9359 O   0  0  0  0  0  0  0  0  0  0  0  0
    9.5466  -16.9002   23.9546 N   0  0  0  0  0  0  0  0  0  0  0  0
   10.2283  -16.7988   25.2623 C   0  0  1  0  0  0  0  0  0  0  0  0
   10.0039  -15.4589   25.8581 C   0  0  0  0  0  0  0  0  0  0  0  0
    8.5939  -15.1195   26.0772 C   0  0  0  0  0  0  0  0  0  0  0  0
    7.5143  -15.9964   26.0942 C   0  0  0  0  0  0  0  0  0  0  0  0
    6.3749  -15.3172   26.2914 N   0  0  0  0  0  0  0  0  0  0  0  0
    6.6514  -14.0112   26.4086 C   0  0  0  0  0  0  0  0  0  0  0  0
    5.8925  -12.8739   26.6320 C   0  0  0  0  0  0  0  0  0  0  0  0
    6.4541  -11.6187   26.7296 C   0  0  0  0  0  0  0  0  0  0  0  0
    7.8258  -11.4750   26.6014 C   0  0  0  0  0  0  0  0  0  0  0  0
    8.5880  -12.5982   26.3786 C   0  0  0  0  0  0  0  0  0  0  0  0
    8.0382  -13.8665   26.2774 C   0  0  0  0  0  0  0  0  0  0  0  0
    9.9366  -17.9747   26.0811 C   0  0  0  0  0  0  0  0  0  0  0  0
   10.6178  -18.3798   27.2121 O   0  0  0  0  0  0  0  0  0  0  0  0
    8.9600  -18.7267   25.7372 O   0  0  0  0  0  0  0  0  0  0  0  0
  2  3  1  0
  2  1  1  0
  3  4  1  1
  5  3  1  0
  5  7  1  0
  5  6  1  1
  7  8  2  0
 10  9  1  6
 10 12  1  0
 11 10  1  0
 13 12  1  1
 13 15  1  0
 14 13  1  0
 14  7  1  0
 15 17  1  0
 16 15  2  0
 17 18  1  0
 18 19  1  1
 19 20  1  0
 20 21  2  0
 22 21  1  0
 23 22  1  0
 24 23  2  0
 25 24  1  0
 26 27  1  0
 26 25  2  0
 27 28  2  0
 28 23  1  0
 28 20  1  0
 29 30  1  0
 29 18  1  0
 31 29  2  0
M  END
$$$$
