ILW.pdb
     RDKit          3D

 31 32  0  0  1  0  0  0  0  0999 V2000
    9.9951  -22.2440   20.4470 C   0  0  0  0  0  0  0  0  0  0  0  0
    9.3302  -20.9981   19.9567 C   0  0  0  0  0  0  0  0  0  0  0  0
    9.8494  -19.7112   20.4565 C   0  0  2  0  0  0  0  0  0  0  0  0
    9.9375  -19.7723   21.9869 C   0  0  0  0  0  0  0  0  0  0  0  0
    9.1378  -18.4656   20.0705 C   0  0  2  0  0  0  0  0  0  0  0  0
    8.9783  -18.3906   18.6090 N   0  0  0  0  0  0  0  0  0  0  0  0
    9.7186  -17.2033   20.5416 C   0  0  0  0  0  0  0  0  0  0  0  0
   10.8641  -16.8562   20.1813 O   0  0  0  0  0  0  0  0  0  0  0  0
    8.8466  -13.0758   19.6709 C   0  0  0  0  0  0  0  0  0  0  0  0
    7.7171  -13.8138   20.4206 C   0  0  2  0  0  0  0  0  0  0  0  0
    6.5236  -12.9297   20.3328 C   0  0  0  0  0  0  0  0  0  0  0  0
    8.2417  -14.1070   21.7718 C   0  0  0  0  0  0  0  0  0  0  0  0
    9.4075  -15.0539   21.8475 C   0  0  2  0  0  0  0  0  0  0  0  0
    8.9731  -16.3636   21.4100 N   0  0  0  0  0  0  0  0  0  0  0  0
    9.8453  -15.1800   23.2888 C   0  0  0  0  0  0  0  0  0  0  0  0
   10.3764  -14.2170   23.8895 O   0  0  0  0  0  0  0  0  0  0  0  0
    9.6664  -16.3912   23.9978 N   0  0  0  0  0  0  0  0  0  0  0  0
   10.0886  -16.5712   25.4030 C   0  0  1  0  0  0  0  0  0  0  0  0
    8.9092  -16.8202   26.2677 C   0  0  0  0  0  0  0  0  0  0  0  0
    7.7905  -15.8968   26.0507 C   0  0  0  0  0  0  0  0  0  0  0  0
    6.5493  -16.1995   25.5005 C   0  0  0  0  0  0  0  0  0  0  0  0
    5.7961  -15.0922   25.4311 N   0  0  0  0  0  0  0  0  0  0  0  0
    6.4888  -14.0530   25.9173 C   0  0  0  0  0  0  0  0  0  0  0  0
    6.2184  -12.7072   26.1035 C   0  0  0  0  0  0  0  0  0  0  0  0
    7.1342  -11.8399   26.6599 C   0  0  0  0  0  0  0  0  0  0  0  0
    8.3738  -12.3183   27.0513 C   0  0  0  0  0  0  0  0  0  0  0  0
    8.6523  -13.6531   26.8699 C   0  0  0  0  0  0  0  0  0  0  0  0
    7.7425  -14.5372   26.3115 C   0  0  0  0  0  0  0  0  0  0  0  0
   11.2105  -17.5057   25.4818 C   0  0  0  0  0  0  0  0  0  0  0  0
   11.7924  -18.1841   24.4290 O   0  0  0  0  0  0  0  0  0  0  0  0
   11.7233  -17.7430   26.6300 O   0  0  0  0  0  0  0  0  0  0  0  0
  2  3  1  0
  2  1  1  0
  3  4  1  1
  5  3  1  0
  5  7  1  0
  5  6  1  6
  7  8  2  0
 10  9  1  6
 10 12  1  0
 11 10  1  0
 13 12  1  1
 13 15  1  0
 14 13  1  0
 14  7  1  0
 15 17  1  0
 16 15  2  0
 17 18  1  0
 18 19  1  1
 19 20  1  0
 20 21  2  0
 22 21  1  0
 23 22  1  0
 24 23  2  0
 25 24  1  0
 26 27  1  0
 26 25  2  0
 27 28  2  0
 28 23  1  0
 28 20  1  0
 29 30  1  0
 29 18  1  0
 31 29  2  0
M  END
$$$$
