ILW.pdb
     RDKit          3D

 31 32  0  0  1  0  0  0  0  0999 V2000
    9.6257  -18.2721   16.0191 C   0  0  0  0  0  0  0  0  0  0  0  0
    9.4350  -18.0467   17.4846 C   0  0  0  0  0  0  0  0  0  0  0  0
   10.1987  -18.9072   18.4075 C   0  0  2  0  0  0  0  0  0  0  0  0
    9.9051  -20.3757   18.0743 C   0  0  0  0  0  0  0  0  0  0  0  0
   10.0213  -18.7065   19.8688 C   0  0  2  0  0  0  0  0  0  0  0  0
    8.6442  -19.0325   20.2740 N   0  0  0  0  0  0  0  0  0  0  0  0
   10.3612  -17.3805   20.3966 C   0  0  0  0  0  0  0  0  0  0  0  0
   11.5121  -16.9143   20.2531 O   0  0  0  0  0  0  0  0  0  0  0  0
    8.7487  -13.2098   19.6450 C   0  0  0  0  0  0  0  0  0  0  0  0
    7.7083  -14.1523   20.2866 C   0  0  2  0  0  0  0  0  0  0  0  0
    6.4259  -13.3979   20.2970 C   0  0  0  0  0  0  0  0  0  0  0  0
    8.2664  -14.5524   21.5964 C   0  0  0  0  0  0  0  0  0  0  0  0
    9.5862  -15.2728   21.5710 C   0  0  2  0  0  0  0  0  0  0  0  0
    9.3747  -16.6150   21.0718 N   0  0  0  0  0  0  0  0  0  0  0  0
   10.1080  -15.3922   22.9845 C   0  0  0  0  0  0  0  0  0  0  0  0
   10.9352  -14.5684   23.4399 O   0  0  0  0  0  0  0  0  0  0  0  0
    9.6750  -16.4396   23.8314 N   0  0  0  0  0  0  0  0  0  0  0  0
   10.1787  -16.6211   25.2093 C   0  0  1  0  0  0  0  0  0  0  0  0
    9.8561  -15.4328   26.0368 C   0  0  0  0  0  0  0  0  0  0  0  0
    8.4240  -15.1321   26.1363 C   0  0  0  0  0  0  0  0  0  0  0  0
    7.3667  -16.0065   25.9074 C   0  0  0  0  0  0  0  0  0  0  0  0
    6.1993  -15.3654   26.0634 N   0  0  0  0  0  0  0  0  0  0  0  0
    6.4352  -14.0874   26.3906 C   0  0  0  0  0  0  0  0  0  0  0  0
    5.6338  -12.9949   26.6795 C   0  0  0  0  0  0  0  0  0  0  0  0
    6.1560  -11.7635   27.0133 C   0  0  0  0  0  0  0  0  0  0  0  0
    7.5303  -11.5987   27.0654 C   0  0  0  0  0  0  0  0  0  0  0  0
    8.3347  -12.6773   26.7795 C   0  0  0  0  0  0  0  0  0  0  0  0
    7.8248  -13.9211   26.4417 C   0  0  0  0  0  0  0  0  0  0  0  0
    9.8027  -17.9388   25.7195 C   0  0  0  0  0  0  0  0  0  0  0  0
    9.0275  -18.8814   25.0730 O   0  0  0  0  0  0  0  0  0  0  0  0
   10.2145  -18.2798   26.8821 O   0  0  0  0  0  0  0  0  0  0  0  0
  2  3  1  0
  2  1  1  0
  3  4  1  1
  5  3  1  0
  5  7  1  0
  5  6  1  6
  7  8  2  0
 10  9  1  1
 10 12  1  0
 11 10  1  0
 13 12  1  1
 13 15  1  0
 14 13  1  0
 14  7  1  0
 15 17  1  0
 16 15  2  0
 17 18  1  0
 18 19  1  1
 19 20  1  0
 20 21  2  0
 22 21  1  0
 23 22  1  0
 24 23  2  0
 25 24  1  0
 26 27  1  0
 26 25  2  0
 27 28  2  0
 28 23  1  0
 28 20  1  0
 29 30  1  0
 29 18  1  0
 31 29  2  0
M  END
$$$$
