KLN.pdb
     RDKit          3D

 26 25  0  0  1  0  0  0  0  0999 V2000
    6.9499  -16.3210   20.6630 N   0  0  0  0  0  0  0  0  0  0  0  0
    8.3623  -16.5802   20.9262 C   0  0  1  0  0  0  0  0  0  0  0  0
    9.1161  -15.9589   19.7625 C   0  0  0  0  0  0  0  0  0  0  0  0
    8.3810  -16.3624   18.5134 C   0  0  0  0  0  0  0  0  0  0  0  0
    9.2932  -16.4366   17.3120 C   0  0  0  0  0  0  0  0  0  0  0  0
    8.5142  -16.8139   16.0615 C   0  0  0  0  0  0  0  0  0  0  0  0
    9.3806  -17.0344   14.9380 N   0  0  0  0  0  0  0  0  0  0  0  0
    8.7575  -15.8728   22.1964 C   0  0  0  0  0  0  0  0  0  0  0  0
    9.9603  -15.8487   22.5865 O   0  0  0  0  0  0  0  0  0  0  0  0
    5.8423  -12.5736   26.5488 C   0  0  0  0  0  0  0  0  0  0  0  0
    7.1899  -13.1830   26.1189 C   0  0  2  0  0  0  0  0  0  0  0  0
    8.1893  -12.0588   26.2345 C   0  0  0  0  0  0  0  0  0  0  0  0
    7.0483  -13.7426   24.7464 C   0  0  0  0  0  0  0  0  0  0  0  0
    8.1324  -14.6870   24.3149 C   0  0  2  0  0  0  0  0  0  0  0  0
    7.7991  -15.2083   23.0019 N   0  0  0  0  0  0  0  0  0  0  0  0
    8.4643  -15.7206   25.3015 C   0  0  0  0  0  0  0  0  0  0  0  0
    7.5330  -16.4585   25.7121 O   0  0  0  0  0  0  0  0  0  0  0  0
   11.0288  -20.4424   26.1824 N   0  0  0  0  0  0  0  0  0  0  0  0
   11.6834  -19.1828   26.1945 C   0  0  0  0  0  0  0  0  0  0  0  0
   12.8035  -19.1808   26.8173 O   0  0  0  0  0  0  0  0  0  0  0  0
   11.1589  -17.9630   25.5616 C   0  0  0  0  0  0  0  0  0  0  0  0
   10.1570  -17.2246   26.3835 C   0  0  2  0  0  0  0  0  0  0  0  0
    9.7623  -15.9503   25.8307 N   0  0  0  0  0  0  0  0  0  0  0  0
   10.5962  -17.0349   27.7915 C   0  0  0  0  0  0  0  0  0  0  0  0
   10.9945  -15.9085   28.1779 O   0  0  0  0  0  0  0  0  0  0  0  0
   10.5863  -18.0667   28.7180 O   0  0  0  0  0  0  0  0  0  0  0  0
  2  1  1  6
  3  4  1  0
  3  2  1  0
  5  6  1  0
  5  4  1  0
  7  6  1  0
  8  2  1  0
  8  9  2  0
 11 10  1  6
 11 13  1  0
 12 11  1  0
 14 13  1  1
 14 15  1  0
 15  8  1  0
 16 14  1  0
 17 16  2  0
 19 18  1  0
 19 21  1  0
 20 19  2  0
 22 21  1  6
 22 23  1  0
 22 24  1  0
 23 16  1  0
 24 26  1  0
 25 24  2  0
M  END
$$$$
