KLN.pdb
     RDKit          3D

 26 25  0  0  1  0  0  0  0  0999 V2000
    8.6054  -17.6275   17.3429 N   0  0  0  0  0  0  0  0  0  0  0  0
    9.9092  -17.0272   17.0758 C   0  0  1  0  0  0  0  0  0  0  0  0
    9.7078  -16.1342   15.8633 C   0  0  0  0  0  0  0  0  0  0  0  0
    9.3342  -17.0410   14.7224 C   0  0  0  0  0  0  0  0  0  0  0  0
    9.8812  -16.5533   13.4018 C   0  0  0  0  0  0  0  0  0  0  0  0
    9.4361  -17.4575   12.2628 C   0  0  0  0  0  0  0  0  0  0  0  0
   10.1590  -17.1874   11.0520 N   0  0  0  0  0  0  0  0  0  0  0  0
   10.2999  -16.1711   18.2524 C   0  0  0  0  0  0  0  0  0  0  0  0
   11.4879  -15.7633   18.4008 O   0  0  0  0  0  0  0  0  0  0  0  0
    8.4123  -12.3576   19.4657 C   0  0  0  0  0  0  0  0  0  0  0  0
    7.6581  -13.6135   19.9411 C   0  0  2  0  0  0  0  0  0  0  0  0
    6.3440  -13.1069   20.4823 C   0  0  0  0  0  0  0  0  0  0  0  0
    8.4994  -14.3308   20.9383 C   0  0  0  0  0  0  0  0  0  0  0  0
    9.7293  -14.9960   20.3921 C   0  0  2  0  0  0  0  0  0  0  0  0
    9.3538  -15.7901   19.2365 N   0  0  0  0  0  0  0  0  0  0  0  0
   10.5165  -15.7282   21.3900 C   0  0  0  0  0  0  0  0  0  0  0  0
   10.8124  -15.1305   22.4556 O   0  0  0  0  0  0  0  0  0  0  0  0
   12.5625  -19.5236   24.4501 N   0  0  0  0  0  0  0  0  0  0  0  0
   11.3400  -19.8289   23.7964 C   0  0  0  0  0  0  0  0  0  0  0  0
   10.7354  -20.8554   24.2693 O   0  0  0  0  0  0  0  0  0  0  0  0
   10.7798  -19.0628   22.6726 C   0  0  0  0  0  0  0  0  0  0  0  0
   11.5307  -17.8175   22.3411 C   0  0  2  0  0  0  0  0  0  0  0  0
   10.9725  -17.0653   21.2421 N   0  0  0  0  0  0  0  0  0  0  0  0
   12.9736  -18.0678   22.0830 C   0  0  0  0  0  0  0  0  0  0  0  0
   13.3192  -18.9023   21.2106 O   0  0  0  0  0  0  0  0  0  0  0  0
   13.9774  -17.4082   22.7760 O   0  0  0  0  0  0  0  0  0  0  0  0
  2  1  1  1
  3  4  1  0
  3  2  1  0
  5  6  1  0
  5  4  1  0
  7  6  1  0
  8  2  1  0
  8  9  2  0
 11 10  1  1
 11 13  1  0
 12 11  1  0
 14 13  1  1
 14 15  1  0
 15  8  1  0
 16 14  1  0
 17 16  2  0
 19 18  1  0
 19 21  1  0
 20 19  2  0
 22 21  1  6
 22 23  1  0
 22 24  1  0
 23 16  1  0
 24 26  1  0
 25 24  2  0
M  END
$$$$
