KLN.pdb
     RDKit          3D

 26 25  0  0  1  0  0  0  0  0999 V2000
    6.8758  -15.4175   21.5221 N   0  0  0  0  0  0  0  0  0  0  0  0
    8.2101  -14.8394   21.3916 C   0  0  1  0  0  0  0  0  0  0  0  0
    8.0182  -13.5328   20.6402 C   0  0  0  0  0  0  0  0  0  0  0  0
    7.5307  -13.8988   19.2647 C   0  0  0  0  0  0  0  0  0  0  0  0
    8.3323  -13.2254   18.1762 C   0  0  0  0  0  0  0  0  0  0  0  0
    7.8808  -13.6932   16.8013 C   0  0  0  0  0  0  0  0  0  0  0  0
    8.5704  -13.0022   15.7483 N   0  0  0  0  0  0  0  0  0  0  0  0
    8.7451  -14.5367   22.7672 C   0  0  0  0  0  0  0  0  0  0  0  0
    9.9551  -14.2140   22.9436 O   0  0  0  0  0  0  0  0  0  0  0  0
    7.6588  -11.5415   25.8016 C   0  0  0  0  0  0  0  0  0  0  0  0
    6.6697  -12.7188   25.7128 C   0  0  2  0  0  0  0  0  0  0  0  0
    5.4945  -12.3160   26.5690 C   0  0  0  0  0  0  0  0  0  0  0  0
    7.3594  -13.9608   26.1584 C   0  0  0  0  0  0  0  0  0  0  0  0
    8.4511  -14.4572   25.2556 C   0  0  2  0  0  0  0  0  0  0  0  0
    7.9153  -14.6017   23.9143 N   0  0  0  0  0  0  0  0  0  0  0  0
    9.1529  -15.6466   25.7500 C   0  0  0  0  0  0  0  0  0  0  0  0
    9.6167  -15.6094   26.9178 O   0  0  0  0  0  0  0  0  0  0  0  0
   10.9429  -21.4231   24.6873 N   0  0  0  0  0  0  0  0  0  0  0  0
   10.3221  -20.4570   25.5218 C   0  0  0  0  0  0  0  0  0  0  0  0
   10.4734  -20.6737   26.7760 O   0  0  0  0  0  0  0  0  0  0  0  0
    9.5633  -19.2955   25.0333 C   0  0  0  0  0  0  0  0  0  0  0  0
   10.0485  -17.9823   25.5477 C   0  0  2  0  0  0  0  0  0  0  0  0
    9.3499  -16.8404   25.0059 N   0  0  0  0  0  0  0  0  0  0  0  0
   11.5121  -17.7971   25.3611 C   0  0  0  0  0  0  0  0  0  0  0  0
   11.9553  -17.3632   24.2693 O   0  0  0  0  0  0  0  0  0  0  0  0
   12.4305  -18.0876   26.3586 O   0  0  0  0  0  0  0  0  0  0  0  0
  2  1  1  1
  3  4  1  0
  3  2  1  0
  5  6  1  0
  5  4  1  0
  7  6  1  0
  8  2  1  0
  8  9  2  0
 11 10  1  1
 11 13  1  0
 12 11  1  0
 14 13  1  1
 14 15  1  0
 15  8  1  0
 16 14  1  0
 17 16  2  0
 19 18  1  0
 19 21  1  0
 20 19  2  0
 22 21  1  6
 22 23  1  0
 22 24  1  0
 23 16  1  0
 24 26  1  0
 25 24  2  0
M  END
$$$$
