KLN.pdb
     RDKit          3D

 26 25  0  0  1  0  0  0  0  0999 V2000
    7.1992  -15.7007   21.8598 N   0  0  0  0  0  0  0  0  0  0  0  0
    8.5197  -15.0889   21.7426 C   0  0  1  0  0  0  0  0  0  0  0  0
    8.3033  -13.7912   20.9826 C   0  0  0  0  0  0  0  0  0  0  0  0
    7.9072  -14.1768   19.5833 C   0  0  0  0  0  0  0  0  0  0  0  0
    8.3441  -13.1527   18.5629 C   0  0  0  0  0  0  0  0  0  0  0  0
    8.0002  -13.6099   17.1536 C   0  0  0  0  0  0  0  0  0  0  0  0
    8.4199  -12.6569   16.1650 N   0  0  0  0  0  0  0  0  0  0  0  0
    9.0298  -14.7662   23.1231 C   0  0  0  0  0  0  0  0  0  0  0  0
   10.2216  -14.3864   23.3094 O   0  0  0  0  0  0  0  0  0  0  0  0
    7.6439  -11.6382   25.4031 C   0  0  0  0  0  0  0  0  0  0  0  0
    6.8117  -12.9179   25.6090 C   0  0  2  0  0  0  0  0  0  0  0  0
    5.5525  -12.4652   26.3059 C   0  0  0  0  0  0  0  0  0  0  0  0
    7.6231  -13.9000   26.3797 C   0  0  0  0  0  0  0  0  0  0  0  0
    8.6921  -14.6117   25.6024 C   0  0  2  0  0  0  0  0  0  0  0  0
    8.1960  -14.8753   24.2640 N   0  0  0  0  0  0  0  0  0  0  0  0
    9.2491  -15.7897   26.2759 C   0  0  0  0  0  0  0  0  0  0  0  0
    9.5813  -15.6716   27.4825 O   0  0  0  0  0  0  0  0  0  0  0  0
   10.0864  -19.1906   23.6539 N   0  0  0  0  0  0  0  0  0  0  0  0
    9.5000  -19.9452   24.7035 C   0  0  0  0  0  0  0  0  0  0  0  0
    9.0725  -21.0986   24.3437 O   0  0  0  0  0  0  0  0  0  0  0  0
    9.3734  -19.4833   26.0943 C   0  0  0  0  0  0  0  0  0  0  0  0
   10.0301  -18.1729   26.3702 C   0  0  2  0  0  0  0  0  0  0  0  0
    9.4433  -17.0574   25.6654 N   0  0  0  0  0  0  0  0  0  0  0  0
   11.4950  -18.1993   26.1162 C   0  0  0  0  0  0  0  0  0  0  0  0
   11.9977  -17.4273   25.2629 O   0  0  0  0  0  0  0  0  0  0  0  0
   12.3507  -19.0557   26.7925 O   0  0  0  0  0  0  0  0  0  0  0  0
  2  1  1  1
  3  4  1  0
  3  2  1  0
  5  6  1  0
  5  4  1  0
  7  6  1  0
  8  2  1  0
  8  9  2  0
 11 10  1  1
 11 13  1  0
 12 11  1  0
 14 13  1  1
 14 15  1  0
 15  8  1  0
 16 14  1  0
 17 16  2  0
 19 18  1  0
 19 21  1  0
 20 19  2  0
 22 21  1  6
 22 23  1  0
 22 24  1  0
 23 16  1  0
 24 26  1  0
 25 24  2  0
M  END
$$$$
