KLN.pdb
     RDKit          3D

 26 25  0  0  1  0  0  0  0  0999 V2000
    8.2693  -17.0346   20.3954 N   0  0  0  0  0  0  0  0  0  0  0  0
    7.8122  -17.2491   21.7653 C   0  0  1  0  0  0  0  0  0  0  0  0
    8.4462  -18.5569   22.2081 C   0  0  0  0  0  0  0  0  0  0  0  0
    7.9776  -19.6083   21.2392 C   0  0  0  0  0  0  0  0  0  0  0  0
    8.3878  -20.9989   21.6622 C   0  0  0  0  0  0  0  0  0  0  0  0
    7.8674  -22.0397   20.6828 C   0  0  0  0  0  0  0  0  0  0  0  0
    6.5071  -22.4041   20.9626 N   0  0  0  0  0  0  0  0  0  0  0  0
    8.3371  -16.1345   22.6326 C   0  0  0  0  0  0  0  0  0  0  0  0
    9.5359  -15.7422   22.5417 O   0  0  0  0  0  0  0  0  0  0  0  0
    7.7163  -13.0914   27.1879 C   0  0  0  0  0  0  0  0  0  0  0  0
    7.3181  -12.4706   25.8358 C   0  0  2  0  0  0  0  0  0  0  0  0
    6.2051  -11.5034   26.1549 C   0  0  0  0  0  0  0  0  0  0  0  0
    6.9352  -13.5631   24.8995 C   0  0  0  0  0  0  0  0  0  0  0  0
    8.0387  -14.5051   24.5143 C   0  0  2  0  0  0  0  0  0  0  0  0
    7.5099  -15.4838   23.5818 N   0  0  0  0  0  0  0  0  0  0  0  0
    8.7602  -15.0904   25.6494 C   0  0  0  0  0  0  0  0  0  0  0  0
    8.1630  -15.9549   26.3396 O   0  0  0  0  0  0  0  0  0  0  0  0
   10.5887  -17.2387   30.1751 N   0  0  0  0  0  0  0  0  0  0  0  0
   10.3936  -16.2346   29.1908 C   0  0  0  0  0  0  0  0  0  0  0  0
   10.4564  -15.0375   29.6444 O   0  0  0  0  0  0  0  0  0  0  0  0
   10.1393  -16.4996   27.7665 C   0  0  0  0  0  0  0  0  0  0  0  0
   10.9078  -15.6283   26.8312 C   0  0  2  0  0  0  0  0  0  0  0  0
   10.0862  -14.7519   26.0297 N   0  0  0  0  0  0  0  0  0  0  0  0
   11.8162  -16.3999   25.9420 C   0  0  0  0  0  0  0  0  0  0  0  0
   13.0482  -16.1571   25.9409 O   0  0  0  0  0  0  0  0  0  0  0  0
   11.3561  -17.3971   25.0953 O   0  0  0  0  0  0  0  0  0  0  0  0
  2  1  1  6
  3  4  1  0
  3  2  1  0
  5  6  1  0
  5  4  1  0
  7  6  1  0
  8  2  1  0
  8  9  2  0
 11 10  1  1
 11 13  1  0
 12 11  1  0
 14 13  1  1
 14 15  1  0
 15  8  1  0
 16 14  1  0
 17 16  2  0
 19 18  1  0
 19 21  1  0
 20 19  2  0
 22 21  1  6
 22 23  1  0
 22 24  1  0
 23 16  1  0
 24 26  1  0
 25 24  2  0
M  END
$$$$
