KLN.pdb
     RDKit          3D

 26 25  0  0  1  0  0  0  0  0999 V2000
    8.1472  -16.1067   20.1446 N   0  0  0  0  0  0  0  0  0  0  0  0
    7.6878  -16.4580   21.4852 C   0  0  1  0  0  0  0  0  0  0  0  0
    8.3327  -17.7970   21.8008 C   0  0  0  0  0  0  0  0  0  0  0  0
    7.8312  -18.7670   20.7658 C   0  0  0  0  0  0  0  0  0  0  0  0
    8.2489  -20.1875   21.0638 C   0  0  0  0  0  0  0  0  0  0  0  0
    7.6537  -21.1523   20.0498 C   0  0  0  0  0  0  0  0  0  0  0  0
    8.0989  -22.4997   20.2687 N   0  0  0  0  0  0  0  0  0  0  0  0
    8.1995  -15.4288   22.4593 C   0  0  0  0  0  0  0  0  0  0  0  0
    9.3752  -14.9709   22.3720 O   0  0  0  0  0  0  0  0  0  0  0  0
    5.8786  -12.0646   27.1199 C   0  0  0  0  0  0  0  0  0  0  0  0
    7.1551  -12.5040   26.3785 C   0  0  2  0  0  0  0  0  0  0  0  0
    7.8043  -11.2243   25.9124 C   0  0  0  0  0  0  0  0  0  0  0  0
    6.7770  -13.4377   25.2822 C   0  0  0  0  0  0  0  0  0  0  0  0
    7.9207  -14.0868   24.5583 C   0  0  2  0  0  0  0  0  0  0  0  0
    7.3853  -14.9346   23.5088 N   0  0  0  0  0  0  0  0  0  0  0  0
    8.8893  -14.7574   25.4324 C   0  0  0  0  0  0  0  0  0  0  0  0
    8.9548  -14.3819   26.6303 O   0  0  0  0  0  0  0  0  0  0  0  0
   11.5747  -18.4189   27.9799 N   0  0  0  0  0  0  0  0  0  0  0  0
   10.1689  -18.2500   27.8778 C   0  0  0  0  0  0  0  0  0  0  0  0
    9.4940  -18.9739   28.6922 O   0  0  0  0  0  0  0  0  0  0  0  0
    9.5037  -17.3368   26.9359 C   0  0  0  0  0  0  0  0  0  0  0  0
   10.4247  -16.6676   25.9724 C   0  0  2  0  0  0  0  0  0  0  0  0
    9.7625  -15.8013   25.0257 N   0  0  0  0  0  0  0  0  0  0  0  0
   11.2868  -17.6310   25.2377 C   0  0  0  0  0  0  0  0  0  0  0  0
   10.7728  -18.4421   24.4285 O   0  0  0  0  0  0  0  0  0  0  0  0
   12.6623  -17.6765   25.4082 O   0  0  0  0  0  0  0  0  0  0  0  0
  2  1  1  6
  3  4  1  0
  3  2  1  0
  5  6  1  0
  5  4  1  0
  7  6  1  0
  8  2  1  0
  8  9  2  0
 11 10  1  6
 11 13  1  0
 12 11  1  0
 14 13  1  1
 14 15  1  0
 15  8  1  0
 16 14  1  0
 17 16  2  0
 19 18  1  0
 19 21  1  0
 20 19  2  0
 22 21  1  6
 22 23  1  0
 22 24  1  0
 23 16  1  0
 24 26  1  0
 25 24  2  0
M  END
$$$$
