KLN.pdb
     RDKit          3D

 26 25  0  0  1  0  0  0  0  0999 V2000
    7.3373  -15.6210   21.4865 N   0  0  0  0  0  0  0  0  0  0  0  0
    8.5618  -14.8296   21.4101 C   0  0  1  0  0  0  0  0  0  0  0  0
    8.2104  -13.6120   20.5720 C   0  0  0  0  0  0  0  0  0  0  0  0
    7.6649  -14.1327   19.2701 C   0  0  0  0  0  0  0  0  0  0  0  0
    8.3519  -13.5159   18.0749 C   0  0  0  0  0  0  0  0  0  0  0  0
    7.7102  -13.9848   16.7782 C   0  0  0  0  0  0  0  0  0  0  0  0
    8.2699  -13.3216   15.6343 N   0  0  0  0  0  0  0  0  0  0  0  0
    8.9339  -14.3754   22.7977 C   0  0  0  0  0  0  0  0  0  0  0  0
    9.9708  -13.6814   23.0043 O   0  0  0  0  0  0  0  0  0  0  0  0
    8.0671  -11.6134   26.2242 C   0  0  0  0  0  0  0  0  0  0  0  0
    6.9083  -12.5592   25.8570 C   0  0  2  0  0  0  0  0  0  0  0  0
    5.7550  -12.1330   26.7314 C   0  0  0  0  0  0  0  0  0  0  0  0
    7.3514  -13.9654   26.0642 C   0  0  0  0  0  0  0  0  0  0  0  0
    8.5565  -14.3896   25.2760 C   0  0  2  0  0  0  0  0  0  0  0  0
    8.1385  -14.7074   23.9228 N   0  0  0  0  0  0  0  0  0  0  0  0
    9.3607  -15.4372   25.9145 C   0  0  0  0  0  0  0  0  0  0  0  0
    9.0958  -15.7333   27.1071 O   0  0  0  0  0  0  0  0  0  0  0  0
    9.3615  -20.5694   26.2713 N   0  0  0  0  0  0  0  0  0  0  0  0
    9.6196  -19.8333   25.0853 C   0  0  0  0  0  0  0  0  0  0  0  0
   10.0344  -20.5478   24.1054 O   0  0  0  0  0  0  0  0  0  0  0  0
    9.4409  -18.3796   24.9490 C   0  0  0  0  0  0  0  0  0  0  0  0
   10.5949  -17.5690   25.4347 C   0  0  2  0  0  0  0  0  0  0  0  0
   10.4205  -16.1434   25.2854 N   0  0  0  0  0  0  0  0  0  0  0  0
   11.8839  -17.9744   24.8140 C   0  0  0  0  0  0  0  0  0  0  0  0
   12.6056  -18.8366   25.3731 O   0  0  0  0  0  0  0  0  0  0  0  0
   12.3361  -17.4327   23.6202 O   0  0  0  0  0  0  0  0  0  0  0  0
  2  1  1  1
  3  4  1  0
  3  2  1  0
  5  6  1  0
  5  4  1  0
  7  6  1  0
  8  2  1  0
  8  9  2  0
 11 10  1  1
 11 13  1  0
 12 11  1  0
 14 13  1  1
 14 15  1  0
 15  8  1  0
 16 14  1  0
 17 16  2  0
 19 18  1  0
 19 21  1  0
 20 19  2  0
 22 21  1  6
 22 23  1  0
 22 24  1  0
 23 16  1  0
 24 26  1  0
 25 24  2  0
M  END
$$$$
