KLN.pdb
     RDKit          3D

 26 25  0  0  1  0  0  0  0  0999 V2000
    7.8628  -14.5744   20.2809 N   0  0  0  0  0  0  0  0  0  0  0  0
    7.2289  -15.0974   21.4876 C   0  0  1  0  0  0  0  0  0  0  0  0
    7.2931  -16.6101   21.3607 C   0  0  0  0  0  0  0  0  0  0  0  0
    8.2769  -16.9050   20.2613 C   0  0  0  0  0  0  0  0  0  0  0  0
    8.4065  -18.3855   19.9922 C   0  0  0  0  0  0  0  0  0  0  0  0
    9.3154  -18.6429   18.8002 C   0  0  0  0  0  0  0  0  0  0  0  0
    9.5773  -20.0431   18.6202 N   0  0  0  0  0  0  0  0  0  0  0  0
    8.0396  -14.6737   22.6848 C   0  0  0  0  0  0  0  0  0  0  0  0
    9.2985  -14.5703   22.6208 O   0  0  0  0  0  0  0  0  0  0  0  0
    7.5563  -11.0592   25.4132 C   0  0  0  0  0  0  0  0  0  0  0  0
    6.5503  -12.2003   25.6542 C   0  0  2  0  0  0  0  0  0  0  0  0
    5.5617  -11.6539   26.6544 C   0  0  0  0  0  0  0  0  0  0  0  0
    7.2922  -13.4054   26.1167 C   0  0  0  0  0  0  0  0  0  0  0  0
    8.2030  -14.0361   25.1038 C   0  0  2  0  0  0  0  0  0  0  0  0
    7.4248  -14.3751   23.9264 N   0  0  0  0  0  0  0  0  0  0  0  0
    9.0138  -15.1427   25.6232 C   0  0  0  0  0  0  0  0  0  0  0  0
    9.6456  -14.9535   26.6933 O   0  0  0  0  0  0  0  0  0  0  0  0
   10.6107  -21.0077   26.0703 N   0  0  0  0  0  0  0  0  0  0  0  0
   10.1048  -19.7400   26.4602 C   0  0  0  0  0  0  0  0  0  0  0  0
   10.2919  -19.4592   27.6967 O   0  0  0  0  0  0  0  0  0  0  0  0
    9.4202  -18.8007   25.5586 C   0  0  0  0  0  0  0  0  0  0  0  0
   10.0239  -17.4376   25.5155 C   0  0  2  0  0  0  0  0  0  0  0  0
    9.1404  -16.4155   25.0054 N   0  0  0  0  0  0  0  0  0  0  0  0
   11.3056  -17.4001   24.7625 C   0  0  0  0  0  0  0  0  0  0  0  0
   12.3433  -16.9551   25.3122 O   0  0  0  0  0  0  0  0  0  0  0  0
   11.4107  -17.8432   23.4527 O   0  0  0  0  0  0  0  0  0  0  0  0
  2  1  1  6
  3  4  1  0
  3  2  1  0
  5  6  1  0
  5  4  1  0
  7  6  1  0
  8  2  1  0
  8  9  2  0
 11 10  1  1
 11 13  1  0
 12 11  1  0
 14 13  1  1
 14 15  1  0
 15  8  1  0
 16 14  1  0
 17 16  2  0
 19 18  1  0
 19 21  1  0
 20 19  2  0
 22 21  1  6
 22 23  1  0
 22 24  1  0
 23 16  1  0
 24 26  1  0
 25 24  2  0
M  END
$$$$
