KLN.pdb
     RDKit          3D

 26 25  0  0  1  0  0  0  0  0999 V2000
    6.9749  -16.4065   21.5499 N   0  0  0  0  0  0  0  0  0  0  0  0
    8.2878  -15.8296   21.2762 C   0  0  1  0  0  0  0  0  0  0  0  0
    8.0423  -14.7073   20.2818 C   0  0  0  0  0  0  0  0  0  0  0  0
    8.0198  -15.3424   18.9181 C   0  0  0  0  0  0  0  0  0  0  0  0
    8.1766  -14.3264   17.8118 C   0  0  0  0  0  0  0  0  0  0  0  0
    8.1772  -15.0030   16.4496 C   0  0  0  0  0  0  0  0  0  0  0  0
    8.1563  -14.0476   15.3780 N   0  0  0  0  0  0  0  0  0  0  0  0
    8.8349  -15.2408   22.5506 C   0  0  0  0  0  0  0  0  0  0  0  0
   10.0548  -14.9239   22.6556 O   0  0  0  0  0  0  0  0  0  0  0  0
    7.6637  -11.7734   25.6407 C   0  0  0  0  0  0  0  0  0  0  0  0
    6.6825  -12.9549   25.5246 C   0  0  2  0  0  0  0  0  0  0  0  0
    5.5465  -12.6214   26.4598 C   0  0  0  0  0  0  0  0  0  0  0  0
    7.4046  -14.2138   25.8569 C   0  0  0  0  0  0  0  0  0  0  0  0
    8.5457  -14.5675   24.9481 C   0  0  2  0  0  0  0  0  0  0  0  0
    8.0060  -15.0196   23.6787 N   0  0  0  0  0  0  0  0  0  0  0  0
    9.5302  -15.4810   25.5381 C   0  0  0  0  0  0  0  0  0  0  0  0
   10.5086  -14.9752   26.1440 O   0  0  0  0  0  0  0  0  0  0  0  0
   11.4096  -19.5887   28.2601 N   0  0  0  0  0  0  0  0  0  0  0  0
   10.5367  -18.5565   28.6934 C   0  0  0  0  0  0  0  0  0  0  0  0
   10.3301  -18.5421   29.9583 O   0  0  0  0  0  0  0  0  0  0  0  0
    9.9038  -17.5700   27.8046 C   0  0  0  0  0  0  0  0  0  0  0  0
   10.2240  -17.7488   26.3589 C   0  0  2  0  0  0  0  0  0  0  0  0
    9.4620  -16.8984   25.4750 N   0  0  0  0  0  0  0  0  0  0  0  0
   10.0969  -19.1615   25.9125 C   0  0  0  0  0  0  0  0  0  0  0  0
    9.2446  -19.4706   25.0437 O   0  0  0  0  0  0  0  0  0  0  0  0
   10.8932  -20.1760   26.4222 O   0  0  0  0  0  0  0  0  0  0  0  0
  2  1  1  1
  3  4  1  0
  3  2  1  0
  5  6  1  0
  5  4  1  0
  7  6  1  0
  8  2  1  0
  8  9  2  0
 11 10  1  1
 11 13  1  0
 12 11  1  0
 14 13  1  1
 14 15  1  0
 15  8  1  0
 16 14  1  0
 17 16  2  0
 19 18  1  0
 19 21  1  0
 20 19  2  0
 22 21  1  1
 22 23  1  0
 22 24  1  0
 23 16  1  0
 24 26  1  0
 25 24  2  0
M  END
$$$$
