KLN.pdb
     RDKit          3D

 26 25  0  0  1  0  0  0  0  0999 V2000
    7.0846  -15.7017   21.3793 N   0  0  0  0  0  0  0  0  0  0  0  0
    8.4012  -15.0828   21.2559 C   0  0  1  0  0  0  0  0  0  0  0  0
    8.1745  -13.7872   20.4953 C   0  0  0  0  0  0  0  0  0  0  0  0
    7.7597  -14.1765   19.1025 C   0  0  0  0  0  0  0  0  0  0  0  0
    8.2542  -13.1977   18.0642 C   0  0  0  0  0  0  0  0  0  0  0  0
    7.6559  -13.5051   16.7001 C   0  0  0  0  0  0  0  0  0  0  0  0
    8.1763  -12.6384   15.6804 N   0  0  0  0  0  0  0  0  0  0  0  0
    8.9153  -14.7558   22.6338 C   0  0  0  0  0  0  0  0  0  0  0  0
   10.0641  -14.2548   22.8031 O   0  0  0  0  0  0  0  0  0  0  0  0
    7.8138  -11.9022   25.7409 C   0  0  0  0  0  0  0  0  0  0  0  0
    6.8528  -13.0963   25.5897 C   0  0  2  0  0  0  0  0  0  0  0  0
    5.6435  -12.7405   26.4188 C   0  0  0  0  0  0  0  0  0  0  0  0
    7.5541  -14.3358   26.0237 C   0  0  0  0  0  0  0  0  0  0  0  0
    8.6651  -14.8012   25.1278 C   0  0  2  0  0  0  0  0  0  0  0  0
    8.1335  -14.9962   23.7913 N   0  0  0  0  0  0  0  0  0  0  0  0
    9.4201  -15.9482   25.6438 C   0  0  0  0  0  0  0  0  0  0  0  0
    9.6689  -15.9788   26.8756 O   0  0  0  0  0  0  0  0  0  0  0  0
    8.3782  -20.2073   23.4366 N   0  0  0  0  0  0  0  0  0  0  0  0
    9.0519  -19.8682   24.6391 C   0  0  0  0  0  0  0  0  0  0  0  0
    8.3301  -19.9779   25.6926 O   0  0  0  0  0  0  0  0  0  0  0  0
   10.4526  -19.4257   24.7155 C   0  0  0  0  0  0  0  0  0  0  0  0
   10.6499  -18.1238   25.4160 C   0  0  2  0  0  0  0  0  0  0  0  0
    9.8939  -17.0294   24.8539 N   0  0  0  0  0  0  0  0  0  0  0  0
   12.0817  -17.7341   25.5123 C   0  0  0  0  0  0  0  0  0  0  0  0
   12.5533  -16.8786   24.7232 O   0  0  0  0  0  0  0  0  0  0  0  0
   12.9393  -18.2834   26.4534 O   0  0  0  0  0  0  0  0  0  0  0  0
  2  1  1  1
  3  4  1  0
  3  2  1  0
  5  6  1  0
  5  4  1  0
  7  6  1  0
  8  2  1  0
  8  9  2  0
 11 10  1  1
 11 13  1  0
 12 11  1  0
 14 13  1  1
 14 15  1  0
 15  8  1  0
 16 14  1  0
 17 16  2  0
 19 18  1  0
 19 21  1  0
 20 19  2  0
 22 21  1  6
 22 23  1  0
 22 24  1  0
 23 16  1  0
 24 26  1  0
 25 24  2  0
M  END
$$$$
