KLN.pdb
     RDKit          3D

 26 25  0  0  1  0  0  0  0  0999 V2000
    9.3330  -17.9240   18.8847 N   0  0  0  0  0  0  0  0  0  0  0  0
   10.6507  -17.4599   19.3088 C   0  0  1  0  0  0  0  0  0  0  0  0
   11.2807  -16.8348   18.0755 C   0  0  0  0  0  0  0  0  0  0  0  0
   11.0423  -17.7943   16.9414 C   0  0  0  0  0  0  0  0  0  0  0  0
   11.6588  -17.3154   15.6485 C   0  0  0  0  0  0  0  0  0  0  0  0
   11.6173  -18.4072   14.5904 C   0  0  0  0  0  0  0  0  0  0  0  0
   12.2455  -17.9913   13.3681 N   0  0  0  0  0  0  0  0  0  0  0  0
   10.4755  -16.3947   20.3598 C   0  0  0  0  0  0  0  0  0  0  0  0
   11.4468  -16.0117   21.0735 O   0  0  0  0  0  0  0  0  0  0  0  0
    8.8470  -12.4603   19.5939 C   0  0  0  0  0  0  0  0  0  0  0  0
    7.7590  -13.5167   19.8631 C   0  0  2  0  0  0  0  0  0  0  0  0
    6.4578  -12.8516   19.4877 C   0  0  0  0  0  0  0  0  0  0  0  0
    7.8446  -13.9428   21.2871 C   0  0  0  0  0  0  0  0  0  0  0  0
    9.0270  -14.7980   21.6393 C   0  0  2  0  0  0  0  0  0  0  0  0
    9.2184  -15.7816   20.5893 N   0  0  0  0  0  0  0  0  0  0  0  0
    8.9825  -15.3674   22.9905 C   0  0  0  0  0  0  0  0  0  0  0  0
    8.8691  -14.5720   23.9574 O   0  0  0  0  0  0  0  0  0  0  0  0
    6.6695  -18.8654   26.9739 N   0  0  0  0  0  0  0  0  0  0  0  0
    7.8489  -18.8644   26.1839 C   0  0  0  0  0  0  0  0  0  0  0  0
    8.8686  -19.3799   26.7647 O   0  0  0  0  0  0  0  0  0  0  0  0
    7.9378  -18.3300   24.8164 C   0  0  0  0  0  0  0  0  0  0  0  0
    8.9613  -17.2597   24.6387 C   0  0  2  0  0  0  0  0  0  0  0  0
    9.0596  -16.7537   23.2898 N   0  0  0  0  0  0  0  0  0  0  0  0
   10.3106  -17.6709   25.1092 C   0  0  0  0  0  0  0  0  0  0  0  0
   10.5071  -17.8999   26.3281 O   0  0  0  0  0  0  0  0  0  0  0  0
   11.3858  -17.8165   24.2456 O   0  0  0  0  0  0  0  0  0  0  0  0
  2  1  1  6
  3  4  1  0
  3  2  1  0
  5  6  1  0
  5  4  1  0
  7  6  1  0
  8  2  1  0
  8  9  2  0
 11 10  1  1
 11 13  1  0
 12 11  1  0
 14 13  1  6
 14 15  1  0
 15  8  1  0
 16 14  1  0
 17 16  2  0
 19 18  1  0
 19 21  1  0
 20 19  2  0
 22 21  1  6
 22 23  1  0
 22 24  1  0
 23 16  1  0
 24 26  1  0
 25 24  2  0
M  END
$$$$
