QSM.pdb
     RDKit          3D

 24 23  0  0  1  0  0  0  0  0999 V2000
   13.6568  -11.7926  -15.3082 N   0  0  0  0  0  0  0  0  0  0  0  0
   14.6644  -12.8202  -15.2162 C   0  0  0  0  0  0  0  0  0  0  0  0
   14.2383  -13.9836  -15.2919 O   0  0  0  0  0  0  0  0  0  0  0  0
   16.0755  -12.4712  -15.0428 C   0  0  0  0  0  0  0  0  0  0  0  0
   16.3356  -11.0026  -15.0092 C   0  0  0  0  0  0  0  0  0  0  0  0
   17.7562  -10.5840  -14.8553 C   0  0  2  0  0  0  0  0  0  0  0  0
   18.7272  -11.6031  -14.6979 N   0  0  0  0  0  0  0  0  0  0  0  0
   17.9213   -9.5859  -13.7612 C   0  0  0  0  0  0  0  0  0  0  0  0
   18.1469  -10.0521  -12.5943 O   0  0  0  0  0  0  0  0  0  0  0  0
   20.0210   -6.2406  -13.6824 O   0  0  0  0  0  0  0  0  0  0  0  0
   18.7043   -6.0406  -13.2833 C   0  0  0  0  0  0  0  0  0  0  0  0
   18.0707   -7.3389  -12.8090 C   0  0  2  0  0  0  0  0  0  0  0  0
   17.8451   -8.1875  -13.9308 N   0  0  0  0  0  0  0  0  0  0  0  0
   16.8044   -6.9565  -12.1118 C   0  0  0  0  0  0  0  0  0  0  0  0
   15.7662   -6.7849  -12.7968 O   0  0  0  0  0  0  0  0  0  0  0  0
   12.9506   -6.8348   -5.1680 C   0  0  0  0  0  0  0  0  0  0  0  0
   14.4438   -7.1780   -6.1019 S   0  0  0  0  0  0  0  0  0  0  0  0
   14.3595   -6.5635   -7.7783 C   0  0  0  0  0  0  0  0  0  0  0  0
   15.5240   -6.8898   -8.6310 C   0  0  0  0  0  0  0  0  0  0  0  0
   15.4501   -6.4041  -10.0289 C   0  0  2  0  0  0  0  0  0  0  0  0
   16.7289   -6.7806  -10.7156 N   0  0  0  0  0  0  0  0  0  0  0  0
   15.3301   -4.9588  -10.1548 C   0  0  0  0  0  0  0  0  0  0  0  0
   16.2774   -4.1310  -10.2174 O   0  0  0  0  0  0  0  0  0  0  0  0
   14.0296   -4.3864  -10.2169 O   0  0  0  0  0  0  0  0  0  0  0  0
  2  1  1  0
  3  2  2  0
  4  2  1  0
  5  4  1  0
  6  5  1  0
  6  7  1  1
  8  9  2  0
  8  6  1  0
 10 11  1  0
 12 11  1  6
 12 13  1  0
 13  8  1  0
 14 12  1  0
 15 14  2  0
 17 16  1  0
 18 17  1  0
 19 18  1  0
 20 19  1  1
 20 22  1  0
 20 21  1  0
 21 14  1  0
 22 24  1  0
 23 22  2  0
M  END
$$$$
