QSM.pdb
     RDKit          3D

 24 23  0  0  1  0  0  0  0  0999 V2000
   13.9900  -12.2760   -9.1248 N   0  0  0  0  0  0  0  0  0  0  0  0
   15.0324  -11.8732  -10.0364 C   0  0  0  0  0  0  0  0  0  0  0  0
   16.1881  -11.9879   -9.5985 O   0  0  0  0  0  0  0  0  0  0  0  0
   14.7053  -11.3680  -11.3709 C   0  0  0  0  0  0  0  0  0  0  0  0
   15.3029  -10.0357  -11.6764 C   0  0  0  0  0  0  0  0  0  0  0  0
   14.6444   -8.8547  -11.0531 C   0  0  2  0  0  0  0  0  0  0  0  0
   13.3056   -8.5783  -11.4234 N   0  0  0  0  0  0  0  0  0  0  0  0
   15.4577   -7.6174  -11.2214 C   0  0  0  0  0  0  0  0  0  0  0  0
   15.5283   -7.1387  -12.4028 O   0  0  0  0  0  0  0  0  0  0  0  0
   16.9928   -5.4129   -8.0983 O   0  0  0  0  0  0  0  0  0  0  0  0
   16.7266   -4.7941   -9.3145 C   0  0  0  0  0  0  0  0  0  0  0  0
   16.8727   -5.7699  -10.4713 C   0  0  2  0  0  0  0  0  0  0  0  0
   16.1405   -6.9565  -10.1789 N   0  0  0  0  0  0  0  0  0  0  0  0
   18.3388   -6.0205  -10.6251 C   0  0  0  0  0  0  0  0  0  0  0  0
   18.9002   -6.8212   -9.8375 O   0  0  0  0  0  0  0  0  0  0  0  0
   23.2308  -10.0840  -14.0841 C   0  0  0  0  0  0  0  0  0  0  0  0
   21.6251   -9.4350  -13.6146 S   0  0  0  0  0  0  0  0  0  0  0  0
   21.7221   -7.7739  -12.9616 C   0  0  0  0  0  0  0  0  0  0  0  0
   20.4539   -7.2284  -12.4292 C   0  0  0  0  0  0  0  0  0  0  0  0
   20.5158   -5.8346  -11.9301 C   0  0  2  0  0  0  0  0  0  0  0  0
   19.1166   -5.3940  -11.6191 N   0  0  0  0  0  0  0  0  0  0  0  0
   21.0403   -4.8769  -12.8930 C   0  0  0  0  0  0  0  0  0  0  0  0
   20.3685   -4.1846  -13.7030 O   0  0  0  0  0  0  0  0  0  0  0  0
   22.4467   -4.6746  -12.9552 O   0  0  0  0  0  0  0  0  0  0  0  0
  2  1  1  0
  3  2  2  0
  4  2  1  0
  5  4  1  0
  6  5  1  0
  6  7  1  6
  8  9  2  0
  8  6  1  0
 10 11  1  0
 12 11  1  1
 12 13  1  0
 13  8  1  0
 14 12  1  0
 15 14  2  0
 17 16  1  0
 18 17  1  0
 19 18  1  0
 20 19  1  6
 20 22  1  0
 20 21  1  0
 21 14  1  0
 22 24  1  0
 23 22  2  0
M  END
$$$$
