QSM.pdb
     RDKit          3D

 24 23  0  0  1  0  0  0  0  0999 V2000
   23.7274  -25.0458  -14.1697 N   0  0  0  0  0  0  0  0  0  0  0  0
   23.9792  -25.6410  -15.4589 C   0  0  0  0  0  0  0  0  0  0  0  0
   23.7338  -26.8553  -15.5351 O   0  0  0  0  0  0  0  0  0  0  0  0
   24.4908  -24.8344  -16.5684 C   0  0  0  0  0  0  0  0  0  0  0  0
   24.7650  -23.4133  -16.2068 C   0  0  0  0  0  0  0  0  0  0  0  0
   26.1291  -22.9019  -16.5149 C   0  0  2  0  0  0  0  0  0  0  0  0
   27.0629  -23.8137  -17.0652 N   0  0  0  0  0  0  0  0  0  0  0  0
   26.7457  -22.2312  -15.3357 C   0  0  0  0  0  0  0  0  0  0  0  0
   27.9212  -22.6118  -15.0143 O   0  0  0  0  0  0  0  0  0  0  0  0
   25.2558  -18.8257  -13.5200 O   0  0  0  0  0  0  0  0  0  0  0  0
   26.6131  -19.1267  -13.5050 C   0  0  0  0  0  0  0  0  0  0  0  0
   26.8425  -20.6297  -13.4908 C   0  0  2  0  0  0  0  0  0  0  0  0
   26.1245  -21.2237  -14.5683 N   0  0  0  0  0  0  0  0  0  0  0  0
   26.3779  -21.1115  -12.1536 C   0  0  0  0  0  0  0  0  0  0  0  0
   25.2654  -21.6879  -12.0729 O   0  0  0  0  0  0  0  0  0  0  0  0
   27.4807  -18.3401   -5.3810 C   0  0  0  0  0  0  0  0  0  0  0  0
   28.1308  -19.8819   -6.0290 S   0  0  0  0  0  0  0  0  0  0  0  0
   27.0316  -20.6439   -7.2149 C   0  0  0  0  0  0  0  0  0  0  0  0
   27.4987  -20.6171   -8.6187 C   0  0  0  0  0  0  0  0  0  0  0  0
   26.5618  -21.1850   -9.6163 C   0  0  2  0  0  0  0  0  0  0  0  0
   27.1388  -20.9446  -10.9793 N   0  0  0  0  0  0  0  0  0  0  0  0
   25.2429  -20.5687   -9.6174 C   0  0  0  0  0  0  0  0  0  0  0  0
   24.9238  -19.4830  -10.1708 O   0  0  0  0  0  0  0  0  0  0  0  0
   24.1825  -21.2283   -8.9367 O   0  0  0  0  0  0  0  0  0  0  0  0
  2  1  1  0
  3  2  2  0
  4  2  1  0
  5  4  1  0
  6  5  1  0
  6  7  1  1
  8  9  2  0
  8  6  1  0
 10 11  1  0
 12 11  1  1
 12 13  1  0
 13  8  1  0
 14 12  1  0
 15 14  2  0
 17 16  1  0
 18 17  1  0
 19 18  1  0
 20 19  1  1
 20 22  1  0
 20 21  1  0
 21 14  1  0
 22 24  1  0
 23 22  2  0
M  END
$$$$
