QSM.pdb
     RDKit          3D

 24 23  0  0  1  0  0  0  0  0999 V2000
   17.0617  -11.8083  -18.0805 N   0  0  0  0  0  0  0  0  0  0  0  0
   17.5618  -11.9958  -19.4201 C   0  0  0  0  0  0  0  0  0  0  0  0
   16.8946  -12.7667  -20.1280 O   0  0  0  0  0  0  0  0  0  0  0  0
   18.7744  -11.3094  -19.8691 C   0  0  0  0  0  0  0  0  0  0  0  0
   19.3941  -10.4353  -18.8310 C   0  0  0  0  0  0  0  0  0  0  0  0
   20.7737  -10.7932  -18.4001 C   0  0  2  0  0  0  0  0  0  0  0  0
   20.9983  -12.1179  -17.9522 N   0  0  0  0  0  0  0  0  0  0  0  0
   21.2962   -9.8423  -17.3787 C   0  0  0  0  0  0  0  0  0  0  0  0
   20.5273   -9.5875  -16.3917 O   0  0  0  0  0  0  0  0  0  0  0  0
   24.9098   -7.7548  -17.6235 O   0  0  0  0  0  0  0  0  0  0  0  0
   24.4835   -8.2305  -16.3886 C   0  0  0  0  0  0  0  0  0  0  0  0
   22.9716   -8.3873  -16.3521 C   0  0  2  0  0  0  0  0  0  0  0  0
   22.5604   -9.2189  -17.4332 N   0  0  0  0  0  0  0  0  0  0  0  0
   22.4052   -7.0062  -16.4396 C   0  0  0  0  0  0  0  0  0  0  0  0
   22.2037   -6.5072  -17.5741 O   0  0  0  0  0  0  0  0  0  0  0  0
   17.0773   -4.9879  -16.4588 C   0  0  0  0  0  0  0  0  0  0  0  0
   17.6731   -3.5728  -15.5301 S   0  0  0  0  0  0  0  0  0  0  0  0
   19.4563   -3.5327  -15.4121 C   0  0  0  0  0  0  0  0  0  0  0  0
   20.1216   -4.8542  -15.4351 C   0  0  0  0  0  0  0  0  0  0  0  0
   21.6027   -4.8261  -15.4003 C   0  0  2  0  0  0  0  0  0  0  0  0
   22.0881   -6.2413  -15.2995 N   0  0  0  0  0  0  0  0  0  0  0  0
   22.1611   -4.1209  -14.2557 C   0  0  0  0  0  0  0  0  0  0  0  0
   22.6604   -4.6440  -13.2243 O   0  0  0  0  0  0  0  0  0  0  0  0
   22.1616   -2.6987  -14.2661 O   0  0  0  0  0  0  0  0  0  0  0  0
  2  1  1  0
  3  2  2  0
  4  2  1  0
  5  4  1  0
  6  5  1  0
  6  7  1  1
  8  9  2  0
  8  6  1  0
 10 11  1  0
 12 11  1  6
 12 13  1  0
 13  8  1  0
 14 12  1  0
 15 14  2  0
 17 16  1  0
 18 17  1  0
 19 18  1  0
 20 19  1  1
 20 22  1  0
 20 21  1  0
 21 14  1  0
 22 24  1  0
 23 22  2  0
M  END
$$$$
