QSM.pdb
     RDKit          3D

 24 23  0  0  1  0  0  0  0  0999 V2000
   16.7833  -20.0268    1.7461 N   0  0  0  0  0  0  0  0  0  0  0  0
   15.4086  -20.4614    1.7804 C   0  0  0  0  0  0  0  0  0  0  0  0
   15.1215  -21.3637    0.9779 O   0  0  0  0  0  0  0  0  0  0  0  0
   14.4541  -19.8520    2.7082 C   0  0  0  0  0  0  0  0  0  0  0  0
   15.0440  -18.7859    3.5690 C   0  0  0  0  0  0  0  0  0  0  0  0
   14.0971  -18.0394    4.4426 C   0  0  2  0  0  0  0  0  0  0  0  0
   13.2390  -17.0966    3.8254 N   0  0  0  0  0  0  0  0  0  0  0  0
   14.7989  -17.3818    5.5808 C   0  0  0  0  0  0  0  0  0  0  0  0
   14.8560  -16.1066    5.5544 O   0  0  0  0  0  0  0  0  0  0  0  0
   16.9628  -19.2515    8.7378 O   0  0  0  0  0  0  0  0  0  0  0  0
   16.0756  -18.2045    8.9604 C   0  0  0  0  0  0  0  0  0  0  0  0
   15.9565  -17.3147    7.7334 C   0  0  2  0  0  0  0  0  0  0  0  0
   15.3919  -18.0658    6.6626 N   0  0  0  0  0  0  0  0  0  0  0  0
   17.3386  -16.8303    7.4317 C   0  0  0  0  0  0  0  0  0  0  0  0
   18.0204  -17.4457    6.5755 O   0  0  0  0  0  0  0  0  0  0  0  0
   22.1919  -10.6353    7.1042 C   0  0  0  0  0  0  0  0  0  0  0  0
   20.5780  -11.3368    7.4549 S   0  0  0  0  0  0  0  0  0  0  0  0
   20.6013  -13.1238    7.4909 C   0  0  0  0  0  0  0  0  0  0  0  0
   19.2839  -13.7698    7.6824 C   0  0  0  0  0  0  0  0  0  0  0  0
   19.3031  -15.2487    7.7730 C   0  0  2  0  0  0  0  0  0  0  0  0
   17.9076  -15.7102    8.0699 N   0  0  0  0  0  0  0  0  0  0  0  0
   20.1416  -15.7719    8.8419 C   0  0  0  0  0  0  0  0  0  0  0  0
   19.7932  -15.9779   10.0347 O   0  0  0  0  0  0  0  0  0  0  0  0
   21.4953  -16.0952    8.5490 O   0  0  0  0  0  0  0  0  0  0  0  0
  2  1  1  0
  3  2  2  0
  4  2  1  0
  5  4  1  0
  6  5  1  0
  6  7  1  6
  8  9  2  0
  8  6  1  0
 10 11  1  0
 12 11  1  1
 12 13  1  0
 13  8  1  0
 14 12  1  0
 15 14  2  0
 17 16  1  0
 18 17  1  0
 19 18  1  0
 20 19  1  1
 20 22  1  0
 20 21  1  0
 21 14  1  0
 22 24  1  0
 23 22  2  0
M  END
$$$$
