QSM.pdb
     RDKit          3D

 24 23  0  0  1  0  0  0  0  0999 V2000
   13.2209   -8.2075  -16.6397 N   0  0  0  0  0  0  0  0  0  0  0  0
   12.8858   -9.5988  -16.4619 C   0  0  0  0  0  0  0  0  0  0  0  0
   11.6739   -9.8369  -16.3383 O   0  0  0  0  0  0  0  0  0  0  0  0
   13.9319  -10.6225  -16.4319 C   0  0  0  0  0  0  0  0  0  0  0  0
   15.3118  -10.0824  -16.6046 C   0  0  0  0  0  0  0  0  0  0  0  0
   16.1171  -10.6629  -17.7143 C   0  0  2  0  0  0  0  0  0  0  0  0
   16.1755  -12.0746  -17.8139 N   0  0  0  0  0  0  0  0  0  0  0  0
   17.5045  -10.1194  -17.7314 C   0  0  0  0  0  0  0  0  0  0  0  0
   18.3988  -10.8226  -17.1520 O   0  0  0  0  0  0  0  0  0  0  0  0
   18.5889   -6.3314  -19.0796 O   0  0  0  0  0  0  0  0  0  0  0  0
   19.4727   -7.3820  -19.2992 C   0  0  0  0  0  0  0  0  0  0  0  0
   19.2510   -8.5050  -18.2985 C   0  0  2  0  0  0  0  0  0  0  0  0
   17.8832   -8.9018  -18.3346 N   0  0  0  0  0  0  0  0  0  0  0  0
   19.6593   -7.9646  -16.9654 C   0  0  0  0  0  0  0  0  0  0  0  0
   18.7684   -7.5518  -16.1828 O   0  0  0  0  0  0  0  0  0  0  0  0
   22.8072   -9.0460  -10.6838 C   0  0  0  0  0  0  0  0  0  0  0  0
   22.2724   -9.1350  -12.3942 S   0  0  0  0  0  0  0  0  0  0  0  0
   23.1029   -7.9419  -13.4344 C   0  0  0  0  0  0  0  0  0  0  0  0
   22.7245   -7.9776  -14.8645 C   0  0  0  0  0  0  0  0  0  0  0  0
   21.3955   -7.4087  -15.1895 C   0  0  2  0  0  0  0  0  0  0  0  0
   21.0047   -7.8998  -16.5514 N   0  0  0  0  0  0  0  0  0  0  0  0
   21.3670   -5.9548  -15.2567 C   0  0  0  0  0  0  0  0  0  0  0  0
   21.7140   -5.2433  -16.2365 O   0  0  0  0  0  0  0  0  0  0  0  0
   20.9071   -5.2296  -14.1230 O   0  0  0  0  0  0  0  0  0  0  0  0
  2  1  1  0
  3  2  2  0
  4  2  1  0
  5  4  1  0
  6  5  1  0
  6  7  1  1
  8  9  2  0
  8  6  1  0
 10 11  1  0
 12 11  1  6
 12 13  1  0
 13  8  1  0
 14 12  1  0
 15 14  2  0
 17 16  1  0
 18 17  1  0
 19 18  1  0
 20 19  1  6
 20 22  1  0
 20 21  1  0
 21 14  1  0
 22 24  1  0
 23 22  2  0
M  END
$$$$
