QSM.pdb
     RDKit          3D

 24 23  0  0  1  0  0  0  0  0999 V2000
   23.1495  -21.7145   -7.7548 N   0  0  0  0  0  0  0  0  0  0  0  0
   23.6179  -20.8329   -8.7956 C   0  0  0  0  0  0  0  0  0  0  0  0
   22.8794  -20.7531   -9.7899 O   0  0  0  0  0  0  0  0  0  0  0  0
   24.8809  -20.1072   -8.6493 C   0  0  0  0  0  0  0  0  0  0  0  0
   25.5747  -19.8340   -9.9414 C   0  0  0  0  0  0  0  0  0  0  0  0
   25.9073  -21.0191  -10.7791 C   0  0  2  0  0  0  0  0  0  0  0  0
   26.9788  -21.8426  -10.3551 N   0  0  0  0  0  0  0  0  0  0  0  0
   26.1214  -20.6435  -12.2052 C   0  0  0  0  0  0  0  0  0  0  0  0
   27.2138  -20.0414  -12.4777 O   0  0  0  0  0  0  0  0  0  0  0  0
   24.9326  -22.6893  -15.3060 O   0  0  0  0  0  0  0  0  0  0  0  0
   25.8976  -21.6941  -15.4127 C   0  0  0  0  0  0  0  0  0  0  0  0
   25.5313  -20.4811  -14.5723 C   0  0  2  0  0  0  0  0  0  0  0  0
   25.2114  -20.9057  -13.2507 N   0  0  0  0  0  0  0  0  0  0  0  0
   24.3775  -19.8266  -15.2625 C   0  0  0  0  0  0  0  0  0  0  0  0
   23.2131  -20.0898  -14.8734 O   0  0  0  0  0  0  0  0  0  0  0  0
   24.9922  -14.3288  -18.9973 C   0  0  0  0  0  0  0  0  0  0  0  0
   23.5390  -15.1270  -19.6833 S   0  0  0  0  0  0  0  0  0  0  0  0
   22.8914  -16.4055  -18.6149 C   0  0  0  0  0  0  0  0  0  0  0  0
   23.9085  -17.2049  -17.8968 C   0  0  0  0  0  0  0  0  0  0  0  0
   23.3786  -18.2616  -17.0033 C   0  0  2  0  0  0  0  0  0  0  0  0
   24.5442  -18.9254  -16.3330 N   0  0  0  0  0  0  0  0  0  0  0  0
   22.6490  -19.3168  -17.6915 C   0  0  0  0  0  0  0  0  0  0  0  0
   23.1491  -20.3080  -18.2865 O   0  0  0  0  0  0  0  0  0  0  0  0
   21.2282  -19.2579  -17.7158 O   0  0  0  0  0  0  0  0  0  0  0  0
  2  1  1  0
  3  2  2  0
  4  2  1  0
  5  4  1  0
  6  5  1  0
  6  7  1  1
  8  9  2  0
  8  6  1  0
 10 11  1  0
 12 11  1  6
 12 13  1  0
 13  8  1  0
 14 12  1  0
 15 14  2  0
 17 16  1  0
 18 17  1  0
 19 18  1  0
 20 19  1  6
 20 22  1  0
 20 21  1  0
 21 14  1  0
 22 24  1  0
 23 22  2  0
M  END
$$$$
