QSM.pdb
     RDKit          3D

 24 23  0  0  1  0  0  0  0  0999 V2000
   29.8949  -23.8168  -15.2314 N   0  0  0  0  0  0  0  0  0  0  0  0
   29.9374  -23.2874  -16.5721 C   0  0  0  0  0  0  0  0  0  0  0  0
   30.5957  -23.9585  -17.3826 O   0  0  0  0  0  0  0  0  0  0  0  0
   29.2427  -22.0432  -16.9077 C   0  0  0  0  0  0  0  0  0  0  0  0
   28.5390  -21.4130  -15.7530 C   0  0  0  0  0  0  0  0  0  0  0  0
   27.0604  -21.2819  -15.8688 C   0  0  2  0  0  0  0  0  0  0  0  0
   26.5400  -20.7695  -17.0823 N   0  0  0  0  0  0  0  0  0  0  0  0
   26.4848  -20.5097  -14.7317 C   0  0  0  0  0  0  0  0  0  0  0  0
   26.0167  -19.3542  -15.0071 O   0  0  0  0  0  0  0  0  0  0  0  0
   23.2562  -19.9289  -11.9629 O   0  0  0  0  0  0  0  0  0  0  0  0
   24.1250  -20.5582  -12.8472 C   0  0  0  0  0  0  0  0  0  0  0  0
   25.5752  -20.2971  -12.4722 C   0  0  2  0  0  0  0  0  0  0  0  0
   26.4265  -20.9659  -13.3981 N   0  0  0  0  0  0  0  0  0  0  0  0
   25.7419  -20.7954  -11.0723 C   0  0  0  0  0  0  0  0  0  0  0  0
   25.4373  -21.9860  -10.8151 O   0  0  0  0  0  0  0  0  0  0  0  0
   29.2245  -19.4543   -4.0469 C   0  0  0  0  0  0  0  0  0  0  0  0
   28.8488  -18.9033   -5.7127 S   0  0  0  0  0  0  0  0  0  0  0  0
   27.6583  -19.9566   -6.5302 C   0  0  0  0  0  0  0  0  0  0  0  0
   27.3877  -19.6249   -7.9467 C   0  0  0  0  0  0  0  0  0  0  0  0
   26.4112  -20.5019   -8.6344 C   0  0  2  0  0  0  0  0  0  0  0  0
   26.2274  -19.9821  -10.0289 N   0  0  0  0  0  0  0  0  0  0  0  0
   25.0883  -20.5164   -8.0271 C   0  0  0  0  0  0  0  0  0  0  0  0
   24.0933  -19.8306   -8.3824 O   0  0  0  0  0  0  0  0  0  0  0  0
   24.8568  -21.3785   -6.9199 O   0  0  0  0  0  0  0  0  0  0  0  0
  2  1  1  0
  3  2  2  0
  4  2  1  0
  5  4  1  0
  6  5  1  0
  6  7  1  6
  8  9  2  0
  8  6  1  0
 10 11  1  0
 12 11  1  6
 12 13  1  0
 13  8  1  0
 14 12  1  0
 15 14  2  0
 17 16  1  0
 18 17  1  0
 19 18  1  0
 20 19  1  1
 20 22  1  0
 20 21  1  0
 21 14  1  0
 22 24  1  0
 23 22  2  0
M  END
$$$$
