QSM.pdb
     RDKit          3D

 24 23  0  0  1  0  0  0  0  0999 V2000
   13.4357  -10.1397  -13.0468 N   0  0  0  0  0  0  0  0  0  0  0  0
   13.7443  -11.4819  -12.6188 C   0  0  0  0  0  0  0  0  0  0  0  0
   13.1697  -12.3816  -13.2519 O   0  0  0  0  0  0  0  0  0  0  0  0
   14.6711  -11.7194  -11.5107 C   0  0  0  0  0  0  0  0  0  0  0  0
   15.1874  -10.4719  -10.8761 C   0  0  0  0  0  0  0  0  0  0  0  0
   16.6651  -10.2892  -10.8782 C   0  0  2  0  0  0  0  0  0  0  0  0
   17.4576  -11.3457  -10.3663 N   0  0  0  0  0  0  0  0  0  0  0  0
   17.0644   -9.0182  -10.2107 C   0  0  0  0  0  0  0  0  0  0  0  0
   17.2726   -9.0768   -8.9524 O   0  0  0  0  0  0  0  0  0  0  0  0
   17.6384   -5.3889  -12.1524 O   0  0  0  0  0  0  0  0  0  0  0  0
   18.1825   -5.5791  -10.8873 C   0  0  0  0  0  0  0  0  0  0  0  0
   17.3805   -6.5966  -10.0915 C   0  0  2  0  0  0  0  0  0  0  0  0
   17.2228   -7.7803  -10.8683 N   0  0  0  0  0  0  0  0  0  0  0  0
   16.0759   -5.9413   -9.7682 C   0  0  0  0  0  0  0  0  0  0  0  0
   15.1098   -6.0995  -10.5545 O   0  0  0  0  0  0  0  0  0  0  0  0
   11.3452   -2.9750   -4.1879 C   0  0  0  0  0  0  0  0  0  0  0  0
   12.7390   -3.9826   -4.6998 S   0  0  0  0  0  0  0  0  0  0  0  0
   13.1364   -3.7733   -6.4300 C   0  0  0  0  0  0  0  0  0  0  0  0
   14.2618   -4.5969   -6.9246 C   0  0  0  0  0  0  0  0  0  0  0  0
   14.6048   -4.4194   -8.3551 C   0  0  2  0  0  0  0  0  0  0  0  0
   15.8866   -5.1526   -8.6160 N   0  0  0  0  0  0  0  0  0  0  0  0
   14.8388   -3.0371   -8.7474 C   0  0  0  0  0  0  0  0  0  0  0  0
   13.9610   -2.1839   -9.0445 O   0  0  0  0  0  0  0  0  0  0  0  0
   16.1789   -2.5654   -8.8131 O   0  0  0  0  0  0  0  0  0  0  0  0
  2  1  1  0
  3  2  2  0
  4  2  1  0
  5  4  1  0
  6  5  1  0
  6  7  1  1
  8  9  2  0
  8  6  1  0
 10 11  1  0
 12 11  1  6
 12 13  1  0
 13  8  1  0
 14 12  1  0
 15 14  2  0
 17 16  1  0
 18 17  1  0
 19 18  1  0
 20 19  1  1
 20 22  1  0
 20 21  1  0
 21 14  1  0
 22 24  1  0
 23 22  2  0
M  END
$$$$
