QSM.pdb
     RDKit          3D

 24 23  0  0  1  0  0  0  0  0999 V2000
   18.3806  -15.5373  -14.8509 N   0  0  0  0  0  0  0  0  0  0  0  0
   17.0356  -15.7423  -15.3292 C   0  0  0  0  0  0  0  0  0  0  0  0
   16.4648  -16.7487  -14.8800 O   0  0  0  0  0  0  0  0  0  0  0  0
   16.4283  -14.8076  -16.2783 C   0  0  0  0  0  0  0  0  0  0  0  0
   17.3259  -13.6861  -16.6811 C   0  0  0  0  0  0  0  0  0  0  0  0
   16.7146  -12.6137  -17.5136 C   0  0  2  0  0  0  0  0  0  0  0  0
   16.1597  -12.9879  -18.7619 N   0  0  0  0  0  0  0  0  0  0  0  0
   17.6538  -11.4760  -17.7236 C   0  0  0  0  0  0  0  0  0  0  0  0
   18.6083  -11.6705  -18.5490 O   0  0  0  0  0  0  0  0  0  0  0  0
   17.2527   -7.7206  -15.9924 O   0  0  0  0  0  0  0  0  0  0  0  0
   17.9247   -7.8544  -17.2022 C   0  0  0  0  0  0  0  0  0  0  0  0
   18.5491   -9.2344  -17.3343 C   0  0  2  0  0  0  0  0  0  0  0  0
   17.5565  -10.2243  -17.0805 N   0  0  0  0  0  0  0  0  0  0  0  0
   19.6742   -9.2808  -16.3505 C   0  0  0  0  0  0  0  0  0  0  0  0
   19.4621   -9.7701  -15.2137 O   0  0  0  0  0  0  0  0  0  0  0  0
   27.2077  -10.6269  -15.0054 C   0  0  0  0  0  0  0  0  0  0  0  0
   25.8149  -10.4708  -16.1259 S   0  0  0  0  0  0  0  0  0  0  0  0
   24.4151   -9.6564  -15.3692 C   0  0  0  0  0  0  0  0  0  0  0  0
   23.1897   -9.6050  -16.1970 C   0  0  0  0  0  0  0  0  0  0  0  0
   22.0714   -8.8106  -15.6367 C   0  0  2  0  0  0  0  0  0  0  0  0
   20.9640   -8.7973  -16.6477 N   0  0  0  0  0  0  0  0  0  0  0  0
   22.4001   -7.4171  -15.3737 C   0  0  0  0  0  0  0  0  0  0  0  0
   22.2168   -6.4443  -16.1526 O   0  0  0  0  0  0  0  0  0  0  0  0
   22.9879   -7.0805  -14.1231 O   0  0  0  0  0  0  0  0  0  0  0  0
  2  1  1  0
  3  2  2  0
  4  2  1  0
  5  4  1  0
  6  5  1  0
  6  7  1  6
  8  9  2  0
  8  6  1  0
 10 11  1  0
 12 11  1  1
 12 13  1  0
 13  8  1  0
 14 12  1  0
 15 14  2  0
 17 16  1  0
 18 17  1  0
 19 18  1  0
 20 19  1  6
 20 22  1  0
 20 21  1  0
 21 14  1  0
 22 24  1  0
 23 22  2  0
M  END
$$$$
