VNE.pdb
     RDKit          3D

 25 24  0  0  1  0  0  0  0  0999 V2000
    7.4737  -12.4595   20.7618 C   0  0  0  0  0  0  0  0  0  0  0  0
    8.3898  -13.4216   19.9967 C   0  0  2  0  0  0  0  0  0  0  0  0
    8.3311  -12.9983   18.5489 C   0  0  0  0  0  0  0  0  0  0  0  0
    7.7708  -14.8115   20.0905 C   0  0  2  0  0  0  0  0  0  0  0  0
    6.4911  -14.7860   19.4087 N   0  0  0  0  0  0  0  0  0  0  0  0
    7.5421  -15.1944   21.5015 C   0  0  0  0  0  0  0  0  0  0  0  0
    6.6676  -14.5861   22.1629 O   0  0  0  0  0  0  0  0  0  0  0  0
    7.0637  -19.9662   24.7033 N   0  0  0  0  0  0  0  0  0  0  0  0
    6.6708  -18.5694   24.5921 C   0  0  0  0  0  0  0  0  0  0  0  0
    6.0379  -18.1551   25.5742 O   0  0  0  0  0  0  0  0  0  0  0  0
    7.0177  -17.7916   23.4173 C   0  0  0  0  0  0  0  0  0  0  0  0
    7.9164  -16.5984   23.5814 C   0  0  2  0  0  0  0  0  0  0  0  0
    8.2487  -16.2154   22.1775 N   0  0  0  0  0  0  0  0  0  0  0  0
    9.1578  -16.8110   24.3172 C   0  0  0  0  0  0  0  0  0  0  0  0
   10.1328  -17.4693   23.7521 O   0  0  0  0  0  0  0  0  0  0  0  0
    9.4694  -16.3785   25.6137 N   0  0  0  0  0  0  0  0  0  0  0  0
   10.7348  -16.7202   26.2914 C   0  0  1  0  0  0  0  0  0  0  0  0
   10.9994  -15.7878   27.4099 C   0  0  0  0  0  0  0  0  0  0  0  0
    9.8296  -15.6841   28.3427 C   0  0  0  0  0  0  0  0  0  0  0  0
   10.1624  -14.7666   29.5003 C   0  0  0  0  0  0  0  0  0  0  0  0
    9.8500  -13.5653   29.4531 O   0  0  0  0  0  0  0  0  0  0  0  0
   10.6336  -18.1127   26.7518 C   0  0  0  0  0  0  0  0  0  0  0  0
    9.5714  -18.7652   26.7416 O   0  0  0  0  0  0  0  0  0  0  0  0
   10.8133  -15.2893   30.5974 O   0  0  0  0  0  0  0  0  0  0  0  0
   11.7752  -18.7644   27.2316 O   0  0  0  0  0  0  0  0  0  0  0  0
  2  1  1  1
  3  2  1  0
  4  2  1  0
  4  6  1  0
  4  5  1  6
  6  7  2  0
  9  8  1  0
 10  9  2  0
 12 11  1  6
 11  9  1  0
 12 14  1  0
 13  6  1  0
 13 12  1  0
 14 15  2  0
 16 17  1  0
 16 14  1  0
 17 22  1  0
 17 18  1  1
 19 18  1  0
 20 19  1  0
 21 20  2  0
 22 23  2  0
 22 25  1  0
 24 20  1  0
M  END
$$$$
