VNE.pdb
     RDKit          3D

 25 24  0  0  1  0  0  0  0  0999 V2000
   10.1959  -13.0165   19.3324 C   0  0  0  0  0  0  0  0  0  0  0  0
    8.7118  -12.7848   19.6390 C   0  0  2  0  0  0  0  0  0  0  0  0
    8.5360  -13.0685   21.1112 C   0  0  0  0  0  0  0  0  0  0  0  0
    7.9188  -13.8382   18.8740 C   0  0  2  0  0  0  0  0  0  0  0  0
    6.5281  -13.7386   19.2728 N   0  0  0  0  0  0  0  0  0  0  0  0
    8.4016  -15.1998   19.1947 C   0  0  0  0  0  0  0  0  0  0  0  0
    7.9630  -15.7753   20.2187 O   0  0  0  0  0  0  0  0  0  0  0  0
    7.4170  -19.3998   18.3104 N   0  0  0  0  0  0  0  0  0  0  0  0
    8.1140  -18.5058   17.3979 C   0  0  0  0  0  0  0  0  0  0  0  0
    7.4145  -18.1277   16.4469 O   0  0  0  0  0  0  0  0  0  0  0  0
    9.4958  -18.1318   17.6355 C   0  0  0  0  0  0  0  0  0  0  0  0
    9.8165  -17.2734   18.8265 C   0  0  2  0  0  0  0  0  0  0  0  0
    9.3401  -15.9186   18.4193 N   0  0  0  0  0  0  0  0  0  0  0  0
   11.2215  -17.1828   19.2079 C   0  0  0  0  0  0  0  0  0  0  0  0
   12.0112  -16.3729   18.5570 O   0  0  0  0  0  0  0  0  0  0  0  0
   11.8761  -17.8764   20.2353 N   0  0  0  0  0  0  0  0  0  0  0  0
   13.3223  -17.7454   20.4973 C   0  0  1  0  0  0  0  0  0  0  0  0
   13.5750  -16.7418   21.5554 C   0  0  0  0  0  0  0  0  0  0  0  0
   15.0277  -16.6646   21.9202 C   0  0  0  0  0  0  0  0  0  0  0  0
   15.2458  -15.6071   22.9816 C   0  0  0  0  0  0  0  0  0  0  0  0
   16.0570  -14.6868   22.7870 O   0  0  0  0  0  0  0  0  0  0  0  0
   13.8314  -19.0733   20.8696 C   0  0  0  0  0  0  0  0  0  0  0  0
   14.9861  -19.4651   20.6098 O   0  0  0  0  0  0  0  0  0  0  0  0
   14.5308  -15.6875   24.1575 O   0  0  0  0  0  0  0  0  0  0  0  0
   12.9966  -19.9645   21.5528 O   0  0  0  0  0  0  0  0  0  0  0  0
  2  1  1  6
  3  2  1  0
  4  2  1  0
  4  6  1  0
  4  5  1  1
  6  7  2  0
  9  8  1  0
 10  9  2  0
 12 11  1  6
 11  9  1  0
 12 14  1  0
 13  6  1  0
 13 12  1  0
 14 15  2  0
 16 17  1  0
 16 14  1  0
 17 22  1  0
 17 18  1  1
 19 18  1  0
 20 19  1  0
 21 20  2  0
 22 23  2  0
 22 25  1  0
 24 20  1  0
M  END
$$$$
