VNE.pdb
     RDKit          3D

 25 24  0  0  1  0  0  0  0  0999 V2000
    9.0453  -13.0463   20.6045 C   0  0  0  0  0  0  0  0  0  0  0  0
    8.5465  -13.8577   19.4032 C   0  0  2  0  0  0  0  0  0  0  0  0
    7.8094  -12.8854   18.5142 C   0  0  0  0  0  0  0  0  0  0  0  0
    7.5256  -14.8625   19.9244 C   0  0  2  0  0  0  0  0  0  0  0  0
    6.4595  -14.1292   20.5792 N   0  0  0  0  0  0  0  0  0  0  0  0
    8.1404  -15.7770   20.9121 C   0  0  0  0  0  0  0  0  0  0  0  0
    8.1040  -15.4726   22.1279 O   0  0  0  0  0  0  0  0  0  0  0  0
    6.4703  -19.5254   20.7584 N   0  0  0  0  0  0  0  0  0  0  0  0
    7.4455  -19.2925   21.8132 C   0  0  0  0  0  0  0  0  0  0  0  0
    6.9427  -19.2263   22.9444 O   0  0  0  0  0  0  0  0  0  0  0  0
    8.8569  -19.1593   21.5035 C   0  0  0  0  0  0  0  0  0  0  0  0
    9.4954  -17.8035   21.6151 C   0  0  2  0  0  0  0  0  0  0  0  0
    8.7801  -16.9944   20.5847 N   0  0  0  0  0  0  0  0  0  0  0  0
   10.9292  -17.7327   21.3566 C   0  0  0  0  0  0  0  0  0  0  0  0
   11.3783  -17.9969   20.1600 O   0  0  0  0  0  0  0  0  0  0  0  0
   11.9465  -17.3962   22.2605 N   0  0  0  0  0  0  0  0  0  0  0  0
   13.3755  -17.3850   21.8928 C   0  0  1  0  0  0  0  0  0  0  0  0
   14.1422  -16.4959   22.7939 C   0  0  0  0  0  0  0  0  0  0  0  0
   15.6049  -16.4873   22.4625 C   0  0  0  0  0  0  0  0  0  0  0  0
   16.3712  -15.6874   23.4948 C   0  0  0  0  0  0  0  0  0  0  0  0
   16.0578  -15.7562   24.6948 O   0  0  0  0  0  0  0  0  0  0  0  0
   13.8621  -18.7712   21.9474 C   0  0  0  0  0  0  0  0  0  0  0  0
   13.4364  -19.6184   22.7569 O   0  0  0  0  0  0  0  0  0  0  0  0
   17.4146  -14.8889   23.0772 O   0  0  0  0  0  0  0  0  0  0  0  0
   14.8555  -19.1883   21.0545 O   0  0  0  0  0  0  0  0  0  0  0  0
  2  1  1  1
  3  2  1  0
  4  2  1  0
  4  6  1  0
  4  5  1  1
  6  7  2  0
  9  8  1  0
 10  9  2  0
 12 11  1  6
 11  9  1  0
 12 14  1  0
 13  6  1  0
 13 12  1  0
 14 15  2  0
 16 17  1  0
 16 14  1  0
 17 22  1  0
 17 18  1  1
 19 18  1  0
 20 19  1  0
 21 20  2  0
 22 23  2  0
 22 25  1  0
 24 20  1  0
M  END
$$$$
