VNE.pdb
     RDKit          3D

 25 24  0  0  1  0  0  0  0  0999 V2000
    7.4527  -12.8958   18.3149 C   0  0  0  0  0  0  0  0  0  0  0  0
    7.5121  -13.1248   19.8295 C   0  0  2  0  0  0  0  0  0  0  0  0
    8.5465  -12.1625   20.3614 C   0  0  0  0  0  0  0  0  0  0  0  0
    8.0429  -14.5356   20.0565 C   0  0  2  0  0  0  0  0  0  0  0  0
    7.2485  -15.4533   19.2630 N   0  0  0  0  0  0  0  0  0  0  0  0
    7.9237  -14.9230   21.4797 C   0  0  0  0  0  0  0  0  0  0  0  0
    7.6641  -14.0397   22.3309 O   0  0  0  0  0  0  0  0  0  0  0  0
    7.5869  -17.7215   26.0444 N   0  0  0  0  0  0  0  0  0  0  0  0
    6.6257  -17.9067   24.9675 C   0  0  0  0  0  0  0  0  0  0  0  0
    5.6215  -18.5492   25.3074 O   0  0  0  0  0  0  0  0  0  0  0  0
    6.8788  -17.3660   23.6450 C   0  0  0  0  0  0  0  0  0  0  0  0
    8.1130  -16.5365   23.4285 C   0  0  2  0  0  0  0  0  0  0  0  0
    8.0835  -16.2409   21.9657 N   0  0  0  0  0  0  0  0  0  0  0  0
    9.3884  -17.1641   23.7558 C   0  0  0  0  0  0  0  0  0  0  0  0
    9.7168  -18.2872   23.1777 O   0  0  0  0  0  0  0  0  0  0  0  0
   10.3664  -16.7017   24.6474 N   0  0  0  0  0  0  0  0  0  0  0  0
   11.5076  -17.5279   25.0860 C   0  0  1  0  0  0  0  0  0  0  0  0
   12.7894  -16.8430   24.8061 C   0  0  0  0  0  0  0  0  0  0  0  0
   12.9373  -16.5010   23.3533 C   0  0  0  0  0  0  0  0  0  0  0  0
   14.2590  -15.8029   23.1115 C   0  0  0  0  0  0  0  0  0  0  0  0
   14.9813  -15.4864   24.0711 O   0  0  0  0  0  0  0  0  0  0  0  0
   11.3356  -17.8029   26.5199 C   0  0  0  0  0  0  0  0  0  0  0  0
   10.4768  -17.2433   27.2296 O   0  0  0  0  0  0  0  0  0  0  0  0
   14.6391  -15.5291   21.8149 O   0  0  0  0  0  0  0  0  0  0  0  0
   12.1665  -18.7383   27.1465 O   0  0  0  0  0  0  0  0  0  0  0  0
  2  1  1  6
  3  2  1  0
  4  2  1  0
  4  6  1  0
  4  5  1  6
  6  7  2  0
  9  8  1  0
 10  9  2  0
 12 11  1  6
 11  9  1  0
 12 14  1  0
 13  6  1  0
 13 12  1  0
 14 15  2  0
 16 17  1  0
 16 14  1  0
 17 22  1  0
 17 18  1  1
 19 18  1  0
 20 19  1  0
 21 20  2  0
 22 23  2  0
 22 25  1  0
 24 20  1  0
M  END
$$$$
