VNE.pdb
     RDKit          3D

 25 24  0  0  1  0  0  0  0  0999 V2000
    7.3662  -12.6925   20.8178 C   0  0  0  0  0  0  0  0  0  0  0  0
    8.3915  -13.2495   19.8235 C   0  0  2  0  0  0  0  0  0  0  0  0
    7.7236  -13.2239   18.4700 C   0  0  0  0  0  0  0  0  0  0  0  0
    8.6305  -14.7106   20.1862 C   0  0  2  0  0  0  0  0  0  0  0  0
    7.3789  -15.4271   20.0347 N   0  0  0  0  0  0  0  0  0  0  0  0
    9.0775  -14.8406   21.5909 C   0  0  0  0  0  0  0  0  0  0  0  0
   10.1552  -14.3024   21.9387 O   0  0  0  0  0  0  0  0  0  0  0  0
    7.5105  -12.9956   24.3910 N   0  0  0  0  0  0  0  0  0  0  0  0
    6.9301  -14.1946   24.9768 C   0  0  0  0  0  0  0  0  0  0  0  0
    5.8828  -13.9799   25.6044 O   0  0  0  0  0  0  0  0  0  0  0  0
    7.5662  -15.4875   24.8056 C   0  0  0  0  0  0  0  0  0  0  0  0
    8.8389  -15.5660   24.0104 C   0  0  2  0  0  0  0  0  0  0  0  0
    8.3682  -15.5401   22.5941 N   0  0  0  0  0  0  0  0  0  0  0  0
    9.6628  -16.7529   24.2105 C   0  0  0  0  0  0  0  0  0  0  0  0
    9.2503  -17.9037   23.7536 O   0  0  0  0  0  0  0  0  0  0  0  0
   10.9057  -16.8337   24.8539 N   0  0  0  0  0  0  0  0  0  0  0  0
   11.7005  -18.0757   24.9110 C   0  0  1  0  0  0  0  0  0  0  0  0
   13.0775  -17.8403   24.4223 C   0  0  0  0  0  0  0  0  0  0  0  0
   13.9401  -19.0587   24.5665 C   0  0  0  0  0  0  0  0  0  0  0  0
   15.3428  -18.7685   24.0757 C   0  0  0  0  0  0  0  0  0  0  0  0
   15.6039  -17.6762   23.5452 O   0  0  0  0  0  0  0  0  0  0  0  0
   11.6872  -18.5515   26.3019 C   0  0  0  0  0  0  0  0  0  0  0  0
   11.2716  -17.8687   27.2587 O   0  0  0  0  0  0  0  0  0  0  0  0
   16.3144  -19.7345   24.2293 O   0  0  0  0  0  0  0  0  0  0  0  0
   12.1600  -19.8354   26.5954 O   0  0  0  0  0  0  0  0  0  0  0  0
  2  1  1  1
  3  2  1  0
  4  2  1  0
  4  6  1  0
  4  5  1  1
  6  7  2  0
  9  8  1  0
 10  9  2  0
 12 11  1  1
 11  9  1  0
 12 14  1  0
 13  6  1  0
 13 12  1  0
 14 15  2  0
 16 17  1  0
 16 14  1  0
 17 22  1  0
 17 18  1  1
 19 18  1  0
 20 19  1  0
 21 20  2  0
 22 23  2  0
 22 25  1  0
 24 20  1  0
M  END
$$$$
