VNE.pdb
     RDKit          3D

 25 24  0  0  1  0  0  0  0  0999 V2000
    7.1841  -13.3071   20.1439 C   0  0  0  0  0  0  0  0  0  0  0  0
    8.4609  -12.9834   19.3595 C   0  0  2  0  0  0  0  0  0  0  0  0
    8.0113  -12.5124   17.9976 C   0  0  0  0  0  0  0  0  0  0  0  0
    9.2182  -14.2916   19.1622 C   0  0  2  0  0  0  0  0  0  0  0  0
    8.3991  -15.1734   18.3534 N   0  0  0  0  0  0  0  0  0  0  0  0
    9.4781  -14.9531   20.4601 C   0  0  0  0  0  0  0  0  0  0  0  0
   10.1377  -14.3414   21.3335 O   0  0  0  0  0  0  0  0  0  0  0  0
    9.1611  -20.2083   20.7399 N   0  0  0  0  0  0  0  0  0  0  0  0
    8.4303  -18.9639   20.9268 C   0  0  0  0  0  0  0  0  0  0  0  0
    7.6620  -18.6975   19.9910 O   0  0  0  0  0  0  0  0  0  0  0  0
    8.6279  -18.1582   22.1173 C   0  0  0  0  0  0  0  0  0  0  0  0
    9.5120  -16.9461   22.0298 C   0  0  2  0  0  0  0  0  0  0  0  0
    9.0309  -16.2506   20.7999 N   0  0  0  0  0  0  0  0  0  0  0  0
   10.9445  -17.1895   21.9025 C   0  0  0  0  0  0  0  0  0  0  0  0
   11.4216  -17.6291   20.7700 O   0  0  0  0  0  0  0  0  0  0  0  0
   11.9348  -17.0011   22.8766 N   0  0  0  0  0  0  0  0  0  0  0  0
   13.3764  -17.1373   22.5924 C   0  0  1  0  0  0  0  0  0  0  0  0
   13.8216  -16.1038   21.6311 C   0  0  0  0  0  0  0  0  0  0  0  0
   15.3136  -16.0835   21.4800 C   0  0  0  0  0  0  0  0  0  0  0  0
   15.7225  -15.0433   20.4585 C   0  0  0  0  0  0  0  0  0  0  0  0
   15.3471  -13.8659   20.5834 O   0  0  0  0  0  0  0  0  0  0  0  0
   14.0953  -17.0415   23.8711 C   0  0  0  0  0  0  0  0  0  0  0  0
   13.5592  -16.6773   24.9362 O   0  0  0  0  0  0  0  0  0  0  0  0
   16.5132  -15.4285   19.3968 O   0  0  0  0  0  0  0  0  0  0  0  0
   15.4542  -17.3711   23.9239 O   0  0  0  0  0  0  0  0  0  0  0  0
  2  1  1  1
  3  2  1  0
  4  2  1  0
  4  6  1  0
  4  5  1  6
  6  7  2  0
  9  8  1  0
 10  9  2  0
 12 11  1  6
 11  9  1  0
 12 14  1  0
 13  6  1  0
 13 12  1  0
 14 15  2  0
 16 17  1  0
 16 14  1  0
 17 22  1  0
 17 18  1  6
 19 18  1  0
 20 19  1  0
 21 20  2  0
 22 23  2  0
 22 25  1  0
 24 20  1  0
M  END
$$$$
