VNE.pdb
     RDKit          3D

 25 24  0  0  1  0  0  0  0  0999 V2000
    7.2209  -13.4544   18.9097 C   0  0  0  0  0  0  0  0  0  0  0  0
    7.5719  -13.6479   20.3894 C   0  0  2  0  0  0  0  0  0  0  0  0
    8.3938  -12.4463   20.7886 C   0  0  0  0  0  0  0  0  0  0  0  0
    8.4762  -14.8712   20.4869 C   0  0  2  0  0  0  0  0  0  0  0  0
    7.6862  -16.0465   20.1743 N   0  0  0  0  0  0  0  0  0  0  0  0
    9.0172  -15.0211   21.8561 C   0  0  0  0  0  0  0  0  0  0  0  0
    9.8707  -14.1992   22.2663 O   0  0  0  0  0  0  0  0  0  0  0  0
    6.8168  -14.5273   24.4918 N   0  0  0  0  0  0  0  0  0  0  0  0
    6.8950  -15.8492   25.0954 C   0  0  0  0  0  0  0  0  0  0  0  0
    5.8646  -16.1763   25.7021 O   0  0  0  0  0  0  0  0  0  0  0  0
    8.0934  -16.6565   24.9630 C   0  0  0  0  0  0  0  0  0  0  0  0
    9.2271  -16.1333   24.1268 C   0  0  2  0  0  0  0  0  0  0  0  0
    8.6387  -16.0418   22.7581 N   0  0  0  0  0  0  0  0  0  0  0  0
   10.4299  -16.9564   24.0674 C   0  0  0  0  0  0  0  0  0  0  0  0
   10.5277  -18.0045   24.8389 O   0  0  0  0  0  0  0  0  0  0  0  0
   11.5532  -16.7730   23.2491 N   0  0  0  0  0  0  0  0  0  0  0  0
   12.6957  -17.7069   23.2332 C   0  0  1  0  0  0  0  0  0  0  0  0
   12.8727  -18.2964   21.8873 C   0  0  0  0  0  0  0  0  0  0  0  0
   13.1638  -17.2520   20.8511 C   0  0  0  0  0  0  0  0  0  0  0  0
   13.3976  -17.9018   19.5036 C   0  0  0  0  0  0  0  0  0  0  0  0
   13.5911  -19.1264   19.4275 O   0  0  0  0  0  0  0  0  0  0  0  0
   13.8874  -16.9628   23.6660 C   0  0  0  0  0  0  0  0  0  0  0  0
   14.9993  -17.4942   23.8548 O   0  0  0  0  0  0  0  0  0  0  0  0
   13.3910  -17.1116   18.3739 O   0  0  0  0  0  0  0  0  0  0  0  0
   13.7969  -15.5837   23.8847 O   0  0  0  0  0  0  0  0  0  0  0  0
  2  1  1  6
  3  2  1  0
  4  2  1  0
  4  6  1  0
  4  5  1  1
  6  7  2  0
  9  8  1  0
 10  9  2  0
 12 11  1  1
 11  9  1  0
 12 14  1  0
 13  6  1  0
 13 12  1  0
 14 15  2  0
 16 17  1  0
 16 14  1  0
 17 22  1  0
 17 18  1  6
 19 18  1  0
 20 19  1  0
 21 20  2  0
 22 23  2  0
 22 25  1  0
 24 20  1  0
M  END
$$$$
