VNE.pdb
     RDKit          3D

 25 24  0  0  1  0  0  0  0  0999 V2000
    9.5811  -12.6758   19.2209 C   0  0  0  0  0  0  0  0  0  0  0  0
    8.4594  -13.7084   19.3816 C   0  0  2  0  0  0  0  0  0  0  0  0
    7.2257  -12.9331   19.7763 C   0  0  0  0  0  0  0  0  0  0  0  0
    8.8302  -14.6044   20.5578 C   0  0  2  0  0  0  0  0  0  0  0  0
    8.8862  -13.7852   21.7532 N   0  0  0  0  0  0  0  0  0  0  0  0
   10.1581  -15.2243   20.3523 C   0  0  0  0  0  0  0  0  0  0  0  0
   10.2747  -16.1485   19.5131 O   0  0  0  0  0  0  0  0  0  0  0  0
   12.6474  -13.7457   17.5563 N   0  0  0  0  0  0  0  0  0  0  0  0
   13.1657  -14.8042   18.4100 C   0  0  0  0  0  0  0  0  0  0  0  0
   13.4282  -15.8489   17.7964 O   0  0  0  0  0  0  0  0  0  0  0  0
   13.3349  -14.5928   19.8355 C   0  0  0  0  0  0  0  0  0  0  0  0
   12.6394  -15.5217   20.7903 C   0  0  2  0  0  0  0  0  0  0  0  0
   11.3321  -14.8476   21.0441 N   0  0  0  0  0  0  0  0  0  0  0  0
   13.3008  -15.7613   22.0681 C   0  0  0  0  0  0  0  0  0  0  0  0
   13.7704  -14.7498   22.7461 O   0  0  0  0  0  0  0  0  0  0  0  0
   13.5082  -16.9915   22.7075 N   0  0  0  0  0  0  0  0  0  0  0  0
   14.0829  -17.1054   24.0618 C   0  0  1  0  0  0  0  0  0  0  0  0
   13.5624  -18.3059   24.7534 C   0  0  0  0  0  0  0  0  0  0  0  0
   12.0664  -18.2883   24.8590 C   0  0  0  0  0  0  0  0  0  0  0  0
   11.6185  -19.0599   26.0823 C   0  0  0  0  0  0  0  0  0  0  0  0
   11.1214  -18.4603   27.0499 O   0  0  0  0  0  0  0  0  0  0  0  0
   15.5461  -17.1438   23.9248 C   0  0  0  0  0  0  0  0  0  0  0  0
   16.1302  -17.4590   22.8694 O   0  0  0  0  0  0  0  0  0  0  0  0
   11.7732  -20.4298   26.0981 O   0  0  0  0  0  0  0  0  0  0  0  0
   16.3497  -16.8135   25.0216 O   0  0  0  0  0  0  0  0  0  0  0  0
  2  1  1  1
  3  2  1  0
  4  2  1  0
  4  6  1  0
  4  5  1  1
  6  7  2  0
  9  8  1  0
 10  9  2  0
 12 11  1  6
 11  9  1  0
 12 14  1  0
 13  6  1  0
 13 12  1  0
 14 15  2  0
 16 17  1  0
 16 14  1  0
 17 22  1  0
 17 18  1  6
 19 18  1  0
 20 19  1  0
 21 20  2  0
 22 23  2  0
 22 25  1  0
 24 20  1  0
M  END
$$$$
