VNE.pdb
     RDKit          3D

 25 24  0  0  1  0  0  0  0  0999 V2000
    8.0939  -14.1295   20.8619 C   0  0  0  0  0  0  0  0  0  0  0  0
    8.5321  -13.0924   19.8215 C   0  0  2  0  0  0  0  0  0  0  0  0
    7.3049  -12.2752   19.4977 C   0  0  0  0  0  0  0  0  0  0  0  0
    8.9209  -13.8510   18.5578 C   0  0  2  0  0  0  0  0  0  0  0  0
    7.8168  -14.7157   18.1890 N   0  0  0  0  0  0  0  0  0  0  0  0
   10.1161  -14.6915   18.7922 C   0  0  0  0  0  0  0  0  0  0  0  0
    9.9618  -15.9043   19.0704 O   0  0  0  0  0  0  0  0  0  0  0  0
   16.1523  -14.2722   17.9113 N   0  0  0  0  0  0  0  0  0  0  0  0
   14.9987  -15.1434   18.0783 C   0  0  0  0  0  0  0  0  0  0  0  0
   15.3006  -16.3270   18.2899 O   0  0  0  0  0  0  0  0  0  0  0  0
   13.6501  -14.6145   17.9934 C   0  0  0  0  0  0  0  0  0  0  0  0
   12.6094  -15.1356   18.9440 C   0  0  2  0  0  0  0  0  0  0  0  0
   11.4484  -14.2233   18.7256 N   0  0  0  0  0  0  0  0  0  0  0  0
   12.9549  -15.1261   20.3611 C   0  0  0  0  0  0  0  0  0  0  0  0
   13.1577  -13.9863   20.9635 O   0  0  0  0  0  0  0  0  0  0  0  0
   13.1011  -16.2290   21.2141 N   0  0  0  0  0  0  0  0  0  0  0  0
   13.4635  -16.0993   22.6386 C   0  0  1  0  0  0  0  0  0  0  0  0
   12.7628  -17.1172   23.4530 C   0  0  0  0  0  0  0  0  0  0  0  0
   13.0794  -16.9830   24.9129 C   0  0  0  0  0  0  0  0  0  0  0  0
   12.2818  -17.9883   25.7164 C   0  0  0  0  0  0  0  0  0  0  0  0
   11.5263  -18.7882   25.1400 O   0  0  0  0  0  0  0  0  0  0  0  0
   14.9245  -16.2267   22.7416 C   0  0  0  0  0  0  0  0  0  0  0  0
   15.6102  -16.9265   21.9707 O   0  0  0  0  0  0  0  0  0  0  0  0
   12.4116  -17.9961   27.0889 O   0  0  0  0  0  0  0  0  0  0  0  0
   15.6069  -15.5361   23.7493 O   0  0  0  0  0  0  0  0  0  0  0  0
  2  1  1  1
  3  2  1  0
  4  2  1  0
  4  6  1  0
  4  5  1  1
  6  7  2  0
  9  8  1  0
 10  9  2  0
 12 11  1  6
 11  9  1  0
 12 14  1  0
 13  6  1  0
 13 12  1  0
 14 15  2  0
 16 17  1  0
 16 14  1  0
 17 22  1  0
 17 18  1  1
 19 18  1  0
 20 19  1  0
 21 20  2  0
 22 23  2  0
 22 25  1  0
 24 20  1  0
M  END
$$$$
