VNE.pdb
     RDKit          3D

 25 24  0  0  1  0  0  0  0  0999 V2000
    6.7297  -22.4187   22.0188 C   0  0  0  0  0  0  0  0  0  0  0  0
    5.9891  -22.1584   23.3356 C   0  0  2  0  0  0  0  0  0  0  0  0
    4.6419  -21.5924   22.9570 C   0  0  0  0  0  0  0  0  0  0  0  0
    6.7501  -21.0660   24.0780 C   0  0  2  0  0  0  0  0  0  0  0  0
    6.6475  -19.8393   23.3113 N   0  0  0  0  0  0  0  0  0  0  0  0
    8.1816  -21.4163   24.2120 C   0  0  0  0  0  0  0  0  0  0  0  0
    8.4947  -22.4893   24.7801 O   0  0  0  0  0  0  0  0  0  0  0  0
   11.5344  -22.8202   21.2405 N   0  0  0  0  0  0  0  0  0  0  0  0
   10.9424  -21.5090   21.4596 C   0  0  0  0  0  0  0  0  0  0  0  0
   10.1288  -21.1822   20.5832 O   0  0  0  0  0  0  0  0  0  0  0  0
   11.3121  -20.7106   22.6135 C   0  0  0  0  0  0  0  0  0  0  0  0
   10.6721  -21.0172   23.9381 C   0  0  2  0  0  0  0  0  0  0  0  0
    9.2478  -20.6174   23.7391 N   0  0  0  0  0  0  0  0  0  0  0  0
   11.2011  -20.3102   25.0991 C   0  0  0  0  0  0  0  0  0  0  0  0
   11.3559  -19.0154   25.0452 O   0  0  0  0  0  0  0  0  0  0  0  0
   11.5810  -20.8552   26.3336 N   0  0  0  0  0  0  0  0  0  0  0  0
   12.0955  -20.0365   27.4482 C   0  0  1  0  0  0  0  0  0  0  0  0
   11.3051  -20.2681   28.6778 C   0  0  0  0  0  0  0  0  0  0  0  0
   11.2613  -21.7199   29.0516 C   0  0  0  0  0  0  0  0  0  0  0  0
   10.5792  -21.8954   30.3919 C   0  0  0  0  0  0  0  0  0  0  0  0
   10.2573  -20.9005   31.0624 O   0  0  0  0  0  0  0  0  0  0  0  0
   13.5131  -20.3776   27.6363 C   0  0  0  0  0  0  0  0  0  0  0  0
   14.1001  -21.2632   26.9840 O   0  0  0  0  0  0  0  0  0  0  0  0
   10.3256  -23.1718   30.8472 O   0  0  0  0  0  0  0  0  0  0  0  0
   14.2670  -19.6868   28.5915 O   0  0  0  0  0  0  0  0  0  0  0  0
  2  1  1  6
  3  2  1  0
  4  2  1  0
  4  6  1  0
  4  5  1  6
  6  7  2  0
  9  8  1  0
 10  9  2  0
 12 11  1  6
 11  9  1  0
 12 14  1  0
 13  6  1  0
 13 12  1  0
 14 15  2  0
 16 17  1  0
 16 14  1  0
 17 22  1  0
 17 18  1  1
 19 18  1  0
 20 19  1  0
 21 20  2  0
 22 23  2  0
 22 25  1  0
 24 20  1  0
M  END
$$$$
