VNE.pdb
     RDKit          3D

 25 24  0  0  1  0  0  0  0  0999 V2000
    7.3556  -12.2268   19.3366 C   0  0  0  0  0  0  0  0  0  0  0  0
    8.4109  -13.2673   19.7286 C   0  0  2  0  0  0  0  0  0  0  0  0
    9.6550  -12.4916   20.0881 C   0  0  0  0  0  0  0  0  0  0  0  0
    8.7285  -14.0859   18.4825 C   0  0  2  0  0  0  0  0  0  0  0  0
    7.5405  -14.8309   18.1131 N   0  0  0  0  0  0  0  0  0  0  0  0
    9.8216  -15.0479   18.7461 C   0  0  0  0  0  0  0  0  0  0  0  0
    9.5456  -16.1543   19.2676 O   0  0  0  0  0  0  0  0  0  0  0  0
   12.6276  -15.5583   15.1777 N   0  0  0  0  0  0  0  0  0  0  0  0
   12.8571  -16.3471   16.3789 C   0  0  0  0  0  0  0  0  0  0  0  0
   12.7272  -17.5670   16.2005 O   0  0  0  0  0  0  0  0  0  0  0  0
   13.2017  -15.7057   17.6340 C   0  0  0  0  0  0  0  0  0  0  0  0
   12.2413  -15.8098   18.7852 C   0  0  2  0  0  0  0  0  0  0  0  0
   11.1835  -14.8117   18.4493 N   0  0  0  0  0  0  0  0  0  0  0  0
   12.7721  -15.5049   20.1092 C   0  0  0  0  0  0  0  0  0  0  0  0
   13.2019  -14.2995   20.3652 O   0  0  0  0  0  0  0  0  0  0  0  0
   12.8853  -16.3702   21.2063 N   0  0  0  0  0  0  0  0  0  0  0  0
   13.4206  -15.9432   22.5134 C   0  0  1  0  0  0  0  0  0  0  0  0
   12.8821  -16.7885   23.6024 C   0  0  0  0  0  0  0  0  0  0  0  0
   13.4903  -16.4477   24.9303 C   0  0  0  0  0  0  0  0  0  0  0  0
   12.9016  -17.3232   26.0163 C   0  0  0  0  0  0  0  0  0  0  0  0
   11.7926  -17.0498   26.5044 O   0  0  0  0  0  0  0  0  0  0  0  0
   14.8872  -16.0132   22.4403 C   0  0  0  0  0  0  0  0  0  0  0  0
   15.5021  -16.7299   21.6264 O   0  0  0  0  0  0  0  0  0  0  0  0
   13.6169  -18.4202   26.4471 O   0  0  0  0  0  0  0  0  0  0  0  0
   15.6583  -15.2446   23.3194 O   0  0  0  0  0  0  0  0  0  0  0  0
  2  1  1  6
  3  2  1  0
  4  2  1  0
  4  6  1  0
  4  5  1  1
  6  7  2  0
  9  8  1  0
 10  9  2  0
 12 11  1  6
 11  9  1  0
 12 14  1  0
 13  6  1  0
 13 12  1  0
 14 15  2  0
 16 17  1  0
 16 14  1  0
 17 22  1  0
 17 18  1  1
 19 18  1  0
 20 19  1  0
 21 20  2  0
 22 23  2  0
 22 25  1  0
 24 20  1  0
M  END
$$$$
