QKS.pdb
     RDKit          3D

 25 24  0  0  1  0  0  0  0  0999 V2000
    7.2470  -12.3552   18.6757 N   0  0  0  0  0  0  0  0  0  0  0  0
    7.6999  -13.3472   17.7611 C   0  0  0  0  0  0  0  0  0  0  0  0
    7.1906  -13.3267   16.6239 O   0  0  0  0  0  0  0  0  0  0  0  0
    8.7027  -14.3322   18.1264 C   0  0  0  0  0  0  0  0  0  0  0  0
    9.1751  -14.3661   19.5273 C   0  0  0  0  0  0  0  0  0  0  0  0
   10.1703  -15.4036   19.8933 C   0  0  2  0  0  0  0  0  0  0  0  0
   10.5582  -16.3111   18.8673 N   0  0  0  0  0  0  0  0  0  0  0  0
    9.8019  -16.1068   21.1501 C   0  0  0  0  0  0  0  0  0  0  0  0
    9.3166  -15.4797   22.1419 O   0  0  0  0  0  0  0  0  0  0  0  0
    9.9681  -17.4958   21.3116 N   0  0  0  0  0  0  0  0  0  0  0  0
    9.4272  -18.2376   22.4345 C   0  0  1  0  0  0  0  0  0  0  0  0
    9.2096  -19.6773   22.0812 C   0  0  0  0  0  0  0  0  0  0  0  0
    8.6374  -20.4505   23.2479 C   0  0  0  0  0  0  0  0  0  0  0  0
    7.1511  -20.6877   23.0778 C   0  0  0  0  0  0  0  0  0  0  0  0
    6.6400  -21.4627   24.2846 C   0  0  0  0  0  0  0  0  0  0  0  0
    5.2296  -21.7694   24.0987 N   0  0  0  0  0  0  0  0  0  0  0  0
   10.1928  -18.0213   23.6643 C   0  0  0  0  0  0  0  0  0  0  0  0
   11.4548  -18.0487   23.5877 O   0  0  0  0  0  0  0  0  0  0  0  0
    8.3311  -17.1990   27.2524 O   0  0  0  0  0  0  0  0  0  0  0  0
    9.6304  -16.7163   27.1315 C   0  0  0  0  0  0  0  0  0  0  0  0
   10.4191  -17.5512   26.1280 C   0  0  2  0  0  0  0  0  0  0  0  0
    9.6167  -17.7838   24.9325 N   0  0  0  0  0  0  0  0  0  0  0  0
   10.7632  -18.8601   26.7285 C   0  0  0  0  0  0  0  0  0  0  0  0
   10.2918  -19.9098   26.2583 O   0  0  0  0  0  0  0  0  0  0  0  0
   11.6115  -18.9463   27.8196 O   0  0  0  0  0  0  0  0  0  0  0  0
  2  1  1  0
  3  2  2  0
  4  2  1  0
  5  4  1  0
  6  8  1  0
  6  5  1  0
  6  7  1  6
  8  9  2  0
 10  8  1  0
 10 11  1  0
 11 12  1  6
 13 12  1  0
 14 13  1  0
 15 14  1  0
 16 15  1  0
 17 22  1  0
 17 11  1  0
 18 17  2  0
 20 19  1  0
 21 23  1  0
 21 20  1  1
 21 22  1  0
 23 25  1  0
 24 23  2  0
M  END
$$$$
