QKS.pdb
     RDKit          3D

 25 24  0  0  1  0  0  0  0  0999 V2000
    7.0200  -15.6348   17.1049 N   0  0  0  0  0  0  0  0  0  0  0  0
    7.6472  -16.9080   16.9995 C   0  0  0  0  0  0  0  0  0  0  0  0
    7.6299  -17.4431   15.8741 O   0  0  0  0  0  0  0  0  0  0  0  0
    8.2770  -17.5538   18.1378 C   0  0  0  0  0  0  0  0  0  0  0  0
    8.1788  -16.8976   19.4594 C   0  0  0  0  0  0  0  0  0  0  0  0
    9.0341  -15.7104   19.7039 C   0  0  2  0  0  0  0  0  0  0  0  0
   10.2673  -15.6509   18.9949 N   0  0  0  0  0  0  0  0  0  0  0  0
    9.2118  -15.4441   21.1554 C   0  0  0  0  0  0  0  0  0  0  0  0
   10.2652  -15.7987   21.7696 O   0  0  0  0  0  0  0  0  0  0  0  0
    8.2317  -14.7893   21.9259 N   0  0  0  0  0  0  0  0  0  0  0  0
    8.3783  -14.5262   23.3447 C   0  0  1  0  0  0  0  0  0  0  0  0
    7.2800  -13.6411   23.8501 C   0  0  0  0  0  0  0  0  0  0  0  0
    7.4807  -13.2915   25.3074 C   0  0  0  0  0  0  0  0  0  0  0  0
    6.5071  -12.2224   25.7583 C   0  0  0  0  0  0  0  0  0  0  0  0
    6.7836  -11.8963   27.2196 C   0  0  0  0  0  0  0  0  0  0  0  0
    5.7720  -10.9703   27.7068 N   0  0  0  0  0  0  0  0  0  0  0  0
    8.5774  -15.7527   24.1200 C   0  0  0  0  0  0  0  0  0  0  0  0
    7.7744  -16.7106   23.9279 O   0  0  0  0  0  0  0  0  0  0  0  0
   10.9712  -17.9737   23.8695 O   0  0  0  0  0  0  0  0  0  0  0  0
   10.9975  -17.9406   25.2601 C   0  0  0  0  0  0  0  0  0  0  0  0
    9.7847  -17.1894   25.7995 C   0  0  2  0  0  0  0  0  0  0  0  0
    9.6071  -15.9392   25.0696 N   0  0  0  0  0  0  0  0  0  0  0  0
    9.9881  -16.8757   27.2321 C   0  0  0  0  0  0  0  0  0  0  0  0
    9.9499  -15.6981   27.6284 O   0  0  0  0  0  0  0  0  0  0  0  0
   10.2238  -17.8781   28.1580 O   0  0  0  0  0  0  0  0  0  0  0  0
  2  1  1  0
  3  2  2  0
  4  2  1  0
  5  4  1  0
  6  8  1  0
  6  5  1  0
  6  7  1  1
  8  9  2  0
 10  8  1  0
 10 11  1  0
 11 12  1  1
 13 12  1  0
 14 13  1  0
 15 14  1  0
 16 15  1  0
 17 22  1  0
 17 11  1  0
 18 17  2  0
 20 19  1  0
 21 23  1  0
 21 20  1  6
 21 22  1  0
 23 25  1  0
 24 23  2  0
M  END
$$$$
