QKS.pdb
     RDKit          3D

 25 24  0  0  1  0  0  0  0  0999 V2000
    7.6590  -16.7783   13.8539 N   0  0  0  0  0  0  0  0  0  0  0  0
    8.3486  -15.5386   13.7379 C   0  0  0  0  0  0  0  0  0  0  0  0
    8.6224  -15.1625   12.5817 O   0  0  0  0  0  0  0  0  0  0  0  0
    8.7147  -14.7485   14.9002 C   0  0  0  0  0  0  0  0  0  0  0  0
    8.3141  -15.2391   16.2364 C   0  0  0  0  0  0  0  0  0  0  0  0
    8.7335  -14.4434   17.4162 C   0  0  2  0  0  0  0  0  0  0  0  0
    8.8136  -13.0325   17.2431 N   0  0  0  0  0  0  0  0  0  0  0  0
    9.9570  -14.9976   18.0528 C   0  0  0  0  0  0  0  0  0  0  0  0
   10.0781  -16.2403   18.2843 O   0  0  0  0  0  0  0  0  0  0  0  0
   11.0423  -14.1844   18.4321 N   0  0  0  0  0  0  0  0  0  0  0  0
   12.2813  -14.7104   18.9723 C   0  0  1  0  0  0  0  0  0  0  0  0
   13.4717  -14.0688   18.3270 C   0  0  0  0  0  0  0  0  0  0  0  0
   14.7605  -14.7155   18.7823 C   0  0  0  0  0  0  0  0  0  0  0  0
   15.9590  -14.1158   18.0764 C   0  0  0  0  0  0  0  0  0  0  0  0
   17.2218  -14.7728   18.6165 C   0  0  0  0  0  0  0  0  0  0  0  0
   18.3802  -14.2417   17.9136 N   0  0  0  0  0  0  0  0  0  0  0  0
   12.3002  -14.6948   20.4367 C   0  0  0  0  0  0  0  0  0  0  0  0
   12.7069  -13.6445   21.0117 O   0  0  0  0  0  0  0  0  0  0  0  0
   10.1167  -17.2670   22.7313 O   0  0  0  0  0  0  0  0  0  0  0  0
   10.5918  -16.0879   23.2969 C   0  0  0  0  0  0  0  0  0  0  0  0
   11.9509  -15.7233   22.7088 C   0  0  2  0  0  0  0  0  0  0  0  0
   11.8945  -15.7750   21.2523 N   0  0  0  0  0  0  0  0  0  0  0  0
   12.9726  -16.6873   23.1770 C   0  0  0  0  0  0  0  0  0  0  0  0
   13.5129  -17.4683   22.3749 O   0  0  0  0  0  0  0  0  0  0  0  0
   13.3480  -16.7422   24.5087 O   0  0  0  0  0  0  0  0  0  0  0  0
  2  1  1  0
  3  2  2  0
  4  2  1  0
  5  4  1  0
  6  8  1  0
  6  5  1  0
  6  7  1  6
  8  9  2  0
 10  8  1  0
 10 11  1  0
 11 12  1  6
 13 12  1  0
 14 13  1  0
 15 14  1  0
 16 15  1  0
 17 22  1  0
 17 11  1  0
 18 17  2  0
 20 19  1  0
 21 23  1  0
 21 20  1  1
 21 22  1  0
 23 25  1  0
 24 23  2  0
M  END
$$$$
