QKS.pdb
     RDKit          3D

 25 24  0  0  1  0  0  0  0  0999 V2000
   14.6976  -15.8652    9.9916 N   0  0  0  0  0  0  0  0  0  0  0  0
   14.7885  -14.5369   10.4946 C   0  0  0  0  0  0  0  0  0  0  0  0
   15.7771  -13.8720   10.1289 O   0  0  0  0  0  0  0  0  0  0  0  0
   13.7856  -13.9794   11.3850 C   0  0  0  0  0  0  0  0  0  0  0  0
   12.6186  -14.8160   11.7386 C   0  0  0  0  0  0  0  0  0  0  0  0
   11.6410  -14.2603   12.7062 C   0  0  2  0  0  0  0  0  0  0  0  0
   10.9810  -13.0558   12.3315 N   0  0  0  0  0  0  0  0  0  0  0  0
   12.2026  -14.1843   14.0805 C   0  0  0  0  0  0  0  0  0  0  0  0
   12.8449  -13.1635   14.4778 O   0  0  0  0  0  0  0  0  0  0  0  0
   12.0559  -15.2299   15.0122 N   0  0  0  0  0  0  0  0  0  0  0  0
   12.5133  -15.1429   16.3858 C   0  0  1  0  0  0  0  0  0  0  0  0
   11.8999  -16.2162   17.2325 C   0  0  0  0  0  0  0  0  0  0  0  0
   10.3897  -16.1488   17.1986 C   0  0  0  0  0  0  0  0  0  0  0  0
    9.7677  -17.3474   17.8848 C   0  0  0  0  0  0  0  0  0  0  0  0
    8.2529  -17.2409   17.7737 C   0  0  0  0  0  0  0  0  0  0  0  0
    7.6396  -18.3864   18.4290 N   0  0  0  0  0  0  0  0  0  0  0  0
   13.9720  -15.0513   16.4813 C   0  0  0  0  0  0  0  0  0  0  0  0
   14.6339  -15.0139   15.4044 O   0  0  0  0  0  0  0  0  0  0  0  0
   17.2508  -13.1757   16.2369 O   0  0  0  0  0  0  0  0  0  0  0  0
   16.2830  -13.2044   17.2361 C   0  0  0  0  0  0  0  0  0  0  0  0
   16.0989  -14.6246   17.7606 C   0  0  2  0  0  0  0  0  0  0  0  0
   14.6914  -15.0016   17.6965 N   0  0  0  0  0  0  0  0  0  0  0  0
   16.5443  -14.6980   19.1707 C   0  0  0  0  0  0  0  0  0  0  0  0
   17.7388  -14.5154   19.4620 O   0  0  0  0  0  0  0  0  0  0  0  0
   15.6485  -14.9696   20.1912 O   0  0  0  0  0  0  0  0  0  0  0  0
  2  1  1  0
  3  2  2  0
  4  2  1  0
  5  4  1  0
  6  8  1  0
  6  5  1  0
  6  7  1  6
  8  9  2  0
 10  8  1  0
 10 11  1  0
 11 12  1  1
 13 12  1  0
 14 13  1  0
 15 14  1  0
 16 15  1  0
 17 22  1  0
 17 11  1  0
 18 17  2  0
 20 19  1  0
 21 23  1  0
 21 20  1  1
 21 22  1  0
 23 25  1  0
 24 23  2  0
M  END
$$$$
