QKS.pdb
     RDKit          3D

 25 24  0  0  1  0  0  0  0  0999 V2000
    8.2397  -12.5516   17.7096 N   0  0  0  0  0  0  0  0  0  0  0  0
    8.1153  -13.7567   16.9626 C   0  0  0  0  0  0  0  0  0  0  0  0
    7.4646  -13.6869   15.9020 O   0  0  0  0  0  0  0  0  0  0  0  0
    8.7136  -15.0037   17.4058 C   0  0  0  0  0  0  0  0  0  0  0  0
    9.4786  -15.0039   18.6713 C   0  0  0  0  0  0  0  0  0  0  0  0
    9.0519  -15.9476   19.7335 C   0  0  2  0  0  0  0  0  0  0  0  0
    7.7745  -16.5562   19.5761 N   0  0  0  0  0  0  0  0  0  0  0  0
    9.2318  -15.3719   21.0921 C   0  0  0  0  0  0  0  0  0  0  0  0
   10.3200  -14.8153   21.4366 O   0  0  0  0  0  0  0  0  0  0  0  0
    8.2156  -15.4099   22.0661 N   0  0  0  0  0  0  0  0  0  0  0  0
    8.4088  -14.9755   23.4364 C   0  0  1  0  0  0  0  0  0  0  0  0
    7.3097  -14.0569   23.8760 C   0  0  0  0  0  0  0  0  0  0  0  0
    7.5066  -13.6070   25.3061 C   0  0  0  0  0  0  0  0  0  0  0  0
    6.4403  -12.6164   25.7254 C   0  0  0  0  0  0  0  0  0  0  0  0
    6.6922  -12.2122   27.1716 C   0  0  0  0  0  0  0  0  0  0  0  0
    5.6662  -11.2709   27.5949 N   0  0  0  0  0  0  0  0  0  0  0  0
    8.6653  -16.0962   24.3439 C   0  0  0  0  0  0  0  0  0  0  0  0
    7.7183  -16.9033   24.5693 O   0  0  0  0  0  0  0  0  0  0  0  0
   12.3054  -17.7610   24.7537 O   0  0  0  0  0  0  0  0  0  0  0  0
   11.1332  -18.4473   25.0552 C   0  0  0  0  0  0  0  0  0  0  0  0
   10.1514  -17.5338   25.7816 C   0  0  2  0  0  0  0  0  0  0  0  0
    9.9008  -16.3374   24.9859 N   0  0  0  0  0  0  0  0  0  0  0  0
   10.7215  -17.1238   27.0852 C   0  0  0  0  0  0  0  0  0  0  0  0
   10.9901  -17.9764   27.9489 O   0  0  0  0  0  0  0  0  0  0  0  0
   10.9673  -15.7915   27.3717 O   0  0  0  0  0  0  0  0  0  0  0  0
  2  1  1  0
  3  2  2  0
  4  2  1  0
  5  4  1  0
  6  8  1  0
  6  5  1  0
  6  7  1  6
  8  9  2  0
 10  8  1  0
 10 11  1  0
 11 12  1  1
 13 12  1  0
 14 13  1  0
 15 14  1  0
 16 15  1  0
 17 22  1  0
 17 11  1  0
 18 17  2  0
 20 19  1  0
 21 23  1  0
 21 20  1  6
 21 22  1  0
 23 25  1  0
 24 23  2  0
M  END
$$$$
