QKS.pdb
     RDKit          3D

 25 24  0  0  1  0  0  0  0  0999 V2000
    7.6451  -19.6580   22.0669 N   0  0  0  0  0  0  0  0  0  0  0  0
    8.5659  -19.8863   21.0059 C   0  0  0  0  0  0  0  0  0  0  0  0
    9.3077  -20.8812   21.1200 O   0  0  0  0  0  0  0  0  0  0  0  0
    8.6409  -19.0119   19.8487 C   0  0  0  0  0  0  0  0  0  0  0  0
    7.7390  -17.8413   19.7944 C   0  0  0  0  0  0  0  0  0  0  0  0
    8.3604  -16.4962   19.7207 C   0  0  2  0  0  0  0  0  0  0  0  0
    9.3841  -16.3146   18.7482 N   0  0  0  0  0  0  0  0  0  0  0  0
    8.7697  -16.0000   21.0608 C   0  0  0  0  0  0  0  0  0  0  0  0
    9.9518  -16.1637   21.4948 O   0  0  0  0  0  0  0  0  0  0  0  0
    7.8787  -15.3260   21.9181 N   0  0  0  0  0  0  0  0  0  0  0  0
    8.2623  -14.8062   23.2167 C   0  0  1  0  0  0  0  0  0  0  0  0
    7.1559  -14.0030   23.8296 C   0  0  0  0  0  0  0  0  0  0  0  0
    7.5365  -13.4994   25.2036 C   0  0  0  0  0  0  0  0  0  0  0  0
    6.4253  -12.6723   25.8162 C   0  0  0  0  0  0  0  0  0  0  0  0
    6.8851  -12.1711   27.1784 C   0  0  0  0  0  0  0  0  0  0  0  0
    5.8419  -11.3429   27.7648 N   0  0  0  0  0  0  0  0  0  0  0  0
    8.8171  -15.8438   24.0890 C   0  0  0  0  0  0  0  0  0  0  0  0
    8.1165  -16.8751   24.3007 O   0  0  0  0  0  0  0  0  0  0  0  0
   12.7451  -17.9117   26.0294 O   0  0  0  0  0  0  0  0  0  0  0  0
   12.1460  -17.0033   25.1625 C   0  0  0  0  0  0  0  0  0  0  0  0
   10.6550  -16.8841   25.4608 C   0  0  2  0  0  0  0  0  0  0  0  0
   10.0836  -15.7711   24.7112 N   0  0  0  0  0  0  0  0  0  0  0  0
   10.4533  -16.6340   26.9061 C   0  0  0  0  0  0  0  0  0  0  0  0
    9.9578  -15.5621   27.2945 O   0  0  0  0  0  0  0  0  0  0  0  0
   10.8086  -17.5800   27.8528 O   0  0  0  0  0  0  0  0  0  0  0  0
  2  1  1  0
  3  2  2  0
  4  2  1  0
  5  4  1  0
  6  8  1  0
  6  5  1  0
  6  7  1  6
  8  9  2  0
 10  8  1  0
 10 11  1  0
 11 12  1  1
 13 12  1  0
 14 13  1  0
 15 14  1  0
 16 15  1  0
 17 22  1  0
 17 11  1  0
 18 17  2  0
 20 19  1  0
 21 23  1  0
 21 20  1  1
 21 22  1  0
 23 25  1  0
 24 23  2  0
M  END
$$$$
