QKS.pdb
     RDKit          3D

 25 24  0  0  1  0  0  0  0  0999 V2000
    6.6204  -16.4790   14.5707 N   0  0  0  0  0  0  0  0  0  0  0  0
    6.5773  -17.8988   14.6597 C   0  0  0  0  0  0  0  0  0  0  0  0
    5.8197  -18.4817   13.8601 O   0  0  0  0  0  0  0  0  0  0  0  0
    7.3723  -18.6350   15.6268 C   0  0  0  0  0  0  0  0  0  0  0  0
    8.1962  -17.8688   16.5864 C   0  0  0  0  0  0  0  0  0  0  0  0
    8.9136  -18.6295   17.6388 C   0  0  2  0  0  0  0  0  0  0  0  0
    8.9629  -20.0442   17.4873 N   0  0  0  0  0  0  0  0  0  0  0  0
    8.4824  -18.2294   19.0039 C   0  0  0  0  0  0  0  0  0  0  0  0
    8.1981  -17.0233   19.2817 O   0  0  0  0  0  0  0  0  0  0  0  0
    8.3652  -19.1559   20.0578 N   0  0  0  0  0  0  0  0  0  0  0  0
    7.9051  -18.7979   21.3859 C   0  0  1  0  0  0  0  0  0  0  0  0
    7.2043  -19.9456   22.0466 C   0  0  0  0  0  0  0  0  0  0  0  0
    5.7998  -20.1147   21.5127 C   0  0  0  0  0  0  0  0  0  0  0  0
    5.1291  -21.3392   22.1001 C   0  0  0  0  0  0  0  0  0  0  0  0
    3.6785  -21.3690   21.6385 C   0  0  0  0  0  0  0  0  0  0  0  0
    3.0449  -22.5883   22.1178 N   0  0  0  0  0  0  0  0  0  0  0  0
    8.9612  -18.1830   22.1932 C   0  0  0  0  0  0  0  0  0  0  0  0
   10.1370  -18.1831   21.7279 O   0  0  0  0  0  0  0  0  0  0  0  0
    8.7384  -14.8022   23.9580 O   0  0  0  0  0  0  0  0  0  0  0  0
    9.9411  -15.4714   23.7544 C   0  0  0  0  0  0  0  0  0  0  0  0
    9.8244  -16.9261   24.1975 C   0  0  2  0  0  0  0  0  0  0  0  0
    8.7556  -17.5886   23.4586 N   0  0  0  0  0  0  0  0  0  0  0  0
    9.5065  -16.9840   25.6425 C   0  0  0  0  0  0  0  0  0  0  0  0
    8.4062  -17.4166   26.0263 O   0  0  0  0  0  0  0  0  0  0  0  0
   10.4195  -16.5612   26.5938 O   0  0  0  0  0  0  0  0  0  0  0  0
  2  1  1  0
  3  2  2  0
  4  2  1  0
  5  4  1  0
  6  8  1  0
  6  5  1  0
  6  7  1  6
  8  9  2  0
 10  8  1  0
 10 11  1  0
 11 12  1  1
 13 12  1  0
 14 13  1  0
 15 14  1  0
 16 15  1  0
 17 22  1  0
 17 11  1  0
 18 17  2  0
 20 19  1  0
 21 23  1  0
 21 20  1  6
 21 22  1  0
 23 25  1  0
 24 23  2  0
M  END
$$$$
