QKS.pdb
     RDKit          3D

 25 24  0  0  1  0  0  0  0  0999 V2000
    9.0391  -13.5328   16.6734 N   0  0  0  0  0  0  0  0  0  0  0  0
    7.6817  -13.5667   17.1001 C   0  0  0  0  0  0  0  0  0  0  0  0
    6.8177  -13.5479   16.2022 O   0  0  0  0  0  0  0  0  0  0  0  0
    7.3163  -13.6225   18.5046 C   0  0  0  0  0  0  0  0  0  0  0  0
    8.3854  -13.8579   19.4988 C   0  0  0  0  0  0  0  0  0  0  0  0
    8.6991  -15.2641   19.8525 C   0  0  2  0  0  0  0  0  0  0  0  0
    7.5930  -16.1393   20.0458 N   0  0  0  0  0  0  0  0  0  0  0  0
    9.6800  -15.3505   20.9660 C   0  0  0  0  0  0  0  0  0  0  0  0
   10.7008  -14.5965   21.0092 O   0  0  0  0  0  0  0  0  0  0  0  0
    9.5350  -16.2646   22.0273 N   0  0  0  0  0  0  0  0  0  0  0  0
   10.5267  -16.4366   23.0716 C   0  0  1  0  0  0  0  0  0  0  0  0
    9.9745  -17.2216   24.2222 C   0  0  0  0  0  0  0  0  0  0  0  0
   11.0185  -17.4353   25.2950 C   0  0  0  0  0  0  0  0  0  0  0  0
   10.4840  -18.2931   26.4231 C   0  0  0  0  0  0  0  0  0  0  0  0
   11.5753  -18.4536   27.4726 C   0  0  0  0  0  0  0  0  0  0  0  0
   11.0408  -19.1756   28.6176 N   0  0  0  0  0  0  0  0  0  0  0  0
   11.8019  -16.9346   22.5508 C   0  0  0  0  0  0  0  0  0  0  0  0
   11.8141  -18.0781   22.0111 O   0  0  0  0  0  0  0  0  0  0  0  0
   14.7268  -14.6680   20.9547 O   0  0  0  0  0  0  0  0  0  0  0  0
   14.5900  -16.0366   20.7450 C   0  0  0  0  0  0  0  0  0  0  0  0
   14.2637  -16.7475   22.0543 C   0  0  2  0  0  0  0  0  0  0  0  0
   13.0215  -16.2234   22.6104 N   0  0  0  0  0  0  0  0  0  0  0  0
   15.3526  -16.5193   23.0313 C   0  0  0  0  0  0  0  0  0  0  0  0
   15.1194  -15.9431   24.1078 O   0  0  0  0  0  0  0  0  0  0  0  0
   16.6466  -16.9386   22.7721 O   0  0  0  0  0  0  0  0  0  0  0  0
  2  1  1  0
  3  2  2  0
  4  2  1  0
  5  4  1  0
  6  8  1  0
  6  5  1  0
  6  7  1  1
  8  9  2  0
 10  8  1  0
 10 11  1  0
 11 12  1  1
 13 12  1  0
 14 13  1  0
 15 14  1  0
 16 15  1  0
 17 22  1  0
 17 11  1  0
 18 17  2  0
 20 19  1  0
 21 23  1  0
 21 20  1  6
 21 22  1  0
 23 25  1  0
 24 23  2  0
M  END
$$$$
