QKS.pdb
     RDKit          3D

 25 24  0  0  1  0  0  0  0  0999 V2000
   13.5558  -22.4889   15.8306 N   0  0  0  0  0  0  0  0  0  0  0  0
   13.7027  -21.1146   15.4913 C   0  0  0  0  0  0  0  0  0  0  0  0
   14.3225  -20.8665   14.4389 O   0  0  0  0  0  0  0  0  0  0  0  0
   13.1603  -20.0533   16.3212 C   0  0  0  0  0  0  0  0  0  0  0  0
   12.4852  -20.4253   17.5832 C   0  0  0  0  0  0  0  0  0  0  0  0
   11.0021  -20.3941   17.6058 C   0  0  2  0  0  0  0  0  0  0  0  0
   10.3703  -19.3675   16.8484 N   0  0  0  0  0  0  0  0  0  0  0  0
   10.4665  -20.4760   18.9900 C   0  0  0  0  0  0  0  0  0  0  0  0
   10.6999  -19.5667   19.8452 O   0  0  0  0  0  0  0  0  0  0  0  0
    9.6769  -21.5563   19.4286 N   0  0  0  0  0  0  0  0  0  0  0  0
    9.0056  -21.5821   20.7140 C   0  0  1  0  0  0  0  0  0  0  0  0
    7.8230  -22.5019   20.6918 C   0  0  0  0  0  0  0  0  0  0  0  0
    6.6959  -21.9302   19.8616 C   0  0  0  0  0  0  0  0  0  0  0  0
    5.5536  -22.9158   19.7274 C   0  0  0  0  0  0  0  0  0  0  0  0
    4.4772  -22.2973   18.8459 C   0  0  0  0  0  0  0  0  0  0  0  0
    3.4166  -23.2693   18.6260 N   0  0  0  0  0  0  0  0  0  0  0  0
    9.9352  -21.8122   21.8222 C   0  0  0  0  0  0  0  0  0  0  0  0
   10.9840  -22.4780   21.5857 O   0  0  0  0  0  0  0  0  0  0  0  0
   10.6913  -19.2354   24.7597 O   0  0  0  0  0  0  0  0  0  0  0  0
   11.5261  -20.3037   24.4475 C   0  0  0  0  0  0  0  0  0  0  0  0
   10.7079  -21.5681   24.2067 C   0  0  2  0  0  0  0  0  0  0  0  0
    9.7399  -21.3403   23.1397 N   0  0  0  0  0  0  0  0  0  0  0  0
    9.9747  -21.9312   25.4407 C   0  0  0  0  0  0  0  0  0  0  0  0
    8.7323  -21.9002   25.4648 O   0  0  0  0  0  0  0  0  0  0  0  0
   10.6495  -22.3110   26.5887 O   0  0  0  0  0  0  0  0  0  0  0  0
  2  1  1  0
  3  2  2  0
  4  2  1  0
  5  4  1  0
  6  8  1  0
  6  5  1  0
  6  7  1  1
  8  9  2  0
 10  8  1  0
 10 11  1  0
 11 12  1  6
 13 12  1  0
 14 13  1  0
 15 14  1  0
 16 15  1  0
 17 22  1  0
 17 11  1  0
 18 17  2  0
 20 19  1  0
 21 23  1  0
 21 20  1  1
 21 22  1  0
 23 25  1  0
 24 23  2  0
M  END
$$$$
