QKS.pdb
     RDKit          3D

 25 24  0  0  1  0  0  0  0  0999 V2000
    9.6694  -12.9114   19.1311 N   0  0  0  0  0  0  0  0  0  0  0  0
    8.4655  -13.3306   18.4983 C   0  0  0  0  0  0  0  0  0  0  0  0
    8.5014  -13.4431   17.2576 O   0  0  0  0  0  0  0  0  0  0  0  0
    7.2572  -13.6156   19.2519 C   0  0  0  0  0  0  0  0  0  0  0  0
    7.3705  -13.8034   20.7143 C   0  0  0  0  0  0  0  0  0  0  0  0
    8.2592  -14.8863   21.2026 C   0  0  2  0  0  0  0  0  0  0  0  0
    8.2827  -16.0893   20.4416 N   0  0  0  0  0  0  0  0  0  0  0  0
    8.0696  -15.1478   22.6535 C   0  0  0  0  0  0  0  0  0  0  0  0
    7.8844  -14.2002   23.4784 O   0  0  0  0  0  0  0  0  0  0  0  0
    8.0841  -16.4489   23.1919 N   0  0  0  0  0  0  0  0  0  0  0  0
    7.9099  -16.7285   24.6044 C   0  0  1  0  0  0  0  0  0  0  0  0
    7.5973  -18.1751   24.8381 C   0  0  0  0  0  0  0  0  0  0  0  0
    7.4640  -18.4787   26.3133 C   0  0  0  0  0  0  0  0  0  0  0  0
    7.1075  -19.9320   26.5483 C   0  0  0  0  0  0  0  0  0  0  0  0
    6.9678  -20.1634   28.0467 C   0  0  0  0  0  0  0  0  0  0  0  0
    6.7341  -21.5779   28.2964 N   0  0  0  0  0  0  0  0  0  0  0  0
    9.0119  -16.2050   25.4148 C   0  0  0  0  0  0  0  0  0  0  0  0
   10.1927  -16.4177   25.0152 O   0  0  0  0  0  0  0  0  0  0  0  0
    8.4620  -13.3545   28.2983 O   0  0  0  0  0  0  0  0  0  0  0  0
    9.7414  -13.5233   27.7784 C   0  0  0  0  0  0  0  0  0  0  0  0
    9.9738  -14.9809   27.3944 C   0  0  2  0  0  0  0  0  0  0  0  0
    8.8456  -15.4774   26.6146 N   0  0  0  0  0  0  0  0  0  0  0  0
   10.1023  -15.8052   28.6176 C   0  0  0  0  0  0  0  0  0  0  0  0
    9.3363  -16.7649   28.8112 O   0  0  0  0  0  0  0  0  0  0  0  0
   11.0709  -15.5296   29.5681 O   0  0  0  0  0  0  0  0  0  0  0  0
  2  1  1  0
  3  2  2  0
  4  2  1  0
  5  4  1  0
  6  8  1  0
  6  5  1  0
  6  7  1  6
  8  9  2  0
 10  8  1  0
 10 11  1  0
 11 12  1  6
 13 12  1  0
 14 13  1  0
 15 14  1  0
 16 15  1  0
 17 22  1  0
 17 11  1  0
 18 17  2  0
 20 19  1  0
 21 23  1  0
 21 20  1  1
 21 22  1  0
 23 25  1  0
 24 23  2  0
M  END
$$$$
