QKS.pdb
     RDKit          3D

 25 24  0  0  1  0  0  0  0  0999 V2000
   14.4846  -14.9217   20.2049 N   0  0  0  0  0  0  0  0  0  0  0  0
   13.7051  -15.0608   19.0223 C   0  0  0  0  0  0  0  0  0  0  0  0
   14.1399  -14.4931   18.0016 O   0  0  0  0  0  0  0  0  0  0  0  0
   12.4694  -15.8236   18.9987 C   0  0  0  0  0  0  0  0  0  0  0  0
   11.2060  -15.1222   19.3128 C   0  0  0  0  0  0  0  0  0  0  0  0
   10.1541  -15.8858   20.0278 C   0  0  2  0  0  0  0  0  0  0  0  0
    8.8610  -15.9087   19.4325 N   0  0  0  0  0  0  0  0  0  0  0  0
   10.0975  -15.5344   21.4710 C   0  0  0  0  0  0  0  0  0  0  0  0
   11.1415  -15.5346   22.1940 O   0  0  0  0  0  0  0  0  0  0  0  0
    8.8944  -15.1841   22.1136 N   0  0  0  0  0  0  0  0  0  0  0  0
    8.8119  -14.8498   23.5225 C   0  0  1  0  0  0  0  0  0  0  0  0
    7.5719  -14.0643   23.8235 C   0  0  0  0  0  0  0  0  0  0  0  0
    7.4058  -13.8452   25.3104 C   0  0  0  0  0  0  0  0  0  0  0  0
    6.5891  -12.6024   25.5978 C   0  0  0  0  0  0  0  0  0  0  0  0
    6.3742  -12.4974   27.1015 C   0  0  0  0  0  0  0  0  0  0  0  0
    5.5634  -11.3244   27.3920 N   0  0  0  0  0  0  0  0  0  0  0  0
    9.0178  -16.0164   24.3838 C   0  0  0  0  0  0  0  0  0  0  0  0
    8.1140  -16.9006   24.4077 O   0  0  0  0  0  0  0  0  0  0  0  0
   12.6821  -17.1300   25.6470 O   0  0  0  0  0  0  0  0  0  0  0  0
   11.6648  -18.0773   25.7062 C   0  0  0  0  0  0  0  0  0  0  0  0
   10.3305  -17.4090   26.0208 C   0  0  2  0  0  0  0  0  0  0  0  0
   10.1592  -16.2218   25.1911 N   0  0  0  0  0  0  0  0  0  0  0  0
   10.2999  -17.0001   27.4435 C   0  0  0  0  0  0  0  0  0  0  0  0
   10.1147  -15.8099   27.7507 O   0  0  0  0  0  0  0  0  0  0  0  0
   10.4753  -17.9258   28.4583 O   0  0  0  0  0  0  0  0  0  0  0  0
  2  1  1  0
  3  2  2  0
  4  2  1  0
  5  4  1  0
  6  8  1  0
  6  5  1  0
  6  7  1  6
  8  9  2  0
 10  8  1  0
 10 11  1  0
 11 12  1  6
 13 12  1  0
 14 13  1  0
 15 14  1  0
 16 15  1  0
 17 22  1  0
 17 11  1  0
 18 17  2  0
 20 19  1  0
 21 23  1  0
 21 20  1  6
 21 22  1  0
 23 25  1  0
 24 23  2  0
M  END
$$$$
