QKS.pdb
     RDKit          3D

 25 24  0  0  1  0  0  0  0  0999 V2000
    7.2146  -23.8647   21.1007 N   0  0  0  0  0  0  0  0  0  0  0  0
    8.3928  -23.2683   20.5697 C   0  0  0  0  0  0  0  0  0  0  0  0
    9.4719  -23.8224   20.8555 O   0  0  0  0  0  0  0  0  0  0  0  0
    8.3469  -22.0791   19.7372 C   0  0  0  0  0  0  0  0  0  0  0  0
    7.0241  -21.5158   19.3911 C   0  0  0  0  0  0  0  0  0  0  0  0
    6.9920  -20.3382   18.4893 C   0  0  2  0  0  0  0  0  0  0  0  0
    7.0845  -20.5970   17.0924 N   0  0  0  0  0  0  0  0  0  0  0  0
    7.9408  -19.2800   18.9246 C   0  0  0  0  0  0  0  0  0  0  0  0
    9.1498  -19.2743   18.5363 O   0  0  0  0  0  0  0  0  0  0  0  0
    7.5573  -18.2327   19.7843 N   0  0  0  0  0  0  0  0  0  0  0  0
    8.4357  -17.1367   20.1458 C   0  0  1  0  0  0  0  0  0  0  0  0
    7.7049  -15.8287   20.1383 C   0  0  0  0  0  0  0  0  0  0  0  0
    8.6318  -14.6779   20.4590 C   0  0  0  0  0  0  0  0  0  0  0  0
    7.8897  -13.3575   20.4701 C   0  0  0  0  0  0  0  0  0  0  0  0
    8.9082  -12.2263   20.5094 C   0  0  0  0  0  0  0  0  0  0  0  0
    8.2113  -10.9489   20.4878 N   0  0  0  0  0  0  0  0  0  0  0  0
    9.1864  -17.4077   21.3739 C   0  0  0  0  0  0  0  0  0  0  0  0
    8.5702  -17.9490   22.3364 O   0  0  0  0  0  0  0  0  0  0  0  0
   13.3477  -16.9817   21.6448 O   0  0  0  0  0  0  0  0  0  0  0  0
   12.6891  -17.9475   22.3992 C   0  0  0  0  0  0  0  0  0  0  0  0
   11.2855  -17.4750   22.7637 C   0  0  2  0  0  0  0  0  0  0  0  0
   10.5545  -17.1052   21.5570 N   0  0  0  0  0  0  0  0  0  0  0  0
   11.3711  -16.2895   23.6466 C   0  0  0  0  0  0  0  0  0  0  0  0
   10.9361  -15.1896   23.2645 O   0  0  0  0  0  0  0  0  0  0  0  0
   11.9332  -16.3764   24.9091 O   0  0  0  0  0  0  0  0  0  0  0  0
  2  1  1  0
  3  2  2  0
  4  2  1  0
  5  4  1  0
  6  8  1  0
  6  5  1  0
  6  7  1  6
  8  9  2  0
 10  8  1  0
 10 11  1  0
 11 12  1  1
 13 12  1  0
 14 13  1  0
 15 14  1  0
 16 15  1  0
 17 22  1  0
 17 11  1  0
 18 17  2  0
 20 19  1  0
 21 23  1  0
 21 20  1  6
 21 22  1  0
 23 25  1  0
 24 23  2  0
M  END
$$$$
