QKS.pdb
     RDKit          3D

 25 24  0  0  1  0  0  0  0  0999 V2000
    8.1517  -13.0496   16.6400 N   0  0  0  0  0  0  0  0  0  0  0  0
    8.1475  -14.1231   15.7055 C   0  0  0  0  0  0  0  0  0  0  0  0
    7.4696  -13.9568   14.6731 O   0  0  0  0  0  0  0  0  0  0  0  0
    8.8926  -15.3484   15.9355 C   0  0  0  0  0  0  0  0  0  0  0  0
    9.6711  -15.4716   17.1867 C   0  0  0  0  0  0  0  0  0  0  0  0
    9.0822  -16.2727   18.2879 C   0  0  2  0  0  0  0  0  0  0  0  0
    7.7124  -16.6370   18.1549 N   0  0  0  0  0  0  0  0  0  0  0  0
    9.3760  -15.6838   19.6207 C   0  0  0  0  0  0  0  0  0  0  0  0
   10.5495  -15.3176   19.9388 O   0  0  0  0  0  0  0  0  0  0  0  0
    8.3792  -15.4998   20.5983 N   0  0  0  0  0  0  0  0  0  0  0  0
    8.6579  -15.0280   21.9412 C   0  0  1  0  0  0  0  0  0  0  0  0
    7.4260  -14.4743   22.5899 C   0  0  0  0  0  0  0  0  0  0  0  0
    7.7199  -13.9590   23.9807 C   0  0  0  0  0  0  0  0  0  0  0  0
    6.4638  -13.4527   24.6591 C   0  0  0  0  0  0  0  0  0  0  0  0
    6.8236  -12.9806   26.0612 C   0  0  0  0  0  0  0  0  0  0  0  0
    5.6658  -12.3392   26.6661 N   0  0  0  0  0  0  0  0  0  0  0  0
    9.3734  -16.0234   22.7429 C   0  0  0  0  0  0  0  0  0  0  0  0
    8.9687  -17.2206   22.6978 O   0  0  0  0  0  0  0  0  0  0  0  0
   13.5032  -17.4976   24.6846 O   0  0  0  0  0  0  0  0  0  0  0  0
   12.7532  -16.4986   24.0722 C   0  0  0  0  0  0  0  0  0  0  0  0
   11.2621  -16.7792   24.2273 C   0  0  2  0  0  0  0  0  0  0  0  0
   10.4866  -15.7368   23.5646 N   0  0  0  0  0  0  0  0  0  0  0  0
   10.9035  -16.7943   25.6638 C   0  0  0  0  0  0  0  0  0  0  0  0
   10.1346  -15.9349   26.1279 O   0  0  0  0  0  0  0  0  0  0  0  0
   11.4117  -17.7581   26.5184 O   0  0  0  0  0  0  0  0  0  0  0  0
  2  1  1  0
  3  2  2  0
  4  2  1  0
  5  4  1  0
  6  8  1  0
  6  5  1  0
  6  7  1  6
  8  9  2  0
 10  8  1  0
 10 11  1  0
 11 12  1  1
 13 12  1  0
 14 13  1  0
 15 14  1  0
 16 15  1  0
 17 22  1  0
 17 11  1  0
 18 17  2  0
 20 19  1  0
 21 23  1  0
 21 20  1  1
 21 22  1  0
 23 25  1  0
 24 23  2  0
M  END
$$$$
