HWN.pdb
     RDKit          3D

 33 35  0  0  1  0  0  0  0  0999 V2000
    8.2056  -16.3602   20.7925 N   0  0  0  0  0  0  0  0  0  0  0  0
    9.0911  -15.2922   21.1854 C   0  0  1  0  0  0  0  0  0  0  0  0
    8.6104  -13.9329   20.7909 C   0  0  0  0  0  0  0  0  0  0  0  0
    8.4866  -13.8341   19.3162 C   0  0  0  0  0  0  0  0  0  0  0  0
    7.2925  -13.6359   18.6136 C   0  0  0  0  0  0  0  0  0  0  0  0
    7.5585  -13.5969   17.2956 N   0  0  0  0  0  0  0  0  0  0  0  0
    8.8741  -13.7622   17.1268 C   0  0  0  0  0  0  0  0  0  0  0  0
    9.4195  -13.9038   18.3525 N   0  0  0  0  0  0  0  0  0  0  0  0
    9.4777  -15.3810   22.6167 C   0  0  0  0  0  0  0  0  0  0  0  0
   10.3070  -14.5330   23.0837 O   0  0  0  0  0  0  0  0  0  0  0  0
    8.9931  -16.3450   23.5166 N   0  0  0  0  0  0  0  0  0  0  0  0
    9.4688  -16.4470   24.9254 C   0  0  1  0  0  0  0  0  0  0  0  0
    8.2722  -16.4601   25.7869 C   0  0  0  0  0  0  0  0  0  0  0  0
    7.3622  -15.3341   25.7867 C   0  0  0  0  0  0  0  0  0  0  0  0
    6.0340  -15.2750   25.3521 C   0  0  0  0  0  0  0  0  0  0  0  0
    5.5532  -14.0339   25.5200 N   0  0  0  0  0  0  0  0  0  0  0  0
    6.5144  -13.2531   26.0549 C   0  0  0  0  0  0  0  0  0  0  0  0
    6.5202  -11.9298   26.4325 C   0  0  0  0  0  0  0  0  0  0  0  0
    7.6645  -11.4055   26.9836 C   0  0  0  0  0  0  0  0  0  0  0  0
    8.8091  -12.1614   27.1710 C   0  0  0  0  0  0  0  0  0  0  0  0
    8.7618  -13.4865   26.7775 C   0  0  0  0  0  0  0  0  0  0  0  0
    7.6451  -14.0526   26.2246 C   0  0  0  0  0  0  0  0  0  0  0  0
   10.3495  -17.5995   25.0863 C   0  0  0  0  0  0  0  0  0  0  0  0
   10.0755  -18.6525   24.4202 O   0  0  0  0  0  0  0  0  0  0  0  0
   13.8716  -21.1059   26.7713 N   0  0  0  0  0  0  0  0  0  0  0  0
   14.4003  -19.7789   26.9976 C   0  0  0  0  0  0  0  0  0  0  0  0
   15.5446  -19.6345   27.4979 O   0  0  0  0  0  0  0  0  0  0  0  0
   13.5907  -18.6248   26.6390 C   0  0  0  0  0  0  0  0  0  0  0  0
   12.1883  -18.9605   26.1313 C   0  0  2  0  0  0  0  0  0  0  0  0
   11.5026  -17.6789   25.9066 N   0  0  0  0  0  0  0  0  0  0  0  0
   11.4303  -19.6990   27.1468 C   0  0  0  0  0  0  0  0  0  0  0  0
   10.5618  -19.2154   27.9066 O   0  0  0  0  0  0  0  0  0  0  0  0
   11.6616  -21.0775   27.3191 O   0  0  0  0  0  0  0  0  0  0  0  0
  2  1  1  1
  2  3  1  0
  3  4  1  0
  4  5  2  0
  4  8  1  0
  5  6  1  0
  6  7  1  0
  8  7  2  0
  9 10  2  0
  9  2  1  0
 11  9  1  0
 12 13  1  1
 12 11  1  0
 13 14  1  0
 14 15  2  0
 14 22  1  0
 15 16  1  0
 16 17  1  0
 17 18  2  0
 19 18  1  0
 20 19  2  0
 21 22  2  0
 21 20  1  0
 22 17  1  0
 23 12  1  0
 24 23  2  0
 25 26  1  0
 26 28  1  0
 27 26  2  0
 29 28  1  1
 29 30  1  0
 30 23  1  0
 31 33  1  0
 31 29  1  0
 32 31  2  0
M  END
$$$$
