HWN.pdb
     RDKit          3D

 33 35  0  0  1  0  0  0  0  0999 V2000
    7.7613  -16.4787   20.4712 N   0  0  0  0  0  0  0  0  0  0  0  0
    8.7995  -15.5128   20.7324 C   0  0  1  0  0  0  0  0  0  0  0  0
    8.4667  -14.1294   20.2742 C   0  0  0  0  0  0  0  0  0  0  0  0
    8.1030  -14.1325   18.8362 C   0  0  0  0  0  0  0  0  0  0  0  0
    8.1558  -15.2447   17.9883 C   0  0  0  0  0  0  0  0  0  0  0  0
    7.7551  -14.8792   16.7574 N   0  0  0  0  0  0  0  0  0  0  0  0
    7.4483  -13.5785   16.7837 C   0  0  0  0  0  0  0  0  0  0  0  0
    7.6631  -13.1427   18.0422 N   0  0  0  0  0  0  0  0  0  0  0  0
    9.2721  -15.5627   22.1395 C   0  0  0  0  0  0  0  0  0  0  0  0
   10.1509  -14.7231   22.5236 O   0  0  0  0  0  0  0  0  0  0  0  0
    8.8192  -16.4807   23.1020 N   0  0  0  0  0  0  0  0  0  0  0  0
    9.3486  -16.5185   24.4949 C   0  0  1  0  0  0  0  0  0  0  0  0
    8.1849  -16.5527   25.3998 C   0  0  0  0  0  0  0  0  0  0  0  0
    7.2304  -15.4642   25.4003 C   0  0  0  0  0  0  0  0  0  0  0  0
    5.9341  -15.4290   24.8759 C   0  0  0  0  0  0  0  0  0  0  0  0
    5.3910  -14.2196   25.0813 N   0  0  0  0  0  0  0  0  0  0  0  0
    6.2791  -13.4371   25.7283 C   0  0  0  0  0  0  0  0  0  0  0  0
    6.2029  -12.1402   26.1819 C   0  0  0  0  0  0  0  0  0  0  0  0
    7.2832  -11.6076   26.8433 C   0  0  0  0  0  0  0  0  0  0  0  0
    8.4430  -12.3295   27.0676 C   0  0  0  0  0  0  0  0  0  0  0  0
    8.4789  -13.6289   26.5950 C   0  0  0  0  0  0  0  0  0  0  0  0
    7.4280  -14.2020   25.9314 C   0  0  0  0  0  0  0  0  0  0  0  0
   10.2816  -17.6288   24.6580 C   0  0  0  0  0  0  0  0  0  0  0  0
   10.1103  -18.6595   23.9260 O   0  0  0  0  0  0  0  0  0  0  0  0
   14.0013  -21.0122   25.9903 N   0  0  0  0  0  0  0  0  0  0  0  0
   14.4842  -19.7788   25.4096 C   0  0  0  0  0  0  0  0  0  0  0  0
   15.6758  -19.6919   25.0184 O   0  0  0  0  0  0  0  0  0  0  0  0
   13.5738  -18.6508   25.2877 C   0  0  0  0  0  0  0  0  0  0  0  0
   12.1404  -18.9346   25.7373 C   0  0  2  0  0  0  0  0  0  0  0  0
   11.3836  -17.6879   25.5473 N   0  0  0  0  0  0  0  0  0  0  0  0
   12.0994  -19.2672   27.1653 C   0  0  0  0  0  0  0  0  0  0  0  0
   12.5608  -20.3062   27.6878 O   0  0  0  0  0  0  0  0  0  0  0  0
   11.5012  -18.3689   28.0700 O   0  0  0  0  0  0  0  0  0  0  0  0
  2  1  1  1
  2  3  1  0
  3  4  1  0
  4  5  2  0
  4  8  1  0
  5  6  1  0
  6  7  1  0
  8  7  2  0
  9 10  2  0
  9  2  1  0
 11  9  1  0
 12 13  1  1
 12 11  1  0
 13 14  1  0
 14 15  2  0
 14 22  1  0
 15 16  1  0
 16 17  1  0
 17 18  2  0
 19 18  1  0
 20 19  2  0
 21 22  2  0
 21 20  1  0
 22 17  1  0
 23 12  1  0
 24 23  2  0
 25 26  1  0
 26 28  1  0
 27 26  2  0
 29 28  1  1
 29 30  1  0
 30 23  1  0
 31 33  1  0
 31 29  1  0
 32 31  2  0
M  END
$$$$
