HWN.pdb
     RDKit          3D

 33 35  0  0  1  0  0  0  0  0999 V2000
   10.9297  -16.2118   20.1597 N   0  0  0  0  0  0  0  0  0  0  0  0
   10.0802  -17.0924   20.9226 C   0  0  1  0  0  0  0  0  0  0  0  0
   10.3173  -18.5435   20.6533 C   0  0  0  0  0  0  0  0  0  0  0  0
   10.0270  -18.8621   19.2341 C   0  0  0  0  0  0  0  0  0  0  0  0
    9.4573  -17.9836   18.3054 C   0  0  0  0  0  0  0  0  0  0  0  0
    9.3416  -18.6097   17.1205 N   0  0  0  0  0  0  0  0  0  0  0  0
    9.8140  -19.8530   17.2538 C   0  0  0  0  0  0  0  0  0  0  0  0
   10.2229  -19.9901   18.5320 N   0  0  0  0  0  0  0  0  0  0  0  0
   10.0827  -16.7604   22.3702 C   0  0  0  0  0  0  0  0  0  0  0  0
   11.1676  -16.3625   22.9083 O   0  0  0  0  0  0  0  0  0  0  0  0
    8.9619  -16.8516   23.2125 N   0  0  0  0  0  0  0  0  0  0  0  0
    9.0363  -16.6270   24.6841 C   0  0  1  0  0  0  0  0  0  0  0  0
    7.7464  -16.0459   25.0995 C   0  0  0  0  0  0  0  0  0  0  0  0
    7.3294  -14.7574   24.5876 C   0  0  0  0  0  0  0  0  0  0  0  0
    6.9817  -14.3992   23.2809 C   0  0  0  0  0  0  0  0  0  0  0  0
    6.6627  -13.0970   23.2338 N   0  0  0  0  0  0  0  0  0  0  0  0
    6.7833  -12.5645   24.4674 C   0  0  0  0  0  0  0  0  0  0  0  0
    6.5562  -11.2950   24.9474 C   0  0  0  0  0  0  0  0  0  0  0  0
    6.7450  -11.0520   26.2865 C   0  0  0  0  0  0  0  0  0  0  0  0
    7.1556  -12.0384   27.1669 C   0  0  0  0  0  0  0  0  0  0  0  0
    7.3736  -13.3001   26.6440 C   0  0  0  0  0  0  0  0  0  0  0  0
    7.1984  -13.5896   25.3179 C   0  0  0  0  0  0  0  0  0  0  0  0
    9.3999  -17.8613   25.3728 C   0  0  0  0  0  0  0  0  0  0  0  0
    9.3757  -18.9448   24.6997 O   0  0  0  0  0  0  0  0  0  0  0  0
   14.3659  -19.2537   25.6345 N   0  0  0  0  0  0  0  0  0  0  0  0
   12.9288  -19.4008   25.7042 C   0  0  0  0  0  0  0  0  0  0  0  0
   12.3762  -20.4187   25.2153 O   0  0  0  0  0  0  0  0  0  0  0  0
   12.1417  -18.3584   26.3446 C   0  0  0  0  0  0  0  0  0  0  0  0
   10.9181  -18.8609   27.1109 C   0  0  2  0  0  0  0  0  0  0  0  0
    9.7942  -17.9930   26.7277 N   0  0  0  0  0  0  0  0  0  0  0  0
   11.1162  -18.7203   28.5573 C   0  0  0  0  0  0  0  0  0  0  0  0
   11.3999  -19.6458   29.3501 O   0  0  0  0  0  0  0  0  0  0  0  0
   10.9902  -17.4512   29.1548 O   0  0  0  0  0  0  0  0  0  0  0  0
  2  1  1  6
  2  3  1  0
  3  4  1  0
  4  5  2  0
  4  8  1  0
  5  6  1  0
  6  7  1  0
  8  7  2  0
  9 10  2  0
  9  2  1  0
 11  9  1  0
 12 13  1  1
 12 11  1  0
 13 14  1  0
 14 15  2  0
 14 22  1  0
 15 16  1  0
 16 17  1  0
 17 18  2  0
 19 18  1  0
 20 19  2  0
 21 22  2  0
 21 20  1  0
 22 17  1  0
 23 12  1  0
 24 23  2  0
 25 26  1  0
 26 28  1  0
 27 26  2  0
 29 28  1  6
 29 30  1  0
 30 23  1  0
 31 33  1  0
 31 29  1  0
 32 31  2  0
M  END
$$$$
