HWN.pdb
     RDKit          3D

 33 35  0  0  1  0  0  0  0  0999 V2000
   11.0511  -16.0139   18.4040 N   0  0  0  0  0  0  0  0  0  0  0  0
   10.0412  -16.6751   19.1927 C   0  0  1  0  0  0  0  0  0  0  0  0
   10.1240  -18.1670   19.1524 C   0  0  0  0  0  0  0  0  0  0  0  0
    9.8501  -18.6650   17.7824 C   0  0  0  0  0  0  0  0  0  0  0  0
   10.6969  -18.5113   16.6787 C   0  0  0  0  0  0  0  0  0  0  0  0
   10.1284  -19.0868   15.6041 N   0  0  0  0  0  0  0  0  0  0  0  0
    8.9524  -19.6022   15.9756 C   0  0  0  0  0  0  0  0  0  0  0  0
    8.7987  -19.3402   17.2900 N   0  0  0  0  0  0  0  0  0  0  0  0
    9.9625  -16.1329   20.5732 C   0  0  0  0  0  0  0  0  0  0  0  0
   11.0447  -15.8755   21.1957 O   0  0  0  0  0  0  0  0  0  0  0  0
    8.7660  -15.8756   21.2633 N   0  0  0  0  0  0  0  0  0  0  0  0
    8.7339  -15.3826   22.6695 C   0  0  1  0  0  0  0  0  0  0  0  0
    7.3389  -15.0075   22.9654 C   0  0  0  0  0  0  0  0  0  0  0  0
    6.9302  -14.7397   24.3281 C   0  0  0  0  0  0  0  0  0  0  0  0
    6.3882  -15.6164   25.2737 C   0  0  0  0  0  0  0  0  0  0  0  0
    6.1413  -14.9595   26.4171 N   0  0  0  0  0  0  0  0  0  0  0  0
    6.4999  -13.6670   26.2738 C   0  0  0  0  0  0  0  0  0  0  0  0
    6.4687  -12.6018   27.1446 C   0  0  0  0  0  0  0  0  0  0  0  0
    6.9339  -11.3829   26.7135 C   0  0  0  0  0  0  0  0  0  0  0  0
    7.4311  -11.1903   25.4359 C   0  0  0  0  0  0  0  0  0  0  0  0
    7.4441  -12.2860   24.5919 C   0  0  0  0  0  0  0  0  0  0  0  0
    6.9919  -13.5191   24.9767 C   0  0  0  0  0  0  0  0  0  0  0  0
    9.3037  -16.3765   23.5736 C   0  0  0  0  0  0  0  0  0  0  0  0
    8.9438  -17.5910   23.4222 O   0  0  0  0  0  0  0  0  0  0  0  0
   12.2471  -18.3456   23.4446 N   0  0  0  0  0  0  0  0  0  0  0  0
   12.9620  -17.6849   24.5142 C   0  0  0  0  0  0  0  0  0  0  0  0
   14.2174  -17.6244   24.4883 O   0  0  0  0  0  0  0  0  0  0  0  0
   12.2082  -17.0972   25.6108 C   0  0  0  0  0  0  0  0  0  0  0  0
   10.6904  -17.2336   25.4887 C   0  0  2  0  0  0  0  0  0  0  0  0
   10.2375  -16.1417   24.6137 N   0  0  0  0  0  0  0  0  0  0  0  0
   10.0454  -17.0550   26.7938 C   0  0  0  0  0  0  0  0  0  0  0  0
    9.2835  -16.1145   27.1106 O   0  0  0  0  0  0  0  0  0  0  0  0
   10.2691  -18.0003   27.8135 O   0  0  0  0  0  0  0  0  0  0  0  0
  2  1  1  1
  2  3  1  0
  3  4  1  0
  4  5  2  0
  4  8  1  0
  5  6  1  0
  6  7  1  0
  8  7  2  0
  9 10  2  0
  9  2  1  0
 11  9  1  0
 12 13  1  1
 12 11  1  0
 13 14  1  0
 14 15  2  0
 14 22  1  0
 15 16  1  0
 16 17  1  0
 17 18  2  0
 19 18  1  0
 20 19  2  0
 21 22  2  0
 21 20  1  0
 22 17  1  0
 23 12  1  0
 24 23  2  0
 25 26  1  0
 26 28  1  0
 27 26  2  0
 29 28  1  1
 29 30  1  0
 30 23  1  0
 31 33  1  0
 31 29  1  0
 32 31  2  0
M  END
$$$$
