HWN.pdb
     RDKit          3D

 33 35  0  0  1  0  0  0  0  0999 V2000
   10.6391  -16.0513   18.1261 N   0  0  0  0  0  0  0  0  0  0  0  0
    9.5160  -16.5680   18.8682 C   0  0  1  0  0  0  0  0  0  0  0  0
    9.2708  -18.0271   18.6549 C   0  0  0  0  0  0  0  0  0  0  0  0
    9.0155  -18.3060   17.2207 C   0  0  0  0  0  0  0  0  0  0  0  0
    7.7641  -18.2611   16.5956 C   0  0  0  0  0  0  0  0  0  0  0  0
    7.9107  -18.5687   15.2944 N   0  0  0  0  0  0  0  0  0  0  0  0
    9.2049  -18.8085   15.0619 C   0  0  0  0  0  0  0  0  0  0  0  0
    9.8575  -18.6466   16.2314 N   0  0  0  0  0  0  0  0  0  0  0  0
    9.5694  -16.1898   20.3035 C   0  0  0  0  0  0  0  0  0  0  0  0
   10.6918  -16.2212   20.9067 O   0  0  0  0  0  0  0  0  0  0  0  0
    8.4586  -15.7921   21.0665 N   0  0  0  0  0  0  0  0  0  0  0  0
    8.5532  -15.4490   22.5139 C   0  0  1  0  0  0  0  0  0  0  0  0
    7.2430  -14.9060   22.9170 C   0  0  0  0  0  0  0  0  0  0  0  0
    6.9602  -14.6471   24.3130 C   0  0  0  0  0  0  0  0  0  0  0  0
    6.4789  -15.5231   25.2915 C   0  0  0  0  0  0  0  0  0  0  0  0
    6.3485  -14.8762   26.4596 N   0  0  0  0  0  0  0  0  0  0  0  0
    6.7272  -13.5912   26.3011 C   0  0  0  0  0  0  0  0  0  0  0  0
    6.7990  -12.5379   27.1838 C   0  0  0  0  0  0  0  0  0  0  0  0
    7.2570  -11.3251   26.7285 C   0  0  0  0  0  0  0  0  0  0  0  0
    7.6472  -11.1271   25.4151 C   0  0  0  0  0  0  0  0  0  0  0  0
    7.5589  -12.2109   24.5603 C   0  0  0  0  0  0  0  0  0  0  0  0
    7.1094  -13.4376   24.9682 C   0  0  0  0  0  0  0  0  0  0  0  0
    8.9989  -16.6046   23.2859 C   0  0  0  0  0  0  0  0  0  0  0  0
    8.9741  -17.7448   22.7141 O   0  0  0  0  0  0  0  0  0  0  0  0
   11.4971  -19.3342   23.1438 N   0  0  0  0  0  0  0  0  0  0  0  0
   12.2579  -18.1158   23.3121 C   0  0  0  0  0  0  0  0  0  0  0  0
   13.3009  -17.9270   22.6362 O   0  0  0  0  0  0  0  0  0  0  0  0
   11.7980  -17.1218   24.2696 C   0  0  0  0  0  0  0  0  0  0  0  0
   10.5434  -17.5171   25.0486 C   0  0  2  0  0  0  0  0  0  0  0  0
    9.4749  -16.6014   24.6209 N   0  0  0  0  0  0  0  0  0  0  0  0
   10.7436  -17.3259   26.4890 C   0  0  0  0  0  0  0  0  0  0  0  0
   11.5642  -17.9453   27.2019 O   0  0  0  0  0  0  0  0  0  0  0  0
    9.9705  -16.3701   27.1761 O   0  0  0  0  0  0  0  0  0  0  0  0
  2  1  1  1
  2  3  1  0
  3  4  1  0
  4  5  2  0
  4  8  1  0
  5  6  1  0
  6  7  1  0
  8  7  2  0
  9 10  2  0
  9  2  1  0
 11  9  1  0
 12 13  1  1
 12 11  1  0
 13 14  1  0
 14 15  2  0
 14 22  1  0
 15 16  1  0
 16 17  1  0
 17 18  2  0
 19 18  1  0
 20 19  2  0
 21 22  2  0
 21 20  1  0
 22 17  1  0
 23 12  1  0
 24 23  2  0
 25 26  1  0
 26 28  1  0
 27 26  2  0
 29 28  1  6
 29 30  1  0
 30 23  1  0
 31 33  1  0
 31 29  1  0
 32 31  2  0
M  END
$$$$
