HWN.pdb
     RDKit          3D

 33 35  0  0  1  0  0  0  0  0999 V2000
   10.7523  -16.2935   20.4319 N   0  0  0  0  0  0  0  0  0  0  0  0
    9.9281  -17.0667   21.3274 C   0  0  1  0  0  0  0  0  0  0  0  0
    9.9947  -18.5408   21.0887 C   0  0  0  0  0  0  0  0  0  0  0  0
    9.8410  -18.8399   19.6441 C   0  0  0  0  0  0  0  0  0  0  0  0
    9.7362  -17.8867   18.6247 C   0  0  0  0  0  0  0  0  0  0  0  0
    9.6101  -18.5175   17.4434 N   0  0  0  0  0  0  0  0  0  0  0  0
    9.6299  -19.8353   17.6659 C   0  0  0  0  0  0  0  0  0  0  0  0
    9.7693  -20.0139   18.9958 N   0  0  0  0  0  0  0  0  0  0  0  0
   10.1433  -16.6964   22.7496 C   0  0  0  0  0  0  0  0  0  0  0  0
   11.2541  -16.1699   23.0869 O   0  0  0  0  0  0  0  0  0  0  0  0
    9.2013  -16.8838   23.7751 N   0  0  0  0  0  0  0  0  0  0  0  0
    9.5319  -16.7094   25.2179 C   0  0  1  0  0  0  0  0  0  0  0  0
    8.2830  -16.3345   25.9063 C   0  0  0  0  0  0  0  0  0  0  0  0
    7.4793  -15.2371   25.4106 C   0  0  0  0  0  0  0  0  0  0  0  0
    6.5481  -15.2284   24.3669 C   0  0  0  0  0  0  0  0  0  0  0  0
    6.0294  -13.9990   24.2277 N   0  0  0  0  0  0  0  0  0  0  0  0
    6.5803  -13.1773   25.1447 C   0  0  0  0  0  0  0  0  0  0  0  0
    6.3759  -11.8462   25.4278 C   0  0  0  0  0  0  0  0  0  0  0  0
    7.0808  -11.2750   26.4597 C   0  0  0  0  0  0  0  0  0  0  0  0
    7.9879  -11.9911   27.2219 C   0  0  0  0  0  0  0  0  0  0  0  0
    8.1644  -13.3256   26.9043 C   0  0  0  0  0  0  0  0  0  0  0  0
    7.4848  -13.9379   25.8862 C   0  0  0  0  0  0  0  0  0  0  0  0
   10.1826  -17.9058   25.7424 C   0  0  0  0  0  0  0  0  0  0  0  0
   10.6237  -18.7576   24.9014 O   0  0  0  0  0  0  0  0  0  0  0  0
   15.0975  -18.7922   26.2456 N   0  0  0  0  0  0  0  0  0  0  0  0
   13.6731  -19.0379   26.1988 C   0  0  0  0  0  0  0  0  0  0  0  0
   13.2062  -19.8801   25.3905 O   0  0  0  0  0  0  0  0  0  0  0  0
   12.7984  -18.2990   27.0961 C   0  0  0  0  0  0  0  0  0  0  0  0
   11.5384  -19.0517   27.5240 C   0  0  2  0  0  0  0  0  0  0  0  0
   10.3930  -18.2292   27.1062 N   0  0  0  0  0  0  0  0  0  0  0  0
   11.4824  -19.1845   28.9836 C   0  0  0  0  0  0  0  0  0  0  0  0
   12.1876  -19.9521   29.6758 O   0  0  0  0  0  0  0  0  0  0  0  0
   10.5731  -18.3983   29.7175 O   0  0  0  0  0  0  0  0  0  0  0  0
  2  1  1  6
  2  3  1  0
  3  4  1  0
  4  5  2  0
  4  8  1  0
  5  6  1  0
  6  7  1  0
  8  7  2  0
  9 10  2  0
  9  2  1  0
 11  9  1  0
 12 13  1  1
 12 11  1  0
 13 14  1  0
 14 15  2  0
 14 22  1  0
 15 16  1  0
 16 17  1  0
 17 18  2  0
 19 18  1  0
 20 19  2  0
 21 22  2  0
 21 20  1  0
 22 17  1  0
 23 12  1  0
 24 23  2  0
 25 26  1  0
 26 28  1  0
 27 26  2  0
 29 28  1  1
 29 30  1  0
 30 23  1  0
 31 33  1  0
 31 29  1  0
 32 31  2  0
M  END
$$$$
