HWN.pdb
     RDKit          3D

 33 35  0  0  1  0  0  0  0  0999 V2000
    8.5374  -16.9877   18.4997 N   0  0  0  0  0  0  0  0  0  0  0  0
    8.8381  -15.5860   18.6550 C   0  0  1  0  0  0  0  0  0  0  0  0
    8.0582  -14.6961   17.7416 C   0  0  0  0  0  0  0  0  0  0  0  0
    8.2420  -15.1125   16.3299 C   0  0  0  0  0  0  0  0  0  0  0  0
    9.2676  -14.6779   15.4826 C   0  0  0  0  0  0  0  0  0  0  0  0
    9.1211  -15.2605   14.2792 N   0  0  0  0  0  0  0  0  0  0  0  0
    8.0434  -16.0500   14.3223 C   0  0  0  0  0  0  0  0  0  0  0  0
    7.5245  -15.9502   15.5636 N   0  0  0  0  0  0  0  0  0  0  0  0
    8.7848  -15.1541   20.0750 C   0  0  0  0  0  0  0  0  0  0  0  0
    9.2130  -13.9933   20.3815 O   0  0  0  0  0  0  0  0  0  0  0  0
    8.2902  -15.9387   21.1304 N   0  0  0  0  0  0  0  0  0  0  0  0
    8.4106  -15.5377   22.5609 C   0  0  1  0  0  0  0  0  0  0  0  0
    7.0409  -15.3689   23.0803 C   0  0  0  0  0  0  0  0  0  0  0  0
    6.8264  -15.0156   24.4677 C   0  0  0  0  0  0  0  0  0  0  0  0
    6.4177  -15.8279   25.5306 C   0  0  0  0  0  0  0  0  0  0  0  0
    6.3345  -15.1012   26.6552 N   0  0  0  0  0  0  0  0  0  0  0  0
    6.6748  -13.8240   26.3857 C   0  0  0  0  0  0  0  0  0  0  0  0
    6.7691  -12.7087   27.1863 C   0  0  0  0  0  0  0  0  0  0  0  0
    7.1747  -11.5233   26.6220 C   0  0  0  0  0  0  0  0  0  0  0  0
    7.4903  -11.4131   25.2786 C   0  0  0  0  0  0  0  0  0  0  0  0
    7.3817  -12.5570   24.5088 C   0  0  0  0  0  0  0  0  0  0  0  0
    6.9825  -13.7595   25.0264 C   0  0  0  0  0  0  0  0  0  0  0  0
    9.2278  -16.4984   23.2950 C   0  0  0  0  0  0  0  0  0  0  0  0
    8.9443  -17.7359   23.1695 O   0  0  0  0  0  0  0  0  0  0  0  0
   13.5841  -15.8768   22.4569 N   0  0  0  0  0  0  0  0  0  0  0  0
   13.0154  -17.0372   23.1063 C   0  0  0  0  0  0  0  0  0  0  0  0
   12.8906  -18.1152   22.4716 O   0  0  0  0  0  0  0  0  0  0  0  0
   12.5943  -16.9348   24.4949 C   0  0  0  0  0  0  0  0  0  0  0  0
   11.1269  -17.2831   24.7453 C   0  0  2  0  0  0  0  0  0  0  0  0
   10.3282  -16.2069   24.1393 N   0  0  0  0  0  0  0  0  0  0  0  0
   10.8340  -17.2998   26.1824 C   0  0  0  0  0  0  0  0  0  0  0  0
   11.3241  -18.0901   27.0195 O   0  0  0  0  0  0  0  0  0  0  0  0
    9.9302  -16.3615   26.7173 O   0  0  0  0  0  0  0  0  0  0  0  0
  2  1  1  1
  2  3  1  0
  3  4  1  0
  4  5  2  0
  4  8  1  0
  5  6  1  0
  6  7  1  0
  8  7  2  0
  9 10  2  0
  9  2  1  0
 11  9  1  0
 12 13  1  1
 12 11  1  0
 13 14  1  0
 14 15  2  0
 14 22  1  0
 15 16  1  0
 16 17  1  0
 17 18  2  0
 19 18  1  0
 20 19  2  0
 21 22  2  0
 21 20  1  0
 22 17  1  0
 23 12  1  0
 24 23  2  0
 25 26  1  0
 26 28  1  0
 27 26  2  0
 29 28  1  1
 29 30  1  0
 30 23  1  0
 31 33  1  0
 31 29  1  0
 32 31  2  0
M  END
$$$$
