HWN.pdb
     RDKit          3D

 33 35  0  0  1  0  0  0  0  0999 V2000
    8.1888  -13.2506   17.7886 N   0  0  0  0  0  0  0  0  0  0  0  0
    8.4229  -14.5301   18.4109 C   0  0  1  0  0  0  0  0  0  0  0  0
    9.4312  -15.3729   17.6986 C   0  0  0  0  0  0  0  0  0  0  0  0
    8.9933  -15.6411   16.3071 C   0  0  0  0  0  0  0  0  0  0  0  0
    7.6760  -15.5605   15.8412 C   0  0  0  0  0  0  0  0  0  0  0  0
    7.6524  -15.8685   14.5321 N   0  0  0  0  0  0  0  0  0  0  0  0
    8.9010  -16.1429   14.1419 C   0  0  0  0  0  0  0  0  0  0  0  0
    9.6972  -16.0019   15.2218 N   0  0  0  0  0  0  0  0  0  0  0  0
    8.6909  -14.4060   19.8665 C   0  0  0  0  0  0  0  0  0  0  0  0
    9.6064  -13.6101   20.2578 O   0  0  0  0  0  0  0  0  0  0  0  0
    8.0023  -15.1105   20.8683 N   0  0  0  0  0  0  0  0  0  0  0  0
    8.2583  -14.9051   22.3222 C   0  0  1  0  0  0  0  0  0  0  0  0
    6.9449  -14.7657   22.9779 C   0  0  0  0  0  0  0  0  0  0  0  0
    6.8597  -14.6354   24.4173 C   0  0  0  0  0  0  0  0  0  0  0  0
    6.5891  -15.6171   25.3762 C   0  0  0  0  0  0  0  0  0  0  0  0
    6.5947  -15.0721   26.6020 N   0  0  0  0  0  0  0  0  0  0  0  0
    6.8612  -13.7535   26.5014 C   0  0  0  0  0  0  0  0  0  0  0  0
    6.9970  -12.7674   27.4517 C   0  0  0  0  0  0  0  0  0  0  0  0
    7.3017  -11.4922   27.0408 C   0  0  0  0  0  0  0  0  0  0  0  0
    7.4759  -11.1663   25.7066 C   0  0  0  0  0  0  0  0  0  0  0  0
    7.3300  -12.1861   24.7837 C   0  0  0  0  0  0  0  0  0  0  0  0
    7.0274  -13.4709   25.1454 C   0  0  0  0  0  0  0  0  0  0  0  0
    9.0942  -15.9779   22.8515 C   0  0  0  0  0  0  0  0  0  0  0  0
    8.8396  -17.1693   22.4732 O   0  0  0  0  0  0  0  0  0  0  0  0
   13.0537  -17.6075   21.9466 N   0  0  0  0  0  0  0  0  0  0  0  0
   12.9653  -16.4577   22.8195 C   0  0  0  0  0  0  0  0  0  0  0  0
   13.3555  -15.3320   22.4184 O   0  0  0  0  0  0  0  0  0  0  0  0
   12.4215  -16.6266   24.1581 C   0  0  0  0  0  0  0  0  0  0  0  0
   10.9437  -17.0155   24.2036 C   0  0  2  0  0  0  0  0  0  0  0  0
   10.1840  -15.8417   23.7473 N   0  0  0  0  0  0  0  0  0  0  0  0
   10.5253  -17.3100   25.5781 C   0  0  0  0  0  0  0  0  0  0  0  0
    9.6945  -16.6548   26.2460 O   0  0  0  0  0  0  0  0  0  0  0  0
   11.0759  -18.4194   26.2484 O   0  0  0  0  0  0  0  0  0  0  0  0
  2  1  1  6
  2  3  1  0
  3  4  1  0
  4  5  2  0
  4  8  1  0
  5  6  1  0
  6  7  1  0
  8  7  2  0
  9 10  2  0
  9  2  1  0
 11  9  1  0
 12 13  1  1
 12 11  1  0
 13 14  1  0
 14 15  2  0
 14 22  1  0
 15 16  1  0
 16 17  1  0
 17 18  2  0
 19 18  1  0
 20 19  2  0
 21 22  2  0
 21 20  1  0
 22 17  1  0
 23 12  1  0
 24 23  2  0
 25 26  1  0
 26 28  1  0
 27 26  2  0
 29 28  1  1
 29 30  1  0
 30 23  1  0
 31 33  1  0
 31 29  1  0
 32 31  2  0
M  END
$$$$
