HWN.pdb
     RDKit          3D

 33 35  0  0  1  0  0  0  0  0999 V2000
    8.8181  -13.0845   20.2232 N   0  0  0  0  0  0  0  0  0  0  0  0
    8.5560  -14.4621   20.5591 C   0  0  1  0  0  0  0  0  0  0  0  0
    8.9056  -15.4260   19.4715 C   0  0  0  0  0  0  0  0  0  0  0  0
    8.3443  -14.9723   18.1757 C   0  0  0  0  0  0  0  0  0  0  0  0
    7.3151  -14.0367   18.0203 C   0  0  0  0  0  0  0  0  0  0  0  0
    7.0667  -13.8692   16.7091 N   0  0  0  0  0  0  0  0  0  0  0  0
    7.8951  -14.6597   16.0195 C   0  0  0  0  0  0  0  0  0  0  0  0
    8.6583  -15.3178   16.9164 N   0  0  0  0  0  0  0  0  0  0  0  0
    9.1287  -14.8376   21.8770 C   0  0  0  0  0  0  0  0  0  0  0  0
   10.3280  -14.4993   22.1455 O   0  0  0  0  0  0  0  0  0  0  0  0
    8.4408  -15.5511   22.8728 N   0  0  0  0  0  0  0  0  0  0  0  0
    9.0578  -15.9125   24.1806 C   0  0  1  0  0  0  0  0  0  0  0  0
    7.9666  -15.9830   25.1697 C   0  0  0  0  0  0  0  0  0  0  0  0
    7.0389  -14.8804   25.3106 C   0  0  0  0  0  0  0  0  0  0  0  0
    5.7076  -14.7902   24.8909 C   0  0  0  0  0  0  0  0  0  0  0  0
    5.2082  -13.5870   25.2114 N   0  0  0  0  0  0  0  0  0  0  0  0
    6.1598  -12.8621   25.8348 C   0  0  0  0  0  0  0  0  0  0  0  0
    6.1467  -11.5951   26.3718 C   0  0  0  0  0  0  0  0  0  0  0  0
    7.2854  -11.1238   26.9793 C   0  0  0  0  0  0  0  0  0  0  0  0
    8.4428  -11.8781   27.0688 C   0  0  0  0  0  0  0  0  0  0  0  0
    8.4144  -13.1456   26.5160 C   0  0  0  0  0  0  0  0  0  0  0  0
    7.3038  -13.6577   25.9015 C   0  0  0  0  0  0  0  0  0  0  0  0
    9.8472  -17.1335   24.0543 C   0  0  0  0  0  0  0  0  0  0  0  0
    9.6638  -17.8533   23.0171 O   0  0  0  0  0  0  0  0  0  0  0  0
   13.8639  -18.8743   21.7192 N   0  0  0  0  0  0  0  0  0  0  0  0
   13.9416  -18.1657   22.9775 C   0  0  0  0  0  0  0  0  0  0  0  0
   15.0368  -18.0900   23.5902 O   0  0  0  0  0  0  0  0  0  0  0  0
   12.7399  -17.5479   23.5164 C   0  0  0  0  0  0  0  0  0  0  0  0
   11.9625  -18.4170   24.5051 C   0  0  2  0  0  0  0  0  0  0  0  0
   10.8203  -17.6134   24.9662 N   0  0  0  0  0  0  0  0  0  0  0  0
   12.7853  -18.7349   25.6769 C   0  0  0  0  0  0  0  0  0  0  0  0
   12.8521  -18.0603   26.7285 O   0  0  0  0  0  0  0  0  0  0  0  0
   13.5867  -19.8930   25.6685 O   0  0  0  0  0  0  0  0  0  0  0  0
  2  1  1  6
  2  3  1  0
  3  4  1  0
  4  5  2  0
  4  8  1  0
  5  6  1  0
  6  7  1  0
  8  7  2  0
  9 10  2  0
  9  2  1  0
 11  9  1  0
 12 13  1  1
 12 11  1  0
 13 14  1  0
 14 15  2  0
 14 22  1  0
 15 16  1  0
 16 17  1  0
 17 18  2  0
 19 18  1  0
 20 19  2  0
 21 22  2  0
 21 20  1  0
 22 17  1  0
 23 12  1  0
 24 23  2  0
 25 26  1  0
 26 28  1  0
 27 26  2  0
 29 28  1  6
 29 30  1  0
 30 23  1  0
 31 33  1  0
 31 29  1  0
 32 31  2  0
M  END
$$$$
