HWN.pdb
     RDKit          3D

 33 35  0  0  1  0  0  0  0  0999 V2000
    9.9988  -16.0382   17.7339 N   0  0  0  0  0  0  0  0  0  0  0  0
    9.3426  -16.8629   18.7180 C   0  0  1  0  0  0  0  0  0  0  0  0
    9.7360  -18.3037   18.6579 C   0  0  0  0  0  0  0  0  0  0  0  0
    9.3269  -18.8998   17.3628 C   0  0  0  0  0  0  0  0  0  0  0  0
    8.5265  -18.2757   16.3991 C   0  0  0  0  0  0  0  0  0  0  0  0
    8.3623  -19.1093   15.3563 N   0  0  0  0  0  0  0  0  0  0  0  0
    9.0252  -20.2410   15.6139 C   0  0  0  0  0  0  0  0  0  0  0  0
    9.6008  -20.0999   16.8258 N   0  0  0  0  0  0  0  0  0  0  0  0
    9.4373  -16.2894   20.0847 C   0  0  0  0  0  0  0  0  0  0  0  0
   10.5880  -16.0083   20.5556 O   0  0  0  0  0  0  0  0  0  0  0  0
    8.3374  -16.0265   20.9185 N   0  0  0  0  0  0  0  0  0  0  0  0
    8.4834  -15.5370   22.3188 C   0  0  1  0  0  0  0  0  0  0  0  0
    7.1354  -15.1746   22.7938 C   0  0  0  0  0  0  0  0  0  0  0  0
    6.9236  -14.8174   24.1807 C   0  0  0  0  0  0  0  0  0  0  0  0
    6.4795  -15.6176   25.2385 C   0  0  0  0  0  0  0  0  0  0  0  0
    6.4136  -14.8911   26.3645 N   0  0  0  0  0  0  0  0  0  0  0  0
    6.7997  -13.6258   26.1007 C   0  0  0  0  0  0  0  0  0  0  0  0
    6.9269  -12.5164   26.9049 C   0  0  0  0  0  0  0  0  0  0  0  0
    7.3772  -11.3445   26.3466 C   0  0  0  0  0  0  0  0  0  0  0  0
    7.7059  -11.2419   25.0057 C   0  0  0  0  0  0  0  0  0  0  0  0
    7.5632  -12.3796   24.2322 C   0  0  0  0  0  0  0  0  0  0  0  0
    7.1190  -13.5688   24.7438 C   0  0  0  0  0  0  0  0  0  0  0  0
    9.1737  -16.5279   23.1382 C   0  0  0  0  0  0  0  0  0  0  0  0
    9.0437  -17.7560   22.8182 O   0  0  0  0  0  0  0  0  0  0  0  0
   12.3609  -19.2005   26.2494 N   0  0  0  0  0  0  0  0  0  0  0  0
   12.9484  -18.3617   25.2281 C   0  0  0  0  0  0  0  0  0  0  0  0
   14.1561  -18.5084   24.9115 O   0  0  0  0  0  0  0  0  0  0  0  0
   12.1232  -17.3541   24.5799 C   0  0  0  0  0  0  0  0  0  0  0  0
   10.6506  -17.3733   24.9901 C   0  0  2  0  0  0  0  0  0  0  0  0
    9.9959  -16.2742   24.2644 N   0  0  0  0  0  0  0  0  0  0  0  0
   10.5068  -17.1073   26.4253 C   0  0  0  0  0  0  0  0  0  0  0  0
   10.0304  -16.0673   26.9322 O   0  0  0  0  0  0  0  0  0  0  0  0
   10.9242  -18.0782   27.3561 O   0  0  0  0  0  0  0  0  0  0  0  0
  2  1  1  6
  2  3  1  0
  3  4  1  0
  4  5  2  0
  4  8  1  0
  5  6  1  0
  6  7  1  0
  8  7  2  0
  9 10  2  0
  9  2  1  0
 11  9  1  0
 12 13  1  1
 12 11  1  0
 13 14  1  0
 14 15  2  0
 14 22  1  0
 15 16  1  0
 16 17  1  0
 17 18  2  0
 19 18  1  0
 20 19  2  0
 21 22  2  0
 21 20  1  0
 22 17  1  0
 23 12  1  0
 24 23  2  0
 25 26  1  0
 26 28  1  0
 27 26  2  0
 29 28  1  6
 29 30  1  0
 30 23  1  0
 31 33  1  0
 31 29  1  0
 32 31  2  0
M  END
$$$$
