HWN.pdb
     RDKit          3D

 33 35  0  0  1  0  0  0  0  0999 V2000
    7.6783  -13.4995   20.2741 N   0  0  0  0  0  0  0  0  0  0  0  0
    8.1770  -14.8222   20.5587 C   0  0  1  0  0  0  0  0  0  0  0  0
    8.9736  -15.4202   19.4442 C   0  0  0  0  0  0  0  0  0  0  0  0
    8.2700  -15.2436   18.1505 C   0  0  0  0  0  0  0  0  0  0  0  0
    7.6954  -14.0513   17.6954 C   0  0  0  0  0  0  0  0  0  0  0  0
    7.1467  -14.2609   16.4854 N   0  0  0  0  0  0  0  0  0  0  0  0
    7.3468  -15.5387   16.1482 C   0  0  0  0  0  0  0  0  0  0  0  0
    8.0245  -16.1177   17.1608 N   0  0  0  0  0  0  0  0  0  0  0  0
    8.8680  -14.8915   21.8715 C   0  0  0  0  0  0  0  0  0  0  0  0
    9.6805  -13.9620   22.1888 O   0  0  0  0  0  0  0  0  0  0  0  0
    8.6951  -15.9210   22.8118 N   0  0  0  0  0  0  0  0  0  0  0  0
    9.4382  -15.9696   24.1030 C   0  0  1  0  0  0  0  0  0  0  0  0
    8.4426  -16.1916   25.1677 C   0  0  0  0  0  0  0  0  0  0  0  0
    7.3815  -15.2309   25.3845 C   0  0  0  0  0  0  0  0  0  0  0  0
    6.0031  -15.3849   25.2034 C   0  0  0  0  0  0  0  0  0  0  0  0
    5.3713  -14.2424   25.5120 N   0  0  0  0  0  0  0  0  0  0  0  0
    6.2793  -13.3218   25.8963 C   0  0  0  0  0  0  0  0  0  0  0  0
    6.1455  -12.0211   26.3254 C   0  0  0  0  0  0  0  0  0  0  0  0
    7.2747  -11.3237   26.6807 C   0  0  0  0  0  0  0  0  0  0  0  0
    8.5395  -11.8834   26.6214 C   0  0  0  0  0  0  0  0  0  0  0  0
    8.6305  -13.1925   26.1843 C   0  0  0  0  0  0  0  0  0  0  0  0
    7.5342  -13.9266   25.8202 C   0  0  0  0  0  0  0  0  0  0  0  0
   10.5020  -16.9670   24.0442 C   0  0  0  0  0  0  0  0  0  0  0  0
   10.1843  -18.1528   23.6970 O   0  0  0  0  0  0  0  0  0  0  0  0
   14.4601  -17.4137   21.6365 N   0  0  0  0  0  0  0  0  0  0  0  0
   14.3629  -16.6267   22.8460 C   0  0  0  0  0  0  0  0  0  0  0  0
   14.4105  -15.3719   22.7855 O   0  0  0  0  0  0  0  0  0  0  0  0
   14.2104  -17.3079   24.1222 C   0  0  0  0  0  0  0  0  0  0  0  0
   12.8188  -17.8880   24.3751 C   0  0  2  0  0  0  0  0  0  0  0  0
   11.8758  -16.7605   24.3247 N   0  0  0  0  0  0  0  0  0  0  0  0
   12.7366  -18.4777   25.7155 C   0  0  0  0  0  0  0  0  0  0  0  0
   12.0251  -18.0598   26.6560 O   0  0  0  0  0  0  0  0  0  0  0  0
   13.5048  -19.6181   26.0202 O   0  0  0  0  0  0  0  0  0  0  0  0
  2  1  1  6
  2  3  1  0
  3  4  1  0
  4  5  2  0
  4  8  1  0
  5  6  1  0
  6  7  1  0
  8  7  2  0
  9 10  2  0
  9  2  1  0
 11  9  1  0
 12 13  1  1
 12 11  1  0
 13 14  1  0
 14 15  2  0
 14 22  1  0
 15 16  1  0
 16 17  1  0
 17 18  2  0
 19 18  1  0
 20 19  2  0
 21 22  2  0
 21 20  1  0
 22 17  1  0
 23 12  1  0
 24 23  2  0
 25 26  1  0
 26 28  1  0
 27 26  2  0
 29 28  1  1
 29 30  1  0
 30 23  1  0
 31 33  1  0
 31 29  1  0
 32 31  2  0
M  END
$$$$
