HWN.pdb
     RDKit          3D

 33 35  0  0  1  0  0  0  0  0999 V2000
    8.6161  -12.9933   19.7903 N   0  0  0  0  0  0  0  0  0  0  0  0
    8.4392  -14.3330   20.2932 C   0  0  1  0  0  0  0  0  0  0  0  0
    8.8977  -15.3979   19.3497 C   0  0  0  0  0  0  0  0  0  0  0  0
    8.3243  -15.1770   17.9998 C   0  0  0  0  0  0  0  0  0  0  0  0
    7.9223  -13.9407   17.4813 C   0  0  0  0  0  0  0  0  0  0  0  0
    7.4533  -14.1183   16.2332 N   0  0  0  0  0  0  0  0  0  0  0  0
    7.5390  -15.4179   15.9324 C   0  0  0  0  0  0  0  0  0  0  0  0
    8.0653  -16.0425   17.0061 N   0  0  0  0  0  0  0  0  0  0  0  0
    8.9859  -14.4948   21.6647 C   0  0  0  0  0  0  0  0  0  0  0  0
    9.9358  -13.7333   22.0422 O   0  0  0  0  0  0  0  0  0  0  0  0
    8.5310  -15.4400   22.5995 N   0  0  0  0  0  0  0  0  0  0  0  0
    9.1716  -15.6325   23.9314 C   0  0  1  0  0  0  0  0  0  0  0  0
    8.1037  -16.0101   24.8754 C   0  0  0  0  0  0  0  0  0  0  0  0
    7.0770  -15.0543   25.2338 C   0  0  0  0  0  0  0  0  0  0  0  0
    5.6899  -15.2278   25.2816 C   0  0  0  0  0  0  0  0  0  0  0  0
    5.0990  -14.0832   25.6564 N   0  0  0  0  0  0  0  0  0  0  0  0
    6.0431  -13.1424   25.8639 C   0  0  0  0  0  0  0  0  0  0  0  0
    5.9606  -11.8310   26.2729 C   0  0  0  0  0  0  0  0  0  0  0  0
    7.1218  -11.1118   26.4223 C   0  0  0  0  0  0  0  0  0  0  0  0
    8.3688  -11.6600   26.1753 C   0  0  0  0  0  0  0  0  0  0  0  0
    8.4077  -12.9804   25.7654 C   0  0  0  0  0  0  0  0  0  0  0  0
    7.2783  -13.7362   25.6032 C   0  0  0  0  0  0  0  0  0  0  0  0
   10.2700  -16.5889   23.8378 C   0  0  0  0  0  0  0  0  0  0  0  0
   10.1431  -17.5591   23.0192 O   0  0  0  0  0  0  0  0  0  0  0  0
   14.8506  -19.1327   24.1970 N   0  0  0  0  0  0  0  0  0  0  0  0
   15.0291  -17.6979   24.1602 C   0  0  0  0  0  0  0  0  0  0  0  0
   16.1793  -17.2106   24.0187 O   0  0  0  0  0  0  0  0  0  0  0  0
   13.8636  -16.8371   24.2891 C   0  0  0  0  0  0  0  0  0  0  0  0
   12.5264  -17.5759   24.3476 C   0  0  2  0  0  0  0  0  0  0  0  0
   11.4891  -16.5551   24.5600 N   0  0  0  0  0  0  0  0  0  0  0  0
   12.4888  -18.4937   25.4910 C   0  0  0  0  0  0  0  0  0  0  0  0
   13.1943  -19.5175   25.6305 O   0  0  0  0  0  0  0  0  0  0  0  0
   11.5989  -18.2426   26.5533 O   0  0  0  0  0  0  0  0  0  0  0  0
  2  1  1  6
  2  3  1  0
  3  4  1  0
  4  5  2  0
  4  8  1  0
  5  6  1  0
  6  7  1  0
  8  7  2  0
  9 10  2  0
  9  2  1  0
 11  9  1  0
 12 13  1  1
 12 11  1  0
 13 14  1  0
 14 15  2  0
 14 22  1  0
 15 16  1  0
 16 17  1  0
 17 18  2  0
 19 18  1  0
 20 19  2  0
 21 22  2  0
 21 20  1  0
 22 17  1  0
 23 12  1  0
 24 23  2  0
 25 26  1  0
 26 28  1  0
 27 26  2  0
 29 28  1  1
 29 30  1  0
 30 23  1  0
 31 33  1  0
 31 29  1  0
 32 31  2  0
M  END
$$$$
