ECT.pdb
     RDKit          3D

 23 22  0  0  1  0  0  0  0  0999 V2000
    7.9141  -13.7216   19.9372 N   0  0  0  0  0  0  0  0  0  0  0  0
    7.1949  -14.2911   21.0345 C   0  0  1  0  0  0  0  0  0  0  0  0
    7.0501  -15.7898   20.7735 C   0  0  0  0  0  0  0  0  0  0  0  0
    7.5562  -16.1596   19.4237 C   0  0  0  0  0  0  0  0  0  0  0  0
    7.3298  -17.5994   19.1888 C   0  0  0  0  0  0  0  0  0  0  0  0
    8.3074  -18.3797   19.0888 O   0  0  0  0  0  0  0  0  0  0  0  0
    7.9597  -14.1654   22.3222 C   0  0  0  0  0  0  0  0  0  0  0  0
    9.2138  -14.2660   22.2827 O   0  0  0  0  0  0  0  0  0  0  0  0
    6.0572  -18.1420   19.0717 O   0  0  0  0  0  0  0  0  0  0  0  0
    7.3142  -13.9391   23.5646 N   0  0  0  0  0  0  0  0  0  0  0  0
    8.1505  -13.9257   24.7780 C   0  0  1  0  0  0  0  0  0  0  0  0
    7.3426  -13.2179   25.8525 C   0  0  0  0  0  0  0  0  0  0  0  0
    5.7231  -13.9497   26.1253 S   0  0  0  0  0  0  0  0  0  0  0  0
    8.4207  -15.3216   25.2056 C   0  0  0  0  0  0  0  0  0  0  0  0
    7.6091  -16.2010   24.8254 O   0  0  0  0  0  0  0  0  0  0  0  0
   11.8439  -16.9154   24.8259 C   0  0  0  0  0  0  0  0  0  0  0  0
   10.5980  -17.7281   25.1209 C   0  0  1  0  0  0  0  0  0  0  0  0
   10.9803  -19.0227   25.3832 O   0  0  0  0  0  0  0  0  0  0  0  0
    9.8698  -17.0489   26.2326 C   0  0  2  0  0  0  0  0  0  0  0  0
    9.5287  -15.6795   25.9991 N   0  0  0  0  0  0  0  0  0  0  0  0
   10.4589  -17.2956   27.5783 C   0  0  0  0  0  0  0  0  0  0  0  0
   10.6403  -16.3325   28.3434 O   0  0  0  0  0  0  0  0  0  0  0  0
   10.8121  -18.5625   28.0095 O   0  0  0  0  0  0  0  0  0  0  0  0
  2  1  1  6
  2  7  1  0
  3  2  1  0
  4  3  1  0
  5  6  2  0
  5  4  1  0
  7  8  2  0
  9  5  1  0
 10  7  1  0
 10 11  1  0
 11 14  1  0
 11 12  1  1
 13 12  1  0
 14 20  1  0
 15 14  2  0
 17 18  1  0
 17 16  1  1
 19 17  1  0
 19 20  1  6
 21 23  1  0
 21 19  1  0
 22 21  2  0
M  END
$$$$
