ECT.pdb
     RDKit          3D

 23 22  0  0  1  0  0  0  0  0999 V2000
    8.2877  -12.6457   18.9637 N   0  0  0  0  0  0  0  0  0  0  0  0
    7.4590  -13.4473   19.8100 C   0  0  1  0  0  0  0  0  0  0  0  0
    7.3901  -14.8499   19.2073 C   0  0  0  0  0  0  0  0  0  0  0  0
    8.7318  -15.3213   18.7685 C   0  0  0  0  0  0  0  0  0  0  0  0
    8.6136  -16.6713   18.1829 C   0  0  0  0  0  0  0  0  0  0  0  0
    8.8434  -17.6831   18.8887 O   0  0  0  0  0  0  0  0  0  0  0  0
    8.0600  -13.6118   21.1777 C   0  0  0  0  0  0  0  0  0  0  0  0
    9.3105  -13.5266   21.2934 O   0  0  0  0  0  0  0  0  0  0  0  0
    8.2513  -16.8777   16.8586 O   0  0  0  0  0  0  0  0  0  0  0  0
    7.2657  -13.8569   22.3269 N   0  0  0  0  0  0  0  0  0  0  0  0
    7.9418  -13.8693   23.6363 C   0  0  1  0  0  0  0  0  0  0  0  0
    6.9608  -13.2795   24.6354 C   0  0  0  0  0  0  0  0  0  0  0  0
    7.4836  -13.4691   26.3452 S   0  0  0  0  0  0  0  0  0  0  0  0
    8.2500  -15.2705   24.0185 C   0  0  0  0  0  0  0  0  0  0  0  0
    7.3019  -16.0929   23.9806 O   0  0  0  0  0  0  0  0  0  0  0  0
   10.3643  -17.7110   22.5090 C   0  0  0  0  0  0  0  0  0  0  0  0
   10.8259  -17.7530   23.9529 C   0  0  1  0  0  0  0  0  0  0  0  0
   12.0884  -17.2117   24.0173 O   0  0  0  0  0  0  0  0  0  0  0  0
    9.7970  -17.0513   24.7754 C   0  0  2  0  0  0  0  0  0  0  0  0
    9.5361  -15.6937   24.4082 N   0  0  0  0  0  0  0  0  0  0  0  0
    9.9591  -17.2517   26.2425 C   0  0  0  0  0  0  0  0  0  0  0  0
    9.9621  -16.2584   26.9905 O   0  0  0  0  0  0  0  0  0  0  0  0
   10.1063  -18.5076   26.8052 O   0  0  0  0  0  0  0  0  0  0  0  0
  2  1  1  6
  2  7  1  0
  3  2  1  0
  4  3  1  0
  5  6  2  0
  5  4  1  0
  7  8  2  0
  9  5  1  0
 10  7  1  0
 10 11  1  0
 11 14  1  0
 11 12  1  1
 13 12  1  0
 14 20  1  0
 15 14  2  0
 17 18  1  0
 17 16  1  6
 19 17  1  0
 19 20  1  1
 21 23  1  0
 21 19  1  0
 22 21  2  0
M  END
$$$$
