ECT.pdb
     RDKit          3D

 23 22  0  0  1  0  0  0  0  0999 V2000
    8.4682  -18.9290   19.2508 N   0  0  0  0  0  0  0  0  0  0  0  0
    7.5152  -18.2330   20.0589 C   0  0  1  0  0  0  0  0  0  0  0  0
    6.9311  -19.2296   21.0592 C   0  0  0  0  0  0  0  0  0  0  0  0
    6.0566  -20.2284   20.3865 C   0  0  0  0  0  0  0  0  0  0  0  0
    5.4824  -21.1408   21.3950 C   0  0  0  0  0  0  0  0  0  0  0  0
    4.7712  -22.1089   21.0321 O   0  0  0  0  0  0  0  0  0  0  0  0
    8.1670  -17.1550   20.8785 C   0  0  0  0  0  0  0  0  0  0  0  0
    9.3080  -17.3802   21.3601 O   0  0  0  0  0  0  0  0  0  0  0  0
    5.6982  -20.9740   22.7563 O   0  0  0  0  0  0  0  0  0  0  0  0
    7.5390  -15.9066   21.1204 N   0  0  0  0  0  0  0  0  0  0  0  0
    8.2766  -14.9131   21.9209 C   0  0  1  0  0  0  0  0  0  0  0  0
    7.5893  -13.5774   21.6929 C   0  0  0  0  0  0  0  0  0  0  0  0
    7.6563  -13.0235   19.9837 S   0  0  0  0  0  0  0  0  0  0  0  0
    8.1862  -15.2733   23.3585 C   0  0  0  0  0  0  0  0  0  0  0  0
    7.0476  -15.2297   23.8861 O   0  0  0  0  0  0  0  0  0  0  0  0
    7.7550  -17.9197   25.0431 C   0  0  0  0  0  0  0  0  0  0  0  0
    9.0001  -17.4652   25.7799 C   0  0  1  0  0  0  0  0  0  0  0  0
   10.0485  -18.2639   25.3873 O   0  0  0  0  0  0  0  0  0  0  0  0
    9.1801  -16.0094   25.5051 C   0  0  2  0  0  0  0  0  0  0  0  0
    9.3053  -15.6541   24.1252 N   0  0  0  0  0  0  0  0  0  0  0  0
   10.1856  -15.3499   26.3843 C   0  0  0  0  0  0  0  0  0  0  0  0
   11.0965  -14.6824   25.8641 O   0  0  0  0  0  0  0  0  0  0  0  0
   10.1420  -15.4531   27.7638 O   0  0  0  0  0  0  0  0  0  0  0  0
  2  1  1  6
  2  7  1  0
  3  2  1  0
  4  3  1  0
  5  6  2  0
  5  4  1  0
  7  8  2  0
  9  5  1  0
 10  7  1  0
 10 11  1  0
 11 14  1  0
 11 12  1  1
 13 12  1  0
 14 20  1  0
 15 14  2  0
 17 18  1  0
 17 16  1  6
 19 17  1  0
 19 20  1  6
 21 23  1  0
 21 19  1  0
 22 21  2  0
M  END
$$$$
