ECT.pdb
     RDKit          3D

 23 22  0  0  1  0  0  0  0  0999 V2000
    8.1573  -14.7909   19.8894 N   0  0  0  0  0  0  0  0  0  0  0  0
    7.3863  -14.8504   21.0925 C   0  0  1  0  0  0  0  0  0  0  0  0
    6.6148  -16.1694   21.0909 C   0  0  0  0  0  0  0  0  0  0  0  0
    6.6022  -16.7921   19.7393 C   0  0  0  0  0  0  0  0  0  0  0  0
    6.7600  -18.2542   19.8677 C   0  0  0  0  0  0  0  0  0  0  0  0
    7.8935  -18.7457   20.0872 O   0  0  0  0  0  0  0  0  0  0  0  0
    8.2648  -14.8841   22.3115 C   0  0  0  0  0  0  0  0  0  0  0  0
    9.4642  -15.2398   22.1720 O   0  0  0  0  0  0  0  0  0  0  0  0
    5.6884  -19.1299   19.7552 O   0  0  0  0  0  0  0  0  0  0  0  0
    7.7846  -14.5302   23.5982 N   0  0  0  0  0  0  0  0  0  0  0  0
    8.7538  -14.5076   24.7082 C   0  0  1  0  0  0  0  0  0  0  0  0
    8.2744  -13.4422   25.6796 C   0  0  0  0  0  0  0  0  0  0  0  0
    6.4958  -13.4650   25.9421 S   0  0  0  0  0  0  0  0  0  0  0  0
    8.7555  -15.8276   25.3878 C   0  0  0  0  0  0  0  0  0  0  0  0
    7.6380  -16.3556   25.6094 O   0  0  0  0  0  0  0  0  0  0  0  0
    9.5557  -19.0023   24.2823 C   0  0  0  0  0  0  0  0  0  0  0  0
   10.4489  -18.8907   25.5027 C   0  0  1  0  0  0  0  0  0  0  0  0
   11.7427  -18.7072   25.0742 O   0  0  0  0  0  0  0  0  0  0  0  0
    9.9074  -17.7945   26.3586 C   0  0  2  0  0  0  0  0  0  0  0  0
    9.9377  -16.4877   25.7777 N   0  0  0  0  0  0  0  0  0  0  0  0
   10.3936  -17.8327   27.7661 C   0  0  0  0  0  0  0  0  0  0  0  0
   10.8664  -16.7988   28.2695 O   0  0  0  0  0  0  0  0  0  0  0  0
   10.3371  -18.9811   28.5365 O   0  0  0  0  0  0  0  0  0  0  0  0
  2  1  1  6
  2  7  1  0
  3  2  1  0
  4  3  1  0
  5  6  2  0
  5  4  1  0
  7  8  2  0
  9  5  1  0
 10  7  1  0
 10 11  1  0
 11 14  1  0
 11 12  1  1
 13 12  1  0
 14 20  1  0
 15 14  2  0
 17 18  1  0
 17 16  1  6
 19 17  1  0
 19 20  1  6
 21 23  1  0
 21 19  1  0
 22 21  2  0
M  END
$$$$
