ECT.pdb
     RDKit          3D

 23 22  0  0  1  0  0  0  0  0999 V2000
    7.9949  -12.7115   19.7417 N   0  0  0  0  0  0  0  0  0  0  0  0
    7.1380  -13.3345   20.7025 C   0  0  1  0  0  0  0  0  0  0  0  0
    6.8673  -14.7634   20.2334 C   0  0  0  0  0  0  0  0  0  0  0  0
    8.1302  -15.4748   19.8958 C   0  0  0  0  0  0  0  0  0  0  0  0
    7.8327  -16.8858   19.5794 C   0  0  0  0  0  0  0  0  0  0  0  0
    7.0696  -17.1666   18.6236 O   0  0  0  0  0  0  0  0  0  0  0  0
    7.8065  -13.4568   22.0430 C   0  0  0  0  0  0  0  0  0  0  0  0
    9.0591  -13.3448   22.0967 O   0  0  0  0  0  0  0  0  0  0  0  0
    8.3706  -17.9395   20.3059 O   0  0  0  0  0  0  0  0  0  0  0  0
    7.0729  -13.6916   23.2339 N   0  0  0  0  0  0  0  0  0  0  0  0
    7.8107  -13.6623   24.5093 C   0  0  1  0  0  0  0  0  0  0  0  0
    6.9093  -12.9659   25.5147 C   0  0  0  0  0  0  0  0  0  0  0  0
    7.5265  -13.0464   27.2016 S   0  0  0  0  0  0  0  0  0  0  0  0
    8.0691  -15.0528   24.9612 C   0  0  0  0  0  0  0  0  0  0  0  0
    7.0803  -15.8240   25.0247 O   0  0  0  0  0  0  0  0  0  0  0  0
    9.7145  -17.8409   23.6212 C   0  0  0  0  0  0  0  0  0  0  0  0
   10.3839  -17.7426   24.9784 C   0  0  1  0  0  0  0  0  0  0  0  0
   11.6821  -17.3300   24.7894 O   0  0  0  0  0  0  0  0  0  0  0  0
    9.5528  -16.8383   25.8263 C   0  0  2  0  0  0  0  0  0  0  0  0
    9.3522  -15.5203   25.3079 N   0  0  0  0  0  0  0  0  0  0  0  0
    9.9179  -16.8620   27.2702 C   0  0  0  0  0  0  0  0  0  0  0  0
   10.1154  -15.7856   27.8604 O   0  0  0  0  0  0  0  0  0  0  0  0
   10.0448  -18.0427   27.9812 O   0  0  0  0  0  0  0  0  0  0  0  0
  2  1  1  6
  2  7  1  0
  3  2  1  0
  4  3  1  0
  5  6  2  0
  5  4  1  0
  7  8  2  0
  9  5  1  0
 10  7  1  0
 10 11  1  0
 11 14  1  0
 11 12  1  1
 13 12  1  0
 14 20  1  0
 15 14  2  0
 17 18  1  0
 17 16  1  6
 19 17  1  0
 19 20  1  6
 21 23  1  0
 21 19  1  0
 22 21  2  0
M  END
$$$$
