ECT.pdb
     RDKit          3D

 23 22  0  0  1  0  0  0  0  0999 V2000
    9.7041  -17.3660   19.5657 N   0  0  0  0  0  0  0  0  0  0  0  0
   10.0145  -17.6795   20.9262 C   0  0  1  0  0  0  0  0  0  0  0  0
   11.4010  -17.1152   21.2333 C   0  0  0  0  0  0  0  0  0  0  0  0
   12.4632  -17.8419   20.4859 C   0  0  0  0  0  0  0  0  0  0  0  0
   13.7797  -17.2531   20.8011 C   0  0  0  0  0  0  0  0  0  0  0  0
   14.3579  -17.5487   21.8750 O   0  0  0  0  0  0  0  0  0  0  0  0
    9.0699  -17.0027   21.8793 C   0  0  0  0  0  0  0  0  0  0  0  0
    8.6024  -15.8791   21.5578 O   0  0  0  0  0  0  0  0  0  0  0  0
   14.4223  -16.3686   19.9453 O   0  0  0  0  0  0  0  0  0  0  0  0
    8.6956  -17.5890   23.1153 N   0  0  0  0  0  0  0  0  0  0  0  0
    7.7608  -16.8394   23.9732 C   0  0  1  0  0  0  0  0  0  0  0  0
    6.8799  -17.8709   24.6577 C   0  0  0  0  0  0  0  0  0  0  0  0
    5.8814  -17.1864   25.9870 S   0  0  0  0  0  0  0  0  0  0  0  0
    8.5276  -16.0892   24.9996 C   0  0  0  0  0  0  0  0  0  0  0  0
    9.6010  -16.6045   25.3983 O   0  0  0  0  0  0  0  0  0  0  0  0
    8.5211  -12.0021   25.6592 C   0  0  0  0  0  0  0  0  0  0  0  0
    8.3559  -12.8286   26.9199 C   0  0  1  0  0  0  0  0  0  0  0  0
    7.0536  -12.7093   27.3455 O   0  0  0  0  0  0  0  0  0  0  0  0
    8.7908  -14.2213   26.6057 C   0  0  2  0  0  0  0  0  0  0  0  0
    8.1018  -14.8520   25.5224 N   0  0  0  0  0  0  0  0  0  0  0  0
    8.9387  -15.0916   27.8056 C   0  0  0  0  0  0  0  0  0  0  0  0
    8.3787  -16.2016   27.8187 O   0  0  0  0  0  0  0  0  0  0  0  0
    9.6802  -14.7083   28.9097 O   0  0  0  0  0  0  0  0  0  0  0  0
  2  1  1  6
  2  7  1  0
  3  2  1  0
  4  3  1  0
  5  6  2  0
  5  4  1  0
  7  8  2  0
  9  5  1  0
 10  7  1  0
 10 11  1  0
 11 14  1  0
 11 12  1  1
 13 12  1  0
 14 20  1  0
 15 14  2  0
 17 18  1  0
 17 16  1  6
 19 17  1  0
 19 20  1  6
 21 23  1  0
 21 19  1  0
 22 21  2  0
M  END
$$$$
