ECT.pdb
     RDKit          3D

 23 22  0  0  1  0  0  0  0  0999 V2000
    9.3119  -17.6027   16.6027 N   0  0  0  0  0  0  0  0  0  0  0  0
    8.2249  -17.0379   17.3411 C   0  0  1  0  0  0  0  0  0  0  0  0
    7.2241  -18.1554   17.6319 C   0  0  0  0  0  0  0  0  0  0  0  0
    7.9088  -19.3952   18.0891 C   0  0  0  0  0  0  0  0  0  0  0  0
    6.9159  -20.4748   18.2559 C   0  0  0  0  0  0  0  0  0  0  0  0
    6.5510  -21.1499   17.2630 O   0  0  0  0  0  0  0  0  0  0  0  0
    8.6739  -16.5232   18.6799 C   0  0  0  0  0  0  0  0  0  0  0  0
    9.8587  -16.7505   19.0390 O   0  0  0  0  0  0  0  0  0  0  0  0
    6.3555  -20.7851   19.4876 O   0  0  0  0  0  0  0  0  0  0  0  0
    7.8092  -15.7970   19.5382 N   0  0  0  0  0  0  0  0  0  0  0  0
    8.4054  -15.1436   20.7170 C   0  0  1  0  0  0  0  0  0  0  0  0
    7.2964  -14.3378   21.3720 C   0  0  0  0  0  0  0  0  0  0  0  0
    7.7371  -13.7080   22.9974 S   0  0  0  0  0  0  0  0  0  0  0  0
    8.8854  -16.1806   21.6650 C   0  0  0  0  0  0  0  0  0  0  0  0
    8.0701  -17.0798   21.9862 O   0  0  0  0  0  0  0  0  0  0  0  0
   11.0879  -18.8294   21.5160 C   0  0  0  0  0  0  0  0  0  0  0  0
   11.6195  -18.1272   22.7505 C   0  0  1  0  0  0  0  0  0  0  0  0
   12.8465  -17.5869   22.4439 O   0  0  0  0  0  0  0  0  0  0  0  0
   10.5882  -17.1406   23.1870 C   0  0  2  0  0  0  0  0  0  0  0  0
   10.1899  -16.1877   22.1974 N   0  0  0  0  0  0  0  0  0  0  0  0
   10.8585  -16.5368   24.5216 C   0  0  0  0  0  0  0  0  0  0  0  0
   10.8833  -15.2983   24.6297 O   0  0  0  0  0  0  0  0  0  0  0  0
   11.0831  -17.3068   25.6495 O   0  0  0  0  0  0  0  0  0  0  0  0
  2  1  1  1
  2  7  1  0
  3  2  1  0
  4  3  1  0
  5  6  2  0
  5  4  1  0
  7  8  2  0
  9  5  1  0
 10  7  1  0
 10 11  1  0
 11 14  1  0
 11 12  1  1
 13 12  1  0
 14 20  1  0
 15 14  2  0
 17 18  1  0
 17 16  1  6
 19 17  1  0
 19 20  1  6
 21 23  1  0
 21 19  1  0
 22 21  2  0
M  END
$$$$
