ECT.pdb
     RDKit          3D

 23 22  0  0  1  0  0  0  0  0999 V2000
    8.5960  -14.4136   20.1516 N   0  0  0  0  0  0  0  0  0  0  0  0
    7.5861  -14.5753   21.1515 C   0  0  1  0  0  0  0  0  0  0  0  0
    7.0806  -16.0156   21.0794 C   0  0  0  0  0  0  0  0  0  0  0  0
    8.2008  -16.9916   21.1661 C   0  0  0  0  0  0  0  0  0  0  0  0
    7.6593  -18.3648   21.1795 C   0  0  0  0  0  0  0  0  0  0  0  0
    8.4313  -19.3417   21.3363 O   0  0  0  0  0  0  0  0  0  0  0  0
    8.1448  -14.3996   22.5356 C   0  0  0  0  0  0  0  0  0  0  0  0
    9.3693  -14.6275   22.7173 O   0  0  0  0  0  0  0  0  0  0  0  0
    6.3057  -18.6313   21.0239 O   0  0  0  0  0  0  0  0  0  0  0  0
    7.3394  -13.9888   23.6283 N   0  0  0  0  0  0  0  0  0  0  0  0
    8.0000  -13.7979   24.9318 C   0  0  1  0  0  0  0  0  0  0  0  0
    7.0464  -12.9778   25.7841 C   0  0  0  0  0  0  0  0  0  0  0  0
    7.6149  -12.7527   27.4749 S   0  0  0  0  0  0  0  0  0  0  0  0
    8.2184  -15.1197   25.5718 C   0  0  0  0  0  0  0  0  0  0  0  0
    7.2078  -15.8462   25.7376 O   0  0  0  0  0  0  0  0  0  0  0  0
    9.7186  -18.0823   24.5832 C   0  0  0  0  0  0  0  0  0  0  0  0
   10.4226  -17.8588   25.9077 C   0  0  1  0  0  0  0  0  0  0  0  0
   11.7338  -17.5345   25.6492 O   0  0  0  0  0  0  0  0  0  0  0  0
    9.6535  -16.8225   26.6574 C   0  0  2  0  0  0  0  0  0  0  0  0
    9.4878  -15.5715   25.9840 N   0  0  0  0  0  0  0  0  0  0  0  0
   10.0621  -16.6828   28.0830 C   0  0  0  0  0  0  0  0  0  0  0  0
   10.2725  -15.5464   28.5418 O   0  0  0  0  0  0  0  0  0  0  0  0
   10.2159  -17.7756   28.9184 O   0  0  0  0  0  0  0  0  0  0  0  0
  2  1  1  6
  2  7  1  0
  3  2  1  0
  4  3  1  0
  5  6  2  0
  5  4  1  0
  7  8  2  0
  9  5  1  0
 10  7  1  0
 10 11  1  0
 11 14  1  0
 11 12  1  1
 13 12  1  0
 14 20  1  0
 15 14  2  0
 17 18  1  0
 17 16  1  6
 19 17  1  0
 19 20  1  6
 21 23  1  0
 21 19  1  0
 22 21  2  0
M  END
$$$$
