ECT.pdb
     RDKit          3D

 23 22  0  0  1  0  0  0  0  0999 V2000
    8.0907  -12.8321   17.4489 N   0  0  0  0  0  0  0  0  0  0  0  0
    7.6326  -13.9231   18.2522 C   0  0  1  0  0  0  0  0  0  0  0  0
    8.0881  -15.2205   17.5856 C   0  0  0  0  0  0  0  0  0  0  0  0
    7.9618  -15.1461   16.1046 C   0  0  0  0  0  0  0  0  0  0  0  0
    8.3597  -16.4372   15.5096 C   0  0  0  0  0  0  0  0  0  0  0  0
    9.3345  -17.0712   15.9815 O   0  0  0  0  0  0  0  0  0  0  0  0
    8.2665  -13.9112   19.6149 C   0  0  0  0  0  0  0  0  0  0  0  0
    9.4348  -13.4558   19.7247 O   0  0  0  0  0  0  0  0  0  0  0  0
    7.6902  -16.9951   14.4288 O   0  0  0  0  0  0  0  0  0  0  0  0
    7.5918  -14.3928   20.7657 N   0  0  0  0  0  0  0  0  0  0  0  0
    8.2889  -14.2920   22.0602 C   0  0  1  0  0  0  0  0  0  0  0  0
    7.2558  -13.8277   23.0729 C   0  0  0  0  0  0  0  0  0  0  0  0
    7.7883  -14.0292   24.7784 S   0  0  0  0  0  0  0  0  0  0  0  0
    8.7950  -15.6314   22.4529 C   0  0  0  0  0  0  0  0  0  0  0  0
    8.0014  -16.5973   22.3347 O   0  0  0  0  0  0  0  0  0  0  0  0
   11.3043  -17.6690   21.0562 C   0  0  0  0  0  0  0  0  0  0  0  0
   11.7085  -17.6763   22.5178 C   0  0  1  0  0  0  0  0  0  0  0  0
   12.8747  -16.9587   22.6457 O   0  0  0  0  0  0  0  0  0  0  0  0
   10.5558  -17.1506   23.3067 C   0  0  2  0  0  0  0  0  0  0  0  0
   10.1006  -15.8459   22.9372 N   0  0  0  0  0  0  0  0  0  0  0  0
   10.6966  -17.3386   24.7777 C   0  0  0  0  0  0  0  0  0  0  0  0
   10.5185  -16.3650   25.5302 O   0  0  0  0  0  0  0  0  0  0  0  0
   11.0187  -18.5620   25.3390 O   0  0  0  0  0  0  0  0  0  0  0  0
  2  1  1  6
  2  7  1  0
  3  2  1  0
  4  3  1  0
  5  6  2  0
  5  4  1  0
  7  8  2  0
  9  5  1  0
 10  7  1  0
 10 11  1  0
 11 14  1  0
 11 12  1  1
 13 12  1  0
 14 20  1  0
 15 14  2  0
 17 18  1  0
 17 16  1  6
 19 17  1  0
 19 20  1  1
 21 23  1  0
 21 19  1  0
 22 21  2  0
M  END
$$$$
