ECT.pdb
     RDKit          3D

 23 22  0  0  1  0  0  0  0  0999 V2000
    9.5033  -16.9401   19.7907 N   0  0  0  0  0  0  0  0  0  0  0  0
    9.5331  -18.0531   20.6885 C   0  0  1  0  0  0  0  0  0  0  0  0
   10.8141  -18.8408   20.4173 C   0  0  0  0  0  0  0  0  0  0  0  0
   10.9434  -20.0045   21.3361 C   0  0  0  0  0  0  0  0  0  0  0  0
   12.1852  -20.7410   21.0284 C   0  0  0  0  0  0  0  0  0  0  0  0
   12.4911  -21.7600   21.6938 O   0  0  0  0  0  0  0  0  0  0  0  0
    9.6153  -17.6062   22.1211 C   0  0  0  0  0  0  0  0  0  0  0  0
   10.3454  -16.6186   22.3963 O   0  0  0  0  0  0  0  0  0  0  0  0
   13.0488  -20.3503   20.0139 O   0  0  0  0  0  0  0  0  0  0  0  0
    8.9008  -18.2592   23.1578 N   0  0  0  0  0  0  0  0  0  0  0  0
    9.0423  -17.7291   24.5256 C   0  0  1  0  0  0  0  0  0  0  0  0
    7.7142  -17.0805   24.8776 C   0  0  0  0  0  0  0  0  0  0  0  0
    6.2961  -18.1365   24.5511 S   0  0  0  0  0  0  0  0  0  0  0  0
    9.3061  -18.8494   25.4634 C   0  0  0  0  0  0  0  0  0  0  0  0
    9.1909  -20.0135   25.0070 O   0  0  0  0  0  0  0  0  0  0  0  0
   11.4628  -20.0177   25.2755 C   0  0  0  0  0  0  0  0  0  0  0  0
   11.8163  -19.8837   26.7442 C   0  0  1  0  0  0  0  0  0  0  0  0
   12.8230  -18.9543   26.8618 O   0  0  0  0  0  0  0  0  0  0  0  0
   10.5619  -19.5500   27.4808 C   0  0  2  0  0  0  0  0  0  0  0  0
    9.6737  -18.6522   26.8093 N   0  0  0  0  0  0  0  0  0  0  0  0
   10.7771  -19.2137   28.9159 C   0  0  0  0  0  0  0  0  0  0  0  0
   10.4048  -18.1052   29.3383 O   0  0  0  0  0  0  0  0  0  0  0  0
   11.3778  -20.0938   29.7992 O   0  0  0  0  0  0  0  0  0  0  0  0
  2  1  1  6
  2  7  1  0
  3  2  1  0
  4  3  1  0
  5  6  2  0
  5  4  1  0
  7  8  2  0
  9  5  1  0
 10  7  1  0
 10 11  1  0
 11 14  1  0
 11 12  1  1
 13 12  1  0
 14 20  1  0
 15 14  2  0
 17 18  1  0
 17 16  1  6
 19 17  1  0
 19 20  1  6
 21 23  1  0
 21 19  1  0
 22 21  2  0
M  END
$$$$
