TYG.pdb
     RDKit          3D

 24 24  0  0  1  0  0  0  0  0999 V2000
    6.2838  -14.1898   18.6450 C   0  0  0  0  0  0  0  0  0  0  0  0
    7.1970  -14.5516   19.7966 C   0  0  1  0  0  0  0  0  0  0  0  0
    8.2279  -15.3537   19.3450 O   0  0  0  0  0  0  0  0  0  0  0  0
    7.6837  -13.3036   20.5020 C   0  0  2  0  0  0  0  0  0  0  0  0
    8.3831  -12.4090   19.6344 N   0  0  0  0  0  0  0  0  0  0  0  0
    8.4200  -13.6239   21.7454 C   0  0  0  0  0  0  0  0  0  0  0  0
    9.6788  -13.5096   21.7011 O   0  0  0  0  0  0  0  0  0  0  0  0
   10.7730  -15.0480   30.1723 O   0  0  0  0  0  0  0  0  0  0  0  0
   10.0503  -14.8517   28.9905 C   0  0  0  0  0  0  0  0  0  0  0  0
    9.4182  -15.9070   28.3707 C   0  0  0  0  0  0  0  0  0  0  0  0
    8.7050  -15.7242   27.2080 C   0  0  0  0  0  0  0  0  0  0  0  0
    8.5881  -14.4862   26.6100 C   0  0  0  0  0  0  0  0  0  0  0  0
    7.8406  -14.2323   25.3827 C   0  0  0  0  0  0  0  0  0  0  0  0
    8.6351  -14.3488   24.1053 C   0  0  2  0  0  0  0  0  0  0  0  0
    7.8184  -14.0370   22.9417 N   0  0  0  0  0  0  0  0  0  0  0  0
    9.2440  -15.6891   23.9723 C   0  0  0  0  0  0  0  0  0  0  0  0
    8.4999  -16.6723   23.7572 O   0  0  0  0  0  0  0  0  0  0  0  0
    9.2225  -13.4359   27.2355 C   0  0  0  0  0  0  0  0  0  0  0  0
    9.9494  -13.6080   28.4154 C   0  0  0  0  0  0  0  0  0  0  0  0
   10.6388  -15.8852   24.0818 N   0  0  0  0  0  0  0  0  0  0  0  0
   11.2035  -17.2111   23.8804 C   0  0  0  0  0  0  0  0  0  0  0  0
   11.6911  -17.7664   25.1621 C   0  0  0  0  0  0  0  0  0  0  0  0
   12.6197  -17.0029   25.8722 O   0  0  0  0  0  0  0  0  0  0  0  0
   11.3393  -18.8530   25.6510 O   0  0  0  0  0  0  0  0  0  0  0  0
  2  1  1  6
  2  3  1  0
  4  6  1  0
  4  2  1  0
  4  5  1  6
  6  7  2  0
  8  9  1  0
  9 10  2  0
 10 11  1  0
 12 11  2  0
 12 13  1  0
 14 13  1  1
 14 16  1  0
 15 14  1  0
 15  6  1  0
 16 17  2  0
 16 20  1  0
 18 12  1  0
 19  9  1  0
 19 18  2  0
 20 21  1  0
 21 22  1  0
 22 23  1  0
 24 22  2  0
M  END
$$$$
