TYG.pdb
     RDKit          3D

 24 24  0  0  1  0  0  0  0  0999 V2000
    8.4686  -16.6133   18.7177 C   0  0  0  0  0  0  0  0  0  0  0  0
    8.7732  -15.2941   18.0408 C   0  0  1  0  0  0  0  0  0  0  0  0
    8.6872  -15.4387   16.6690 O   0  0  0  0  0  0  0  0  0  0  0  0
    7.8747  -14.2005   18.5780 C   0  0  2  0  0  0  0  0  0  0  0  0
    7.8450  -13.0418   17.7423 N   0  0  0  0  0  0  0  0  0  0  0  0
    8.1583  -13.9017   19.9997 C   0  0  0  0  0  0  0  0  0  0  0  0
    9.1220  -13.1155   20.2296 O   0  0  0  0  0  0  0  0  0  0  0  0
    7.1826  -12.4687   28.7084 O   0  0  0  0  0  0  0  0  0  0  0  0
    7.0167  -12.8854   27.3831 C   0  0  0  0  0  0  0  0  0  0  0  0
    6.7595  -11.9700   26.3864 C   0  0  0  0  0  0  0  0  0  0  0  0
    6.5947  -12.3698   25.0799 C   0  0  0  0  0  0  0  0  0  0  0  0
    6.6781  -13.6954   24.7058 C   0  0  0  0  0  0  0  0  0  0  0  0
    6.5188  -14.1758   23.3372 C   0  0  0  0  0  0  0  0  0  0  0  0
    7.7115  -13.9699   22.4362 C   0  0  2  0  0  0  0  0  0  0  0  0
    7.4385  -14.4265   21.0814 N   0  0  0  0  0  0  0  0  0  0  0  0
    8.9152  -14.6342   22.9790 C   0  0  0  0  0  0  0  0  0  0  0  0
    9.4166  -14.2024   24.0413 O   0  0  0  0  0  0  0  0  0  0  0  0
    6.9357  -14.6047   25.7077 C   0  0  0  0  0  0  0  0  0  0  0  0
    7.1048  -14.2121   27.0371 C   0  0  0  0  0  0  0  0  0  0  0  0
    9.5096  -15.7394   22.3300 N   0  0  0  0  0  0  0  0  0  0  0  0
   10.6613  -16.3985   22.9271 C   0  0  0  0  0  0  0  0  0  0  0  0
   11.0944  -17.5409   22.0925 C   0  0  0  0  0  0  0  0  0  0  0  0
   11.7705  -17.2413   20.9082 O   0  0  0  0  0  0  0  0  0  0  0  0
   10.9034  -18.7381   22.3640 O   0  0  0  0  0  0  0  0  0  0  0  0
  2  1  1  1
  2  3  1  0
  4  6  1  0
  4  2  1  0
  4  5  1  6
  6  7  2  0
  8  9  1  0
  9 10  2  0
 10 11  1  0
 12 11  2  0
 12 13  1  0
 14 13  1  1
 14 16  1  0
 15 14  1  0
 15  6  1  0
 16 17  2  0
 16 20  1  0
 18 12  1  0
 19  9  1  0
 19 18  2  0
 20 21  1  0
 21 22  1  0
 22 23  1  0
 24 22  2  0
M  END
$$$$
