TYG.pdb
     RDKit          3D

 24 24  0  0  1  0  0  0  0  0999 V2000
    6.8808  -15.6910   19.4600 C   0  0  0  0  0  0  0  0  0  0  0  0
    7.8985  -14.6630   19.0145 C   0  0  1  0  0  0  0  0  0  0  0  0
    7.5773  -14.1998   17.7525 O   0  0  0  0  0  0  0  0  0  0  0  0
    8.0185  -13.5546   20.0387 C   0  0  2  0  0  0  0  0  0  0  0  0
    8.5873  -12.3584   19.5025 N   0  0  0  0  0  0  0  0  0  0  0  0
    8.6740  -14.0201   21.2815 C   0  0  0  0  0  0  0  0  0  0  0  0
    9.8974  -13.7291   21.4172 O   0  0  0  0  0  0  0  0  0  0  0  0
    6.2102  -10.2887   27.2433 O   0  0  0  0  0  0  0  0  0  0  0  0
    6.5906  -11.4788   26.6137 C   0  0  0  0  0  0  0  0  0  0  0  0
    7.9129  -11.7237   26.3158 C   0  0  0  0  0  0  0  0  0  0  0  0
    8.2972  -12.8911   25.6966 C   0  0  0  0  0  0  0  0  0  0  0  0
    7.3859  -13.8662   25.3463 C   0  0  0  0  0  0  0  0  0  0  0  0
    7.7362  -15.1242   24.6951 C   0  0  0  0  0  0  0  0  0  0  0  0
    8.7152  -15.0108   23.5526 C   0  0  2  0  0  0  0  0  0  0  0  0
    8.0339  -14.7478   22.2936 N   0  0  0  0  0  0  0  0  0  0  0  0
    9.5594  -16.2194   23.4473 C   0  0  0  0  0  0  0  0  0  0  0  0
   10.1657  -16.6237   24.4649 O   0  0  0  0  0  0  0  0  0  0  0  0
    6.0658  -13.6144   25.6475 C   0  0  0  0  0  0  0  0  0  0  0  0
    5.6627  -12.4340   26.2754 C   0  0  0  0  0  0  0  0  0  0  0  0
    9.6973  -16.9252   22.2312 N   0  0  0  0  0  0  0  0  0  0  0  0
   10.5162  -18.1269   22.1781 C   0  0  0  0  0  0  0  0  0  0  0  0
   11.9458  -17.7734   22.0361 C   0  0  0  0  0  0  0  0  0  0  0  0
   12.2697  -16.4155   22.0648 O   0  0  0  0  0  0  0  0  0  0  0  0
   12.8734  -18.5876   21.8943 O   0  0  0  0  0  0  0  0  0  0  0  0
  2  1  1  1
  2  3  1  0
  4  6  1  0
  4  2  1  0
  4  5  1  6
  6  7  2  0
  8  9  1  0
  9 10  2  0
 10 11  1  0
 12 11  2  0
 12 13  1  0
 14 13  1  1
 14 16  1  0
 15 14  1  0
 15  6  1  0
 16 17  2  0
 16 20  1  0
 18 12  1  0
 19  9  1  0
 19 18  2  0
 20 21  1  0
 21 22  1  0
 22 23  1  0
 24 22  2  0
M  END
$$$$
