TYG.pdb
     RDKit          3D

 24 24  0  0  1  0  0  0  0  0999 V2000
    8.7974  -19.0903   19.2239 C   0  0  0  0  0  0  0  0  0  0  0  0
    8.7286  -18.4553   20.5962 C   0  0  1  0  0  0  0  0  0  0  0  0
    9.1494  -19.3586   21.5539 O   0  0  0  0  0  0  0  0  0  0  0  0
    9.5095  -17.1586   20.6222 C   0  0  2  0  0  0  0  0  0  0  0  0
   10.8654  -17.3152   20.1990 N   0  0  0  0  0  0  0  0  0  0  0  0
    9.3675  -16.4546   21.9163 C   0  0  0  0  0  0  0  0  0  0  0  0
   10.3953  -16.4138   22.6522 O   0  0  0  0  0  0  0  0  0  0  0  0
    6.7223  -10.8981   28.3268 O   0  0  0  0  0  0  0  0  0  0  0  0
    6.8073  -11.6837   27.1721 C   0  0  0  0  0  0  0  0  0  0  0  0
    7.8966  -11.5855   26.3348 C   0  0  0  0  0  0  0  0  0  0  0  0
    7.9895  -12.3537   25.1968 C   0  0  0  0  0  0  0  0  0  0  0  0
    7.0053  -13.2528   24.8403 C   0  0  0  0  0  0  0  0  0  0  0  0
    7.0534  -14.0967   23.6509 C   0  0  0  0  0  0  0  0  0  0  0  0
    8.1735  -15.1072   23.6192 C   0  0  2  0  0  0  0  0  0  0  0  0
    8.1883  -15.8443   22.3643 N   0  0  0  0  0  0  0  0  0  0  0  0
    8.0934  -16.0334   24.7683 C   0  0  0  0  0  0  0  0  0  0  0  0
    8.2470  -15.5776   25.9239 O   0  0  0  0  0  0  0  0  0  0  0  0
    5.9194  -13.3456   25.6824 C   0  0  0  0  0  0  0  0  0  0  0  0
    5.8130  -12.5718   26.8400 C   0  0  0  0  0  0  0  0  0  0  0  0
    7.8488  -17.4138   24.5937 N   0  0  0  0  0  0  0  0  0  0  0  0
    7.6509  -18.2686   25.7546 C   0  0  0  0  0  0  0  0  0  0  0  0
    8.9490  -18.5928   26.3862 C   0  0  0  0  0  0  0  0  0  0  0  0
    9.4046  -19.9068   26.2620 O   0  0  0  0  0  0  0  0  0  0  0  0
    9.6592  -17.7900   27.0143 O   0  0  0  0  0  0  0  0  0  0  0  0
  2  1  1  6
  2  3  1  0
  4  6  1  0
  4  2  1  0
  4  5  1  1
  6  7  2  0
  8  9  1  0
  9 10  2  0
 10 11  1  0
 12 11  2  0
 12 13  1  0
 14 13  1  6
 14 16  1  0
 15 14  1  0
 15  6  1  0
 16 17  2  0
 16 20  1  0
 18 12  1  0
 19  9  1  0
 19 18  2  0
 20 21  1  0
 21 22  1  0
 22 23  1  0
 24 22  2  0
M  END
$$$$
