TYG.pdb
     RDKit          3D

 24 24  0  0  1  0  0  0  0  0999 V2000
    7.5307  -16.6440   20.0809 C   0  0  0  0  0  0  0  0  0  0  0  0
    7.8259  -15.2740   19.5091 C   0  0  1  0  0  0  0  0  0  0  0  0
    7.2895  -15.1688   18.2397 O   0  0  0  0  0  0  0  0  0  0  0  0
    7.3412  -14.1898   20.4480 C   0  0  2  0  0  0  0  0  0  0  0  0
    7.1837  -12.9237   19.8046 N   0  0  0  0  0  0  0  0  0  0  0  0
    8.1484  -14.1313   21.6872 C   0  0  0  0  0  0  0  0  0  0  0  0
    9.1656  -13.3800   21.6630 O   0  0  0  0  0  0  0  0  0  0  0  0
   10.6866  -14.7248   30.2118 O   0  0  0  0  0  0  0  0  0  0  0  0
    9.9916  -14.8097   29.0004 C   0  0  0  0  0  0  0  0  0  0  0  0
    9.5466  -13.6714   28.3652 C   0  0  0  0  0  0  0  0  0  0  0  0
    8.8621  -13.7444   27.1735 C   0  0  0  0  0  0  0  0  0  0  0  0
    8.5896  -14.9502   26.5605 C   0  0  0  0  0  0  0  0  0  0  0  0
    7.8748  -15.0875   25.2958 C   0  0  0  0  0  0  0  0  0  0  0  0
    8.6131  -14.5893   24.0779 C   0  0  2  0  0  0  0  0  0  0  0  0
    7.8589  -14.8429   22.8592 N   0  0  0  0  0  0  0  0  0  0  0  0
    9.9640  -15.1826   23.9893 C   0  0  0  0  0  0  0  0  0  0  0  0
   10.8289  -14.8444   24.8285 O   0  0  0  0  0  0  0  0  0  0  0  0
    9.0378  -16.0839   27.2015 C   0  0  0  0  0  0  0  0  0  0  0  0
    9.7333  -16.0236   28.4109 C   0  0  0  0  0  0  0  0  0  0  0  0
   10.3000  -16.1175   22.9847 N   0  0  0  0  0  0  0  0  0  0  0  0
   11.5803  -16.8073   23.0340 C   0  0  0  0  0  0  0  0  0  0  0  0
   11.7251  -17.7137   21.8736 C   0  0  0  0  0  0  0  0  0  0  0  0
   12.8099  -17.4885   21.0239 O   0  0  0  0  0  0  0  0  0  0  0  0
   10.9599  -18.6534   21.6000 O   0  0  0  0  0  0  0  0  0  0  0  0
  2  1  1  1
  2  3  1  0
  4  6  1  0
  4  2  1  0
  4  5  1  6
  6  7  2  0
  8  9  1  0
  9 10  2  0
 10 11  1  0
 12 11  2  0
 12 13  1  0
 14 13  1  1
 14 16  1  0
 15 14  1  0
 15  6  1  0
 16 17  2  0
 16 20  1  0
 18 12  1  0
 19  9  1  0
 19 18  2  0
 20 21  1  0
 21 22  1  0
 22 23  1  0
 24 22  2  0
M  END
$$$$
