TYG.pdb
     RDKit          3D

 24 24  0  0  1  0  0  0  0  0999 V2000
    8.1215  -16.5625   18.8061 C   0  0  0  0  0  0  0  0  0  0  0  0
    8.4144  -15.2824   18.0534 C   0  0  1  0  0  0  0  0  0  0  0  0
    8.1725  -15.4641   16.7048 O   0  0  0  0  0  0  0  0  0  0  0  0
    7.6339  -14.1275   18.6442 C   0  0  2  0  0  0  0  0  0  0  0  0
    7.6372  -12.9671   17.8102 N   0  0  0  0  0  0  0  0  0  0  0  0
    8.0270  -13.8547   20.0448 C   0  0  0  0  0  0  0  0  0  0  0  0
    9.0292  -13.1018   20.2132 O   0  0  0  0  0  0  0  0  0  0  0  0
    8.0410  -12.5426   28.7951 O   0  0  0  0  0  0  0  0  0  0  0  0
    7.7165  -12.9502   27.4966 C   0  0  0  0  0  0  0  0  0  0  0  0
    7.1875  -12.0563   26.5919 C   0  0  0  0  0  0  0  0  0  0  0  0
    6.8650  -12.4473   25.3125 C   0  0  0  0  0  0  0  0  0  0  0  0
    7.0535  -13.7425   24.8753 C   0  0  0  0  0  0  0  0  0  0  0  0
    6.7364  -14.2115   23.5304 C   0  0  0  0  0  0  0  0  0  0  0  0
    7.8327  -14.0358   22.5087 C   0  0  2  0  0  0  0  0  0  0  0  0
    7.3693  -14.3697   21.1700 N   0  0  0  0  0  0  0  0  0  0  0  0
    9.0276  -14.8311   22.8615 C   0  0  0  0  0  0  0  0  0  0  0  0
    9.7949  -14.4055   23.7540 O   0  0  0  0  0  0  0  0  0  0  0  0
    7.5829  -14.6305   25.7854 C   0  0  0  0  0  0  0  0  0  0  0  0
    7.9143  -14.2465   27.0865 C   0  0  0  0  0  0  0  0  0  0  0  0
    9.3223  -16.0538   22.2180 N   0  0  0  0  0  0  0  0  0  0  0  0
   10.5839  -16.7284   22.4839 C   0  0  0  0  0  0  0  0  0  0  0  0
   10.5876  -17.3008   23.8482 C   0  0  0  0  0  0  0  0  0  0  0  0
   10.3660  -18.6748   23.9606 O   0  0  0  0  0  0  0  0  0  0  0  0
   10.7715  -16.6560   24.8940 O   0  0  0  0  0  0  0  0  0  0  0  0
  2  1  1  1
  2  3  1  0
  4  6  1  0
  4  2  1  0
  4  5  1  6
  6  7  2  0
  8  9  1  0
  9 10  2  0
 10 11  1  0
 12 11  2  0
 12 13  1  0
 14 13  1  1
 14 16  1  0
 15 14  1  0
 15  6  1  0
 16 17  2  0
 16 20  1  0
 18 12  1  0
 19  9  1  0
 19 18  2  0
 20 21  1  0
 21 22  1  0
 22 23  1  0
 24 22  2  0
M  END
$$$$
