TYG.pdb
     RDKit          3D

 24 24  0  0  1  0  0  0  0  0999 V2000
    7.4673  -16.1070   19.4243 C   0  0  0  0  0  0  0  0  0  0  0  0
    8.0357  -14.7711   18.9959 C   0  0  1  0  0  0  0  0  0  0  0  0
    7.5007  -14.4019   17.7763 O   0  0  0  0  0  0  0  0  0  0  0  0
    7.8218  -13.7312   20.0751 C   0  0  2  0  0  0  0  0  0  0  0  0
    7.9965  -12.3935   19.6036 N   0  0  0  0  0  0  0  0  0  0  0  0
    8.5973  -14.0371   21.2981 C   0  0  0  0  0  0  0  0  0  0  0  0
    9.7728  -13.5732   21.3516 O   0  0  0  0  0  0  0  0  0  0  0  0
    6.2390  -10.5063   27.2160 O   0  0  0  0  0  0  0  0  0  0  0  0
    6.7192  -11.6754   26.6158 C   0  0  0  0  0  0  0  0  0  0  0  0
    8.0441  -12.0327   26.7354 C   0  0  0  0  0  0  0  0  0  0  0  0
    8.5262  -13.1805   26.1488 C   0  0  0  0  0  0  0  0  0  0  0  0
    7.7143  -14.0235   25.4180 C   0  0  0  0  0  0  0  0  0  0  0  0
    8.1683  -15.2549   24.7803 C   0  0  0  0  0  0  0  0  0  0  0  0
    8.9749  -15.0708   23.5184 C   0  0  2  0  0  0  0  0  0  0  0  0
    8.1172  -14.7932   22.3758 N   0  0  0  0  0  0  0  0  0  0  0  0
    9.8335  -16.2446   23.2543 C   0  0  0  0  0  0  0  0  0  0  0  0
    9.2981  -17.3146   22.8868 O   0  0  0  0  0  0  0  0  0  0  0  0
    6.3908  -13.6598   25.3029 C   0  0  0  0  0  0  0  0  0  0  0  0
    5.8892  -12.4979   25.8931 C   0  0  0  0  0  0  0  0  0  0  0  0
   11.2369  -16.1872   23.4062 N   0  0  0  0  0  0  0  0  0  0  0  0
   12.0625  -17.2947   22.9487 C   0  0  0  0  0  0  0  0  0  0  0  0
   12.3799  -18.2029   24.0728 C   0  0  0  0  0  0  0  0  0  0  0  0
   11.6392  -18.0437   25.2457 O   0  0  0  0  0  0  0  0  0  0  0  0
   13.2493  -19.0900   24.0522 O   0  0  0  0  0  0  0  0  0  0  0  0
  2  1  1  1
  2  3  1  0
  4  6  1  0
  4  2  1  0
  4  5  1  6
  6  7  2  0
  8  9  1  0
  9 10  2  0
 10 11  1  0
 12 11  2  0
 12 13  1  0
 14 13  1  1
 14 16  1  0
 15 14  1  0
 15  6  1  0
 16 17  2  0
 16 20  1  0
 18 12  1  0
 19  9  1  0
 19 18  2  0
 20 21  1  0
 21 22  1  0
 22 23  1  0
 24 22  2  0
M  END
$$$$
