TYG.pdb
     RDKit          3D

 24 24  0  0  1  0  0  0  0  0999 V2000
    6.7777  -14.8956   18.4609 C   0  0  0  0  0  0  0  0  0  0  0  0
    7.6232  -15.0818   19.7024 C   0  0  1  0  0  0  0  0  0  0  0  0
    8.8287  -15.6686   19.3666 O   0  0  0  0  0  0  0  0  0  0  0  0
    7.7888  -13.7676   20.4355 C   0  0  2  0  0  0  0  0  0  0  0  0
    8.2689  -12.7164   19.5950 N   0  0  0  0  0  0  0  0  0  0  0  0
    8.5609  -13.9276   21.6881 C   0  0  0  0  0  0  0  0  0  0  0  0
    9.6360  -13.2674   21.7764 O   0  0  0  0  0  0  0  0  0  0  0  0
    5.7921  -10.2967   27.2655 O   0  0  0  0  0  0  0  0  0  0  0  0
    6.3671  -11.4659   26.7556 C   0  0  0  0  0  0  0  0  0  0  0  0
    5.6041  -12.5960   26.5604 C   0  0  0  0  0  0  0  0  0  0  0  0
    6.1602  -13.7508   26.0594 C   0  0  0  0  0  0  0  0  0  0  0  0
    7.4976  -13.8343   25.7304 C   0  0  0  0  0  0  0  0  0  0  0  0
    8.1393  -15.0284   25.1903 C   0  0  0  0  0  0  0  0  0  0  0  0
    8.9910  -14.8071   23.9646 C   0  0  2  0  0  0  0  0  0  0  0  0
    8.1797  -14.7489   22.7577 N   0  0  0  0  0  0  0  0  0  0  0  0
   10.0357  -15.8456   23.8424 C   0  0  0  0  0  0  0  0  0  0  0  0
   10.8580  -15.9884   24.7751 O   0  0  0  0  0  0  0  0  0  0  0  0
    8.2541  -12.7004   25.9281 C   0  0  0  0  0  0  0  0  0  0  0  0
    7.7021  -11.5224   26.4357 C   0  0  0  0  0  0  0  0  0  0  0  0
   10.1272  -16.6763   22.7033 N   0  0  0  0  0  0  0  0  0  0  0  0
   11.1449  -17.7145   22.6418 C   0  0  0  0  0  0  0  0  0  0  0  0
   10.7929  -18.8384   23.5375 C   0  0  0  0  0  0  0  0  0  0  0  0
   10.7107  -20.1074   22.9611 O   0  0  0  0  0  0  0  0  0  0  0  0
   10.5665  -18.7390   24.7550 O   0  0  0  0  0  0  0  0  0  0  0  0
  2  1  1  6
  2  3  1  0
  4  6  1  0
  4  2  1  0
  4  5  1  6
  6  7  2  0
  8  9  1  0
  9 10  2  0
 10 11  1  0
 12 11  2  0
 12 13  1  0
 14 13  1  1
 14 16  1  0
 15 14  1  0
 15  6  1  0
 16 17  2  0
 16 20  1  0
 18 12  1  0
 19  9  1  0
 19 18  2  0
 20 21  1  0
 21 22  1  0
 22 23  1  0
 24 22  2  0
M  END
$$$$
