TYG.pdb
     RDKit          3D

 24 24  0  0  1  0  0  0  0  0999 V2000
    6.4460  -14.6683   18.2336 C   0  0  0  0  0  0  0  0  0  0  0  0
    7.3076  -14.8675   19.4620 C   0  0  1  0  0  0  0  0  0  0  0  0
    8.4943  -15.4819   19.1093 O   0  0  0  0  0  0  0  0  0  0  0  0
    7.5137  -13.5540   20.1860 C   0  0  2  0  0  0  0  0  0  0  0  0
    8.0039  -12.5175   19.3331 N   0  0  0  0  0  0  0  0  0  0  0  0
    8.3014  -13.7255   21.4273 C   0  0  0  0  0  0  0  0  0  0  0  0
    9.4842  -13.2779   21.4113 O   0  0  0  0  0  0  0  0  0  0  0  0
   10.6336  -14.6618   29.9450 O   0  0  0  0  0  0  0  0  0  0  0  0
    9.9409  -14.6732   28.7294 C   0  0  0  0  0  0  0  0  0  0  0  0
    9.5406  -13.4952   28.1385 C   0  0  0  0  0  0  0  0  0  0  0  0
    8.8588  -13.4958   26.9431 C   0  0  0  0  0  0  0  0  0  0  0  0
    8.5446  -14.6656   26.2822 C   0  0  0  0  0  0  0  0  0  0  0  0
    7.8305  -14.7265   25.0111 C   0  0  0  0  0  0  0  0  0  0  0  0
    8.6492  -14.3810   23.7917 C   0  0  2  0  0  0  0  0  0  0  0  0
    7.8250  -14.3406   22.5928 N   0  0  0  0  0  0  0  0  0  0  0  0
    9.7773  -15.3204   23.6189 C   0  0  0  0  0  0  0  0  0  0  0  0
   10.8877  -15.0297   24.1178 O   0  0  0  0  0  0  0  0  0  0  0  0
    8.9483  -15.8395   26.8789 C   0  0  0  0  0  0  0  0  0  0  0  0
    9.6406  -15.8526   28.0916 C   0  0  0  0  0  0  0  0  0  0  0  0
    9.6319  -16.5323   22.9075 N   0  0  0  0  0  0  0  0  0  0  0  0
   10.7670  -17.4320   22.7667 C   0  0  0  0  0  0  0  0  0  0  0  0
   10.9245  -18.2609   23.9822 C   0  0  0  0  0  0  0  0  0  0  0  0
   11.9557  -19.2023   23.9791 O   0  0  0  0  0  0  0  0  0  0  0  0
   10.2137  -18.1832   24.9981 O   0  0  0  0  0  0  0  0  0  0  0  0
  2  1  1  6
  2  3  1  0
  4  6  1  0
  4  2  1  0
  4  5  1  6
  6  7  2  0
  8  9  1  0
  9 10  2  0
 10 11  1  0
 12 11  2  0
 12 13  1  0
 14 13  1  1
 14 16  1  0
 15 14  1  0
 15  6  1  0
 16 17  2  0
 16 20  1  0
 18 12  1  0
 19  9  1  0
 19 18  2  0
 20 21  1  0
 21 22  1  0
 22 23  1  0
 24 22  2  0
M  END
$$$$
