TYG.pdb
     RDKit          3D

 24 24  0  0  1  0  0  0  0  0999 V2000
    7.1000  -15.0966   18.5281 C   0  0  0  0  0  0  0  0  0  0  0  0
    7.8289  -15.2837   19.8415 C   0  0  1  0  0  0  0  0  0  0  0  0
    9.1249  -15.7016   19.6045 O   0  0  0  0  0  0  0  0  0  0  0  0
    7.7571  -14.0215   20.6743 C   0  0  2  0  0  0  0  0  0  0  0  0
    8.1714  -12.8562   19.9585 N   0  0  0  0  0  0  0  0  0  0  0  0
    8.4275  -14.1853   21.9837 C   0  0  0  0  0  0  0  0  0  0  0  0
    9.4281  -13.4431   22.2020 O   0  0  0  0  0  0  0  0  0  0  0  0
    5.9385  -10.2838   27.2465 O   0  0  0  0  0  0  0  0  0  0  0  0
    6.4111  -11.5204   26.7934 C   0  0  0  0  0  0  0  0  0  0  0  0
    5.5590  -12.4195   26.1911 C   0  0  0  0  0  0  0  0  0  0  0  0
    6.0139  -13.6383   25.7422 C   0  0  0  0  0  0  0  0  0  0  0  0
    7.3343  -14.0176   25.8717 C   0  0  0  0  0  0  0  0  0  0  0  0
    7.8734  -15.2923   25.4093 C   0  0  0  0  0  0  0  0  0  0  0  0
    8.7860  -15.2122   24.2104 C   0  0  2  0  0  0  0  0  0  0  0  0
    8.0283  -15.0935   22.9734 N   0  0  0  0  0  0  0  0  0  0  0  0
    9.7006  -16.3719   24.1536 C   0  0  0  0  0  0  0  0  0  0  0  0
    9.3624  -17.4366   24.7181 O   0  0  0  0  0  0  0  0  0  0  0  0
    8.1802  -13.1134   26.4748 C   0  0  0  0  0  0  0  0  0  0  0  0
    7.7312  -11.8736   26.9346 C   0  0  0  0  0  0  0  0  0  0  0  0
   10.9412  -16.3070   23.4807 N   0  0  0  0  0  0  0  0  0  0  0  0
   11.8234  -17.4642   23.4714 C   0  0  0  0  0  0  0  0  0  0  0  0
   13.0146  -17.2004   22.6344 C   0  0  0  0  0  0  0  0  0  0  0  0
   13.9830  -18.2045   22.5744 O   0  0  0  0  0  0  0  0  0  0  0  0
   13.2170  -16.1605   21.9855 O   0  0  0  0  0  0  0  0  0  0  0  0
  2  1  1  6
  2  3  1  0
  4  6  1  0
  4  2  1  0
  4  5  1  6
  6  7  2  0
  8  9  1  0
  9 10  2  0
 10 11  1  0
 12 11  2  0
 12 13  1  0
 14 13  1  1
 14 16  1  0
 15 14  1  0
 15  6  1  0
 16 17  2  0
 16 20  1  0
 18 12  1  0
 19  9  1  0
 19 18  2  0
 20 21  1  0
 21 22  1  0
 22 23  1  0
 24 22  2  0
M  END
$$$$
