YWN.pdb
     RDKit          3D

 35 37  0  0  1  0  0  0  0  0999 V2000
    7.6197  -13.5999   16.0955 O   0  0  0  0  0  0  0  0  0  0  0  0
    7.7533  -13.6777   17.4630 C   0  0  0  0  0  0  0  0  0  0  0  0
    6.8323  -14.3945   18.1786 C   0  0  0  0  0  0  0  0  0  0  0  0
    6.9716  -14.4713   19.5534 C   0  0  0  0  0  0  0  0  0  0  0  0
    8.0249  -13.8264   20.1419 C   0  0  0  0  0  0  0  0  0  0  0  0
    8.1490  -13.9278   21.6328 C   0  0  0  0  0  0  0  0  0  0  0  0
    9.1667  -14.9820   21.9114 C   0  0  2  0  0  0  0  0  0  0  0  0
    8.7528  -16.3031   21.4945 N   0  0  0  0  0  0  0  0  0  0  0  0
    9.5577  -15.0305   23.3394 C   0  0  0  0  0  0  0  0  0  0  0  0
   10.0817  -14.0509   23.9379 O   0  0  0  0  0  0  0  0  0  0  0  0
    8.9576  -13.1034   19.4456 C   0  0  0  0  0  0  0  0  0  0  0  0
    8.8163  -13.0290   18.0754 C   0  0  0  0  0  0  0  0  0  0  0  0
    9.3515  -16.2186   24.1121 N   0  0  0  0  0  0  0  0  0  0  0  0
    9.8129  -16.2479   25.5233 C   0  0  1  0  0  0  0  0  0  0  0  0
    8.6332  -16.5096   26.4147 C   0  0  0  0  0  0  0  0  0  0  0  0
    7.4973  -15.5951   26.2554 C   0  0  0  0  0  0  0  0  0  0  0  0
    6.2196  -15.7825   25.7762 C   0  0  0  0  0  0  0  0  0  0  0  0
    5.5360  -14.6314   25.8060 N   0  0  0  0  0  0  0  0  0  0  0  0
    6.3283  -13.6683   26.2964 C   0  0  0  0  0  0  0  0  0  0  0  0
    6.0677  -12.3109   26.5186 C   0  0  0  0  0  0  0  0  0  0  0  0
    7.0588  -11.5221   27.0376 C   0  0  0  0  0  0  0  0  0  0  0  0
    8.2970  -12.0961   27.3276 C   0  0  0  0  0  0  0  0  0  0  0  0
    8.5444  -13.4225   27.1085 C   0  0  0  0  0  0  0  0  0  0  0  0
    7.5415  -14.2358   26.5806 C   0  0  0  0  0  0  0  0  0  0  0  0
   10.8047  -17.3316   25.5855 C   0  0  0  0  0  0  0  0  0  0  0  0
   11.2992  -17.6997   26.6742 O   0  0  0  0  0  0  0  0  0  0  0  0
   12.0291  -17.7801   22.1904 N   0  0  0  0  0  0  0  0  0  0  0  0
   12.1059  -19.1917   22.1412 C   0  0  0  0  0  0  0  0  0  0  0  0
   12.0959  -19.7875   21.0486 O   0  0  0  0  0  0  0  0  0  0  0  0
   12.2021  -19.9551   23.4019 C   0  0  0  0  0  0  0  0  0  0  0  0
   12.3126  -19.0032   24.5995 C   0  0  2  0  0  0  0  0  0  0  0  0
   11.2516  -18.0249   24.4040 N   0  0  0  0  0  0  0  0  0  0  0  0
   13.6656  -18.4180   24.5135 C   0  0  0  0  0  0  0  0  0  0  0  0
   13.8345  -17.0696   24.3338 O   0  0  0  0  0  0  0  0  0  0  0  0
   14.6749  -19.1488   24.6026 O   0  0  0  0  0  0  0  0  0  0  0  0
  2  3  2  0
  2  1  1  0
  4  3  1  0
  5  4  2  0
  6  7  1  0
  6  5  1  0
  7  8  1  1
  9  7  1  0
  9 10  2  0
 11  5  1  0
 11 12  2  0
 12  2  1  0
 13  9  1  0
 14 13  1  0
 14 25  1  0
 15 16  1  0
 14 15  1  1
 16 24  1  0
 17 18  1  0
 17 16  2  0
 18 19  1  0
 19 24  2  0
 19 20  1  0
 20 21  2  0
 21 22  1  0
 23 22  2  0
 24 23  1  0
 25 32  1  0
 26 25  2  0
 28 27  1  0
 29 28  2  0
 30 28  1  0
 31 30  1  6
 32 31  1  0
 33 31  1  0
 34 33  1  0
 35 33  2  0
M  END
$$$$
