YWN.pdb
     RDKit          3D

 35 37  0  0  1  0  0  0  0  0999 V2000
    7.4337  -13.8802   16.0855 O   0  0  0  0  0  0  0  0  0  0  0  0
    7.5842  -13.9519   17.4515 C   0  0  0  0  0  0  0  0  0  0  0  0
    8.4455  -13.0854   18.0692 C   0  0  0  0  0  0  0  0  0  0  0  0
    8.5924  -13.1600   19.4433 C   0  0  0  0  0  0  0  0  0  0  0  0
    7.8704  -14.0982   20.1291 C   0  0  0  0  0  0  0  0  0  0  0  0
    8.0510  -14.1547   21.6166 C   0  0  0  0  0  0  0  0  0  0  0  0
    9.1968  -15.0730   21.8786 C   0  0  2  0  0  0  0  0  0  0  0  0
    8.9703  -16.4213   21.4084 N   0  0  0  0  0  0  0  0  0  0  0  0
    9.5696  -15.1212   23.3115 C   0  0  0  0  0  0  0  0  0  0  0  0
   10.1060  -14.1490   23.9110 O   0  0  0  0  0  0  0  0  0  0  0  0
    7.0036  -14.9752   19.5316 C   0  0  0  0  0  0  0  0  0  0  0  0
    6.8590  -14.8982   18.1619 C   0  0  0  0  0  0  0  0  0  0  0  0
    9.3300  -16.3006   24.0880 N   0  0  0  0  0  0  0  0  0  0  0  0
    9.7687  -16.3290   25.5066 C   0  0  1  0  0  0  0  0  0  0  0  0
    8.5754  -16.5942   26.3786 C   0  0  0  0  0  0  0  0  0  0  0  0
    7.4985  -15.6006   26.3066 C   0  0  0  0  0  0  0  0  0  0  0  0
    6.1613  -15.7076   25.9937 C   0  0  0  0  0  0  0  0  0  0  0  0
    5.5726  -14.5058   26.0424 N   0  0  0  0  0  0  0  0  0  0  0  0
    6.4874  -13.5875   26.3822 C   0  0  0  0  0  0  0  0  0  0  0  0
    6.3561  -12.2051   26.5603 C   0  0  0  0  0  0  0  0  0  0  0  0
    7.4584  -11.4748   26.9142 C   0  0  0  0  0  0  0  0  0  0  0  0
    8.6775  -12.1315   27.0854 C   0  0  0  0  0  0  0  0  0  0  0  0
    8.7984  -13.4817   26.9104 C   0  0  0  0  0  0  0  0  0  0  0  0
    7.6815  -14.2359   26.5503 C   0  0  0  0  0  0  0  0  0  0  0  0
   10.7622  -17.4101   25.5846 C   0  0  0  0  0  0  0  0  0  0  0  0
   11.0903  -17.9148   26.6813 O   0  0  0  0  0  0  0  0  0  0  0  0
    9.9939  -19.8898   23.8507 N   0  0  0  0  0  0  0  0  0  0  0  0
   11.0825  -20.2939   23.0431 C   0  0  0  0  0  0  0  0  0  0  0  0
   10.9024  -21.0525   22.0730 O   0  0  0  0  0  0  0  0  0  0  0  0
   12.4391  -19.8033   23.3597 C   0  0  0  0  0  0  0  0  0  0  0  0
   12.4201  -18.9591   24.6402 C   0  0  2  0  0  0  0  0  0  0  0  0
   11.4014  -17.9444   24.4089 N   0  0  0  0  0  0  0  0  0  0  0  0
   13.7809  -18.3990   24.7625 C   0  0  0  0  0  0  0  0  0  0  0  0
   14.8514  -19.2132   25.0274 O   0  0  0  0  0  0  0  0  0  0  0  0
   13.9717  -17.1719   24.6266 O   0  0  0  0  0  0  0  0  0  0  0  0
  2  3  2  0
  2  1  1  0
  4  3  1  0
  5  4  2  0
  6  7  1  0
  6  5  1  0
  7  8  1  1
  9  7  1  0
  9 10  2  0
 11  5  1  0
 11 12  2  0
 12  2  1  0
 13  9  1  0
 14 13  1  0
 14 25  1  0
 15 16  1  0
 14 15  1  1
 16 24  1  0
 17 18  1  0
 17 16  2  0
 18 19  1  0
 19 24  2  0
 19 20  1  0
 20 21  2  0
 21 22  1  0
 23 22  2  0
 24 23  1  0
 25 32  1  0
 26 25  2  0
 28 27  1  0
 29 28  2  0
 30 28  1  0
 31 30  1  6
 32 31  1  0
 33 31  1  0
 34 33  1  0
 35 33  2  0
M  END
$$$$
