YWN.pdb
     RDKit          3D

 35 37  0  0  1  0  0  0  0  0999 V2000
    6.7509  -14.9919   16.1819 O   0  0  0  0  0  0  0  0  0  0  0  0
    7.8603  -14.8089   16.9754 C   0  0  0  0  0  0  0  0  0  0  0  0
    8.6741  -15.8792   17.2327 C   0  0  0  0  0  0  0  0  0  0  0  0
    9.7896  -15.6901   18.0299 C   0  0  0  0  0  0  0  0  0  0  0  0
   10.0333  -14.4399   18.5292 C   0  0  0  0  0  0  0  0  0  0  0  0
   11.2492  -14.2665   19.3895 C   0  0  0  0  0  0  0  0  0  0  0  0
   11.2354  -15.3757   20.3865 C   0  0  2  0  0  0  0  0  0  0  0  0
   10.4968  -16.5367   19.9427 N   0  0  0  0  0  0  0  0  0  0  0  0
   10.7103  -14.9483   21.7041 C   0  0  0  0  0  0  0  0  0  0  0  0
   11.2388  -14.0257   22.3836 O   0  0  0  0  0  0  0  0  0  0  0  0
    9.2324  -13.3553   18.2850 C   0  0  0  0  0  0  0  0  0  0  0  0
    8.1216  -13.5468   17.4899 C   0  0  0  0  0  0  0  0  0  0  0  0
    9.5567  -15.5812   22.2696 N   0  0  0  0  0  0  0  0  0  0  0  0
    9.1382  -15.2156   23.6467 C   0  0  1  0  0  0  0  0  0  0  0  0
    7.6469  -15.0420   23.6712 C   0  0  0  0  0  0  0  0  0  0  0  0
    7.0504  -14.8302   24.9945 C   0  0  0  0  0  0  0  0  0  0  0  0
    6.2403  -15.6196   25.7806 C   0  0  0  0  0  0  0  0  0  0  0  0
    5.9285  -14.9833   26.9168 N   0  0  0  0  0  0  0  0  0  0  0  0
    6.5127  -13.7773   26.9137 C   0  0  0  0  0  0  0  0  0  0  0  0
    6.4839  -12.7577   27.8725 C   0  0  0  0  0  0  0  0  0  0  0  0
    7.1749  -11.6010   27.6309 C   0  0  0  0  0  0  0  0  0  0  0  0
    7.8851  -11.4752   26.4365 C   0  0  0  0  0  0  0  0  0  0  0  0
    7.9092  -12.4751   25.5048 C   0  0  0  0  0  0  0  0  0  0  0  0
    7.2091  -13.6584   25.7409 C   0  0  0  0  0  0  0  0  0  0  0  0
    9.5794  -16.3316   24.4962 C   0  0  0  0  0  0  0  0  0  0  0  0
    9.3118  -16.3651   25.7179 O   0  0  0  0  0  0  0  0  0  0  0  0
   11.3813  -22.0192   24.5753 N   0  0  0  0  0  0  0  0  0  0  0  0
   10.6488  -20.9401   25.1228 C   0  0  0  0  0  0  0  0  0  0  0  0
   10.3078  -20.9503   26.3197 O   0  0  0  0  0  0  0  0  0  0  0  0
   10.2941  -19.7952   24.2599 C   0  0  0  0  0  0  0  0  0  0  0  0
   10.7041  -18.4746   24.9236 C   0  0  2  0  0  0  0  0  0  0  0  0
   10.3335  -17.4400   23.9680 N   0  0  0  0  0  0  0  0  0  0  0  0
   12.1622  -18.5760   25.1338 C   0  0  0  0  0  0  0  0  0  0  0  0
   12.6689  -19.2827   26.1934 O   0  0  0  0  0  0  0  0  0  0  0  0
   12.9528  -18.0153   24.3456 O   0  0  0  0  0  0  0  0  0  0  0  0
  2  3  2  0
  2  1  1  0
  4  3  1  0
  5  4  2  0
  6  7  1  0
  6  5  1  0
  7  8  1  6
  9  7  1  0
  9 10  2  0
 11  5  1  0
 11 12  2  0
 12  2  1  0
 13  9  1  0
 14 13  1  0
 14 25  1  0
 15 16  1  0
 14 15  1  6
 16 24  1  0
 17 18  1  0
 17 16  2  0
 18 19  1  0
 19 24  2  0
 19 20  1  0
 20 21  2  0
 21 22  1  0
 23 22  2  0
 24 23  1  0
 25 32  1  0
 26 25  2  0
 28 27  1  0
 29 28  2  0
 30 28  1  0
 31 30  1  6
 32 31  1  0
 33 31  1  0
 34 33  1  0
 35 33  2  0
M  END
$$$$
