YWN.pdb
     RDKit          3D

 35 37  0  0  1  0  0  0  0  0999 V2000
    5.8748  -12.9844   18.1719 O   0  0  0  0  0  0  0  0  0  0  0  0
    7.1206  -13.5463   18.3331 C   0  0  0  0  0  0  0  0  0  0  0  0
    8.1550  -12.7541   18.7535 C   0  0  0  0  0  0  0  0  0  0  0  0
    9.4058  -13.3239   18.9158 C   0  0  0  0  0  0  0  0  0  0  0  0
    9.5577  -14.6570   18.6485 C   0  0  0  0  0  0  0  0  0  0  0  0
   10.9245  -15.2455   18.8335 C   0  0  0  0  0  0  0  0  0  0  0  0
   10.7998  -16.3118   19.8689 C   0  0  2  0  0  0  0  0  0  0  0  0
    9.8222  -17.3235   19.5354 N   0  0  0  0  0  0  0  0  0  0  0  0
   10.4872  -15.7668   21.2104 C   0  0  0  0  0  0  0  0  0  0  0  0
   11.2252  -14.9271   21.7957 O   0  0  0  0  0  0  0  0  0  0  0  0
    8.5371  -15.4681   18.2265 C   0  0  0  0  0  0  0  0  0  0  0  0
    7.2916  -14.8974   18.0660 C   0  0  0  0  0  0  0  0  0  0  0  0
    9.3086  -16.1825   21.9099 N   0  0  0  0  0  0  0  0  0  0  0  0
    9.0983  -15.7174   23.3045 C   0  0  1  0  0  0  0  0  0  0  0  0
    7.6477  -15.3762   23.4891 C   0  0  0  0  0  0  0  0  0  0  0  0
    7.2179  -15.1419   24.8720 C   0  0  0  0  0  0  0  0  0  0  0  0
    6.6081  -15.9558   25.8011 C   0  0  0  0  0  0  0  0  0  0  0  0
    6.3896  -15.2840   26.9387 N   0  0  0  0  0  0  0  0  0  0  0  0
    6.8402  -14.0301   26.7960 C   0  0  0  0  0  0  0  0  0  0  0  0
    6.8368  -12.9612   27.7001 C   0  0  0  0  0  0  0  0  0  0  0  0
    7.3654  -11.7606   27.3089 C   0  0  0  0  0  0  0  0  0  0  0  0
    7.8898  -11.6406   26.0215 C   0  0  0  0  0  0  0  0  0  0  0  0
    7.8902  -12.6887   25.1441 C   0  0  0  0  0  0  0  0  0  0  0  0
    7.3547  -13.9169   25.5323 C   0  0  0  0  0  0  0  0  0  0  0  0
    9.5151  -16.8413   24.1560 C   0  0  0  0  0  0  0  0  0  0  0  0
    9.0807  -17.9989   23.9648 O   0  0  0  0  0  0  0  0  0  0  0  0
   12.7500  -19.6757   24.4829 N   0  0  0  0  0  0  0  0  0  0  0  0
   12.8085  -18.3251   24.8991 C   0  0  0  0  0  0  0  0  0  0  0  0
   13.3554  -17.4663   24.1834 O   0  0  0  0  0  0  0  0  0  0  0  0
   12.2094  -17.9407   26.1932 C   0  0  0  0  0  0  0  0  0  0  0  0
   10.6835  -17.8442   26.0715 C   0  0  2  0  0  0  0  0  0  0  0  0
   10.4436  -16.6697   25.2445 N   0  0  0  0  0  0  0  0  0  0  0  0
   10.1873  -17.6925   27.4540 C   0  0  0  0  0  0  0  0  0  0  0  0
    9.5479  -16.5450   27.8459 O   0  0  0  0  0  0  0  0  0  0  0  0
   10.3468  -18.6115   28.2850 O   0  0  0  0  0  0  0  0  0  0  0  0
  2  3  2  0
  2  1  1  0
  4  3  1  0
  5  4  2  0
  6  7  1  0
  6  5  1  0
  7  8  1  6
  9  7  1  0
  9 10  2  0
 11  5  1  0
 11 12  2  0
 12  2  1  0
 13  9  1  0
 14 13  1  0
 14 25  1  0
 15 16  1  0
 14 15  1  6
 16 24  1  0
 17 18  1  0
 17 16  2  0
 18 19  1  0
 19 24  2  0
 19 20  1  0
 20 21  2  0
 21 22  1  0
 23 22  2  0
 24 23  1  0
 25 32  1  0
 26 25  2  0
 28 27  1  0
 29 28  2  0
 30 28  1  0
 31 30  1  1
 32 31  1  0
 33 31  1  0
 34 33  1  0
 35 33  2  0
M  END
$$$$
