YWN.pdb
     RDKit          3D

 35 37  0  0  1  0  0  0  0  0999 V2000
    9.7848  -18.5555   14.5926 O   0  0  0  0  0  0  0  0  0  0  0  0
   10.0665  -18.3609   15.9255 C   0  0  0  0  0  0  0  0  0  0  0  0
    9.0997  -18.6390   16.8540 C   0  0  0  0  0  0  0  0  0  0  0  0
    9.3879  -18.4434   18.1934 C   0  0  0  0  0  0  0  0  0  0  0  0
   10.6286  -17.9790   18.5352 C   0  0  0  0  0  0  0  0  0  0  0  0
   10.9109  -17.7770   19.9940 C   0  0  0  0  0  0  0  0  0  0  0  0
   10.0602  -16.6381   20.4456 C   0  0  2  0  0  0  0  0  0  0  0  0
   10.2755  -15.4257   19.6879 N   0  0  0  0  0  0  0  0  0  0  0  0
   10.2296  -16.3394   21.8866 C   0  0  0  0  0  0  0  0  0  0  0  0
   11.1089  -15.5453   22.3209 O   0  0  0  0  0  0  0  0  0  0  0  0
   11.6106  -17.6939   17.6230 C   0  0  0  0  0  0  0  0  0  0  0  0
   11.3204  -17.8902   16.2889 C   0  0  0  0  0  0  0  0  0  0  0  0
    9.3826  -16.9553   22.8635 N   0  0  0  0  0  0  0  0  0  0  0  0
    9.6188  -16.6710   24.3019 C   0  0  1  0  0  0  0  0  0  0  0  0
    8.2980  -16.6487   25.0158 C   0  0  0  0  0  0  0  0  0  0  0  0
    7.4257  -15.5097   24.7094 C   0  0  0  0  0  0  0  0  0  0  0  0
    6.4418  -15.3270   23.7628 C   0  0  0  0  0  0  0  0  0  0  0  0
    5.9275  -14.0942   23.8556 N   0  0  0  0  0  0  0  0  0  0  0  0
    6.5459  -13.4391   24.8477 C   0  0  0  0  0  0  0  0  0  0  0  0
    6.3582  -12.1359   25.3236 C   0  0  0  0  0  0  0  0  0  0  0  0
    7.1276  -11.6940   26.3660 C   0  0  0  0  0  0  0  0  0  0  0  0
    8.0744  -12.5561   26.9201 C   0  0  0  0  0  0  0  0  0  0  0  0
    8.2519  -13.8275   26.4506 C   0  0  0  0  0  0  0  0  0  0  0  0
    7.4730  -14.2886   25.3892 C   0  0  0  0  0  0  0  0  0  0  0  0
   10.4858  -17.7597   24.7760 C   0  0  0  0  0  0  0  0  0  0  0  0
   10.8704  -18.6678   24.0061 O   0  0  0  0  0  0  0  0  0  0  0  0
   14.1397  -20.4384   26.6413 N   0  0  0  0  0  0  0  0  0  0  0  0
   14.3492  -19.2469   25.9083 C   0  0  0  0  0  0  0  0  0  0  0  0
   15.4659  -18.9927   25.4210 O   0  0  0  0  0  0  0  0  0  0  0  0
   13.2266  -18.3054   25.7222 C   0  0  0  0  0  0  0  0  0  0  0  0
   11.9656  -18.8277   26.4221 C   0  0  2  0  0  0  0  0  0  0  0  0
   10.9386  -17.8338   26.1420 N   0  0  0  0  0  0  0  0  0  0  0  0
   12.3168  -18.9127   27.8539 C   0  0  0  0  0  0  0  0  0  0  0  0
   11.7905  -18.0260   28.7571 O   0  0  0  0  0  0  0  0  0  0  0  0
   13.1015  -19.7964   28.2587 O   0  0  0  0  0  0  0  0  0  0  0  0
  2  3  2  0
  2  1  1  0
  4  3  1  0
  5  4  2  0
  6  7  1  0
  6  5  1  0
  7  8  1  6
  9  7  1  0
  9 10  2  0
 11  5  1  0
 11 12  2  0
 12  2  1  0
 13  9  1  0
 14 13  1  0
 14 25  1  0
 15 16  1  0
 14 15  1  1
 16 24  1  0
 17 18  1  0
 17 16  2  0
 18 19  1  0
 19 24  2  0
 19 20  1  0
 20 21  2  0
 21 22  1  0
 23 22  2  0
 24 23  1  0
 25 32  1  0
 26 25  2  0
 28 27  1  0
 29 28  2  0
 30 28  1  0
 31 30  1  6
 32 31  1  0
 33 31  1  0
 34 33  1  0
 35 33  2  0
M  END
$$$$
