YWN.pdb
     RDKit          3D

 35 37  0  0  1  0  0  0  0  0999 V2000
    6.2290  -13.4446   17.6371 O   0  0  0  0  0  0  0  0  0  0  0  0
    7.4539  -13.9236   18.0421 C   0  0  0  0  0  0  0  0  0  0  0  0
    7.9245  -15.0863   17.4938 C   0  0  0  0  0  0  0  0  0  0  0  0
    9.1576  -15.5633   17.9029 C   0  0  0  0  0  0  0  0  0  0  0  0
    9.8564  -14.8528   18.8402 C   0  0  0  0  0  0  0  0  0  0  0  0
   11.1890  -15.3949   19.2634 C   0  0  0  0  0  0  0  0  0  0  0  0
   10.9243  -16.4277   20.3064 C   0  0  2  0  0  0  0  0  0  0  0  0
    9.8822  -17.3601   19.9390 N   0  0  0  0  0  0  0  0  0  0  0  0
   10.5938  -15.8336   21.6226 C   0  0  0  0  0  0  0  0  0  0  0  0
   11.3724  -15.0510   22.2339 O   0  0  0  0  0  0  0  0  0  0  0  0
    9.4046  -13.6877   19.4023 C   0  0  0  0  0  0  0  0  0  0  0  0
    8.1755  -13.2146   18.9923 C   0  0  0  0  0  0  0  0  0  0  0  0
    9.3496  -16.1325   22.2658 N   0  0  0  0  0  0  0  0  0  0  0  0
    8.9727  -15.3785   23.4885 C   0  0  1  0  0  0  0  0  0  0  0  0
    7.4801  -15.4241   23.6463 C   0  0  0  0  0  0  0  0  0  0  0  0
    6.9509  -14.8418   24.8844 C   0  0  0  0  0  0  0  0  0  0  0  0
    6.2197  -15.3798   25.9204 C   0  0  0  0  0  0  0  0  0  0  0  0
    5.9465  -14.4416   26.8359 N   0  0  0  0  0  0  0  0  0  0  0  0
    6.4793  -13.2782   26.4380 C   0  0  0  0  0  0  0  0  0  0  0  0
    6.4626  -12.0204   27.0525 C   0  0  0  0  0  0  0  0  0  0  0  0
    7.0906  -10.9727   26.4348 C   0  0  0  0  0  0  0  0  0  0  0  0
    7.7265  -11.1917   25.2123 C   0  0  0  0  0  0  0  0  0  0  0  0
    7.7392  -12.4227   24.6182 C   0  0  0  0  0  0  0  0  0  0  0  0
    7.1030  -13.4977   25.2391 C   0  0  0  0  0  0  0  0  0  0  0  0
    9.6669  -16.0570   24.5929 C   0  0  0  0  0  0  0  0  0  0  0  0
    9.8454  -15.4915   25.6946 O   0  0  0  0  0  0  0  0  0  0  0  0
    8.8510  -20.0146   28.2189 N   0  0  0  0  0  0  0  0  0  0  0  0
    9.6678  -18.9418   27.7913 C   0  0  0  0  0  0  0  0  0  0  0  0
   10.6469  -18.5830   28.4707 O   0  0  0  0  0  0  0  0  0  0  0  0
    9.3499  -18.2511   26.5251 C   0  0  0  0  0  0  0  0  0  0  0  0
   10.6227  -18.0334   25.6974 C   0  0  2  0  0  0  0  0  0  0  0  0
   10.1696  -17.4014   24.4661 N   0  0  0  0  0  0  0  0  0  0  0  0
   11.1889  -19.3806   25.4847 C   0  0  0  0  0  0  0  0  0  0  0  0
   11.8097  -20.0482   26.5084 O   0  0  0  0  0  0  0  0  0  0  0  0
   11.1091  -19.9278   24.3646 O   0  0  0  0  0  0  0  0  0  0  0  0
  2  3  2  0
  2  1  1  0
  4  3  1  0
  5  4  2  0
  6  7  1  0
  6  5  1  0
  7  8  1  6
  9  7  1  0
  9 10  2  0
 11  5  1  0
 11 12  2  0
 12  2  1  0
 13  9  1  0
 14 13  1  0
 14 25  1  0
 15 16  1  0
 14 15  1  1
 16 24  1  0
 17 18  1  0
 17 16  2  0
 18 19  1  0
 19 24  2  0
 19 20  1  0
 20 21  2  0
 21 22  1  0
 23 22  2  0
 24 23  1  0
 25 32  1  0
 26 25  2  0
 28 27  1  0
 29 28  2  0
 30 28  1  0
 31 30  1  1
 32 31  1  0
 33 31  1  0
 34 33  1  0
 35 33  2  0
M  END
$$$$
