YWN.pdb
     RDKit          3D

 35 37  0  0  1  0  0  0  0  0999 V2000
    7.2999  -13.3430   15.8352 O   0  0  0  0  0  0  0  0  0  0  0  0
    7.4724  -13.4861   17.1930 C   0  0  0  0  0  0  0  0  0  0  0  0
    8.4502  -12.7586   17.8166 C   0  0  0  0  0  0  0  0  0  0  0  0
    8.6190  -12.9045   19.1825 C   0  0  0  0  0  0  0  0  0  0  0  0
    7.8012  -13.7713   19.8544 C   0  0  0  0  0  0  0  0  0  0  0  0
    8.0083  -13.9080   21.3333 C   0  0  0  0  0  0  0  0  0  0  0  0
    8.9739  -15.0270   21.5332 C   0  0  2  0  0  0  0  0  0  0  0  0
    8.4680  -16.3071   21.0906 N   0  0  0  0  0  0  0  0  0  0  0  0
    9.4190  -15.1482   22.9409 C   0  0  0  0  0  0  0  0  0  0  0  0
   10.1085  -14.2628   23.5181 O   0  0  0  0  0  0  0  0  0  0  0  0
    6.8170  -14.5093   19.2508 C   0  0  0  0  0  0  0  0  0  0  0  0
    6.6510  -14.3615   17.8894 C   0  0  0  0  0  0  0  0  0  0  0  0
    9.0759  -16.3016   23.7175 N   0  0  0  0  0  0  0  0  0  0  0  0
    9.6504  -16.4488   25.0790 C   0  0  1  0  0  0  0  0  0  0  0  0
    8.5285  -16.5197   26.0745 C   0  0  0  0  0  0  0  0  0  0  0  0
    7.4510  -15.5409   25.8929 C   0  0  0  0  0  0  0  0  0  0  0  0
    6.1868  -15.6464   25.3562 C   0  0  0  0  0  0  0  0  0  0  0  0
    5.5652  -14.4608   25.3886 N   0  0  0  0  0  0  0  0  0  0  0  0
    6.3861  -13.5547   25.9371 C   0  0  0  0  0  0  0  0  0  0  0  0
    6.1892  -12.1910   26.1847 C   0  0  0  0  0  0  0  0  0  0  0  0
    7.1979  -11.4705   26.7654 C   0  0  0  0  0  0  0  0  0  0  0  0
    8.3900  -12.1182   27.0910 C   0  0  0  0  0  0  0  0  0  0  0  0
    8.5752  -13.4503   26.8468 C   0  0  0  0  0  0  0  0  0  0  0  0
    7.5539  -14.1944   26.2560 C   0  0  0  0  0  0  0  0  0  0  0  0
   10.4333  -17.6928   25.0382 C   0  0  0  0  0  0  0  0  0  0  0  0
   10.4387  -18.4254   24.0240 O   0  0  0  0  0  0  0  0  0  0  0  0
   14.2054  -20.3161   23.5067 N   0  0  0  0  0  0  0  0  0  0  0  0
   14.3265  -19.4595   24.6258 C   0  0  0  0  0  0  0  0  0  0  0  0
   15.3440  -19.4949   25.3416 O   0  0  0  0  0  0  0  0  0  0  0  0
   13.2330  -18.5167   24.9366 C   0  0  0  0  0  0  0  0  0  0  0  0
   12.2103  -19.1702   25.8744 C   0  0  2  0  0  0  0  0  0  0  0  0
   11.2337  -18.1269   26.1549 N   0  0  0  0  0  0  0  0  0  0  0  0
   12.9775  -19.5836   27.0665 C   0  0  0  0  0  0  0  0  0  0  0  0
   13.2137  -18.7000   28.0876 O   0  0  0  0  0  0  0  0  0  0  0  0
   13.4224  -20.7474   27.1569 O   0  0  0  0  0  0  0  0  0  0  0  0
  2  3  2  0
  2  1  1  0
  4  3  1  0
  5  4  2  0
  6  7  1  0
  6  5  1  0
  7  8  1  1
  9  7  1  0
  9 10  2  0
 11  5  1  0
 11 12  2  0
 12  2  1  0
 13  9  1  0
 14 13  1  0
 14 25  1  0
 15 16  1  0
 14 15  1  1
 16 24  1  0
 17 18  1  0
 17 16  2  0
 18 19  1  0
 19 24  2  0
 19 20  1  0
 20 21  2  0
 21 22  1  0
 23 22  2  0
 24 23  1  0
 25 32  1  0
 26 25  2  0
 28 27  1  0
 29 28  2  0
 30 28  1  0
 31 30  1  6
 32 31  1  0
 33 31  1  0
 34 33  1  0
 35 33  2  0
M  END
$$$$
