YWN.pdb
     RDKit          3D

 35 37  0  0  1  0  0  0  0  0999 V2000
    7.1260  -13.8772   15.3407 O   0  0  0  0  0  0  0  0  0  0  0  0
    7.3235  -13.8580   16.7025 C   0  0  0  0  0  0  0  0  0  0  0  0
    6.3335  -14.3301   17.5218 C   0  0  0  0  0  0  0  0  0  0  0  0
    6.5372  -14.3104   18.8906 C   0  0  0  0  0  0  0  0  0  0  0  0
    7.7207  -13.8188   19.3696 C   0  0  0  0  0  0  0  0  0  0  0  0
    7.9118  -13.8104   20.8568 C   0  0  0  0  0  0  0  0  0  0  0  0
    8.8406  -14.9319   21.1799 C   0  0  2  0  0  0  0  0  0  0  0  0
    8.3098  -16.2326   20.8381 N   0  0  0  0  0  0  0  0  0  0  0  0
    9.2478  -14.9395   22.6042 C   0  0  0  0  0  0  0  0  0  0  0  0
    9.8145  -13.9574   23.1580 O   0  0  0  0  0  0  0  0  0  0  0  0
    8.7244  -13.3412   18.5683 C   0  0  0  0  0  0  0  0  0  0  0  0
    8.5186  -13.3624   17.2045 C   0  0  0  0  0  0  0  0  0  0  0  0
    9.0084  -16.0885   23.4250 N   0  0  0  0  0  0  0  0  0  0  0  0
    9.5437  -16.1070   24.8101 C   0  0  1  0  0  0  0  0  0  0  0  0
    8.4565  -16.5528   25.7449 C   0  0  0  0  0  0  0  0  0  0  0  0
    7.2840  -15.6748   25.8257 C   0  0  0  0  0  0  0  0  0  0  0  0
    5.9555  -15.8763   25.5228 C   0  0  0  0  0  0  0  0  0  0  0  0
    5.2514  -14.7589   25.7436 N   0  0  0  0  0  0  0  0  0  0  0  0
    6.0796  -13.8047   26.1900 C   0  0  0  0  0  0  0  0  0  0  0  0
    5.8161  -12.4793   26.5559 C   0  0  0  0  0  0  0  0  0  0  0  0
    6.8501  -11.6931   26.9878 C   0  0  0  0  0  0  0  0  0  0  0  0
    8.1333  -12.2375   27.0486 C   0  0  0  0  0  0  0  0  0  0  0  0
    8.3832  -13.5327   26.6902 C   0  0  0  0  0  0  0  0  0  0  0  0
    7.3370  -14.3432   26.2492 C   0  0  0  0  0  0  0  0  0  0  0  0
   10.6692  -17.0525   24.7793 C   0  0  0  0  0  0  0  0  0  0  0  0
   10.4862  -18.2765   24.5955 O   0  0  0  0  0  0  0  0  0  0  0  0
   14.8481  -15.1598   22.9301 N   0  0  0  0  0  0  0  0  0  0  0  0
   14.2903  -16.4296   23.2081 C   0  0  0  0  0  0  0  0  0  0  0  0
   13.7546  -17.0963   22.3040 O   0  0  0  0  0  0  0  0  0  0  0  0
   14.3527  -16.9612   24.5847 C   0  0  0  0  0  0  0  0  0  0  0  0
   13.0419  -17.6706   24.9467 C   0  0  2  0  0  0  0  0  0  0  0  0
   12.0328  -16.6206   24.9528 N   0  0  0  0  0  0  0  0  0  0  0  0
   13.2708  -18.2642   26.2793 C   0  0  0  0  0  0  0  0  0  0  0  0
   12.4958  -17.9003   27.3498 O   0  0  0  0  0  0  0  0  0  0  0  0
   14.1778  -19.1069   26.4462 O   0  0  0  0  0  0  0  0  0  0  0  0
  2  3  2  0
  2  1  1  0
  4  3  1  0
  5  4  2  0
  6  7  1  0
  6  5  1  0
  7  8  1  1
  9  7  1  0
  9 10  2  0
 11  5  1  0
 11 12  2  0
 12  2  1  0
 13  9  1  0
 14 13  1  0
 14 25  1  0
 15 16  1  0
 14 15  1  1
 16 24  1  0
 17 18  1  0
 17 16  2  0
 18 19  1  0
 19 24  2  0
 19 20  1  0
 20 21  2  0
 21 22  1  0
 23 22  2  0
 24 23  1  0
 25 32  1  0
 26 25  2  0
 28 27  1  0
 29 28  2  0
 30 28  1  0
 31 30  1  1
 32 31  1  0
 33 31  1  0
 34 33  1  0
 35 33  2  0
M  END
$$$$
