YWN.pdb
     RDKit          3D

 35 37  0  0  1  0  0  0  0  0999 V2000
    6.8842  -14.0839   15.9628 O   0  0  0  0  0  0  0  0  0  0  0  0
    7.6351  -14.0654   17.1159 C   0  0  0  0  0  0  0  0  0  0  0  0
    7.2745  -13.2161   18.1273 C   0  0  0  0  0  0  0  0  0  0  0  0
    8.0316  -13.2020   19.2857 C   0  0  0  0  0  0  0  0  0  0  0  0
    9.1111  -14.0380   19.3727 C   0  0  0  0  0  0  0  0  0  0  0  0
    9.9118  -13.9999   20.6399 C   0  0  0  0  0  0  0  0  0  0  0  0
    9.9767  -15.3990   21.1528 C   0  0  2  0  0  0  0  0  0  0  0  0
    8.6959  -15.9109   21.5863 N   0  0  0  0  0  0  0  0  0  0  0  0
   10.9533  -15.5547   22.2557 C   0  0  0  0  0  0  0  0  0  0  0  0
   12.0800  -14.9863   22.2559 O   0  0  0  0  0  0  0  0  0  0  0  0
    9.4902  -14.8952   18.3732 C   0  0  0  0  0  0  0  0  0  0  0  0
    8.7334  -14.9072   17.2200 C   0  0  0  0  0  0  0  0  0  0  0  0
   10.6488  -16.3755   23.3891 N   0  0  0  0  0  0  0  0  0  0  0  0
    9.7679  -15.8326   24.4544 C   0  0  1  0  0  0  0  0  0  0  0  0
    8.5006  -15.3282   23.8264 C   0  0  0  0  0  0  0  0  0  0  0  0
    7.4326  -14.9505   24.7585 C   0  0  0  0  0  0  0  0  0  0  0  0
    6.3389  -15.6367   25.2384 C   0  0  0  0  0  0  0  0  0  0  0  0
    5.6263  -14.8605   26.0648 N   0  0  0  0  0  0  0  0  0  0  0  0
    6.2179  -13.6613   26.1523 C   0  0  0  0  0  0  0  0  0  0  0  0
    5.8531  -12.5261   26.8860 C   0  0  0  0  0  0  0  0  0  0  0  0
    6.6360  -11.4060   26.8067 C   0  0  0  0  0  0  0  0  0  0  0  0
    7.7717  -11.4314   25.9966 C   0  0  0  0  0  0  0  0  0  0  0  0
    8.1221  -12.5436   25.2832 C   0  0  0  0  0  0  0  0  0  0  0  0
    7.3320  -13.6908   25.3571 C   0  0  0  0  0  0  0  0  0  0  0  0
    9.5229  -16.9587   25.3675 C   0  0  0  0  0  0  0  0  0  0  0  0
    9.0614  -16.7769   26.5160 O   0  0  0  0  0  0  0  0  0  0  0  0
    9.3614  -21.2039   27.2360 N   0  0  0  0  0  0  0  0  0  0  0  0
   10.0235  -21.5378   26.0315 C   0  0  0  0  0  0  0  0  0  0  0  0
   10.0084  -22.7070   25.6051 O   0  0  0  0  0  0  0  0  0  0  0  0
   10.7322  -20.4827   25.2793 C   0  0  0  0  0  0  0  0  0  0  0  0
   10.5376  -19.1190   25.9538 C   0  0  2  0  0  0  0  0  0  0  0  0
    9.7951  -18.3217   24.9873 N   0  0  0  0  0  0  0  0  0  0  0  0
   11.8995  -18.6067   26.2057 C   0  0  0  0  0  0  0  0  0  0  0  0
   12.3533  -18.4263   27.4865 O   0  0  0  0  0  0  0  0  0  0  0  0
   12.6552  -18.3299   25.2502 O   0  0  0  0  0  0  0  0  0  0  0  0
  2  3  2  0
  2  1  1  0
  4  3  1  0
  5  4  2  0
  6  7  1  0
  6  5  1  0
  7  8  1  1
  9  7  1  0
  9 10  2  0
 11  5  1  0
 11 12  2  0
 12  2  1  0
 13  9  1  0
 14 13  1  0
 14 25  1  0
 15 16  1  0
 14 15  1  6
 16 24  1  0
 17 18  1  0
 17 16  2  0
 18 19  1  0
 19 24  2  0
 19 20  1  0
 20 21  2  0
 21 22  1  0
 23 22  2  0
 24 23  1  0
 25 32  1  0
 26 25  2  0
 28 27  1  0
 29 28  2  0
 30 28  1  0
 31 30  1  6
 32 31  1  0
 33 31  1  0
 34 33  1  0
 35 33  2  0
M  END
$$$$
