YWN.pdb
     RDKit          3D

 35 37  0  0  1  0  0  0  0  0999 V2000
    7.6524  -13.8411   15.7170 O   0  0  0  0  0  0  0  0  0  0  0  0
    7.9759  -13.8156   17.0543 C   0  0  0  0  0  0  0  0  0  0  0  0
    7.0999  -13.2426   17.9367 C   0  0  0  0  0  0  0  0  0  0  0  0
    7.4286  -13.2207   19.2809 C   0  0  0  0  0  0  0  0  0  0  0  0
    8.6174  -13.7726   19.6733 C   0  0  0  0  0  0  0  0  0  0  0  0
    8.9457  -13.7335   21.1359 C   0  0  0  0  0  0  0  0  0  0  0  0
    9.0633  -15.1491   21.5908 C   0  0  2  0  0  0  0  0  0  0  0  0
    7.8986  -15.9488   21.2838 N   0  0  0  0  0  0  0  0  0  0  0  0
    9.3511  -15.2577   23.0399 C   0  0  0  0  0  0  0  0  0  0  0  0
    9.8148  -14.3000   23.7181 O   0  0  0  0  0  0  0  0  0  0  0  0
    9.5088  -14.3504   18.8079 C   0  0  0  0  0  0  0  0  0  0  0  0
    9.1782  -14.3711   17.4689 C   0  0  0  0  0  0  0  0  0  0  0  0
    9.1086  -16.4824   23.7417 N   0  0  0  0  0  0  0  0  0  0  0  0
    9.4770  -16.5737   25.1775 C   0  0  1  0  0  0  0  0  0  0  0  0
    8.2250  -16.7324   25.9910 C   0  0  0  0  0  0  0  0  0  0  0  0
    7.2543  -15.6372   25.8892 C   0  0  0  0  0  0  0  0  0  0  0  0
    5.9715  -15.5821   25.3905 C   0  0  0  0  0  0  0  0  0  0  0  0
    5.4820  -14.3402   25.4965 N   0  0  0  0  0  0  0  0  0  0  0  0
    6.4107  -13.5537   26.0576 C   0  0  0  0  0  0  0  0  0  0  0  0
    6.3685  -12.1903   26.3724 C   0  0  0  0  0  0  0  0  0  0  0  0
    7.4648  -11.6096   26.9511 C   0  0  0  0  0  0  0  0  0  0  0  0
    8.5891  -12.3950   27.2078 C   0  0  0  0  0  0  0  0  0  0  0  0
    8.6231  -13.7259   26.8981 C   0  0  0  0  0  0  0  0  0  0  0  0
    7.5114  -14.3283   26.3087 C   0  0  0  0  0  0  0  0  0  0  0  0
   10.3557  -17.7482   25.2794 C   0  0  0  0  0  0  0  0  0  0  0  0
    9.8886  -18.9071   25.3424 O   0  0  0  0  0  0  0  0  0  0  0  0
   15.3226  -20.2975   24.1800 N   0  0  0  0  0  0  0  0  0  0  0  0
   14.8865  -19.6510   25.3601 C   0  0  0  0  0  0  0  0  0  0  0  0
   15.2379  -20.0711   26.4777 O   0  0  0  0  0  0  0  0  0  0  0  0
   14.0103  -18.4667   25.2543 C   0  0  0  0  0  0  0  0  0  0  0  0
   12.5375  -18.8743   25.3860 C   0  0  2  0  0  0  0  0  0  0  0  0
   11.7912  -17.6263   25.3064 N   0  0  0  0  0  0  0  0  0  0  0  0
   12.4280  -19.5338   26.7027 C   0  0  0  0  0  0  0  0  0  0  0  0
   12.3400  -18.7916   27.8518 O   0  0  0  0  0  0  0  0  0  0  0  0
   12.4155  -20.7804   26.7838 O   0  0  0  0  0  0  0  0  0  0  0  0
  2  3  2  0
  2  1  1  0
  4  3  1  0
  5  4  2  0
  6  7  1  0
  6  5  1  0
  7  8  1  1
  9  7  1  0
  9 10  2  0
 11  5  1  0
 11 12  2  0
 12  2  1  0
 13  9  1  0
 14 13  1  0
 14 25  1  0
 15 16  1  0
 14 15  1  1
 16 24  1  0
 17 18  1  0
 17 16  2  0
 18 19  1  0
 19 24  2  0
 19 20  1  0
 20 21  2  0
 21 22  1  0
 23 22  2  0
 24 23  1  0
 25 32  1  0
 26 25  2  0
 28 27  1  0
 29 28  2  0
 30 28  1  0
 31 30  1  1
 32 31  1  0
 33 31  1  0
 34 33  1  0
 35 33  2  0
M  END
$$$$
