YWN.pdb
     RDKit          3D

 35 37  0  0  1  0  0  0  0  0999 V2000
    7.4904  -21.3681   16.8587 O   0  0  0  0  0  0  0  0  0  0  0  0
    8.1496  -20.6844   17.8546 C   0  0  0  0  0  0  0  0  0  0  0  0
    8.0163  -21.1088   19.1493 C   0  0  0  0  0  0  0  0  0  0  0  0
    8.6825  -20.4191   20.1473 C   0  0  0  0  0  0  0  0  0  0  0  0
    9.4474  -19.3397   19.7988 C   0  0  0  0  0  0  0  0  0  0  0  0
   10.1567  -18.6129   20.9021 C   0  0  0  0  0  0  0  0  0  0  0  0
    9.2419  -17.5293   21.3643 C   0  0  2  0  0  0  0  0  0  0  0  0
    9.0255  -16.4996   20.3726 N   0  0  0  0  0  0  0  0  0  0  0  0
    9.7025  -16.8951   22.6213 C   0  0  0  0  0  0  0  0  0  0  0  0
   10.4777  -15.8995   22.6401 O   0  0  0  0  0  0  0  0  0  0  0  0
    9.5945  -18.8974   18.5103 C   0  0  0  0  0  0  0  0  0  0  0  0
    8.9296  -19.5870   17.5178 C   0  0  0  0  0  0  0  0  0  0  0  0
    9.2759  -17.4000   23.8918 N   0  0  0  0  0  0  0  0  0  0  0  0
    9.7684  -16.7428   25.1291 C   0  0  1  0  0  0  0  0  0  0  0  0
    8.5986  -16.4581   26.0264 C   0  0  0  0  0  0  0  0  0  0  0  0
    7.5985  -15.5255   25.4953 C   0  0  0  0  0  0  0  0  0  0  0  0
    6.5583  -15.6922   24.6079 C   0  0  0  0  0  0  0  0  0  0  0  0
    5.9223  -14.5304   24.4101 N   0  0  0  0  0  0  0  0  0  0  0  0
    6.5138  -13.5805   25.1474 C   0  0  0  0  0  0  0  0  0  0  0  0
    6.2128  -12.2194   25.2761 C   0  0  0  0  0  0  0  0  0  0  0  0
    6.9788  -11.4469   26.1069 C   0  0  0  0  0  0  0  0  0  0  0  0
    8.0354  -12.0407   26.7981 C   0  0  0  0  0  0  0  0  0  0  0  0
    8.3233  -13.3706   26.6680 C   0  0  0  0  0  0  0  0  0  0  0  0
    7.5489  -14.1674   25.8246 C   0  0  0  0  0  0  0  0  0  0  0  0
   10.7072  -17.7011   25.7310 C   0  0  0  0  0  0  0  0  0  0  0  0
   10.4305  -18.9184   25.8144 O   0  0  0  0  0  0  0  0  0  0  0  0
   14.1891  -18.2859   25.0339 N   0  0  0  0  0  0  0  0  0  0  0  0
   14.7945  -17.7328   26.1864 C   0  0  0  0  0  0  0  0  0  0  0  0
   15.9716  -17.3301   26.1505 O   0  0  0  0  0  0  0  0  0  0  0  0
   14.0140  -17.6336   27.4363 C   0  0  0  0  0  0  0  0  0  0  0  0
   12.5958  -18.1796   27.2290 C   0  0  2  0  0  0  0  0  0  0  0  0
   11.9883  -17.2913   26.2478 N   0  0  0  0  0  0  0  0  0  0  0  0
   11.9495  -18.1095   28.5549 C   0  0  0  0  0  0  0  0  0  0  0  0
   12.4242  -18.8521   29.6048 O   0  0  0  0  0  0  0  0  0  0  0  0
   10.9583  -17.3705   28.7343 O   0  0  0  0  0  0  0  0  0  0  0  0
  2  3  2  0
  2  1  1  0
  4  3  1  0
  5  4  2  0
  6  7  1  0
  6  5  1  0
  7  8  1  6
  9  7  1  0
  9 10  2  0
 11  5  1  0
 11 12  2  0
 12  2  1  0
 13  9  1  0
 14 13  1  0
 14 25  1  0
 15 16  1  0
 14 15  1  1
 16 24  1  0
 17 18  1  0
 17 16  2  0
 18 19  1  0
 19 24  2  0
 19 20  1  0
 20 21  2  0
 21 22  1  0
 23 22  2  0
 24 23  1  0
 25 32  1  0
 26 25  2  0
 28 27  1  0
 29 28  2  0
 30 28  1  0
 31 30  1  1
 32 31  1  0
 33 31  1  0
 34 33  1  0
 35 33  2  0
M  END
$$$$
