YWN.pdb
     RDKit          3D

 35 37  0  0  1  0  0  0  0  0999 V2000
    7.3848  -14.3008   15.5067 O   0  0  0  0  0  0  0  0  0  0  0  0
    7.8821  -14.1954   16.7855 C   0  0  0  0  0  0  0  0  0  0  0  0
    8.7999  -15.1151   17.2169 C   0  0  0  0  0  0  0  0  0  0  0  0
    9.2985  -15.0043   18.5032 C   0  0  0  0  0  0  0  0  0  0  0  0
    8.8528  -13.9793   19.2922 C   0  0  0  0  0  0  0  0  0  0  0  0
    9.4113  -13.8856   20.6807 C   0  0  0  0  0  0  0  0  0  0  0  0
    8.8852  -15.0577   21.4384 C   0  0  2  0  0  0  0  0  0  0  0  0
    7.4420  -15.1439   21.4322 N   0  0  0  0  0  0  0  0  0  0  0  0
    9.3612  -15.0871   22.8409 C   0  0  0  0  0  0  0  0  0  0  0  0
    9.9055  -14.0946   23.3987 O   0  0  0  0  0  0  0  0  0  0  0  0
    7.9351  -13.0485   18.8813 C   0  0  0  0  0  0  0  0  0  0  0  0
    7.4402  -13.1613   17.5987 C   0  0  0  0  0  0  0  0  0  0  0  0
    9.2186  -16.2706   23.6348 N   0  0  0  0  0  0  0  0  0  0  0  0
    9.9814  -16.3814   24.9042 C   0  0  1  0  0  0  0  0  0  0  0  0
    9.5516  -15.2777   25.8270 C   0  0  0  0  0  0  0  0  0  0  0  0
    8.1645  -14.8242   25.6775 C   0  0  0  0  0  0  0  0  0  0  0  0
    7.0242  -15.4642   25.2445 C   0  0  0  0  0  0  0  0  0  0  0  0
    5.9815  -14.6241   25.2627 N   0  0  0  0  0  0  0  0  0  0  0  0
    6.3958  -13.4270   25.6999 C   0  0  0  0  0  0  0  0  0  0  0  0
    5.6808  -12.2387   25.8911 C   0  0  0  0  0  0  0  0  0  0  0  0
    6.3429  -11.1343   26.3556 C   0  0  0  0  0  0  0  0  0  0  0  0
    7.7091  -11.2283   26.6228 C   0  0  0  0  0  0  0  0  0  0  0  0
    8.4009  -12.3920   26.4342 C   0  0  0  0  0  0  0  0  0  0  0  0
    7.7362  -13.5238   25.9619 C   0  0  0  0  0  0  0  0  0  0  0  0
    9.6528  -17.7105   25.4403 C   0  0  0  0  0  0  0  0  0  0  0  0
    8.6832  -18.3680   25.0012 O   0  0  0  0  0  0  0  0  0  0  0  0
   13.8965  -20.7834   24.4670 N   0  0  0  0  0  0  0  0  0  0  0  0
   12.4880  -20.6561   24.4899 C   0  0  0  0  0  0  0  0  0  0  0  0
   11.7620  -21.6020   24.1335 O   0  0  0  0  0  0  0  0  0  0  0  0
   11.8839  -19.3877   24.9456 C   0  0  0  0  0  0  0  0  0  0  0  0
   11.0058  -19.6239   26.1808 C   0  0  2  0  0  0  0  0  0  0  0  0
   10.4287  -18.3227   26.4889 N   0  0  0  0  0  0  0  0  0  0  0  0
   11.9238  -20.1150   27.2280 C   0  0  0  0  0  0  0  0  0  0  0  0
   12.2636  -19.3181   28.2904 O   0  0  0  0  0  0  0  0  0  0  0  0
   12.4035  -21.2662   27.1560 O   0  0  0  0  0  0  0  0  0  0  0  0
  2  3  2  0
  2  1  1  0
  4  3  1  0
  5  4  2  0
  6  7  1  0
  6  5  1  0
  7  8  1  1
  9  7  1  0
  9 10  2  0
 11  5  1  0
 11 12  2  0
 12  2  1  0
 13  9  1  0
 14 13  1  0
 14 25  1  0
 15 16  1  0
 14 15  1  1
 16 24  1  0
 17 18  1  0
 17 16  2  0
 18 19  1  0
 19 24  2  0
 19 20  1  0
 20 21  2  0
 21 22  1  0
 23 22  2  0
 24 23  1  0
 25 32  1  0
 26 25  2  0
 28 27  1  0
 29 28  2  0
 30 28  1  0
 31 30  1  6
 32 31  1  0
 33 31  1  0
 34 33  1  0
 35 33  2  0
M  END
$$$$
