YWN.pdb
     RDKit          3D

 35 37  0  0  1  0  0  0  0  0999 V2000
    7.4446  -14.0333   15.5418 O   0  0  0  0  0  0  0  0  0  0  0  0
    8.0541  -14.4758   16.6936 C   0  0  0  0  0  0  0  0  0  0  0  0
    8.1394  -15.8229   16.9220 C   0  0  0  0  0  0  0  0  0  0  0  0
    8.7547  -16.2634   18.0808 C   0  0  0  0  0  0  0  0  0  0  0  0
    9.2525  -15.3334   18.9521 C   0  0  0  0  0  0  0  0  0  0  0  0
    9.9132  -15.8412   20.1987 C   0  0  0  0  0  0  0  0  0  0  0  0
   10.3634  -14.6451   20.9677 C   0  0  2  0  0  0  0  0  0  0  0  0
   11.5593  -14.0350   20.4310 N   0  0  0  0  0  0  0  0  0  0  0  0
   10.5790  -14.9411   22.4031 C   0  0  0  0  0  0  0  0  0  0  0  0
   11.6386  -14.6295   23.0133 O   0  0  0  0  0  0  0  0  0  0  0  0
    9.1777  -13.9811   18.7439 C   0  0  0  0  0  0  0  0  0  0  0  0
    8.5643  -13.5452   17.5878 C   0  0  0  0  0  0  0  0  0  0  0  0
    9.5696  -15.6079   23.1698 N   0  0  0  0  0  0  0  0  0  0  0  0
    9.7527  -15.7422   24.6374 C   0  0  1  0  0  0  0  0  0  0  0  0
    8.4029  -15.8353   25.2886 C   0  0  0  0  0  0  0  0  0  0  0  0
    7.4868  -14.7211   25.0215 C   0  0  0  0  0  0  0  0  0  0  0  0
    6.6676  -14.4338   23.9520 C   0  0  0  0  0  0  0  0  0  0  0  0
    6.0240  -13.2771   24.1542 N   0  0  0  0  0  0  0  0  0  0  0  0
    6.3932  -12.7762   25.3410 C   0  0  0  0  0  0  0  0  0  0  0  0
    5.9967  -11.5992   25.9870 C   0  0  0  0  0  0  0  0  0  0  0  0
    6.5265  -11.3064   27.2148 C   0  0  0  0  0  0  0  0  0  0  0  0
    7.4452  -12.1899   27.7824 C   0  0  0  0  0  0  0  0  0  0  0  0
    7.8275  -13.3376   27.1461 C   0  0  0  0  0  0  0  0  0  0  0  0
    7.2935  -13.6464   25.8949 C   0  0  0  0  0  0  0  0  0  0  0  0
   10.5411  -16.9698   24.8200 C   0  0  0  0  0  0  0  0  0  0  0  0
   10.9414  -17.3240   25.9512 O   0  0  0  0  0  0  0  0  0  0  0  0
   13.7266  -20.7694   24.0253 N   0  0  0  0  0  0  0  0  0  0  0  0
   14.0033  -19.5164   24.6205 C   0  0  0  0  0  0  0  0  0  0  0  0
   15.1393  -19.2631   25.0612 O   0  0  0  0  0  0  0  0  0  0  0  0
   12.9297  -18.5063   24.7115 C   0  0  0  0  0  0  0  0  0  0  0  0
   11.6486  -19.0219   24.0440 C   0  0  2  0  0  0  0  0  0  0  0  0
   10.8867  -17.8256   23.7135 N   0  0  0  0  0  0  0  0  0  0  0  0
   10.9896  -19.8686   25.0586 C   0  0  0  0  0  0  0  0  0  0  0  0
   11.5123  -21.0897   25.3973 O   0  0  0  0  0  0  0  0  0  0  0  0
    9.9437  -19.4799   25.6205 O   0  0  0  0  0  0  0  0  0  0  0  0
  2  3  2  0
  2  1  1  0
  4  3  1  0
  5  4  2  0
  6  7  1  0
  6  5  1  0
  7  8  1  6
  9  7  1  0
  9 10  2  0
 11  5  1  0
 11 12  2  0
 12  2  1  0
 13  9  1  0
 14 13  1  0
 14 25  1  0
 15 16  1  0
 14 15  1  1
 16 24  1  0
 17 18  1  0
 17 16  2  0
 18 19  1  0
 19 24  2  0
 19 20  1  0
 20 21  2  0
 21 22  1  0
 23 22  2  0
 24 23  1  0
 25 32  1  0
 26 25  2  0
 28 27  1  0
 29 28  2  0
 30 28  1  0
 31 30  1  1
 32 31  1  0
 33 31  1  0
 34 33  1  0
 35 33  2  0
M  END
$$$$
