MGA.pdb
     RDKit          3D

 18 17  0  0  1  0  0  0  0  0999 V2000
   17.4003  -13.9512  -20.5112 C   0  0  0  0  0  0  0  0  0  0  0  0
   16.9634  -13.1733  -18.9651 S   0  0  0  0  0  0  0  0  0  0  0  0
   17.3723  -11.4690  -18.8198 C   0  0  0  0  0  0  0  0  0  0  0  0
   17.1562  -10.7510  -17.5359 C   0  0  0  0  0  0  0  0  0  0  0  0
   17.5876   -9.3452  -17.5076 C   0  0  2  0  0  0  0  0  0  0  0  0
   19.0154   -9.2577  -17.6937 N   0  0  0  0  0  0  0  0  0  0  0  0
   17.2528   -8.6364  -16.2476 C   0  0  0  0  0  0  0  0  0  0  0  0
   16.0814   -8.6414  -15.7923 O   0  0  0  0  0  0  0  0  0  0  0  0
   18.2195   -7.9121  -15.4775 N   0  0  0  0  0  0  0  0  0  0  0  0
   17.9146   -7.2785  -14.2324 C   0  0  0  0  0  0  0  0  0  0  0  0
   19.0913   -6.6341  -13.5972 C   0  0  0  0  0  0  0  0  0  0  0  0
   19.0078   -5.9595  -12.5525 O   0  0  0  0  0  0  0  0  0  0  0  0
   22.7351   -7.0305  -14.2278 C   0  0  0  0  0  0  0  0  0  0  0  0
   21.5537   -6.2394  -13.6956 C   0  0  2  0  0  0  0  0  0  0  0  0
   20.3474   -6.8202  -14.2412 N   0  0  0  0  0  0  0  0  0  0  0  0
   21.6147   -4.8280  -14.1104 C   0  0  0  0  0  0  0  0  0  0  0  0
   22.3692   -3.9784  -13.5715 O   0  0  0  0  0  0  0  0  0  0  0  0
   20.8030   -4.3957  -15.1491 O   0  0  0  0  0  0  0  0  0  0  0  0
  2  1  1  0
  3  2  1  0
  4  3  1  0
  5  4  1  0
  5  6  1  1
  7  8  2  0
  7  5  1  0
  9  7  1  0
 10 11  1  0
 10  9  1  0
 11 15  1  0
 12 11  2  0
 14 13  1  6
 14 16  1  0
 15 14  1  0
 16 17  2  0
 16 18  1  0
M  END
$$$$
