MGA.pdb
     RDKit          3D

 18 17  0  0  1  0  0  0  0  0999 V2000
   27.5000  -19.1467   -6.5326 C   0  0  0  0  0  0  0  0  0  0  0  0
   27.2670  -20.2579   -7.9101 S   0  0  0  0  0  0  0  0  0  0  0  0
   25.7506  -20.0901   -8.7848 C   0  0  0  0  0  0  0  0  0  0  0  0
   25.4452  -20.9789   -9.9370 C   0  0  0  0  0  0  0  0  0  0  0  0
   26.5233  -21.1413  -10.9242 C   0  0  2  0  0  0  0  0  0  0  0  0
   27.0881  -19.8575  -11.2616 N   0  0  0  0  0  0  0  0  0  0  0  0
   26.0923  -21.7904  -12.1872 C   0  0  0  0  0  0  0  0  0  0  0  0
   25.6262  -22.9575  -12.1902 O   0  0  0  0  0  0  0  0  0  0  0  0
   26.1750  -21.1470  -13.4644 N   0  0  0  0  0  0  0  0  0  0  0  0
   25.7942  -21.7818  -14.6880 C   0  0  0  0  0  0  0  0  0  0  0  0
   24.3830  -21.5241  -15.0693 C   0  0  0  0  0  0  0  0  0  0  0  0
   23.8808  -21.9562  -16.1250 O   0  0  0  0  0  0  0  0  0  0  0  0
   21.6679  -19.6583  -13.2693 C   0  0  0  0  0  0  0  0  0  0  0  0
   22.2258  -20.4325  -14.4499 C   0  0  2  0  0  0  0  0  0  0  0  0
   23.6073  -20.7472  -14.1628 N   0  0  0  0  0  0  0  0  0  0  0  0
   22.1814  -19.6387  -15.6892 C   0  0  0  0  0  0  0  0  0  0  0  0
   21.2460  -19.7113  -16.5266 O   0  0  0  0  0  0  0  0  0  0  0  0
   23.2189  -18.7594  -15.9631 O   0  0  0  0  0  0  0  0  0  0  0  0
  2  1  1  0
  3  2  1  0
  4  3  1  0
  5  4  1  0
  5  6  1  6
  7  8  2  0
  7  5  1  0
  9  7  1  0
 10 11  1  0
 10  9  1  0
 11 15  1  0
 12 11  2  0
 14 13  1  1
 14 16  1  0
 15 14  1  0
 16 17  2  0
 16 18  1  0
M  END
$$$$
