MGA.pdb
     RDKit          3D

 18 17  0  0  1  0  0  0  0  0999 V2000
   28.7540  -14.9223  -16.7817 C   0  0  0  0  0  0  0  0  0  0  0  0
   27.0250  -14.5013  -16.6398 S   0  0  0  0  0  0  0  0  0  0  0  0
   26.6680  -12.9831  -15.8269 C   0  0  0  0  0  0  0  0  0  0  0  0
   25.2594  -12.5579  -15.6136 C   0  0  0  0  0  0  0  0  0  0  0  0
   24.3134  -12.9163  -16.6813 C   0  0  2  0  0  0  0  0  0  0  0  0
   24.7083  -12.3010  -17.9248 N   0  0  0  0  0  0  0  0  0  0  0  0
   22.9115  -12.5156  -16.4050 C   0  0  0  0  0  0  0  0  0  0  0  0
   22.3271  -12.8825  -15.3546 O   0  0  0  0  0  0  0  0  0  0  0  0
   22.1416  -11.6999  -17.2962 N   0  0  0  0  0  0  0  0  0  0  0  0
   20.8204  -11.2424  -16.9962 C   0  0  0  0  0  0  0  0  0  0  0  0
   20.6636   -9.7723  -17.1277 C   0  0  0  0  0  0  0  0  0  0  0  0
   21.6118   -9.0167  -17.4167 O   0  0  0  0  0  0  0  0  0  0  0  0
   17.5865   -7.6335  -16.9591 C   0  0  0  0  0  0  0  0  0  0  0  0
   19.0837   -7.8403  -17.1020 C   0  0  2  0  0  0  0  0  0  0  0  0
   19.3592   -9.2460  -16.9063 N   0  0  0  0  0  0  0  0  0  0  0  0
   19.8356   -7.0778  -16.0916 C   0  0  0  0  0  0  0  0  0  0  0  0
   20.1145   -5.8572  -16.2091 O   0  0  0  0  0  0  0  0  0  0  0  0
   20.2673   -7.7252  -14.9430 O   0  0  0  0  0  0  0  0  0  0  0  0
  2  1  1  0
  3  2  1  0
  4  3  1  0
  5  4  1  0
  5  6  1  6
  7  8  2  0
  7  5  1  0
  9  7  1  0
 10 11  1  0
 10  9  1  0
 11 15  1  0
 12 11  2  0
 14 13  1  1
 14 16  1  0
 15 14  1  0
 16 17  2  0
 16 18  1  0
M  END
$$$$
