MGA.pdb
     RDKit          3D

 18 17  0  0  1  0  0  0  0  0999 V2000
   27.7672  -13.0738  -14.5402 C   0  0  0  0  0  0  0  0  0  0  0  0
   27.7765  -11.7056  -15.6868 S   0  0  0  0  0  0  0  0  0  0  0  0
   26.2278  -11.3049  -16.4176 C   0  0  0  0  0  0  0  0  0  0  0  0
   25.1388  -10.7148  -15.5951 C   0  0  0  0  0  0  0  0  0  0  0  0
   23.8693  -10.4674  -16.2955 C   0  0  2  0  0  0  0  0  0  0  0  0
   24.1057   -9.7245  -17.5091 N   0  0  0  0  0  0  0  0  0  0  0  0
   22.8739   -9.7147  -15.4925 C   0  0  0  0  0  0  0  0  0  0  0  0
   22.5126  -10.1221  -14.3599 O   0  0  0  0  0  0  0  0  0  0  0  0
   22.2675   -8.4969  -15.9414 N   0  0  0  0  0  0  0  0  0  0  0  0
   21.2575   -7.8052  -15.2021 C   0  0  0  0  0  0  0  0  0  0  0  0
   20.7085   -6.6266  -15.9182 C   0  0  0  0  0  0  0  0  0  0  0  0
   21.4080   -5.8927  -16.6431 O   0  0  0  0  0  0  0  0  0  0  0  0
   17.2032   -5.3095  -16.1366 C   0  0  0  0  0  0  0  0  0  0  0  0
   18.7009   -5.2129  -16.3653 C   0  0  2  0  0  0  0  0  0  0  0  0
   19.3211   -6.3603  -15.7415 N   0  0  0  0  0  0  0  0  0  0  0  0
   19.2652   -3.9963  -15.7577 C   0  0  0  0  0  0  0  0  0  0  0  0
   19.8341   -3.9805  -14.6362 O   0  0  0  0  0  0  0  0  0  0  0  0
   19.1728   -2.7950  -16.4454 O   0  0  0  0  0  0  0  0  0  0  0  0
  2  1  1  0
  3  2  1  0
  4  3  1  0
  5  4  1  0
  5  6  1  6
  7  8  2  0
  7  5  1  0
  9  7  1  0
 10 11  1  0
 10  9  1  0
 11 15  1  0
 12 11  2  0
 14 13  1  1
 14 16  1  0
 15 14  1  0
 16 17  2  0
 16 18  1  0
M  END
$$$$
