MGA.pdb
     RDKit          3D

 18 17  0  0  1  0  0  0  0  0999 V2000
   27.8824  -19.4548   -4.8764 C   0  0  0  0  0  0  0  0  0  0  0  0
   27.5926  -19.9162   -6.5764 S   0  0  0  0  0  0  0  0  0  0  0  0
   26.0276  -20.6413   -6.9197 C   0  0  0  0  0  0  0  0  0  0  0  0
   25.6812  -21.0616   -8.3032 C   0  0  0  0  0  0  0  0  0  0  0  0
   26.6550  -20.7012   -9.3449 C   0  0  2  0  0  0  0  0  0  0  0  0
   26.8068  -19.2683   -9.4115 N   0  0  0  0  0  0  0  0  0  0  0  0
   26.2921  -21.1799  -10.7019 C   0  0  0  0  0  0  0  0  0  0  0  0
   26.0243  -22.3896  -10.9128 O   0  0  0  0  0  0  0  0  0  0  0  0
   26.2225  -20.3163  -11.8427 N   0  0  0  0  0  0  0  0  0  0  0  0
   26.0122  -20.7924  -13.1746 C   0  0  0  0  0  0  0  0  0  0  0  0
   24.5871  -20.7688  -13.5890 C   0  0  0  0  0  0  0  0  0  0  0  0
   24.1824  -20.1206  -14.5736 O   0  0  0  0  0  0  0  0  0  0  0  0
   21.7114  -22.8800  -12.5651 C   0  0  0  0  0  0  0  0  0  0  0  0
   22.2745  -21.5914  -13.1371 C   0  0  2  0  0  0  0  0  0  0  0  0
   23.6794  -21.5321  -12.8012 N   0  0  0  0  0  0  0  0  0  0  0  0
   21.6126  -20.4081  -12.5632 C   0  0  0  0  0  0  0  0  0  0  0  0
   22.1082  -19.7168  -11.6368 O   0  0  0  0  0  0  0  0  0  0  0  0
   20.3759  -20.0215  -13.0589 O   0  0  0  0  0  0  0  0  0  0  0  0
  2  1  1  0
  3  2  1  0
  4  3  1  0
  5  4  1  0
  5  6  1  6
  7  8  2  0
  7  5  1  0
  9  7  1  0
 10 11  1  0
 10  9  1  0
 11 15  1  0
 12 11  2  0
 14 13  1  1
 14 16  1  0
 15 14  1  0
 16 17  2  0
 16 18  1  0
M  END
$$$$
