MGA.pdb
     RDKit          3D

 18 17  0  0  1  0  0  0  0  0999 V2000
   32.0049  -22.4265  -10.0930 C   0  0  0  0  0  0  0  0  0  0  0  0
   30.5594  -21.3989   -9.8900 S   0  0  0  0  0  0  0  0  0  0  0  0
   29.1143  -21.9288  -10.7408 C   0  0  0  0  0  0  0  0  0  0  0  0
   27.8513  -21.1516  -10.6332 C   0  0  0  0  0  0  0  0  0  0  0  0
   26.7048  -21.6851  -11.3844 C   0  0  2  0  0  0  0  0  0  0  0  0
   27.0656  -21.8902  -12.7659 N   0  0  0  0  0  0  0  0  0  0  0  0
   25.5056  -20.8115  -11.3562 C   0  0  0  0  0  0  0  0  0  0  0  0
   25.3281  -19.9254  -12.2296 O   0  0  0  0  0  0  0  0  0  0  0  0
   24.4874  -20.9138  -10.3537 N   0  0  0  0  0  0  0  0  0  0  0  0
   23.4145  -19.9769  -10.2277 C   0  0  0  0  0  0  0  0  0  0  0  0
   22.2315  -20.3234  -11.0547 C   0  0  0  0  0  0  0  0  0  0  0  0
   21.2622  -20.9670  -10.6078 O   0  0  0  0  0  0  0  0  0  0  0  0
   21.3905  -19.4224  -14.5995 C   0  0  0  0  0  0  0  0  0  0  0  0
   21.1111  -20.1086  -13.2745 C   0  0  2  0  0  0  0  0  0  0  0  0
   22.2465  -19.8827  -12.4085 N   0  0  0  0  0  0  0  0  0  0  0  0
   20.9399  -21.5614  -13.4412 C   0  0  0  0  0  0  0  0  0  0  0  0
   21.8995  -22.3731  -13.4811 O   0  0  0  0  0  0  0  0  0  0  0  0
   19.6584  -22.0789  -13.5626 O   0  0  0  0  0  0  0  0  0  0  0  0
  2  1  1  0
  3  2  1  0
  4  3  1  0
  5  4  1  0
  5  6  1  6
  7  8  2  0
  7  5  1  0
  9  7  1  0
 10 11  1  0
 10  9  1  0
 11 15  1  0
 12 11  2  0
 14 13  1  6
 14 16  1  0
 15 14  1  0
 16 17  2  0
 16 18  1  0
M  END
$$$$
