MGA.pdb
     RDKit          3D

 18 17  0  0  1  0  0  0  0  0999 V2000
  109.5653   -4.6582  -20.0313 C   0  0  0  0  0  0  0  0  0  0  0  0
  108.9054   -3.3107  -20.9984 S   0  0  0  0  0  0  0  0  0  0  0  0
  108.6539   -3.6422  -22.7072 C   0  0  0  0  0  0  0  0  0  0  0  0
  107.6984   -2.8232  -23.4990 C   0  0  0  0  0  0  0  0  0  0  0  0
  107.8691   -2.8727  -24.9590 C   0  0  2  0  0  0  0  0  0  0  0  0
  108.0388   -1.5410  -25.4868 N   0  0  0  0  0  0  0  0  0  0  0  0
  106.7337   -3.5017  -25.6784 C   0  0  0  0  0  0  0  0  0  0  0  0
  106.0522   -4.4125  -25.1443 O   0  0  0  0  0  0  0  0  0  0  0  0
  106.3424   -3.1236  -27.0036 N   0  0  0  0  0  0  0  0  0  0  0  0
  105.0587   -2.5762  -27.3157 C   0  0  0  0  0  0  0  0  0  0  0  0
  105.1063   -1.5278  -28.3654 C   0  0  0  0  0  0  0  0  0  0  0  0
  105.9686   -0.6280  -28.3802 O   0  0  0  0  0  0  0  0  0  0  0  0
  101.9607   -2.4621  -28.7614 C   0  0  0  0  0  0  0  0  0  0  0  0
  102.7422   -1.2046  -29.0972 C   0  0  2  0  0  0  0  0  0  0  0  0
  104.1070   -1.5905  -29.3776 N   0  0  0  0  0  0  0  0  0  0  0  0
  102.7531   -0.2557  -27.9715 C   0  0  0  0  0  0  0  0  0  0  0  0
  102.8153   -0.6095  -26.7663 O   0  0  0  0  0  0  0  0  0  0  0  0
  102.6919    1.1046  -28.2367 O   0  0  0  0  0  0  0  0  0  0  0  0
  2  1  1  0
  3  2  1  0
  4  3  1  0
  5  4  1  0
  5  6  1  6
  7  8  2  0
  7  5  1  0
  9  7  1  0
 10 11  1  0
 10  9  1  0
 11 15  1  0
 12 11  2  0
 14 13  1  1
 14 16  1  0
 15 14  1  0
 16 17  2  0
 16 18  1  0
M  END
$$$$
