MGA.pdb
     RDKit          3D

 18 17  0  0  1  0  0  0  0  0999 V2000
   31.3822  -21.1421  -11.3274 C   0  0  0  0  0  0  0  0  0  0  0  0
   29.7431  -20.6833  -10.7892 S   0  0  0  0  0  0  0  0  0  0  0  0
   28.4137  -21.3088  -11.7558 C   0  0  0  0  0  0  0  0  0  0  0  0
   27.0057  -21.0425  -11.3592 C   0  0  0  0  0  0  0  0  0  0  0  0
   25.9736  -21.6349  -12.2236 C   0  0  2  0  0  0  0  0  0  0  0  0
   26.2240  -21.2965  -13.6033 N   0  0  0  0  0  0  0  0  0  0  0  0
   24.5920  -21.2031  -11.8968 C   0  0  0  0  0  0  0  0  0  0  0  0
   24.1852  -21.1757  -10.7080 O   0  0  0  0  0  0  0  0  0  0  0  0
   23.6447  -20.7956  -12.8911 N   0  0  0  0  0  0  0  0  0  0  0  0
   22.3387  -20.3060  -12.5756 C   0  0  0  0  0  0  0  0  0  0  0  0
   21.5330  -19.9659  -13.7750 C   0  0  0  0  0  0  0  0  0  0  0  0
   21.9264  -19.1663  -14.6463 O   0  0  0  0  0  0  0  0  0  0  0  0
   18.3915  -21.4876  -15.0997 C   0  0  0  0  0  0  0  0  0  0  0  0
   19.4324  -20.3835  -15.0565 C   0  0  2  0  0  0  0  0  0  0  0  0
   20.2650  -20.6022  -13.8949 N   0  0  0  0  0  0  0  0  0  0  0  0
   18.8096  -19.0550  -14.9340 C   0  0  0  0  0  0  0  0  0  0  0  0
   18.5336  -18.5169  -13.8313 O   0  0  0  0  0  0  0  0  0  0  0  0
   18.5040  -18.3457  -16.0865 O   0  0  0  0  0  0  0  0  0  0  0  0
  2  1  1  0
  3  2  1  0
  4  3  1  0
  5  4  1  0
  5  6  1  6
  7  8  2  0
  7  5  1  0
  9  7  1  0
 10 11  1  0
 10  9  1  0
 11 15  1  0
 12 11  2  0
 14 13  1  1
 14 16  1  0
 15 14  1  0
 16 17  2  0
 16 18  1  0
M  END
$$$$
