MGA.pdb
     RDKit          3D

 18 17  0  0  1  0  0  0  0  0999 V2000
   27.6486  -18.3333   -6.0945 C   0  0  0  0  0  0  0  0  0  0  0  0
   27.8162  -20.0699   -6.4725 S   0  0  0  0  0  0  0  0  0  0  0  0
   26.8758  -20.6531   -7.8394 C   0  0  0  0  0  0  0  0  0  0  0  0
   26.0217  -19.7176   -8.6179 C   0  0  0  0  0  0  0  0  0  0  0  0
   25.2399  -20.3205   -9.7081 C   0  0  2  0  0  0  0  0  0  0  0  0
   25.0557  -21.7310   -9.4689 N   0  0  0  0  0  0  0  0  0  0  0  0
   25.8565  -20.1672  -11.0492 C   0  0  0  0  0  0  0  0  0  0  0  0
   25.5438  -19.2100  -11.8012 O   0  0  0  0  0  0  0  0  0  0  0  0
   26.8305  -21.0791  -11.5705 N   0  0  0  0  0  0  0  0  0  0  0  0
   27.4204  -20.9400  -12.8657 C   0  0  0  0  0  0  0  0  0  0  0  0
   27.1200  -19.6376  -13.5115 C   0  0  0  0  0  0  0  0  0  0  0  0
   26.5248  -18.7148  -12.9220 O   0  0  0  0  0  0  0  0  0  0  0  0
   28.3745  -18.0730  -16.6165 C   0  0  0  0  0  0  0  0  0  0  0  0
   27.2756  -18.2584  -15.5857 C   0  0  2  0  0  0  0  0  0  0  0  0
   27.5474  -19.4790  -14.8603 N   0  0  0  0  0  0  0  0  0  0  0  0
   25.9525  -18.3832  -16.2195 C   0  0  0  0  0  0  0  0  0  0  0  0
   25.3639  -19.4820  -16.3863 O   0  0  0  0  0  0  0  0  0  0  0  0
   25.3071  -17.2377  -16.6623 O   0  0  0  0  0  0  0  0  0  0  0  0
  2  1  1  0
  3  2  1  0
  4  3  1  0
  5  4  1  0
  5  6  1  1
  7  8  2  0
  7  5  1  0
  9  7  1  0
 10 11  1  0
 10  9  1  0
 11 15  1  0
 12 11  2  0
 14 13  1  6
 14 16  1  0
 15 14  1  0
 16 17  2  0
 16 18  1  0
M  END
$$$$
