MGA.pdb
     RDKit          3D

 18 17  0  0  1  0  0  0  0  0999 V2000
   18.6801  -21.2680    7.6673 C   0  0  0  0  0  0  0  0  0  0  0  0
   17.9815  -20.4956    9.1171 S   0  0  0  0  0  0  0  0  0  0  0  0
   16.8105  -19.2180    8.8183 C   0  0  0  0  0  0  0  0  0  0  0  0
   17.0670  -18.1928    7.7724 C   0  0  0  0  0  0  0  0  0  0  0  0
   15.9778  -17.2333    7.5350 C   0  0  2  0  0  0  0  0  0  0  0  0
   15.0439  -17.7668    6.5737 N   0  0  0  0  0  0  0  0  0  0  0  0
   16.4349  -15.9130    7.0350 C   0  0  0  0  0  0  0  0  0  0  0  0
   16.2415  -15.5690    5.8418 O   0  0  0  0  0  0  0  0  0  0  0  0
   17.1140  -14.9577    7.8587 N   0  0  0  0  0  0  0  0  0  0  0  0
   17.6271  -13.7188    7.3621 C   0  0  0  0  0  0  0  0  0  0  0  0
   19.0460  -13.4816    7.7278 C   0  0  0  0  0  0  0  0  0  0  0  0
   19.6948  -14.2619    8.4514 O   0  0  0  0  0  0  0  0  0  0  0  0
   21.4529  -10.8439    6.5969 C   0  0  0  0  0  0  0  0  0  0  0  0
   21.0301  -11.9837    7.5061 C   0  0  2  0  0  0  0  0  0  0  0  0
   19.6515  -12.3021    7.2088 N   0  0  0  0  0  0  0  0  0  0  0  0
   21.1204  -11.6069    8.9265 C   0  0  0  0  0  0  0  0  0  0  0  0
   20.1352  -11.2210    9.6062 O   0  0  0  0  0  0  0  0  0  0  0  0
   22.3506  -11.6751    9.5644 O   0  0  0  0  0  0  0  0  0  0  0  0
  2  1  1  0
  3  2  1  0
  4  3  1  0
  5  4  1  0
  5  6  1  6
  7  8  2  0
  7  5  1  0
  9  7  1  0
 10 11  1  0
 10  9  1  0
 11 15  1  0
 12 11  2  0
 14 13  1  6
 14 16  1  0
 15 14  1  0
 16 17  2  0
 16 18  1  0
M  END
$$$$
