MGA.pdb
     RDKit          3D

 18 17  0  0  1  0  0  0  0  0999 V2000
   22.1792  -12.7894    8.1186 C   0  0  0  0  0  0  0  0  0  0  0  0
   21.2136  -11.4113    7.5228 S   0  0  0  0  0  0  0  0  0  0  0  0
   20.0844  -11.7690    6.2228 C   0  0  0  0  0  0  0  0  0  0  0  0
   19.0298  -12.8010    6.4060 C   0  0  0  0  0  0  0  0  0  0  0  0
   18.1868  -13.0711    5.2314 C   0  0  2  0  0  0  0  0  0  0  0  0
   17.4697  -11.8797    4.8477 N   0  0  0  0  0  0  0  0  0  0  0  0
   17.1898  -14.1504    5.4394 C   0  0  0  0  0  0  0  0  0  0  0  0
   15.9611  -13.9367    5.2848 O   0  0  0  0  0  0  0  0  0  0  0  0
   17.5492  -15.4831    5.8226 N   0  0  0  0  0  0  0  0  0  0  0  0
   16.5897  -16.5183    6.0524 C   0  0  0  0  0  0  0  0  0  0  0  0
   16.9561  -17.8101    5.4196 C   0  0  0  0  0  0  0  0  0  0  0  0
   17.9882  -17.9569    4.7365 O   0  0  0  0  0  0  0  0  0  0  0  0
   15.3941  -21.1935    5.8170 C   0  0  0  0  0  0  0  0  0  0  0  0
   16.4351  -20.2450    5.2502 C   0  0  2  0  0  0  0  0  0  0  0  0
   16.0635  -18.8997    5.6274 N   0  0  0  0  0  0  0  0  0  0  0  0
   16.4889  -20.3138    3.7805 C   0  0  0  0  0  0  0  0  0  0  0  0
   15.8503  -19.5367    3.0256 O   0  0  0  0  0  0  0  0  0  0  0  0
   17.2810  -21.2817    3.1802 O   0  0  0  0  0  0  0  0  0  0  0  0
  2  1  1  0
  3  2  1  0
  4  3  1  0
  5  4  1  0
  5  6  1  1
  7  8  2  0
  7  5  1  0
  9  7  1  0
 10 11  1  0
 10  9  1  0
 11 15  1  0
 12 11  2  0
 14 13  1  6
 14 16  1  0
 15 14  1  0
 16 17  2  0
 16 18  1  0
M  END
$$$$
