MGA.pdb
     RDKit          3D

 18 17  0  0  1  0  0  0  0  0999 V2000
   28.9716  -19.4441   -6.3720 C   0  0  0  0  0  0  0  0  0  0  0  0
   27.2395  -19.8690   -6.2945 S   0  0  0  0  0  0  0  0  0  0  0  0
   26.3789  -19.8689   -7.8282 C   0  0  0  0  0  0  0  0  0  0  0  0
   26.8412  -20.7288   -8.9496 C   0  0  0  0  0  0  0  0  0  0  0  0
   26.1350  -20.5499  -10.2273 C   0  0  2  0  0  0  0  0  0  0  0  0
   24.7214  -20.7771  -10.0520 N   0  0  0  0  0  0  0  0  0  0  0  0
   26.6060  -21.4508  -11.3084 C   0  0  0  0  0  0  0  0  0  0  0  0
   26.3963  -22.6889  -11.2582 O   0  0  0  0  0  0  0  0  0  0  0  0
   27.3173  -20.9835  -12.4608 N   0  0  0  0  0  0  0  0  0  0  0  0
   27.5040  -19.5973  -12.7578 C   0  0  0  0  0  0  0  0  0  0  0  0
   26.5630  -19.0844  -13.7848 C   0  0  0  0  0  0  0  0  0  0  0  0
   26.4580  -17.8727  -14.0572 O   0  0  0  0  0  0  0  0  0  0  0  0
   24.6144  -20.5651  -16.5002 C   0  0  0  0  0  0  0  0  0  0  0  0
   24.6553  -19.6456  -15.2930 C   0  0  2  0  0  0  0  0  0  0  0  0
   25.7669  -20.0510  -14.4624 N   0  0  0  0  0  0  0  0  0  0  0  0
   23.4225  -19.7439  -14.4940 C   0  0  0  0  0  0  0  0  0  0  0  0
   23.3308  -20.4246  -13.4405 O   0  0  0  0  0  0  0  0  0  0  0  0
   22.2927  -19.0556  -14.9116 O   0  0  0  0  0  0  0  0  0  0  0  0
  2  1  1  0
  3  2  1  0
  4  3  1  0
  5  4  1  0
  5  6  1  1
  7  8  2  0
  7  5  1  0
  9  7  1  0
 10 11  1  0
 10  9  1  0
 11 15  1  0
 12 11  2  0
 14 13  1  6
 14 16  1  0
 15 14  1  0
 16 17  2  0
 16 18  1  0
M  END
$$$$
