MGA.pdb
     RDKit          3D

 18 17  0  0  1  0  0  0  0  0999 V2000
   22.9877  -18.1382  -20.5614 C   0  0  0  0  0  0  0  0  0  0  0  0
   23.1423  -16.4688  -21.1746 S   0  0  0  0  0  0  0  0  0  0  0  0
   23.3681  -15.2206  -19.9564 C   0  0  0  0  0  0  0  0  0  0  0  0
   23.4756  -13.7922  -20.3549 C   0  0  0  0  0  0  0  0  0  0  0  0
   23.6196  -12.8287  -19.2530 C   0  0  2  0  0  0  0  0  0  0  0  0
   22.5204  -12.9606  -18.3283 N   0  0  0  0  0  0  0  0  0  0  0  0
   23.6718  -11.4123  -19.6926 C   0  0  0  0  0  0  0  0  0  0  0  0
   24.6433  -10.9758  -20.3598 O   0  0  0  0  0  0  0  0  0  0  0  0
   22.6413  -10.4630  -19.3946 N   0  0  0  0  0  0  0  0  0  0  0  0
   22.5564   -9.1775  -20.0153 C   0  0  0  0  0  0  0  0  0  0  0  0
   21.4138   -8.3644  -19.5288 C   0  0  0  0  0  0  0  0  0  0  0  0
   21.1847   -7.2103  -19.9400 O   0  0  0  0  0  0  0  0  0  0  0  0
   18.4517   -9.3352  -17.4936 C   0  0  0  0  0  0  0  0  0  0  0  0
   19.3840   -8.2895  -18.0785 C   0  0  2  0  0  0  0  0  0  0  0  0
   20.5702   -8.9665  -18.5526 N   0  0  0  0  0  0  0  0  0  0  0  0
   19.7909   -7.2992  -17.0679 C   0  0  0  0  0  0  0  0  0  0  0  0
   20.8653   -7.3718  -16.4183 O   0  0  0  0  0  0  0  0  0  0  0  0
   18.9561   -6.2226  -16.8057 O   0  0  0  0  0  0  0  0  0  0  0  0
  2  1  1  0
  3  2  1  0
  4  3  1  0
  5  4  1  0
  5  6  1  1
  7  8  2  0
  7  5  1  0
  9  7  1  0
 10 11  1  0
 10  9  1  0
 11 15  1  0
 12 11  2  0
 14 13  1  1
 14 16  1  0
 15 14  1  0
 16 17  2  0
 16 18  1  0
M  END
$$$$
