MGA.pdb
     RDKit          3D

 18 17  0  0  1  0  0  0  0  0999 V2000
   12.9667  -12.7896  -12.1241 C   0  0  0  0  0  0  0  0  0  0  0  0
   13.9972  -12.8386  -13.5809 S   0  0  0  0  0  0  0  0  0  0  0  0
   15.3337  -11.6960  -13.6156 C   0  0  0  0  0  0  0  0  0  0  0  0
   15.7336  -10.9695  -12.3816 C   0  0  0  0  0  0  0  0  0  0  0  0
   16.8385  -10.0105  -12.5324 C   0  0  2  0  0  0  0  0  0  0  0  0
   18.0514  -10.7004  -12.8981 N   0  0  0  0  0  0  0  0  0  0  0  0
   17.1213   -9.2184  -11.3098 C   0  0  0  0  0  0  0  0  0  0  0  0
   18.2548   -9.2447  -10.7677 O   0  0  0  0  0  0  0  0  0  0  0  0
   16.1439   -8.3857  -10.6745 N   0  0  0  0  0  0  0  0  0  0  0  0
   16.4334   -7.5603   -9.5432 C   0  0  0  0  0  0  0  0  0  0  0  0
   15.2860   -6.7188   -9.1207 C   0  0  0  0  0  0  0  0  0  0  0  0
   14.3213   -6.4697   -9.8696 O   0  0  0  0  0  0  0  0  0  0  0  0
   14.5331   -5.0837   -5.8290 C   0  0  0  0  0  0  0  0  0  0  0  0
   14.2753   -5.3389   -7.3031 C   0  0  2  0  0  0  0  0  0  0  0  0
   15.3302   -6.1952   -7.7974 N   0  0  0  0  0  0  0  0  0  0  0  0
   14.2927   -4.0893   -8.0814 C   0  0  0  0  0  0  0  0  0  0  0  0
   15.3201   -3.6413   -8.6520 O   0  0  0  0  0  0  0  0  0  0  0  0
   13.1222   -3.3543   -8.2015 O   0  0  0  0  0  0  0  0  0  0  0  0
  2  1  1  0
  3  2  1  0
  4  3  1  0
  5  4  1  0
  5  6  1  1
  7  8  2  0
  7  5  1  0
  9  7  1  0
 10 11  1  0
 10  9  1  0
 11 15  1  0
 12 11  2  0
 14 13  1  1
 14 16  1  0
 15 14  1  0
 16 17  2  0
 16 18  1  0
M  END
$$$$
