MGA.pdb
     RDKit          3D

 18 17  0  0  1  0  0  0  0  0999 V2000
   17.5727  -14.9791  -17.9627 C   0  0  0  0  0  0  0  0  0  0  0  0
   17.2508  -13.4641  -17.0751 S   0  0  0  0  0  0  0  0  0  0  0  0
   18.6087  -12.3560  -16.9286 C   0  0  0  0  0  0  0  0  0  0  0  0
   18.4905  -11.1280  -16.0987 C   0  0  0  0  0  0  0  0  0  0  0  0
   19.6706  -10.2503  -16.0816 C   0  0  2  0  0  0  0  0  0  0  0  0
   20.8266  -10.9780  -15.6179 N   0  0  0  0  0  0  0  0  0  0  0  0
   19.5180   -9.0506  -15.2217 C   0  0  0  0  0  0  0  0  0  0  0  0
   20.2364   -8.8868  -14.2036 O   0  0  0  0  0  0  0  0  0  0  0  0
   18.5622   -8.0166  -15.4851 N   0  0  0  0  0  0  0  0  0  0  0  0
   18.3843   -6.8790  -14.6371 C   0  0  0  0  0  0  0  0  0  0  0  0
   17.3437   -5.9395  -15.1247 C   0  0  0  0  0  0  0  0  0  0  0  0
   16.8079   -6.0498  -16.2446 O   0  0  0  0  0  0  0  0  0  0  0  0
   15.5955   -3.1119  -13.4018 C   0  0  0  0  0  0  0  0  0  0  0  0
   15.9844   -3.9039  -14.6372 C   0  0  2  0  0  0  0  0  0  0  0  0
   16.9725   -4.8836  -14.2447 N   0  0  0  0  0  0  0  0  0  0  0  0
   16.5770   -3.0398  -15.6715 C   0  0  0  0  0  0  0  0  0  0  0  0
   17.8100   -2.8079  -15.7590 O   0  0  0  0  0  0  0  0  0  0  0  0
   15.7453   -2.4415  -16.6068 O   0  0  0  0  0  0  0  0  0  0  0  0
  2  1  1  0
  3  2  1  0
  4  3  1  0
  5  4  1  0
  5  6  1  1
  7  8  2  0
  7  5  1  0
  9  7  1  0
 10 11  1  0
 10  9  1  0
 11 15  1  0
 12 11  2  0
 14 13  1  1
 14 16  1  0
 15 14  1  0
 16 17  2  0
 16 18  1  0
M  END
$$$$
