MGA.pdb
     RDKit          3D

 18 17  0  0  1  0  0  0  0  0999 V2000
   28.3081  -37.1221  -13.5667 C   0  0  0  0  0  0  0  0  0  0  0  0
   26.6386  -36.8184  -13.0125 S   0  0  0  0  0  0  0  0  0  0  0  0
   25.6033  -35.9453  -14.1345 C   0  0  0  0  0  0  0  0  0  0  0  0
   26.1523  -34.8314  -14.9523 C   0  0  0  0  0  0  0  0  0  0  0  0
   25.9634  -33.4801  -14.4032 C   0  0  2  0  0  0  0  0  0  0  0  0
   24.5913  -33.2932  -13.9991 N   0  0  0  0  0  0  0  0  0  0  0  0
   26.3071  -32.3904  -15.3501 C   0  0  0  0  0  0  0  0  0  0  0  0
   25.4318  -31.5869  -15.7596 O   0  0  0  0  0  0  0  0  0  0  0  0
   27.6318  -32.1815  -15.8537 N   0  0  0  0  0  0  0  0  0  0  0  0
   28.2019  -30.8841  -16.0457 C   0  0  0  0  0  0  0  0  0  0  0  0
   29.6152  -30.9242  -16.4975 C   0  0  0  0  0  0  0  0  0  0  0  0
   30.2801  -29.8943  -16.7226 O   0  0  0  0  0  0  0  0  0  0  0  0
   32.1502  -33.5947  -16.5385 C   0  0  0  0  0  0  0  0  0  0  0  0
   31.5412  -32.3591  -17.1764 C   0  0  2  0  0  0  0  0  0  0  0  0
   30.1957  -32.2131  -16.6679 N   0  0  0  0  0  0  0  0  0  0  0  0
   31.4694  -32.4842  -18.6417 C   0  0  0  0  0  0  0  0  0  0  0  0
   30.4073  -32.7383  -19.2652 O   0  0  0  0  0  0  0  0  0  0  0  0
   32.6259  -32.3163  -19.3893 O   0  0  0  0  0  0  0  0  0  0  0  0
  2  1  1  0
  3  2  1  0
  4  3  1  0
  5  4  1  0
  5  6  1  6
  7  8  2  0
  7  5  1  0
  9  7  1  0
 10 11  1  0
 10  9  1  0
 11 15  1  0
 12 11  2  0
 14 13  1  1
 14 16  1  0
 15 14  1  0
 16 17  2  0
 16 18  1  0
M  END
$$$$
