MPH.pdb
     RDKit          3D

 26 27  0  0  1  0  0  0  0  0999 V2000
   26.4373  -20.9768   -7.6796 C   0  0  0  0  0  0  0  0  0  0  0  0
   26.1921  -20.3578   -9.3628 S   0  0  0  0  0  0  0  0  0  0  0  0
   26.0620  -21.7625  -10.5016 C   0  0  0  0  0  0  0  0  0  0  0  0
   25.6530  -21.2781  -11.8774 C   0  0  0  0  0  0  0  0  0  0  0  0
   26.8519  -20.7034  -12.5955 C   0  0  2  0  0  0  0  0  0  0  0  0
   27.7899  -20.1184  -11.6381 N   0  0  0  0  0  0  0  0  0  0  0  0
   26.5027  -19.6823  -13.5829 C   0  0  0  0  0  0  0  0  0  0  0  0
   26.3196  -18.5082  -13.1727 O   0  0  0  0  0  0  0  0  0  0  0  0
   26.3551  -19.9190  -14.9722 N   0  0  0  0  0  0  0  0  0  0  0  0
   26.5015  -21.1378  -15.7296 C   0  0  0  0  0  0  0  0  0  0  0  0
   27.3621  -20.6579  -16.9054 C   0  0  0  0  0  0  0  0  0  0  0  0
   26.6348  -19.3609  -17.2456 C   0  0  0  0  0  0  0  0  0  0  0  0
   26.0142  -18.9005  -15.9462 C   0  0  1  0  0  0  0  0  0  0  0  0
   24.5395  -18.7234  -16.0509 C   0  0  0  0  0  0  0  0  0  0  0  0
   23.8374  -19.7496  -15.8231 O   0  0  0  0  0  0  0  0  0  0  0  0
   23.9977  -17.4703  -16.3862 N   0  0  0  0  0  0  0  0  0  0  0  0
   22.6244  -17.1802  -15.9895 C   0  0  1  0  0  0  0  0  0  0  0  0
   22.4446  -15.7416  -15.6509 C   0  0  0  0  0  0  0  0  0  0  0  0
   21.0244  -15.4428  -15.3769 C   0  0  0  0  0  0  0  0  0  0  0  0
   19.9859  -16.3731  -15.2253 C   0  0  0  0  0  0  0  0  0  0  0  0
   18.8548  -15.6876  -14.9876 N   0  0  0  0  0  0  0  0  0  0  0  0
   19.1301  -14.3710  -14.9821 C   0  0  0  0  0  0  0  0  0  0  0  0
   20.4401  -14.2321  -15.2175 N   0  0  0  0  0  0  0  0  0  0  0  0
   21.7482  -17.5460  -17.1219 C   0  0  0  0  0  0  0  0  0  0  0  0
   20.6029  -18.0301  -16.9231 O   0  0  0  0  0  0  0  0  0  0  0  0
   22.2289  -17.3385  -18.4201 O   0  0  0  0  0  0  0  0  0  0  0  0
  2  1  1  0
  3  2  1  0
  3  4  1  0
  4  5  1  0
  5  6  1  1
  5  7  1  0
  7  8  2  0
  9  7  1  0
  9 13  1  0
 10 11  1  0
 10  9  1  0
 11 12  1  0
 12 13  1  0
 13 14  1  6
 14 15  2  0
 16 17  1  0
 16 14  1  0
 17 24  1  0
 17 18  1  6
 19 18  1  0
 20 19  2  0
 21 20  1  0
 22 21  1  0
 22 23  2  0
 23 19  1  0
 24 26  1  0
 25 24  2  0
M  END
$$$$
