MPH.pdb
     RDKit          3D

 26 27  0  0  1  0  0  0  0  0999 V2000
   18.2982  -14.5568    1.7572 C   0  0  0  0  0  0  0  0  0  0  0  0
   19.7186  -13.4942    2.1173 S   0  0  0  0  0  0  0  0  0  0  0  0
   19.3348  -12.4507    3.5493 C   0  0  0  0  0  0  0  0  0  0  0  0
   18.8400  -13.3070    4.6967 C   0  0  0  0  0  0  0  0  0  0  0  0
   18.5862  -12.4417    5.9093 C   0  0  2  0  0  0  0  0  0  0  0  0
   19.8421  -11.8899    6.4161 N   0  0  0  0  0  0  0  0  0  0  0  0
   17.9203  -13.1526    7.0006 C   0  0  0  0  0  0  0  0  0  0  0  0
   18.6388  -13.6229    7.9187 O   0  0  0  0  0  0  0  0  0  0  0  0
   16.5208  -13.3508    7.1003 N   0  0  0  0  0  0  0  0  0  0  0  0
   15.4704  -13.0659    6.1536 C   0  0  0  0  0  0  0  0  0  0  0  0
   14.4401  -12.3681    7.0508 C   0  0  0  0  0  0  0  0  0  0  0  0
   14.4638  -13.3087    8.2516 C   0  0  0  0  0  0  0  0  0  0  0  0
   15.8518  -13.9082    8.2595 C   0  0  1  0  0  0  0  0  0  0  0  0
   15.8295  -15.3962    8.2087 C   0  0  0  0  0  0  0  0  0  0  0  0
   15.2929  -15.9794    9.1934 O   0  0  0  0  0  0  0  0  0  0  0  0
   16.3841  -16.0766    7.1107 N   0  0  0  0  0  0  0  0  0  0  0  0
   16.3710  -17.5351    7.1205 C   0  0  1  0  0  0  0  0  0  0  0  0
   15.2431  -18.0780    6.3144 C   0  0  0  0  0  0  0  0  0  0  0  0
   15.3124  -17.5888    4.9226 C   0  0  0  0  0  0  0  0  0  0  0  0
   16.2728  -16.7186    4.3865 C   0  0  0  0  0  0  0  0  0  0  0  0
   15.9739  -16.5289    3.0903 N   0  0  0  0  0  0  0  0  0  0  0  0
   14.8722  -17.2370    2.7836 C   0  0  0  0  0  0  0  0  0  0  0  0
   14.4799  -17.8730    3.8937 N   0  0  0  0  0  0  0  0  0  0  0  0
   17.6590  -17.9947    6.5606 C   0  0  0  0  0  0  0  0  0  0  0  0
   17.9676  -19.2155    6.5658 O   0  0  0  0  0  0  0  0  0  0  0  0
   18.5246  -17.0336    6.0251 O   0  0  0  0  0  0  0  0  0  0  0  0
  2  1  1  0
  3  2  1  0
  3  4  1  0
  4  5  1  0
  5  6  1  1
  5  7  1  0
  7  8  2  0
  9  7  1  0
  9 13  1  0
 10 11  1  0
 10  9  1  0
 11 12  1  0
 12 13  1  0
 13 14  1  6
 14 15  2  0
 16 17  1  0
 16 14  1  0
 17 24  1  0
 17 18  1  6
 19 18  1  0
 20 19  2  0
 21 20  1  0
 22 21  1  0
 22 23  2  0
 23 19  1  0
 24 26  1  0
 25 24  2  0
M  END
$$$$
