MPH.pdb
     RDKit          3D

 26 27  0  0  1  0  0  0  0  0999 V2000
   21.8378  -11.4824    8.0370 C   0  0  0  0  0  0  0  0  0  0  0  0
   21.4309  -11.4507    6.2735 S   0  0  0  0  0  0  0  0  0  0  0  0
   19.6285  -11.4329    6.0776 C   0  0  0  0  0  0  0  0  0  0  0  0
   19.1633  -12.7283    5.4449 C   0  0  0  0  0  0  0  0  0  0  0  0
   17.6568  -12.8214    5.5171 C   0  0  2  0  0  0  0  0  0  0  0  0
   17.1087  -11.6857    6.2578 N   0  0  0  0  0  0  0  0  0  0  0  0
   17.1808  -14.0546    6.1436 C   0  0  0  0  0  0  0  0  0  0  0  0
   16.6706  -13.9710    7.2896 O   0  0  0  0  0  0  0  0  0  0  0  0
   17.2520  -15.3405    5.5528 N   0  0  0  0  0  0  0  0  0  0  0  0
   17.7427  -15.7442    4.2579 C   0  0  0  0  0  0  0  0  0  0  0  0
   16.6166  -16.6736    3.7875 C   0  0  0  0  0  0  0  0  0  0  0  0
   16.4005  -17.4835    5.0621 C   0  0  0  0  0  0  0  0  0  0  0  0
   16.8036  -16.5626    6.1913 C   0  0  1  0  0  0  0  0  0  0  0  0
   17.8701  -17.1477    7.0500 C   0  0  0  0  0  0  0  0  0  0  0  0
   19.0608  -16.8867    6.7154 O   0  0  0  0  0  0  0  0  0  0  0  0
   17.5312  -17.9399    8.1608 N   0  0  0  0  0  0  0  0  0  0  0  0
   18.5954  -18.3509    9.0697 C   0  0  1  0  0  0  0  0  0  0  0  0
   18.3162  -17.9240   10.4684 C   0  0  0  0  0  0  0  0  0  0  0  0
   18.7024  -16.5129   10.6711 C   0  0  0  0  0  0  0  0  0  0  0  0
   19.6409  -15.7850    9.9253 C   0  0  0  0  0  0  0  0  0  0  0  0
   19.6927  -14.5427   10.4348 N   0  0  0  0  0  0  0  0  0  0  0  0
   18.8326  -14.4524   11.4650 C   0  0  0  0  0  0  0  0  0  0  0  0
   18.2398  -15.6445   11.6007 N   0  0  0  0  0  0  0  0  0  0  0  0
   18.6939  -19.8238    9.0012 C   0  0  0  0  0  0  0  0  0  0  0  0
   17.9095  -20.4914    8.2768 O   0  0  0  0  0  0  0  0  0  0  0  0
   19.6839  -20.4536    9.7645 O   0  0  0  0  0  0  0  0  0  0  0  0
  2  1  1  0
  3  2  1  0
  3  4  1  0
  4  5  1  0
  5  6  1  1
  5  7  1  0
  7  8  2  0
  9  7  1  0
  9 13  1  0
 10 11  1  0
 10  9  1  0
 11 12  1  0
 12 13  1  0
 13 14  1  6
 14 15  2  0
 16 17  1  0
 16 14  1  0
 17 24  1  0
 17 18  1  1
 19 18  1  0
 20 19  2  0
 21 20  1  0
 22 21  1  0
 22 23  2  0
 23 19  1  0
 24 26  1  0
 25 24  2  0
M  END
$$$$
