MPH.pdb
     RDKit          3D

 26 27  0  0  1  0  0  0  0  0999 V2000
   17.4104  -12.9082  -20.2036 C   0  0  0  0  0  0  0  0  0  0  0  0
   18.6837  -11.9441  -21.0554 S   0  0  0  0  0  0  0  0  0  0  0  0
   20.2853  -12.2343  -20.2569 C   0  0  0  0  0  0  0  0  0  0  0  0
   20.5227  -11.1965  -19.1793 C   0  0  0  0  0  0  0  0  0  0  0  0
   21.7946  -11.5183  -18.4295 C   0  0  2  0  0  0  0  0  0  0  0  0
   21.6696  -12.7997  -17.7360 N   0  0  0  0  0  0  0  0  0  0  0  0
   22.1652  -10.4971  -17.4499 C   0  0  0  0  0  0  0  0  0  0  0  0
   21.7942  -10.6635  -16.2604 O   0  0  0  0  0  0  0  0  0  0  0  0
   22.9140   -9.3305  -17.7432 N   0  0  0  0  0  0  0  0  0  0  0  0
   23.4559   -8.8623  -18.9954 C   0  0  0  0  0  0  0  0  0  0  0  0
   24.8820   -8.4792  -18.5798 C   0  0  0  0  0  0  0  0  0  0  0  0
   24.5814   -7.7273  -17.2870 C   0  0  0  0  0  0  0  0  0  0  0  0
   23.3008   -8.3357  -16.7619 C   0  0  1  0  0  0  0  0  0  0  0  0
   22.2276   -7.3224  -16.5659 C   0  0  0  0  0  0  0  0  0  0  0  0
   21.4739   -7.1098  -17.5583 O   0  0  0  0  0  0  0  0  0  0  0  0
   22.0929   -6.6614  -15.3325 N   0  0  0  0  0  0  0  0  0  0  0  0
   21.0124   -5.6938  -15.1790 C   0  0  1  0  0  0  0  0  0  0  0  0
   19.6863   -6.3641  -15.0855 C   0  0  0  0  0  0  0  0  0  0  0  0
   19.6320   -7.2533  -13.9075 C   0  0  0  0  0  0  0  0  0  0  0  0
   19.8354   -8.6408  -13.8942 C   0  0  0  0  0  0  0  0  0  0  0  0
   19.6978   -9.0617  -12.6256 N   0  0  0  0  0  0  0  0  0  0  0  0
   19.4176   -8.0072  -11.8390 C   0  0  0  0  0  0  0  0  0  0  0  0
   19.3798   -6.9209  -12.6197 N   0  0  0  0  0  0  0  0  0  0  0  0
   21.2773   -4.9240  -13.9457 C   0  0  0  0  0  0  0  0  0  0  0  0
   22.2257   -5.2376  -13.1789 O   0  0  0  0  0  0  0  0  0  0  0  0
   20.4438   -3.8374  -13.6559 O   0  0  0  0  0  0  0  0  0  0  0  0
  2  1  1  0
  3  2  1  0
  3  4  1  0
  4  5  1  0
  5  6  1  1
  5  7  1  0
  7  8  2  0
  9  7  1  0
  9 13  1  0
 10 11  1  0
 10  9  1  0
 11 12  1  0
 12 13  1  0
 13 14  1  6
 14 15  2  0
 16 17  1  0
 16 14  1  0
 17 24  1  0
 17 18  1  1
 19 18  1  0
 20 19  2  0
 21 20  1  0
 22 21  1  0
 22 23  2  0
 23 19  1  0
 24 26  1  0
 25 24  2  0
M  END
$$$$
