MPH.pdb
     RDKit          3D

 26 27  0  0  1  0  0  0  0  0999 V2000
   21.3611  -15.2757  -20.6906 C   0  0  0  0  0  0  0  0  0  0  0  0
   23.0628  -14.7207  -20.9602 S   0  0  0  0  0  0  0  0  0  0  0  0
   24.0070  -14.9261  -19.4261 C   0  0  0  0  0  0  0  0  0  0  0  0
   23.7775  -13.7390  -18.5135 C   0  0  0  0  0  0  0  0  0  0  0  0
   24.4557  -13.9762  -17.1842 C   0  0  2  0  0  0  0  0  0  0  0  0
   23.9018  -15.1620  -16.5315 N   0  0  0  0  0  0  0  0  0  0  0  0
   24.3397  -12.8456  -16.2633 C   0  0  0  0  0  0  0  0  0  0  0  0
   23.4301  -12.8861  -15.3966 O   0  0  0  0  0  0  0  0  0  0  0  0
   25.1795  -11.7043  -16.2757 N   0  0  0  0  0  0  0  0  0  0  0  0
   26.3691  -11.4321  -17.0448 C   0  0  0  0  0  0  0  0  0  0  0  0
   27.3097  -10.8920  -15.9599 C   0  0  0  0  0  0  0  0  0  0  0  0
   26.3563   -9.9434  -15.2400 C   0  0  0  0  0  0  0  0  0  0  0  0
   24.9785  -10.5290  -15.4509 C   0  0  1  0  0  0  0  0  0  0  0  0
   24.0439   -9.5669  -16.0975 C   0  0  0  0  0  0  0  0  0  0  0  0
   24.1289   -9.4671  -17.3548 O   0  0  0  0  0  0  0  0  0  0  0  0
   23.1338   -8.8304  -15.3195 N   0  0  0  0  0  0  0  0  0  0  0  0
   22.1802   -7.9638  -16.0029 C   0  0  1  0  0  0  0  0  0  0  0  0
   21.2882   -8.7383  -16.9090 C   0  0  0  0  0  0  0  0  0  0  0  0
   20.3756   -9.6011  -16.1318 C   0  0  0  0  0  0  0  0  0  0  0  0
   20.3785   -9.7873  -14.7418 C   0  0  0  0  0  0  0  0  0  0  0  0
   19.3903  -10.6475  -14.4428 N   0  0  0  0  0  0  0  0  0  0  0  0
   18.7651  -11.0122  -15.5765 C   0  0  0  0  0  0  0  0  0  0  0  0
   19.3653  -10.3769  -16.5899 N   0  0  0  0  0  0  0  0  0  0  0  0
   21.3779   -7.2814  -14.9663 C   0  0  0  0  0  0  0  0  0  0  0  0
   21.5121   -7.5730  -13.7486 O   0  0  0  0  0  0  0  0  0  0  0  0
   20.4657   -6.3027  -15.3780 O   0  0  0  0  0  0  0  0  0  0  0  0
  2  1  1  0
  3  2  1  0
  3  4  1  0
  4  5  1  0
  5  6  1  1
  5  7  1  0
  7  8  2  0
  9  7  1  0
  9 13  1  0
 10 11  1  0
 10  9  1  0
 11 12  1  0
 12 13  1  0
 13 14  1  6
 14 15  2  0
 16 17  1  0
 16 14  1  0
 17 24  1  0
 17 18  1  6
 19 18  1  0
 20 19  2  0
 21 20  1  0
 22 21  1  0
 22 23  2  0
 23 19  1  0
 24 26  1  0
 25 24  2  0
M  END
$$$$
