MPH.pdb
     RDKit          3D

 26 27  0  0  1  0  0  0  0  0999 V2000
   25.5396  -12.4146  -22.2566 C   0  0  0  0  0  0  0  0  0  0  0  0
   24.9607  -11.1774  -21.0689 S   0  0  0  0  0  0  0  0  0  0  0  0
   23.8747  -11.9766  -19.8569 C   0  0  0  0  0  0  0  0  0  0  0  0
   23.2747  -10.9365  -18.9335 C   0  0  0  0  0  0  0  0  0  0  0  0
   22.3394  -11.6023  -17.9510 C   0  0  2  0  0  0  0  0  0  0  0  0
   21.1244  -12.0552  -18.6274 N   0  0  0  0  0  0  0  0  0  0  0  0
   21.9528  -10.7349  -16.8384 C   0  0  0  0  0  0  0  0  0  0  0  0
   20.8876  -10.0768  -16.9507 O   0  0  0  0  0  0  0  0  0  0  0  0
   22.6920  -10.5811  -15.6394 N   0  0  0  0  0  0  0  0  0  0  0  0
   23.9122  -11.2191  -15.2096 C   0  0  0  0  0  0  0  0  0  0  0  0
   23.5508  -11.6199  -13.7736 C   0  0  0  0  0  0  0  0  0  0  0  0
   22.8889  -10.3283  -13.3036 C   0  0  0  0  0  0  0  0  0  0  0  0
   22.3183   -9.6966  -14.5530 C   0  0  1  0  0  0  0  0  0  0  0  0
   22.8302   -8.3165  -14.7779 C   0  0  0  0  0  0  0  0  0  0  0  0
   23.8891   -8.2194  -15.4614 O   0  0  0  0  0  0  0  0  0  0  0  0
   22.1461   -7.2106  -14.2439 N   0  0  0  0  0  0  0  0  0  0  0  0
   22.6508   -5.8744  -14.5397 C   0  0  1  0  0  0  0  0  0  0  0  0
   22.6114   -5.5850  -15.9996 C   0  0  0  0  0  0  0  0  0  0  0  0
   21.2199   -5.5829  -16.4946 C   0  0  0  0  0  0  0  0  0  0  0  0
   20.0671   -5.8897  -15.7572 C   0  0  0  0  0  0  0  0  0  0  0  0
   19.0115   -5.7676  -16.5796 N   0  0  0  0  0  0  0  0  0  0  0  0
   19.4429   -5.3989  -17.7991 C   0  0  0  0  0  0  0  0  0  0  0  0
   20.7754   -5.2898  -17.7392 N   0  0  0  0  0  0  0  0  0  0  0  0
   21.8037   -4.9080  -13.8101 C   0  0  0  0  0  0  0  0  0  0  0  0
   20.7432   -5.2784  -13.2411 O   0  0  0  0  0  0  0  0  0  0  0  0
   22.2151   -3.5706  -13.7704 O   0  0  0  0  0  0  0  0  0  0  0  0
  2  1  1  0
  3  2  1  0
  3  4  1  0
  4  5  1  0
  5  6  1  6
  5  7  1  0
  7  8  2  0
  9  7  1  0
  9 13  1  0
 10 11  1  0
 10  9  1  0
 11 12  1  0
 12 13  1  0
 13 14  1  6
 14 15  2  0
 16 17  1  0
 16 14  1  0
 17 24  1  0
 17 18  1  6
 19 18  1  0
 20 19  2  0
 21 20  1  0
 22 21  1  0
 22 23  2  0
 23 19  1  0
 24 26  1  0
 25 24  2  0
M  END
$$$$
