MPH.pdb
     RDKit          3D

 26 27  0  0  1  0  0  0  0  0999 V2000
   27.1687  -15.9986  -14.7289 C   0  0  0  0  0  0  0  0  0  0  0  0
   26.3776  -16.7311  -16.1828 S   0  0  0  0  0  0  0  0  0  0  0  0
   26.6379  -18.5252  -16.1629 C   0  0  0  0  0  0  0  0  0  0  0  0
   28.0357  -18.8406  -15.6718 C   0  0  0  0  0  0  0  0  0  0  0  0
   28.2209  -20.3375  -15.5804 C   0  0  2  0  0  0  0  0  0  0  0  0
   27.9633  -20.9651  -16.8760 N   0  0  0  0  0  0  0  0  0  0  0  0
   27.3589  -20.9692  -14.5815 C   0  0  0  0  0  0  0  0  0  0  0  0
   26.4435  -21.7268  -14.9919 O   0  0  0  0  0  0  0  0  0  0  0  0
   27.4796  -20.7901  -13.1812 N   0  0  0  0  0  0  0  0  0  0  0  0
   28.3947  -19.9730  -12.4226 C   0  0  0  0  0  0  0  0  0  0  0  0
   28.8516  -20.9603  -11.3410 C   0  0  0  0  0  0  0  0  0  0  0  0
   27.5039  -21.5607  -10.9531 C   0  0  0  0  0  0  0  0  0  0  0  0
   26.6483  -21.4521  -12.1948 C   0  0  1  0  0  0  0  0  0  0  0  0
   25.3882  -20.6963  -11.9536 C   0  0  0  0  0  0  0  0  0  0  0  0
   25.5027  -19.6114  -11.3150 O   0  0  0  0  0  0  0  0  0  0  0  0
   24.1611  -21.1943  -12.4253 N   0  0  0  0  0  0  0  0  0  0  0  0
   22.9652  -20.3804  -12.2393 C   0  0  1  0  0  0  0  0  0  0  0  0
   23.0436  -19.1081  -13.0085 C   0  0  0  0  0  0  0  0  0  0  0  0
   23.1263  -19.3781  -14.4582 C   0  0  0  0  0  0  0  0  0  0  0  0
   23.2501  -20.6331  -15.0716 C   0  0  0  0  0  0  0  0  0  0  0  0
   23.2909  -20.4362  -16.4002 N   0  0  0  0  0  0  0  0  0  0  0  0
   23.1989  -19.1185  -16.6537 C   0  0  0  0  0  0  0  0  0  0  0  0
   23.1000  -18.4878  -15.4775 N   0  0  0  0  0  0  0  0  0  0  0  0
   21.8091  -21.1780  -12.6987 C   0  0  0  0  0  0  0  0  0  0  0  0
   20.6304  -20.7801  -12.5036 O   0  0  0  0  0  0  0  0  0  0  0  0
   22.0632  -22.3872  -13.3565 O   0  0  0  0  0  0  0  0  0  0  0  0
  2  1  1  0
  3  2  1  0
  3  4  1  0
  4  5  1  0
  5  6  1  6
  5  7  1  0
  7  8  2  0
  9  7  1  0
  9 13  1  0
 10 11  1  0
 10  9  1  0
 11 12  1  0
 12 13  1  0
 13 14  1  1
 14 15  2  0
 16 17  1  0
 16 14  1  0
 17 24  1  0
 17 18  1  6
 19 18  1  0
 20 19  2  0
 21 20  1  0
 22 21  1  0
 22 23  2  0
 23 19  1  0
 24 26  1  0
 25 24  2  0
M  END
$$$$
