MPH.pdb
     RDKit          3D

 26 27  0  0  1  0  0  0  0  0999 V2000
   17.8854  -19.5454  -10.3952 C   0  0  0  0  0  0  0  0  0  0  0  0
   18.2095  -19.0111  -12.0940 S   0  0  0  0  0  0  0  0  0  0  0  0
   19.3348  -20.1915  -12.8860 C   0  0  0  0  0  0  0  0  0  0  0  0
   20.7517  -19.6565  -12.8565 C   0  0  0  0  0  0  0  0  0  0  0  0
   21.7276  -20.7996  -12.7004 C   0  0  2  0  0  0  0  0  0  0  0  0
   21.6637  -21.6890  -13.8596 N   0  0  0  0  0  0  0  0  0  0  0  0
   21.5012  -21.5957  -11.4943 C   0  0  0  0  0  0  0  0  0  0  0  0
   21.0411  -22.7570  -11.6361 O   0  0  0  0  0  0  0  0  0  0  0  0
   21.7629  -21.1538  -10.1738 N   0  0  0  0  0  0  0  0  0  0  0  0
   22.2056  -19.8679   -9.6929 C   0  0  0  0  0  0  0  0  0  0  0  0
   23.3194  -20.2790   -8.7213 C   0  0  0  0  0  0  0  0  0  0  0  0
   22.6186  -21.4217   -7.9933 C   0  0  0  0  0  0  0  0  0  0  0  0
   21.6290  -21.9807   -8.9903 C   0  0  1  0  0  0  0  0  0  0  0  0
   20.2321  -21.9666   -8.4750 C   0  0  0  0  0  0  0  0  0  0  0  0
   19.4432  -21.1467   -9.0258 O   0  0  0  0  0  0  0  0  0  0  0  0
   19.8514  -22.8313   -7.4341 N   0  0  0  0  0  0  0  0  0  0  0  0
   18.6168  -23.5936   -7.5828 C   0  0  1  0  0  0  0  0  0  0  0  0
   18.6595  -24.4768   -8.7806 C   0  0  0  0  0  0  0  0  0  0  0  0
   17.3466  -25.1143   -9.0069 C   0  0  0  0  0  0  0  0  0  0  0  0
   16.1869  -24.9417   -8.2374 C   0  0  0  0  0  0  0  0  0  0  0  0
   15.2189  -25.6981   -8.7821 N   0  0  0  0  0  0  0  0  0  0  0  0
   15.7122  -26.3387   -9.8570 C   0  0  0  0  0  0  0  0  0  0  0  0
   16.9954  -25.9812   -9.9855 N   0  0  0  0  0  0  0  0  0  0  0  0
   18.4472  -24.4073   -6.3609 C   0  0  0  0  0  0  0  0  0  0  0  0
   19.4356  -24.9586   -5.8088 O   0  0  0  0  0  0  0  0  0  0  0  0
   17.1568  -24.5465   -5.8364 O   0  0  0  0  0  0  0  0  0  0  0  0
  2  1  1  0
  3  2  1  0
  3  4  1  0
  4  5  1  0
  5  6  1  6
  5  7  1  0
  7  8  2  0
  9  7  1  0
  9 13  1  0
 10 11  1  0
 10  9  1  0
 11 12  1  0
 12 13  1  0
 13 14  1  1
 14 15  2  0
 16 17  1  0
 16 14  1  0
 17 24  1  0
 17 18  1  6
 19 18  1  0
 20 19  2  0
 21 20  1  0
 22 21  1  0
 22 23  2  0
 23 19  1  0
 24 26  1  0
 25 24  2  0
M  END
$$$$
