MPH.pdb
     RDKit          3D

 26 27  0  0  1  0  0  0  0  0999 V2000
   23.6265   -8.8025  -22.2040 C   0  0  0  0  0  0  0  0  0  0  0  0
   21.8983   -9.3109  -22.3808 S   0  0  0  0  0  0  0  0  0  0  0  0
   21.5700  -10.7044  -21.2685 C   0  0  0  0  0  0  0  0  0  0  0  0
   21.4571  -10.2121  -19.8403 C   0  0  0  0  0  0  0  0  0  0  0  0
   21.2509  -11.3843  -18.9093 C   0  0  2  0  0  0  0  0  0  0  0  0
   19.9921  -12.0639  -19.2131 N   0  0  0  0  0  0  0  0  0  0  0  0
   21.2435  -11.0085  -17.4956 C   0  0  0  0  0  0  0  0  0  0  0  0
   20.1292  -10.8219  -16.9443 O   0  0  0  0  0  0  0  0  0  0  0  0
   22.4028  -10.8387  -16.6987 N   0  0  0  0  0  0  0  0  0  0  0  0
   23.7880  -11.1026  -17.0024 C   0  0  0  0  0  0  0  0  0  0  0  0
   24.2329  -11.8545  -15.7414 C   0  0  0  0  0  0  0  0  0  0  0  0
   23.6044  -10.9639  -14.6742 C   0  0  0  0  0  0  0  0  0  0  0  0
   22.3965  -10.3413  -15.3369 C   0  0  1  0  0  0  0  0  0  0  0  0
   22.4328   -8.8532  -15.3036 C   0  0  0  0  0  0  0  0  0  0  0  0
   23.1177   -8.2922  -16.2059 O   0  0  0  0  0  0  0  0  0  0  0  0
   21.7318   -8.1487  -14.3094 N   0  0  0  0  0  0  0  0  0  0  0  0
   21.6617   -6.6952  -14.4086 C   0  0  1  0  0  0  0  0  0  0  0  0
   21.1278   -6.2616  -15.7291 C   0  0  0  0  0  0  0  0  0  0  0  0
   21.0436   -4.7889  -15.8008 C   0  0  0  0  0  0  0  0  0  0  0  0
   22.0942   -3.8789  -15.6138 C   0  0  0  0  0  0  0  0  0  0  0  0
   21.5940   -2.6408  -15.7645 N   0  0  0  0  0  0  0  0  0  0  0  0
   20.2797   -2.7265  -16.0373 C   0  0  0  0  0  0  0  0  0  0  0  0
   19.9560   -4.0248  -16.0573 N   0  0  0  0  0  0  0  0  0  0  0  0
   20.7775   -6.2180  -13.3249 C   0  0  0  0  0  0  0  0  0  0  0  0
   20.1716   -7.0319  -12.5791 O   0  0  0  0  0  0  0  0  0  0  0  0
   20.6341   -4.8363  -13.1525 O   0  0  0  0  0  0  0  0  0  0  0  0
  2  1  1  0
  3  2  1  0
  3  4  1  0
  4  5  1  0
  5  6  1  6
  5  7  1  0
  7  8  2  0
  9  7  1  0
  9 13  1  0
 10 11  1  0
 10  9  1  0
 11 12  1  0
 12 13  1  0
 13 14  1  6
 14 15  2  0
 16 17  1  0
 16 14  1  0
 17 24  1  0
 17 18  1  6
 19 18  1  0
 20 19  2  0
 21 20  1  0
 22 21  1  0
 22 23  2  0
 23 19  1  0
 24 26  1  0
 25 24  2  0
M  END
$$$$
