MPH.pdb
     RDKit          3D

 26 27  0  0  1  0  0  0  0  0999 V2000
   26.0738  -15.5205  -14.1668 C   0  0  0  0  0  0  0  0  0  0  0  0
   24.3919  -15.8895  -14.7248 S   0  0  0  0  0  0  0  0  0  0  0  0
   24.2303  -17.6756  -14.9911 C   0  0  0  0  0  0  0  0  0  0  0  0
   25.2169  -18.1337  -16.0454 C   0  0  0  0  0  0  0  0  0  0  0  0
   25.1835  -19.6402  -16.1581 C   0  0  2  0  0  0  0  0  0  0  0  0
   23.8548  -20.0934  -16.5678 N   0  0  0  0  0  0  0  0  0  0  0  0
   25.5417  -20.3234  -14.9152 C   0  0  0  0  0  0  0  0  0  0  0  0
   24.6429  -20.9729  -14.3231 O   0  0  0  0  0  0  0  0  0  0  0  0
   26.8308  -20.3075  -14.3273 N   0  0  0  0  0  0  0  0  0  0  0  0
   27.9881  -19.5062  -14.6427 C   0  0  0  0  0  0  0  0  0  0  0  0
   29.0922  -20.5711  -14.6656 C   0  0  0  0  0  0  0  0  0  0  0  0
   28.7353  -21.3408  -13.3978 C   0  0  0  0  0  0  0  0  0  0  0  0
   27.2432  -21.1624  -13.2313 C   0  0  1  0  0  0  0  0  0  0  0  0
   26.8846  -20.5662  -11.9148 C   0  0  0  0  0  0  0  0  0  0  0  0
   27.7276  -19.7665  -11.4171 O   0  0  0  0  0  0  0  0  0  0  0  0
   25.6684  -20.8990  -11.2933 N   0  0  0  0  0  0  0  0  0  0  0  0
   25.5753  -20.7776   -9.8427 C   0  0  1  0  0  0  0  0  0  0  0  0
   25.9324  -19.4070   -9.3839 C   0  0  0  0  0  0  0  0  0  0  0  0
   26.7322  -19.4629   -8.1435 C   0  0  0  0  0  0  0  0  0  0  0  0
   27.1444  -20.6178   -7.4630 C   0  0  0  0  0  0  0  0  0  0  0  0
   27.8489  -20.2284   -6.3870 N   0  0  0  0  0  0  0  0  0  0  0  0
   27.9006  -18.8847   -6.3565 C   0  0  0  0  0  0  0  0  0  0  0  0
   27.2249  -18.4311   -7.4189 N   0  0  0  0  0  0  0  0  0  0  0  0
   24.1833  -21.0920   -9.4591 C   0  0  0  0  0  0  0  0  0  0  0  0
   23.8925  -21.3953   -8.2720 O   0  0  0  0  0  0  0  0  0  0  0  0
   23.1991  -21.0426  -10.4533 O   0  0  0  0  0  0  0  0  0  0  0  0
  2  1  1  0
  3  2  1  0
  3  4  1  0
  4  5  1  0
  5  6  1  1
  5  7  1  0
  7  8  2  0
  9  7  1  0
  9 13  1  0
 10 11  1  0
 10  9  1  0
 11 12  1  0
 12 13  1  0
 13 14  1  1
 14 15  2  0
 16 17  1  0
 16 14  1  0
 17 24  1  0
 17 18  1  6
 19 18  1  0
 20 19  2  0
 21 20  1  0
 22 21  1  0
 22 23  2  0
 23 19  1  0
 24 26  1  0
 25 24  2  0
M  END
$$$$
