MPH.pdb
     RDKit          3D

 26 27  0  0  1  0  0  0  0  0999 V2000
   23.7914  -13.5789  -19.7326 C   0  0  0  0  0  0  0  0  0  0  0  0
   22.6780  -12.5713  -18.7221 S   0  0  0  0  0  0  0  0  0  0  0  0
   23.6608  -11.5182  -17.6212 C   0  0  0  0  0  0  0  0  0  0  0  0
   22.7457  -10.6720  -16.7602 C   0  0  0  0  0  0  0  0  0  0  0  0
   23.5663   -9.8575  -15.7873 C   0  0  2  0  0  0  0  0  0  0  0  0
   24.2793  -10.7347  -14.8594 N   0  0  0  0  0  0  0  0  0  0  0  0
   22.7703   -8.9097  -15.0077 C   0  0  0  0  0  0  0  0  0  0  0  0
   22.2492   -9.3207  -13.9400 O   0  0  0  0  0  0  0  0  0  0  0  0
   22.5424   -7.5583  -15.3676 N   0  0  0  0  0  0  0  0  0  0  0  0
   22.9861   -6.8146  -16.5211 C   0  0  0  0  0  0  0  0  0  0  0  0
   23.4955   -5.5238  -15.8671 C   0  0  0  0  0  0  0  0  0  0  0  0
   22.3497   -5.2564  -14.8961 C   0  0  0  0  0  0  0  0  0  0  0  0
   21.7736   -6.6172  -14.5767 C   0  0  1  0  0  0  0  0  0  0  0  0
   20.3205   -6.7078  -14.8885 C   0  0  0  0  0  0  0  0  0  0  0  0
   19.9384   -7.7681  -15.4609 O   0  0  0  0  0  0  0  0  0  0  0  0
   19.4553   -5.6529  -14.5495 N   0  0  0  0  0  0  0  0  0  0  0  0
   18.0520   -5.7566  -14.9338 C   0  0  1  0  0  0  0  0  0  0  0  0
   17.3712   -6.8744  -14.2242 C   0  0  0  0  0  0  0  0  0  0  0  0
   15.9567   -6.9715  -14.6379 C   0  0  0  0  0  0  0  0  0  0  0  0
   14.8889   -6.1966  -14.1623 C   0  0  0  0  0  0  0  0  0  0  0  0
   13.7754   -6.6032  -14.7951 N   0  0  0  0  0  0  0  0  0  0  0  0
   14.0896   -7.5964  -15.6460 C   0  0  0  0  0  0  0  0  0  0  0  0
   15.4065   -7.8122  -15.5450 N   0  0  0  0  0  0  0  0  0  0  0  0
   17.4027   -4.4731  -14.5949 C   0  0  0  0  0  0  0  0  0  0  0  0
   16.4806   -4.0053  -15.3137 O   0  0  0  0  0  0  0  0  0  0  0  0
   17.8426   -3.7941  -13.4526 O   0  0  0  0  0  0  0  0  0  0  0  0
  2  1  1  0
  3  2  1  0
  3  4  1  0
  4  5  1  0
  5  6  1  1
  5  7  1  0
  7  8  2  0
  9  7  1  0
  9 13  1  0
 10 11  1  0
 10  9  1  0
 11 12  1  0
 12 13  1  0
 13 14  1  6
 14 15  2  0
 16 17  1  0
 16 14  1  0
 17 24  1  0
 17 18  1  1
 19 18  1  0
 20 19  2  0
 21 20  1  0
 22 21  1  0
 22 23  2  0
 23 19  1  0
 24 26  1  0
 25 24  2  0
M  END
$$$$
