MPH.pdb
     RDKit          3D

 26 27  0  0  1  0  0  0  0  0999 V2000
   20.8113  -21.2959  -10.4340 C   0  0  0  0  0  0  0  0  0  0  0  0
   21.7991  -20.9150   -8.9658 S   0  0  0  0  0  0  0  0  0  0  0  0
   23.5591  -21.0039   -9.3919 C   0  0  0  0  0  0  0  0  0  0  0  0
   23.8078  -20.3088  -10.7146 C   0  0  0  0  0  0  0  0  0  0  0  0
   25.2543  -20.4776  -11.1180 C   0  0  2  0  0  0  0  0  0  0  0  0
   26.1403  -19.9822  -10.0651 N   0  0  0  0  0  0  0  0  0  0  0  0
   25.5926  -19.7937  -12.3660 C   0  0  0  0  0  0  0  0  0  0  0  0
   25.2637  -18.5857  -12.4805 O   0  0  0  0  0  0  0  0  0  0  0  0
   26.2658  -20.3936  -13.4591 N   0  0  0  0  0  0  0  0  0  0  0  0
   26.7668  -21.7366  -13.6202 C   0  0  0  0  0  0  0  0  0  0  0  0
   28.1704  -21.4675  -14.1779 C   0  0  0  0  0  0  0  0  0  0  0  0
   27.8356  -20.4030  -15.2180 C   0  0  0  0  0  0  0  0  0  0  0  0
   26.5994  -19.7089  -14.6928 C   0  0  1  0  0  0  0  0  0  0  0  0
   25.4678  -19.7525  -15.6595 C   0  0  0  0  0  0  0  0  0  0  0  0
   24.7638  -20.8024  -15.6463 O   0  0  0  0  0  0  0  0  0  0  0  0
   25.2289  -18.6678  -16.5211 N   0  0  0  0  0  0  0  0  0  0  0  0
   24.0876  -18.7400  -17.4266 C   0  0  1  0  0  0  0  0  0  0  0  0
   23.1314  -17.6231  -17.1925 C   0  0  0  0  0  0  0  0  0  0  0  0
   22.3692  -17.8402  -15.9462 C   0  0  0  0  0  0  0  0  0  0  0  0
   22.3146  -19.0210  -15.1916 C   0  0  0  0  0  0  0  0  0  0  0  0
   21.5119  -18.7957  -14.1377 N   0  0  0  0  0  0  0  0  0  0  0  0
   21.0583  -17.5305  -14.1916 C   0  0  0  0  0  0  0  0  0  0  0  0
   21.5798  -16.9616  -15.2848 N   0  0  0  0  0  0  0  0  0  0  0  0
   24.6110  -18.6760  -18.8070 C   0  0  0  0  0  0  0  0  0  0  0  0
   25.8218  -18.4098  -19.0278 O   0  0  0  0  0  0  0  0  0  0  0  0
   23.7218  -18.9199  -19.8603 O   0  0  0  0  0  0  0  0  0  0  0  0
  2  1  1  0
  3  2  1  0
  3  4  1  0
  4  5  1  0
  5  6  1  1
  5  7  1  0
  7  8  2  0
  9  7  1  0
  9 13  1  0
 10 11  1  0
 10  9  1  0
 11 12  1  0
 12 13  1  0
 13 14  1  6
 14 15  2  0
 16 17  1  0
 16 14  1  0
 17 24  1  0
 17 18  1  1
 19 18  1  0
 20 19  2  0
 21 20  1  0
 22 21  1  0
 22 23  2  0
 23 19  1  0
 24 26  1  0
 25 24  2  0
M  END
$$$$
