MPH.pdb
     RDKit          3D

 26 27  0  0  1  0  0  0  0  0999 V2000
   15.7815  -19.8676  -15.1819 C   0  0  0  0  0  0  0  0  0  0  0  0
   16.6267  -18.2904  -15.4546 S   0  0  0  0  0  0  0  0  0  0  0  0
   16.0353  -17.5570  -17.0036 C   0  0  0  0  0  0  0  0  0  0  0  0
   16.6372  -16.1790  -17.1874 C   0  0  0  0  0  0  0  0  0  0  0  0
   17.3173  -16.0927  -18.5340 C   0  0  2  0  0  0  0  0  0  0  0  0
   18.3850  -17.0872  -18.6328 N   0  0  0  0  0  0  0  0  0  0  0  0
   17.8867  -14.7745  -18.8133 C   0  0  0  0  0  0  0  0  0  0  0  0
   19.1391  -14.6669  -18.8236 O   0  0  0  0  0  0  0  0  0  0  0  0
   17.1288  -13.6060  -19.0743 N   0  0  0  0  0  0  0  0  0  0  0  0
   15.7001  -13.4086  -19.0960 C   0  0  0  0  0  0  0  0  0  0  0  0
   15.5267  -12.6203  -20.4006 C   0  0  0  0  0  0  0  0  0  0  0  0
   16.6639  -11.6150  -20.2483 C   0  0  0  0  0  0  0  0  0  0  0  0
   17.6998  -12.3128  -19.3963 C   0  0  1  0  0  0  0  0  0  0  0  0
   18.0337  -11.5463  -18.1642 C   0  0  0  0  0  0  0  0  0  0  0  0
   17.4804  -11.9378  -17.0972 O   0  0  0  0  0  0  0  0  0  0  0  0
   18.9184  -10.4555  -18.2254 N   0  0  0  0  0  0  0  0  0  0  0  0
   19.2223   -9.7394  -16.9916 C   0  0  1  0  0  0  0  0  0  0  0  0
   20.6168   -9.9972  -16.5383 C   0  0  0  0  0  0  0  0  0  0  0  0
   20.9325   -9.1969  -15.3378 C   0  0  0  0  0  0  0  0  0  0  0  0
   20.6105   -9.5141  -14.0102 C   0  0  0  0  0  0  0  0  0  0  0  0
   21.0776   -8.5254  -13.2292 N   0  0  0  0  0  0  0  0  0  0  0  0
   21.6779   -7.6009  -13.9999 C   0  0  0  0  0  0  0  0  0  0  0  0
   21.5860   -8.0134  -15.2697 N   0  0  0  0  0  0  0  0  0  0  0  0
   19.0359   -8.2977  -17.2573 C   0  0  0  0  0  0  0  0  0  0  0  0
   19.1822   -7.8297  -18.4171 O   0  0  0  0  0  0  0  0  0  0  0  0
   18.6922   -7.4693  -16.1826 O   0  0  0  0  0  0  0  0  0  0  0  0
  2  1  1  0
  3  2  1  0
  3  4  1  0
  4  5  1  0
  5  6  1  1
  5  7  1  0
  7  8  2  0
  9  7  1  0
  9 13  1  0
 10 11  1  0
 10  9  1  0
 11 12  1  0
 12 13  1  0
 13 14  1  1
 14 15  2  0
 16 17  1  0
 16 14  1  0
 17 24  1  0
 17 18  1  6
 19 18  1  0
 20 19  2  0
 21 20  1  0
 22 21  1  0
 22 23  2  0
 23 19  1  0
 24 26  1  0
 25 24  2  0
M  END
$$$$
