QAR.pdb
     RDKit          3D

 26 25  0  0  1  0  0  0  0  0999 V2000
   16.2667  -15.5781   18.2926 N   0  0  0  0  0  0  0  0  0  0  0  0
   15.4198  -14.6475   18.9410 C   0  0  0  0  0  0  0  0  0  0  0  0
   15.7303  -14.2198   20.0632 O   0  0  0  0  0  0  0  0  0  0  0  0
   14.1892  -14.2069   18.2731 C   0  0  0  0  0  0  0  0  0  0  0  0
   12.9198  -14.7924   18.8261 C   0  0  0  0  0  0  0  0  0  0  0  0
   13.0542  -16.2514   19.0896 C   0  0  2  0  0  0  0  0  0  0  0  0
   12.6811  -16.9354   17.8464 N   0  0  0  0  0  0  0  0  0  0  0  0
   12.2148  -16.7179   20.2197 C   0  0  0  0  0  0  0  0  0  0  0  0
   11.1081  -16.1334   20.4701 O   0  0  0  0  0  0  0  0  0  0  0  0
   12.2324  -19.4876   22.8267 C   0  0  0  0  0  0  0  0  0  0  0  0
   11.6109  -18.3366   22.0624 C   0  0  2  0  0  0  0  0  0  0  0  0
   12.5517  -17.8004   21.0781 N   0  0  0  0  0  0  0  0  0  0  0  0
   11.1913  -17.3096   23.0250 C   0  0  0  0  0  0  0  0  0  0  0  0
   12.0637  -16.4778   23.4520 O   0  0  0  0  0  0  0  0  0  0  0  0
    6.8002  -14.3197   19.3896 N   0  0  0  0  0  0  0  0  0  0  0  0
    7.6768  -13.2606   19.7015 C   0  0  0  0  0  0  0  0  0  0  0  0
    8.2041  -12.5366   18.7541 N   0  0  0  0  0  0  0  0  0  0  0  0
    8.0272  -12.9299   21.0459 N   0  0  0  0  0  0  0  0  0  0  0  0
    7.6229  -13.7337   22.1643 C   0  0  0  0  0  0  0  0  0  0  0  0
    8.8028  -14.3867   22.8555 C   0  0  0  0  0  0  0  0  0  0  0  0
    8.4054  -15.2755   23.9907 C   0  0  0  0  0  0  0  0  0  0  0  0
    9.5428  -16.0825   24.5031 C   0  0  2  0  0  0  0  0  0  0  0  0
    9.8867  -17.1520   23.5338 N   0  0  0  0  0  0  0  0  0  0  0  0
    9.1871  -16.7903   25.7354 C   0  0  0  0  0  0  0  0  0  0  0  0
    9.1991  -18.1599   25.8050 O   0  0  0  0  0  0  0  0  0  0  0  0
    8.8588  -16.1610   26.7635 O   0  0  0  0  0  0  0  0  0  0  0  0
  2  1  1  0
  2  3  2  0
  4  5  1  0
  4  2  1  0
  6  7  1  6
  6  5  1  0
  8  6  1  0
  9  8  2  0
 11 10  1  1
 11 12  1  0
 12  8  1  0
 13 11  1  0
 13 23  1  0
 14 13  2  0
 16 15  1  0
 17 16  2  0
 18 16  1  0
 19 18  1  0
 20 21  1  0
 20 19  1  0
 22 21  1  6
 22 23  1  0
 22 24  1  0
 24 25  1  0
 26 24  2  0
M  END
$$$$
