QAR.pdb
     RDKit          3D

 26 25  0  0  1  0  0  0  0  0999 V2000
   16.3997  -17.6274   15.6402 N   0  0  0  0  0  0  0  0  0  0  0  0
   15.4098  -16.6658   15.9548 C   0  0  0  0  0  0  0  0  0  0  0  0
   15.7557  -15.5287   16.3100 O   0  0  0  0  0  0  0  0  0  0  0  0
   13.9920  -17.0330   15.8555 C   0  0  0  0  0  0  0  0  0  0  0  0
   13.2302  -16.9877   17.1508 C   0  0  0  0  0  0  0  0  0  0  0  0
   11.7829  -17.2727   16.9497 C   0  0  2  0  0  0  0  0  0  0  0  0
   11.2645  -16.2064   16.0854 N   0  0  0  0  0  0  0  0  0  0  0  0
   11.0211  -17.3376   18.2204 C   0  0  0  0  0  0  0  0  0  0  0  0
   10.3389  -16.3286   18.6021 O   0  0  0  0  0  0  0  0  0  0  0  0
    9.9219  -19.9543   20.7141 C   0  0  0  0  0  0  0  0  0  0  0  0
   10.1302  -18.5223   20.2658 C   0  0  2  0  0  0  0  0  0  0  0  0
   10.9857  -18.4701   19.0796 N   0  0  0  0  0  0  0  0  0  0  0  0
   10.7072  -17.7627   21.3826 C   0  0  0  0  0  0  0  0  0  0  0  0
   11.9685  -17.5525   21.3932 O   0  0  0  0  0  0  0  0  0  0  0  0
    9.6999  -16.1145   29.2067 N   0  0  0  0  0  0  0  0  0  0  0  0
    9.9720  -14.7409   29.0433 C   0  0  0  0  0  0  0  0  0  0  0  0
   10.3672  -14.0193   30.0548 N   0  0  0  0  0  0  0  0  0  0  0  0
    9.8327  -14.0789   27.7856 N   0  0  0  0  0  0  0  0  0  0  0  0
    9.2137  -14.7062   26.6526 C   0  0  0  0  0  0  0  0  0  0  0  0
   10.2323  -15.2942   25.6971 C   0  0  0  0  0  0  0  0  0  0  0  0
    9.6150  -15.9316   24.4933 C   0  0  0  0  0  0  0  0  0  0  0  0
   10.6320  -16.4141   23.5236 C   0  0  2  0  0  0  0  0  0  0  0  0
    9.9835  -17.2319   22.4690 N   0  0  0  0  0  0  0  0  0  0  0  0
   11.5963  -17.3148   24.1600 C   0  0  0  0  0  0  0  0  0  0  0  0
   11.3099  -18.6393   24.3704 O   0  0  0  0  0  0  0  0  0  0  0  0
   12.7130  -16.8973   24.5331 O   0  0  0  0  0  0  0  0  0  0  0  0
  2  1  1  0
  2  3  2  0
  4  5  1  0
  4  2  1  0
  6  7  1  6
  6  5  1  0
  8  6  1  0
  9  8  2  0
 11 10  1  1
 11 12  1  0
 12  8  1  0
 13 11  1  0
 13 23  1  0
 14 13  2  0
 16 15  1  0
 17 16  2  0
 18 16  1  0
 19 18  1  0
 20 21  1  0
 20 19  1  0
 22 21  1  1
 22 23  1  0
 22 24  1  0
 24 25  1  0
 26 24  2  0
M  END
$$$$
