QAR.pdb
     RDKit          3D

 26 25  0  0  1  0  0  0  0  0999 V2000
    3.5825  -23.1883   21.4548 N   0  0  0  0  0  0  0  0  0  0  0  0
    3.6103  -22.6375   20.1512 C   0  0  0  0  0  0  0  0  0  0  0  0
    2.6856  -22.8886   19.3635 O   0  0  0  0  0  0  0  0  0  0  0  0
    4.7342  -21.7799   19.7557 C   0  0  0  0  0  0  0  0  0  0  0  0
    5.8419  -21.6751   20.7667 C   0  0  0  0  0  0  0  0  0  0  0  0
    5.9409  -20.3032   21.3362 C   0  0  2  0  0  0  0  0  0  0  0  0
    6.2752  -19.4118   20.2198 N   0  0  0  0  0  0  0  0  0  0  0  0
    6.9500  -20.1941   22.4176 C   0  0  0  0  0  0  0  0  0  0  0  0
    6.8258  -20.9006   23.4733 O   0  0  0  0  0  0  0  0  0  0  0  0
   10.2422  -18.4099   23.0744 C   0  0  0  0  0  0  0  0  0  0  0  0
    9.0867  -19.3183   23.4413 C   0  0  2  0  0  0  0  0  0  0  0  0
    8.0844  -19.3379   22.3751 N   0  0  0  0  0  0  0  0  0  0  0  0
    8.5149  -18.8560   24.7127 C   0  0  0  0  0  0  0  0  0  0  0  0
    7.8432  -17.7679   24.7222 O   0  0  0  0  0  0  0  0  0  0  0  0
    3.3410  -23.8567   27.9742 N   0  0  0  0  0  0  0  0  0  0  0  0
    4.6707  -24.2894   27.7950 C   0  0  0  0  0  0  0  0  0  0  0  0
    4.9543  -25.5615   27.7617 N   0  0  0  0  0  0  0  0  0  0  0  0
    5.7574  -23.3753   27.6429 N   0  0  0  0  0  0  0  0  0  0  0  0
    5.5628  -21.9544   27.5853 C   0  0  0  0  0  0  0  0  0  0  0  0
    6.8745  -21.2006   27.4984 C   0  0  0  0  0  0  0  0  0  0  0  0
    6.6997  -19.7182   27.4065 C   0  0  0  0  0  0  0  0  0  0  0  0
    7.9861  -19.0089   27.1835 C   0  0  2  0  0  0  0  0  0  0  0  0
    8.6407  -19.5150   25.9519 N   0  0  0  0  0  0  0  0  0  0  0  0
    8.9431  -19.2815   28.2587 C   0  0  0  0  0  0  0  0  0  0  0  0
    8.6885  -18.9152   29.5555 O   0  0  0  0  0  0  0  0  0  0  0  0
   10.0261  -19.8573   28.0215 O   0  0  0  0  0  0  0  0  0  0  0  0
  2  1  1  0
  2  3  2  0
  4  5  1  0
  4  2  1  0
  6  7  1  6
  6  5  1  0
  8  6  1  0
  9  8  2  0
 11 10  1  6
 11 12  1  0
 12  8  1  0
 13 11  1  0
 13 23  1  0
 14 13  2  0
 16 15  1  0
 17 16  2  0
 18 16  1  0
 19 18  1  0
 20 21  1  0
 20 19  1  0
 22 21  1  1
 22 23  1  0
 22 24  1  0
 24 25  1  0
 26 24  2  0
M  END
$$$$
