QAR.pdb
     RDKit          3D

 26 25  0  0  1  0  0  0  0  0999 V2000
   15.5680  -17.0493   14.9558 N   0  0  0  0  0  0  0  0  0  0  0  0
   14.3749  -17.4987   15.5709 C   0  0  0  0  0  0  0  0  0  0  0  0
   14.4414  -18.1718   16.6107 O   0  0  0  0  0  0  0  0  0  0  0  0
   13.0811  -17.1602   14.9657 C   0  0  0  0  0  0  0  0  0  0  0  0
   12.3275  -16.0542   15.6505 C   0  0  0  0  0  0  0  0  0  0  0  0
   10.9570  -16.4820   16.0440 C   0  0  2  0  0  0  0  0  0  0  0  0
   10.0541  -16.0104   14.9880 N   0  0  0  0  0  0  0  0  0  0  0  0
   10.5408  -15.9554   17.3665 C   0  0  0  0  0  0  0  0  0  0  0  0
   10.9063  -14.7866   17.7263 O   0  0  0  0  0  0  0  0  0  0  0  0
    7.9152  -16.5157   19.9286 C   0  0  0  0  0  0  0  0  0  0  0  0
    9.3246  -16.0860   19.5765 C   0  0  2  0  0  0  0  0  0  0  0  0
    9.7402  -16.6690   18.3002 N   0  0  0  0  0  0  0  0  0  0  0  0
   10.2207  -16.4834   20.6702 C   0  0  0  0  0  0  0  0  0  0  0  0
   10.9247  -17.5418   20.5309 O   0  0  0  0  0  0  0  0  0  0  0  0
   11.5630  -21.3817   26.6608 N   0  0  0  0  0  0  0  0  0  0  0  0
   12.6935  -20.5865   26.3835 C   0  0  0  0  0  0  0  0  0  0  0  0
   13.5124  -20.2437   27.3384 N   0  0  0  0  0  0  0  0  0  0  0  0
   12.9970  -20.1230   25.0672 N   0  0  0  0  0  0  0  0  0  0  0  0
   11.9931  -19.5897   24.1908 C   0  0  0  0  0  0  0  0  0  0  0  0
   11.6179  -18.1662   24.5503 C   0  0  0  0  0  0  0  0  0  0  0  0
   10.6943  -17.5303   23.5608 C   0  0  0  0  0  0  0  0  0  0  0  0
   11.2639  -16.2923   22.9687 C   0  0  2  0  0  0  0  0  0  0  0  0
   10.3806  -15.7911   21.8871 N   0  0  0  0  0  0  0  0  0  0  0  0
   12.5497  -16.5513   22.3162 C   0  0  0  0  0  0  0  0  0  0  0  0
   13.7045  -15.9458   22.7411 O   0  0  0  0  0  0  0  0  0  0  0  0
   12.6295  -17.3348   21.3465 O   0  0  0  0  0  0  0  0  0  0  0  0
  2  1  1  0
  2  3  2  0
  4  5  1  0
  4  2  1  0
  6  7  1  6
  6  5  1  0
  8  6  1  0
  9  8  2  0
 11 10  1  1
 11 12  1  0
 12  8  1  0
 13 11  1  0
 13 23  1  0
 14 13  2  0
 16 15  1  0
 17 16  2  0
 18 16  1  0
 19 18  1  0
 20 21  1  0
 20 19  1  0
 22 21  1  6
 22 23  1  0
 22 24  1  0
 24 25  1  0
 26 24  2  0
M  END
$$$$
