QAR.pdb
     RDKit          3D

 26 25  0  0  1  0  0  0  0  0999 V2000
    4.9006  -18.4884   15.0961 N   0  0  0  0  0  0  0  0  0  0  0  0
    5.9096  -19.3431   15.6010 C   0  0  0  0  0  0  0  0  0  0  0  0
    5.7166  -20.5683   15.6214 O   0  0  0  0  0  0  0  0  0  0  0  0
    7.1653  -18.7630   16.0922 C   0  0  0  0  0  0  0  0  0  0  0  0
    7.0121  -17.7552   17.1971 C   0  0  0  0  0  0  0  0  0  0  0  0
    7.5591  -16.4256   16.8108 C   0  0  2  0  0  0  0  0  0  0  0  0
    8.5827  -16.6768   15.7900 N   0  0  0  0  0  0  0  0  0  0  0  0
    8.1305  -15.6768   17.9564 C   0  0  0  0  0  0  0  0  0  0  0  0
    9.3081  -15.9491   18.3668 O   0  0  0  0  0  0  0  0  0  0  0  0
    7.1077  -12.9114   20.3589 C   0  0  0  0  0  0  0  0  0  0  0  0
    8.0279  -13.9974   19.8404 C   0  0  2  0  0  0  0  0  0  0  0  0
    7.4523  -14.6444   18.6606 N   0  0  0  0  0  0  0  0  0  0  0  0
    8.2688  -14.9611   20.9223 C   0  0  0  0  0  0  0  0  0  0  0  0
    7.4426  -15.9243   21.0794 O   0  0  0  0  0  0  0  0  0  0  0  0
   15.4085  -19.7506   22.8138 N   0  0  0  0  0  0  0  0  0  0  0  0
   14.2997  -20.2057   23.5558 C   0  0  0  0  0  0  0  0  0  0  0  0
   14.2891  -21.4077   24.0609 N   0  0  0  0  0  0  0  0  0  0  0  0
   13.1508  -19.3905   23.7902 N   0  0  0  0  0  0  0  0  0  0  0  0
   12.7921  -18.3028   22.9250 C   0  0  0  0  0  0  0  0  0  0  0  0
   11.4506  -17.7000   23.2902 C   0  0  0  0  0  0  0  0  0  0  0  0
   11.0169  -16.6139   22.3581 C   0  0  0  0  0  0  0  0  0  0  0  0
    9.6809  -16.0665   22.7089 C   0  0  2  0  0  0  0  0  0  0  0  0
    9.3505  -14.9219   21.8245 N   0  0  0  0  0  0  0  0  0  0  0  0
    9.6666  -15.5121   24.0648 C   0  0  0  0  0  0  0  0  0  0  0  0
    9.6536  -16.3226   25.1710 O   0  0  0  0  0  0  0  0  0  0  0  0
    9.6637  -14.2769   24.2517 O   0  0  0  0  0  0  0  0  0  0  0  0
  2  1  1  0
  2  3  2  0
  4  5  1  0
  4  2  1  0
  6  7  1  6
  6  5  1  0
  8  6  1  0
  9  8  2  0
 11 10  1  1
 11 12  1  0
 12  8  1  0
 13 11  1  0
 13 23  1  0
 14 13  2  0
 16 15  1  0
 17 16  2  0
 18 16  1  0
 19 18  1  0
 20 21  1  0
 20 19  1  0
 22 21  1  6
 22 23  1  0
 22 24  1  0
 24 25  1  0
 26 24  2  0
M  END
$$$$
