QAR.pdb
     RDKit          3D

 26 25  0  0  1  0  0  0  0  0999 V2000
    9.9450  -12.5989   19.3453 N   0  0  0  0  0  0  0  0  0  0  0  0
    9.6326  -13.2984   18.1550 C   0  0  0  0  0  0  0  0  0  0  0  0
    8.8350  -12.7996   17.3464 O   0  0  0  0  0  0  0  0  0  0  0  0
   10.2580  -14.6018   17.9006 C   0  0  0  0  0  0  0  0  0  0  0  0
   10.2574  -15.5475   19.0692 C   0  0  0  0  0  0  0  0  0  0  0  0
   11.1124  -16.7394   18.8147 C   0  0  2  0  0  0  0  0  0  0  0  0
   10.3807  -17.5810   17.8613 N   0  0  0  0  0  0  0  0  0  0  0  0
   11.4342  -17.4980   20.0478 C   0  0  0  0  0  0  0  0  0  0  0  0
   10.5813  -18.3171   20.5281 O   0  0  0  0  0  0  0  0  0  0  0  0
   14.4074  -18.3174   22.2047 C   0  0  0  0  0  0  0  0  0  0  0  0
   12.9178  -18.1491   21.9856 C   0  0  2  0  0  0  0  0  0  0  0  0
   12.6568  -17.3852   20.7650 N   0  0  0  0  0  0  0  0  0  0  0  0
   12.3434  -17.4931   23.1675 C   0  0  0  0  0  0  0  0  0  0  0  0
   12.7217  -16.3055   23.4530 O   0  0  0  0  0  0  0  0  0  0  0  0
    6.0224  -15.0193   22.4712 N   0  0  0  0  0  0  0  0  0  0  0  0
    7.2135  -14.4958   21.9285 C   0  0  0  0  0  0  0  0  0  0  0  0
    7.2332  -13.3033   21.4018 N   0  0  0  0  0  0  0  0  0  0  0  0
    8.4391  -15.2291   21.9267 N   0  0  0  0  0  0  0  0  0  0  0  0
    8.6558  -16.3636   22.7789 C   0  0  0  0  0  0  0  0  0  0  0  0
    9.0763  -15.9567   24.1767 C   0  0  0  0  0  0  0  0  0  0  0  0
    9.3959  -17.1203   25.0603 C   0  0  0  0  0  0  0  0  0  0  0  0
   10.8588  -17.3317   25.2115 C   0  0  2  0  0  0  0  0  0  0  0  0
   11.3923  -18.0640   24.0365 N   0  0  0  0  0  0  0  0  0  0  0  0
   11.1617  -18.1891   26.3600 C   0  0  0  0  0  0  0  0  0  0  0  0
   11.9447  -19.3079   26.2331 O   0  0  0  0  0  0  0  0  0  0  0  0
   10.7101  -17.9238   27.4941 O   0  0  0  0  0  0  0  0  0  0  0  0
  2  1  1  0
  2  3  2  0
  4  5  1  0
  4  2  1  0
  6  7  1  6
  6  5  1  0
  8  6  1  0
  9  8  2  0
 11 10  1  1
 11 12  1  0
 12  8  1  0
 13 11  1  0
 13 23  1  0
 14 13  2  0
 16 15  1  0
 17 16  2  0
 18 16  1  0
 19 18  1  0
 20 21  1  0
 20 19  1  0
 22 21  1  6
 22 23  1  0
 22 24  1  0
 24 25  1  0
 26 24  2  0
M  END
$$$$
