QAR.pdb
     RDKit          3D

 26 25  0  0  1  0  0  0  0  0999 V2000
    2.9668  -28.0036   18.7181 N   0  0  0  0  0  0  0  0  0  0  0  0
    1.8529  -28.3269   19.5295 C   0  0  0  0  0  0  0  0  0  0  0  0
    0.9868  -29.1014   19.0951 O   0  0  0  0  0  0  0  0  0  0  0  0
    1.7434  -27.7384   20.8699 C   0  0  0  0  0  0  0  0  0  0  0  0
    2.9476  -26.9618   21.3247 C   0  0  0  0  0  0  0  0  0  0  0  0
    2.6650  -25.5023   21.4038 C   0  0  2  0  0  0  0  0  0  0  0  0
    2.6143  -25.0123   20.0217 N   0  0  0  0  0  0  0  0  0  0  0  0
    3.6769  -24.7560   22.1902 C   0  0  0  0  0  0  0  0  0  0  0  0
    4.8129  -24.4914   21.6717 O   0  0  0  0  0  0  0  0  0  0  0  0
    3.8888  -22.7740   25.3992 C   0  0  0  0  0  0  0  0  0  0  0  0
    4.5024  -23.5329   24.2403 C   0  0  2  0  0  0  0  0  0  0  0  0
    3.4805  -24.2941   23.5207 N   0  0  0  0  0  0  0  0  0  0  0  0
    5.5604  -24.4073   24.7629 C   0  0  0  0  0  0  0  0  0  0  0  0
    5.2475  -25.5880   25.1413 O   0  0  0  0  0  0  0  0  0  0  0  0
   10.2771  -21.5452   21.2795 N   0  0  0  0  0  0  0  0  0  0  0  0
   10.9344  -21.0413   22.4203 C   0  0  0  0  0  0  0  0  0  0  0  0
   11.2891  -19.7881   22.4808 N   0  0  0  0  0  0  0  0  0  0  0  0
   11.2409  -21.8603   23.5495 N   0  0  0  0  0  0  0  0  0  0  0  0
   10.8442  -23.2375   23.6289 C   0  0  0  0  0  0  0  0  0  0  0  0
    9.5870  -23.4238   24.4542 C   0  0  0  0  0  0  0  0  0  0  0  0
    9.2041  -24.8584   24.6329 C   0  0  0  0  0  0  0  0  0  0  0  0
    7.9360  -25.0159   25.3909 C   0  0  2  0  0  0  0  0  0  0  0  0
    6.9198  -24.0582   24.8893 N   0  0  0  0  0  0  0  0  0  0  0  0
    8.1097  -24.6756   26.8051 C   0  0  0  0  0  0  0  0  0  0  0  0
    7.5780  -23.5290   27.3375 O   0  0  0  0  0  0  0  0  0  0  0  0
    8.7534  -25.4249   27.5698 O   0  0  0  0  0  0  0  0  0  0  0  0
  2  1  1  0
  2  3  2  0
  4  5  1  0
  4  2  1  0
  6  7  1  6
  6  5  1  0
  8  6  1  0
  9  8  2  0
 11 10  1  1
 11 12  1  0
 12  8  1  0
 13 11  1  0
 13 23  1  0
 14 13  2  0
 16 15  1  0
 17 16  2  0
 18 16  1  0
 19 18  1  0
 20 21  1  0
 20 19  1  0
 22 21  1  6
 22 23  1  0
 22 24  1  0
 24 25  1  0
 26 24  2  0
M  END
$$$$
