QAR.pdb
     RDKit          3D

 26 25  0  0  1  0  0  0  0  0999 V2000
   10.3428  -11.9888   18.9942 N   0  0  0  0  0  0  0  0  0  0  0  0
    9.2902  -12.5248   18.2143 C   0  0  0  0  0  0  0  0  0  0  0  0
    9.4893  -12.7847   17.0179 O   0  0  0  0  0  0  0  0  0  0  0  0
    7.9819  -12.7621   18.8364 C   0  0  0  0  0  0  0  0  0  0  0  0
    7.9547  -13.8595   19.8635 C   0  0  0  0  0  0  0  0  0  0  0  0
    8.4067  -15.1588   19.2945 C   0  0  2  0  0  0  0  0  0  0  0  0
    7.3410  -15.6126   18.3940 N   0  0  0  0  0  0  0  0  0  0  0  0
    8.6903  -16.1804   20.3315 C   0  0  0  0  0  0  0  0  0  0  0  0
    7.7588  -16.5614   21.1166 O   0  0  0  0  0  0  0  0  0  0  0  0
   11.4231  -18.6156   21.2641 C   0  0  0  0  0  0  0  0  0  0  0  0
   10.1816  -17.8020   21.5672 C   0  0  2  0  0  0  0  0  0  0  0  0
    9.9580  -16.7927   20.5314 N   0  0  0  0  0  0  0  0  0  0  0  0
   10.3364  -17.1907   22.8937 C   0  0  0  0  0  0  0  0  0  0  0  0
   11.0965  -16.1692   23.0120 O   0  0  0  0  0  0  0  0  0  0  0  0
    4.9489  -12.4688   26.6791 N   0  0  0  0  0  0  0  0  0  0  0  0
    6.1274  -11.9528   26.1027 C   0  0  0  0  0  0  0  0  0  0  0  0
    6.2690  -10.6694   25.9215 N   0  0  0  0  0  0  0  0  0  0  0  0
    7.2087  -12.7917   25.6946 N   0  0  0  0  0  0  0  0  0  0  0  0
    7.2492  -14.1939   25.9986 C   0  0  0  0  0  0  0  0  0  0  0  0
    8.5060  -14.8571   25.4721 C   0  0  0  0  0  0  0  0  0  0  0  0
    8.5763  -16.3190   25.7795 C   0  0  0  0  0  0  0  0  0  0  0  0
    9.8698  -16.9228   25.3672 C   0  0  2  0  0  0  0  0  0  0  0  0
    9.7111  -17.6355   24.0755 N   0  0  0  0  0  0  0  0  0  0  0  0
   10.3087  -17.9510   26.3140 C   0  0  0  0  0  0  0  0  0  0  0  0
   10.8380  -17.6221   27.5356 O   0  0  0  0  0  0  0  0  0  0  0  0
   10.2139  -19.1641   26.0315 O   0  0  0  0  0  0  0  0  0  0  0  0
  2  1  1  0
  2  3  2  0
  4  5  1  0
  4  2  1  0
  6  7  1  6
  6  5  1  0
  8  6  1  0
  9  8  2  0
 11 10  1  6
 11 12  1  0
 12  8  1  0
 13 11  1  0
 13 23  1  0
 14 13  2  0
 16 15  1  0
 17 16  2  0
 18 16  1  0
 19 18  1  0
 20 21  1  0
 20 19  1  0
 22 21  1  1
 22 23  1  0
 22 24  1  0
 24 25  1  0
 26 24  2  0
M  END
$$$$
