QAR.pdb
     RDKit          3D

 26 25  0  0  1  0  0  0  0  0999 V2000
    7.8588  -12.9412   18.2262 N   0  0  0  0  0  0  0  0  0  0  0  0
    8.0546  -13.5967   16.9870 C   0  0  0  0  0  0  0  0  0  0  0  0
    7.7531  -13.0135   15.9346 O   0  0  0  0  0  0  0  0  0  0  0  0
    8.6101  -14.9554   16.9710 C   0  0  0  0  0  0  0  0  0  0  0  0
    8.8527  -15.5602   18.3257 C   0  0  0  0  0  0  0  0  0  0  0  0
    9.2742  -16.9846   18.2264 C   0  0  2  0  0  0  0  0  0  0  0  0
    8.1742  -17.6998   17.5697 N   0  0  0  0  0  0  0  0  0  0  0  0
    9.5855  -17.5920   19.5431 C   0  0  0  0  0  0  0  0  0  0  0  0
    8.6358  -17.9911   20.2968 O   0  0  0  0  0  0  0  0  0  0  0  0
   12.6068  -18.7089   21.5433 C   0  0  0  0  0  0  0  0  0  0  0  0
   11.1490  -18.3281   21.3853 C   0  0  2  0  0  0  0  0  0  0  0  0
   10.8999  -17.7734   20.0542 N   0  0  0  0  0  0  0  0  0  0  0  0
   10.7989  -17.3720   22.4439 C   0  0  0  0  0  0  0  0  0  0  0  0
   11.1038  -16.1408   22.2821 O   0  0  0  0  0  0  0  0  0  0  0  0
    7.7885  -12.6809   24.5353 N   0  0  0  0  0  0  0  0  0  0  0  0
    6.8575  -12.6643   25.5938 C   0  0  0  0  0  0  0  0  0  0  0  0
    6.7418  -11.6139   26.3575 N   0  0  0  0  0  0  0  0  0  0  0  0
    6.0073  -13.7753   25.8807 N   0  0  0  0  0  0  0  0  0  0  0  0
    6.3443  -15.1178   25.5009 C   0  0  0  0  0  0  0  0  0  0  0  0
    7.8393  -15.3635   25.5348 C   0  0  0  0  0  0  0  0  0  0  0  0
    8.2874  -16.4167   24.5722 C   0  0  0  0  0  0  0  0  0  0  0  0
    9.7528  -16.6542   24.6344 C   0  0  2  0  0  0  0  0  0  0  0  0
   10.1433  -17.6927   23.6493 N   0  0  0  0  0  0  0  0  0  0  0  0
   10.1543  -17.1972   25.9344 C   0  0  0  0  0  0  0  0  0  0  0  0
   10.5579  -16.3803   26.9593 O   0  0  0  0  0  0  0  0  0  0  0  0
   10.1418  -18.4284   26.1457 O   0  0  0  0  0  0  0  0  0  0  0  0
  2  1  1  0
  2  3  2  0
  4  5  1  0
  4  2  1  0
  6  7  1  1
  6  5  1  0
  8  6  1  0
  9  8  2  0
 11 10  1  6
 11 12  1  0
 12  8  1  0
 13 11  1  0
 13 23  1  0
 14 13  2  0
 16 15  1  0
 17 16  2  0
 18 16  1  0
 19 18  1  0
 20 21  1  0
 20 19  1  0
 22 21  1  1
 22 23  1  0
 22 24  1  0
 24 25  1  0
 26 24  2  0
M  END
$$$$
