LHM.pdb
     RDKit          3D

 27 27  0  0  1  0  0  0  0  0999 V2000
    6.3879  -12.7692   18.1578 C   0  0  0  0  0  0  0  0  0  0  0  0
    7.7642  -13.3644   18.4820 C   0  0  1  0  0  0  0  0  0  0  0  0
    8.7997  -12.2423   18.4862 C   0  0  0  0  0  0  0  0  0  0  0  0
    7.6965  -14.0200   19.8299 C   0  0  0  0  0  0  0  0  0  0  0  0
    9.0075  -14.5199   20.3566 C   0  0  2  0  0  0  0  0  0  0  0  0
    9.7468  -15.2277   19.3086 N   0  0  0  0  0  0  0  0  0  0  0  0
    8.8012  -15.4104   21.5256 C   0  0  0  0  0  0  0  0  0  0  0  0
    7.9642  -15.2116   22.4328 O   0  0  0  0  0  0  0  0  0  0  0  0
    9.5907  -16.6104   21.6890 N   0  0  0  0  0  0  0  0  0  0  0  0
    9.3532  -17.5058   22.7978 C   0  0  1  0  0  0  0  0  0  0  0  0
   10.0892  -18.8105   22.6373 C   0  0  0  0  0  0  0  0  0  0  0  0
    9.7584  -19.7809   23.7018 C   0  0  0  0  0  0  0  0  0  0  0  0
    8.5223  -19.9775   24.2682 C   0  0  0  0  0  0  0  0  0  0  0  0
    8.6086  -20.9527   25.2108 N   0  0  0  0  0  0  0  0  0  0  0  0
    9.8784  -21.3610   25.2349 C   0  0  0  0  0  0  0  0  0  0  0  0
   10.5658  -20.6542   24.3267 N   0  0  0  0  0  0  0  0  0  0  0  0
    9.6190  -16.8087   24.0686 C   0  0  0  0  0  0  0  0  0  0  0  0
   10.7357  -16.2791   24.2499 O   0  0  0  0  0  0  0  0  0  0  0  0
    6.4985  -11.2485   25.4451 C   0  0  0  0  0  0  0  0  0  0  0  0
    6.6969  -12.6927   26.4578 S   0  0  0  0  0  0  0  0  0  0  0  0
    7.6712  -13.9838   25.7423 C   0  0  0  0  0  0  0  0  0  0  0  0
    7.8787  -15.1359   26.6366 C   0  0  0  0  0  0  0  0  0  0  0  0
    9.0631  -16.0106   26.3266 C   0  0  2  0  0  0  0  0  0  0  0  0
    8.6509  -16.7195   25.0845 N   0  0  0  0  0  0  0  0  0  0  0  0
    9.1550  -17.0368   27.4064 C   0  0  0  0  0  0  0  0  0  0  0  0
    9.8151  -16.8310   28.5876 O   0  0  0  0  0  0  0  0  0  0  0  0
    8.6077  -18.1646   27.2583 O   0  0  0  0  0  0  0  0  0  0  0  0
  2  4  1  0
  2  1  1  1
  3  2  1  0
  4  5  1  0
  5  6  1  6
  7  8  2  0
  7  5  1  0
  9  7  1  0
 10  9  1  0
 10 11  1  6
 12 16  1  0
 12 11  1  0
 13 12  2  0
 14 13  1  0
 14 15  1  0
 15 16  2  0
 17 10  1  0
 18 17  2  0
 20 19  1  0
 21 20  1  0
 22 21  1  0
 23 22  1  1
 23 24  1  0
 24 17  1  0
 25 23  1  0
 26 25  1  0
 27 25  2  0
M  END
$$$$
