LHM.pdb
     RDKit          3D

 27 27  0  0  1  0  0  0  0  0999 V2000
    6.6307  -12.5039   18.4713 C   0  0  0  0  0  0  0  0  0  0  0  0
    8.0645  -12.9706   18.7541 C   0  0  1  0  0  0  0  0  0  0  0  0
    8.9150  -11.7582   19.1257 C   0  0  0  0  0  0  0  0  0  0  0  0
    8.0327  -13.9550   19.8860 C   0  0  0  0  0  0  0  0  0  0  0  0
    9.3644  -14.2456   20.5091 C   0  0  2  0  0  0  0  0  0  0  0  0
   10.3279  -14.6688   19.4901 N   0  0  0  0  0  0  0  0  0  0  0  0
    9.2398  -15.2883   21.5577 C   0  0  0  0  0  0  0  0  0  0  0  0
    8.2764  -15.3916   22.3478 O   0  0  0  0  0  0  0  0  0  0  0  0
   10.2703  -16.2871   21.7328 N   0  0  0  0  0  0  0  0  0  0  0  0
   10.1568  -17.2926   22.7642 C   0  0  1  0  0  0  0  0  0  0  0  0
   11.1234  -18.4288   22.5533 C   0  0  0  0  0  0  0  0  0  0  0  0
   10.7118  -19.3242   21.4518 C   0  0  0  0  0  0  0  0  0  0  0  0
    9.4713  -19.3734   20.8635 C   0  0  0  0  0  0  0  0  0  0  0  0
    9.4727  -20.3192   19.8876 N   0  0  0  0  0  0  0  0  0  0  0  0
   10.6946  -20.8544   19.8644 C   0  0  0  0  0  0  0  0  0  0  0  0
   11.4358  -20.2536   20.8060 N   0  0  0  0  0  0  0  0  0  0  0  0
   10.2423  -16.6585   24.0916 C   0  0  0  0  0  0  0  0  0  0  0  0
   11.2265  -15.9372   24.3590 O   0  0  0  0  0  0  0  0  0  0  0  0
    6.4471  -11.6588   26.7992 C   0  0  0  0  0  0  0  0  0  0  0  0
    6.5379  -13.4297   26.8804 S   0  0  0  0  0  0  0  0  0  0  0  0
    8.1494  -14.1118   26.6235 C   0  0  0  0  0  0  0  0  0  0  0  0
    8.1999  -15.5787   26.7495 C   0  0  0  0  0  0  0  0  0  0  0  0
    9.5108  -16.2292   26.3992 C   0  0  2  0  0  0  0  0  0  0  0  0
    9.2464  -16.8394   25.0677 N   0  0  0  0  0  0  0  0  0  0  0  0
    9.7235  -17.3508   27.3605 C   0  0  0  0  0  0  0  0  0  0  0  0
    9.3680  -18.6462   27.0978 O   0  0  0  0  0  0  0  0  0  0  0  0
   10.2562  -17.1316   28.4837 O   0  0  0  0  0  0  0  0  0  0  0  0
  2  4  1  0
  2  1  1  1
  3  2  1  0
  4  5  1  0
  5  6  1  6
  7  8  2  0
  7  5  1  0
  9  7  1  0
 10  9  1  0
 10 11  1  6
 12 16  1  0
 12 11  1  0
 13 12  2  0
 14 13  1  0
 14 15  1  0
 15 16  2  0
 17 10  1  0
 18 17  2  0
 20 19  1  0
 21 20  1  0
 22 21  1  0
 23 22  1  1
 23 24  1  0
 24 17  1  0
 25 23  1  0
 26 25  1  0
 27 25  2  0
M  END
$$$$
