LHM.pdb
     RDKit          3D

 27 27  0  0  1  0  0  0  0  0999 V2000
    6.7504  -13.0497   18.0912 C   0  0  0  0  0  0  0  0  0  0  0  0
    8.1909  -13.4987   18.3687 C   0  0  1  0  0  0  0  0  0  0  0  0
    9.0675  -12.2622   18.5529 C   0  0  0  0  0  0  0  0  0  0  0  0
    8.1993  -14.3371   19.6129 C   0  0  0  0  0  0  0  0  0  0  0  0
    9.5516  -14.5496   20.2232 C   0  0  2  0  0  0  0  0  0  0  0  0
   10.4647  -15.1569   19.2521 N   0  0  0  0  0  0  0  0  0  0  0  0
    9.4555  -15.4010   21.4349 C   0  0  0  0  0  0  0  0  0  0  0  0
    8.5411  -15.3292   22.2845 O   0  0  0  0  0  0  0  0  0  0  0  0
   10.4574  -16.4052   21.7138 N   0  0  0  0  0  0  0  0  0  0  0  0
   10.3415  -17.2631   22.8707 C   0  0  1  0  0  0  0  0  0  0  0  0
   11.3484  -18.3834   22.8456 C   0  0  0  0  0  0  0  0  0  0  0  0
   11.0126  -19.4232   21.8504 C   0  0  0  0  0  0  0  0  0  0  0  0
    9.8461  -19.5138   21.1302 C   0  0  0  0  0  0  0  0  0  0  0  0
    9.9027  -20.6004   20.3160 N   0  0  0  0  0  0  0  0  0  0  0  0
   11.0856  -21.1817   20.5222 C   0  0  0  0  0  0  0  0  0  0  0  0
   11.7493  -20.4711   21.4450 N   0  0  0  0  0  0  0  0  0  0  0  0
   10.3650  -16.4503   24.0997 C   0  0  0  0  0  0  0  0  0  0  0  0
   11.3199  -15.6686   24.2938 O   0  0  0  0  0  0  0  0  0  0  0  0
    6.6406  -11.0316   27.6244 C   0  0  0  0  0  0  0  0  0  0  0  0
    6.8407  -12.3839   26.4920 S   0  0  0  0  0  0  0  0  0  0  0  0
    8.0899  -13.5553   26.9342 C   0  0  0  0  0  0  0  0  0  0  0  0
    8.3136  -14.5969   25.9167 C   0  0  0  0  0  0  0  0  0  0  0  0
    9.4307  -15.5659   26.1947 C   0  0  2  0  0  0  0  0  0  0  0  0
    9.3420  -16.5266   25.0614 N   0  0  0  0  0  0  0  0  0  0  0  0
    9.0725  -16.3165   27.4340 C   0  0  0  0  0  0  0  0  0  0  0  0
    8.6416  -17.6156   27.4303 O   0  0  0  0  0  0  0  0  0  0  0  0
    9.1591  -15.7569   28.5622 O   0  0  0  0  0  0  0  0  0  0  0  0
  2  4  1  0
  2  1  1  1
  3  2  1  0
  4  5  1  0
  5  6  1  6
  7  8  2  0
  7  5  1  0
  9  7  1  0
 10  9  1  0
 10 11  1  1
 12 16  1  0
 12 11  1  0
 13 12  2  0
 14 13  1  0
 14 15  1  0
 15 16  2  0
 17 10  1  0
 18 17  2  0
 20 19  1  0
 21 20  1  0
 22 21  1  0
 23 22  1  6
 23 24  1  0
 24 17  1  0
 25 23  1  0
 26 25  1  0
 27 25  2  0
M  END
$$$$
