LHM.pdb
     RDKit          3D

 27 27  0  0  1  0  0  0  0  0999 V2000
    5.7972  -12.8629   25.9416 C   0  0  0  0  0  0  0  0  0  0  0  0
    6.6222  -13.1359   24.6773 C   0  0  1  0  0  0  0  0  0  0  0  0
    7.5211  -11.9324   24.4039 C   0  0  0  0  0  0  0  0  0  0  0  0
    7.4494  -14.3673   24.9024 C   0  0  0  0  0  0  0  0  0  0  0  0
    8.5330  -14.5947   23.8923 C   0  0  2  0  0  0  0  0  0  0  0  0
    7.9771  -14.6150   22.5372 N   0  0  0  0  0  0  0  0  0  0  0  0
    9.2528  -15.8629   24.1675 C   0  0  0  0  0  0  0  0  0  0  0  0
    9.1478  -16.5267   25.2218 O   0  0  0  0  0  0  0  0  0  0  0  0
   10.1557  -16.4274   23.1896 N   0  0  0  0  0  0  0  0  0  0  0  0
   10.9262  -17.6116   23.4923 C   0  0  1  0  0  0  0  0  0  0  0  0
   11.7197  -18.0877   22.3035 C   0  0  0  0  0  0  0  0  0  0  0  0
   10.8571  -18.5079   21.1794 C   0  0  0  0  0  0  0  0  0  0  0  0
    9.6135  -19.0833   21.2789 C   0  0  0  0  0  0  0  0  0  0  0  0
    9.1296  -19.3286   20.0329 N   0  0  0  0  0  0  0  0  0  0  0  0
   10.0549  -18.9136   19.1661 C   0  0  0  0  0  0  0  0  0  0  0  0
   11.0912  -18.4212   19.8593 N   0  0  0  0  0  0  0  0  0  0  0  0
   11.7265  -17.3893   24.7095 C   0  0  0  0  0  0  0  0  0  0  0  0
   12.4222  -16.3557   24.7998 O   0  0  0  0  0  0  0  0  0  0  0  0
   10.5589  -13.5951   30.0309 C   0  0  0  0  0  0  0  0  0  0  0  0
   10.9645  -14.5109   28.5655 S   0  0  0  0  0  0  0  0  0  0  0  0
   10.4207  -16.1939   28.5570 C   0  0  0  0  0  0  0  0  0  0  0  0
   10.6137  -16.8734   27.2641 C   0  0  0  0  0  0  0  0  0  0  0  0
   11.8465  -17.7274   27.1418 C   0  0  2  0  0  0  0  0  0  0  0  0
   11.7290  -18.3063   25.7756 N   0  0  0  0  0  0  0  0  0  0  0  0
   11.7059  -18.8554   28.1088 C   0  0  0  0  0  0  0  0  0  0  0  0
   11.2364  -20.0929   27.7602 O   0  0  0  0  0  0  0  0  0  0  0  0
   12.0269  -18.6973   29.3194 O   0  0  0  0  0  0  0  0  0  0  0  0
  2  4  1  0
  2  1  1  1
  3  2  1  0
  4  5  1  0
  5  6  1  6
  7  8  2  0
  7  5  1  0
  9  7  1  0
 10  9  1  0
 10 11  1  6
 12 16  1  0
 12 11  1  0
 13 12  2  0
 14 13  1  0
 14 15  1  0
 15 16  2  0
 17 10  1  0
 18 17  2  0
 20 19  1  0
 21 20  1  0
 22 21  1  0
 23 22  1  1
 23 24  1  0
 24 17  1  0
 25 23  1  0
 26 25  1  0
 27 25  2  0
M  END
$$$$
