LHM.pdb
     RDKit          3D

 27 27  0  0  1  0  0  0  0  0999 V2000
    6.7148  -12.5479   18.1471 C   0  0  0  0  0  0  0  0  0  0  0  0
    7.8609  -13.5180   18.4617 C   0  0  1  0  0  0  0  0  0  0  0  0
    9.1899  -12.7885   18.2807 C   0  0  0  0  0  0  0  0  0  0  0  0
    7.7117  -13.9917   19.8775 C   0  0  0  0  0  0  0  0  0  0  0  0
    8.7539  -14.9688   20.3306 C   0  0  2  0  0  0  0  0  0  0  0  0
    8.9524  -16.0134   19.3231 N   0  0  0  0  0  0  0  0  0  0  0  0
    8.3761  -15.5782   21.6299 C   0  0  0  0  0  0  0  0  0  0  0  0
    8.0271  -14.9345   22.6433 O   0  0  0  0  0  0  0  0  0  0  0  0
    8.3910  -17.0132   21.8052 N   0  0  0  0  0  0  0  0  0  0  0  0
    8.0321  -17.6063   23.0729 C   0  0  1  0  0  0  0  0  0  0  0  0
    7.7377  -19.0782   22.9441 C   0  0  0  0  0  0  0  0  0  0  0  0
    7.3739  -19.6972   24.2359 C   0  0  0  0  0  0  0  0  0  0  0  0
    6.4770  -19.2023   25.1515 C   0  0  0  0  0  0  0  0  0  0  0  0
    6.4058  -20.0465   26.2140 N   0  0  0  0  0  0  0  0  0  0  0  0
    7.2444  -21.0546   25.9686 C   0  0  0  0  0  0  0  0  0  0  0  0
    7.8241  -20.8406   24.7790 N   0  0  0  0  0  0  0  0  0  0  0  0
    9.0502  -17.2750   24.0855 C   0  0  0  0  0  0  0  0  0  0  0  0
   10.2591  -17.3543   23.7812 O   0  0  0  0  0  0  0  0  0  0  0  0
   10.6719  -12.5307   30.0085 C   0  0  0  0  0  0  0  0  0  0  0  0
    9.6153  -13.2453   28.7741 S   0  0  0  0  0  0  0  0  0  0  0  0
   10.2268  -14.7283   28.0291 C   0  0  0  0  0  0  0  0  0  0  0  0
    9.3542  -15.2637   26.9698 C   0  0  0  0  0  0  0  0  0  0  0  0
    9.8294  -16.5202   26.2918 C   0  0  2  0  0  0  0  0  0  0  0  0
    8.7012  -16.8692   25.3858 N   0  0  0  0  0  0  0  0  0  0  0  0
    9.9025  -17.5882   27.3316 C   0  0  0  0  0  0  0  0  0  0  0  0
   11.0497  -17.9043   28.0079 O   0  0  0  0  0  0  0  0  0  0  0  0
    8.8732  -18.2555   27.6295 O   0  0  0  0  0  0  0  0  0  0  0  0
  2  4  1  0
  2  1  1  1
  3  2  1  0
  4  5  1  0
  5  6  1  6
  7  8  2  0
  7  5  1  0
  9  7  1  0
 10  9  1  0
 10 11  1  6
 12 16  1  0
 12 11  1  0
 13 12  2  0
 14 13  1  0
 14 15  1  0
 15 16  2  0
 17 10  1  0
 18 17  2  0
 20 19  1  0
 21 20  1  0
 22 21  1  0
 23 22  1  1
 23 24  1  0
 24 17  1  0
 25 23  1  0
 26 25  1  0
 27 25  2  0
M  END
$$$$
