LHM.pdb
     RDKit          3D

 27 27  0  0  1  0  0  0  0  0999 V2000
    6.4602  -12.7427   17.9337 C   0  0  0  0  0  0  0  0  0  0  0  0
    7.8291  -13.4091   18.1222 C   0  0  1  0  0  0  0  0  0  0  0  0
    8.9151  -12.3388   18.0439 C   0  0  0  0  0  0  0  0  0  0  0  0
    7.8528  -14.0825   19.4629 C   0  0  0  0  0  0  0  0  0  0  0  0
    9.1807  -14.6519   19.8612 C   0  0  2  0  0  0  0  0  0  0  0  0
    9.7730  -15.4014   18.7508 N   0  0  0  0  0  0  0  0  0  0  0  0
    9.0435  -15.5269   21.0519 C   0  0  0  0  0  0  0  0  0  0  0  0
    8.3043  -15.2859   22.0310 O   0  0  0  0  0  0  0  0  0  0  0  0
    9.7894  -16.7613   21.1516 N   0  0  0  0  0  0  0  0  0  0  0  0
    9.6602  -17.6108   22.3133 C   0  0  1  0  0  0  0  0  0  0  0  0
   10.4749  -18.8714   22.1840 C   0  0  0  0  0  0  0  0  0  0  0  0
   10.3847  -19.7285   23.3846 C   0  0  0  0  0  0  0  0  0  0  0  0
   10.6221  -19.3407   24.6810 C   0  0  0  0  0  0  0  0  0  0  0  0
   10.4390  -20.4022   25.5095 N   0  0  0  0  0  0  0  0  0  0  0  0
   10.0922  -21.4390   24.7449 C   0  0  0  0  0  0  0  0  0  0  0  0
   10.0609  -21.0297   23.4688 N   0  0  0  0  0  0  0  0  0  0  0  0
    9.9323  -16.8321   23.5343 C   0  0  0  0  0  0  0  0  0  0  0  0
   10.9979  -16.1855   23.6187 O   0  0  0  0  0  0  0  0  0  0  0  0
    6.3797  -11.8392   28.1469 C   0  0  0  0  0  0  0  0  0  0  0  0
    6.4494  -13.1385   26.9395 S   0  0  0  0  0  0  0  0  0  0  0  0
    7.9942  -13.9947   26.8458 C   0  0  0  0  0  0  0  0  0  0  0  0
    8.0502  -15.0023   25.7725 C   0  0  0  0  0  0  0  0  0  0  0  0
    9.3198  -15.8048   25.6824 C   0  0  2  0  0  0  0  0  0  0  0  0
    9.0261  -16.7929   24.6088 N   0  0  0  0  0  0  0  0  0  0  0  0
    9.4557  -16.5699   26.9565 C   0  0  0  0  0  0  0  0  0  0  0  0
   10.0056  -16.0461   28.0952 O   0  0  0  0  0  0  0  0  0  0  0  0
    9.0536  -17.7645   27.0253 O   0  0  0  0  0  0  0  0  0  0  0  0
  2  4  1  0
  2  1  1  1
  3  2  1  0
  4  5  1  0
  5  6  1  6
  7  8  2  0
  7  5  1  0
  9  7  1  0
 10  9  1  0
 10 11  1  6
 12 16  1  0
 12 11  1  0
 13 12  2  0
 14 13  1  0
 14 15  1  0
 15 16  2  0
 17 10  1  0
 18 17  2  0
 20 19  1  0
 21 20  1  0
 22 21  1  0
 23 22  1  1
 23 24  1  0
 24 17  1  0
 25 23  1  0
 26 25  1  0
 27 25  2  0
M  END
$$$$
