LHM.pdb
     RDKit          3D

 27 27  0  0  1  0  0  0  0  0999 V2000
    7.1985  -11.8086   19.8964 C   0  0  0  0  0  0  0  0  0  0  0  0
    7.9249  -13.1038   19.5113 C   0  0  1  0  0  0  0  0  0  0  0  0
    9.3626  -12.7676   19.1222 C   0  0  0  0  0  0  0  0  0  0  0  0
    7.9045  -14.0323   20.6897 C   0  0  0  0  0  0  0  0  0  0  0  0
    8.6158  -15.3349   20.4810 C   0  0  2  0  0  0  0  0  0  0  0  0
    7.9349  -16.1351   19.4603 N   0  0  0  0  0  0  0  0  0  0  0  0
    8.7046  -16.0968   21.7514 C   0  0  0  0  0  0  0  0  0  0  0  0
    7.7217  -16.5239   22.3953 O   0  0  0  0  0  0  0  0  0  0  0  0
    9.9884  -16.4014   22.3422 N   0  0  0  0  0  0  0  0  0  0  0  0
   10.0745  -17.1259   23.5894 C   0  0  1  0  0  0  0  0  0  0  0  0
   11.0443  -18.2759   23.5081 C   0  0  0  0  0  0  0  0  0  0  0  0
   10.5088  -19.4134   22.7311 C   0  0  0  0  0  0  0  0  0  0  0  0
    9.3091  -20.0491   22.9409 C   0  0  0  0  0  0  0  0  0  0  0  0
    9.1617  -21.0455   22.0285 N   0  0  0  0  0  0  0  0  0  0  0  0
   10.2515  -21.0346   21.2591 C   0  0  0  0  0  0  0  0  0  0  0  0
   11.0582  -20.0523   21.6848 N   0  0  0  0  0  0  0  0  0  0  0  0
   10.3336  -16.1874   24.6955 C   0  0  0  0  0  0  0  0  0  0  0  0
   11.2841  -15.3824   24.6002 O   0  0  0  0  0  0  0  0  0  0  0  0
    6.1694  -12.8405   27.0371 C   0  0  0  0  0  0  0  0  0  0  0  0
    7.6479  -12.0266   26.4869 S   0  0  0  0  0  0  0  0  0  0  0  0
    9.1276  -12.9861   26.6206 C   0  0  0  0  0  0  0  0  0  0  0  0
    8.9134  -14.3327   27.1784 C   0  0  0  0  0  0  0  0  0  0  0  0
   10.0312  -15.3195   26.9758 C   0  0  2  0  0  0  0  0  0  0  0  0
    9.5405  -16.1691   25.8565 N   0  0  0  0  0  0  0  0  0  0  0  0
   10.0880  -16.1852   28.1901 C   0  0  0  0  0  0  0  0  0  0  0  0
   10.7230  -15.8206   29.3465 O   0  0  0  0  0  0  0  0  0  0  0  0
    9.5330  -17.3190   28.1879 O   0  0  0  0  0  0  0  0  0  0  0  0
  2  4  1  0
  2  1  1  1
  3  2  1  0
  4  5  1  0
  5  6  1  6
  7  8  2  0
  7  5  1  0
  9  7  1  0
 10  9  1  0
 10 11  1  6
 12 16  1  0
 12 11  1  0
 13 12  2  0
 14 13  1  0
 14 15  1  0
 15 16  2  0
 17 10  1  0
 18 17  2  0
 20 19  1  0
 21 20  1  0
 22 21  1  0
 23 22  1  1
 23 24  1  0
 24 17  1  0
 25 23  1  0
 26 25  1  0
 27 25  2  0
M  END
$$$$
