LHM.pdb
     RDKit          3D

 27 27  0  0  1  0  0  0  0  0999 V2000
    7.9932  -11.9345   19.0261 C   0  0  0  0  0  0  0  0  0  0  0  0
    8.8978  -13.1598   18.8416 C   0  0  1  0  0  0  0  0  0  0  0  0
   10.3295  -12.7774   19.2093 C   0  0  0  0  0  0  0  0  0  0  0  0
    8.4029  -14.2587   19.7353 C   0  0  0  0  0  0  0  0  0  0  0  0
    9.3303  -15.4281   19.8727 C   0  0  2  0  0  0  0  0  0  0  0  0
    9.2140  -16.3158   18.7133 N   0  0  0  0  0  0  0  0  0  0  0  0
    9.0497  -16.1798   21.1211 C   0  0  0  0  0  0  0  0  0  0  0  0
    7.9280  -16.6258   21.4466 O   0  0  0  0  0  0  0  0  0  0  0  0
   10.1034  -16.4506   22.0732 N   0  0  0  0  0  0  0  0  0  0  0  0
    9.8237  -17.1519   23.3051 C   0  0  1  0  0  0  0  0  0  0  0  0
   10.4660  -18.5143   23.3373 C   0  0  0  0  0  0  0  0  0  0  0  0
   11.6271  -18.6136   22.4282 C   0  0  0  0  0  0  0  0  0  0  0  0
   11.6072  -18.4606   21.0631 C   0  0  0  0  0  0  0  0  0  0  0  0
   12.8647  -18.6213   20.5734 N   0  0  0  0  0  0  0  0  0  0  0  0
   13.6602  -18.8710   21.6148 C   0  0  0  0  0  0  0  0  0  0  0  0
   12.9124  -18.8655   22.7273 N   0  0  0  0  0  0  0  0  0  0  0  0
   10.1576  -16.2936   24.4555 C   0  0  0  0  0  0  0  0  0  0  0  0
   11.1349  -15.5199   24.3737 O   0  0  0  0  0  0  0  0  0  0  0  0
    5.6511  -11.7491   26.1226 C   0  0  0  0  0  0  0  0  0  0  0  0
    6.3518  -13.1186   27.0081 S   0  0  0  0  0  0  0  0  0  0  0  0
    7.9455  -13.6402   26.4460 C   0  0  0  0  0  0  0  0  0  0  0  0
    8.4832  -14.7996   27.1789 C   0  0  0  0  0  0  0  0  0  0  0  0
    9.8015  -15.3378   26.6924 C   0  0  2  0  0  0  0  0  0  0  0  0
    9.4066  -16.3177   25.6440 N   0  0  0  0  0  0  0  0  0  0  0  0
   10.4069  -16.1157   27.8130 C   0  0  0  0  0  0  0  0  0  0  0  0
   10.3836  -17.4826   27.8805 O   0  0  0  0  0  0  0  0  0  0  0  0
   10.9788  -15.5163   28.7654 O   0  0  0  0  0  0  0  0  0  0  0  0
  2  4  1  0
  2  1  1  1
  3  2  1  0
  4  5  1  0
  5  6  1  6
  7  8  2  0
  7  5  1  0
  9  7  1  0
 10  9  1  0
 10 11  1  1
 12 16  1  0
 12 11  1  0
 13 12  2  0
 14 13  1  0
 14 15  1  0
 15 16  2  0
 17 10  1  0
 18 17  2  0
 20 19  1  0
 21 20  1  0
 22 21  1  0
 23 22  1  1
 23 24  1  0
 24 17  1  0
 25 23  1  0
 26 25  1  0
 27 25  2  0
M  END
$$$$
