LHM.pdb
     RDKit          3D

 27 27  0  0  1  0  0  0  0  0999 V2000
    6.8025  -12.7839   18.9209 C   0  0  0  0  0  0  0  0  0  0  0  0
    8.2042  -13.2057   19.3803 C   0  0  1  0  0  0  0  0  0  0  0  0
    8.9586  -11.9697   19.8645 C   0  0  0  0  0  0  0  0  0  0  0  0
    8.0633  -14.2028   20.4926 C   0  0  0  0  0  0  0  0  0  0  0  0
    9.3382  -14.5407   21.2042 C   0  0  2  0  0  0  0  0  0  0  0  0
   10.4168  -14.7791   20.2422 N   0  0  0  0  0  0  0  0  0  0  0  0
    9.1577  -15.7299   22.0734 C   0  0  0  0  0  0  0  0  0  0  0  0
    8.1621  -15.9350   22.8014 O   0  0  0  0  0  0  0  0  0  0  0  0
   10.1669  -16.7636   22.1303 N   0  0  0  0  0  0  0  0  0  0  0  0
   10.0170  -17.8943   23.0174 C   0  0  1  0  0  0  0  0  0  0  0  0
   10.9725  -19.0085   22.6778 C   0  0  0  0  0  0  0  0  0  0  0  0
   10.5452  -19.7776   21.4903 C   0  0  0  0  0  0  0  0  0  0  0  0
    9.3866  -19.5936   20.7753 C   0  0  0  0  0  0  0  0  0  0  0  0
    9.3419  -20.4869   19.7522 N   0  0  0  0  0  0  0  0  0  0  0  0
   10.4548  -21.2192   19.8245 C   0  0  0  0  0  0  0  0  0  0  0  0
   11.1748  -20.7896   20.8704 N   0  0  0  0  0  0  0  0  0  0  0  0
   10.0815  -17.4422   24.4184 C   0  0  0  0  0  0  0  0  0  0  0  0
    9.0679  -17.5519   25.1403 O   0  0  0  0  0  0  0  0  0  0  0  0
   10.7107  -12.8215   29.0709 C   0  0  0  0  0  0  0  0  0  0  0  0
    9.7006  -13.3110   27.6958 S   0  0  0  0  0  0  0  0  0  0  0  0
    9.3567  -15.0430   27.5954 C   0  0  0  0  0  0  0  0  0  0  0  0
    9.7867  -15.6611   26.3291 C   0  0  0  0  0  0  0  0  0  0  0  0
   11.1338  -16.3313   26.3428 C   0  0  2  0  0  0  0  0  0  0  0  0
   11.2525  -16.8918   24.9690 N   0  0  0  0  0  0  0  0  0  0  0  0
   11.0474  -17.4882   27.2817 C   0  0  0  0  0  0  0  0  0  0  0  0
   10.5175  -18.7018   26.9356 O   0  0  0  0  0  0  0  0  0  0  0  0
   11.4752  -17.3791   28.4643 O   0  0  0  0  0  0  0  0  0  0  0  0
  2  4  1  0
  2  1  1  1
  3  2  1  0
  4  5  1  0
  5  6  1  6
  7  8  2  0
  7  5  1  0
  9  7  1  0
 10  9  1  0
 10 11  1  6
 12 16  1  0
 12 11  1  0
 13 12  2  0
 14 13  1  0
 14 15  1  0
 15 16  2  0
 17 10  1  0
 18 17  2  0
 20 19  1  0
 21 20  1  0
 22 21  1  0
 23 22  1  6
 23 24  1  0
 24 17  1  0
 25 23  1  0
 26 25  1  0
 27 25  2  0
M  END
$$$$
