LHM.pdb
     RDKit          3D

 27 27  0  0  1  0  0  0  0  0999 V2000
    7.5459  -11.7664   19.8420 C   0  0  0  0  0  0  0  0  0  0  0  0
    7.8475  -13.1953   19.3717 C   0  0  1  0  0  0  0  0  0  0  0  0
    9.0391  -13.1607   18.4178 C   0  0  0  0  0  0  0  0  0  0  0  0
    8.1621  -14.0378   20.5727 C   0  0  0  0  0  0  0  0  0  0  0  0
    8.4141  -15.4861   20.2808 C   0  0  2  0  0  0  0  0  0  0  0  0
    7.2232  -16.1081   19.6971 N   0  0  0  0  0  0  0  0  0  0  0  0
    8.8164  -16.2101   21.5122 C   0  0  0  0  0  0  0  0  0  0  0  0
    8.0281  -16.5835   22.4079 O   0  0  0  0  0  0  0  0  0  0  0  0
   10.2029  -16.5387   21.7566 N   0  0  0  0  0  0  0  0  0  0  0  0
   10.5883  -17.2909   22.9285 C   0  0  1  0  0  0  0  0  0  0  0  0
   11.9477  -17.9214   22.7725 C   0  0  0  0  0  0  0  0  0  0  0  0
   12.3108  -18.7742   23.9236 C   0  0  0  0  0  0  0  0  0  0  0  0
   11.4478  -19.5251   24.6844 C   0  0  0  0  0  0  0  0  0  0  0  0
   12.1481  -20.1752   25.6507 N   0  0  0  0  0  0  0  0  0  0  0  0
   13.4296  -19.8373   25.4983 C   0  0  0  0  0  0  0  0  0  0  0  0
   13.5229  -18.9953   24.4594 N   0  0  0  0  0  0  0  0  0  0  0  0
   10.4399  -16.4526   24.1313 C   0  0  0  0  0  0  0  0  0  0  0  0
   10.9508  -15.3127   24.1451 O   0  0  0  0  0  0  0  0  0  0  0  0
    6.6048  -11.5214   26.2553 C   0  0  0  0  0  0  0  0  0  0  0  0
    6.7330  -13.2726   26.5154 S   0  0  0  0  0  0  0  0  0  0  0  0
    8.3572  -13.9443   26.3186 C   0  0  0  0  0  0  0  0  0  0  0  0
    8.4237  -15.4031   26.5126 C   0  0  0  0  0  0  0  0  0  0  0  0
    9.7970  -16.0163   26.4638 C   0  0  2  0  0  0  0  0  0  0  0  0
    9.7374  -16.8970   25.2654 N   0  0  0  0  0  0  0  0  0  0  0  0
    9.9313  -16.9058   27.6547 C   0  0  0  0  0  0  0  0  0  0  0  0
   10.3614  -16.4677   28.8780 O   0  0  0  0  0  0  0  0  0  0  0  0
    9.6422  -18.1315   27.5671 O   0  0  0  0  0  0  0  0  0  0  0  0
  2  4  1  0
  2  1  1  1
  3  2  1  0
  4  5  1  0
  5  6  1  1
  7  8  2  0
  7  5  1  0
  9  7  1  0
 10  9  1  0
 10 11  1  6
 12 16  1  0
 12 11  1  0
 13 12  2  0
 14 13  1  0
 14 15  1  0
 15 16  2  0
 17 10  1  0
 18 17  2  0
 20 19  1  0
 21 20  1  0
 22 21  1  0
 23 22  1  1
 23 24  1  0
 24 17  1  0
 25 23  1  0
 26 25  1  0
 27 25  2  0
M  END
$$$$
