LHM.pdb
     RDKit          3D

 27 27  0  0  1  0  0  0  0  0999 V2000
    7.8987  -12.0190   19.0472 C   0  0  0  0  0  0  0  0  0  0  0  0
    7.9960  -13.4853   18.6065 C   0  0  1  0  0  0  0  0  0  0  0  0
    8.7813  -13.5576   17.2991 C   0  0  0  0  0  0  0  0  0  0  0  0
    8.6962  -14.2626   19.6820 C   0  0  0  0  0  0  0  0  0  0  0  0
    8.7161  -15.7473   19.4782 C   0  0  2  0  0  0  0  0  0  0  0  0
    7.5985  -16.1650   18.6284 N   0  0  0  0  0  0  0  0  0  0  0  0
    8.6615  -16.4590   20.7793 C   0  0  0  0  0  0  0  0  0  0  0  0
    7.6481  -16.5340   21.5076 O   0  0  0  0  0  0  0  0  0  0  0  0
    9.8279  -17.1352   21.3012 N   0  0  0  0  0  0  0  0  0  0  0  0
    9.8124  -17.7228   22.6211 C   0  0  1  0  0  0  0  0  0  0  0  0
   10.8552  -18.7995   22.7718 C   0  0  0  0  0  0  0  0  0  0  0  0
   10.8790  -19.3772   24.1320 C   0  0  0  0  0  0  0  0  0  0  0  0
    9.9338  -20.2112   24.6785 C   0  0  0  0  0  0  0  0  0  0  0  0
   10.2984  -20.5352   25.9470 N   0  0  0  0  0  0  0  0  0  0  0  0
   11.4537  -19.9145   26.1917 C   0  0  0  0  0  0  0  0  0  0  0  0
   11.7988  -19.2198   25.0985 N   0  0  0  0  0  0  0  0  0  0  0  0
    9.8806  -16.6615   23.6412 C   0  0  0  0  0  0  0  0  0  0  0  0
   10.7224  -15.7475   23.5127 O   0  0  0  0  0  0  0  0  0  0  0  0
    6.5111  -11.0050   27.1374 C   0  0  0  0  0  0  0  0  0  0  0  0
    6.4890  -12.5476   26.2594 S   0  0  0  0  0  0  0  0  0  0  0  0
    7.8527  -13.6226   26.5953 C   0  0  0  0  0  0  0  0  0  0  0  0
    7.9930  -14.7236   25.6266 C   0  0  0  0  0  0  0  0  0  0  0  0
    9.2446  -15.5511   25.7405 C   0  0  2  0  0  0  0  0  0  0  0  0
    9.0237  -16.6453   24.7560 N   0  0  0  0  0  0  0  0  0  0  0  0
    9.2453  -16.1753   27.0961 C   0  0  0  0  0  0  0  0  0  0  0  0
    9.7250  -15.5485   28.2143 O   0  0  0  0  0  0  0  0  0  0  0  0
    8.7874  -17.3405   27.2584 O   0  0  0  0  0  0  0  0  0  0  0  0
  2  4  1  0
  2  1  1  1
  3  2  1  0
  4  5  1  0
  5  6  1  6
  7  8  2  0
  7  5  1  0
  9  7  1  0
 10  9  1  0
 10 11  1  6
 12 16  1  0
 12 11  1  0
 13 12  2  0
 14 13  1  0
 14 15  1  0
 15 16  2  0
 17 10  1  0
 18 17  2  0
 20 19  1  0
 21 20  1  0
 22 21  1  0
 23 22  1  1
 23 24  1  0
 24 17  1  0
 25 23  1  0
 26 25  1  0
 27 25  2  0
M  END
$$$$
