LHM.pdb
     RDKit          3D

 27 27  0  0  1  0  0  0  0  0999 V2000
    7.4163  -12.0139   20.3652 C   0  0  0  0  0  0  0  0  0  0  0  0
    7.8109  -13.2841   19.6007 C   0  0  1  0  0  0  0  0  0  0  0  0
    8.9253  -12.9419   18.6148 C   0  0  0  0  0  0  0  0  0  0  0  0
    8.2823  -14.3101   20.5888 C   0  0  0  0  0  0  0  0  0  0  0  0
    8.6800  -15.6264   19.9927 C   0  0  2  0  0  0  0  0  0  0  0  0
    7.5337  -16.2628   19.3395 N   0  0  0  0  0  0  0  0  0  0  0  0
    9.2410  -16.5272   21.0300 C   0  0  0  0  0  0  0  0  0  0  0  0
    8.5664  -17.1123   21.9050 O   0  0  0  0  0  0  0  0  0  0  0  0
   10.6613  -16.7905   21.0904 N   0  0  0  0  0  0  0  0  0  0  0  0
   11.2172  -17.6063   22.1455 C   0  0  1  0  0  0  0  0  0  0  0  0
   12.5948  -18.1105   21.8026 C   0  0  0  0  0  0  0  0  0  0  0  0
   13.1301  -19.0331   22.8256 C   0  0  0  0  0  0  0  0  0  0  0  0
   12.4797  -19.4573   23.9590 C   0  0  0  0  0  0  0  0  0  0  0  0
   13.2886  -20.2995   24.6541 N   0  0  0  0  0  0  0  0  0  0  0  0
   14.4279  -20.4019   23.9675 C   0  0  0  0  0  0  0  0  0  0  0  0
   14.3283  -19.6392   22.8696 N   0  0  0  0  0  0  0  0  0  0  0  0
   11.1336  -16.8877   23.4293 C   0  0  0  0  0  0  0  0  0  0  0  0
   11.3368  -15.6553   23.4509 O   0  0  0  0  0  0  0  0  0  0  0  0
    9.6253  -13.0145   28.8182 C   0  0  0  0  0  0  0  0  0  0  0  0
   10.0910  -13.9675   27.3949 S   0  0  0  0  0  0  0  0  0  0  0  0
    9.0281  -15.3315   27.0236 C   0  0  0  0  0  0  0  0  0  0  0  0
    9.4295  -16.0875   25.8246 C   0  0  0  0  0  0  0  0  0  0  0  0
   10.8017  -16.7041   25.8584 C   0  0  2  0  0  0  0  0  0  0  0  0
   10.8292  -17.5481   24.6328 N   0  0  0  0  0  0  0  0  0  0  0  0
   10.8465  -17.6295   27.0284 C   0  0  0  0  0  0  0  0  0  0  0  0
   10.2876  -18.8788   27.0230 O   0  0  0  0  0  0  0  0  0  0  0  0
   11.4213  -17.2762   28.0953 O   0  0  0  0  0  0  0  0  0  0  0  0
  2  4  1  0
  2  1  1  1
  3  2  1  0
  4  5  1  0
  5  6  1  1
  7  8  2  0
  7  5  1  0
  9  7  1  0
 10  9  1  0
 10 11  1  6
 12 16  1  0
 12 11  1  0
 13 12  2  0
 14 13  1  0
 14 15  1  0
 15 16  2  0
 17 10  1  0
 18 17  2  0
 20 19  1  0
 21 20  1  0
 22 21  1  0
 23 22  1  1
 23 24  1  0
 24 17  1  0
 25 23  1  0
 26 25  1  0
 27 25  2  0
M  END
$$$$
