LHM.pdb
     RDKit          3D

 27 27  0  0  1  0  0  0  0  0999 V2000
    7.4718  -11.8364   19.2631 C   0  0  0  0  0  0  0  0  0  0  0  0
    8.2425  -13.1089   18.8884 C   0  0  1  0  0  0  0  0  0  0  0  0
    9.7031  -12.7451   18.6325 C   0  0  0  0  0  0  0  0  0  0  0  0
    8.1367  -14.0841   20.0238 C   0  0  0  0  0  0  0  0  0  0  0  0
    8.8431  -15.3878   19.8058 C   0  0  2  0  0  0  0  0  0  0  0  0
    8.2167  -16.1359   18.7132 N   0  0  0  0  0  0  0  0  0  0  0  0
    8.8436  -16.2014   21.0468 C   0  0  0  0  0  0  0  0  0  0  0  0
    7.8235  -16.6958   21.5742 O   0  0  0  0  0  0  0  0  0  0  0  0
   10.0772  -16.4805   21.7470 N   0  0  0  0  0  0  0  0  0  0  0  0
   10.0730  -17.2354   22.9790 C   0  0  1  0  0  0  0  0  0  0  0  0
   11.1336  -18.3052   22.9890 C   0  0  0  0  0  0  0  0  0  0  0  0
   10.7625  -19.4771   22.1685 C   0  0  0  0  0  0  0  0  0  0  0  0
   10.1374  -19.4490   20.9454 C   0  0  0  0  0  0  0  0  0  0  0  0
    9.9625  -20.7208   20.4995 N   0  0  0  0  0  0  0  0  0  0  0  0
   10.4699  -21.5332   21.4282 C   0  0  0  0  0  0  0  0  0  0  0  0
   10.9494  -20.7817   22.4293 N   0  0  0  0  0  0  0  0  0  0  0  0
   10.1248  -16.3153   24.1289 C   0  0  0  0  0  0  0  0  0  0  0  0
   11.0243  -15.4496   24.1752 O   0  0  0  0  0  0  0  0  0  0  0  0
    6.6797  -11.6763   27.3001 C   0  0  0  0  0  0  0  0  0  0  0  0
    6.4117  -12.9823   26.1282 S   0  0  0  0  0  0  0  0  0  0  0  0
    7.8555  -13.9034   25.6868 C   0  0  0  0  0  0  0  0  0  0  0  0
    8.2893  -14.8586   26.7212 C   0  0  0  0  0  0  0  0  0  0  0  0
    9.5393  -15.6400   26.4192 C   0  0  2  0  0  0  0  0  0  0  0  0
    9.1894  -16.3809   25.1767 N   0  0  0  0  0  0  0  0  0  0  0  0
    9.7044  -16.6539   27.5018 C   0  0  0  0  0  0  0  0  0  0  0  0
   10.2603  -16.3718   28.7203 O   0  0  0  0  0  0  0  0  0  0  0  0
    9.3230  -17.8436   27.3207 O   0  0  0  0  0  0  0  0  0  0  0  0
  2  4  1  0
  2  1  1  1
  3  2  1  0
  4  5  1  0
  5  6  1  6
  7  8  2  0
  7  5  1  0
  9  7  1  0
 10  9  1  0
 10 11  1  6
 12 16  1  0
 12 11  1  0
 13 12  2  0
 14 13  1  0
 14 15  1  0
 15 16  2  0
 17 10  1  0
 18 17  2  0
 20 19  1  0
 21 20  1  0
 22 21  1  0
 23 22  1  1
 23 24  1  0
 24 17  1  0
 25 23  1  0
 26 25  1  0
 27 25  2  0
M  END
$$$$
