LHM.pdb
     RDKit          3D

 27 27  0  0  1  0  0  0  0  0999 V2000
    6.7864  -12.6438   18.5782 C   0  0  0  0  0  0  0  0  0  0  0  0
    8.1178  -13.3890   18.7388 C   0  0  1  0  0  0  0  0  0  0  0  0
    9.2534  -12.3693   18.7793 C   0  0  0  0  0  0  0  0  0  0  0  0
    8.0745  -14.1760   20.0155 C   0  0  0  0  0  0  0  0  0  0  0  0
    9.3883  -14.7534   20.4474 C   0  0  2  0  0  0  0  0  0  0  0  0
    9.9559  -15.5901   19.3874 N   0  0  0  0  0  0  0  0  0  0  0  0
    9.2328  -15.5443   21.6934 C   0  0  0  0  0  0  0  0  0  0  0  0
    8.2942  -15.4110   22.5085 O   0  0  0  0  0  0  0  0  0  0  0  0
   10.1999  -16.5576   22.0511 N   0  0  0  0  0  0  0  0  0  0  0  0
   10.0086  -17.3806   23.2232 C   0  0  1  0  0  0  0  0  0  0  0  0
   10.8682  -18.6174   23.1908 C   0  0  0  0  0  0  0  0  0  0  0  0
   10.4081  -19.5996   22.1868 C   0  0  0  0  0  0  0  0  0  0  0  0
    9.1042  -19.8596   21.8408 C   0  0  0  0  0  0  0  0  0  0  0  0
    9.0759  -20.8233   20.8830 N   0  0  0  0  0  0  0  0  0  0  0  0
   10.3418  -21.1620   20.6325 C   0  0  0  0  0  0  0  0  0  0  0  0
   11.1389  -20.4243   21.4182 N   0  0  0  0  0  0  0  0  0  0  0  0
   10.1639  -16.5623   24.4388 C   0  0  0  0  0  0  0  0  0  0  0  0
   11.1424  -15.7914   24.5323 O   0  0  0  0  0  0  0  0  0  0  0  0
    6.7420  -11.4824   25.8267 C   0  0  0  0  0  0  0  0  0  0  0  0
    7.5559  -12.6697   26.8654 S   0  0  0  0  0  0  0  0  0  0  0  0
    7.5720  -14.3255   26.2438 C   0  0  0  0  0  0  0  0  0  0  0  0
    8.2248  -15.2912   27.1445 C   0  0  0  0  0  0  0  0  0  0  0  0
    9.5666  -15.8084   26.7014 C   0  0  2  0  0  0  0  0  0  0  0  0
    9.2410  -16.6215   25.4981 N   0  0  0  0  0  0  0  0  0  0  0  0
   10.0496  -16.7534   27.7508 C   0  0  0  0  0  0  0  0  0  0  0  0
   10.7002  -16.3509   28.8857 O   0  0  0  0  0  0  0  0  0  0  0  0
    9.8663  -17.9954   27.6193 O   0  0  0  0  0  0  0  0  0  0  0  0
  2  4  1  0
  2  1  1  1
  3  2  1  0
  4  5  1  0
  5  6  1  6
  7  8  2  0
  7  5  1  0
  9  7  1  0
 10  9  1  0
 10 11  1  1
 12 16  1  0
 12 11  1  0
 13 12  2  0
 14 13  1  0
 14 15  1  0
 15 16  2  0
 17 10  1  0
 18 17  2  0
 20 19  1  0
 21 20  1  0
 22 21  1  0
 23 22  1  1
 23 24  1  0
 24 17  1  0
 25 23  1  0
 26 25  1  0
 27 25  2  0
M  END
$$$$
