GRW.pdb
     RDKit          3D

 30 31  0  0  1  0  0  0  0  0999 V2000
   29.2236  -18.5636  -15.3452 N   0  0  0  0  0  0  0  0  0  0  0  0
   29.2984  -19.4675  -14.2252 C   0  0  0  0  0  0  0  0  0  0  0  0
   27.9105  -19.8128  -13.7729 C   0  0  0  0  0  0  0  0  0  0  0  0
   27.0846  -18.9126  -13.5977 O   0  0  0  0  0  0  0  0  0  0  0  0
   21.5641  -23.7742  -15.4960 N   0  0  0  0  0  0  0  0  0  0  0  0
   22.7701  -23.6633  -16.2748 C   0  0  0  0  0  0  0  0  0  0  0  0
   22.7213  -23.3031  -17.5054 N   0  0  0  0  0  0  0  0  0  0  0  0
   23.9729  -23.9712  -15.6039 N   0  0  0  0  0  0  0  0  0  0  0  0
   23.9783  -24.3961  -14.2355 C   0  0  0  0  0  0  0  0  0  0  0  0
   24.3704  -23.2746  -13.3225 C   0  0  0  0  0  0  0  0  0  0  0  0
   25.7319  -22.7761  -13.7269 C   0  0  0  0  0  0  0  0  0  0  0  0
   26.2587  -21.5869  -13.0375 C   0  0  2  0  0  0  0  0  0  0  0  0
   27.5467  -21.1473  -13.5483 N   0  0  0  0  0  0  0  0  0  0  0  0
   26.3485  -21.8135  -11.5532 C   0  0  0  0  0  0  0  0  0  0  0  0
   27.2857  -22.4840  -11.0500 O   0  0  0  0  0  0  0  0  0  0  0  0
   23.6059  -23.2495  -18.0470 N   0  0  0  0  0  0  0  0  0  0  0  0
   25.3304  -21.2393  -10.7483 C   0  0  1  0  0  0  0  0  0  0  0  0
   25.3618  -21.3936   -9.2722 C   0  0  0  0  0  0  0  0  0  0  0  0
   26.6596  -20.7958   -8.8583 C   0  0  0  0  0  0  0  0  0  0  0  0
   26.7780  -20.6909   -7.4007 C   0  0  0  0  0  0  0  0  0  0  0  0
   26.0161  -21.3754   -6.4482 N   0  0  0  0  0  0  0  0  0  0  0  0
   26.3824  -21.0016   -5.2130 C   0  0  0  0  0  0  0  0  0  0  0  0
   27.3690  -20.0871   -5.3280 C   0  0  0  0  0  0  0  0  0  0  0  0
   28.1067  -19.3990   -4.3682 C   0  0  0  0  0  0  0  0  0  0  0  0
   29.0763  -18.5329   -4.7845 C   0  0  0  0  0  0  0  0  0  0  0  0
   29.3296  -18.3348   -6.1260 C   0  0  0  0  0  0  0  0  0  0  0  0
   28.6060  -19.0087   -7.0730 C   0  0  0  0  0  0  0  0  0  0  0  0
   27.6227  -19.8867   -6.6789 C   0  0  0  0  0  0  0  0  0  0  0  0
   24.1611  -20.8585   -8.6576 O   0  0  0  0  0  0  0  0  0  0  0  0
   23.6178  -21.3111   -7.4750 O   0  0  0  0  0  0  0  0  0  0  0  0
  2  1  1  0
  3  2  1  0
  4  3  2  0
  6  8  1  0
  6  5  1  0
  7  6  2  0
  9  8  1  0
 10  9  1  0
 11 10  1  0
 12 11  1  6
 12 13  1  0
 13  3  1  0
 14 16  1  0
 14 12  1  0
 15 14  2  0
 17 18  1  1
 17 16  1  0
 18 19  1  0
 19 20  2  0
 19 27  1  0
 20 21  1  0
 21 22  1  0
 22 23  2  0
 23 24  1  0
 25 24  2  0
 26 25  1  0
 27 26  2  0
 27 22  1  0
 28 17  1  0
 28 29  1  0
 30 28  2  0
M  END
$$$$
