GRW.pdb
     RDKit          3D

 30 31  0  0  1  0  0  0  0  0999 V2000
   29.0956  -17.7382  -15.8083 N   0  0  0  0  0  0  0  0  0  0  0  0
   29.1439  -18.9618  -15.0484 C   0  0  0  0  0  0  0  0  0  0  0  0
   27.8609  -19.1248  -14.2886 C   0  0  0  0  0  0  0  0  0  0  0  0
   27.1031  -18.1597  -14.1574 O   0  0  0  0  0  0  0  0  0  0  0  0
   25.8913  -23.7367  -17.0802 N   0  0  0  0  0  0  0  0  0  0  0  0
   25.6080  -24.5417  -15.9205 C   0  0  0  0  0  0  0  0  0  0  0  0
   26.1270  -25.7084  -15.7936 N   0  0  0  0  0  0  0  0  0  0  0  0
   24.7432  -23.9692  -14.9635 N   0  0  0  0  0  0  0  0  0  0  0  0
   24.1152  -22.7009  -15.1869 C   0  0  0  0  0  0  0  0  0  0  0  0
   25.0521  -21.5722  -14.8814 C   0  0  0  0  0  0  0  0  0  0  0  0
   25.4727  -21.6705  -13.4394 C   0  0  0  0  0  0  0  0  0  0  0  0
   26.3450  -20.6110  -12.9065 C   0  0  2  0  0  0  0  0  0  0  0  0
   27.5184  -20.3626  -13.7279 N   0  0  0  0  0  0  0  0  0  0  0  0
   26.7649  -20.9113  -11.4938 C   0  0  0  0  0  0  0  0  0  0  0  0
   27.9448  -21.2497  -11.2205 O   0  0  0  0  0  0  0  0  0  0  0  0
   25.9270  -26.2545  -14.9331 N   0  0  0  0  0  0  0  0  0  0  0  0
   25.7726  -20.7970  -10.4857 C   0  0  1  0  0  0  0  0  0  0  0  0
   26.1230  -21.0043   -9.0581 C   0  0  0  0  0  0  0  0  0  0  0  0
   27.2495  -20.0657   -8.8066 C   0  0  0  0  0  0  0  0  0  0  0  0
   27.4652  -19.8351   -7.3748 C   0  0  0  0  0  0  0  0  0  0  0  0
   26.5335  -19.3373   -6.4581 N   0  0  0  0  0  0  0  0  0  0  0  0
   27.0962  -19.2293   -5.2451 C   0  0  0  0  0  0  0  0  0  0  0  0
   28.3772  -19.6451   -5.3396 C   0  0  0  0  0  0  0  0  0  0  0  0
   29.3859  -19.7528   -4.3857 C   0  0  0  0  0  0  0  0  0  0  0  0
   30.6030  -20.2357   -4.7715 C   0  0  0  0  0  0  0  0  0  0  0  0
   30.8413  -20.6126   -6.0770 C   0  0  0  0  0  0  0  0  0  0  0  0
   29.8526  -20.5075   -7.0182 C   0  0  0  0  0  0  0  0  0  0  0  0
   28.6173  -20.0230   -6.6545 C   0  0  0  0  0  0  0  0  0  0  0  0
   24.9571  -20.8825   -8.2030 O   0  0  0  0  0  0  0  0  0  0  0  0
   24.7763  -21.5692   -7.0221 O   0  0  0  0  0  0  0  0  0  0  0  0
  2  1  1  0
  3  2  1  0
  4  3  2  0
  6  8  1  0
  6  5  1  0
  7  6  2  0
  9  8  1  0
 10  9  1  0
 11 10  1  0
 12 11  1  6
 12 13  1  0
 13  3  1  0
 14 16  1  0
 14 12  1  0
 15 14  2  0
 17 18  1  1
 17 16  1  0
 18 19  1  0
 19 20  2  0
 19 27  1  0
 20 21  1  0
 21 22  1  0
 22 23  2  0
 23 24  1  0
 25 24  2  0
 26 25  1  0
 27 26  2  0
 27 22  1  0
 28 17  1  0
 28 29  1  0
 30 28  2  0
M  END
$$$$
