GRW.pdb
     RDKit          3D

 30 31  0  0  1  0  0  0  0  0999 V2000
   28.0956  -16.4895  -15.4619 N   0  0  0  0  0  0  0  0  0  0  0  0
   28.6970  -17.6321  -14.8218 C   0  0  0  0  0  0  0  0  0  0  0  0
   27.6177  -18.5516  -14.3323 C   0  0  0  0  0  0  0  0  0  0  0  0
   26.4465  -18.1629  -14.3159 O   0  0  0  0  0  0  0  0  0  0  0  0
   27.6253  -24.8557  -17.4598 N   0  0  0  0  0  0  0  0  0  0  0  0
   26.8260  -25.2207  -16.3191 C   0  0  0  0  0  0  0  0  0  0  0  0
   26.8295  -26.4260  -15.8789 N   0  0  0  0  0  0  0  0  0  0  0  0
   26.0620  -24.1855  -15.7395 N   0  0  0  0  0  0  0  0  0  0  0  0
   26.0592  -22.8615  -16.2872 C   0  0  0  0  0  0  0  0  0  0  0  0
   27.1349  -22.0193  -15.6716 C   0  0  0  0  0  0  0  0  0  0  0  0
   27.0079  -22.0928  -14.1735 C   0  0  0  0  0  0  0  0  0  0  0  0
   26.9626  -20.8249  -13.4269 C   0  0  2  0  0  0  0  0  0  0  0  0
   27.9300  -19.8455  -13.8941 N   0  0  0  0  0  0  0  0  0  0  0  0
   27.1417  -21.0556  -11.9514 C   0  0  0  0  0  0  0  0  0  0  0  0
   28.2564  -21.3857  -11.4720 O   0  0  0  0  0  0  0  0  0  0  0  0
   26.2755  -26.6505  -15.0295 N   0  0  0  0  0  0  0  0  0  0  0  0
   25.9993  -20.8856  -11.1266 C   0  0  1  0  0  0  0  0  0  0  0  0
   26.1080  -21.0253   -9.6527 C   0  0  0  0  0  0  0  0  0  0  0  0
   27.1629  -20.0531   -9.2588 C   0  0  0  0  0  0  0  0  0  0  0  0
   27.2208  -19.8614   -7.8064 C   0  0  0  0  0  0  0  0  0  0  0  0
   26.1854  -19.4129   -6.9799 N   0  0  0  0  0  0  0  0  0  0  0  0
   26.6144  -19.3292   -5.7117 C   0  0  0  0  0  0  0  0  0  0  0  0
   27.9085  -19.7128   -5.6816 C   0  0  0  0  0  0  0  0  0  0  0  0
   28.8136  -19.8267   -4.6295 C   0  0  0  0  0  0  0  0  0  0  0  0
   30.0766  -20.2700   -4.8976 C   0  0  0  0  0  0  0  0  0  0  0  0
   30.4605  -20.6014   -6.1805 C   0  0  0  0  0  0  0  0  0  0  0  0
   29.5740  -20.4901   -7.2179 C   0  0  0  0  0  0  0  0  0  0  0  0
   28.2952  -20.0451   -6.9737 C   0  0  0  0  0  0  0  0  0  0  0  0
   24.8135  -20.8930   -9.0107 O   0  0  0  0  0  0  0  0  0  0  0  0
   24.4573  -21.5094   -7.8309 O   0  0  0  0  0  0  0  0  0  0  0  0
  2  1  1  0
  3  2  1  0
  4  3  2  0
  6  8  1  0
  6  5  1  0
  7  6  2  0
  9  8  1  0
 10  9  1  0
 11 10  1  0
 12 11  1  6
 12 13  1  0
 13  3  1  0
 14 16  1  0
 14 12  1  0
 15 14  2  0
 17 18  1  1
 17 16  1  0
 18 19  1  0
 19 20  2  0
 19 27  1  0
 20 21  1  0
 21 22  1  0
 22 23  2  0
 23 24  1  0
 25 24  2  0
 26 25  1  0
 27 26  2  0
 27 22  1  0
 28 17  1  0
 28 29  1  0
 30 28  2  0
M  END
$$$$
