GRW.pdb
     RDKit          3D

 30 31  0  0  1  0  0  0  0  0999 V2000
   29.6735  -23.4933  -16.5982 N   0  0  0  0  0  0  0  0  0  0  0  0
   28.3309  -23.2928  -16.1144 C   0  0  0  0  0  0  0  0  0  0  0  0
   28.3120  -22.1250  -15.1732 C   0  0  0  0  0  0  0  0  0  0  0  0
   29.3049  -21.8834  -14.4813 O   0  0  0  0  0  0  0  0  0  0  0  0
   26.3296  -14.4395  -15.0037 N   0  0  0  0  0  0  0  0  0  0  0  0
   26.3382  -15.4088  -16.0684 C   0  0  0  0  0  0  0  0  0  0  0  0
   26.8809  -15.1325  -17.1979 N   0  0  0  0  0  0  0  0  0  0  0  0
   25.7238  -16.6473  -15.7855 N   0  0  0  0  0  0  0  0  0  0  0  0
   25.1360  -16.9157  -14.5066 C   0  0  0  0  0  0  0  0  0  0  0  0
   25.9271  -17.9403  -13.7521 C   0  0  0  0  0  0  0  0  0  0  0  0
   26.2428  -19.0845  -14.6777 C   0  0  0  0  0  0  0  0  0  0  0  0
   27.0162  -20.2127  -14.1334 C   0  0  2  0  0  0  0  0  0  0  0  0
   27.1769  -21.3091  -15.0744 N   0  0  0  0  0  0  0  0  0  0  0  0
   26.4093  -20.7220  -12.8549 C   0  0  0  0  0  0  0  0  0  0  0  0
   25.3405  -21.3844  -12.8572 O   0  0  0  0  0  0  0  0  0  0  0  0
   26.9230  -15.8708  -17.9272 N   0  0  0  0  0  0  0  0  0  0  0  0
   27.0943  -20.4214  -11.6488 C   0  0  2  0  0  0  0  0  0  0  0  0
   26.5133  -20.8055  -10.3379 C   0  0  0  0  0  0  0  0  0  0  0  0
   27.4796  -20.2888   -9.3316 C   0  0  0  0  0  0  0  0  0  0  0  0
   26.9653  -20.4052   -7.9635 C   0  0  0  0  0  0  0  0  0  0  0  0
   25.7304  -20.9355   -7.5764 N   0  0  0  0  0  0  0  0  0  0  0  0
   25.5899  -20.8464   -6.2453 C   0  0  0  0  0  0  0  0  0  0  0  0
   26.7037  -20.2706   -5.7447 C   0  0  0  0  0  0  0  0  0  0  0  0
   27.0778  -19.9645   -4.4388 C   0  0  0  0  0  0  0  0  0  0  0  0
   28.2984  -19.3921   -4.2245 C   0  0  0  0  0  0  0  0  0  0  0  0
   29.1529  -19.1176   -5.2722 C   0  0  0  0  0  0  0  0  0  0  0  0
   28.7887  -19.4161   -6.5577 C   0  0  0  0  0  0  0  0  0  0  0  0
   27.5632  -19.9929   -6.7999 C   0  0  0  0  0  0  0  0  0  0  0  0
   25.1358  -20.3653  -10.2191 O   0  0  0  0  0  0  0  0  0  0  0  0
   24.6876  -19.1004  -10.5319 O   0  0  0  0  0  0  0  0  0  0  0  0
  2  1  1  0
  3  2  1  0
  4  3  2  0
  6  8  1  0
  6  5  1  0
  7  6  2  0
  9  8  1  0
 10  9  1  0
 11 10  1  0
 12 11  1  6
 12 13  1  0
 13  3  1  0
 14 16  1  0
 14 12  1  0
 15 14  2  0
 17 18  1  6
 17 16  1  0
 18 19  1  0
 19 20  2  0
 19 27  1  0
 20 21  1  0
 21 22  1  0
 22 23  2  0
 23 24  1  0
 25 24  2  0
 26 25  1  0
 27 26  2  0
 27 22  1  0
 28 17  1  0
 28 29  1  0
 30 28  2  0
M  END
$$$$
