GRW.pdb
     RDKit          3D

 30 31  0  0  1  0  0  0  0  0999 V2000
   29.0821  -20.5713  -17.9878 N   0  0  0  0  0  0  0  0  0  0  0  0
   28.8132  -20.0930  -16.6552 C   0  0  0  0  0  0  0  0  0  0  0  0
   27.6812  -20.8804  -16.0646 C   0  0  0  0  0  0  0  0  0  0  0  0
   27.1041  -21.7276  -16.7517 O   0  0  0  0  0  0  0  0  0  0  0  0
   26.3389  -19.5294   -8.4132 N   0  0  0  0  0  0  0  0  0  0  0  0
   25.4649  -20.6720   -8.4761 C   0  0  0  0  0  0  0  0  0  0  0  0
   24.4830  -20.7881   -7.6582 N   0  0  0  0  0  0  0  0  0  0  0  0
   25.7601  -21.6252   -9.4739 N   0  0  0  0  0  0  0  0  0  0  0  0
   26.8899  -21.4738  -10.3420 C   0  0  0  0  0  0  0  0  0  0  0  0
   26.5038  -20.7889  -11.6176 C   0  0  0  0  0  0  0  0  0  0  0  0
   26.4935  -21.8056  -12.7276 C   0  0  0  0  0  0  0  0  0  0  0  0
   26.1685  -21.3353  -14.0843 C   0  0  2  0  0  0  0  0  0  0  0  0
   27.2757  -20.6603  -14.7413 N   0  0  0  0  0  0  0  0  0  0  0  0
   24.9588  -20.4416  -14.0752 C   0  0  0  0  0  0  0  0  0  0  0  0
   25.0559  -19.2127  -13.8272 O   0  0  0  0  0  0  0  0  0  0  0  0
   23.8951  -21.6433   -7.6998 N   0  0  0  0  0  0  0  0  0  0  0  0
   23.7059  -21.0457  -14.3572 C   0  0  1  0  0  0  0  0  0  0  0  0
   22.5288  -20.2103  -14.7037 C   0  0  0  0  0  0  0  0  0  0  0  0
   22.9206  -19.5078  -15.9552 C   0  0  0  0  0  0  0  0  0  0  0  0
   23.0053  -18.0560  -15.7687 C   0  0  0  0  0  0  0  0  0  0  0  0
   21.9346  -17.1622  -15.6640 N   0  0  0  0  0  0  0  0  0  0  0  0
   22.3945  -15.9088  -15.5342 C   0  0  0  0  0  0  0  0  0  0  0  0
   23.7438  -15.9545  -15.5499 C   0  0  0  0  0  0  0  0  0  0  0  0
   24.7031  -14.9519  -15.4333 C   0  0  0  0  0  0  0  0  0  0  0  0
   26.0223  -15.3014  -15.4629 C   0  0  0  0  0  0  0  0  0  0  0  0
   26.4099  -16.6177  -15.6051 C   0  0  0  0  0  0  0  0  0  0  0  0
   25.4700  -17.6064  -15.7208 C   0  0  0  0  0  0  0  0  0  0  0  0
   24.1337  -17.2797  -15.6945 C   0  0  0  0  0  0  0  0  0  0  0  0
   21.3114  -20.9990  -14.7412 O   0  0  0  0  0  0  0  0  0  0  0  0
   21.2691  -22.3762  -14.7215 O   0  0  0  0  0  0  0  0  0  0  0  0
  2  1  1  0
  3  2  1  0
  4  3  2  0
  6  8  1  0
  6  5  1  0
  7  6  2  0
  9  8  1  0
 10  9  1  0
 11 10  1  0
 12 11  1  1
 12 13  1  0
 13  3  1  0
 14 16  1  0
 14 12  1  0
 15 14  2  0
 17 18  1  1
 17 16  1  0
 18 19  1  0
 19 20  2  0
 19 27  1  0
 20 21  1  0
 21 22  1  0
 22 23  2  0
 23 24  1  0
 25 24  2  0
 26 25  1  0
 27 26  2  0
 27 22  1  0
 28 17  1  0
 28 29  1  0
 30 28  2  0
M  END
$$$$
