GRW.pdb
     RDKit          3D

 30 31  0  0  1  0  0  0  0  0999 V2000
   28.9076  -17.2592  -15.6980 N   0  0  0  0  0  0  0  0  0  0  0  0
   29.1775  -18.0826  -14.5465 C   0  0  0  0  0  0  0  0  0  0  0  0
   27.8965  -18.6965  -14.0644 C   0  0  0  0  0  0  0  0  0  0  0  0
   26.9250  -17.9732  -13.8275 O   0  0  0  0  0  0  0  0  0  0  0  0
   23.3309  -25.3721  -12.9378 N   0  0  0  0  0  0  0  0  0  0  0  0
   22.7277  -24.8302  -14.1276 C   0  0  0  0  0  0  0  0  0  0  0  0
   21.4572  -24.8868  -14.2989 N   0  0  0  0  0  0  0  0  0  0  0  0
   23.6113  -24.2501  -15.0627 N   0  0  0  0  0  0  0  0  0  0  0  0
   24.9764  -23.9714  -14.7284 C   0  0  0  0  0  0  0  0  0  0  0  0
   25.0795  -22.7809  -13.8243 C   0  0  0  0  0  0  0  0  0  0  0  0
   26.3204  -22.0080  -14.1831 C   0  0  0  0  0  0  0  0  0  0  0  0
   26.6061  -20.7799  -13.4233 C   0  0  2  0  0  0  0  0  0  0  0  0
   27.7964  -20.0822  -13.8813 N   0  0  0  0  0  0  0  0  0  0  0  0
   26.7160  -21.0643  -11.9505 C   0  0  0  0  0  0  0  0  0  0  0  0
   27.7720  -21.5309  -11.4519 O   0  0  0  0  0  0  0  0  0  0  0  0
   21.0619  -24.5961  -15.2143 N   0  0  0  0  0  0  0  0  0  0  0  0
   25.5775  -20.7844  -11.1507 C   0  0  1  0  0  0  0  0  0  0  0  0
   25.5850  -21.0900   -9.6981 C   0  0  0  0  0  0  0  0  0  0  0  0
   26.7999  -20.4085   -9.1759 C   0  0  0  0  0  0  0  0  0  0  0  0
   26.8897  -20.4858   -7.7145 C   0  0  0  0  0  0  0  0  0  0  0  0
   26.0591  -21.2217   -6.8631 N   0  0  0  0  0  0  0  0  0  0  0  0
   26.4203  -21.0241   -5.5864 C   0  0  0  0  0  0  0  0  0  0  0  0
   27.4705  -20.1756   -5.5753 C   0  0  0  0  0  0  0  0  0  0  0  0
   28.2306  -19.6608   -4.5282 C   0  0  0  0  0  0  0  0  0  0  0  0
   29.2678  -18.8235   -4.8223 C   0  0  0  0  0  0  0  0  0  0  0  0
   29.5669  -18.4866   -6.1262 C   0  0  0  0  0  0  0  0  0  0  0  0
   28.8216  -18.9899   -7.1585 C   0  0  0  0  0  0  0  0  0  0  0  0
   27.7704  -19.8354   -6.8881 C   0  0  0  0  0  0  0  0  0  0  0  0
   24.3178  -20.7500   -9.0783 O   0  0  0  0  0  0  0  0  0  0  0  0
   23.8653  -21.2686   -7.8845 O   0  0  0  0  0  0  0  0  0  0  0  0
  2  1  1  0
  3  2  1  0
  4  3  2  0
  6  8  1  0
  6  5  1  0
  7  6  2  0
  9  8  1  0
 10  9  1  0
 11 10  1  0
 12 11  1  6
 12 13  1  0
 13  3  1  0
 14 16  1  0
 14 12  1  0
 15 14  2  0
 17 18  1  1
 17 16  1  0
 18 19  1  0
 19 20  2  0
 19 27  1  0
 20 21  1  0
 21 22  1  0
 22 23  2  0
 23 24  1  0
 25 24  2  0
 26 25  1  0
 27 26  2  0
 27 22  1  0
 28 17  1  0
 28 29  1  0
 30 28  2  0
M  END
$$$$
