GRW.pdb
     RDKit          3D

 30 31  0  0  1  0  0  0  0  0999 V2000
   29.8999  -22.7341  -17.4845 N   0  0  0  0  0  0  0  0  0  0  0  0
   28.5202  -22.3355  -17.3644 C   0  0  0  0  0  0  0  0  0  0  0  0
   28.3359  -21.5634  -16.0916 C   0  0  0  0  0  0  0  0  0  0  0  0
   28.9254  -21.9239  -15.0690 O   0  0  0  0  0  0  0  0  0  0  0  0
   26.7905  -14.7437  -17.2779 N   0  0  0  0  0  0  0  0  0  0  0  0
   25.6267  -15.5737  -17.1050 C   0  0  0  0  0  0  0  0  0  0  0  0
   24.7776  -15.7131  -18.0570 N   0  0  0  0  0  0  0  0  0  0  0  0
   25.4939  -16.2028  -15.8489 N   0  0  0  0  0  0  0  0  0  0  0  0
   26.4242  -15.9568  -14.7872 C   0  0  0  0  0  0  0  0  0  0  0  0
   27.2413  -17.1773  -14.4905 C   0  0  0  0  0  0  0  0  0  0  0  0
   26.5835  -18.3675  -15.1357 C   0  0  0  0  0  0  0  0  0  0  0  0
   27.1486  -19.6978  -14.8561 C   0  0  2  0  0  0  0  0  0  0  0  0
   27.5007  -20.4388  -16.0562 N   0  0  0  0  0  0  0  0  0  0  0  0
   26.2171  -20.5168  -14.0052 C   0  0  0  0  0  0  0  0  0  0  0  0
   25.1916  -21.0571  -14.4926 O   0  0  0  0  0  0  0  0  0  0  0  0
   23.9952  -16.3854  -17.9356 N   0  0  0  0  0  0  0  0  0  0  0  0
   26.5458  -20.6515  -12.6312 C   0  0  2  0  0  0  0  0  0  0  0  0
   25.6748  -21.4388  -11.7229 C   0  0  0  0  0  0  0  0  0  0  0  0
   26.5832  -21.9071  -10.6418 C   0  0  0  0  0  0  0  0  0  0  0  0
   26.4842  -21.0739   -9.4395 C   0  0  0  0  0  0  0  0  0  0  0  0
   25.3184  -20.5239   -8.8967 N   0  0  0  0  0  0  0  0  0  0  0  0
   25.6181  -19.7915   -7.8135 C   0  0  0  0  0  0  0  0  0  0  0  0
   26.9543  -19.8460   -7.6281 C   0  0  0  0  0  0  0  0  0  0  0  0
   27.7749  -19.2852   -6.6529 C   0  0  0  0  0  0  0  0  0  0  0  0
   29.1164  -19.5324   -6.7048 C   0  0  0  0  0  0  0  0  0  0  0  0
   29.6601  -20.3200   -7.6983 C   0  0  0  0  0  0  0  0  0  0  0  0
   28.8570  -20.8726   -8.6596 C   0  0  0  0  0  0  0  0  0  0  0  0
   27.5016  -20.6379   -8.6295 C   0  0  0  0  0  0  0  0  0  0  0  0
   24.5046  -20.6806  -11.3214 O   0  0  0  0  0  0  0  0  0  0  0  0
   23.2929  -21.2360  -10.9721 O   0  0  0  0  0  0  0  0  0  0  0  0
  2  1  1  0
  3  2  1  0
  4  3  2  0
  6  8  1  0
  6  5  1  0
  7  6  2  0
  9  8  1  0
 10  9  1  0
 11 10  1  0
 12 11  1  6
 12 13  1  0
 13  3  1  0
 14 16  1  0
 14 12  1  0
 15 14  2  0
 17 18  1  6
 17 16  1  0
 18 19  1  0
 19 20  2  0
 19 27  1  0
 20 21  1  0
 21 22  1  0
 22 23  2  0
 23 24  1  0
 25 24  2  0
 26 25  1  0
 27 26  2  0
 27 22  1  0
 28 17  1  0
 28 29  1  0
 30 28  2  0
M  END
$$$$
