GRW.pdb
     RDKit          3D

 30 31  0  0  1  0  0  0  0  0999 V2000
   27.6975  -22.0292  -16.2361 N   0  0  0  0  0  0  0  0  0  0  0  0
   27.6312  -21.4770  -14.9066 C   0  0  0  0  0  0  0  0  0  0  0  0
   26.2167  -21.5436  -14.4118 C   0  0  0  0  0  0  0  0  0  0  0  0
   25.3161  -21.8845  -15.1836 O   0  0  0  0  0  0  0  0  0  0  0  0
   22.0524  -20.7193   -8.2018 N   0  0  0  0  0  0  0  0  0  0  0  0
   23.2272  -21.2334   -7.5470 C   0  0  0  0  0  0  0  0  0  0  0  0
   23.1211  -22.0552   -6.5671 N   0  0  0  0  0  0  0  0  0  0  0  0
   24.4660  -20.7798   -8.0480 N   0  0  0  0  0  0  0  0  0  0  0  0
   24.5377  -19.8625   -9.1464 C   0  0  0  0  0  0  0  0  0  0  0  0
   25.4022  -20.4011  -10.2453 C   0  0  0  0  0  0  0  0  0  0  0  0
   24.6175  -21.4271  -11.0183 C   0  0  0  0  0  0  0  0  0  0  0  0
   24.5894  -21.3055  -12.4851 C   0  0  2  0  0  0  0  0  0  0  0  0
   25.9121  -21.2217  -13.0823 N   0  0  0  0  0  0  0  0  0  0  0  0
   23.7584  -20.1287  -12.9178 C   0  0  0  0  0  0  0  0  0  0  0  0
   23.7997  -19.0359  -12.2971 O   0  0  0  0  0  0  0  0  0  0  0  0
   23.9865  -22.4221   -6.1253 N   0  0  0  0  0  0  0  0  0  0  0  0
   22.9270  -20.3066  -14.0541 C   0  0  1  0  0  0  0  0  0  0  0  0
   22.0144  -19.2223  -14.4957 C   0  0  0  0  0  0  0  0  0  0  0  0
   22.8977  -18.0404  -14.6858 C   0  0  0  0  0  0  0  0  0  0  0  0
   23.8935  -18.2606  -15.7392 C   0  0  0  0  0  0  0  0  0  0  0  0
   23.7203  -19.0024  -16.9122 N   0  0  0  0  0  0  0  0  0  0  0  0
   24.8588  -19.0113  -17.6216 C   0  0  0  0  0  0  0  0  0  0  0  0
   25.7792  -18.2920  -16.9446 C   0  0  0  0  0  0  0  0  0  0  0  0
   27.1023  -17.9739  -17.2399 C   0  0  0  0  0  0  0  0  0  0  0  0
   27.7999  -17.1951  -16.3622 C   0  0  0  0  0  0  0  0  0  0  0  0
   27.2170  -16.7266  -15.2030 C   0  0  0  0  0  0  0  0  0  0  0  0
   25.9167  -17.0377  -14.9085 C   0  0  0  0  0  0  0  0  0  0  0  0
   25.1925  -17.8217  -15.7767 C   0  0  0  0  0  0  0  0  0  0  0  0
   21.2096  -19.6359  -15.6301 O   0  0  0  0  0  0  0  0  0  0  0  0
   21.3360  -20.8434  -16.2819 O   0  0  0  0  0  0  0  0  0  0  0  0
  2  1  1  0
  3  2  1  0
  4  3  2  0
  6  8  1  0
  6  5  1  0
  7  6  2  0
  9  8  1  0
 10  9  1  0
 11 10  1  0
 12 11  1  1
 12 13  1  0
 13  3  1  0
 14 16  1  0
 14 12  1  0
 15 14  2  0
 17 18  1  1
 17 16  1  0
 18 19  1  0
 19 20  2  0
 19 27  1  0
 20 21  1  0
 21 22  1  0
 22 23  2  0
 23 24  1  0
 25 24  2  0
 26 25  1  0
 27 26  2  0
 27 22  1  0
 28 17  1  0
 28 29  1  0
 30 28  2  0
M  END
$$$$
