GRW.pdb
     RDKit          3D

 30 31  0  0  1  0  0  0  0  0999 V2000
   28.6683  -18.8489  -17.7008 N   0  0  0  0  0  0  0  0  0  0  0  0
   28.5702  -20.0110  -16.8541 C   0  0  0  0  0  0  0  0  0  0  0  0
   27.1571  -20.5142  -16.8641 C   0  0  0  0  0  0  0  0  0  0  0  0
   26.2606  -19.8050  -17.3295 O   0  0  0  0  0  0  0  0  0  0  0  0
   28.7050  -25.7463  -17.8091 N   0  0  0  0  0  0  0  0  0  0  0  0
   28.4523  -26.6177  -16.6911 C   0  0  0  0  0  0  0  0  0  0  0  0
   29.4205  -27.2160  -16.0984 N   0  0  0  0  0  0  0  0  0  0  0  0
   27.1016  -26.7601  -16.3078 N   0  0  0  0  0  0  0  0  0  0  0  0
   26.0599  -26.0133  -16.9481 C   0  0  0  0  0  0  0  0  0  0  0  0
   26.4074  -24.5579  -17.0261 C   0  0  0  0  0  0  0  0  0  0  0  0
   25.4720  -23.7893  -16.1315 C   0  0  0  0  0  0  0  0  0  0  0  0
   25.5067  -22.3194  -16.2054 C   0  0  2  0  0  0  0  0  0  0  0  0
   26.8491  -21.7807  -16.3495 N   0  0  0  0  0  0  0  0  0  0  0  0
   24.8328  -21.6986  -15.0126 C   0  0  0  0  0  0  0  0  0  0  0  0
   25.4999  -21.2354  -14.0525 O   0  0  0  0  0  0  0  0  0  0  0  0
   29.2091  -27.8257  -15.2845 N   0  0  0  0  0  0  0  0  0  0  0  0
   23.4141  -21.6599  -15.0183 C   0  0  1  0  0  0  0  0  0  0  0  0
   22.6780  -20.9001  -13.9770 C   0  0  0  0  0  0  0  0  0  0  0  0
   23.1556  -19.4989  -14.1247 C   0  0  0  0  0  0  0  0  0  0  0  0
   22.4299  -18.7772  -15.1745 C   0  0  0  0  0  0  0  0  0  0  0  0
   21.0682  -18.4579  -15.1820 N   0  0  0  0  0  0  0  0  0  0  0  0
   20.7521  -17.8238  -16.3210 C   0  0  0  0  0  0  0  0  0  0  0  0
   21.8735  -17.7162  -17.0651 C   0  0  0  0  0  0  0  0  0  0  0  0
   22.1035  -17.1363  -18.3100 C   0  0  0  0  0  0  0  0  0  0  0  0
   23.3703  -17.1579  -18.8183 C   0  0  0  0  0  0  0  0  0  0  0  0
   24.4098  -17.7396  -18.1224 C   0  0  0  0  0  0  0  0  0  0  0  0
   24.1877  -18.3116  -16.8986 C   0  0  0  0  0  0  0  0  0  0  0  0
   22.9196  -18.3033  -16.3649 C   0  0  0  0  0  0  0  0  0  0  0  0
   21.2473  -21.1244  -14.0689 O   0  0  0  0  0  0  0  0  0  0  0  0
   20.3450  -20.8500  -13.0642 O   0  0  0  0  0  0  0  0  0  0  0  0
  2  1  1  0
  3  2  1  0
  4  3  2  0
  6  8  1  0
  6  5  1  0
  7  6  2  0
  9  8  1  0
 10  9  1  0
 11 10  1  0
 12 11  1  1
 12 13  1  0
 13  3  1  0
 14 16  1  0
 14 12  1  0
 15 14  2  0
 17 18  1  1
 17 16  1  0
 18 19  1  0
 19 20  2  0
 19 27  1  0
 20 21  1  0
 21 22  1  0
 22 23  2  0
 23 24  1  0
 25 24  2  0
 26 25  1  0
 27 26  2  0
 27 22  1  0
 28 17  1  0
 28 29  1  0
 30 28  2  0
M  END
$$$$
