CIP.pdb
     RDKit          3D

 22 22  0  0  1  0  0  0  0  0999 V2000
   16.0606  -11.1255  -13.4080 N   0  0  0  0  0  0  0  0  0  0  0  0
   16.8683  -10.0860  -12.8056 C   0  0  1  0  0  0  0  0  0  0  0  0
   17.7737   -9.5464  -13.8765 C   0  0  0  0  0  0  0  0  0  0  0  0
   19.0323  -10.7523  -14.3699 S   0  0  0  0  0  0  0  0  0  0  0  0
   16.0073   -9.0966  -12.1776 C   0  0  0  0  0  0  0  0  0  0  0  0
   14.9419   -8.7686  -12.7740 O   0  0  0  0  0  0  0  0  0  0  0  0
   13.2701   -8.7574   -7.6467 C   0  0  0  0  0  0  0  0  0  0  0  0
   13.7262   -8.4267   -9.0392 C   0  0  0  0  0  0  0  0  0  0  0  0
   14.9988   -7.6488   -9.0309 C   0  0  2  0  0  0  0  0  0  0  0  0
   14.8480   -6.3224   -8.2850 C   0  0  0  0  0  0  0  0  0  0  0  0
   15.4516   -7.3281  -10.4368 C   0  0  2  0  0  0  0  0  0  0  0  0
   16.2429   -8.4545  -10.9508 N   0  0  0  0  0  0  0  0  0  0  0  0
   16.1678   -6.0618  -10.5826 C   0  0  0  0  0  0  0  0  0  0  0  0
   17.4028   -6.0497  -10.1946 O   0  0  0  0  0  0  0  0  0  0  0  0
   15.6541   -4.8609  -11.1019 N   0  0  0  0  0  0  0  0  0  0  0  0
   14.3044   -4.6211  -11.5479 C   0  0  0  0  0  0  0  0  0  0  0  0
   14.4042   -3.4789  -12.5686 C   0  0  0  0  0  0  0  0  0  0  0  0
   15.8866   -3.3318  -12.7511 C   0  0  0  0  0  0  0  0  0  0  0  0
   16.3869   -3.5960  -11.3222 C   0  0  1  0  0  0  0  0  0  0  0  0
   15.8578   -2.5198  -10.4682 C   0  0  0  0  0  0  0  0  0  0  0  0
   14.7570   -2.8026   -9.6806 O   0  0  0  0  0  0  0  0  0  0  0  0
   16.3328   -1.3579  -10.4001 O   0  0  0  0  0  0  0  0  0  0  0  0
  2  1  1  6
  2  5  1  0
  2  3  1  0
  4  3  1  0
  5  6  2  0
  7  8  1  0
  8  9  1  0
  9 10  1  1
  9 11  1  0
 11 12  1  1
 12  5  1  0
 13 11  1  0
 13 15  1  0
 14 13  2  0
 15 16  1  0
 17 18  1  0
 17 16  1  0
 18 19  1  0
 19 15  1  0
 19 20  1  1
 20 22  2  0
 20 21  1  0
M  END
$$$$
