CIP.pdb
     RDKit          3D

 22 22  0  0  1  0  0  0  0  0999 V2000
   19.9108  -19.8060  -14.3074 N   0  0  0  0  0  0  0  0  0  0  0  0
   20.8326  -20.8693  -13.9673 C   0  0  1  0  0  0  0  0  0  0  0  0
   20.8260  -21.8481  -15.1073 C   0  0  0  0  0  0  0  0  0  0  0  0
   19.5600  -23.1263  -14.8949 S   0  0  0  0  0  0  0  0  0  0  0  0
   22.1362  -20.3073  -13.6519 C   0  0  0  0  0  0  0  0  0  0  0  0
   22.5143  -19.2831  -14.2896 O   0  0  0  0  0  0  0  0  0  0  0  0
   26.6713  -20.2923   -9.4412 C   0  0  0  0  0  0  0  0  0  0  0  0
   26.2597  -20.1342  -10.8772 C   0  0  0  0  0  0  0  0  0  0  0  0
   24.8524  -20.5763  -11.0979 C   0  0  2  0  0  0  0  0  0  0  0  0
   24.6810  -22.0737  -10.8395 C   0  0  0  0  0  0  0  0  0  0  0  0
   24.4130  -20.3095  -12.5193 C   0  0  2  0  0  0  0  0  0  0  0  0
   23.0371  -20.7958  -12.6915 N   0  0  0  0  0  0  0  0  0  0  0  0
   25.3008  -20.8418  -13.5517 C   0  0  0  0  0  0  0  0  0  0  0  0
   25.0232  -22.0254  -13.9969 O   0  0  0  0  0  0  0  0  0  0  0  0
   26.4199  -20.2003  -14.1101 N   0  0  0  0  0  0  0  0  0  0  0  0
   27.2616  -19.2206  -13.4698 C   0  0  0  0  0  0  0  0  0  0  0  0
   27.8722  -18.3934  -14.6096 C   0  0  0  0  0  0  0  0  0  0  0  0
   27.1153  -18.8816  -15.8100 C   0  0  0  0  0  0  0  0  0  0  0  0
   26.9617  -20.3736  -15.4747 C   0  0  1  0  0  0  0  0  0  0  0  0
   28.3139  -20.9548  -15.4395 C   0  0  0  0  0  0  0  0  0  0  0  0
   28.8248  -21.3274  -14.2098 O   0  0  0  0  0  0  0  0  0  0  0  0
   29.0428  -21.1389  -16.4471 O   0  0  0  0  0  0  0  0  0  0  0  0
  2  1  1  6
  2  5  1  0
  2  3  1  0
  4  3  1  0
  5  6  2  0
  7  8  1  0
  8  9  1  0
  9 10  1  6
  9 11  1  0
 11 12  1  6
 12  5  1  0
 13 11  1  0
 13 15  1  0
 14 13  2  0
 15 16  1  0
 17 18  1  0
 17 16  1  0
 18 19  1  0
 19 15  1  0
 19 20  1  1
 20 22  2  0
 20 21  1  0
M  END
$$$$
