CIP.pdb
     RDKit          3D

 22 22  0  0  1  0  0  0  0  0999 V2000
   20.4450  -14.5008  -19.7463 N   0  0  0  0  0  0  0  0  0  0  0  0
   21.0982  -13.2088  -19.7480 C   0  0  1  0  0  0  0  0  0  0  0  0
   20.3963  -12.3545  -20.7655 C   0  0  0  0  0  0  0  0  0  0  0  0
   21.0366  -10.6599  -20.7841 S   0  0  0  0  0  0  0  0  0  0  0  0
   21.1142  -12.6645  -18.3996 C   0  0  0  0  0  0  0  0  0  0  0  0
   20.0716  -12.7864  -17.6948 O   0  0  0  0  0  0  0  0  0  0  0  0
   24.4294  -14.0318  -14.8280 C   0  0  0  0  0  0  0  0  0  0  0  0
   23.1989  -13.4515  -15.4650 C   0  0  0  0  0  0  0  0  0  0  0  0
   23.3130  -11.9743  -15.6367 C   0  0  2  0  0  0  0  0  0  0  0  0
   23.3261  -11.2462  -14.2921 C   0  0  0  0  0  0  0  0  0  0  0  0
   22.1532  -11.4265  -16.4363 C   0  0  2  0  0  0  0  0  0  0  0  0
   22.1916  -12.0034  -17.7872 N   0  0  0  0  0  0  0  0  0  0  0  0
   22.0663   -9.9678  -16.4808 C   0  0  0  0  0  0  0  0  0  0  0  0
   22.9605   -9.3582  -17.1912 O   0  0  0  0  0  0  0  0  0  0  0  0
   21.1122   -9.1628  -15.8347 N   0  0  0  0  0  0  0  0  0  0  0  0
   19.9863   -9.6151  -15.0562 C   0  0  0  0  0  0  0  0  0  0  0  0
   18.9525   -8.4828  -15.1296 C   0  0  0  0  0  0  0  0  0  0  0  0
   19.5467   -7.5634  -16.1564 C   0  0  0  0  0  0  0  0  0  0  0  0
   21.0436   -7.6860  -15.8304 C   0  0  1  0  0  0  0  0  0  0  0  0
   21.2406   -7.1490  -14.4739 C   0  0  0  0  0  0  0  0  0  0  0  0
   21.2271   -5.7754  -14.3148 O   0  0  0  0  0  0  0  0  0  0  0  0
   21.4209   -7.8474  -13.4442 O   0  0  0  0  0  0  0  0  0  0  0  0
  2  1  1  1
  2  5  1  0
  2  3  1  0
  4  3  1  0
  5  6  2  0
  7  8  1  0
  8  9  1  0
  9 10  1  1
  9 11  1  0
 11 12  1  6
 12  5  1  0
 13 11  1  0
 13 15  1  0
 14 13  2  0
 15 16  1  0
 17 18  1  0
 17 16  1  0
 18 19  1  0
 19 15  1  0
 19 20  1  1
 20 22  2  0
 20 21  1  0
M  END
$$$$
