CIP.pdb
     RDKit          3D

 22 22  0  0  1  0  0  0  0  0999 V2000
   20.2396  -16.3243  -16.4616 N   0  0  0  0  0  0  0  0  0  0  0  0
   20.6748  -15.1846  -17.2410 C   0  0  1  0  0  0  0  0  0  0  0  0
   19.4791  -14.6767  -17.9962 C   0  0  0  0  0  0  0  0  0  0  0  0
   19.1970  -15.6090  -19.5236 S   0  0  0  0  0  0  0  0  0  0  0  0
   21.3082  -14.2070  -16.3705 C   0  0  0  0  0  0  0  0  0  0  0  0
   20.7096  -13.8799  -15.3061 O   0  0  0  0  0  0  0  0  0  0  0  0
   26.4277  -14.2907  -15.1388 C   0  0  0  0  0  0  0  0  0  0  0  0
   24.9480  -14.0365  -15.0906 C   0  0  0  0  0  0  0  0  0  0  0  0
   24.6006  -12.7010  -15.6567 C   0  0  2  0  0  0  0  0  0  0  0  0
   25.1519  -11.5608  -14.7996 C   0  0  0  0  0  0  0  0  0  0  0  0
   23.1028  -12.5179  -15.7437 C   0  0  2  0  0  0  0  0  0  0  0  0
   22.5425  -13.5758  -16.5958 N   0  0  0  0  0  0  0  0  0  0  0  0
   22.6657  -11.1928  -16.1804 C   0  0  0  0  0  0  0  0  0  0  0  0
   22.8423  -10.9104  -17.4314 O   0  0  0  0  0  0  0  0  0  0  0  0
   22.0728  -10.1985  -15.3831 N   0  0  0  0  0  0  0  0  0  0  0  0
   21.8172  -10.2673  -13.9660 C   0  0  0  0  0  0  0  0  0  0  0  0
   20.6452   -9.3093  -13.7113 C   0  0  0  0  0  0  0  0  0  0  0  0
   20.2116   -8.9460  -15.1015 C   0  0  0  0  0  0  0  0  0  0  0  0
   21.5659   -8.8820  -15.8252 C   0  0  1  0  0  0  0  0  0  0  0  0
   22.3352   -7.7846  -15.2159 C   0  0  0  0  0  0  0  0  0  0  0  0
   21.9574   -6.4882  -15.5135 O   0  0  0  0  0  0  0  0  0  0  0  0
   23.3141   -7.9372  -14.4420 O   0  0  0  0  0  0  0  0  0  0  0  0
  2  1  1  1
  2  5  1  0
  2  3  1  0
  4  3  1  0
  5  6  2  0
  7  8  1  0
  8  9  1  0
  9 10  1  1
  9 11  1  0
 11 12  1  6
 12  5  1  0
 13 11  1  0
 13 15  1  0
 14 13  2  0
 15 16  1  0
 17 18  1  0
 17 16  1  0
 18 19  1  0
 19 15  1  0
 19 20  1  1
 20 22  2  0
 20 21  1  0
M  END
$$$$
