CIP.pdb
     RDKit          3D

 22 22  0  0  1  0  0  0  0  0999 V2000
   26.3822  -21.4411  -12.6276 N   0  0  0  0  0  0  0  0  0  0  0  0
   25.7982  -20.5000  -11.6953 C   0  0  1  0  0  0  0  0  0  0  0  0
   24.3640  -20.3035  -12.0982 C   0  0  0  0  0  0  0  0  0  0  0  0
   24.2162  -19.6758  -13.7910 S   0  0  0  0  0  0  0  0  0  0  0  0
   25.9911  -20.9731  -10.3338 C   0  0  0  0  0  0  0  0  0  0  0  0
   25.9049  -22.2155  -10.1163 O   0  0  0  0  0  0  0  0  0  0  0  0
   28.4123  -19.6898   -4.8306 C   0  0  0  0  0  0  0  0  0  0  0  0
   27.3706  -20.4207   -5.6287 C   0  0  0  0  0  0  0  0  0  0  0  0
   27.3401  -19.9591   -7.0468 C   0  0  2  0  0  0  0  0  0  0  0  0
   27.0877  -18.4543   -7.1483 C   0  0  0  0  0  0  0  0  0  0  0  0
   26.2461  -20.6547   -7.8238 C   0  0  2  0  0  0  0  0  0  0  0  0
   26.2692  -20.1745   -9.2123 N   0  0  0  0  0  0  0  0  0  0  0  0
   24.9088  -20.5449   -7.2430 C   0  0  0  0  0  0  0  0  0  0  0  0
   24.1957  -19.5339   -7.6241 O   0  0  0  0  0  0  0  0  0  0  0  0
   24.3198  -21.4240   -6.3178 N   0  0  0  0  0  0  0  0  0  0  0  0
   24.9693  -22.5067   -5.6221 C   0  0  0  0  0  0  0  0  0  0  0  0
   23.8545  -23.5050   -5.2803 C   0  0  0  0  0  0  0  0  0  0  0  0
   22.6796  -22.9543   -6.0346 C   0  0  0  0  0  0  0  0  0  0  0  0
   22.9094  -21.4431   -5.8751 C   0  0  1  0  0  0  0  0  0  0  0  0
   22.7988  -21.1335   -4.4401 C   0  0  0  0  0  0  0  0  0  0  0  0
   21.5311  -21.0367   -3.8962 O   0  0  0  0  0  0  0  0  0  0  0  0
   23.7736  -20.9496   -3.6679 O   0  0  0  0  0  0  0  0  0  0  0  0
  2  1  1  6
  2  5  1  0
  2  3  1  0
  4  3  1  0
  5  6  2  0
  7  8  1  0
  8  9  1  0
  9 10  1  1
  9 11  1  0
 11 12  1  6
 12  5  1  0
 13 11  1  0
 13 15  1  0
 14 13  2  0
 15 16  1  0
 17 18  1  0
 17 16  1  0
 18 19  1  0
 19 15  1  0
 19 20  1  1
 20 22  2  0
 20 21  1  0
M  END
$$$$
