CIP.pdb
     RDKit          3D

 22 22  0  0  1  0  0  0  0  0999 V2000
   17.1352  -27.6013   -2.0032 N   0  0  0  0  0  0  0  0  0  0  0  0
   16.7570  -26.5500   -1.0825 C   0  0  1  0  0  0  0  0  0  0  0  0
   15.2641  -26.6110   -0.9233 C   0  0  0  0  0  0  0  0  0  0  0  0
   14.4026  -25.8350   -2.3152 S   0  0  0  0  0  0  0  0  0  0  0  0
   17.5094  -26.6859    0.1545 C   0  0  0  0  0  0  0  0  0  0  0  0
   17.6621  -27.8451    0.6354 O   0  0  0  0  0  0  0  0  0  0  0  0
   22.1659  -24.5576    0.6430 C   0  0  0  0  0  0  0  0  0  0  0  0
   20.9881  -25.4639    0.8625 C   0  0  0  0  0  0  0  0  0  0  0  0
   20.1504  -25.0090    2.0097 C   0  0  2  0  0  0  0  0  0  0  0  0
   20.8905  -25.1437    3.3411 C   0  0  0  0  0  0  0  0  0  0  0  0
   18.8803  -25.8216    2.1141 C   0  0  2  0  0  0  0  0  0  0  0  0
   18.0961  -25.6395    0.8849 N   0  0  0  0  0  0  0  0  0  0  0  0
   18.0743  -25.5599    3.3055 C   0  0  0  0  0  0  0  0  0  0  0  0
   17.3301  -24.5010    3.2771 O   0  0  0  0  0  0  0  0  0  0  0  0
   18.0237  -26.3399    4.4738 N   0  0  0  0  0  0  0  0  0  0  0  0
   18.7100  -27.5854    4.7102 C   0  0  0  0  0  0  0  0  0  0  0  0
   17.8742  -28.3230    5.7655 C   0  0  0  0  0  0  0  0  0  0  0  0
   16.6427  -27.4706    5.8617 C   0  0  0  0  0  0  0  0  0  0  0  0
   17.2436  -26.0655    5.6992 C   0  0  1  0  0  0  0  0  0  0  0  0
   18.1294  -25.8333    6.8520 C   0  0  0  0  0  0  0  0  0  0  0  0
   17.5443  -25.4923    8.0576 O   0  0  0  0  0  0  0  0  0  0  0  0
   19.3831  -25.9218    6.8236 O   0  0  0  0  0  0  0  0  0  0  0  0
  2  1  1  6
  2  5  1  0
  2  3  1  0
  4  3  1  0
  5  6  2  0
  7  8  1  0
  8  9  1  0
  9 10  1  1
  9 11  1  0
 11 12  1  6
 12  5  1  0
 13 11  1  0
 13 15  1  0
 14 13  2  0
 15 16  1  0
 17 18  1  0
 17 16  1  0
 18 19  1  0
 19 15  1  0
 19 20  1  1
 20 22  2  0
 20 21  1  0
M  END
$$$$
