CIP.pdb
     RDKit          3D

 22 22  0  0  1  0  0  0  0  0999 V2000
   18.9097  -25.4163  -10.0251 N   0  0  0  0  0  0  0  0  0  0  0  0
   17.9990  -26.3010   -9.3295 C   0  0  1  0  0  0  0  0  0  0  0  0
   18.5274  -27.6990   -9.4857 C   0  0  0  0  0  0  0  0  0  0  0  0
   17.1932  -28.9214   -9.5709 S   0  0  0  0  0  0  0  0  0  0  0  0
   17.8390  -25.8584   -7.9535 C   0  0  0  0  0  0  0  0  0  0  0  0
   18.8577  -25.4222   -7.3450 O   0  0  0  0  0  0  0  0  0  0  0  0
   14.8006  -22.8061   -7.2716 C   0  0  0  0  0  0  0  0  0  0  0  0
   15.7758  -23.2053   -6.2010 C   0  0  0  0  0  0  0  0  0  0  0  0
   15.4255  -24.5259   -5.6026 C   0  0  2  0  0  0  0  0  0  0  0  0
   15.1581  -24.4153   -4.1011 C   0  0  0  0  0  0  0  0  0  0  0  0
   16.5446  -25.5243   -5.7903 C   0  0  2  0  0  0  0  0  0  0  0  0
   16.6436  -25.8660   -7.2160 N   0  0  0  0  0  0  0  0  0  0  0  0
   16.4501  -26.7234   -4.9591 C   0  0  0  0  0  0  0  0  0  0  0  0
   15.6233  -27.6369   -5.3564 O   0  0  0  0  0  0  0  0  0  0  0  0
   17.1651  -26.9852   -3.7776 N   0  0  0  0  0  0  0  0  0  0  0  0
   18.2128  -26.1767   -3.2059 C   0  0  0  0  0  0  0  0  0  0  0  0
   19.0677  -27.1399   -2.3705 C   0  0  0  0  0  0  0  0  0  0  0  0
   18.5088  -28.4816   -2.7444 C   0  0  0  0  0  0  0  0  0  0  0  0
   17.0142  -28.1506   -2.8806 C   0  0  1  0  0  0  0  0  0  0  0  0
   16.5352  -27.7389   -1.5508 C   0  0  0  0  0  0  0  0  0  0  0  0
   16.2508  -28.7315   -0.6310 O   0  0  0  0  0  0  0  0  0  0  0  0
   16.3642  -26.5480   -1.1861 O   0  0  0  0  0  0  0  0  0  0  0  0
  2  1  1  6
  2  5  1  0
  2  3  1  0
  4  3  1  0
  5  6  2  0
  7  8  1  0
  8  9  1  0
  9 10  1  1
  9 11  1  0
 11 12  1  6
 12  5  1  0
 13 11  1  0
 13 15  1  0
 14 13  2  0
 15 16  1  0
 17 18  1  0
 17 16  1  0
 18 19  1  0
 19 15  1  0
 19 20  1  1
 20 22  2  0
 20 21  1  0
M  END
$$$$
