CIP.pdb
     RDKit          3D

 22 22  0  0  1  0  0  0  0  0999 V2000
   21.4080  -13.6075  -18.5440 N   0  0  0  0  0  0  0  0  0  0  0  0
   21.4760  -12.1998  -18.8749 C   0  0  1  0  0  0  0  0  0  0  0  0
   20.6809  -11.9977  -20.1338 C   0  0  0  0  0  0  0  0  0  0  0  0
   20.5519  -10.2465  -20.5793 S   0  0  0  0  0  0  0  0  0  0  0  0
   21.0343  -11.4061  -17.7392 C   0  0  0  0  0  0  0  0  0  0  0  0
   19.9933  -11.7739  -17.1234 O   0  0  0  0  0  0  0  0  0  0  0  0
   23.4844  -10.9078  -13.4777 C   0  0  0  0  0  0  0  0  0  0  0  0
   22.4205  -10.8632  -14.5373 C   0  0  0  0  0  0  0  0  0  0  0  0
   22.1700   -9.4698  -15.0067 C   0  0  2  0  0  0  0  0  0  0  0  0
   21.6364   -8.5800  -13.8833 C   0  0  0  0  0  0  0  0  0  0  0  0
   21.1532   -9.4450  -16.1248 C   0  0  2  0  0  0  0  0  0  0  0  0
   21.6589  -10.2487  -17.2461 N   0  0  0  0  0  0  0  0  0  0  0  0
   20.7485   -8.1105  -16.5639 C   0  0  0  0  0  0  0  0  0  0  0  0
   21.6233   -7.4354  -17.2385 O   0  0  0  0  0  0  0  0  0  0  0  0
   19.5095   -7.4889  -16.3310 N   0  0  0  0  0  0  0  0  0  0  0  0
   18.3861   -8.0440  -15.6181 C   0  0  0  0  0  0  0  0  0  0  0  0
   17.1490   -7.3248  -16.1736 C   0  0  0  0  0  0  0  0  0  0  0  0
   17.7103   -6.5588  -17.3359 C   0  0  0  0  0  0  0  0  0  0  0  0
   19.0833   -6.1470  -16.7818 C   0  0  1  0  0  0  0  0  0  0  0  0
   18.8422   -5.2537  -15.6367 C   0  0  0  0  0  0  0  0  0  0  0  0
   18.4567   -3.9526  -15.9027 O   0  0  0  0  0  0  0  0  0  0  0  0
   18.9606   -5.5852  -14.4299 O   0  0  0  0  0  0  0  0  0  0  0  0
  2  1  1  1
  2  5  1  0
  2  3  1  0
  4  3  1  0
  5  6  2  0
  7  8  1  0
  8  9  1  0
  9 10  1  1
  9 11  1  0
 11 12  1  6
 12  5  1  0
 13 11  1  0
 13 15  1  0
 14 13  2  0
 15 16  1  0
 17 18  1  0
 17 16  1  0
 18 19  1  0
 19 15  1  0
 19 20  1  1
 20 22  2  0
 20 21  1  0
M  END
$$$$
