CIP.pdb
     RDKit          3D

 22 22  0  0  1  0  0  0  0  0999 V2000
   22.9126  -12.2257  -20.4376 N   0  0  0  0  0  0  0  0  0  0  0  0
   23.4827  -11.0201  -19.8742 C   0  0  1  0  0  0  0  0  0  0  0  0
   23.6786  -10.0483  -21.0035 C   0  0  0  0  0  0  0  0  0  0  0  0
   24.9253  -10.6251  -22.1845 S   0  0  0  0  0  0  0  0  0  0  0  0
   22.6401  -10.5374  -18.7918 C   0  0  0  0  0  0  0  0  0  0  0  0
   21.3866  -10.5647  -18.9542 O   0  0  0  0  0  0  0  0  0  0  0  0
   22.8796  -12.5162  -14.1389 C   0  0  0  0  0  0  0  0  0  0  0  0
   22.4145  -11.7779  -15.3617 C   0  0  0  0  0  0  0  0  0  0  0  0
   22.5672  -10.3025  -15.2046 C   0  0  2  0  0  0  0  0  0  0  0  0
   21.6725   -9.7549  -14.0920 C   0  0  0  0  0  0  0  0  0  0  0  0
   22.1997   -9.5771  -16.4787 C   0  0  2  0  0  0  0  0  0  0  0  0
   23.0855  -10.0333  -17.5588 N   0  0  0  0  0  0  0  0  0  0  0  0
   22.1870   -8.1185  -16.3787 C   0  0  0  0  0  0  0  0  0  0  0  0
   23.3340   -7.5418  -16.2118 O   0  0  0  0  0  0  0  0  0  0  0  0
   21.0600   -7.2814  -16.4477 N   0  0  0  0  0  0  0  0  0  0  0  0
   19.6850   -7.6943  -16.5789 C   0  0  0  0  0  0  0  0  0  0  0  0
   18.9609   -6.5131  -17.2398 C   0  0  0  0  0  0  0  0  0  0  0  0
   20.0942   -5.6039  -17.6163 C   0  0  0  0  0  0  0  0  0  0  0  0
   21.0409   -5.8033  -16.4222 C   0  0  1  0  0  0  0  0  0  0  0  0
   20.3460   -5.3016  -15.2253 C   0  0  0  0  0  0  0  0  0  0  0  0
   19.8282   -6.2310  -14.3420 O   0  0  0  0  0  0  0  0  0  0  0  0
   20.1866   -4.0867  -14.9438 O   0  0  0  0  0  0  0  0  0  0  0  0
  2  1  1  6
  2  5  1  0
  2  3  1  0
  4  3  1  0
  5  6  2  0
  7  8  1  0
  8  9  1  0
  9 10  1  1
  9 11  1  0
 11 12  1  6
 12  5  1  0
 13 11  1  0
 13 15  1  0
 14 13  2  0
 15 16  1  0
 17 18  1  0
 17 16  1  0
 18 19  1  0
 19 15  1  0
 19 20  1  1
 20 22  2  0
 20 21  1  0
M  END
$$$$
