CIP.pdb
     RDKit          3D

 22 22  0  0  1  0  0  0  0  0999 V2000
   19.4656  -13.8737  -17.6714 N   0  0  0  0  0  0  0  0  0  0  0  0
   19.6867  -12.5867  -18.2966 C   0  0  1  0  0  0  0  0  0  0  0  0
   18.6374  -12.4199  -19.3592 C   0  0  0  0  0  0  0  0  0  0  0  0
   18.8631  -13.5905  -20.7232 S   0  0  0  0  0  0  0  0  0  0  0  0
   19.7011  -11.5440  -17.2830 C   0  0  0  0  0  0  0  0  0  0  0  0
   18.7613  -11.5209  -16.4378 O   0  0  0  0  0  0  0  0  0  0  0  0
   23.5851  -10.9350  -14.0797 C   0  0  0  0  0  0  0  0  0  0  0  0
   22.2241  -10.8611  -14.7112 C   0  0  0  0  0  0  0  0  0  0  0  0
   21.9950   -9.5434  -15.3714 C   0  0  2  0  0  0  0  0  0  0  0  0
   21.9932   -8.3954  -14.3612 C   0  0  0  0  0  0  0  0  0  0  0  0
   20.6651   -9.5163  -16.0891 C   0  0  2  0  0  0  0  0  0  0  0  0
   20.6724  -10.5391  -17.1441 N   0  0  0  0  0  0  0  0  0  0  0  0
   20.2718   -8.2099  -16.6145 C   0  0  0  0  0  0  0  0  0  0  0  0
   20.9172   -7.7885  -17.6546 O   0  0  0  0  0  0  0  0  0  0  0  0
   19.2659   -7.3687  -16.1082 N   0  0  0  0  0  0  0  0  0  0  0  0
   18.3835   -7.6473  -15.0028 C   0  0  0  0  0  0  0  0  0  0  0  0
   17.1300   -6.7969  -15.2512 C   0  0  0  0  0  0  0  0  0  0  0  0
   17.3633   -6.2671  -16.6360 C   0  0  0  0  0  0  0  0  0  0  0  0
   18.8818   -6.0320  -16.6094 C   0  0  1  0  0  0  0  0  0  0  0  0
   19.1450   -4.9911  -15.6021 C   0  0  0  0  0  0  0  0  0  0  0  0
   18.9096   -3.6754  -15.9563 O   0  0  0  0  0  0  0  0  0  0  0  0
   19.5695   -5.2085  -14.4389 O   0  0  0  0  0  0  0  0  0  0  0  0
  2  1  1  1
  2  5  1  0
  2  3  1  0
  4  3  1  0
  5  6  2  0
  7  8  1  0
  8  9  1  0
  9 10  1  1
  9 11  1  0
 11 12  1  6
 12  5  1  0
 13 11  1  0
 13 15  1  0
 14 13  2  0
 15 16  1  0
 17 18  1  0
 17 16  1  0
 18 19  1  0
 19 15  1  0
 19 20  1  1
 20 22  2  0
 20 21  1  0
M  END
$$$$
