CIP.pdb
     RDKit          3D

 22 22  0  0  1  0  0  0  0  0999 V2000
   20.8375  -11.7187  -19.6017 N   0  0  0  0  0  0  0  0  0  0  0  0
   21.3795  -10.3811  -19.4878 C   0  0  1  0  0  0  0  0  0  0  0  0
   21.0536   -9.6567  -20.7634 C   0  0  0  0  0  0  0  0  0  0  0  0
   21.9072  -10.3785  -22.1889 S   0  0  0  0  0  0  0  0  0  0  0  0
   20.8755   -9.7479  -18.2796 C   0  0  0  0  0  0  0  0  0  0  0  0
   19.6789   -9.9763  -17.9412 O   0  0  0  0  0  0  0  0  0  0  0  0
   23.0218  -10.3511  -13.7306 C   0  0  0  0  0  0  0  0  0  0  0  0
   22.0679  -10.0305  -14.8458 C   0  0  0  0  0  0  0  0  0  0  0  0
   21.9402   -8.5591  -15.0544 C   0  0  2  0  0  0  0  0  0  0  0  0
   21.3449   -7.8622  -13.8303 C   0  0  0  0  0  0  0  0  0  0  0  0
   21.0434   -8.2504  -16.2312 C   0  0  2  0  0  0  0  0  0  0  0  0
   21.5968   -8.8907  -17.4324 N   0  0  0  0  0  0  0  0  0  0  0  0
   20.7835   -6.8292  -16.4552 C   0  0  0  0  0  0  0  0  0  0  0  0
   21.8010   -6.1029  -16.7915 O   0  0  0  0  0  0  0  0  0  0  0  0
   19.5448   -6.1740  -16.3454 N   0  0  0  0  0  0  0  0  0  0  0  0
   18.2861   -6.7659  -15.9666 C   0  0  0  0  0  0  0  0  0  0  0  0
   17.2057   -5.8780  -16.5997 C   0  0  0  0  0  0  0  0  0  0  0  0
   18.0078   -4.9624  -17.4776 C   0  0  0  0  0  0  0  0  0  0  0  0
   19.2604   -4.7482  -16.6133 C   0  0  1  0  0  0  0  0  0  0  0  0
   18.8322   -4.0526  -15.3885 C   0  0  0  0  0  0  0  0  0  0  0  0
   18.6195   -2.6882  -15.4614 O   0  0  0  0  0  0  0  0  0  0  0  0
   18.6442   -4.6073  -14.2761 O   0  0  0  0  0  0  0  0  0  0  0  0
  2  1  1  6
  2  5  1  0
  2  3  1  0
  4  3  1  0
  5  6  2  0
  7  8  1  0
  8  9  1  0
  9 10  1  1
  9 11  1  0
 11 12  1  6
 12  5  1  0
 13 11  1  0
 13 15  1  0
 14 13  2  0
 15 16  1  0
 17 18  1  0
 17 16  1  0
 18 19  1  0
 19 15  1  0
 19 20  1  1
 20 22  2  0
 20 21  1  0
M  END
$$$$
