CIP.pdb
     RDKit          3D

 22 22  0  0  1  0  0  0  0  0999 V2000
   29.0586  -20.8251  -15.4443 N   0  0  0  0  0  0  0  0  0  0  0  0
   28.1824  -19.8732  -14.7945 C   0  0  1  0  0  0  0  0  0  0  0  0
   27.7902  -18.8516  -15.8243 C   0  0  0  0  0  0  0  0  0  0  0  0
   29.1057  -17.6397  -16.1109 S   0  0  0  0  0  0  0  0  0  0  0  0
   27.0693  -20.5740  -14.1741 C   0  0  0  0  0  0  0  0  0  0  0  0
   26.6181  -21.6050  -14.7501 O   0  0  0  0  0  0  0  0  0  0  0  0
   26.4281  -20.7222   -8.8405 C   0  0  0  0  0  0  0  0  0  0  0  0
   26.3356  -21.2019  -10.2610 C   0  0  0  0  0  0  0  0  0  0  0  0
   25.1485  -20.6287  -10.9588 C   0  0  2  0  0  0  0  0  0  0  0  0
   23.8430  -21.2506  -10.4614 C   0  0  0  0  0  0  0  0  0  0  0  0
   25.2238  -20.8672  -12.4495 C   0  0  2  0  0  0  0  0  0  0  0  0
   26.4310  -20.2152  -12.9756 N   0  0  0  0  0  0  0  0  0  0  0  0
   24.0331  -20.4721  -13.2003 C   0  0  0  0  0  0  0  0  0  0  0  0
   23.8975  -19.2077  -13.4430 O   0  0  0  0  0  0  0  0  0  0  0  0
   23.0253  -21.3230  -13.6861 N   0  0  0  0  0  0  0  0  0  0  0  0
   22.9311  -22.7482  -13.4909 C   0  0  0  0  0  0  0  0  0  0  0  0
   22.1100  -23.2735  -14.6767 C   0  0  0  0  0  0  0  0  0  0  0  0
   22.0024  -22.0655  -15.5608 C   0  0  0  0  0  0  0  0  0  0  0  0
   21.8608  -20.9475  -14.5158 C   0  0  1  0  0  0  0  0  0  0  0  0
   20.5981  -21.1802  -13.7955 C   0  0  0  0  0  0  0  0  0  0  0  0
   20.6662  -21.7712  -12.5472 O   0  0  0  0  0  0  0  0  0  0  0  0
   19.4573  -20.8812  -14.2309 O   0  0  0  0  0  0  0  0  0  0  0  0
  2  1  1  6
  2  5  1  0
  2  3  1  0
  4  3  1  0
  5  6  2  0
  7  8  1  0
  8  9  1  0
  9 10  1  1
  9 11  1  0
 11 12  1  6
 12  5  1  0
 13 11  1  0
 13 15  1  0
 14 13  2  0
 15 16  1  0
 17 18  1  0
 17 16  1  0
 18 19  1  0
 19 15  1  0
 19 20  1  1
 20 22  2  0
 20 21  1  0
M  END
$$$$
