CIP.pdb
     RDKit          3D

 22 22  0  0  1  0  0  0  0  0999 V2000
   24.0453  -12.5549  -21.2759 N   0  0  0  0  0  0  0  0  0  0  0  0
   24.1383  -11.1369  -20.9995 C   0  0  1  0  0  0  0  0  0  0  0  0
   23.3048  -10.4256  -22.0277 C   0  0  0  0  0  0  0  0  0  0  0  0
   24.0159  -10.5625  -23.6882 S   0  0  0  0  0  0  0  0  0  0  0  0
   23.7578  -10.8792  -19.6198 C   0  0  0  0  0  0  0  0  0  0  0  0
   22.7993  -11.5433  -19.1314 O   0  0  0  0  0  0  0  0  0  0  0  0
   26.9562  -11.6818  -15.8608 C   0  0  0  0  0  0  0  0  0  0  0  0
   25.7152  -11.4275  -16.6681 C   0  0  0  0  0  0  0  0  0  0  0  0
   25.2197  -10.0320  -16.4903 C   0  0  2  0  0  0  0  0  0  0  0  0
   24.8328   -9.7481  -15.0383 C   0  0  0  0  0  0  0  0  0  0  0  0
   23.9984   -9.7736  -17.3424 C   0  0  2  0  0  0  0  0  0  0  0  0
   24.3587   -9.9486  -18.7562 N   0  0  0  0  0  0  0  0  0  0  0  0
   23.3450   -8.4860  -17.1132 C   0  0  0  0  0  0  0  0  0  0  0  0
   23.9863   -7.4346  -17.5124 O   0  0  0  0  0  0  0  0  0  0  0  0
   22.0942   -8.2744  -16.5077 N   0  0  0  0  0  0  0  0  0  0  0  0
   21.2115   -9.2823  -15.9756 C   0  0  0  0  0  0  0  0  0  0  0  0
   19.8039   -8.6734  -16.0399 C   0  0  0  0  0  0  0  0  0  0  0  0
   20.0273   -7.4154  -16.8274 C   0  0  0  0  0  0  0  0  0  0  0  0
   21.4060   -6.9818  -16.3049 C   0  0  1  0  0  0  0  0  0  0  0  0
   21.2548   -6.6796  -14.8720 C   0  0  0  0  0  0  0  0  0  0  0  0
   20.6777   -5.4721  -14.5241 O   0  0  0  0  0  0  0  0  0  0  0  0
   21.6120   -7.4393  -13.9363 O   0  0  0  0  0  0  0  0  0  0  0  0
  2  1  1  6
  2  5  1  0
  2  3  1  0
  4  3  1  0
  5  6  2  0
  7  8  1  0
  8  9  1  0
  9 10  1  1
  9 11  1  0
 11 12  1  6
 12  5  1  0
 13 11  1  0
 13 15  1  0
 14 13  2  0
 15 16  1  0
 17 18  1  0
 17 16  1  0
 18 19  1  0
 19 15  1  0
 19 20  1  1
 20 22  2  0
 20 21  1  0
M  END
$$$$
