CIP.pdb
     RDKit          3D

 22 22  0  0  1  0  0  0  0  0999 V2000
   14.6872  -17.5055  -13.6471 N   0  0  0  0  0  0  0  0  0  0  0  0
   15.5714  -16.5908  -12.9561 C   0  0  1  0  0  0  0  0  0  0  0  0
   16.9482  -16.7837  -13.5262 C   0  0  0  0  0  0  0  0  0  0  0  0
   17.6962  -18.3398  -12.9776 S   0  0  0  0  0  0  0  0  0  0  0  0
   15.0527  -15.2359  -13.0564 C   0  0  0  0  0  0  0  0  0  0  0  0
   14.5908  -14.8551  -14.1699 O   0  0  0  0  0  0  0  0  0  0  0  0
   11.9679  -12.9467   -9.3201 C   0  0  0  0  0  0  0  0  0  0  0  0
   12.6207  -13.3228  -10.6197 C   0  0  0  0  0  0  0  0  0  0  0  0
   13.8343  -12.4971  -10.8847 C   0  0  2  0  0  0  0  0  0  0  0  0
   13.4937  -11.0114  -11.0082 C   0  0  0  0  0  0  0  0  0  0  0  0
   14.5084  -12.9149  -12.1714 C   0  0  2  0  0  0  0  0  0  0  0  0
   15.0116  -14.2874  -12.0214 N   0  0  0  0  0  0  0  0  0  0  0  0
   15.5559  -12.0107  -12.6432 C   0  0  0  0  0  0  0  0  0  0  0  0
   16.7149  -12.1258  -12.0779 O   0  0  0  0  0  0  0  0  0  0  0  0
   15.4337  -11.0340  -13.6466 N   0  0  0  0  0  0  0  0  0  0  0  0
   14.2759  -10.7802  -14.4673 C   0  0  0  0  0  0  0  0  0  0  0  0
   14.8149  -10.1403  -15.7542 C   0  0  0  0  0  0  0  0  0  0  0  0
   16.2995  -10.2997  -15.6019 C   0  0  0  0  0  0  0  0  0  0  0  0
   16.4665  -10.0741  -14.0909 C   0  0  1  0  0  0  0  0  0  0  0  0
   16.0596   -8.6876  -13.8088 C   0  0  0  0  0  0  0  0  0  0  0  0
   16.9662   -7.6801  -14.0829 O   0  0  0  0  0  0  0  0  0  0  0  0
   14.9456   -8.3484  -13.3353 O   0  0  0  0  0  0  0  0  0  0  0  0
  2  1  1  6
  2  5  1  0
  2  3  1  0
  4  3  1  0
  5  6  2  0
  7  8  1  0
  8  9  1  0
  9 10  1  6
  9 11  1  0
 11 12  1  1
 12  5  1  0
 13 11  1  0
 13 15  1  0
 14 13  2  0
 15 16  1  0
 17 18  1  0
 17 16  1  0
 18 19  1  0
 19 15  1  0
 19 20  1  6
 20 22  2  0
 20 21  1  0
M  END
$$$$
