CIP.pdb
     RDKit          3D

 22 22  0  0  1  0  0  0  0  0999 V2000
   20.2726  -11.3814  -18.8028 N   0  0  0  0  0  0  0  0  0  0  0  0
   20.9871  -10.1251  -18.7190 C   0  0  1  0  0  0  0  0  0  0  0  0
   20.5976   -9.3085  -19.9188 C   0  0  0  0  0  0  0  0  0  0  0  0
   21.4039   -7.6863  -19.9244 S   0  0  0  0  0  0  0  0  0  0  0  0
   20.7206   -9.4928  -17.4369 C   0  0  0  0  0  0  0  0  0  0  0  0
   19.5331   -9.5011  -17.0031 O   0  0  0  0  0  0  0  0  0  0  0  0
   22.7536  -10.8468  -13.1908 C   0  0  0  0  0  0  0  0  0  0  0  0
   21.7548  -10.1478  -14.0685 C   0  0  0  0  0  0  0  0  0  0  0  0
   22.0813   -8.7014  -14.2294 C   0  0  2  0  0  0  0  0  0  0  0  0
   21.7066   -7.8936  -12.9862 C   0  0  0  0  0  0  0  0  0  0  0  0
   21.3375   -8.1008  -15.4001 C   0  0  2  0  0  0  0  0  0  0  0  0
   21.6671   -8.8605  -16.6139 N   0  0  0  0  0  0  0  0  0  0  0  0
   21.5444   -6.6667  -15.5949 C   0  0  0  0  0  0  0  0  0  0  0  0
   22.6743   -6.3129  -16.1185 O   0  0  0  0  0  0  0  0  0  0  0  0
   20.6433   -5.6365  -15.2749 N   0  0  0  0  0  0  0  0  0  0  0  0
   19.3067   -5.7893  -14.7566 C   0  0  0  0  0  0  0  0  0  0  0  0
   18.5528   -4.5210  -15.1800 C   0  0  0  0  0  0  0  0  0  0  0  0
   19.5264   -3.8564  -16.1090 C   0  0  0  0  0  0  0  0  0  0  0  0
   20.8606   -4.1813  -15.4190 C   0  0  1  0  0  0  0  0  0  0  0  0
   20.8495   -3.5102  -14.1087 C   0  0  0  0  0  0  0  0  0  0  0  0
   20.5630   -4.2758  -12.9934 O   0  0  0  0  0  0  0  0  0  0  0  0
   21.0818   -2.2883  -13.9258 O   0  0  0  0  0  0  0  0  0  0  0  0
  2  1  1  1
  2  5  1  0
  2  3  1  0
  4  3  1  0
  5  6  2  0
  7  8  1  0
  8  9  1  0
  9 10  1  1
  9 11  1  0
 11 12  1  6
 12  5  1  0
 13 11  1  0
 13 15  1  0
 14 13  2  0
 15 16  1  0
 17 18  1  0
 17 16  1  0
 18 19  1  0
 19 15  1  0
 19 20  1  1
 20 22  2  0
 20 21  1  0
M  END
$$$$
