CIP.pdb
     RDKit          3D

 22 22  0  0  1  0  0  0  0  0999 V2000
   16.3212  -12.4191  -16.0001 N   0  0  0  0  0  0  0  0  0  0  0  0
   17.6629  -12.1201  -15.5459 C   0  0  1  0  0  0  0  0  0  0  0  0
   18.5825  -12.2983  -16.7208 C   0  0  0  0  0  0  0  0  0  0  0  0
   18.8906  -14.0469  -17.0803 S   0  0  0  0  0  0  0  0  0  0  0  0
   17.6937  -10.7981  -14.9408 C   0  0  0  0  0  0  0  0  0  0  0  0
   16.9637   -9.8958  -15.4419 O   0  0  0  0  0  0  0  0  0  0  0  0
   15.8073   -9.3592  -10.5416 C   0  0  0  0  0  0  0  0  0  0  0  0
   16.4176   -9.3734  -11.9141 C   0  0  0  0  0  0  0  0  0  0  0  0
   17.8867   -9.1202  -11.8655 C   0  0  2  0  0  0  0  0  0  0  0  0
   18.2114   -7.7951  -11.1749 C   0  0  0  0  0  0  0  0  0  0  0  0
   18.4769   -9.0622  -13.2557 C   0  0  2  0  0  0  0  0  0  0  0  0
   18.4676  -10.4131  -13.8337 N   0  0  0  0  0  0  0  0  0  0  0  0
   19.8040   -8.4545  -13.3398 C   0  0  0  0  0  0  0  0  0  0  0  0
   20.7719   -9.1027  -12.7751 O   0  0  0  0  0  0  0  0  0  0  0  0
   20.1350   -7.2432  -13.9714 N   0  0  0  0  0  0  0  0  0  0  0  0
   19.2474   -6.3908  -14.7222 C   0  0  0  0  0  0  0  0  0  0  0  0
   20.1455   -5.6171  -15.6974 C   0  0  0  0  0  0  0  0  0  0  0  0
   21.4731   -6.2966  -15.5288 C   0  0  0  0  0  0  0  0  0  0  0  0
   21.4623   -6.5941  -14.0211 C   0  0  1  0  0  0  0  0  0  0  0  0
   21.4470   -5.2993  -13.3206 C   0  0  0  0  0  0  0  0  0  0  0  0
   20.2450   -4.8648  -12.7927 O   0  0  0  0  0  0  0  0  0  0  0  0
   22.4482   -4.5551  -13.1650 O   0  0  0  0  0  0  0  0  0  0  0  0
  2  1  1  6
  2  5  1  0
  2  3  1  0
  4  3  1  0
  5  6  2  0
  7  8  1  0
  8  9  1  0
  9 10  1  6
  9 11  1  0
 11 12  1  1
 12  5  1  0
 13 11  1  0
 13 15  1  0
 14 13  2  0
 15 16  1  0
 17 18  1  0
 17 16  1  0
 18 19  1  0
 19 15  1  0
 19 20  1  1
 20 22  2  0
 20 21  1  0
M  END
$$$$
