CIP.pdb
     RDKit          3D

 22 22  0  0  1  0  0  0  0  0999 V2000
   26.2307  -21.2665  -12.4425 N   0  0  0  0  0  0  0  0  0  0  0  0
   25.7122  -20.4087  -11.3979 C   0  0  1  0  0  0  0  0  0  0  0  0
   24.2202  -20.3512  -11.5663 C   0  0  0  0  0  0  0  0  0  0  0  0
   23.7381  -19.3400  -12.9900 S   0  0  0  0  0  0  0  0  0  0  0  0
   26.1627  -20.8870  -10.1005 C   0  0  0  0  0  0  0  0  0  0  0  0
   26.2814  -22.1345   -9.9331 O   0  0  0  0  0  0  0  0  0  0  0  0
   29.0874  -19.6529   -4.8595 C   0  0  0  0  0  0  0  0  0  0  0  0
   27.9669  -20.3767   -5.5504 C   0  0  0  0  0  0  0  0  0  0  0  0
   27.7829  -19.8968   -6.9506 C   0  0  2  0  0  0  0  0  0  0  0  0
   27.5131  -18.3925   -7.0039 C   0  0  0  0  0  0  0  0  0  0  0  0
   26.6159  -20.5894   -7.6161 C   0  0  2  0  0  0  0  0  0  0  0  0
   26.4861  -20.0884   -8.9913 N   0  0  0  0  0  0  0  0  0  0  0  0
   25.3484  -20.4991   -6.8929 C   0  0  0  0  0  0  0  0  0  0  0  0
   24.5589  -19.5306   -7.2317 O   0  0  0  0  0  0  0  0  0  0  0  0
   24.9004  -21.3555   -5.8724 N   0  0  0  0  0  0  0  0  0  0  0  0
   25.6938  -22.3043   -5.1317 C   0  0  0  0  0  0  0  0  0  0  0  0
   24.7097  -23.3813   -4.6544 C   0  0  0  0  0  0  0  0  0  0  0  0
   23.4492  -23.0192   -5.3841 C   0  0  0  0  0  0  0  0  0  0  0  0
   23.5219  -21.4843   -5.3539 C   0  0  1  0  0  0  0  0  0  0  0  0
   23.4443  -21.0711   -3.9430 C   0  0  0  0  0  0  0  0  0  0  0  0
   22.1986  -21.0531   -3.3430 O   0  0  0  0  0  0  0  0  0  0  0  0
   24.4289  -20.7317   -3.2389 O   0  0  0  0  0  0  0  0  0  0  0  0
  2  1  1  6
  2  5  1  0
  2  3  1  0
  4  3  1  0
  5  6  2  0
  7  8  1  0
  8  9  1  0
  9 10  1  1
  9 11  1  0
 11 12  1  6
 12  5  1  0
 13 11  1  0
 13 15  1  0
 14 13  2  0
 15 16  1  0
 17 18  1  0
 17 16  1  0
 18 19  1  0
 19 15  1  0
 19 20  1  1
 20 22  2  0
 20 21  1  0
M  END
$$$$
