RRR.pdb
     RDKit          3D

 34 33  0  0  1  0  0  0  0  0999 V2000
   14.2521  -14.3734   19.6981 N   0  0  0  0  0  0  0  0  0  0  0  0
   14.7413  -14.2200   18.3828 C   0  0  0  0  0  0  0  0  0  0  0  0
   15.6687  -13.3642   18.1802 N   0  0  0  0  0  0  0  0  0  0  0  0
   14.2499  -14.9727   17.2808 N   0  0  0  0  0  0  0  0  0  0  0  0
   13.2026  -15.9519   17.4791 C   0  0  0  0  0  0  0  0  0  0  0  0
   11.8646  -15.2527   17.4372 C   0  0  0  0  0  0  0  0  0  0  0  0
   11.0513  -15.5182   18.6541 C   0  0  0  0  0  0  0  0  0  0  0  0
    9.6985  -14.8612   18.5234 C   0  0  2  0  0  0  0  0  0  0  0  0
    9.9235  -13.6657   17.7147 N   0  0  0  0  0  0  0  0  0  0  0  0
    9.1674  -14.4867   19.8640 C   0  0  0  0  0  0  0  0  0  0  0  0
    9.7446  -13.5703   20.4963 O   0  0  0  0  0  0  0  0  0  0  0  0
   16.1688  -13.1950   17.3044 N   0  0  0  0  0  0  0  0  0  0  0  0
    4.4991  -19.7674   22.6501 C   0  0  0  0  0  0  0  0  0  0  0  0
    5.0252  -18.6118   23.3530 N   0  0  0  0  0  0  0  0  0  0  0  0
    5.2606  -18.6597   24.5988 N   0  0  0  0  0  0  0  0  0  0  0  0
    5.2840  -17.4087   22.6599 C   0  0  0  0  0  0  0  0  0  0  0  0
    5.0883  -17.1371   21.3044 C   0  0  0  0  0  0  0  0  0  0  0  0
    5.5019  -15.8416   20.7158 C   0  0  0  0  0  0  0  0  0  0  0  0
    6.0800  -15.0456   21.9028 C   0  0  1  0  0  0  0  0  0  0  0  0
    7.5526  -14.7807   21.7314 N   0  0  0  0  0  0  0  0  0  0  0  0
    8.0420  -15.1240   20.4403 C   0  0  0  0  0  0  0  0  0  0  0  0
    8.4050  -15.3605   22.7784 O   0  0  0  0  0  0  0  0  0  0  0  0
    7.9939  -15.3364   23.9708 N   0  0  0  0  0  0  0  0  0  0  0  0
    5.6457  -17.9201   25.1550 C   0  0  0  0  0  0  0  0  0  0  0  0
   10.9232  -20.3436   28.2603 N   0  0  0  0  0  0  0  0  0  0  0  0
    9.9563  -19.2733   28.3129 N   0  0  0  0  0  0  0  0  0  0  0  0
   10.0269  -18.3654   29.2240 C   0  0  0  0  0  0  0  0  0  0  0  0
    8.9097  -19.1981   27.3635 C   0  0  0  0  0  0  0  0  0  0  0  0
    9.1599  -19.4632   25.9159 C   0  0  0  0  0  0  0  0  0  0  0  0
    9.9177  -18.2954   25.4325 C   0  0  2  0  0  0  0  0  0  0  0  0
    9.6481  -17.6054   24.1938 N   0  0  0  0  0  0  0  0  0  0  0  0
   10.4612  -16.4753   23.6851 C   0  0  0  0  0  0  0  0  0  0  0  0
    9.6612  -15.9437   22.5263 O   0  0  0  0  0  0  0  0  0  0  0  0
   11.7497  -16.8671   23.1014 O   0  0  0  0  0  0  0  0  0  0  0  0
  1  2  1  0
  2  3  2  0
  4  2  1  0
  5  4  1  0
  6  5  1  0
  7  6  1  0
  8  7  1  0
  8  9  1  6
 10 20  1  0
 10  8  1  0
 11 10  2  0
 13 12  1  0
 14 13  2  0
 15 13  1  0
 16 15  1  0
 17 16  1  0
 17 18  1  0
 19 18  1  6
 19 20  1  0
 21 31  1  0
 21 19  1  0
 22 21  2  0
 23 24  1  0
 24 25  2  0
 26 27  1  0
 26 24  1  0
 27 28  1  0
 28 29  1  0
 30 29  1  6
 30 31  1  0
 30 32  1  0
 32 33  1  0
 34 32  2  0
M  END
$$$$
