RRR.pdb
     RDKit          3D

 34 33  0  0  1  0  0  0  0  0999 V2000
    6.5043  -13.0577   19.2251 N   0  0  0  0  0  0  0  0  0  0  0  0
    7.8012  -12.7763   19.7063 C   0  0  0  0  0  0  0  0  0  0  0  0
    7.9104  -12.1315   20.8043 N   0  0  0  0  0  0  0  0  0  0  0  0
    8.9839  -13.1777   19.0261 N   0  0  0  0  0  0  0  0  0  0  0  0
    8.8956  -13.8128   17.7284 C   0  0  0  0  0  0  0  0  0  0  0  0
    8.6836  -15.2954   17.9226 C   0  0  0  0  0  0  0  0  0  0  0  0
    9.6609  -16.1105   17.1523 C   0  0  0  0  0  0  0  0  0  0  0  0
    9.3730  -17.5796   17.3461 C   0  0  2  0  0  0  0  0  0  0  0  0
    8.0509  -17.7966   16.7639 N   0  0  0  0  0  0  0  0  0  0  0  0
    9.3630  -17.9237   18.7955 C   0  0  0  0  0  0  0  0  0  0  0  0
    8.3122  -17.7157   19.4478 O   0  0  0  0  0  0  0  0  0  0  0  0
    8.7752  -11.9031   21.3000 N   0  0  0  0  0  0  0  0  0  0  0  0
   13.2837  -24.0854   17.5545 C   0  0  0  0  0  0  0  0  0  0  0  0
   11.9169  -23.8546   17.9845 N   0  0  0  0  0  0  0  0  0  0  0  0
   11.0385  -24.7637   17.8759 N   0  0  0  0  0  0  0  0  0  0  0  0
   11.5392  -22.6087   18.5320 C   0  0  0  0  0  0  0  0  0  0  0  0
   11.5573  -22.2162   19.8719 C   0  0  0  0  0  0  0  0  0  0  0  0
   10.4686  -21.3884   20.4418 C   0  0  0  0  0  0  0  0  0  0  0  0
   11.1908  -20.1778   21.0661 C   0  0  2  0  0  0  0  0  0  0  0  0
   10.4463  -18.8935   20.8122 N   0  0  0  0  0  0  0  0  0  0  0  0
   10.4894  -18.4744   19.4533 C   0  0  0  0  0  0  0  0  0  0  0  0
   10.8122  -17.7866   21.7065 O   0  0  0  0  0  0  0  0  0  0  0  0
   11.7329  -17.0023   21.3478 N   0  0  0  0  0  0  0  0  0  0  0  0
   10.0803  -24.6948   18.1619 C   0  0  0  0  0  0  0  0  0  0  0  0
   10.9988  -14.1864   29.7474 N   0  0  0  0  0  0  0  0  0  0  0  0
    9.7891  -14.7401   29.1875 N   0  0  0  0  0  0  0  0  0  0  0  0
    9.1471  -15.6743   29.7993 C   0  0  0  0  0  0  0  0  0  0  0  0
    9.2819  -14.2675   27.9539 C   0  0  0  0  0  0  0  0  0  0  0  0
    8.6719  -15.2010   26.9613 C   0  0  0  0  0  0  0  0  0  0  0  0
    9.6409  -15.2776   25.8537 C   0  0  1  0  0  0  0  0  0  0  0  0
    9.7692  -16.4039   24.9602 N   0  0  0  0  0  0  0  0  0  0  0  0
   10.7288  -16.4566   23.8319 C   0  0  0  0  0  0  0  0  0  0  0  0
   10.1919  -17.5501   22.9479 O   0  0  0  0  0  0  0  0  0  0  0  0
   12.0778  -16.9027   24.2008 O   0  0  0  0  0  0  0  0  0  0  0  0
  1  2  1  0
  2  3  2  0
  4  2  1  0
  5  4  1  0
  6  5  1  0
  7  6  1  0
  8  7  1  0
  8  9  1  1
 10 20  1  0
 10  8  1  0
 11 10  2  0
 13 12  1  0
 14 13  2  0
 15 13  1  0
 16 15  1  0
 17 16  1  0
 17 18  1  0
 19 18  1  6
 19 20  1  0
 21 31  1  0
 21 19  1  0
 22 21  2  0
 23 24  1  0
 24 25  2  0
 26 27  1  0
 26 24  1  0
 27 28  1  0
 28 29  1  0
 30 29  1  1
 30 31  1  0
 30 32  1  0
 32 33  1  0
 34 32  2  0
M  END
$$$$
