RRR.pdb
     RDKit          3D

 34 33  0  0  1  0  0  0  0  0999 V2000
   11.8464  -22.9361   23.3675 N   0  0  0  0  0  0  0  0  0  0  0  0
   10.5993  -22.3316   23.0985 C   0  0  0  0  0  0  0  0  0  0  0  0
    9.5430  -22.9142   23.5206 N   0  0  0  0  0  0  0  0  0  0  0  0
   10.4691  -21.1094   22.3830 N   0  0  0  0  0  0  0  0  0  0  0  0
   11.6450  -20.4386   21.8707 C   0  0  0  0  0  0  0  0  0  0  0  0
   11.2105  -19.2452   21.0535 C   0  0  0  0  0  0  0  0  0  0  0  0
   12.3506  -18.5977   20.3508 C   0  0  0  0  0  0  0  0  0  0  0  0
   11.8495  -17.4593   19.4955 C   0  0  2  0  0  0  0  0  0  0  0  0
   13.0441  -16.8641   18.9018 N   0  0  0  0  0  0  0  0  0  0  0  0
   11.1312  -16.4555   20.3297 C   0  0  0  0  0  0  0  0  0  0  0  0
   11.7825  -15.8343   21.2031 O   0  0  0  0  0  0  0  0  0  0  0  0
    8.5780  -22.5951   23.4083 N   0  0  0  0  0  0  0  0  0  0  0  0
    8.3044  -13.2413   16.0187 C   0  0  0  0  0  0  0  0  0  0  0  0
    7.4982  -14.3275   16.5449 N   0  0  0  0  0  0  0  0  0  0  0  0
    7.4250  -15.4377   15.9351 N   0  0  0  0  0  0  0  0  0  0  0  0
    6.7775  -14.1662   17.7487 C   0  0  0  0  0  0  0  0  0  0  0  0
    6.9468  -13.1862   18.7287 C   0  0  0  0  0  0  0  0  0  0  0  0
    8.0045  -13.3089   19.7592 C   0  0  0  0  0  0  0  0  0  0  0  0
    7.7997  -14.7152   20.3568 C   0  0  2  0  0  0  0  0  0  0  0  0
    9.0625  -15.2424   20.9857 N   0  0  0  0  0  0  0  0  0  0  0  0
    9.7515  -16.1814   20.1685 C   0  0  0  0  0  0  0  0  0  0  0  0
    8.8953  -15.7672   22.3478 O   0  0  0  0  0  0  0  0  0  0  0  0
    8.5093  -16.9597   22.4902 N   0  0  0  0  0  0  0  0  0  0  0  0
    6.9355  -16.2531   16.2518 C   0  0  0  0  0  0  0  0  0  0  0  0
    9.4860  -16.1014   30.1248 N   0  0  0  0  0  0  0  0  0  0  0  0
   10.8316  -15.6946   29.7973 N   0  0  0  0  0  0  0  0  0  0  0  0
   11.8454  -16.2607   30.3550 C   0  0  0  0  0  0  0  0  0  0  0  0
   11.0659  -14.6651   28.8552 C   0  0  0  0  0  0  0  0  0  0  0  0
    9.9345  -13.9162   28.2325 C   0  0  0  0  0  0  0  0  0  0  0  0
    9.3442  -14.8470   27.2544 C   0  0  2  0  0  0  0  0  0  0  0  0
    9.4499  -14.6989   25.8226 N   0  0  0  0  0  0  0  0  0  0  0  0
    8.7935  -15.6034   24.8490 C   0  0  0  0  0  0  0  0  0  0  0  0
    9.1417  -15.0114   23.5097 O   0  0  0  0  0  0  0  0  0  0  0  0
    7.3265  -15.5859   24.8955 O   0  0  0  0  0  0  0  0  0  0  0  0
  1  2  1  0
  2  3  2  0
  4  2  1  0
  5  4  1  0
  6  5  1  0
  7  6  1  0
  8  7  1  0
  8  9  1  1
 10 20  1  0
 10  8  1  0
 11 10  2  0
 13 12  1  0
 14 13  2  0
 15 13  1  0
 16 15  1  0
 17 16  1  0
 17 18  1  0
 19 18  1  6
 19 20  1  0
 21 31  1  0
 21 19  1  0
 22 21  2  0
 23 24  1  0
 24 25  2  0
 26 27  1  0
 26 24  1  0
 27 28  1  0
 28 29  1  0
 30 29  1  1
 30 31  1  0
 30 32  1  0
 32 33  1  0
 34 32  2  0
M  END
$$$$
