RRR.pdb
     RDKit          3D

 34 33  0  0  1  0  0  0  0  0999 V2000
   10.2651  -15.0333   17.5941 N   0  0  0  0  0  0  0  0  0  0  0  0
    9.7869  -16.2484   18.1306 C   0  0  0  0  0  0  0  0  0  0  0  0
   10.3924  -16.7406   19.1427 N   0  0  0  0  0  0  0  0  0  0  0  0
    8.6668  -16.9433   17.5968 N   0  0  0  0  0  0  0  0  0  0  0  0
    8.7214  -18.3782   17.4147 C   0  0  0  0  0  0  0  0  0  0  0  0
    7.6436  -19.0196   18.2561 C   0  0  0  0  0  0  0  0  0  0  0  0
    7.9668  -20.4281   18.6087 C   0  0  0  0  0  0  0  0  0  0  0  0
    6.8145  -21.0486   19.3611 C   0  0  2  0  0  0  0  0  0  0  0  0
    5.6253  -20.7473   18.5681 N   0  0  0  0  0  0  0  0  0  0  0  0
    6.6953  -20.4506   20.7204 C   0  0  0  0  0  0  0  0  0  0  0  0
    6.0368  -19.3907   20.8469 O   0  0  0  0  0  0  0  0  0  0  0  0
   10.1769  -17.6181   19.6216 N   0  0  0  0  0  0  0  0  0  0  0  0
    9.5503  -23.0133   27.8024 C   0  0  0  0  0  0  0  0  0  0  0  0
    8.8747  -21.8932   28.4311 N   0  0  0  0  0  0  0  0  0  0  0  0
    9.3795  -21.3121   29.4397 N   0  0  0  0  0  0  0  0  0  0  0  0
    7.6382  -21.4299   27.9300 C   0  0  0  0  0  0  0  0  0  0  0  0
    7.1942  -21.4225   26.6063 C   0  0  0  0  0  0  0  0  0  0  0  0
    7.8167  -20.5362   25.5951 C   0  0  0  0  0  0  0  0  0  0  0  0
    7.6717  -21.3049   24.2667 C   0  0  1  0  0  0  0  0  0  0  0  0
    7.3073  -20.3875   23.1292 N   0  0  0  0  0  0  0  0  0  0  0  0
    7.2932  -21.0355   21.8627 C   0  0  0  0  0  0  0  0  0  0  0  0
    8.0930  -19.1475   23.0669 O   0  0  0  0  0  0  0  0  0  0  0  0
    9.0994  -19.1104   22.3071 N   0  0  0  0  0  0  0  0  0  0  0  0
    8.9876  -20.5277   29.9256 C   0  0  0  0  0  0  0  0  0  0  0  0
    7.7224  -12.5966   18.3004 N   0  0  0  0  0  0  0  0  0  0  0  0
    9.0378  -12.7220   18.8813 N   0  0  0  0  0  0  0  0  0  0  0  0
   10.0375  -12.0707   18.3958 C   0  0  0  0  0  0  0  0  0  0  0  0
    9.2571  -13.5630   19.9979 C   0  0  0  0  0  0  0  0  0  0  0  0
    8.1545  -14.3923   20.5684 C   0  0  0  0  0  0  0  0  0  0  0  0
    8.7488  -15.0863   21.7246 C   0  0  1  0  0  0  0  0  0  0  0  0
    8.0325  -15.9991   22.5830 N   0  0  0  0  0  0  0  0  0  0  0  0
    8.6688  -16.7814   23.6692 C   0  0  0  0  0  0  0  0  0  0  0  0
    7.7864  -17.9924   23.8109 O   0  0  0  0  0  0  0  0  0  0  0  0
    8.6312  -16.1353   24.9867 O   0  0  0  0  0  0  0  0  0  0  0  0
  1  2  1  0
  2  3  2  0
  4  2  1  0
  5  4  1  0
  6  5  1  0
  7  6  1  0
  8  7  1  0
  8  9  1  6
 10 20  1  0
 10  8  1  0
 11 10  2  0
 13 12  1  0
 14 13  2  0
 15 13  1  0
 16 15  1  0
 17 16  1  0
 17 18  1  0
 19 18  1  1
 19 20  1  0
 21 31  1  0
 21 19  1  0
 22 21  2  0
 23 24  1  0
 24 25  2  0
 26 27  1  0
 26 24  1  0
 27 28  1  0
 28 29  1  0
 30 29  1  1
 30 31  1  0
 30 32  1  0
 32 33  1  0
 34 32  2  0
M  END
$$$$
