RRR.pdb
     RDKit          3D

 34 33  0  0  1  0  0  0  0  0999 V2000
    7.4350  -13.9591   13.6394 N   0  0  0  0  0  0  0  0  0  0  0  0
    7.8650  -13.3887   14.8571 C   0  0  0  0  0  0  0  0  0  0  0  0
    9.0783  -12.9970   14.9444 N   0  0  0  0  0  0  0  0  0  0  0  0
    7.0108  -13.2317   15.9833 N   0  0  0  0  0  0  0  0  0  0  0  0
    7.4652  -13.6247   17.3001 C   0  0  0  0  0  0  0  0  0  0  0  0
    8.0273  -15.0246   17.2263 C   0  0  0  0  0  0  0  0  0  0  0  0
    8.4140  -15.5482   18.5639 C   0  0  0  0  0  0  0  0  0  0  0  0
    8.9621  -16.9484   18.4305 C   0  0  2  0  0  0  0  0  0  0  0  0
    7.8380  -17.7645   17.9786 N   0  0  0  0  0  0  0  0  0  0  0  0
    9.4641  -17.4407   19.7439 C   0  0  0  0  0  0  0  0  0  0  0  0
    9.0167  -18.5279   20.1807 O   0  0  0  0  0  0  0  0  0  0  0  0
    9.5586  -12.6652   15.7841 N   0  0  0  0  0  0  0  0  0  0  0  0
   15.2065  -20.7345   25.5043 C   0  0  0  0  0  0  0  0  0  0  0  0
   14.6624  -20.5818   24.1675 N   0  0  0  0  0  0  0  0  0  0  0  0
   13.8530  -21.4361   23.6932 N   0  0  0  0  0  0  0  0  0  0  0  0
   15.0270  -19.4762   23.3679 C   0  0  0  0  0  0  0  0  0  0  0  0
   14.1905  -18.5223   22.7850 C   0  0  0  0  0  0  0  0  0  0  0  0
   12.7161  -18.6549   22.8503 C   0  0  0  0  0  0  0  0  0  0  0  0
   12.2152  -18.0494   21.5240 C   0  0  2  0  0  0  0  0  0  0  0  0
   10.9597  -17.2409   21.7199 N   0  0  0  0  0  0  0  0  0  0  0  0
   10.4219  -16.7292   20.5062 C   0  0  0  0  0  0  0  0  0  0  0  0
   11.0678  -16.1765   22.7269 O   0  0  0  0  0  0  0  0  0  0  0  0
   11.3781  -15.0152   22.3441 N   0  0  0  0  0  0  0  0  0  0  0  0
   13.4136  -21.3956   22.7932 C   0  0  0  0  0  0  0  0  0  0  0  0
    7.4094  -11.9069   27.4123 N   0  0  0  0  0  0  0  0  0  0  0  0
    6.6697  -12.6762   26.4405 N   0  0  0  0  0  0  0  0  0  0  0  0
    5.7763  -12.1176   25.6995 C   0  0  0  0  0  0  0  0  0  0  0  0
    6.9110  -14.0613   26.2805 C   0  0  0  0  0  0  0  0  0  0  0  0
    6.4772  -14.7833   25.0480 C   0  0  0  0  0  0  0  0  0  0  0  0
    7.5615  -14.5726   24.0725 C   0  0  2  0  0  0  0  0  0  0  0  0
    8.6867  -15.4602   23.9011 N   0  0  0  0  0  0  0  0  0  0  0  0
    9.8532  -15.4992   24.8147 C   0  0  0  0  0  0  0  0  0  0  0  0
   10.8447  -16.3792   24.1020 O   0  0  0  0  0  0  0  0  0  0  0  0
    9.6029  -16.1767   26.0926 O   0  0  0  0  0  0  0  0  0  0  0  0
  1  2  1  0
  2  3  2  0
  4  2  1  0
  5  4  1  0
  6  5  1  0
  7  6  1  0
  8  7  1  0
  8  9  1  1
 10 20  1  0
 10  8  1  0
 11 10  2  0
 13 12  1  0
 14 13  2  0
 15 13  1  0
 16 15  1  0
 17 16  1  0
 17 18  1  0
 19 18  1  6
 19 20  1  0
 21 31  1  0
 21 19  1  0
 22 21  2  0
 23 24  1  0
 24 25  2  0
 26 27  1  0
 26 24  1  0
 27 28  1  0
 28 29  1  0
 30 29  1  1
 30 31  1  0
 30 32  1  0
 32 33  1  0
 34 32  2  0
M  END
$$$$
