RRR.pdb
     RDKit          3D

 34 33  0  0  1  0  0  0  0  0999 V2000
   13.4379  -15.2617   12.2758 N   0  0  0  0  0  0  0  0  0  0  0  0
   12.2820  -15.6174   11.5476 C   0  0  0  0  0  0  0  0  0  0  0  0
   11.9831  -14.9262   10.5150 N   0  0  0  0  0  0  0  0  0  0  0  0
   11.4417  -16.7056   11.9112 N   0  0  0  0  0  0  0  0  0  0  0  0
   11.7715  -17.5270   13.0565 C   0  0  0  0  0  0  0  0  0  0  0  0
   11.2067  -16.8823   14.3000 C   0  0  0  0  0  0  0  0  0  0  0  0
   11.5868  -17.6151   15.5375 C   0  0  0  0  0  0  0  0  0  0  0  0
   10.3593  -17.8871   16.3730 C   0  0  2  0  0  0  0  0  0  0  0  0
    9.2250  -17.5278   15.5257 N   0  0  0  0  0  0  0  0  0  0  0  0
   10.3701  -17.0505   17.6056 C   0  0  0  0  0  0  0  0  0  0  0  0
   11.4069  -17.0464   18.3113 O   0  0  0  0  0  0  0  0  0  0  0  0
   11.2242  -15.1054    9.8534 N   0  0  0  0  0  0  0  0  0  0  0  0
    7.5563  -13.0574   23.9096 C   0  0  0  0  0  0  0  0  0  0  0  0
    7.5226  -11.8497   23.1053 N   0  0  0  0  0  0  0  0  0  0  0  0
    7.2212  -10.7314   23.6234 N   0  0  0  0  0  0  0  0  0  0  0  0
    7.8243  -11.8990   21.7265 C   0  0  0  0  0  0  0  0  0  0  0  0
    7.3839  -12.8278   20.7816 C   0  0  0  0  0  0  0  0  0  0  0  0
    7.7978  -14.2486   20.8542 C   0  0  0  0  0  0  0  0  0  0  0  0
    8.0463  -14.6535   19.3875 C   0  0  1  0  0  0  0  0  0  0  0  0
    9.2030  -15.6099   19.2621 N   0  0  0  0  0  0  0  0  0  0  0  0
    9.2597  -16.2659   18.0009 C   0  0  0  0  0  0  0  0  0  0  0  0
    9.3138  -16.5837   20.3568 O   0  0  0  0  0  0  0  0  0  0  0  0
    8.4921  -17.5400   20.3971 N   0  0  0  0  0  0  0  0  0  0  0  0
    7.2217   -9.8453   23.1548 C   0  0  0  0  0  0  0  0  0  0  0  0
   15.5659  -17.8675   19.9612 N   0  0  0  0  0  0  0  0  0  0  0  0
   15.3619  -19.2773   20.1936 N   0  0  0  0  0  0  0  0  0  0  0  0
   16.2729  -20.1346   19.8859 C   0  0  0  0  0  0  0  0  0  0  0  0
   14.1563  -19.7481   20.7655 C   0  0  0  0  0  0  0  0  0  0  0  0
   12.8775  -18.9959   20.5994 C   0  0  0  0  0  0  0  0  0  0  0  0
   12.1981  -19.0920   21.9036 C   0  0  1  0  0  0  0  0  0  0  0  0
   11.6505  -17.9661   22.6216 N   0  0  0  0  0  0  0  0  0  0  0  0
   10.2461  -17.5100   22.4936 C   0  0  0  0  0  0  0  0  0  0  0  0
   10.2890  -16.5100   21.3695 O   0  0  0  0  0  0  0  0  0  0  0  0
    9.7442  -16.7541   23.6474 O   0  0  0  0  0  0  0  0  0  0  0  0
  1  2  1  0
  2  3  2  0
  4  2  1  0
  5  4  1  0
  6  5  1  0
  7  6  1  0
  8  7  1  0
  8  9  1  6
 10 20  1  0
 10  8  1  0
 11 10  2  0
 13 12  1  0
 14 13  2  0
 15 13  1  0
 16 15  1  0
 17 16  1  0
 17 18  1  0
 19 18  1  6
 19 20  1  0
 21 31  1  0
 21 19  1  0
 22 21  2  0
 23 24  1  0
 24 25  2  0
 26 27  1  0
 26 24  1  0
 27 28  1  0
 28 29  1  0
 30 29  1  1
 30 31  1  0
 30 32  1  0
 32 33  1  0
 34 32  2  0
M  END
$$$$
