RRR.pdb
     RDKit          3D

 34 33  0  0  1  0  0  0  0  0999 V2000
   15.5289  -23.1253   14.1272 N   0  0  0  0  0  0  0  0  0  0  0  0
   14.6624  -22.6620   15.1408 C   0  0  0  0  0  0  0  0  0  0  0  0
   13.4079  -22.6386   14.8978 N   0  0  0  0  0  0  0  0  0  0  0  0
   15.1228  -22.2236   16.4130 N   0  0  0  0  0  0  0  0  0  0  0  0
   14.1738  -21.8436   17.4377 C   0  0  0  0  0  0  0  0  0  0  0  0
   13.5893  -20.4956   17.0878 C   0  0  0  0  0  0  0  0  0  0  0  0
   12.5630  -20.0539   18.0698 C   0  0  0  0  0  0  0  0  0  0  0  0
   11.9951  -18.7179   17.6560 C   0  0  2  0  0  0  0  0  0  0  0  0
   13.0185  -18.1047   16.8132 N   0  0  0  0  0  0  0  0  0  0  0  0
   11.7322  -17.8687   18.8515 C   0  0  0  0  0  0  0  0  0  0  0  0
   12.6895  -17.2262   19.3453 O   0  0  0  0  0  0  0  0  0  0  0  0
   12.6596  -22.3914   15.5496 N   0  0  0  0  0  0  0  0  0  0  0  0
    7.1784  -14.0190   18.6766 C   0  0  0  0  0  0  0  0  0  0  0  0
    7.1003  -13.1228   19.8154 N   0  0  0  0  0  0  0  0  0  0  0  0
    7.2105  -11.8678   19.6644 N   0  0  0  0  0  0  0  0  0  0  0  0
    6.9011  -13.6342   21.1168 C   0  0  0  0  0  0  0  0  0  0  0  0
    7.1739  -14.9201   21.5874 C   0  0  0  0  0  0  0  0  0  0  0  0
    8.5677  -15.3961   21.7499 C   0  0  0  0  0  0  0  0  0  0  0  0
    8.7988  -16.3314   20.5464 C   0  0  2  0  0  0  0  0  0  0  0  0
   10.1898  -16.9087   20.5488 N   0  0  0  0  0  0  0  0  0  0  0  0
   10.4492  -17.7628   19.4409 C   0  0  0  0  0  0  0  0  0  0  0  0
   10.5802  -17.5604   21.8065 O   0  0  0  0  0  0  0  0  0  0  0  0
   10.1887  -18.7406   22.0195 N   0  0  0  0  0  0  0  0  0  0  0  0
    7.1881  -11.1818   20.3949 C   0  0  0  0  0  0  0  0  0  0  0  0
   18.0729  -16.6244   23.8114 N   0  0  0  0  0  0  0  0  0  0  0  0
   17.5470  -17.9671   23.7502 N   0  0  0  0  0  0  0  0  0  0  0  0
   18.3184  -18.9659   23.4919 C   0  0  0  0  0  0  0  0  0  0  0  0
   16.1719  -18.2152   23.9734 C   0  0  0  0  0  0  0  0  0  0  0  0
   15.5177  -17.8350   25.2603 C   0  0  0  0  0  0  0  0  0  0  0  0
   14.0880  -18.1399   25.0741 C   0  0  2  0  0  0  0  0  0  0  0  0
   13.2146  -17.4295   24.1709 N   0  0  0  0  0  0  0  0  0  0  0  0
   11.7736  -17.7345   24.0062 C   0  0  0  0  0  0  0  0  0  0  0  0
   11.3694  -16.9400   22.7934 O   0  0  0  0  0  0  0  0  0  0  0  0
   10.9174  -17.2296   25.0863 O   0  0  0  0  0  0  0  0  0  0  0  0
  1  2  1  0
  2  3  2  0
  4  2  1  0
  5  4  1  0
  6  5  1  0
  7  6  1  0
  8  7  1  0
  8  9  1  6
 10 20  1  0
 10  8  1  0
 11 10  2  0
 13 12  1  0
 14 13  2  0
 15 13  1  0
 16 15  1  0
 17 16  1  0
 17 18  1  0
 19 18  1  6
 19 20  1  0
 21 31  1  0
 21 19  1  0
 22 21  2  0
 23 24  1  0
 24 25  2  0
 26 27  1  0
 26 24  1  0
 27 28  1  0
 28 29  1  0
 30 29  1  1
 30 31  1  0
 30 32  1  0
 32 33  1  0
 34 32  2  0
M  END
$$$$
