RRR.pdb
     RDKit          3D

 34 33  0  0  1  0  0  0  0  0999 V2000
    5.6668  -12.7723   17.8229 N   0  0  0  0  0  0  0  0  0  0  0  0
    6.5093  -12.1393   18.7624 C   0  0  0  0  0  0  0  0  0  0  0  0
    6.0143  -11.8171   19.8957 N   0  0  0  0  0  0  0  0  0  0  0  0
    7.8769  -11.8474   18.5034 N   0  0  0  0  0  0  0  0  0  0  0  0
    8.9183  -12.6522   19.1059 C   0  0  0  0  0  0  0  0  0  0  0  0
    8.4533  -14.0878   19.1676 C   0  0  0  0  0  0  0  0  0  0  0  0
    9.4194  -14.9632   19.8840 C   0  0  0  0  0  0  0  0  0  0  0  0
   10.0743  -15.9129   18.9105 C   0  0  2  0  0  0  0  0  0  0  0  0
    9.4726  -17.2173   19.1756 N   0  0  0  0  0  0  0  0  0  0  0  0
   11.5453  -15.9652   19.1404 C   0  0  0  0  0  0  0  0  0  0  0  0
   12.0008  -16.8829   19.8638 O   0  0  0  0  0  0  0  0  0  0  0  0
    6.4946  -11.3440   20.6646 N   0  0  0  0  0  0  0  0  0  0  0  0
   18.8951  -11.2467   16.6190 C   0  0  0  0  0  0  0  0  0  0  0  0
   18.9680  -12.5939   17.1541 N   0  0  0  0  0  0  0  0  0  0  0  0
   19.7870  -12.8830   18.0790 N   0  0  0  0  0  0  0  0  0  0  0  0
   18.1263  -13.6105   16.6514 C   0  0  0  0  0  0  0  0  0  0  0  0
   16.7409  -13.7242   16.7824 C   0  0  0  0  0  0  0  0  0  0  0  0
   16.1352  -14.3841   17.9628 C   0  0  0  0  0  0  0  0  0  0  0  0
   14.6191  -14.3570   17.6843 C   0  0  1  0  0  0  0  0  0  0  0  0
   13.8477  -15.1233   18.7264 N   0  0  0  0  0  0  0  0  0  0  0  0
   12.4369  -15.0233   18.5725 C   0  0  0  0  0  0  0  0  0  0  0  0
   14.2383  -14.8343   20.1130 O   0  0  0  0  0  0  0  0  0  0  0  0
   14.0755  -13.6631   20.5524 N   0  0  0  0  0  0  0  0  0  0  0  0
   19.8766  -13.7737   18.5299 C   0  0  0  0  0  0  0  0  0  0  0  0
   11.5840  -19.9165   23.0636 N   0  0  0  0  0  0  0  0  0  0  0  0
   13.0160  -19.8879   22.8852 N   0  0  0  0  0  0  0  0  0  0  0  0
   13.5698  -20.5041   21.8988 C   0  0  0  0  0  0  0  0  0  0  0  0
   13.8427  -19.1810   23.7903 C   0  0  0  0  0  0  0  0  0  0  0  0
   15.3258  -19.1541   23.6220 C   0  0  0  0  0  0  0  0  0  0  0  0
   15.6203  -17.8621   22.9773 C   0  0  2  0  0  0  0  0  0  0  0  0
   14.8466  -16.6594   23.1726 N   0  0  0  0  0  0  0  0  0  0  0  0
   15.0640  -15.4061   22.4118 C   0  0  0  0  0  0  0  0  0  0  0  0
   14.7877  -15.7942   20.9841 O   0  0  0  0  0  0  0  0  0  0  0  0
   16.4524  -14.9298   22.4078 O   0  0  0  0  0  0  0  0  0  0  0  0
  1  2  1  0
  2  3  2  0
  4  2  1  0
  5  4  1  0
  6  5  1  0
  7  6  1  0
  8  7  1  0
  8  9  1  1
 10 20  1  0
 10  8  1  0
 11 10  2  0
 13 12  1  0
 14 13  2  0
 15 13  1  0
 16 15  1  0
 17 16  1  0
 17 18  1  0
 19 18  1  6
 19 20  1  0
 21 31  1  0
 21 19  1  0
 22 21  2  0
 23 24  1  0
 24 25  2  0
 26 27  1  0
 26 24  1  0
 27 28  1  0
 28 29  1  0
 30 29  1  6
 30 31  1  0
 30 32  1  0
 32 33  1  0
 34 32  2  0
M  END
$$$$
