RRR.pdb
     RDKit          3D

 34 33  0  0  1  0  0  0  0  0999 V2000
    6.9586  -11.5751   20.5168 N   0  0  0  0  0  0  0  0  0  0  0  0
    7.2158  -12.5294   19.5088 C   0  0  0  0  0  0  0  0  0  0  0  0
    6.8435  -12.2619   18.3159 N   0  0  0  0  0  0  0  0  0  0  0  0
    7.8680  -13.7674   19.7624 N   0  0  0  0  0  0  0  0  0  0  0  0
    7.3531  -14.6662   20.7734 C   0  0  0  0  0  0  0  0  0  0  0  0
    8.1854  -15.9263   20.7778 C   0  0  0  0  0  0  0  0  0  0  0  0
    8.5369  -16.3748   19.4037 C   0  0  0  0  0  0  0  0  0  0  0  0
    9.3938  -17.6158   19.4699 C   0  0  2  0  0  0  0  0  0  0  0  0
    8.7541  -18.4774   20.4609 N   0  0  0  0  0  0  0  0  0  0  0  0
   10.7785  -17.2727   19.8992 C   0  0  0  0  0  0  0  0  0  0  0  0
   11.3444  -18.0208   20.7317 O   0  0  0  0  0  0  0  0  0  0  0  0
    7.2576  -12.6125   17.4490 N   0  0  0  0  0  0  0  0  0  0  0  0
   18.5268  -14.6051   18.8671 C   0  0  0  0  0  0  0  0  0  0  0  0
   17.8233  -13.8000   17.8857 N   0  0  0  0  0  0  0  0  0  0  0  0
   18.2171  -13.7522   16.6805 N   0  0  0  0  0  0  0  0  0  0  0  0
   16.6845  -13.0516   18.2571 C   0  0  0  0  0  0  0  0  0  0  0  0
   15.3546  -13.4742   18.3044 C   0  0  0  0  0  0  0  0  0  0  0  0
   14.9393  -14.5987   19.1753 C   0  0  0  0  0  0  0  0  0  0  0  0
   13.4352  -14.7752   18.8865 C   0  0  2  0  0  0  0  0  0  0  0  0
   12.8420  -15.9017   19.6911 N   0  0  0  0  0  0  0  0  0  0  0  0
   11.4701  -16.1421   19.4011 C   0  0  0  0  0  0  0  0  0  0  0  0
   13.0531  -15.7956   21.1413 O   0  0  0  0  0  0  0  0  0  0  0  0
   12.3704  -14.9554   21.7889 N   0  0  0  0  0  0  0  0  0  0  0  0
   17.7666  -13.2608   15.9321 C   0  0  0  0  0  0  0  0  0  0  0  0
   14.8121  -21.1657   28.7357 N   0  0  0  0  0  0  0  0  0  0  0  0
   13.7353  -20.3661   28.2025 N   0  0  0  0  0  0  0  0  0  0  0  0
   12.5123  -20.6063   28.5278 C   0  0  0  0  0  0  0  0  0  0  0  0
   14.0005  -19.2998   27.3108 C   0  0  0  0  0  0  0  0  0  0  0  0
   13.7059  -19.4214   25.8524 C   0  0  0  0  0  0  0  0  0  0  0  0
   14.0062  -18.0955   25.2836 C   0  0  1  0  0  0  0  0  0  0  0  0
   13.8347  -17.7478   23.8933 N   0  0  0  0  0  0  0  0  0  0  0  0
   14.0950  -16.3965   23.3428 C   0  0  0  0  0  0  0  0  0  0  0  0
   13.9789  -16.5814   21.8536 O   0  0  0  0  0  0  0  0  0  0  0  0
   15.4627  -15.9068   23.5532 O   0  0  0  0  0  0  0  0  0  0  0  0
  1  2  1  0
  2  3  2  0
  4  2  1  0
  5  4  1  0
  6  5  1  0
  7  6  1  0
  8  7  1  0
  8  9  1  1
 10 20  1  0
 10  8  1  0
 11 10  2  0
 13 12  1  0
 14 13  2  0
 15 13  1  0
 16 15  1  0
 17 16  1  0
 17 18  1  0
 19 18  1  6
 19 20  1  0
 21 31  1  0
 21 19  1  0
 22 21  2  0
 23 24  1  0
 24 25  2  0
 26 27  1  0
 26 24  1  0
 27 28  1  0
 28 29  1  0
 30 29  1  6
 30 31  1  0
 30 32  1  0
 32 33  1  0
 34 32  2  0
M  END
$$$$
