RRR.pdb
     RDKit          3D

 34 33  0  0  1  0  0  0  0  0999 V2000
   12.1337  -18.0105   16.3791 N   0  0  0  0  0  0  0  0  0  0  0  0
   12.2846  -16.8236   15.6298 C   0  0  0  0  0  0  0  0  0  0  0  0
   12.8380  -16.9021   14.4805 N   0  0  0  0  0  0  0  0  0  0  0  0
   11.8491  -15.5525   16.0961 N   0  0  0  0  0  0  0  0  0  0  0  0
   11.4239  -15.3893   17.4700 C   0  0  0  0  0  0  0  0  0  0  0  0
   10.8002  -14.0232   17.6301 C   0  0  0  0  0  0  0  0  0  0  0  0
   10.2223  -13.8226   18.9861 C   0  0  0  0  0  0  0  0  0  0  0  0
    8.7285  -14.0371   18.9467 C   0  0  2  0  0  0  0  0  0  0  0  0
    8.1413  -12.7051   19.0682 N   0  0  0  0  0  0  0  0  0  0  0  0
    8.2941  -14.8997   20.0810 C   0  0  0  0  0  0  0  0  0  0  0  0
    8.1345  -14.3665   21.2049 O   0  0  0  0  0  0  0  0  0  0  0  0
   12.9843  -16.1396   13.8150 N   0  0  0  0  0  0  0  0  0  0  0  0
    7.8655  -21.4914   17.7635 C   0  0  0  0  0  0  0  0  0  0  0  0
    6.9545  -20.8509   16.8327 N   0  0  0  0  0  0  0  0  0  0  0  0
    6.8262  -21.2829   15.6467 N   0  0  0  0  0  0  0  0  0  0  0  0
    6.1932  -19.7304   17.2323 C   0  0  0  0  0  0  0  0  0  0  0  0
    6.0878  -19.1718   18.5076 C   0  0  0  0  0  0  0  0  0  0  0  0
    7.2854  -18.9703   19.3564 C   0  0  0  0  0  0  0  0  0  0  0  0
    6.7530  -18.2467   20.6093 C   0  0  1  0  0  0  0  0  0  0  0  0
    7.6518  -17.1102   21.0202 N   0  0  0  0  0  0  0  0  0  0  0  0
    8.0558  -16.2874   19.9321 C   0  0  0  0  0  0  0  0  0  0  0  0
    8.8138  -17.5091   21.8260 O   0  0  0  0  0  0  0  0  0  0  0  0
    9.6325  -18.3336   21.3347 N   0  0  0  0  0  0  0  0  0  0  0  0
    6.2916  -20.8516   14.9167 C   0  0  0  0  0  0  0  0  0  0  0  0
   14.9610  -15.4400   18.2909 N   0  0  0  0  0  0  0  0  0  0  0  0
   14.3975  -14.9281   19.5172 N   0  0  0  0  0  0  0  0  0  0  0  0
   14.6918  -13.7456   19.9347 C   0  0  0  0  0  0  0  0  0  0  0  0
   13.5083  -15.7149   20.2872 C   0  0  0  0  0  0  0  0  0  0  0  0
   12.9340  -15.2027   21.5664 C   0  0  0  0  0  0  0  0  0  0  0  0
   12.0689  -16.2865   22.0652 C   0  0  1  0  0  0  0  0  0  0  0  0
   11.2702  -16.2044   23.2645 N   0  0  0  0  0  0  0  0  0  0  0  0
   10.4038  -17.3023   23.7554 C   0  0  0  0  0  0  0  0  0  0  0  0
    9.0672  -17.0222   23.1224 O   0  0  0  0  0  0  0  0  0  0  0  0
   10.1463  -17.2745   25.2002 O   0  0  0  0  0  0  0  0  0  0  0  0
  1  2  1  0
  2  3  2  0
  4  2  1  0
  5  4  1  0
  6  5  1  0
  7  6  1  0
  8  7  1  0
  8  9  1  1
 10 20  1  0
 10  8  1  0
 11 10  2  0
 13 12  1  0
 14 13  2  0
 15 13  1  0
 16 15  1  0
 17 16  1  0
 17 18  1  0
 19 18  1  1
 19 20  1  0
 21 31  1  0
 21 19  1  0
 22 21  2  0
 23 24  1  0
 24 25  2  0
 26 27  1  0
 26 24  1  0
 27 28  1  0
 28 29  1  0
 30 29  1  1
 30 31  1  0
 30 32  1  0
 32 33  1  0
 34 32  2  0
M  END
$$$$
