RRR.pdb
     RDKit          3D

 34 33  0  0  1  0  0  0  0  0999 V2000
   14.8565  -19.0869   19.1333 N   0  0  0  0  0  0  0  0  0  0  0  0
   15.8412  -19.7977   18.4136 C   0  0  0  0  0  0  0  0  0  0  0  0
   17.0194  -19.3058   18.3566 N   0  0  0  0  0  0  0  0  0  0  0  0
   15.5800  -21.0303   17.7540 N   0  0  0  0  0  0  0  0  0  0  0  0
   14.2489  -21.5984   17.7764 C   0  0  0  0  0  0  0  0  0  0  0  0
   13.2428  -20.4970   17.5405 C   0  0  0  0  0  0  0  0  0  0  0  0
   11.8529  -21.0163   17.4336 C   0  0  0  0  0  0  0  0  0  0  0  0
   10.9019  -19.8845   17.1282 C   0  0  2  0  0  0  0  0  0  0  0  0
   11.3705  -19.3121   15.8687 N   0  0  0  0  0  0  0  0  0  0  0  0
   10.9437  -18.8604   18.2094 C   0  0  0  0  0  0  0  0  0  0  0  0
   11.9036  -18.0533   18.2256 O   0  0  0  0  0  0  0  0  0  0  0  0
   17.8377  -19.7200   17.9043 N   0  0  0  0  0  0  0  0  0  0  0  0
    6.8983  -12.9933   18.8324 C   0  0  0  0  0  0  0  0  0  0  0  0
    7.1498  -12.8771   20.2570 N   0  0  0  0  0  0  0  0  0  0  0  0
    7.0933  -11.7504   20.8378 N   0  0  0  0  0  0  0  0  0  0  0  0
    7.4643  -14.0204   21.0242 C   0  0  0  0  0  0  0  0  0  0  0  0
    8.3329  -15.0638   20.6979 C   0  0  0  0  0  0  0  0  0  0  0  0
    8.5614  -16.1904   21.6329 C   0  0  0  0  0  0  0  0  0  0  0  0
    8.5627  -17.4432   20.7344 C   0  0  2  0  0  0  0  0  0  0  0  0
    9.9331  -17.7288   20.1789 N   0  0  0  0  0  0  0  0  0  0  0  0
    9.9439  -18.7682   19.2076 C   0  0  0  0  0  0  0  0  0  0  0  0
   10.9696  -17.9593   21.1945 O   0  0  0  0  0  0  0  0  0  0  0  0
   11.2001  -19.1442   21.5609 N   0  0  0  0  0  0  0  0  0  0  0  0
    7.3353  -11.5668   21.7930 C   0  0  0  0  0  0  0  0  0  0  0  0
   19.5971  -15.5898   22.5140 N   0  0  0  0  0  0  0  0  0  0  0  0
   18.7905  -15.8629   23.6795 N   0  0  0  0  0  0  0  0  0  0  0  0
   19.1934  -15.5217   24.8545 C   0  0  0  0  0  0  0  0  0  0  0  0
   17.5387  -16.5109   23.5558 C   0  0  0  0  0  0  0  0  0  0  0  0
   16.3382  -15.7816   23.0505 C   0  0  0  0  0  0  0  0  0  0  0  0
   15.2987  -16.8128   22.8840 C   0  0  2  0  0  0  0  0  0  0  0  0
   13.9745  -16.5588   22.3692 N   0  0  0  0  0  0  0  0  0  0  0  0
   12.7626  -17.2865   22.8149 C   0  0  0  0  0  0  0  0  0  0  0  0
   11.7238  -16.9283   21.7862 O   0  0  0  0  0  0  0  0  0  0  0  0
   12.2047  -16.8165   24.0887 O   0  0  0  0  0  0  0  0  0  0  0  0
  1  2  1  0
  2  3  2  0
  4  2  1  0
  5  4  1  0
  6  5  1  0
  7  6  1  0
  8  7  1  0
  8  9  1  6
 10 20  1  0
 10  8  1  0
 11 10  2  0
 13 12  1  0
 14 13  2  0
 15 13  1  0
 16 15  1  0
 17 16  1  0
 17 18  1  0
 19 18  1  6
 19 20  1  0
 21 31  1  0
 21 19  1  0
 22 21  2  0
 23 24  1  0
 24 25  2  0
 26 27  1  0
 26 24  1  0
 27 28  1  0
 28 29  1  0
 30 29  1  1
 30 31  1  0
 30 32  1  0
 32 33  1  0
 34 32  2  0
M  END
$$$$
