RRR.pdb
     RDKit          3D

 34 33  0  0  1  0  0  0  0  0999 V2000
   17.5544  -14.1515   16.0151 N   0  0  0  0  0  0  0  0  0  0  0  0
   17.6115  -14.0490   17.4220 C   0  0  0  0  0  0  0  0  0  0  0  0
   18.7579  -14.1007   17.9845 N   0  0  0  0  0  0  0  0  0  0  0  0
   16.4552  -13.8912   18.2348 N   0  0  0  0  0  0  0  0  0  0  0  0
   15.1522  -13.7402   17.6230 C   0  0  0  0  0  0  0  0  0  0  0  0
   14.5789  -15.1101   17.3482 C   0  0  0  0  0  0  0  0  0  0  0  0
   13.7247  -15.5981   18.4640 C   0  0  0  0  0  0  0  0  0  0  0  0
   13.2633  -17.0074   18.1816 C   0  0  2  0  0  0  0  0  0  0  0  0
   12.3920  -16.9044   17.0136 N   0  0  0  0  0  0  0  0  0  0  0  0
   12.5081  -17.5531   19.3441 C   0  0  0  0  0  0  0  0  0  0  0  0
   11.3127  -17.2038   19.4922 O   0  0  0  0  0  0  0  0  0  0  0  0
   18.9589  -13.9973   18.9818 N   0  0  0  0  0  0  0  0  0  0  0  0
   13.1409  -21.5709   27.0190 C   0  0  0  0  0  0  0  0  0  0  0  0
   13.1168  -22.7065   26.1156 N   0  0  0  0  0  0  0  0  0  0  0  0
   13.5949  -23.8278   26.4675 N   0  0  0  0  0  0  0  0  0  0  0  0
   12.5599  -22.5820   24.8237 C   0  0  0  0  0  0  0  0  0  0  0  0
   13.0198  -21.8043   23.7593 C   0  0  0  0  0  0  0  0  0  0  0  0
   12.2104  -20.6847   23.2235 C   0  0  0  0  0  0  0  0  0  0  0  0
   13.0513  -20.1230   22.0598 C   0  0  2  0  0  0  0  0  0  0  0  0
   12.3666  -18.9624   21.3874 N   0  0  0  0  0  0  0  0  0  0  0  0
   13.0898  -18.4460   20.2763 C   0  0  0  0  0  0  0  0  0  0  0  0
   11.9683  -17.8773   22.2944 O   0  0  0  0  0  0  0  0  0  0  0  0
   12.8666  -17.1297   22.7693 N   0  0  0  0  0  0  0  0  0  0  0  0
   13.6271  -24.6574   25.9057 C   0  0  0  0  0  0  0  0  0  0  0  0
    6.6463  -12.8825   19.0906 N   0  0  0  0  0  0  0  0  0  0  0  0
    8.0852  -12.7708   19.0750 N   0  0  0  0  0  0  0  0  0  0  0  0
    8.6790  -12.0228   18.2106 C   0  0  0  0  0  0  0  0  0  0  0  0
    8.8749  -13.4807   20.0103 C   0  0  0  0  0  0  0  0  0  0  0  0
    8.2482  -14.2284   21.1402 C   0  0  0  0  0  0  0  0  0  0  0  0
    9.3705  -14.8545   21.8616 C   0  0  1  0  0  0  0  0  0  0  0  0
    9.2188  -15.7668   22.9697 N   0  0  0  0  0  0  0  0  0  0  0  0
   10.3478  -16.4841   23.6082 C   0  0  0  0  0  0  0  0  0  0  0  0
   10.6347  -17.6230   22.6669 O   0  0  0  0  0  0  0  0  0  0  0  0
   10.0153  -17.1286   24.8844 O   0  0  0  0  0  0  0  0  0  0  0  0
  1  2  1  0
  2  3  2  0
  4  2  1  0
  5  4  1  0
  6  5  1  0
  7  6  1  0
  8  7  1  0
  8  9  1  6
 10 20  1  0
 10  8  1  0
 11 10  2  0
 13 12  1  0
 14 13  2  0
 15 13  1  0
 16 15  1  0
 17 16  1  0
 17 18  1  0
 19 18  1  6
 19 20  1  0
 21 31  1  0
 21 19  1  0
 22 21  2  0
 23 24  1  0
 24 25  2  0
 26 27  1  0
 26 24  1  0
 27 28  1  0
 28 29  1  0
 30 29  1  1
 30 31  1  0
 30 32  1  0
 32 33  1  0
 34 32  2  0
M  END
$$$$
