RRR.pdb
     RDKit          3D

 34 33  0  0  1  0  0  0  0  0999 V2000
    5.0902  -12.3608   17.8833 N   0  0  0  0  0  0  0  0  0  0  0  0
    5.7730  -13.1851   16.9628 C   0  0  0  0  0  0  0  0  0  0  0  0
    5.2567  -13.3540   15.8060 N   0  0  0  0  0  0  0  0  0  0  0  0
    7.0035  -13.8307   17.2656 N   0  0  0  0  0  0  0  0  0  0  0  0
    7.6527  -13.5970   18.5380 C   0  0  0  0  0  0  0  0  0  0  0  0
    8.9286  -14.4033   18.5917 C   0  0  0  0  0  0  0  0  0  0  0  0
    9.1073  -15.0895   19.8994 C   0  0  0  0  0  0  0  0  0  0  0  0
   10.3699  -15.9167   19.8792 C   0  0  2  0  0  0  0  0  0  0  0  0
   10.0628  -17.0743   19.0429 N   0  0  0  0  0  0  0  0  0  0  0  0
   10.7302  -16.3545   21.2568 C   0  0  0  0  0  0  0  0  0  0  0  0
   10.1206  -17.3350   21.7466 O   0  0  0  0  0  0  0  0  0  0  0  0
    5.6459  -13.8974   15.0320 N   0  0  0  0  0  0  0  0  0  0  0  0
   15.0806  -14.0401   19.3732 C   0  0  0  0  0  0  0  0  0  0  0  0
   16.2715  -14.1639   20.1933 N   0  0  0  0  0  0  0  0  0  0  0  0
   17.3231  -13.5103   19.9160 N   0  0  0  0  0  0  0  0  0  0  0  0
   16.2810  -15.0184   21.3178 C   0  0  0  0  0  0  0  0  0  0  0  0
   15.3356  -15.1043   22.3416 C   0  0  0  0  0  0  0  0  0  0  0  0
   14.4284  -16.2708   22.4500 C   0  0  0  0  0  0  0  0  0  0  0  0
   13.5317  -15.9509   23.6625 C   0  0  2  0  0  0  0  0  0  0  0  0
   12.0718  -16.1284   23.3378 N   0  0  0  0  0  0  0  0  0  0  0  0
   11.7301  -15.7074   22.0224 C   0  0  0  0  0  0  0  0  0  0  0  0
   11.1502  -15.5460   24.3228 O   0  0  0  0  0  0  0  0  0  0  0  0
   11.6314  -14.8547   25.2619 N   0  0  0  0  0  0  0  0  0  0  0  0
   18.1694  -13.4994   20.4532 C   0  0  0  0  0  0  0  0  0  0  0  0
    5.6642  -22.2678   25.2165 N   0  0  0  0  0  0  0  0  0  0  0  0
    6.1817  -21.8036   26.4814 N   0  0  0  0  0  0  0  0  0  0  0  0
    5.9468  -22.4540   27.5682 C   0  0  0  0  0  0  0  0  0  0  0  0
    6.9592  -20.6236   26.5546 C   0  0  0  0  0  0  0  0  0  0  0  0
    7.2242  -19.7970   25.3401 C   0  0  0  0  0  0  0  0  0  0  0  0
    7.9680  -18.6210   25.8253 C   0  0  1  0  0  0  0  0  0  0  0  0
    8.5030  -17.5868   24.9724 N   0  0  0  0  0  0  0  0  0  0  0  0
    9.0560  -16.3069   25.4753 C   0  0  0  0  0  0  0  0  0  0  0  0
    9.7535  -15.7166   24.2793 O   0  0  0  0  0  0  0  0  0  0  0  0
   10.1092  -16.4548   26.4870 O   0  0  0  0  0  0  0  0  0  0  0  0
  1  2  1  0
  2  3  2  0
  4  2  1  0
  5  4  1  0
  6  5  1  0
  7  6  1  0
  8  7  1  0
  8  9  1  6
 10 20  1  0
 10  8  1  0
 11 10  2  0
 13 12  1  0
 14 13  2  0
 15 13  1  0
 16 15  1  0
 17 16  1  0
 17 18  1  0
 19 18  1  6
 19 20  1  0
 21 31  1  0
 21 19  1  0
 22 21  2  0
 23 24  1  0
 24 25  2  0
 26 27  1  0
 26 24  1  0
 27 28  1  0
 28 29  1  0
 30 29  1  1
 30 31  1  0
 30 32  1  0
 32 33  1  0
 34 32  2  0
M  END
$$$$
