RFQ.pdb
     RDKit          3D

 32 32  0  0  1  0  0  0  0  0999 V2000
    8.7943  -15.3533   16.0787 N   0  0  0  0  0  0  0  0  0  0  0  0
    8.2228  -14.0829   15.8196 C   0  0  0  0  0  0  0  0  0  0  0  0
    8.4885  -13.5280   14.6767 N   0  0  0  0  0  0  0  0  0  0  0  0
    7.3961  -13.4543   16.7800 N   0  0  0  0  0  0  0  0  0  0  0  0
    7.9520  -13.0102   18.0335 C   0  0  0  0  0  0  0  0  0  0  0  0
    7.0990  -13.4641   19.1961 C   0  0  0  0  0  0  0  0  0  0  0  0
    7.9261  -13.6210   20.4166 C   0  0  0  0  0  0  0  0  0  0  0  0
    8.1080  -15.0135   20.9033 C   0  0  2  0  0  0  0  0  0  0  0  0
    6.9618  -15.8436   20.8717 N   0  0  0  0  0  0  0  0  0  0  0  0
    8.5910  -14.9495   22.3224 C   0  0  0  0  0  0  0  0  0  0  0  0
    9.6028  -14.2579   22.6285 O   0  0  0  0  0  0  0  0  0  0  0  0
    8.1695  -12.5880   14.3963 N   0  0  0  0  0  0  0  0  0  0  0  0
    7.9414  -15.6528   23.3660 C   0  0  1  0  0  0  0  0  0  0  0  0
    8.3288  -15.5883   24.7528 C   0  0  0  0  0  0  0  0  0  0  0  0
    7.0837  -15.3753   25.5928 C   0  0  0  0  0  0  0  0  0  0  0  0
    6.9990  -13.9470   25.9784 C   0  0  0  0  0  0  0  0  0  0  0  0
    5.9873  -13.1584   25.4776 C   0  0  0  0  0  0  0  0  0  0  0  0
    5.8317  -11.8233   25.7813 C   0  0  0  0  0  0  0  0  0  0  0  0
    6.7303  -11.2351   26.6304 C   0  0  0  0  0  0  0  0  0  0  0  0
    7.7564  -11.9869   27.1534 C   0  0  0  0  0  0  0  0  0  0  0  0
    7.8920  -13.3265   26.8335 C   0  0  0  0  0  0  0  0  0  0  0  0
    9.0228  -16.8483   25.1236 O   0  0  0  0  0  0  0  0  0  0  0  0
    8.3459  -17.8729   25.4792 N   0  0  0  0  0  0  0  0  0  0  0  0
   14.4583  -16.4798   23.8788 C   0  0  0  0  0  0  0  0  0  0  0  0
   13.5417  -16.9986   22.9099 O   0  0  0  0  0  0  0  0  0  0  0  0
   13.7338  -16.6228   21.7406 C   0  0  0  0  0  0  0  0  0  0  0  0
   12.5055  -17.8858   23.3869 C   0  0  0  0  0  0  0  0  0  0  0  0
   12.4180  -18.2919   24.7935 C   0  0  2  0  0  0  0  0  0  0  0  0
   11.1079  -18.2484   25.4907 N   0  0  0  0  0  0  0  0  0  0  0  0
   10.4193  -16.9978   25.1102 C   0  0  0  0  0  0  0  0  0  0  0  0
   11.2481  -18.3210   26.9494 O   0  0  0  0  0  0  0  0  0  0  0  0
   10.8225  -17.4500   27.7394 O   0  0  0  0  0  0  0  0  0  0  0  0
  2  1  1  0
  2  3  2  0
  4  2  1  0
  5  4  1  0
  6  5  1  0
  7  6  1  0
  8  7  1  0
  8  9  1  1
 10 11  2  0
 10  8  1  0
 12 10  1  0
 13 21  1  0
 13 12  1  0
 13 14  1  1
 15 14  1  0
 16 15  2  0
 17 16  1  0
 18 19  1  0
 18 17  2  0
 19 20  2  0
 20 15  1  0
 21 29  1  0
 22 21  2  0
 23 24  1  0
 24 25  2  0
 24 26  1  0
 26 27  1  0
 28 27  1  6
 28 30  1  0
 29 28  1  0
 30 31  2  0
 30 32  1  0
M  END
$$$$
