RFQ.pdb
     RDKit          3D

 32 32  0  0  1  0  0  0  0  0999 V2000
   10.2672  -14.5521   15.1184 N   0  0  0  0  0  0  0  0  0  0  0  0
    8.8737  -14.5623   15.3751 C   0  0  0  0  0  0  0  0  0  0  0  0
    8.1943  -13.5093   15.0368 N   0  0  0  0  0  0  0  0  0  0  0  0
    8.2595  -15.6846   15.9785 N   0  0  0  0  0  0  0  0  0  0  0  0
    8.7795  -16.2175   17.2126 C   0  0  0  0  0  0  0  0  0  0  0  0
    9.4584  -15.1388   18.0256 C   0  0  0  0  0  0  0  0  0  0  0  0
   10.1830  -15.7333   19.1745 C   0  0  0  0  0  0  0  0  0  0  0  0
    9.3509  -16.4909   20.1454 C   0  0  2  0  0  0  0  0  0  0  0  0
    7.9833  -16.6446   19.8135 N   0  0  0  0  0  0  0  0  0  0  0  0
    9.4272  -15.7885   21.4690 C   0  0  0  0  0  0  0  0  0  0  0  0
   10.5419  -15.4399   21.9505 O   0  0  0  0  0  0  0  0  0  0  0  0
    7.1764  -13.4051   15.1673 N   0  0  0  0  0  0  0  0  0  0  0  0
    8.2677  -15.4902   22.2255 C   0  0  1  0  0  0  0  0  0  0  0  0
    8.2812  -14.8286   23.5059 C   0  0  0  0  0  0  0  0  0  0  0  0
    7.0374  -13.9675   23.6179 C   0  0  0  0  0  0  0  0  0  0  0  0
    7.0504  -13.2664   24.9233 C   0  0  0  0  0  0  0  0  0  0  0  0
    6.2376  -13.7019   25.9459 C   0  0  0  0  0  0  0  0  0  0  0  0
    6.1846  -13.1116   27.1900 C   0  0  0  0  0  0  0  0  0  0  0  0
    6.9831  -12.0269   27.4355 C   0  0  0  0  0  0  0  0  0  0  0  0
    7.8104  -11.5593   26.4413 C   0  0  0  0  0  0  0  0  0  0  0  0
    7.8462  -12.1690   25.1995 C   0  0  0  0  0  0  0  0  0  0  0  0
    8.3301  -15.8516   24.5820 O   0  0  0  0  0  0  0  0  0  0  0  0
    7.3919  -16.7132   24.6911 N   0  0  0  0  0  0  0  0  0  0  0  0
   13.3454  -18.8818   24.4637 C   0  0  0  0  0  0  0  0  0  0  0  0
   12.8179  -19.4845   25.6498 O   0  0  0  0  0  0  0  0  0  0  0  0
   13.4686  -20.4466   26.0926 C   0  0  0  0  0  0  0  0  0  0  0  0
   11.6033  -18.9221   26.1945 C   0  0  0  0  0  0  0  0  0  0  0  0
   10.9860  -17.7161   25.6327 C   0  0  1  0  0  0  0  0  0  0  0  0
    9.7287  -17.1912   26.2226 N   0  0  0  0  0  0  0  0  0  0  0  0
    9.3711  -15.9414   25.5204 C   0  0  0  0  0  0  0  0  0  0  0  0
    9.8489  -16.9412   27.6634 O   0  0  0  0  0  0  0  0  0  0  0  0
    9.6942  -17.8168   28.5427 O   0  0  0  0  0  0  0  0  0  0  0  0
  2  1  1  0
  2  3  2  0
  4  2  1  0
  5  4  1  0
  6  5  1  0
  7  6  1  0
  8  7  1  0
  8  9  1  6
 10 11  2  0
 10  8  1  0
 12 10  1  0
 13 21  1  0
 13 12  1  0
 13 14  1  6
 15 14  1  0
 16 15  2  0
 17 16  1  0
 18 19  1  0
 18 17  2  0
 19 20  2  0
 20 15  1  0
 21 29  1  0
 22 21  2  0
 23 24  1  0
 24 25  2  0
 24 26  1  0
 26 27  1  0
 28 27  1  6
 28 30  1  0
 29 28  1  0
 30 31  2  0
 30 32  1  0
M  END
$$$$
