RFQ.pdb
     RDKit          3D

 32 32  0  0  1  0  0  0  0  0999 V2000
   13.7014  -19.2492   18.4336 N   0  0  0  0  0  0  0  0  0  0  0  0
   13.1910  -20.5694   18.4987 C   0  0  0  0  0  0  0  0  0  0  0  0
   13.4332  -21.3558   17.4949 N   0  0  0  0  0  0  0  0  0  0  0  0
   12.4467  -21.0006   19.6217 N   0  0  0  0  0  0  0  0  0  0  0  0
   12.1564  -20.0815   20.6934 C   0  0  0  0  0  0  0  0  0  0  0  0
   11.4379  -18.8558   20.1769 C   0  0  0  0  0  0  0  0  0  0  0  0
   11.1492  -17.9170   21.2876 C   0  0  0  0  0  0  0  0  0  0  0  0
    9.9015  -17.1200   21.1566 C   0  0  2  0  0  0  0  0  0  0  0  0
    9.7209  -16.4346   19.9313 N   0  0  0  0  0  0  0  0  0  0  0  0
    9.8824  -16.1034   22.2599 C   0  0  0  0  0  0  0  0  0  0  0  0
   10.9594  -15.6223   22.7120 O   0  0  0  0  0  0  0  0  0  0  0  0
   13.1539  -22.3477   17.4502 N   0  0  0  0  0  0  0  0  0  0  0  0
    8.6715  -15.6455   22.8342 C   0  0  2  0  0  0  0  0  0  0  0  0
    8.5945  -14.7302   23.9449 C   0  0  0  0  0  0  0  0  0  0  0  0
    7.1913  -14.1565   24.0017 C   0  0  0  0  0  0  0  0  0  0  0  0
    7.1060  -13.1980   25.1286 C   0  0  0  0  0  0  0  0  0  0  0  0
    7.8252  -12.0244   25.0890 C   0  0  0  0  0  0  0  0  0  0  0  0
    7.8063  -11.0774   26.0900 C   0  0  0  0  0  0  0  0  0  0  0  0
    7.0300  -11.3062   27.1943 C   0  0  0  0  0  0  0  0  0  0  0  0
    6.2954  -12.4662   27.2742 C   0  0  0  0  0  0  0  0  0  0  0  0
    6.3306  -13.4026   26.2558 C   0  0  0  0  0  0  0  0  0  0  0  0
    8.9344  -15.4540   25.1968 O   0  0  0  0  0  0  0  0  0  0  0  0
    8.2877  -16.5068   25.5250 N   0  0  0  0  0  0  0  0  0  0  0  0
   14.0130  -16.3697   24.9862 C   0  0  0  0  0  0  0  0  0  0  0  0
   13.4649  -17.5653   25.5501 O   0  0  0  0  0  0  0  0  0  0  0  0
   13.9407  -18.6271   25.1126 C   0  0  0  0  0  0  0  0  0  0  0  0
   12.4310  -17.4133   26.5484 C   0  0  0  0  0  0  0  0  0  0  0  0
   11.9287  -16.0956   26.9513 C   0  0  2  0  0  0  0  0  0  0  0  0
   10.4728  -15.8985   27.1661 N   0  0  0  0  0  0  0  0  0  0  0  0
    9.9521  -15.0484   26.0757 C   0  0  0  0  0  0  0  0  0  0  0  0
   10.1775  -15.2852   28.4659 O   0  0  0  0  0  0  0  0  0  0  0  0
    9.7446  -14.1209   28.6102 O   0  0  0  0  0  0  0  0  0  0  0  0
  2  1  1  0
  2  3  2  0
  4  2  1  0
  5  4  1  0
  6  5  1  0
  7  6  1  0
  8  7  1  0
  8  9  1  6
 10 11  2  0
 10  8  1  0
 12 10  1  0
 13 21  1  0
 13 12  1  0
 13 14  1  6
 15 14  1  0
 16 15  2  0
 17 16  1  0
 18 19  1  0
 18 17  2  0
 19 20  2  0
 20 15  1  0
 21 29  1  0
 22 21  2  0
 23 24  1  0
 24 25  2  0
 24 26  1  0
 26 27  1  0
 28 27  1  6
 28 30  1  0
 29 28  1  0
 30 31  2  0
 30 32  1  0
M  END
$$$$
