RFQ.pdb
     RDKit          3D

 32 32  0  0  1  0  0  0  0  0999 V2000
    7.5189  -15.1284   16.5344 N   0  0  0  0  0  0  0  0  0  0  0  0
    8.3016  -13.9799   16.2585 C   0  0  0  0  0  0  0  0  0  0  0  0
    9.0071  -13.9831   15.1690 N   0  0  0  0  0  0  0  0  0  0  0  0
    8.3047  -12.8786   17.1463 N   0  0  0  0  0  0  0  0  0  0  0  0
    8.7675  -13.0431   18.5014 C   0  0  0  0  0  0  0  0  0  0  0  0
    7.6103  -13.2830   19.4442 C   0  0  0  0  0  0  0  0  0  0  0  0
    8.1009  -13.4707   20.8307 C   0  0  0  0  0  0  0  0  0  0  0  0
    8.4604  -14.8623   21.2096 C   0  0  2  0  0  0  0  0  0  0  0  0
    7.4365  -15.8314   21.0819 N   0  0  0  0  0  0  0  0  0  0  0  0
    8.9086  -14.8521   22.6414 C   0  0  0  0  0  0  0  0  0  0  0  0
    9.8997  -14.1566   23.0018 O   0  0  0  0  0  0  0  0  0  0  0  0
    9.6545  -13.2297   14.8910 N   0  0  0  0  0  0  0  0  0  0  0  0
    8.2482  -15.6122   23.6373 C   0  0  1  0  0  0  0  0  0  0  0  0
    8.6490  -15.6609   25.0209 C   0  0  0  0  0  0  0  0  0  0  0  0
    7.4173  -15.4784   25.8873 C   0  0  0  0  0  0  0  0  0  0  0  0
    7.2231  -14.0337   26.1540 C   0  0  0  0  0  0  0  0  0  0  0  0
    6.3545  -13.3016   25.3758 C   0  0  0  0  0  0  0  0  0  0  0  0
    6.1127  -11.9563   25.5515 C   0  0  0  0  0  0  0  0  0  0  0  0
    6.7696  -11.2980   26.5563 C   0  0  0  0  0  0  0  0  0  0  0  0
    7.6463  -11.9919   27.3572 C   0  0  0  0  0  0  0  0  0  0  0  0
    7.8726  -13.3431   27.1613 C   0  0  0  0  0  0  0  0  0  0  0  0
    9.3122  -16.9625   25.2902 O   0  0  0  0  0  0  0  0  0  0  0  0
    9.0056  -17.6351   26.3333 N   0  0  0  0  0  0  0  0  0  0  0  0
   12.8672  -20.2605   21.0685 C   0  0  0  0  0  0  0  0  0  0  0  0
   13.1438  -20.9362   22.2994 O   0  0  0  0  0  0  0  0  0  0  0  0
   13.9448  -21.8833   22.2184 C   0  0  0  0  0  0  0  0  0  0  0  0
   12.4704  -20.4560   23.4844 C   0  0  0  0  0  0  0  0  0  0  0  0
   11.6038  -19.2730   23.4593 C   0  0  1  0  0  0  0  0  0  0  0  0
   10.9230  -18.8344   24.7037 N   0  0  0  0  0  0  0  0  0  0  0  0
   10.2865  -17.5255   24.4498 C   0  0  0  0  0  0  0  0  0  0  0  0
   11.8459  -18.7323   25.8397 O   0  0  0  0  0  0  0  0  0  0  0  0
   11.9743  -19.6106   26.7206 O   0  0  0  0  0  0  0  0  0  0  0  0
  2  1  1  0
  2  3  2  0
  4  2  1  0
  5  4  1  0
  6  5  1  0
  7  6  1  0
  8  7  1  0
  8  9  1  1
 10 11  2  0
 10  8  1  0
 12 10  1  0
 13 21  1  0
 13 12  1  0
 13 14  1  1
 15 14  1  0
 16 15  2  0
 17 16  1  0
 18 19  1  0
 18 17  2  0
 19 20  2  0
 20 15  1  0
 21 29  1  0
 22 21  2  0
 23 24  1  0
 24 25  2  0
 24 26  1  0
 26 27  1  0
 28 27  1  6
 28 30  1  0
 29 28  1  0
 30 31  2  0
 30 32  1  0
M  END
$$$$
