RFQ.pdb
     RDKit          3D

 32 32  0  0  1  0  0  0  0  0999 V2000
    8.3560  -22.2200   20.1443 N   0  0  0  0  0  0  0  0  0  0  0  0
    9.6916  -21.8652   20.4573 C   0  0  0  0  0  0  0  0  0  0  0  0
   10.3847  -22.7046   21.1644 N   0  0  0  0  0  0  0  0  0  0  0  0
   10.2361  -20.6387   20.0099 N   0  0  0  0  0  0  0  0  0  0  0  0
    9.3800  -19.6382   19.4237 C   0  0  0  0  0  0  0  0  0  0  0  0
    8.8563  -18.6882   20.4766 C   0  0  0  0  0  0  0  0  0  0  0  0
    7.9895  -17.6558   19.8592 C   0  0  0  0  0  0  0  0  0  0  0  0
    8.5895  -16.3034   19.7184 C   0  0  2  0  0  0  0  0  0  0  0  0
    9.7992  -16.2270   18.9872 N   0  0  0  0  0  0  0  0  0  0  0  0
    8.8489  -15.7654   21.0948 C   0  0  0  0  0  0  0  0  0  0  0  0
    9.9804  -15.9051   21.6389 O   0  0  0  0  0  0  0  0  0  0  0  0
   11.3507  -22.5386   21.4855 N   0  0  0  0  0  0  0  0  0  0  0  0
    7.8491  -15.0868   21.8333 C   0  0  2  0  0  0  0  0  0  0  0  0
    8.0400  -14.5524   23.1583 C   0  0  0  0  0  0  0  0  0  0  0  0
    6.7906  -13.7897   23.5561 C   0  0  0  0  0  0  0  0  0  0  0  0
    6.9910  -13.2012   24.9013 C   0  0  0  0  0  0  0  0  0  0  0  0
    7.7895  -12.0898   25.0536 C   0  0  0  0  0  0  0  0  0  0  0  0
    8.0316  -11.4774   26.2642 C   0  0  0  0  0  0  0  0  0  0  0  0
    7.4489  -11.9961   27.3893 C   0  0  0  0  0  0  0  0  0  0  0  0
    6.6437  -13.1060   27.2817 C   0  0  0  0  0  0  0  0  0  0  0  0
    6.4155  -13.7036   26.0545 C   0  0  0  0  0  0  0  0  0  0  0  0
    8.3149  -15.6691   24.0986 O   0  0  0  0  0  0  0  0  0  0  0  0
    7.5418  -16.6868   24.1297 N   0  0  0  0  0  0  0  0  0  0  0  0
   14.1901  -18.2085   26.0795 C   0  0  0  0  0  0  0  0  0  0  0  0
   13.0534  -18.9558   25.6352 O   0  0  0  0  0  0  0  0  0  0  0  0
   13.3114  -19.9601   24.9496 C   0  0  0  0  0  0  0  0  0  0  0  0
   11.7486  -18.4690   26.0212 C   0  0  0  0  0  0  0  0  0  0  0  0
   11.1063  -17.3425   25.3358 C   0  0  1  0  0  0  0  0  0  0  0  0
    9.7772  -16.8650   25.7939 N   0  0  0  0  0  0  0  0  0  0  0  0
    9.4027  -15.6854   24.9869 C   0  0  0  0  0  0  0  0  0  0  0  0
    9.7678  -16.5213   27.2203 O   0  0  0  0  0  0  0  0  0  0  0  0
   10.0596  -15.3923   27.6719 O   0  0  0  0  0  0  0  0  0  0  0  0
  2  1  1  0
  2  3  2  0
  4  2  1  0
  5  4  1  0
  6  5  1  0
  7  6  1  0
  8  7  1  0
  8  9  1  6
 10 11  2  0
 10  8  1  0
 12 10  1  0
 13 21  1  0
 13 12  1  0
 13 14  1  6
 15 14  1  0
 16 15  2  0
 17 16  1  0
 18 19  1  0
 18 17  2  0
 19 20  2  0
 20 15  1  0
 21 29  1  0
 22 21  2  0
 23 24  1  0
 24 25  2  0
 24 26  1  0
 26 27  1  0
 28 27  1  6
 28 30  1  0
 29 28  1  0
 30 31  2  0
 30 32  1  0
M  END
$$$$
