RFQ.pdb
     RDKit          3D

 32 32  0  0  1  0  0  0  0  0999 V2000
    7.9160  -13.1697   15.8335 N   0  0  0  0  0  0  0  0  0  0  0  0
    8.6793  -13.4568   16.9922 C   0  0  0  0  0  0  0  0  0  0  0  0
    9.2018  -12.4540   17.6294 N   0  0  0  0  0  0  0  0  0  0  0  0
    8.8573  -14.7913   17.4265 N   0  0  0  0  0  0  0  0  0  0  0  0
    8.0413  -15.3209   18.4901 C   0  0  0  0  0  0  0  0  0  0  0  0
    7.7498  -14.2617   19.5286 C   0  0  0  0  0  0  0  0  0  0  0  0
    6.9862  -14.8406   20.6601 C   0  0  0  0  0  0  0  0  0  0  0  0
    7.5922  -16.0315   21.3108 C   0  0  2  0  0  0  0  0  0  0  0  0
    6.7174  -17.1107   21.5828 N   0  0  0  0  0  0  0  0  0  0  0  0
    8.1985  -15.5916   22.6108 C   0  0  0  0  0  0  0  0  0  0  0  0
    9.0964  -14.7033   22.6355 O   0  0  0  0  0  0  0  0  0  0  0  0
    9.8430  -12.5433   18.4324 N   0  0  0  0  0  0  0  0  0  0  0  0
    7.7954  -16.1465   23.8499 C   0  0  1  0  0  0  0  0  0  0  0  0
    8.4510  -15.8881   25.1072 C   0  0  0  0  0  0  0  0  0  0  0  0
    7.3989  -15.5055   26.1309 C   0  0  0  0  0  0  0  0  0  0  0  0
    7.1640  -14.0441   26.0600 C   0  0  0  0  0  0  0  0  0  0  0  0
    5.9129  -13.5634   25.7441 C   0  0  0  0  0  0  0  0  0  0  0  0
    5.6044  -12.2232   25.6557 C   0  0  0  0  0  0  0  0  0  0  0  0
    6.5925  -11.3059   25.8939 C   0  0  0  0  0  0  0  0  0  0  0  0
    7.8568  -11.7436   26.2126 C   0  0  0  0  0  0  0  0  0  0  0  0
    8.1425  -13.0951   26.2955 C   0  0  0  0  0  0  0  0  0  0  0  0
    9.1971  -17.1026   25.5258 O   0  0  0  0  0  0  0  0  0  0  0  0
    8.5875  -18.2196   25.6485 N   0  0  0  0  0  0  0  0  0  0  0  0
   15.2571  -18.0205   24.1491 C   0  0  0  0  0  0  0  0  0  0  0  0
   14.9832  -19.1738   24.9510 O   0  0  0  0  0  0  0  0  0  0  0  0
   15.9122  -19.9953   25.0368 C   0  0  0  0  0  0  0  0  0  0  0  0
   13.6764  -19.2608   25.5617 C   0  0  0  0  0  0  0  0  0  0  0  0
   12.6682  -18.2093   25.3910 C   0  0  1  0  0  0  0  0  0  0  0  0
   11.3472  -18.3432   26.0555 N   0  0  0  0  0  0  0  0  0  0  0  0
   10.5734  -17.1095   25.8060 C   0  0  0  0  0  0  0  0  0  0  0  0
   11.4686  -18.5768   27.4989 O   0  0  0  0  0  0  0  0  0  0  0  0
   11.1552  -17.7401   28.3739 O   0  0  0  0  0  0  0  0  0  0  0  0
  2  1  1  0
  2  3  2  0
  4  2  1  0
  5  4  1  0
  6  5  1  0
  7  6  1  0
  8  7  1  0
  8  9  1  1
 10 11  2  0
 10  8  1  0
 12 10  1  0
 13 21  1  0
 13 12  1  0
 13 14  1  1
 15 14  1  0
 16 15  2  0
 17 16  1  0
 18 19  1  0
 18 17  2  0
 19 20  2  0
 20 15  1  0
 21 29  1  0
 22 21  2  0
 23 24  1  0
 24 25  2  0
 24 26  1  0
 26 27  1  0
 28 27  1  6
 28 30  1  0
 29 28  1  0
 30 31  2  0
 30 32  1  0
M  END
$$$$
