RFQ.pdb
     RDKit          3D

 32 32  0  0  1  0  0  0  0  0999 V2000
   10.7775  -21.5187   19.8403 N   0  0  0  0  0  0  0  0  0  0  0  0
   10.1935  -21.7866   18.5774 C   0  0  0  0  0  0  0  0  0  0  0  0
   10.5625  -22.8694   17.9641 N   0  0  0  0  0  0  0  0  0  0  0  0
    9.2456  -20.8982   18.0178 N   0  0  0  0  0  0  0  0  0  0  0  0
    8.4724  -20.0328   18.8727 C   0  0  0  0  0  0  0  0  0  0  0  0
    9.3541  -19.0035   19.5424 C   0  0  0  0  0  0  0  0  0  0  0  0
    8.5424  -18.0976   20.3903 C   0  0  0  0  0  0  0  0  0  0  0  0
    8.5593  -16.6615   20.0078 C   0  0  2  0  0  0  0  0  0  0  0  0
    9.4711  -16.2945   18.9891 N   0  0  0  0  0  0  0  0  0  0  0  0
    8.8894  -15.8593   21.2320 C   0  0  0  0  0  0  0  0  0  0  0  0
   10.0901  -15.6824   21.5824 O   0  0  0  0  0  0  0  0  0  0  0  0
   10.2081  -23.1674   17.0423 N   0  0  0  0  0  0  0  0  0  0  0  0
    7.8818  -15.2736   22.0366 C   0  0  1  0  0  0  0  0  0  0  0  0
    8.1352  -14.5522   23.2584 C   0  0  0  0  0  0  0  0  0  0  0  0
    6.8390  -13.9137   23.7201 C   0  0  0  0  0  0  0  0  0  0  0  0
    7.0773  -13.2063   25.0002 C   0  0  0  0  0  0  0  0  0  0  0  0
    6.4625  -13.6433   26.1522 C   0  0  0  0  0  0  0  0  0  0  0  0
    6.6259  -13.0475   27.3840 C   0  0  0  0  0  0  0  0  0  0  0  0
    7.4461  -11.9555   27.4804 C   0  0  0  0  0  0  0  0  0  0  0  0
    8.0799  -11.4861   26.3536 C   0  0  0  0  0  0  0  0  0  0  0  0
    7.9000  -12.1014   25.1272 C   0  0  0  0  0  0  0  0  0  0  0  0
    8.6685  -15.4924   24.2773 O   0  0  0  0  0  0  0  0  0  0  0  0
    8.0824  -16.6086   24.4894 N   0  0  0  0  0  0  0  0  0  0  0  0
   15.2522  -17.6029   26.5807 C   0  0  0  0  0  0  0  0  0  0  0  0
   14.2845  -17.2708   25.5800 O   0  0  0  0  0  0  0  0  0  0  0  0
   14.7430  -17.0688   24.4424 C   0  0  0  0  0  0  0  0  0  0  0  0
   12.9013  -17.2028   25.9929 C   0  0  0  0  0  0  0  0  0  0  0  0
   11.9406  -16.3044   25.3441 C   0  0  1  0  0  0  0  0  0  0  0  0
   10.5326  -16.2712   25.8140 N   0  0  0  0  0  0  0  0  0  0  0  0
    9.8114  -15.2317   25.0509 C   0  0  0  0  0  0  0  0  0  0  0  0
   10.4294  -16.0009   27.2524 O   0  0  0  0  0  0  0  0  0  0  0  0
   10.3577  -14.8548   27.7475 O   0  0  0  0  0  0  0  0  0  0  0  0
  2  1  1  0
  2  3  2  0
  4  2  1  0
  5  4  1  0
  6  5  1  0
  7  6  1  0
  8  7  1  0
  8  9  1  6
 10 11  2  0
 10  8  1  0
 12 10  1  0
 13 21  1  0
 13 12  1  0
 13 14  1  1
 15 14  1  0
 16 15  2  0
 17 16  1  0
 18 19  1  0
 18 17  2  0
 19 20  2  0
 20 15  1  0
 21 29  1  0
 22 21  2  0
 23 24  1  0
 24 25  2  0
 24 26  1  0
 26 27  1  0
 28 27  1  6
 28 30  1  0
 29 28  1  0
 30 31  2  0
 30 32  1  0
M  END
$$$$
