RFQ.pdb
     RDKit          3D

 32 32  0  0  1  0  0  0  0  0999 V2000
   13.6141  -18.5094   13.9299 N   0  0  0  0  0  0  0  0  0  0  0  0
   12.3848  -18.5660   14.6323 C   0  0  0  0  0  0  0  0  0  0  0  0
   11.3170  -18.8466   13.9498 N   0  0  0  0  0  0  0  0  0  0  0  0
   12.3378  -18.3230   16.0250 N   0  0  0  0  0  0  0  0  0  0  0  0
   11.1303  -18.5897   16.7655 C   0  0  0  0  0  0  0  0  0  0  0  0
   10.0647  -17.5640   16.4528 C   0  0  0  0  0  0  0  0  0  0  0  0
    9.5516  -16.9513   17.7017 C   0  0  0  0  0  0  0  0  0  0  0  0
    9.8979  -17.6589   18.9621 C   0  0  2  0  0  0  0  0  0  0  0  0
    8.8803  -18.4623   19.5302 N   0  0  0  0  0  0  0  0  0  0  0  0
   10.2926  -16.6287   19.9790 C   0  0  0  0  0  0  0  0  0  0  0  0
   11.2802  -15.8677   19.7760 O   0  0  0  0  0  0  0  0  0  0  0  0
   10.3767  -18.9607   14.3582 N   0  0  0  0  0  0  0  0  0  0  0  0
    9.5838  -16.4676   21.1945 C   0  0  1  0  0  0  0  0  0  0  0  0
    9.9381  -15.5210   22.2220 C   0  0  0  0  0  0  0  0  0  0  0  0
    8.6652  -14.9065   22.7725 C   0  0  0  0  0  0  0  0  0  0  0  0
    7.9457  -14.2192   21.6744 C   0  0  0  0  0  0  0  0  0  0  0  0
    8.4229  -13.0255   21.1810 C   0  0  0  0  0  0  0  0  0  0  0  0
    7.8196  -12.3183   20.1637 C   0  0  0  0  0  0  0  0  0  0  0  0
    6.6772  -12.8228   19.6025 C   0  0  0  0  0  0  0  0  0  0  0  0
    6.1665  -14.0128   20.0657 C   0  0  0  0  0  0  0  0  0  0  0  0
    6.7904  -14.7051   21.0889 C   0  0  0  0  0  0  0  0  0  0  0  0
   10.7051  -16.2204   23.2847 O   0  0  0  0  0  0  0  0  0  0  0  0
   11.0291  -15.6010   24.3552 N   0  0  0  0  0  0  0  0  0  0  0  0
   10.4960  -22.4241   24.3062 C   0  0  0  0  0  0  0  0  0  0  0  0
   11.4555  -22.0235   23.3229 O   0  0  0  0  0  0  0  0  0  0  0  0
   11.8083  -22.9134   22.5299 C   0  0  0  0  0  0  0  0  0  0  0  0
   11.9072  -20.6513   23.3588 C   0  0  0  0  0  0  0  0  0  0  0  0
   11.3542  -19.6764   24.3048 C   0  0  1  0  0  0  0  0  0  0  0  0
   11.8297  -18.2702   24.2727 N   0  0  0  0  0  0  0  0  0  0  0  0
   11.1135  -17.5610   23.1924 C   0  0  0  0  0  0  0  0  0  0  0  0
   13.2786  -18.1746   24.0619 O   0  0  0  0  0  0  0  0  0  0  0  0
   14.1323  -18.3850   24.9511 O   0  0  0  0  0  0  0  0  0  0  0  0
  2  1  1  0
  2  3  2  0
  4  2  1  0
  5  4  1  0
  6  5  1  0
  7  6  1  0
  8  7  1  0
  8  9  1  1
 10 11  2  0
 10  8  1  0
 12 10  1  0
 13 21  1  0
 13 12  1  0
 13 14  1  6
 15 14  1  0
 16 15  2  0
 17 16  1  0
 18 19  1  0
 18 17  2  0
 19 20  2  0
 20 15  1  0
 21 29  1  0
 22 21  2  0
 23 24  1  0
 24 25  2  0
 24 26  1  0
 26 27  1  0
 28 27  1  1
 28 30  1  0
 29 28  1  0
 30 31  2  0
 30 32  1  0
M  END
$$$$
