RFQ.pdb
     RDKit          3D

 32 32  0  0  1  0  0  0  0  0999 V2000
    7.4420  -15.4219   15.8735 N   0  0  0  0  0  0  0  0  0  0  0  0
    8.0520  -14.1882   15.5365 C   0  0  0  0  0  0  0  0  0  0  0  0
    8.7782  -14.1528   14.4612 N   0  0  0  0  0  0  0  0  0  0  0  0
    7.8684  -13.0463   16.3508 N   0  0  0  0  0  0  0  0  0  0  0  0
    8.3545  -13.0396   17.7077 C   0  0  0  0  0  0  0  0  0  0  0  0
    7.2466  -13.3693   18.6821 C   0  0  0  0  0  0  0  0  0  0  0  0
    7.7837  -13.4831   20.0594 C   0  0  0  0  0  0  0  0  0  0  0  0
    8.0396  -14.8644   20.5447 C   0  0  2  0  0  0  0  0  0  0  0  0
    6.9105  -15.7120   20.6483 N   0  0  0  0  0  0  0  0  0  0  0  0
    8.6701  -14.7697   21.9028 C   0  0  0  0  0  0  0  0  0  0  0  0
    9.7030  -14.0658   22.0864 O   0  0  0  0  0  0  0  0  0  0  0  0
    9.1918  -13.2951   14.0646 N   0  0  0  0  0  0  0  0  0  0  0  0
    8.1412  -15.4566   23.0227 C   0  0  1  0  0  0  0  0  0  0  0  0
    8.6594  -15.3451   24.3630 C   0  0  0  0  0  0  0  0  0  0  0  0
    7.4950  -15.3723   25.3349 C   0  0  0  0  0  0  0  0  0  0  0  0
    7.1028  -13.9805   25.6589 C   0  0  0  0  0  0  0  0  0  0  0  0
    5.8911  -13.4893   25.2268 C   0  0  0  0  0  0  0  0  0  0  0  0
    5.4457  -12.2102   25.4810 C   0  0  0  0  0  0  0  0  0  0  0  0
    6.2469  -11.3689   26.2052 C   0  0  0  0  0  0  0  0  0  0  0  0
    7.4656  -11.8196   26.6562 C   0  0  0  0  0  0  0  0  0  0  0  0
    7.8914  -13.1088   26.3881 C   0  0  0  0  0  0  0  0  0  0  0  0
    9.6015  -16.4656   24.6155 O   0  0  0  0  0  0  0  0  0  0  0  0
    9.2041  -17.6755   24.5034 N   0  0  0  0  0  0  0  0  0  0  0  0
   16.8486  -18.0628   24.2865 C   0  0  0  0  0  0  0  0  0  0  0  0
   15.7486  -17.1494   24.2267 O   0  0  0  0  0  0  0  0  0  0  0  0
   16.0392  -15.9871   23.8952 C   0  0  0  0  0  0  0  0  0  0  0  0
   14.4399  -17.6661   24.5565 C   0  0  0  0  0  0  0  0  0  0  0  0
   13.2417  -16.8207   24.5284 C   0  0  1  0  0  0  0  0  0  0  0  0
   11.9426  -17.3720   24.9899 N   0  0  0  0  0  0  0  0  0  0  0  0
   10.9450  -16.2821   24.9814 C   0  0  0  0  0  0  0  0  0  0  0  0
   12.0303  -17.9622   26.3303 O   0  0  0  0  0  0  0  0  0  0  0  0
   11.6206  -17.4034   27.3713 O   0  0  0  0  0  0  0  0  0  0  0  0
  2  1  1  0
  2  3  2  0
  4  2  1  0
  5  4  1  0
  6  5  1  0
  7  6  1  0
  8  7  1  0
  8  9  1  1
 10 11  2  0
 10  8  1  0
 12 10  1  0
 13 21  1  0
 13 12  1  0
 13 14  1  1
 15 14  1  0
 16 15  2  0
 17 16  1  0
 18 19  1  0
 18 17  2  0
 19 20  2  0
 20 15  1  0
 21 29  1  0
 22 21  2  0
 23 24  1  0
 24 25  2  0
 24 26  1  0
 26 27  1  0
 28 27  1  6
 28 30  1  0
 29 28  1  0
 30 31  2  0
 30 32  1  0
M  END
$$$$
