RFQ.pdb
     RDKit          3D

 32 32  0  0  1  0  0  0  0  0999 V2000
    5.8184  -18.6720   17.2265 N   0  0  0  0  0  0  0  0  0  0  0  0
    6.6111  -18.4676   16.0700 C   0  0  0  0  0  0  0  0  0  0  0  0
    6.0203  -18.5462   14.9169 N   0  0  0  0  0  0  0  0  0  0  0  0
    7.9935  -18.1898   16.1826 N   0  0  0  0  0  0  0  0  0  0  0  0
    8.5994  -18.0486   17.4828 C   0  0  0  0  0  0  0  0  0  0  0  0
    8.7741  -16.5912   17.8443 C   0  0  0  0  0  0  0  0  0  0  0  0
    9.6961  -16.4492   18.9968 C   0  0  0  0  0  0  0  0  0  0  0  0
    9.2802  -17.1329   20.2492 C   0  0  2  0  0  0  0  0  0  0  0  0
    7.9548  -17.6288   20.2826 N   0  0  0  0  0  0  0  0  0  0  0  0
    9.4368  -16.1615   21.3820 C   0  0  0  0  0  0  0  0  0  0  0  0
   10.5690  -15.6775   21.6643 O   0  0  0  0  0  0  0  0  0  0  0  0
    6.5094  -18.5365   14.0088 N   0  0  0  0  0  0  0  0  0  0  0  0
    8.3362  -15.7511   22.1730 C   0  0  1  0  0  0  0  0  0  0  0  0
    8.4451  -14.9315   23.3536 C   0  0  0  0  0  0  0  0  0  0  0  0
    7.0957  -14.2943   23.6255 C   0  0  0  0  0  0  0  0  0  0  0  0
    7.2003  -13.4345   24.8279 C   0  0  0  0  0  0  0  0  0  0  0  0
    6.5226  -13.7744   25.9774 C   0  0  0  0  0  0  0  0  0  0  0  0
    6.5619  -13.0351   27.1398 C   0  0  0  0  0  0  0  0  0  0  0  0
    7.3163  -11.8929   27.1650 C   0  0  0  0  0  0  0  0  0  0  0  0
    8.0093  -11.5169   26.0381 C   0  0  0  0  0  0  0  0  0  0  0  0
    7.9543  -12.2759   24.8822 C   0  0  0  0  0  0  0  0  0  0  0  0
    8.8845  -15.7762   24.4939 O   0  0  0  0  0  0  0  0  0  0  0  0
    8.2495  -16.8481   24.7802 N   0  0  0  0  0  0  0  0  0  0  0  0
   14.9441  -16.3457   24.8326 C   0  0  0  0  0  0  0  0  0  0  0  0
   14.5865  -17.1595   25.9541 O   0  0  0  0  0  0  0  0  0  0  0  0
   15.5326  -17.7398   26.5140 C   0  0  0  0  0  0  0  0  0  0  0  0
   13.1867  -17.2221   26.3076 C   0  0  0  0  0  0  0  0  0  0  0  0
   12.1779  -16.3991   25.6321 C   0  0  1  0  0  0  0  0  0  0  0  0
   10.7569  -16.4853   26.0539 N   0  0  0  0  0  0  0  0  0  0  0  0
    9.9872  -15.4687   25.3075 C   0  0  0  0  0  0  0  0  0  0  0  0
   10.5890  -16.2829   27.4973 O   0  0  0  0  0  0  0  0  0  0  0  0
   10.4749  -15.1621   28.0401 O   0  0  0  0  0  0  0  0  0  0  0  0
  2  1  1  0
  2  3  2  0
  4  2  1  0
  5  4  1  0
  6  5  1  0
  7  6  1  0
  8  7  1  0
  8  9  1  6
 10 11  2  0
 10  8  1  0
 12 10  1  0
 13 21  1  0
 13 12  1  0
 13 14  1  6
 15 14  1  0
 16 15  2  0
 17 16  1  0
 18 19  1  0
 18 17  2  0
 19 20  2  0
 20 15  1  0
 21 29  1  0
 22 21  2  0
 23 24  1  0
 24 25  2  0
 24 26  1  0
 26 27  1  0
 28 27  1  6
 28 30  1  0
 29 28  1  0
 30 31  2  0
 30 32  1  0
M  END
$$$$
