FNS.pdb
     RDKit          3D

 26 26  0  0  1  0  0  0  0  0999 V2000
   29.5581  -19.7783  -12.9495 N   0  0  0  0  0  0  0  0  0  0  0  0
   28.4548  -20.7018  -12.7862 C   0  0  1  0  0  0  0  0  0  0  0  0
   28.2258  -21.0034  -11.3093 C   0  0  0  0  0  0  0  0  0  0  0  0
   29.4835  -21.5202  -10.6880 C   0  0  0  0  0  0  0  0  0  0  0  0
   30.3932  -22.2516  -11.4279 C   0  0  0  0  0  0  0  0  0  0  0  0
   31.5531  -22.7264  -10.8489 C   0  0  0  0  0  0  0  0  0  0  0  0
   31.8556  -22.4948   -9.5158 C   0  0  0  0  0  0  0  0  0  0  0  0
   30.9504  -21.7649   -8.7724 C   0  0  0  0  0  0  0  0  0  0  0  0
   29.7845  -21.2897   -9.3612 C   0  0  0  0  0  0  0  0  0  0  0  0
   27.2258  -20.0460  -13.2928 C   0  0  0  0  0  0  0  0  0  0  0  0
   27.2255  -18.8304  -13.5529 O   0  0  0  0  0  0  0  0  0  0  0  0
   23.8144  -18.0862  -16.2941 N   0  0  0  0  0  0  0  0  0  0  0  0
   23.7931  -19.4980  -16.1200 C   0  0  0  0  0  0  0  0  0  0  0  0
   22.7533  -20.1062  -16.4829 O   0  0  0  0  0  0  0  0  0  0  0  0
   24.9774  -20.1531  -15.5316 C   0  0  0  0  0  0  0  0  0  0  0  0
   24.8653  -20.1916  -14.0259 C   0  0  2  0  0  0  0  0  0  0  0  0
   26.0238  -20.8197  -13.4855 N   0  0  0  0  0  0  0  0  0  0  0  0
   23.6191  -20.8564  -13.5746 C   0  0  0  0  0  0  0  0  0  0  0  0
   23.5758  -22.1048  -13.5851 O   0  0  0  0  0  0  0  0  0  0  0  0
   20.5949  -18.5291  -12.4118 O   0  0  0  0  0  0  0  0  0  0  0  0
   20.3876  -19.8231  -11.8880 C   0  0  0  0  0  0  0  0  0  0  0  0
   21.2672  -20.7629  -12.6784 C   0  0  2  0  0  0  0  0  0  0  0  0
   22.4772  -20.1395  -13.1329 N   0  0  0  0  0  0  0  0  0  0  0  0
   20.5049  -21.3905  -13.7922 C   0  0  0  0  0  0  0  0  0  0  0  0
   20.8207  -21.2560  -14.9929 O   0  0  0  0  0  0  0  0  0  0  0  0
   19.3969  -22.1565  -13.4770 O   0  0  0  0  0  0  0  0  0  0  0  0
  2  1  1  1
  2 10  1  0
  3  2  1  0
  3  4  1  0
  4  5  2  0
  4  9  1  0
  5  6  1  0
  6  7  2  0
  8  7  1  0
  9  8  2  0
 10 11  2  0
 13 12  1  0
 14 13  2  0
 15 13  1  0
 16 15  1  6
 16 18  1  0
 17 16  1  0
 17 10  1  0
 18 23  1  0
 19 18  2  0
 21 20  1  0
 22 21  1  6
 23 22  1  0
 24 26  1  0
 24 22  1  0
 25 24  2  0
M  END
$$$$
