FNS.pdb
     RDKit          3D

 26 26  0  0  1  0  0  0  0  0999 V2000
   28.0491  -21.6178  -14.5313 N   0  0  0  0  0  0  0  0  0  0  0  0
   26.9367  -21.3368  -13.6478 C   0  0  1  0  0  0  0  0  0  0  0  0
   27.2584  -20.1504  -12.7458 C   0  0  0  0  0  0  0  0  0  0  0  0
   28.2987  -20.5331  -11.7427 C   0  0  0  0  0  0  0  0  0  0  0  0
   29.6412  -20.5204  -12.0709 C   0  0  0  0  0  0  0  0  0  0  0  0
   30.5975  -20.8748  -11.1405 C   0  0  0  0  0  0  0  0  0  0  0  0
   30.2606  -21.2549   -9.8505 C   0  0  0  0  0  0  0  0  0  0  0  0
   28.9213  -21.2692   -9.5175 C   0  0  0  0  0  0  0  0  0  0  0  0
   27.9633  -20.9114  -10.4588 C   0  0  0  0  0  0  0  0  0  0  0  0
   25.7734  -20.9486  -14.4803 C   0  0  0  0  0  0  0  0  0  0  0  0
   25.9456  -20.3768  -15.5706 O   0  0  0  0  0  0  0  0  0  0  0  0
   21.3641  -22.6620  -17.4189 N   0  0  0  0  0  0  0  0  0  0  0  0
   22.1672  -21.5983  -16.9213 C   0  0  0  0  0  0  0  0  0  0  0  0
   21.8786  -20.4342  -17.3011 O   0  0  0  0  0  0  0  0  0  0  0  0
   23.2752  -21.9228  -16.0021 C   0  0  0  0  0  0  0  0  0  0  0  0
   23.3280  -20.9271  -14.8676 C   0  0  2  0  0  0  0  0  0  0  0  0
   24.4347  -21.2343  -14.0254 N   0  0  0  0  0  0  0  0  0  0  0  0
   22.0560  -20.8779  -14.1070 C   0  0  0  0  0  0  0  0  0  0  0  0
   21.8503  -21.7521  -13.2387 O   0  0  0  0  0  0  0  0  0  0  0  0
   18.8747  -17.9027  -12.1918 O   0  0  0  0  0  0  0  0  0  0  0  0
   19.8204  -18.0785  -13.2245 C   0  0  0  0  0  0  0  0  0  0  0  0
   20.0343  -19.5662  -13.3755 C   0  0  2  0  0  0  0  0  0  0  0  0
   21.0655  -19.8851  -14.3211 N   0  0  0  0  0  0  0  0  0  0  0  0
   18.7527  -20.2563  -13.6866 C   0  0  0  0  0  0  0  0  0  0  0  0
   17.7799  -20.2695  -12.9036 O   0  0  0  0  0  0  0  0  0  0  0  0
   18.6397  -20.9114  -14.8998 O   0  0  0  0  0  0  0  0  0  0  0  0
  2  1  1  6
  2 10  1  0
  3  2  1  0
  3  4  1  0
  4  5  2  0
  4  9  1  0
  5  6  1  0
  6  7  2  0
  8  7  1  0
  9  8  2  0
 10 11  2  0
 13 12  1  0
 14 13  2  0
 15 13  1  0
 16 15  1  6
 16 18  1  0
 17 16  1  0
 17 10  1  0
 18 23  1  0
 19 18  2  0
 21 20  1  0
 22 21  1  6
 23 22  1  0
 24 26  1  0
 24 22  1  0
 25 24  2  0
M  END
$$$$
