FNS.pdb
     RDKit          3D

 26 26  0  0  1  0  0  0  0  0999 V2000
   19.0623  -14.2671  -17.5187 N   0  0  0  0  0  0  0  0  0  0  0  0
   19.2812  -13.5439  -16.2833 C   0  0  1  0  0  0  0  0  0  0  0  0
   20.7389  -13.6563  -15.8506 C   0  0  0  0  0  0  0  0  0  0  0  0
   21.0460  -15.0588  -15.4340 C   0  0  0  0  0  0  0  0  0  0  0  0
   21.7298  -15.9164  -16.2749 C   0  0  0  0  0  0  0  0  0  0  0  0
   22.0107  -17.2105  -15.8849 C   0  0  0  0  0  0  0  0  0  0  0  0
   21.6252  -17.7041  -14.6480 C   0  0  0  0  0  0  0  0  0  0  0  0
   20.9419  -16.8517  -13.8044 C   0  0  0  0  0  0  0  0  0  0  0  0
   20.6622  -15.5500  -14.2030 C   0  0  0  0  0  0  0  0  0  0  0  0
   19.0107  -12.1085  -16.5352 C   0  0  0  0  0  0  0  0  0  0  0  0
   19.2422  -11.6134  -17.6518 O   0  0  0  0  0  0  0  0  0  0  0  0
   15.9799  -10.7917  -16.8072 N   0  0  0  0  0  0  0  0  0  0  0  0
   15.8223  -10.0284  -15.6170 C   0  0  0  0  0  0  0  0  0  0  0  0
   14.6543   -9.8987  -15.1679 O   0  0  0  0  0  0  0  0  0  0  0  0
   17.0240   -9.4435  -14.9911 C   0  0  0  0  0  0  0  0  0  0  0  0
   18.2691   -9.8916  -15.7191 C   0  0  2  0  0  0  0  0  0  0  0  0
   18.4766  -11.2806  -15.4818 N   0  0  0  0  0  0  0  0  0  0  0  0
   19.4566   -9.0869  -15.3438 C   0  0  0  0  0  0  0  0  0  0  0  0
   20.0753   -9.3930  -14.3026 O   0  0  0  0  0  0  0  0  0  0  0  0
   21.9157   -7.6174  -17.9761 O   0  0  0  0  0  0  0  0  0  0  0  0
   21.7199   -6.5936  -17.0245 C   0  0  0  0  0  0  0  0  0  0  0  0
   21.1048   -7.2392  -15.8053 C   0  0  2  0  0  0  0  0  0  0  0  0
   19.9198   -7.9880  -16.1124 N   0  0  0  0  0  0  0  0  0  0  0  0
   20.8722   -6.2326  -14.7338 C   0  0  0  0  0  0  0  0  0  0  0  0
   19.7402   -5.9837  -14.2686 O   0  0  0  0  0  0  0  0  0  0  0  0
   21.9633   -5.5443  -14.2342 O   0  0  0  0  0  0  0  0  0  0  0  0
  2  1  1  6
  2 10  1  0
  3  2  1  0
  3  4  1  0
  4  5  2  0
  4  9  1  0
  5  6  1  0
  6  7  2  0
  8  7  1  0
  9  8  2  0
 10 11  2  0
 13 12  1  0
 14 13  2  0
 15 13  1  0
 16 15  1  1
 16 18  1  0
 17 16  1  0
 17 10  1  0
 18 23  1  0
 19 18  2  0
 21 20  1  0
 22 21  1  6
 23 22  1  0
 24 26  1  0
 24 22  1  0
 25 24  2  0
M  END
$$$$
