FNS.pdb
     RDKit          3D

 26 26  0  0  1  0  0  0  0  0999 V2000
   26.8632  -20.9668  -17.9338 N   0  0  0  0  0  0  0  0  0  0  0  0
   25.6852  -20.7110  -18.7362 C   0  0  1  0  0  0  0  0  0  0  0  0
   25.9137  -21.1569  -20.1762 C   0  0  0  0  0  0  0  0  0  0  0  0
   26.9989  -20.3412  -20.8021 C   0  0  0  0  0  0  0  0  0  0  0  0
   26.7672  -19.0396  -21.2050 C   0  0  0  0  0  0  0  0  0  0  0  0
   27.7732  -18.2910  -21.7825 C   0  0  0  0  0  0  0  0  0  0  0  0
   29.0460  -18.8029  -21.9828 C   0  0  0  0  0  0  0  0  0  0  0  0
   29.2827  -20.1023  -21.5823 C   0  0  0  0  0  0  0  0  0  0  0  0
   28.2657  -20.8508  -21.0015 C   0  0  0  0  0  0  0  0  0  0  0  0
   24.5736  -21.5301  -18.1974 C   0  0  0  0  0  0  0  0  0  0  0  0
   23.5188  -21.6577  -18.8428 O   0  0  0  0  0  0  0  0  0  0  0  0
   26.3095  -25.3551  -16.3329 N   0  0  0  0  0  0  0  0  0  0  0  0
   24.9259  -25.0987  -16.5421 C   0  0  0  0  0  0  0  0  0  0  0  0
   24.3666  -25.7039  -17.4927 O   0  0  0  0  0  0  0  0  0  0  0  0
   24.2412  -24.1506  -15.6420 C   0  0  0  0  0  0  0  0  0  0  0  0
   23.6566  -23.0029  -16.4309 C   0  0  2  0  0  0  0  0  0  0  0  0
   24.7140  -22.1828  -16.9188 N   0  0  0  0  0  0  0  0  0  0  0  0
   22.6764  -22.2217  -15.6387 C   0  0  0  0  0  0  0  0  0  0  0  0
   23.1075  -21.4545  -14.7521 O   0  0  0  0  0  0  0  0  0  0  0  0
   18.5254  -21.4290  -16.6622 O   0  0  0  0  0  0  0  0  0  0  0  0
   19.5125  -20.6155  -16.0660 C   0  0  0  0  0  0  0  0  0  0  0  0
   20.3140  -21.5027  -15.1429 C   0  0  2  0  0  0  0  0  0  0  0  0
   21.2749  -22.3068  -15.8425 N   0  0  0  0  0  0  0  0  0  0  0  0
   19.4159  -22.3205  -14.2827 C   0  0  0  0  0  0  0  0  0  0  0  0
   19.4178  -23.5694  -14.2912 O   0  0  0  0  0  0  0  0  0  0  0  0
   18.5411  -21.6619  -13.4373 O   0  0  0  0  0  0  0  0  0  0  0  0
  2  1  1  1
  2 10  1  0
  3  2  1  0
  3  4  1  0
  4  5  2  0
  4  9  1  0
  5  6  1  0
  6  7  2  0
  8  7  1  0
  9  8  2  0
 10 11  2  0
 13 12  1  0
 14 13  2  0
 15 13  1  0
 16 15  1  1
 16 18  1  0
 17 16  1  0
 17 10  1  0
 18 23  1  0
 19 18  2  0
 21 20  1  0
 22 21  1  6
 23 22  1  0
 24 26  1  0
 24 22  1  0
 25 24  2  0
M  END
$$$$
