FNS.pdb
     RDKit          3D

 26 26  0  0  1  0  0  0  0  0999 V2000
   27.8852  -21.4921  -15.7658 N   0  0  0  0  0  0  0  0  0  0  0  0
   27.1573  -20.4259  -15.1098 C   0  0  1  0  0  0  0  0  0  0  0  0
   26.6335  -19.4276  -16.1363 C   0  0  0  0  0  0  0  0  0  0  0  0
   27.7643  -18.6323  -16.7052 C   0  0  0  0  0  0  0  0  0  0  0  0
   28.1705  -17.4510  -16.1140 C   0  0  0  0  0  0  0  0  0  0  0  0
   29.2155  -16.7207  -16.6438 C   0  0  0  0  0  0  0  0  0  0  0  0
   29.8972  -17.1326  -17.7785 C   0  0  0  0  0  0  0  0  0  0  0  0
   29.4956  -18.3117  -18.3729 C   0  0  0  0  0  0  0  0  0  0  0  0
   28.4428  -19.0423  -17.8347 C   0  0  0  0  0  0  0  0  0  0  0  0
   25.9772  -21.0192  -14.4372 C   0  0  0  0  0  0  0  0  0  0  0  0
   25.4633  -22.0621  -14.8771 O   0  0  0  0  0  0  0  0  0  0  0  0
   26.2814  -20.7080   -9.4717 N   0  0  0  0  0  0  0  0  0  0  0  0
   25.5976  -21.3579  -10.5366 C   0  0  0  0  0  0  0  0  0  0  0  0
   26.0514  -22.4673  -10.9186 O   0  0  0  0  0  0  0  0  0  0  0  0
   24.4131  -20.6983  -11.1195 C   0  0  0  0  0  0  0  0  0  0  0  0
   24.3197  -20.9924  -12.5980 C   0  0  2  0  0  0  0  0  0  0  0  0
   25.4209  -20.3853  -13.2670 N   0  0  0  0  0  0  0  0  0  0  0  0
   23.0225  -20.5619  -13.1731 C   0  0  0  0  0  0  0  0  0  0  0  0
   22.8087  -19.3380  -13.3033 O   0  0  0  0  0  0  0  0  0  0  0  0
   20.7506  -23.0209  -15.4663 O   0  0  0  0  0  0  0  0  0  0  0  0
   20.5436  -21.6266  -15.5360 C   0  0  0  0  0  0  0  0  0  0  0  0
   20.7572  -21.0808  -14.1438 C   0  0  2  0  0  0  0  0  0  0  0  0
   22.0167  -21.4756  -13.5806 N   0  0  0  0  0  0  0  0  0  0  0  0
   19.6119  -21.4262  -13.2583 C   0  0  0  0  0  0  0  0  0  0  0  0
   19.7457  -22.0541  -12.1871 O   0  0  0  0  0  0  0  0  0  0  0  0
   18.3436  -21.0311  -13.6444 O   0  0  0  0  0  0  0  0  0  0  0  0
  2  1  1  6
  2 10  1  0
  3  2  1  0
  3  4  1  0
  4  5  2  0
  4  9  1  0
  5  6  1  0
  6  7  2  0
  8  7  1  0
  9  8  2  0
 10 11  2  0
 13 12  1  0
 14 13  2  0
 15 13  1  0
 16 15  1  1
 16 18  1  0
 17 16  1  0
 17 10  1  0
 18 23  1  0
 19 18  2  0
 21 20  1  0
 22 21  1  6
 23 22  1  0
 24 26  1  0
 24 22  1  0
 25 24  2  0
M  END
$$$$
