FNS.pdb
     RDKit          3D

 26 26  0  0  1  0  0  0  0  0999 V2000
   24.9930  -21.5516   -7.7459 N   0  0  0  0  0  0  0  0  0  0  0  0
   25.5185  -20.5526   -8.6530 C   0  0  1  0  0  0  0  0  0  0  0  0
   27.0430  -20.5740   -8.6449 C   0  0  0  0  0  0  0  0  0  0  0  0
   27.5580  -20.0949   -7.3258 C   0  0  0  0  0  0  0  0  0  0  0  0
   28.5118  -20.8146   -6.6313 C   0  0  0  0  0  0  0  0  0  0  0  0
   28.9838  -20.3674   -5.4135 C   0  0  0  0  0  0  0  0  0  0  0  0
   28.5293  -19.1910   -4.8377 C   0  0  0  0  0  0  0  0  0  0  0  0
   27.5767  -18.4683   -5.5271 C   0  0  0  0  0  0  0  0  0  0  0  0
   27.1055  -18.9240   -6.7527 C   0  0  0  0  0  0  0  0  0  0  0  0
   25.0849  -20.9031  -10.0263 C   0  0  0  0  0  0  0  0  0  0  0  0
   25.2668  -22.0510  -10.4674 O   0  0  0  0  0  0  0  0  0  0  0  0
   21.9995  -21.0926  -14.1909 N   0  0  0  0  0  0  0  0  0  0  0  0
   22.4485  -19.7624  -13.9607 C   0  0  0  0  0  0  0  0  0  0  0  0
   22.4348  -18.9736  -14.9407 O   0  0  0  0  0  0  0  0  0  0  0  0
   22.8968  -19.3953  -12.6034 C   0  0  0  0  0  0  0  0  0  0  0  0
   24.0744  -20.2454  -12.1889 C   0  0  2  0  0  0  0  0  0  0  0  0
   24.4490  -19.9096  -10.8565 N   0  0  0  0  0  0  0  0  0  0  0  0
   25.2144  -20.1180  -13.1286 C   0  0  0  0  0  0  0  0  0  0  0  0
   26.2635  -19.5784  -12.7182 O   0  0  0  0  0  0  0  0  0  0  0  0
   28.0641  -22.6605  -15.2122 O   0  0  0  0  0  0  0  0  0  0  0  0
   27.0030  -22.2048  -14.4009 C   0  0  0  0  0  0  0  0  0  0  0  0
   26.2973  -21.1146  -15.1725 C   0  0  2  0  0  0  0  0  0  0  0  0
   25.1663  -20.5805  -14.4690 N   0  0  0  0  0  0  0  0  0  0  0  0
   25.9404  -21.5803  -16.5403 C   0  0  0  0  0  0  0  0  0  0  0  0
   24.7608  -21.6826  -16.9377 O   0  0  0  0  0  0  0  0  0  0  0  0
   26.9660  -21.9136  -17.4068 O   0  0  0  0  0  0  0  0  0  0  0  0
  2  1  1  1
  2 10  1  0
  3  2  1  0
  3  4  1  0
  4  5  2  0
  4  9  1  0
  5  6  1  0
  6  7  2  0
  8  7  1  0
  9  8  2  0
 10 11  2  0
 13 12  1  0
 14 13  2  0
 15 13  1  0
 16 15  1  6
 16 18  1  0
 17 16  1  0
 17 10  1  0
 18 23  1  0
 19 18  2  0
 21 20  1  0
 22 21  1  1
 23 22  1  0
 24 26  1  0
 24 22  1  0
 25 24  2  0
M  END
$$$$
