FNS.pdb
     RDKit          3D

 26 26  0  0  1  0  0  0  0  0999 V2000
   31.8676  -17.9018  -19.6326 N   0  0  0  0  0  0  0  0  0  0  0  0
   31.0908  -17.1330  -18.6826 C   0  0  1  0  0  0  0  0  0  0  0  0
   30.5817  -15.8478  -19.3260 C   0  0  0  0  0  0  0  0  0  0  0  0
   31.7286  -14.9473  -19.6556 C   0  0  0  0  0  0  0  0  0  0  0  0
   31.8382  -14.3639  -20.9037 C   0  0  0  0  0  0  0  0  0  0  0  0
   32.8995  -13.5331  -21.2025 C   0  0  0  0  0  0  0  0  0  0  0  0
   33.8918  -13.2487  -20.2770 C   0  0  0  0  0  0  0  0  0  0  0  0
   33.7871  -13.8288  -19.0290 C   0  0  0  0  0  0  0  0  0  0  0  0
   32.7162  -14.6643  -18.7344 C   0  0  0  0  0  0  0  0  0  0  0  0
   29.9011  -17.9326  -18.3056 C   0  0  0  0  0  0  0  0  0  0  0  0
   29.5953  -18.9467  -18.9563 O   0  0  0  0  0  0  0  0  0  0  0  0
   25.9585  -19.8340  -15.8467 N   0  0  0  0  0  0  0  0  0  0  0  0
   26.7536  -19.1992  -14.8523 C   0  0  0  0  0  0  0  0  0  0  0  0
   26.4633  -19.4305  -13.6502 O   0  0  0  0  0  0  0  0  0  0  0  0
   27.8558  -18.3196  -15.2875 C   0  0  0  0  0  0  0  0  0  0  0  0
   27.9842  -18.3400  -16.7923 C   0  0  2  0  0  0  0  0  0  0  0  0
   29.0930  -17.5342  -17.1791 N   0  0  0  0  0  0  0  0  0  0  0  0
   26.7339  -17.9139  -17.4661 C   0  0  0  0  0  0  0  0  0  0  0  0
   26.3295  -16.7464  -17.2819 O   0  0  0  0  0  0  0  0  0  0  0  0
   24.8135  -20.4179  -20.1888 O   0  0  0  0  0  0  0  0  0  0  0  0
   24.8103  -19.0307  -20.4487 C   0  0  0  0  0  0  0  0  0  0  0  0
   24.8729  -18.3330  -19.1105 C   0  0  2  0  0  0  0  0  0  0  0  0
   25.9791  -18.7707  -18.3079 N   0  0  0  0  0  0  0  0  0  0  0  0
   23.5750  -18.4501  -18.3913 C   0  0  0  0  0  0  0  0  0  0  0  0
   23.4749  -18.9294  -17.2424 O   0  0  0  0  0  0  0  0  0  0  0  0
   22.4307  -18.0062  -19.0294 O   0  0  0  0  0  0  0  0  0  0  0  0
  2  1  1  6
  2 10  1  0
  3  2  1  0
  3  4  1  0
  4  5  2  0
  4  9  1  0
  5  6  1  0
  6  7  2  0
  8  7  1  0
  9  8  2  0
 10 11  2  0
 13 12  1  0
 14 13  2  0
 15 13  1  0
 16 15  1  1
 16 18  1  0
 17 16  1  0
 17 10  1  0
 18 23  1  0
 19 18  2  0
 21 20  1  0
 22 21  1  6
 23 22  1  0
 24 26  1  0
 24 22  1  0
 25 24  2  0
M  END
$$$$
