FNS.pdb
     RDKit          3D

 26 26  0  0  1  0  0  0  0  0999 V2000
   21.3258   -7.6037  -16.5582 N   0  0  0  0  0  0  0  0  0  0  0  0
   21.0475   -8.0070  -15.1956 C   0  0  1  0  0  0  0  0  0  0  0  0
   22.1293   -7.4887  -14.2545 C   0  0  0  0  0  0  0  0  0  0  0  0
   23.4202   -8.1964  -14.5140 C   0  0  0  0  0  0  0  0  0  0  0  0
   23.6570   -9.4557  -13.9959 C   0  0  0  0  0  0  0  0  0  0  0  0
   24.8511  -10.1045  -14.2388 C   0  0  0  0  0  0  0  0  0  0  0  0
   25.8553   -9.5311  -15.0035 C   0  0  0  0  0  0  0  0  0  0  0  0
   25.6240   -8.2736  -15.5233 C   0  0  0  0  0  0  0  0  0  0  0  0
   24.4197   -7.6257  -15.2751 C   0  0  0  0  0  0  0  0  0  0  0  0
   19.7708   -7.3786  -14.7804 C   0  0  0  0  0  0  0  0  0  0  0  0
   19.5046   -6.2138  -15.1236 O   0  0  0  0  0  0  0  0  0  0  0  0
   16.0049  -10.4806  -15.0166 N   0  0  0  0  0  0  0  0  0  0  0  0
   16.1837   -9.0799  -14.8432 C   0  0  0  0  0  0  0  0  0  0  0  0
   16.0326   -8.3513  -15.8576 O   0  0  0  0  0  0  0  0  0  0  0  0
   16.5310   -8.5751  -13.5006 C   0  0  0  0  0  0  0  0  0  0  0  0
   17.6001   -7.5126  -13.5969 C   0  0  2  0  0  0  0  0  0  0  0  0
   18.8319   -8.1199  -13.9745 N   0  0  0  0  0  0  0  0  0  0  0  0
   17.7327   -6.7370  -12.3401 C   0  0  0  0  0  0  0  0  0  0  0  0
   18.7783   -6.8691  -11.6694 O   0  0  0  0  0  0  0  0  0  0  0  0
   18.1481   -3.0584  -10.0119 O   0  0  0  0  0  0  0  0  0  0  0  0
   18.0540   -3.9328  -11.1156 C   0  0  0  0  0  0  0  0  0  0  0  0
   16.9317   -4.8985  -10.8164 C   0  0  2  0  0  0  0  0  0  0  0  0
   16.7277   -5.8544  -11.8670 N   0  0  0  0  0  0  0  0  0  0  0  0
   15.6823   -4.1673  -10.4705 C   0  0  0  0  0  0  0  0  0  0  0  0
   14.7038   -4.0897  -11.2428 O   0  0  0  0  0  0  0  0  0  0  0  0
   15.6069   -3.5474   -9.2361 O   0  0  0  0  0  0  0  0  0  0  0  0
  2  1  1  6
  2 10  1  0
  3  2  1  0
  3  4  1  0
  4  5  2  0
  4  9  1  0
  5  6  1  0
  6  7  2  0
  8  7  1  0
  9  8  2  0
 10 11  2  0
 13 12  1  0
 14 13  2  0
 15 13  1  0
 16 15  1  1
 16 18  1  0
 17 16  1  0
 17 10  1  0
 18 23  1  0
 19 18  2  0
 21 20  1  0
 22 21  1  6
 23 22  1  0
 24 26  1  0
 24 22  1  0
 25 24  2  0
M  END
$$$$
