FNS.pdb
     RDKit          3D

 26 26  0  0  1  0  0  0  0  0999 V2000
   26.2713  -22.5687  -12.2839 N   0  0  0  0  0  0  0  0  0  0  0  0
   25.6680  -21.4857  -11.5354 C   0  0  1  0  0  0  0  0  0  0  0  0
   26.5225  -20.2270  -11.6361 C   0  0  0  0  0  0  0  0  0  0  0  0
   27.7738  -20.3882  -10.8341 C   0  0  0  0  0  0  0  0  0  0  0  0
   27.7416  -20.3565   -9.4528 C   0  0  0  0  0  0  0  0  0  0  0  0
   28.9002  -20.5059   -8.7172 C   0  0  0  0  0  0  0  0  0  0  0  0
   30.1340  -20.6923   -9.3216 C   0  0  0  0  0  0  0  0  0  0  0  0
   30.1717  -20.7247  -10.7009 C   0  0  0  0  0  0  0  0  0  0  0  0
   29.0017  -20.5737  -11.4357 C   0  0  0  0  0  0  0  0  0  0  0  0
   24.3571  -21.1731  -12.1525 C   0  0  0  0  0  0  0  0  0  0  0  0
   24.0701  -21.6213  -13.2760 O   0  0  0  0  0  0  0  0  0  0  0  0
   19.0597  -18.3667  -11.1659 N   0  0  0  0  0  0  0  0  0  0  0  0
   19.7985  -19.5773  -11.2780 C   0  0  0  0  0  0  0  0  0  0  0  0
   19.1883  -20.5840  -11.7220 O   0  0  0  0  0  0  0  0  0  0  0  0
   21.2172  -19.5769  -10.8715 C   0  0  0  0  0  0  0  0  0  0  0  0
   22.0643  -20.2697  -11.9125 C   0  0  2  0  0  0  0  0  0  0  0  0
   23.4086  -20.3455  -11.4482 N   0  0  0  0  0  0  0  0  0  0  0  0
   21.9768  -19.6071  -13.2362 C   0  0  0  0  0  0  0  0  0  0  0  0
   22.4888  -18.4752  -13.3675 O   0  0  0  0  0  0  0  0  0  0  0  0
   21.0313  -19.7620  -17.9551 O   0  0  0  0  0  0  0  0  0  0  0  0
   20.9829  -20.5153  -16.7627 C   0  0  0  0  0  0  0  0  0  0  0  0
   21.1711  -19.5437  -15.6215 C   0  0  2  0  0  0  0  0  0  0  0  0
   21.3394  -20.1999  -14.3565 N   0  0  0  0  0  0  0  0  0  0  0  0
   20.0716  -18.5409  -15.5933 C   0  0  0  0  0  0  0  0  0  0  0  0
   19.0108  -18.7125  -14.9569 O   0  0  0  0  0  0  0  0  0  0  0  0
   20.2377  -17.3670  -16.3063 O   0  0  0  0  0  0  0  0  0  0  0  0
  2  1  1  6
  2 10  1  0
  3  2  1  0
  3  4  1  0
  4  5  2  0
  4  9  1  0
  5  6  1  0
  6  7  2  0
  8  7  1  0
  9  8  2  0
 10 11  2  0
 13 12  1  0
 14 13  2  0
 15 13  1  0
 16 15  1  1
 16 18  1  0
 17 16  1  0
 17 10  1  0
 18 23  1  0
 19 18  2  0
 21 20  1  0
 22 21  1  6
 23 22  1  0
 24 26  1  0
 24 22  1  0
 25 24  2  0
M  END
$$$$
