FNS.pdb
     RDKit          3D

 26 26  0  0  1  0  0  0  0  0999 V2000
   18.2204  -11.4591  -15.1023 N   0  0  0  0  0  0  0  0  0  0  0  0
   17.5855  -10.1673  -15.2606 C   0  0  1  0  0  0  0  0  0  0  0  0
   16.0721  -10.2971  -15.1289 C   0  0  0  0  0  0  0  0  0  0  0  0
   15.4954  -10.8900  -16.3743 C   0  0  0  0  0  0  0  0  0  0  0  0
   15.0351  -12.1930  -16.3939 C   0  0  0  0  0  0  0  0  0  0  0  0
   14.5035  -12.7352  -17.5469 C   0  0  0  0  0  0  0  0  0  0  0  0
   14.4079  -12.0079  -18.7233 C   0  0  0  0  0  0  0  0  0  0  0  0
   14.8662  -10.7061  -18.7091 C   0  0  0  0  0  0  0  0  0  0  0  0
   15.4003  -10.1660  -17.5451 C   0  0  0  0  0  0  0  0  0  0  0  0
   18.0452   -9.2894  -14.1584 C   0  0  0  0  0  0  0  0  0  0  0  0
   18.1533   -9.7372  -13.0037 O   0  0  0  0  0  0  0  0  0  0  0  0
   21.1992   -8.3926  -13.9749 N   0  0  0  0  0  0  0  0  0  0  0  0
   21.2236   -6.9881  -14.2005 C   0  0  0  0  0  0  0  0  0  0  0  0
   22.3073   -6.4889  -14.5995 O   0  0  0  0  0  0  0  0  0  0  0  0
   19.9914   -6.2138  -13.9555 C   0  0  0  0  0  0  0  0  0  0  0  0
   18.9140   -7.1043  -13.3832 C   0  0  2  0  0  0  0  0  0  0  0  0
   18.3692   -7.9093  -14.4243 N   0  0  0  0  0  0  0  0  0  0  0  0
   17.8628   -6.3295  -12.6808 C   0  0  0  0  0  0  0  0  0  0  0  0
   17.0635   -5.6576  -13.3665 O   0  0  0  0  0  0  0  0  0  0  0  0
   17.8681   -5.9967   -8.5620 O   0  0  0  0  0  0  0  0  0  0  0  0
   16.5752   -5.9859   -9.1277 C   0  0  0  0  0  0  0  0  0  0  0  0
   16.7296   -5.5578  -10.5681 C   0  0  2  0  0  0  0  0  0  0  0  0
   17.7250   -6.3176  -11.2688 N   0  0  0  0  0  0  0  0  0  0  0  0
   16.9715   -4.0922  -10.6616 C   0  0  0  0  0  0  0  0  0  0  0  0
   16.1865   -3.2420  -10.1919 O   0  0  0  0  0  0  0  0  0  0  0  0
   18.1197   -3.6576  -11.2991 O   0  0  0  0  0  0  0  0  0  0  0  0
  2  1  1  1
  2 10  1  0
  3  2  1  0
  3  4  1  0
  4  5  2  0
  4  9  1  0
  5  6  1  0
  6  7  2  0
  8  7  1  0
  9  8  2  0
 10 11  2  0
 13 12  1  0
 14 13  2  0
 15 13  1  0
 16 15  1  6
 16 18  1  0
 17 16  1  0
 17 10  1  0
 18 23  1  0
 19 18  2  0
 21 20  1  0
 22 21  1  1
 23 22  1  0
 24 26  1  0
 24 22  1  0
 25 24  2  0
M  END
$$$$
