NNA.pdb
     RDKit          3D

 22 21  0  0  1  0  0  0  0  0999 V2000
    9.2484  -12.8087   18.6948 N   0  0  0  0  0  0  0  0  0  0  0  0
    7.8656  -13.1244   18.7736 C   0  0  0  0  0  0  0  0  0  0  0  0
    7.1701  -12.9392   17.7287 O   0  0  0  0  0  0  0  0  0  0  0  0
    7.2750  -13.6457   20.0250 C   0  0  0  0  0  0  0  0  0  0  0  0
    8.4044  -13.8275   21.0281 C   0  0  2  0  0  0  0  0  0  0  0  0
    9.3234  -14.7767   20.4864 N   0  0  0  0  0  0  0  0  0  0  0  0
    7.8473  -14.3136   22.3356 C   0  0  0  0  0  0  0  0  0  0  0  0
    6.9227  -13.6597   22.8295 O   0  0  0  0  0  0  0  0  0  0  0  0
    6.0805  -18.0307   26.0125 N   0  0  0  0  0  0  0  0  0  0  0  0
    7.4513  -17.9823   25.5822 C   0  0  0  0  0  0  0  0  0  0  0  0
    8.3405  -18.3579   26.4027 O   0  0  0  0  0  0  0  0  0  0  0  0
    7.7887  -17.5020   24.2115 C   0  0  0  0  0  0  0  0  0  0  0  0
    8.0237  -15.9988   24.2533 C   0  0  2  0  0  0  0  0  0  0  0  0
    8.3703  -15.4624   22.9517 N   0  0  0  0  0  0  0  0  0  0  0  0
    9.0024  -15.6147   25.2767 C   0  0  0  0  0  0  0  0  0  0  0  0
   10.2600  -15.8056   25.1213 O   0  0  0  0  0  0  0  0  0  0  0  0
    9.2090  -13.2999   28.2205 C   0  0  0  0  0  0  0  0  0  0  0  0
    9.6711  -14.5116   27.4383 C   0  0  2  0  0  0  0  0  0  0  0  0
    8.6780  -15.0002   26.5304 N   0  0  0  0  0  0  0  0  0  0  0  0
   10.1926  -15.5833   28.3375 C   0  0  0  0  0  0  0  0  0  0  0  0
   11.1091  -15.3490   29.1654 O   0  0  0  0  0  0  0  0  0  0  0  0
    9.6973  -16.8771   28.3049 O   0  0  0  0  0  0  0  0  0  0  0  0
  1  2  1  0
  2  3  2  0
  2  4  1  0
  4  5  1  0
  5  7  1  0
  5  6  1  6
  7  8  2  0
  9 10  1  0
 10 12  1  0
 11 10  2  0
 13 12  1  6
 13 15  1  0
 14  7  1  0
 14 13  1  0
 15 19  1  0
 16 15  2  0
 18 17  1  1
 19 18  1  0
 20 22  1  0
 20 18  1  0
 21 20  2  0
M  END
$$$$
