NNA.pdb
     RDKit          3D

 22 21  0  0  1  0  0  0  0  0999 V2000
    8.2876  -12.2046   18.4870 N   0  0  0  0  0  0  0  0  0  0  0  0
    7.7917  -13.5040   18.7763 C   0  0  0  0  0  0  0  0  0  0  0  0
    7.8607  -14.3684   17.8500 O   0  0  0  0  0  0  0  0  0  0  0  0
    7.2224  -13.8224   20.1034 C   0  0  0  0  0  0  0  0  0  0  0  0
    8.3759  -14.1913   21.0243 C   0  0  2  0  0  0  0  0  0  0  0  0
    9.0698  -15.2930   20.4381 N   0  0  0  0  0  0  0  0  0  0  0  0
    7.8440  -14.5589   22.3801 C   0  0  0  0  0  0  0  0  0  0  0  0
    7.0804  -13.7522   22.9211 O   0  0  0  0  0  0  0  0  0  0  0  0
    7.0319  -17.0650   26.7648 N   0  0  0  0  0  0  0  0  0  0  0  0
    7.1605  -18.0798   25.7547 C   0  0  0  0  0  0  0  0  0  0  0  0
    6.8741  -19.2713   26.0759 O   0  0  0  0  0  0  0  0  0  0  0  0
    7.6180  -17.7161   24.3828 C   0  0  0  0  0  0  0  0  0  0  0  0
    7.8872  -16.2192   24.3270 C   0  0  2  0  0  0  0  0  0  0  0  0
    8.2124  -15.7709   22.9872 N   0  0  0  0  0  0  0  0  0  0  0  0
    8.8997  -15.7970   25.3013 C   0  0  0  0  0  0  0  0  0  0  0  0
   10.0859  -16.2820   25.3035 O   0  0  0  0  0  0  0  0  0  0  0  0
    9.5436  -13.1433   27.9055 C   0  0  0  0  0  0  0  0  0  0  0  0
    9.6535  -14.5493   27.3537 C   0  0  2  0  0  0  0  0  0  0  0  0
    8.6887  -14.8236   26.3321 N   0  0  0  0  0  0  0  0  0  0  0  0
    9.6333  -15.5725   28.4407 C   0  0  0  0  0  0  0  0  0  0  0  0
    8.6798  -16.3841   28.5527 O   0  0  0  0  0  0  0  0  0  0  0  0
   10.6545  -15.6778   29.3716 O   0  0  0  0  0  0  0  0  0  0  0  0
  1  2  1  0
  2  3  2  0
  2  4  1  0
  4  5  1  0
  5  7  1  0
  5  6  1  6
  7  8  2  0
  9 10  1  0
 10 12  1  0
 11 10  2  0
 13 12  1  6
 13 15  1  0
 14  7  1  0
 14 13  1  0
 15 19  1  0
 16 15  2  0
 18 17  1  1
 19 18  1  0
 20 22  1  0
 20 18  1  0
 21 20  2  0
M  END
$$$$
