NNA.pdb
     RDKit          3D

 22 21  0  0  1  0  0  0  0  0999 V2000
    8.2034  -13.1240   16.8733 N   0  0  0  0  0  0  0  0  0  0  0  0
    8.0827  -13.3501   18.2706 C   0  0  0  0  0  0  0  0  0  0  0  0
    7.1237  -12.7733   18.8687 O   0  0  0  0  0  0  0  0  0  0  0  0
    9.0396  -14.2222   18.9849 C   0  0  0  0  0  0  0  0  0  0  0  0
   10.0329  -14.7533   17.9621 C   0  0  2  0  0  0  0  0  0  0  0  0
    9.3125  -15.5580   17.0282 N   0  0  0  0  0  0  0  0  0  0  0  0
   11.0907  -15.5628   18.6563 C   0  0  0  0  0  0  0  0  0  0  0  0
   10.9229  -16.7861   18.6999 O   0  0  0  0  0  0  0  0  0  0  0  0
   15.1422  -13.5918   17.9161 N   0  0  0  0  0  0  0  0  0  0  0  0
   15.0628  -14.8053   18.6827 C   0  0  0  0  0  0  0  0  0  0  0  0
   15.4633  -15.8756   18.1359 O   0  0  0  0  0  0  0  0  0  0  0  0
   14.5229  -14.7783   20.0725 C   0  0  0  0  0  0  0  0  0  0  0  0
   13.1980  -15.5265   20.1077 C   0  0  2  0  0  0  0  0  0  0  0  0
   12.2119  -14.9357   19.2243 N   0  0  0  0  0  0  0  0  0  0  0  0
   12.6806  -15.6823   21.4717 C   0  0  0  0  0  0  0  0  0  0  0  0
   13.3877  -16.1858   22.4144 O   0  0  0  0  0  0  0  0  0  0  0  0
    9.6286  -14.7282   23.5353 C   0  0  0  0  0  0  0  0  0  0  0  0
   10.8866  -15.5140   23.2297 C   0  0  2  0  0  0  0  0  0  0  0  0
   11.3657  -15.3020   21.8974 N   0  0  0  0  0  0  0  0  0  0  0  0
   10.7237  -16.9633   23.5488 C   0  0  0  0  0  0  0  0  0  0  0  0
   10.4802  -17.3481   24.7206 O   0  0  0  0  0  0  0  0  0  0  0  0
   10.8316  -17.9473   22.5790 O   0  0  0  0  0  0  0  0  0  0  0  0
  1  2  1  0
  2  3  2  0
  2  4  1  0
  4  5  1  0
  5  7  1  0
  5  6  1  6
  7  8  2  0
  9 10  1  0
 10 12  1  0
 11 10  2  0
 13 12  1  1
 13 15  1  0
 14  7  1  0
 14 13  1  0
 15 19  1  0
 16 15  2  0
 18 17  1  6
 19 18  1  0
 20 22  1  0
 20 18  1  0
 21 20  2  0
M  END
$$$$
