NNA.pdb
     RDKit          3D

 22 21  0  0  1  0  0  0  0  0999 V2000
    7.8467  -11.9251   18.4919 N   0  0  0  0  0  0  0  0  0  0  0  0
    7.6267  -13.2804   18.8567 C   0  0  0  0  0  0  0  0  0  0  0  0
    7.6606  -14.1422   17.9260 O   0  0  0  0  0  0  0  0  0  0  0  0
    7.3706  -13.6569   20.2635 C   0  0  0  0  0  0  0  0  0  0  0  0
    8.4575  -14.6346   20.6852 C   0  0  2  0  0  0  0  0  0  0  0  0
    8.3957  -15.7623   19.8116 N   0  0  0  0  0  0  0  0  0  0  0  0
    8.2365  -15.0537   22.1105 C   0  0  0  0  0  0  0  0  0  0  0  0
    8.4057  -14.1935   22.9812 O   0  0  0  0  0  0  0  0  0  0  0  0
    5.9090  -17.8019   26.1765 N   0  0  0  0  0  0  0  0  0  0  0  0
    6.4851  -18.5895   25.1209 C   0  0  0  0  0  0  0  0  0  0  0  0
    6.8831  -19.7578   25.4066 O   0  0  0  0  0  0  0  0  0  0  0  0
    6.5993  -18.0270   23.7446 C   0  0  0  0  0  0  0  0  0  0  0  0
    7.6767  -16.9521   23.7327 C   0  0  2  0  0  0  0  0  0  0  0  0
    7.8555  -16.3705   22.4168 N   0  0  0  0  0  0  0  0  0  0  0  0
    8.9465  -17.4277   24.2929 C   0  0  0  0  0  0  0  0  0  0  0  0
    9.7327  -18.1993   23.6380 O   0  0  0  0  0  0  0  0  0  0  0  0
   11.7340  -16.5573   26.2933 C   0  0  0  0  0  0  0  0  0  0  0  0
   10.6678  -17.6186   26.1200 C   0  0  2  0  0  0  0  0  0  0  0  0
    9.4420  -17.0962   25.5965 N   0  0  0  0  0  0  0  0  0  0  0  0
   10.4597  -18.4023   27.3736 C   0  0  0  0  0  0  0  0  0  0  0  0
   11.4130  -19.0029   27.9312 O   0  0  0  0  0  0  0  0  0  0  0  0
    9.2177  -18.5058   27.9795 O   0  0  0  0  0  0  0  0  0  0  0  0
  1  2  1  0
  2  3  2  0
  2  4  1  0
  4  5  1  0
  5  7  1  0
  5  6  1  6
  7  8  2  0
  9 10  1  0
 10 12  1  0
 11 10  2  0
 13 12  1  6
 13 15  1  0
 14  7  1  0
 14 13  1  0
 15 19  1  0
 16 15  2  0
 18 17  1  1
 19 18  1  0
 20 22  1  0
 20 18  1  0
 21 20  2  0
M  END
$$$$
