NNA.pdb
     RDKit          3D

 22 21  0  0  1  0  0  0  0  0999 V2000
   12.2205  -19.4427   15.9403 N   0  0  0  0  0  0  0  0  0  0  0  0
   13.5073  -20.0441   15.9646 C   0  0  0  0  0  0  0  0  0  0  0  0
   13.7661  -20.8162   16.9376 O   0  0  0  0  0  0  0  0  0  0  0  0
   14.4930  -19.7737   14.8960 C   0  0  0  0  0  0  0  0  0  0  0  0
   15.3952  -18.6458   15.3743 C   0  0  2  0  0  0  0  0  0  0  0  0
   16.2105  -18.2402   14.2745 N   0  0  0  0  0  0  0  0  0  0  0  0
   16.2441  -19.1261   16.5166 C   0  0  0  0  0  0  0  0  0  0  0  0
   16.8974  -20.1589   16.3349 O   0  0  0  0  0  0  0  0  0  0  0  0
   20.2146  -18.4347   18.1674 N   0  0  0  0  0  0  0  0  0  0  0  0
   19.0866  -17.5436   18.1519 C   0  0  0  0  0  0  0  0  0  0  0  0
   19.0048  -16.7123   17.1994 O   0  0  0  0  0  0  0  0  0  0  0  0
   18.0614  -17.6154   19.2323 C   0  0  0  0  0  0  0  0  0  0  0  0
   17.0684  -18.7214   18.9052 C   0  0  2  0  0  0  0  0  0  0  0  0
   16.2778  -18.4171   17.7287 N   0  0  0  0  0  0  0  0  0  0  0  0
   16.2225  -19.0699   20.0523 C   0  0  0  0  0  0  0  0  0  0  0  0
   15.3963  -18.2363   20.5667 O   0  0  0  0  0  0  0  0  0  0  0  0
   14.7898  -22.1164   21.6269 C   0  0  0  0  0  0  0  0  0  0  0  0
   15.2809  -20.6879   21.7353 C   0  0  2  0  0  0  0  0  0  0  0  0
   16.2201  -20.3428   20.7115 N   0  0  0  0  0  0  0  0  0  0  0  0
   15.7968  -20.3835   23.1028 C   0  0  0  0  0  0  0  0  0  0  0  0
   15.0706  -20.5269   24.1190 O   0  0  0  0  0  0  0  0  0  0  0  0
   17.0892  -19.9323   23.3186 O   0  0  0  0  0  0  0  0  0  0  0  0
  1  2  1  0
  2  3  2  0
  2  4  1  0
  4  5  1  0
  5  7  1  0
  5  6  1  6
  7  8  2  0
  9 10  1  0
 10 12  1  0
 11 10  2  0
 13 12  1  1
 13 15  1  0
 14  7  1  0
 14 13  1  0
 15 19  1  0
 16 15  2  0
 18 17  1  1
 19 18  1  0
 20 22  1  0
 20 18  1  0
 21 20  2  0
M  END
$$$$
