NNA.pdb
     RDKit          3D

 22 21  0  0  1  0  0  0  0  0999 V2000
   14.9524  -16.4410   17.0751 N   0  0  0  0  0  0  0  0  0  0  0  0
   14.6630  -15.0639   16.8807 C   0  0  0  0  0  0  0  0  0  0  0  0
   15.4364  -14.4136   16.1133 O   0  0  0  0  0  0  0  0  0  0  0  0
   13.5073  -14.4282   17.5492 C   0  0  0  0  0  0  0  0  0  0  0  0
   12.8605  -15.4731   18.4463 C   0  0  2  0  0  0  0  0  0  0  0  0
   12.0022  -16.2762   17.6357 N   0  0  0  0  0  0  0  0  0  0  0  0
   12.0804  -14.7930   19.5349 C   0  0  0  0  0  0  0  0  0  0  0  0
   12.7200  -14.1080   20.3399 O   0  0  0  0  0  0  0  0  0  0  0  0
    8.5357  -12.3199   18.3219 N   0  0  0  0  0  0  0  0  0  0  0  0
    8.4911  -13.7189   18.6496 C   0  0  0  0  0  0  0  0  0  0  0  0
    8.5354  -14.5501   17.6945 O   0  0  0  0  0  0  0  0  0  0  0  0
    8.3956  -14.1512   20.0735 C   0  0  0  0  0  0  0  0  0  0  0  0
    9.7968  -14.3902   20.6175 C   0  0  2  0  0  0  0  0  0  0  0  0
   10.6861  -14.9439   19.6152 N   0  0  0  0  0  0  0  0  0  0  0  0
    9.7903  -15.1974   21.8426 C   0  0  0  0  0  0  0  0  0  0  0  0
    9.0422  -14.9104   22.8427 O   0  0  0  0  0  0  0  0  0  0  0  0
   10.1925  -18.5236   23.1577 C   0  0  0  0  0  0  0  0  0  0  0  0
   10.6153  -17.0764   23.3006 C   0  0  2  0  0  0  0  0  0  0  0  0
   10.5937  -16.3647   22.0587 N   0  0  0  0  0  0  0  0  0  0  0  0
   11.9272  -16.9511   24.0022 C   0  0  0  0  0  0  0  0  0  0  0  0
   12.9308  -16.4634   23.4231 O   0  0  0  0  0  0  0  0  0  0  0  0
   12.1026  -17.3619   25.3141 O   0  0  0  0  0  0  0  0  0  0  0  0
  1  2  1  0
  2  3  2  0
  2  4  1  0
  4  5  1  0
  5  7  1  0
  5  6  1  6
  7  8  2  0
  9 10  1  0
 10 12  1  0
 11 10  2  0
 13 12  1  6
 13 15  1  0
 14  7  1  0
 14 13  1  0
 15 19  1  0
 16 15  2  0
 18 17  1  6
 19 18  1  0
 20 22  1  0
 20 18  1  0
 21 20  2  0
M  END
$$$$
