NNA.pdb
     RDKit          3D

 22 21  0  0  1  0  0  0  0  0999 V2000
   15.1208  -17.2762   14.7081 N   0  0  0  0  0  0  0  0  0  0  0  0
   13.7105  -17.2790   14.5372 C   0  0  0  0  0  0  0  0  0  0  0  0
   13.2727  -17.3053   13.3465 O   0  0  0  0  0  0  0  0  0  0  0  0
   12.8032  -17.2524   15.7045 C   0  0  0  0  0  0  0  0  0  0  0  0
   12.5356  -18.6930   16.1145 C   0  0  2  0  0  0  0  0  0  0  0  0
   11.7561  -19.3039   15.0859 N   0  0  0  0  0  0  0  0  0  0  0  0
   11.8009  -18.7187   17.4243 C   0  0  0  0  0  0  0  0  0  0  0  0
   10.5985  -18.4357   17.3991 O   0  0  0  0  0  0  0  0  0  0  0  0
   14.5877  -21.2982   19.7913 N   0  0  0  0  0  0  0  0  0  0  0  0
   13.8106  -20.5223   20.7190 C   0  0  0  0  0  0  0  0  0  0  0  0
   14.4326  -19.8782   21.6152 O   0  0  0  0  0  0  0  0  0  0  0  0
   12.3238  -20.4934   20.6089 C   0  0  0  0  0  0  0  0  0  0  0  0
   11.8983  -19.1960   19.9366 C   0  0  2  0  0  0  0  0  0  0  0  0
   12.4715  -19.0517   18.6128 N   0  0  0  0  0  0  0  0  0  0  0  0
   12.1626  -18.0203   20.7735 C   0  0  0  0  0  0  0  0  0  0  0  0
   13.2548  -17.3554   20.6876 O   0  0  0  0  0  0  0  0  0  0  0  0
   10.3500  -15.8113   23.2947 C   0  0  0  0  0  0  0  0  0  0  0  0
   11.5557  -16.3361   22.5433 C   0  0  2  0  0  0  0  0  0  0  0  0
   11.2598  -17.4934   21.7543 N   0  0  0  0  0  0  0  0  0  0  0  0
   12.7209  -16.5527   23.4512 C   0  0  0  0  0  0  0  0  0  0  0  0
   13.1086  -17.7114   23.7471 O   0  0  0  0  0  0  0  0  0  0  0  0
   13.4266  -15.4978   24.0078 O   0  0  0  0  0  0  0  0  0  0  0  0
  1  2  1  0
  2  3  2  0
  2  4  1  0
  4  5  1  0
  5  7  1  0
  5  6  1  6
  7  8  2  0
  9 10  1  0
 10 12  1  0
 11 10  2  0
 13 12  1  1
 13 15  1  0
 14  7  1  0
 14 13  1  0
 15 19  1  0
 16 15  2  0
 18 17  1  1
 19 18  1  0
 20 22  1  0
 20 18  1  0
 21 20  2  0
M  END
$$$$
