NNA.pdb
     RDKit          3D

 22 21  0  0  1  0  0  0  0  0999 V2000
   11.2395  -19.2155   14.5087 N   0  0  0  0  0  0  0  0  0  0  0  0
   11.6007  -17.9873   15.1243 C   0  0  0  0  0  0  0  0  0  0  0  0
   12.7336  -17.5013   14.8236 O   0  0  0  0  0  0  0  0  0  0  0  0
   10.6869  -17.3145   16.0724 C   0  0  0  0  0  0  0  0  0  0  0  0
   11.3565  -17.3149   17.4386 C   0  0  2  0  0  0  0  0  0  0  0  0
   11.5353  -18.6739   17.8388 N   0  0  0  0  0  0  0  0  0  0  0  0
   10.4952  -16.5793   18.4250 C   0  0  0  0  0  0  0  0  0  0  0  0
   10.8393  -15.4308   18.7238 O   0  0  0  0  0  0  0  0  0  0  0  0
    6.4908  -15.3579   21.3678 N   0  0  0  0  0  0  0  0  0  0  0  0
    6.1640  -16.6694   20.8782 C   0  0  0  0  0  0  0  0  0  0  0  0
    5.0487  -17.1650   21.2184 O   0  0  0  0  0  0  0  0  0  0  0  0
    7.1227  -17.4011   20.0012 C   0  0  0  0  0  0  0  0  0  0  0  0
    8.4312  -16.6265   19.9372 C   0  0  2  0  0  0  0  0  0  0  0  0
    9.3543  -17.1898   18.9715 N   0  0  0  0  0  0  0  0  0  0  0  0
    9.0538  -16.4715   21.2566 C   0  0  0  0  0  0  0  0  0  0  0  0
    8.4186  -15.9806   22.2554 O   0  0  0  0  0  0  0  0  0  0  0  0
   10.2403  -17.3186   23.9771 C   0  0  0  0  0  0  0  0  0  0  0  0
   10.9875  -16.6175   22.8618 C   0  0  2  0  0  0  0  0  0  0  0  0
   10.4024  -16.8394   21.5742 N   0  0  0  0  0  0  0  0  0  0  0  0
   12.4448  -16.9412   22.8848 C   0  0  0  0  0  0  0  0  0  0  0  0
   13.0106  -17.4653   21.8920 O   0  0  0  0  0  0  0  0  0  0  0  0
   13.2390  -16.6826   23.9906 O   0  0  0  0  0  0  0  0  0  0  0  0
  1  2  1  0
  2  3  2  0
  2  4  1  0
  4  5  1  0
  5  7  1  0
  5  6  1  1
  7  8  2  0
  9 10  1  0
 10 12  1  0
 11 10  2  0
 13 12  1  1
 13 15  1  0
 14  7  1  0
 14 13  1  0
 15 19  1  0
 16 15  2  0
 18 17  1  1
 19 18  1  0
 20 22  1  0
 20 18  1  0
 21 20  2  0
M  END
$$$$
