NNA.pdb
     RDKit          3D

 22 21  0  0  1  0  0  0  0  0999 V2000
    8.7631  -18.4177   16.4811 N   0  0  0  0  0  0  0  0  0  0  0  0
    8.2769  -17.0855   16.3978 C   0  0  0  0  0  0  0  0  0  0  0  0
    7.8333  -16.7015   15.2727 O   0  0  0  0  0  0  0  0  0  0  0  0
    8.2924  -16.1954   17.5784 C   0  0  0  0  0  0  0  0  0  0  0  0
    9.0700  -16.9016   18.6791 C   0  0  2  0  0  0  0  0  0  0  0  0
    8.3085  -18.0353   19.0958 N   0  0  0  0  0  0  0  0  0  0  0  0
    9.2916  -15.9590   19.8274 C   0  0  0  0  0  0  0  0  0  0  0  0
   10.1518  -15.0848   19.6781 O   0  0  0  0  0  0  0  0  0  0  0  0
    7.8375  -12.9087   23.9884 N   0  0  0  0  0  0  0  0  0  0  0  0
    7.4788  -14.2931   24.1351 C   0  0  0  0  0  0  0  0  0  0  0  0
    7.3198  -14.7399   25.3098 O   0  0  0  0  0  0  0  0  0  0  0  0
    7.3059  -15.1530   22.9291 C   0  0  0  0  0  0  0  0  0  0  0  0
    8.6388  -15.2686   22.2036 C   0  0  2  0  0  0  0  0  0  0  0  0
    8.5432  -16.0851   21.0094 N   0  0  0  0  0  0  0  0  0  0  0  0
    9.7182  -15.7236   23.0871 C   0  0  0  0  0  0  0  0  0  0  0  0
   10.0796  -15.0560   24.1195 O   0  0  0  0  0  0  0  0  0  0  0  0
   12.6605  -16.3458   23.8526 C   0  0  0  0  0  0  0  0  0  0  0  0
   11.5164  -17.3364   23.7958 C   0  0  2  0  0  0  0  0  0  0  0  0
   10.4713  -16.9297   22.9060 N   0  0  0  0  0  0  0  0  0  0  0  0
   11.0033  -17.6662   25.1585 C   0  0  0  0  0  0  0  0  0  0  0  0
   11.7626  -18.1359   26.0436 O   0  0  0  0  0  0  0  0  0  0  0  0
    9.6775  -17.4730   25.5126 O   0  0  0  0  0  0  0  0  0  0  0  0
  1  2  1  0
  2  3  2  0
  2  4  1  0
  4  5  1  0
  5  7  1  0
  5  6  1  1
  7  8  2  0
  9 10  1  0
 10 12  1  0
 11 10  2  0
 13 12  1  1
 13 15  1  0
 14  7  1  0
 14 13  1  0
 15 19  1  0
 16 15  2  0
 18 17  1  1
 19 18  1  0
 20 22  1  0
 20 18  1  0
 21 20  2  0
M  END
$$$$
