NNA.pdb
     RDKit          3D

 22 21  0  0  1  0  0  0  0  0999 V2000
    7.6584  -12.9832   16.7616 N   0  0  0  0  0  0  0  0  0  0  0  0
    8.7004  -13.9096   16.4891 C   0  0  0  0  0  0  0  0  0  0  0  0
    8.5836  -14.6197   15.4441 O   0  0  0  0  0  0  0  0  0  0  0  0
    9.8650  -14.0308   17.3921 C   0  0  0  0  0  0  0  0  0  0  0  0
    9.6820  -15.2979   18.2143 C   0  0  2  0  0  0  0  0  0  0  0  0
    8.7500  -15.0126   19.2577 N   0  0  0  0  0  0  0  0  0  0  0  0
   11.0037  -15.7267   18.7848 C   0  0  0  0  0  0  0  0  0  0  0  0
   11.2950  -16.9235   18.6883 O   0  0  0  0  0  0  0  0  0  0  0  0
   16.1817  -15.1535   20.2432 N   0  0  0  0  0  0  0  0  0  0  0  0
   15.2418  -14.3137   20.9345 C   0  0  0  0  0  0  0  0  0  0  0  0
   15.5265  -13.9589   22.1169 O   0  0  0  0  0  0  0  0  0  0  0  0
   13.9814  -13.8887   20.2605 C   0  0  0  0  0  0  0  0  0  0  0  0
   13.0160  -15.0646   20.2205 C   0  0  2  0  0  0  0  0  0  0  0  0
   11.8543  -14.7915   19.3973 N   0  0  0  0  0  0  0  0  0  0  0  0
   12.6354  -15.5208   21.5620 C   0  0  0  0  0  0  0  0  0  0  0  0
   13.4879  -16.0197   22.3785 O   0  0  0  0  0  0  0  0  0  0  0  0
    9.9696  -14.8769   24.0736 C   0  0  0  0  0  0  0  0  0  0  0  0
   11.0042  -15.7966   23.4594 C   0  0  2  0  0  0  0  0  0  0  0  0
   11.3082  -15.4641   22.1005 N   0  0  0  0  0  0  0  0  0  0  0  0
   10.6313  -17.2332   23.6208 C   0  0  0  0  0  0  0  0  0  0  0  0
   10.4385  -17.9716   22.6218 O   0  0  0  0  0  0  0  0  0  0  0  0
   10.4805  -17.8190   24.8676 O   0  0  0  0  0  0  0  0  0  0  0  0
  1  2  1  0
  2  3  2  0
  2  4  1  0
  4  5  1  0
  5  7  1  0
  5  6  1  1
  7  8  2  0
  9 10  1  0
 10 12  1  0
 11 10  2  0
 13 12  1  1
 13 15  1  0
 14  7  1  0
 14 13  1  0
 15 19  1  0
 16 15  2  0
 18 17  1  6
 19 18  1  0
 20 22  1  0
 20 18  1  0
 21 20  2  0
M  END
$$$$
