NNA.pdb
     RDKit          3D

 22 21  0  0  1  0  0  0  0  0999 V2000
    8.2572  -12.3452   17.2096 N   0  0  0  0  0  0  0  0  0  0  0  0
    7.7987  -13.6837   17.0820 C   0  0  0  0  0  0  0  0  0  0  0  0
    7.8175  -14.1927   15.9198 O   0  0  0  0  0  0  0  0  0  0  0  0
    7.3231  -14.4399   18.2603 C   0  0  0  0  0  0  0  0  0  0  0  0
    8.1669  -14.0154   19.4530 C   0  0  2  0  0  0  0  0  0  0  0  0
    9.4730  -13.6936   18.9738 N   0  0  0  0  0  0  0  0  0  0  0  0
    8.2286  -15.1339   20.4536 C   0  0  0  0  0  0  0  0  0  0  0  0
    7.1520  -15.5933   20.8491 O   0  0  0  0  0  0  0  0  0  0  0  0
   12.2715  -18.5010   23.5359 N   0  0  0  0  0  0  0  0  0  0  0  0
   11.0385  -18.4593   22.7981 C   0  0  0  0  0  0  0  0  0  0  0  0
   10.1189  -19.2607   23.1404 O   0  0  0  0  0  0  0  0  0  0  0  0
   10.8727  -17.4962   21.6718 C   0  0  0  0  0  0  0  0  0  0  0  0
    9.7015  -16.5722   21.9737 C   0  0  2  0  0  0  0  0  0  0  0  0
    9.4664  -15.6196   20.9064 N   0  0  0  0  0  0  0  0  0  0  0  0
    9.8354  -15.9075   23.2747 C   0  0  0  0  0  0  0  0  0  0  0  0
   10.8989  -15.2761   23.6101 O   0  0  0  0  0  0  0  0  0  0  0  0
    7.8700  -14.3938   25.9915 C   0  0  0  0  0  0  0  0  0  0  0  0
    9.0235  -15.2819   25.5740 C   0  0  2  0  0  0  0  0  0  0  0  0
    8.8251  -15.8861   24.2914 N   0  0  0  0  0  0  0  0  0  0  0  0
    9.3568  -16.2860   26.6273 C   0  0  0  0  0  0  0  0  0  0  0  0
    9.2897  -17.5197   26.3947 O   0  0  0  0  0  0  0  0  0  0  0  0
    9.7529  -15.9123   27.9016 O   0  0  0  0  0  0  0  0  0  0  0  0
  1  2  1  0
  2  3  2  0
  2  4  1  0
  4  5  1  0
  5  7  1  0
  5  6  1  6
  7  8  2  0
  9 10  1  0
 10 12  1  0
 11 10  2  0
 13 12  1  6
 13 15  1  0
 14  7  1  0
 14 13  1  0
 15 19  1  0
 16 15  2  0
 18 17  1  1
 19 18  1  0
 20 22  1  0
 20 18  1  0
 21 20  2  0
M  END
$$$$
