NNA.pdb
     RDKit          3D

 22 21  0  0  1  0  0  0  0  0999 V2000
    7.3160  -13.0904   16.3644 N   0  0  0  0  0  0  0  0  0  0  0  0
    8.2986  -13.6082   17.2501 C   0  0  0  0  0  0  0  0  0  0  0  0
    9.5136  -13.4618   16.9148 O   0  0  0  0  0  0  0  0  0  0  0  0
    7.9091  -14.2861   18.5052 C   0  0  0  0  0  0  0  0  0  0  0  0
    8.3082  -15.7492   18.3830 C   0  0  2  0  0  0  0  0  0  0  0  0
    7.4572  -16.3560   17.4101 N   0  0  0  0  0  0  0  0  0  0  0  0
    8.1605  -16.4274   19.7151 C   0  0  0  0  0  0  0  0  0  0  0  0
    7.0667  -16.3228   20.2801 O   0  0  0  0  0  0  0  0  0  0  0  0
    7.8217  -20.7706   20.8489 N   0  0  0  0  0  0  0  0  0  0  0  0
    8.9890  -20.0861   20.3635 C   0  0  0  0  0  0  0  0  0  0  0  0
    9.2558  -20.1782   19.1285 O   0  0  0  0  0  0  0  0  0  0  0  0
    9.8406  -19.3010   21.3026 C   0  0  0  0  0  0  0  0  0  0  0  0
    9.2275  -17.9216   21.4977 C   0  0  2  0  0  0  0  0  0  0  0  0
    9.2320  -17.1426   20.2750 N   0  0  0  0  0  0  0  0  0  0  0  0
    9.8427  -17.1891   22.6102 C   0  0  0  0  0  0  0  0  0  0  0  0
   11.1053  -16.9783   22.6707 O   0  0  0  0  0  0  0  0  0  0  0  0
    8.8593  -15.0728   25.5956 C   0  0  0  0  0  0  0  0  0  0  0  0
    9.7771  -16.0023   24.8292 C   0  0  2  0  0  0  0  0  0  0  0  0
    9.1274  -16.6403   23.7245 N   0  0  0  0  0  0  0  0  0  0  0  0
   10.4505  -16.9819   25.7325 C   0  0  0  0  0  0  0  0  0  0  0  0
   11.2329  -16.5995   26.6392 O   0  0  0  0  0  0  0  0  0  0  0  0
   10.2490  -18.3481   25.6180 O   0  0  0  0  0  0  0  0  0  0  0  0
  1  2  1  0
  2  3  2  0
  2  4  1  0
  4  5  1  0
  5  7  1  0
  5  6  1  6
  7  8  2  0
  9 10  1  0
 10 12  1  0
 11 10  2  0
 13 12  1  6
 13 15  1  0
 14  7  1  0
 14 13  1  0
 15 19  1  0
 16 15  2  0
 18 17  1  1
 19 18  1  0
 20 22  1  0
 20 18  1  0
 21 20  2  0
M  END
$$$$
