NNA.pdb
     RDKit          3D

 22 21  0  0  1  0  0  0  0  0999 V2000
    7.7068  -12.6393   16.5976 N   0  0  0  0  0  0  0  0  0  0  0  0
    8.3036  -13.7093   17.3166 C   0  0  0  0  0  0  0  0  0  0  0  0
    8.2955  -14.8519   16.7649 O   0  0  0  0  0  0  0  0  0  0  0  0
    8.9049  -13.4876   18.6492 C   0  0  0  0  0  0  0  0  0  0  0  0
    9.3693  -14.8370   19.1767 C   0  0  2  0  0  0  0  0  0  0  0  0
    8.2637  -15.7381   19.1095 N   0  0  0  0  0  0  0  0  0  0  0  0
    9.8493  -14.6895   20.5923 C   0  0  0  0  0  0  0  0  0  0  0  0
   10.7800  -13.9013   20.7902 O   0  0  0  0  0  0  0  0  0  0  0  0
    7.6651  -13.8192   22.9809 N   0  0  0  0  0  0  0  0  0  0  0  0
    7.5179  -14.9624   23.8400 C   0  0  0  0  0  0  0  0  0  0  0  0
    6.4330  -15.0808   24.4834 O   0  0  0  0  0  0  0  0  0  0  0  0
    8.6200  -15.9605   23.9527 C   0  0  0  0  0  0  0  0  0  0  0  0
    9.7347  -15.5841   22.9872 C   0  0  2  0  0  0  0  0  0  0  0  0
    9.2525  -15.4256   21.6292 N   0  0  0  0  0  0  0  0  0  0  0  0
   10.8696  -16.5115   23.0553 C   0  0  0  0  0  0  0  0  0  0  0  0
   10.7492  -17.7561   22.7749 O   0  0  0  0  0  0  0  0  0  0  0  0
   13.3874  -17.2123   21.5621 C   0  0  0  0  0  0  0  0  0  0  0  0
   13.3563  -16.9029   23.0442 C   0  0  2  0  0  0  0  0  0  0  0  0
   12.2039  -16.1468   23.4312 N   0  0  0  0  0  0  0  0  0  0  0  0
   14.6286  -16.2707   23.5033 C   0  0  0  0  0  0  0  0  0  0  0  0
   15.5192  -16.9451   24.0798 O   0  0  0  0  0  0  0  0  0  0  0  0
   14.8890  -14.9222   23.3186 O   0  0  0  0  0  0  0  0  0  0  0  0
  1  2  1  0
  2  3  2  0
  2  4  1  0
  4  5  1  0
  5  7  1  0
  5  6  1  1
  7  8  2  0
  9 10  1  0
 10 12  1  0
 11 10  2  0
 13 12  1  1
 13 15  1  0
 14  7  1  0
 14 13  1  0
 15 19  1  0
 16 15  2  0
 18 17  1  6
 19 18  1  0
 20 22  1  0
 20 18  1  0
 21 20  2  0
M  END
$$$$
