NNA.pdb
     RDKit          3D

 22 21  0  0  1  0  0  0  0  0999 V2000
    1.3549  -18.7772   21.1727 N   0  0  0  0  0  0  0  0  0  0  0  0
    2.6600  -19.0892   20.7063 C   0  0  0  0  0  0  0  0  0  0  0  0
    2.8022  -20.1797   20.0735 O   0  0  0  0  0  0  0  0  0  0  0  0
    3.7947  -18.1740   20.9541 C   0  0  0  0  0  0  0  0  0  0  0  0
    5.0781  -18.9750   20.7919 C   0  0  2  0  0  0  0  0  0  0  0  0
    5.1292  -19.9389   21.8441 N   0  0  0  0  0  0  0  0  0  0  0  0
    6.2621  -18.0532   20.8575 C   0  0  0  0  0  0  0  0  0  0  0  0
    6.7008  -17.6256   19.7845 O   0  0  0  0  0  0  0  0  0  0  0  0
    7.9247  -13.4285   24.2534 N   0  0  0  0  0  0  0  0  0  0  0  0
    7.9038  -14.2468   23.0717 C   0  0  0  0  0  0  0  0  0  0  0  0
    8.6926  -13.9411   22.1286 O   0  0  0  0  0  0  0  0  0  0  0  0
    6.9755  -15.4105   22.9838 C   0  0  0  0  0  0  0  0  0  0  0  0
    7.7153  -16.5941   22.3768 C   0  0  2  0  0  0  0  0  0  0  0  0
    6.8299  -17.7069   22.0948 N   0  0  0  0  0  0  0  0  0  0  0  0
    8.8665  -17.0083   23.1866 C   0  0  0  0  0  0  0  0  0  0  0  0
    9.7549  -16.1742   23.5831 O   0  0  0  0  0  0  0  0  0  0  0  0
   11.5770  -18.2224   23.6296 C   0  0  0  0  0  0  0  0  0  0  0  0
   10.3209  -18.7320   24.3049 C   0  0  2  0  0  0  0  0  0  0  0  0
    9.1249  -18.3511   23.6164 N   0  0  0  0  0  0  0  0  0  0  0  0
   10.2832  -18.3638   25.7512 C   0  0  0  0  0  0  0  0  0  0  0  0
    9.3796  -17.6197   26.2098 O   0  0  0  0  0  0  0  0  0  0  0  0
   11.2329  -18.8192   26.6518 O   0  0  0  0  0  0  0  0  0  0  0  0
  1  2  1  0
  2  3  2  0
  2  4  1  0
  4  5  1  0
  5  7  1  0
  5  6  1  1
  7  8  2  0
  9 10  1  0
 10 12  1  0
 11 10  2  0
 13 12  1  1
 13 15  1  0
 14  7  1  0
 14 13  1  0
 15 19  1  0
 16 15  2  0
 18 17  1  6
 19 18  1  0
 20 22  1  0
 20 18  1  0
 21 20  2  0
M  END
$$$$
