NNA.pdb
     RDKit          3D

 22 21  0  0  1  0  0  0  0  0999 V2000
    4.8810  -20.6997   20.1538 N   0  0  0  0  0  0  0  0  0  0  0  0
    4.6311  -22.0732   20.4169 C   0  0  0  0  0  0  0  0  0  0  0  0
    4.2465  -22.7878   19.4415 O   0  0  0  0  0  0  0  0  0  0  0  0
    4.8153  -22.6332   21.7730 C   0  0  0  0  0  0  0  0  0  0  0  0
    5.1840  -21.4850   22.7007 C   0  0  2  0  0  0  0  0  0  0  0  0
    4.3135  -20.3908   22.4114 N   0  0  0  0  0  0  0  0  0  0  0  0
    6.6180  -21.0961   22.4802 C   0  0  0  0  0  0  0  0  0  0  0  0
    7.4803  -21.8167   22.9936 O   0  0  0  0  0  0  0  0  0  0  0  0
    6.7737  -18.7555   18.5233 N   0  0  0  0  0  0  0  0  0  0  0  0
    7.9849  -19.0398   19.2435 C   0  0  0  0  0  0  0  0  0  0  0  0
    8.7565  -19.9274   18.7727 O   0  0  0  0  0  0  0  0  0  0  0  0
    8.2992  -18.3011   20.5001 C   0  0  0  0  0  0  0  0  0  0  0  0
    8.2105  -19.2604   21.6784 C   0  0  2  0  0  0  0  0  0  0  0  0
    6.9409  -19.9592   21.7212 N   0  0  0  0  0  0  0  0  0  0  0  0
    8.5128  -18.6055   22.9560 C   0  0  0  0  0  0  0  0  0  0  0  0
    9.6711  -18.1230   23.2161 O   0  0  0  0  0  0  0  0  0  0  0  0
    6.7670  -16.8801   25.7496 C   0  0  0  0  0  0  0  0  0  0  0  0
    7.9028  -17.7433   25.2411 C   0  0  2  0  0  0  0  0  0  0  0  0
    7.5784  -18.4331   24.0293 N   0  0  0  0  0  0  0  0  0  0  0  0
    8.4117  -18.6658   26.2989 C   0  0  0  0  0  0  0  0  0  0  0  0
    8.3281  -19.9134   26.1693 O   0  0  0  0  0  0  0  0  0  0  0  0
    8.9961  -18.1977   27.4650 O   0  0  0  0  0  0  0  0  0  0  0  0
  1  2  1  0
  2  3  2  0
  2  4  1  0
  4  5  1  0
  5  7  1  0
  5  6  1  6
  7  8  2  0
  9 10  1  0
 10 12  1  0
 11 10  2  0
 13 12  1  6
 13 15  1  0
 14  7  1  0
 14 13  1  0
 15 19  1  0
 16 15  2  0
 18 17  1  1
 19 18  1  0
 20 22  1  0
 20 18  1  0
 21 20  2  0
M  END
$$$$
