EAC.pdb
     RDKit          3D

 21 20  0  0  1  0  0  0  0  0999 V2000
    9.2736  -14.0914   18.7489 N   0  0  0  0  0  0  0  0  0  0  0  0
    9.5718  -15.1267   19.6853 C   0  0  1  0  0  0  0  0  0  0  0  0
   11.0193  -15.3556   19.9860 C   0  0  0  0  0  0  0  0  0  0  0  0
   11.8753  -14.2378   19.5052 C   0  0  0  0  0  0  0  0  0  0  0  0
   13.3089  -14.3326   19.6627 C   0  0  0  0  0  0  0  0  0  0  0  0
   14.1255  -14.1167   18.7628 O   0  0  0  0  0  0  0  0  0  0  0  0
    8.8476  -14.8510   20.9558 C   0  0  0  0  0  0  0  0  0  0  0  0
    8.7334  -13.6418   21.3096 O   0  0  0  0  0  0  0  0  0  0  0  0
   13.7825  -14.6998   20.9449 O   0  0  0  0  0  0  0  0  0  0  0  0
    6.7600  -16.9053   23.2375 C   0  0  0  0  0  0  0  0  0  0  0  0
    7.4794  -15.6280   22.8422 C   0  0  2  0  0  0  0  0  0  0  0  0
    8.3272  -15.9214   21.7050 N   0  0  0  0  0  0  0  0  0  0  0  0
    8.3141  -15.2265   24.0105 C   0  0  0  0  0  0  0  0  0  0  0  0
    9.5048  -15.5505   24.0216 O   0  0  0  0  0  0  0  0  0  0  0  0
    7.7954  -14.4880   25.1083 N   0  0  0  0  0  0  0  0  0  0  0  0
    8.5510  -14.1163   26.2644 C   0  0  1  0  0  0  0  0  0  0  0  0
    7.9228  -12.9471   27.0183 C   0  0  0  0  0  0  0  0  0  0  0  0
    6.8116  -12.1042   25.8566 S   0  0  0  0  0  0  0  0  0  0  0  0
    8.8710  -15.2279   27.1701 C   0  0  0  0  0  0  0  0  0  0  0  0
    8.2872  -16.3259   26.9648 O   0  0  0  0  0  0  0  0  0  0  0  0
    9.7474  -15.1872   28.2224 O   0  0  0  0  0  0  0  0  0  0  0  0
  2  1  1  6
  3  2  1  0
  4  5  1  0
  4  3  1  0
  5  6  2  0
  7  2  1  0
  8  7  2  0
  9  5  1  0
 11 10  1  1
 11 13  1  0
 11 12  1  0
 12  7  1  0
 13 15  1  0
 14 13  2  0
 15 16  1  0
 16 19  1  0
 16 17  1  1
 18 17  1  0
 19 20  2  0
 19 21  1  0
M  END
$$$$
