EAC.pdb
     RDKit          3D

 21 20  0  0  1  0  0  0  0  0999 V2000
    7.4767  -18.2857   19.6071 N   0  0  0  0  0  0  0  0  0  0  0  0
    7.0449  -17.5570   20.7561 C   0  0  1  0  0  0  0  0  0  0  0  0
    7.0994  -18.2820   22.0634 C   0  0  0  0  0  0  0  0  0  0  0  0
    6.1816  -19.4526   22.0940 C   0  0  0  0  0  0  0  0  0  0  0  0
    6.0495  -20.2102   23.3177 C   0  0  0  0  0  0  0  0  0  0  0  0
    5.2642  -21.1493   23.4757 O   0  0  0  0  0  0  0  0  0  0  0  0
    7.8413  -16.3041   20.8598 C   0  0  0  0  0  0  0  0  0  0  0  0
    9.0890  -16.4208   21.0336 O   0  0  0  0  0  0  0  0  0  0  0  0
    6.8884  -19.8295   24.3923 O   0  0  0  0  0  0  0  0  0  0  0  0
    7.1114  -12.6664   20.5665 C   0  0  0  0  0  0  0  0  0  0  0  0
    7.9700  -13.8533   20.9655 C   0  0  2  0  0  0  0  0  0  0  0  0
    7.1935  -15.0595   20.7649 N   0  0  0  0  0  0  0  0  0  0  0  0
    8.2876  -13.6861   22.4126 C   0  0  0  0  0  0  0  0  0  0  0  0
    9.0481  -12.7734   22.7462 O   0  0  0  0  0  0  0  0  0  0  0  0
    7.7511  -14.5328   23.4201 N   0  0  0  0  0  0  0  0  0  0  0  0
    8.0030  -14.3864   24.8204 C   0  0  1  0  0  0  0  0  0  0  0  0
    7.1682  -13.2732   25.4481 C   0  0  0  0  0  0  0  0  0  0  0  0
    5.4647  -13.8896   25.5621 S   0  0  0  0  0  0  0  0  0  0  0  0
    7.9039  -15.6316   25.5938 C   0  0  0  0  0  0  0  0  0  0  0  0
    8.2445  -15.5864   26.8064 O   0  0  0  0  0  0  0  0  0  0  0  0
    7.4748  -16.8444   25.1226 O   0  0  0  0  0  0  0  0  0  0  0  0
  2  1  1  6
  3  2  1  0
  4  5  1  0
  4  3  1  0
  5  6  2  0
  7  2  1  0
  8  7  2  0
  9  5  1  0
 11 10  1  1
 11 13  1  0
 11 12  1  0
 12  7  1  0
 13 15  1  0
 14 13  2  0
 15 16  1  0
 16 19  1  0
 16 17  1  1
 18 17  1  0
 19 20  2  0
 19 21  1  0
M  END
$$$$
