EAC.pdb
     RDKit          3D

 21 20  0  0  1  0  0  0  0  0999 V2000
    8.1373  -18.0245   18.2238 N   0  0  0  0  0  0  0  0  0  0  0  0
    7.2174  -16.9961   18.5899 C   0  0  1  0  0  0  0  0  0  0  0  0
    5.8779  -17.4453   19.0816 C   0  0  0  0  0  0  0  0  0  0  0  0
    5.9841  -18.5730   20.0463 C   0  0  0  0  0  0  0  0  0  0  0  0
    4.7809  -19.0909   20.6571 C   0  0  0  0  0  0  0  0  0  0  0  0
    3.6387  -18.7189   20.3739 O   0  0  0  0  0  0  0  0  0  0  0  0
    7.8494  -16.1285   19.6207 C   0  0  0  0  0  0  0  0  0  0  0  0
    8.6794  -16.6698   20.4072 O   0  0  0  0  0  0  0  0  0  0  0  0
    4.9514  -20.0912   21.6439 O   0  0  0  0  0  0  0  0  0  0  0  0
    7.5962  -12.5264   20.5519 C   0  0  0  0  0  0  0  0  0  0  0  0
    8.1476  -13.9347   20.6849 C   0  0  2  0  0  0  0  0  0  0  0  0
    7.5085  -14.7657   19.6853 N   0  0  0  0  0  0  0  0  0  0  0  0
    7.7852  -14.4101   22.0507 C   0  0  0  0  0  0  0  0  0  0  0  0
    6.5998  -14.3720   22.3915 O   0  0  0  0  0  0  0  0  0  0  0  0
    8.7470  -14.9040   22.9731 N   0  0  0  0  0  0  0  0  0  0  0  0
    8.4280  -15.5387   24.2145 C   0  0  1  0  0  0  0  0  0  0  0  0
    7.3981  -16.6533   24.0499 C   0  0  0  0  0  0  0  0  0  0  0  0
    7.1313  -17.3742   25.6942 S   0  0  0  0  0  0  0  0  0  0  0  0
    9.5922  -15.9946   24.9860 C   0  0  0  0  0  0  0  0  0  0  0  0
   10.6923  -16.0769   24.3763 O   0  0  0  0  0  0  0  0  0  0  0  0
    9.5989  -16.3413   26.3115 O   0  0  0  0  0  0  0  0  0  0  0  0
  2  1  1  1
  3  2  1  0
  4  5  1  0
  4  3  1  0
  5  6  2  0
  7  2  1  0
  8  7  2  0
  9  5  1  0
 11 10  1  1
 11 13  1  0
 11 12  1  0
 12  7  1  0
 13 15  1  0
 14 13  2  0
 15 16  1  0
 16 19  1  0
 16 17  1  6
 18 17  1  0
 19 20  2  0
 19 21  1  0
M  END
$$$$
