EAC.pdb
     RDKit          3D

 21 20  0  0  1  0  0  0  0  0999 V2000
    7.7945  -17.8037   18.0793 N   0  0  0  0  0  0  0  0  0  0  0  0
    9.0814  -17.3027   17.7176 C   0  0  1  0  0  0  0  0  0  0  0  0
    9.3587  -17.1756   16.2531 C   0  0  0  0  0  0  0  0  0  0  0  0
    8.1979  -16.6167   15.5091 C   0  0  0  0  0  0  0  0  0  0  0  0
    8.3037  -16.4288   14.0799 C   0  0  0  0  0  0  0  0  0  0  0  0
    7.3651  -16.5542   13.2883 O   0  0  0  0  0  0  0  0  0  0  0  0
    9.2845  -15.9801   18.3689 C   0  0  0  0  0  0  0  0  0  0  0  0
   10.4543  -15.4987   18.3553 O   0  0  0  0  0  0  0  0  0  0  0  0
    9.5805  -16.0780   13.5798 O   0  0  0  0  0  0  0  0  0  0  0  0
    7.3273  -13.1268   19.4039 C   0  0  0  0  0  0  0  0  0  0  0  0
    8.4362  -14.1138   19.7222 C   0  0  2  0  0  0  0  0  0  0  0  0
    8.1927  -15.3251   18.9661 N   0  0  0  0  0  0  0  0  0  0  0  0
    8.3507  -14.3988   21.1831 C   0  0  0  0  0  0  0  0  0  0  0  0
    7.2410  -14.3775   21.7226 O   0  0  0  0  0  0  0  0  0  0  0  0
    9.4922  -14.6933   21.9769 N   0  0  0  0  0  0  0  0  0  0  0  0
    9.4831  -15.5477   23.1239 C   0  0  1  0  0  0  0  0  0  0  0  0
    8.8092  -16.8886   22.8447 C   0  0  0  0  0  0  0  0  0  0  0  0
    7.1720  -16.8308   23.6263 S   0  0  0  0  0  0  0  0  0  0  0  0
   10.7937  -15.7294   23.7624 C   0  0  0  0  0  0  0  0  0  0  0  0
   11.8127  -15.6271   23.0278 O   0  0  0  0  0  0  0  0  0  0  0  0
   11.0177  -16.0009   25.0865 O   0  0  0  0  0  0  0  0  0  0  0  0
  2  1  1  6
  3  2  1  0
  4  5  1  0
  4  3  1  0
  5  6  2  0
  7  2  1  0
  8  7  2  0
  9  5  1  0
 11 10  1  6
 11 13  1  0
 11 12  1  0
 12  7  1  0
 13 15  1  0
 14 13  2  0
 15 16  1  0
 16 19  1  0
 16 17  1  6
 18 17  1  0
 19 20  2  0
 19 21  1  0
M  END
$$$$
