EAC.pdb
     RDKit          3D

 21 20  0  0  1  0  0  0  0  0999 V2000
   12.5725  -16.8807   20.7430 N   0  0  0  0  0  0  0  0  0  0  0  0
   11.1929  -16.5145   20.7612 C   0  0  1  0  0  0  0  0  0  0  0  0
   10.3133  -17.1833   19.7529 C   0  0  0  0  0  0  0  0  0  0  0  0
   11.0482  -18.2022   18.9559 C   0  0  0  0  0  0  0  0  0  0  0  0
   10.3339  -18.9592   17.9531 C   0  0  0  0  0  0  0  0  0  0  0  0
    9.1437  -18.7945   17.6708 O   0  0  0  0  0  0  0  0  0  0  0  0
   10.6468  -16.7597   22.1237 C   0  0  0  0  0  0  0  0  0  0  0  0
    9.4573  -16.3920   22.3484 O   0  0  0  0  0  0  0  0  0  0  0  0
   11.0716  -19.9503   17.2626 O   0  0  0  0  0  0  0  0  0  0  0  0
   11.5935  -18.9013   24.9473 C   0  0  0  0  0  0  0  0  0  0  0  0
   10.8777  -17.6850   24.3875 C   0  0  2  0  0  0  0  0  0  0  0  0
   11.4548  -17.3772   23.0950 N   0  0  0  0  0  0  0  0  0  0  0  0
   11.1288  -16.5642   25.3380 C   0  0  0  0  0  0  0  0  0  0  0  0
   11.6202  -15.5204   24.8999 O   0  0  0  0  0  0  0  0  0  0  0  0
   10.8258  -16.6492   26.7239 N   0  0  0  0  0  0  0  0  0  0  0  0
   10.5828  -15.5225   27.5709 C   0  0  1  0  0  0  0  0  0  0  0  0
    9.4618  -14.6303   27.0442 C   0  0  0  0  0  0  0  0  0  0  0  0
    9.3263  -13.2232   28.1829 S   0  0  0  0  0  0  0  0  0  0  0  0
   10.3829  -15.8538   28.9881 C   0  0  0  0  0  0  0  0  0  0  0  0
    9.7444  -16.9086   29.2497 O   0  0  0  0  0  0  0  0  0  0  0  0
   10.8254  -15.1238   30.0597 O   0  0  0  0  0  0  0  0  0  0  0  0
  2  1  1  1
  3  2  1  0
  4  5  1  0
  4  3  1  0
  5  6  2  0
  7  2  1  0
  8  7  2  0
  9  5  1  0
 11 10  1  1
 11 13  1  0
 11 12  1  0
 12  7  1  0
 13 15  1  0
 14 13  2  0
 15 16  1  0
 16 19  1  0
 16 17  1  6
 18 17  1  0
 19 20  2  0
 19 21  1  0
M  END
$$$$
