EAC.pdb
     RDKit          3D

 21 20  0  0  1  0  0  0  0  0999 V2000
   10.3654  -16.9420   19.7404 N   0  0  0  0  0  0  0  0  0  0  0  0
   10.1016  -17.6388   20.9580 C   0  0  1  0  0  0  0  0  0  0  0  0
   11.2905  -18.1849   21.6835 C   0  0  0  0  0  0  0  0  0  0  0  0
   12.4686  -17.2812   21.5892 C   0  0  0  0  0  0  0  0  0  0  0  0
   13.6975  -17.6574   22.2505 C   0  0  0  0  0  0  0  0  0  0  0  0
   14.6196  -18.2751   21.7106 O   0  0  0  0  0  0  0  0  0  0  0  0
    9.3422  -16.7427   21.8717 C   0  0  0  0  0  0  0  0  0  0  0  0
    9.5558  -15.4993   21.7769 O   0  0  0  0  0  0  0  0  0  0  0  0
   13.8273  -17.2802   23.6086 O   0  0  0  0  0  0  0  0  0  0  0  0
    6.5350  -17.2572   24.2630 C   0  0  0  0  0  0  0  0  0  0  0  0
    7.5487  -16.4085   23.5167 C   0  0  2  0  0  0  0  0  0  0  0  0
    8.4336  -17.2966   22.7910 N   0  0  0  0  0  0  0  0  0  0  0  0
    8.3172  -15.6529   24.5468 C   0  0  0  0  0  0  0  0  0  0  0  0
    9.3962  -16.1127   24.9305 O   0  0  0  0  0  0  0  0  0  0  0  0
    7.8585  -14.4281   25.1030 N   0  0  0  0  0  0  0  0  0  0  0  0
    8.4760  -13.7568   26.2047 C   0  0  1  0  0  0  0  0  0  0  0  0
    7.9919  -12.3168   26.3534 C   0  0  0  0  0  0  0  0  0  0  0  0
    6.1787  -12.3720   26.4158 S   0  0  0  0  0  0  0  0  0  0  0  0
    8.4040  -14.4808   27.4811 C   0  0  0  0  0  0  0  0  0  0  0  0
    7.5619  -15.4145   27.5683 O   0  0  0  0  0  0  0  0  0  0  0  0
    9.1675  -14.2385   28.5926 O   0  0  0  0  0  0  0  0  0  0  0  0
  2  1  1  6
  3  2  1  0
  4  5  1  0
  4  3  1  0
  5  6  2  0
  7  2  1  0
  8  7  2  0
  9  5  1  0
 11 10  1  1
 11 13  1  0
 11 12  1  0
 12  7  1  0
 13 15  1  0
 14 13  2  0
 15 16  1  0
 16 19  1  0
 16 17  1  1
 18 17  1  0
 19 20  2  0
 19 21  1  0
M  END
$$$$
