EAC.pdb
     RDKit          3D

 21 20  0  0  1  0  0  0  0  0999 V2000
    7.1014  -19.8052   23.8200 N   0  0  0  0  0  0  0  0  0  0  0  0
    6.7908  -18.6201   24.5527 C   0  0  1  0  0  0  0  0  0  0  0  0
    6.9079  -18.7080   26.0415 C   0  0  0  0  0  0  0  0  0  0  0  0
    8.2284  -19.2434   26.4693 C   0  0  0  0  0  0  0  0  0  0  0  0
    8.4796  -19.4517   27.8773 C   0  0  0  0  0  0  0  0  0  0  0  0
    8.7561  -18.5534   28.6772 O   0  0  0  0  0  0  0  0  0  0  0  0
    7.6507  -17.5097   24.0607 C   0  0  0  0  0  0  0  0  0  0  0  0
    8.8824  -17.7531   23.9048 O   0  0  0  0  0  0  0  0  0  0  0  0
    8.3968  -20.7850   28.3451 O   0  0  0  0  0  0  0  0  0  0  0  0
    6.9951  -14.1725   22.5951 C   0  0  0  0  0  0  0  0  0  0  0  0
    7.9071  -15.2203   23.2078 C   0  0  2  0  0  0  0  0  0  0  0  0
    7.0777  -16.2537   23.7930 N   0  0  0  0  0  0  0  0  0  0  0  0
    8.6942  -14.5346   24.2722 C   0  0  0  0  0  0  0  0  0  0  0  0
    9.4762  -13.6393   23.9410 O   0  0  0  0  0  0  0  0  0  0  0  0
    8.5805  -14.8695   25.6487 N   0  0  0  0  0  0  0  0  0  0  0  0
    9.2310  -14.1657   26.7104 C   0  0  1  0  0  0  0  0  0  0  0  0
    8.2385  -13.5390   27.6863 C   0  0  0  0  0  0  0  0  0  0  0  0
    7.0576  -12.5794   26.6967 S   0  0  0  0  0  0  0  0  0  0  0  0
   10.2612  -14.9390   27.4167 C   0  0  0  0  0  0  0  0  0  0  0  0
   10.4642  -16.1205   27.0274 O   0  0  0  0  0  0  0  0  0  0  0  0
   11.0276  -14.4987   28.4636 O   0  0  0  0  0  0  0  0  0  0  0  0
  2  1  1  6
  3  2  1  0
  4  5  1  0
  4  3  1  0
  5  6  2  0
  7  2  1  0
  8  7  2  0
  9  5  1  0
 11 10  1  1
 11 13  1  0
 11 12  1  0
 12  7  1  0
 13 15  1  0
 14 13  2  0
 15 16  1  0
 16 19  1  0
 16 17  1  1
 18 17  1  0
 19 20  2  0
 19 21  1  0
M  END
$$$$
