EAC.pdb
     RDKit          3D

 21 20  0  0  1  0  0  0  0  0999 V2000
    8.6259  -16.5999   19.4155 N   0  0  0  0  0  0  0  0  0  0  0  0
    9.1675  -16.8816   20.7059 C   0  0  1  0  0  0  0  0  0  0  0  0
   10.5724  -16.4299   20.9511 C   0  0  0  0  0  0  0  0  0  0  0  0
   11.5606  -17.2231   20.1715 C   0  0  0  0  0  0  0  0  0  0  0  0
   12.9709  -16.9687   20.3590 C   0  0  0  0  0  0  0  0  0  0  0  0
   13.4764  -15.8438   20.4093 O   0  0  0  0  0  0  0  0  0  0  0  0
    8.2775  -16.2909   21.7420 C   0  0  0  0  0  0  0  0  0  0  0  0
    7.7259  -15.1846   21.4727 O   0  0  0  0  0  0  0  0  0  0  0  0
   13.8072  -18.1029   20.4911 O   0  0  0  0  0  0  0  0  0  0  0  0
    6.7099  -17.4828   24.8614 C   0  0  0  0  0  0  0  0  0  0  0  0
    7.2161  -16.3744   23.9557 C   0  0  2  0  0  0  0  0  0  0  0  0
    8.0852  -16.9671   22.9599 N   0  0  0  0  0  0  0  0  0  0  0  0
    7.9923  -15.4373   24.8171 C   0  0  0  0  0  0  0  0  0  0  0  0
    9.2213  -15.5449   24.8448 O   0  0  0  0  0  0  0  0  0  0  0  0
    7.3757  -14.4281   25.6052 N   0  0  0  0  0  0  0  0  0  0  0  0
    8.0859  -13.4494   26.3691 C   0  0  1  0  0  0  0  0  0  0  0  0
    7.1794  -12.3218   26.8558 C   0  0  0  0  0  0  0  0  0  0  0  0
    5.5390  -13.0459   27.1377 S   0  0  0  0  0  0  0  0  0  0  0  0
    8.8948  -13.9979   27.4660 C   0  0  0  0  0  0  0  0  0  0  0  0
    9.6407  -13.1960   28.0899 O   0  0  0  0  0  0  0  0  0  0  0  0
    8.9178  -15.3039   27.8794 O   0  0  0  0  0  0  0  0  0  0  0  0
  2  1  1  6
  3  2  1  0
  4  5  1  0
  4  3  1  0
  5  6  2  0
  7  2  1  0
  8  7  2  0
  9  5  1  0
 11 10  1  1
 11 13  1  0
 11 12  1  0
 12  7  1  0
 13 15  1  0
 14 13  2  0
 15 16  1  0
 16 19  1  0
 16 17  1  1
 18 17  1  0
 19 20  2  0
 19 21  1  0
M  END
$$$$
