EAC.pdb
     RDKit          3D

 21 20  0  0  1  0  0  0  0  0999 V2000
    8.6011  -17.6127   20.1185 N   0  0  0  0  0  0  0  0  0  0  0  0
    9.2764  -17.9413   21.3325 C   0  0  1  0  0  0  0  0  0  0  0  0
   10.7679  -17.8261   21.3167 C   0  0  0  0  0  0  0  0  0  0  0  0
   11.3621  -18.4080   20.0832 C   0  0  0  0  0  0  0  0  0  0  0  0
   12.7831  -18.2726   19.8562 C   0  0  0  0  0  0  0  0  0  0  0  0
   13.5642  -17.7177   20.6342 O   0  0  0  0  0  0  0  0  0  0  0  0
    8.7337  -17.0958   22.4303 C   0  0  0  0  0  0  0  0  0  0  0  0
    8.6866  -15.8469   22.2336 O   0  0  0  0  0  0  0  0  0  0  0  0
   13.2877  -18.8216   18.6531 O   0  0  0  0  0  0  0  0  0  0  0  0
    6.9369  -17.7284   25.6012 C   0  0  0  0  0  0  0  0  0  0  0  0
    7.7745  -16.8601   24.6795 C   0  0  2  0  0  0  0  0  0  0  0  0
    8.3022  -17.7006   23.6243 N   0  0  0  0  0  0  0  0  0  0  0  0
    8.8911  -16.3134   25.5024 C   0  0  0  0  0  0  0  0  0  0  0  0
    9.9935  -16.8642   25.4381 O   0  0  0  0  0  0  0  0  0  0  0  0
    8.7374  -15.1868   26.3551 N   0  0  0  0  0  0  0  0  0  0  0  0
    9.7549  -14.6848   27.2259 C   0  0  1  0  0  0  0  0  0  0  0  0
    9.4424  -13.2807   27.7365 C   0  0  0  0  0  0  0  0  0  0  0  0
    8.6528  -12.3842   26.3699 S   0  0  0  0  0  0  0  0  0  0  0  0
   10.1183  -15.5869   28.3270 C   0  0  0  0  0  0  0  0  0  0  0  0
    9.3917  -16.6012   28.5058 O   0  0  0  0  0  0  0  0  0  0  0  0
   11.1761  -15.4322   29.1839 O   0  0  0  0  0  0  0  0  0  0  0  0
  2  1  1  6
  3  2  1  0
  4  5  1  0
  4  3  1  0
  5  6  2  0
  7  2  1  0
  8  7  2  0
  9  5  1  0
 11 10  1  1
 11 13  1  0
 11 12  1  0
 12  7  1  0
 13 15  1  0
 14 13  2  0
 15 16  1  0
 16 19  1  0
 16 17  1  1
 18 17  1  0
 19 20  2  0
 19 21  1  0
M  END
$$$$
