EAC.pdb
     RDKit          3D

 21 20  0  0  1  0  0  0  0  0999 V2000
    9.8324  -16.7612   20.0613 N   0  0  0  0  0  0  0  0  0  0  0  0
    9.9750  -17.5345   21.2526 C   0  0  1  0  0  0  0  0  0  0  0  0
   11.2523  -18.2990   21.4011 C   0  0  0  0  0  0  0  0  0  0  0  0
   12.4386  -17.4895   21.0124 C   0  0  0  0  0  0  0  0  0  0  0  0
   13.7041  -17.7394   21.6643 C   0  0  0  0  0  0  0  0  0  0  0  0
   14.7438  -17.1162   21.4319 O   0  0  0  0  0  0  0  0  0  0  0  0
    9.8012  -16.6420   22.4307 C   0  0  0  0  0  0  0  0  0  0  0  0
   10.5580  -15.6314   22.5113 O   0  0  0  0  0  0  0  0  0  0  0  0
   13.7259  -18.7738   22.6302 O   0  0  0  0  0  0  0  0  0  0  0  0
    7.2777  -16.3638   25.1392 C   0  0  0  0  0  0  0  0  0  0  0  0
    8.5975  -16.0107   24.4768 C   0  0  2  0  0  0  0  0  0  0  0  0
    8.8236  -16.9466   23.3946 N   0  0  0  0  0  0  0  0  0  0  0  0
    9.6548  -16.1680   25.5162 C   0  0  0  0  0  0  0  0  0  0  0  0
   10.2882  -17.2263   25.5554 O   0  0  0  0  0  0  0  0  0  0  0  0
    9.9615  -15.1512   26.4606 N   0  0  0  0  0  0  0  0  0  0  0  0
   10.9140  -15.2886   27.5187 C   0  0  1  0  0  0  0  0  0  0  0  0
   11.0002  -14.0378   28.3894 C   0  0  0  0  0  0  0  0  0  0  0  0
    9.2966  -13.5287   28.7544 S   0  0  0  0  0  0  0  0  0  0  0  0
   10.7520  -16.4995   28.3348 C   0  0  0  0  0  0  0  0  0  0  0  0
   11.6961  -16.8012   29.1135 O   0  0  0  0  0  0  0  0  0  0  0  0
    9.6683  -17.3378   28.3321 O   0  0  0  0  0  0  0  0  0  0  0  0
  2  1  1  6
  3  2  1  0
  4  5  1  0
  4  3  1  0
  5  6  2  0
  7  2  1  0
  8  7  2  0
  9  5  1  0
 11 10  1  1
 11 13  1  0
 11 12  1  0
 12  7  1  0
 13 15  1  0
 14 13  2  0
 15 16  1  0
 16 19  1  0
 16 17  1  1
 18 17  1  0
 19 20  2  0
 19 21  1  0
M  END
$$$$
