EAC.pdb
     RDKit          3D

 21 20  0  0  1  0  0  0  0  0999 V2000
   11.2522  -19.3407   21.4563 N   0  0  0  0  0  0  0  0  0  0  0  0
   11.4060  -17.9413   21.2205 C   0  0  1  0  0  0  0  0  0  0  0  0
   11.2302  -17.4810   19.8080 C   0  0  0  0  0  0  0  0  0  0  0  0
   10.6979  -18.5574   18.9296 C   0  0  0  0  0  0  0  0  0  0  0  0
   10.4878  -18.2801   17.5268 C   0  0  0  0  0  0  0  0  0  0  0  0
    9.3827  -18.0905   17.0110 O   0  0  0  0  0  0  0  0  0  0  0  0
   10.4606  -17.1978   22.0968 C   0  0  0  0  0  0  0  0  0  0  0  0
   10.2011  -15.9989   21.7874 O   0  0  0  0  0  0  0  0  0  0  0  0
   11.6434  -18.2281   16.7112 O   0  0  0  0  0  0  0  0  0  0  0  0
    8.2476  -18.0701   24.9445 C   0  0  0  0  0  0  0  0  0  0  0  0
    9.0136  -17.0858   24.0787 C   0  0  2  0  0  0  0  0  0  0  0  0
    9.9008  -17.8390   23.2162 N   0  0  0  0  0  0  0  0  0  0  0  0
    9.8084  -16.2285   25.0040 C   0  0  0  0  0  0  0  0  0  0  0  0
   10.3919  -15.2453   24.5397 O   0  0  0  0  0  0  0  0  0  0  0  0
    9.9208  -16.4973   26.3950 N   0  0  0  0  0  0  0  0  0  0  0  0
   10.2322  -15.5157   27.3875 C   0  0  1  0  0  0  0  0  0  0  0  0
    9.2300  -14.3643   27.4012 C   0  0  0  0  0  0  0  0  0  0  0  0
    9.8564  -13.1315   28.5770 S   0  0  0  0  0  0  0  0  0  0  0  0
   10.4462  -16.0558   28.7370 C   0  0  0  0  0  0  0  0  0  0  0  0
    9.7803  -17.0751   29.0629 O   0  0  0  0  0  0  0  0  0  0  0  0
   11.3040  -15.5565   29.6814 O   0  0  0  0  0  0  0  0  0  0  0  0
  2  1  1  6
  3  2  1  0
  4  5  1  0
  4  3  1  0
  5  6  2  0
  7  2  1  0
  8  7  2  0
  9  5  1  0
 11 10  1  1
 11 13  1  0
 11 12  1  0
 12  7  1  0
 13 15  1  0
 14 13  2  0
 15 16  1  0
 16 19  1  0
 16 17  1  1
 18 17  1  0
 19 20  2  0
 19 21  1  0
M  END
$$$$
