EAC.pdb
     RDKit          3D

 21 20  0  0  1  0  0  0  0  0999 V2000
    8.9423  -17.6629   20.0038 N   0  0  0  0  0  0  0  0  0  0  0  0
    9.3853  -18.2754   21.2147 C   0  0  1  0  0  0  0  0  0  0  0  0
   10.8643  -18.4226   21.3839 C   0  0  0  0  0  0  0  0  0  0  0  0
   11.6075  -17.2388   20.8743 C   0  0  0  0  0  0  0  0  0  0  0  0
   13.0461  -17.2009   21.0084 C   0  0  0  0  0  0  0  0  0  0  0  0
   13.7587  -16.2704   20.6215 O   0  0  0  0  0  0  0  0  0  0  0  0
    8.8358  -17.5141   22.3693 C   0  0  0  0  0  0  0  0  0  0  0  0
    8.7883  -16.2542   22.2655 O   0  0  0  0  0  0  0  0  0  0  0  0
   13.6542  -18.3185   21.6286 O   0  0  0  0  0  0  0  0  0  0  0  0
    6.9915  -18.4506   25.4448 C   0  0  0  0  0  0  0  0  0  0  0  0
    7.7390  -17.4631   24.5667 C   0  0  2  0  0  0  0  0  0  0  0  0
    8.3989  -18.2062   23.5129 N   0  0  0  0  0  0  0  0  0  0  0  0
    8.7533  -16.7993   25.4347 C   0  0  0  0  0  0  0  0  0  0  0  0
    9.8999  -17.2553   25.4538 O   0  0  0  0  0  0  0  0  0  0  0  0
    8.4538  -15.6662   26.2385 N   0  0  0  0  0  0  0  0  0  0  0  0
    9.3992  -14.9927   27.0741 C   0  0  1  0  0  0  0  0  0  0  0  0
    8.8098  -13.7482   27.7330 C   0  0  0  0  0  0  0  0  0  0  0  0
   10.1575  -12.9438   28.6448 S   0  0  0  0  0  0  0  0  0  0  0  0
   10.0691  -15.8537   28.0582 C   0  0  0  0  0  0  0  0  0  0  0  0
    9.3800  -16.7636   28.5928 O   0  0  0  0  0  0  0  0  0  0  0  0
   11.3777  -15.7634   28.4539 O   0  0  0  0  0  0  0  0  0  0  0  0
  2  1  1  6
  3  2  1  0
  4  5  1  0
  4  3  1  0
  5  6  2  0
  7  2  1  0
  8  7  2  0
  9  5  1  0
 11 10  1  1
 11 13  1  0
 11 12  1  0
 12  7  1  0
 13 15  1  0
 14 13  2  0
 15 16  1  0
 16 19  1  0
 16 17  1  1
 18 17  1  0
 19 20  2  0
 19 21  1  0
M  END
$$$$
