GTC.pdb
     RDKit          3D

 18 17  0  0  1  0  0  0  0  0999 V2000
   11.7150  -16.6664   19.1433 N   0  0  0  0  0  0  0  0  0  0  0  0
   11.1006  -17.2685   20.3068 C   0  0  0  0  0  0  0  0  0  0  0  0
   10.5241  -16.2124   21.1447 C   0  0  0  0  0  0  0  0  0  0  0  0
   10.7853  -15.0084   20.8871 O   0  0  0  0  0  0  0  0  0  0  0  0
    7.2105  -15.0252   21.6471 C   0  0  0  0  0  0  0  0  0  0  0  0
    7.6913  -15.4135   23.0253 C   0  0  1  0  0  0  0  0  0  0  0  0
    7.1724  -16.6284   23.3952 O   0  0  0  0  0  0  0  0  0  0  0  0
    9.2049  -15.4368   23.0948 C   0  0  2  0  0  0  0  0  0  0  0  0
    9.6870  -16.5197   22.2279 N   0  0  0  0  0  0  0  0  0  0  0  0
    9.6900  -15.6434   24.4840 C   0  0  0  0  0  0  0  0  0  0  0  0
   10.5625  -16.5315   24.7544 O   0  0  0  0  0  0  0  0  0  0  0  0
    9.2032  -14.8645   25.5503 N   0  0  0  0  0  0  0  0  0  0  0  0
    9.6811  -15.0184   26.9124 C   0  0  1  0  0  0  0  0  0  0  0  0
    9.1250  -13.9856   27.8411 C   0  0  0  0  0  0  0  0  0  0  0  0
    9.1862  -12.3825   26.9894 S   0  0  0  0  0  0  0  0  0  0  0  0
    9.3671  -16.3586   27.4604 C   0  0  0  0  0  0  0  0  0  0  0  0
    8.5720  -17.0724   26.7967 O   0  0  0  0  0  0  0  0  0  0  0  0
    9.8807  -16.8651   28.6298 O   0  0  0  0  0  0  0  0  0  0  0  0
  2  1  1  0
  3  2  1  0
  4  3  2  0
  6  5  1  6
  6  7  1  0
  6  8  1  0
  8  9  1  6
  9  3  1  0
 10  8  1  0
 10 12  1  0
 11 10  2  0
 13 14  1  1
 13 12  1  0
 13 16  1  0
 14 15  1  0
 16 18  1  0
 17 16  2  0
M  END
$$$$
