GTC.pdb
     RDKit          3D

 18 17  0  0  1  0  0  0  0  0999 V2000
    5.0990  -19.8961   21.4908 N   0  0  0  0  0  0  0  0  0  0  0  0
    4.7934  -18.5005   21.7200 C   0  0  0  0  0  0  0  0  0  0  0  0
    5.9915  -17.6978   21.4552 C   0  0  0  0  0  0  0  0  0  0  0  0
    7.0788  -18.2777   21.1989 O   0  0  0  0  0  0  0  0  0  0  0  0
    8.0654  -13.4513   20.2050 C   0  0  0  0  0  0  0  0  0  0  0  0
    6.8621  -14.3466   20.3837 C   0  0  1  0  0  0  0  0  0  0  0  0
    6.3864  -14.7677   19.1678 O   0  0  0  0  0  0  0  0  0  0  0  0
    7.1843  -15.5327   21.2699 C   0  0  2  0  0  0  0  0  0  0  0  0
    5.9477  -16.2957   21.4823 N   0  0  0  0  0  0  0  0  0  0  0  0
    7.7500  -15.1072   22.5765 C   0  0  0  0  0  0  0  0  0  0  0  0
    7.0715  -14.4023   23.3926 O   0  0  0  0  0  0  0  0  0  0  0  0
    9.0552  -15.4687   22.9590 N   0  0  0  0  0  0  0  0  0  0  0  0
    9.5493  -15.2945   24.3129 C   0  0  1  0  0  0  0  0  0  0  0  0
    8.7852  -16.0997   25.3160 C   0  0  0  0  0  0  0  0  0  0  0  0
    7.3796  -15.0965   25.8789 S   0  0  0  0  0  0  0  0  0  0  0  0
   10.9845  -15.6440   24.4270 C   0  0  0  0  0  0  0  0  0  0  0  0
   11.4884  -16.2958   23.4764 O   0  0  0  0  0  0  0  0  0  0  0  0
   11.7892  -15.3072   25.4884 O   0  0  0  0  0  0  0  0  0  0  0  0
  2  1  1  0
  3  2  1  0
  4  3  2  0
  6  5  1  6
  6  7  1  0
  6  8  1  0
  8  9  1  1
  9  3  1  0
 10  8  1  0
 10 12  1  0
 11 10  2  0
 13 14  1  1
 13 12  1  0
 13 16  1  0
 14 15  1  0
 16 18  1  0
 17 16  2  0
M  END
$$$$
