GTC.pdb
     RDKit          3D

 18 17  0  0  1  0  0  0  0  0999 V2000
    8.0969  -19.8144   21.1289 N   0  0  0  0  0  0  0  0  0  0  0  0
    7.1729  -18.9136   21.7834 C   0  0  0  0  0  0  0  0  0  0  0  0
    7.8626  -17.6554   22.0850 C   0  0  0  0  0  0  0  0  0  0  0  0
    9.0905  -17.5480   21.8299 O   0  0  0  0  0  0  0  0  0  0  0  0
    8.1776  -12.9476   22.3341 C   0  0  0  0  0  0  0  0  0  0  0  0
    7.4459  -14.2409   22.0629 C   0  0  1  0  0  0  0  0  0  0  0  0
    7.5888  -14.6125   20.7501 O   0  0  0  0  0  0  0  0  0  0  0  0
    7.9204  -15.3462   22.9845 C   0  0  2  0  0  0  0  0  0  0  0  0
    7.1790  -16.5697   22.6527 N   0  0  0  0  0  0  0  0  0  0  0  0
    7.7138  -14.9985   24.4144 C   0  0  0  0  0  0  0  0  0  0  0  0
    6.5615  -15.0719   24.9529 O   0  0  0  0  0  0  0  0  0  0  0  0
    8.7843  -14.5766   25.2248 N   0  0  0  0  0  0  0  0  0  0  0  0
    8.6185  -14.2444   26.6281 C   0  0  1  0  0  0  0  0  0  0  0  0
    9.9171  -14.2004   27.3699 C   0  0  0  0  0  0  0  0  0  0  0  0
   10.7362  -15.8067   27.1510 S   0  0  0  0  0  0  0  0  0  0  0  0
    7.9303  -12.9452   26.8113 C   0  0  0  0  0  0  0  0  0  0  0  0
    7.8428  -12.2007   25.8011 O   0  0  0  0  0  0  0  0  0  0  0  0
    7.3892  -12.5072   27.9957 O   0  0  0  0  0  0  0  0  0  0  0  0
  2  1  1  0
  3  2  1  0
  4  3  2  0
  6  5  1  6
  6  7  1  0
  6  8  1  0
  8  9  1  6
  9  3  1  0
 10  8  1  0
 10 12  1  0
 11 10  2  0
 13 14  1  6
 13 12  1  0
 13 16  1  0
 14 15  1  0
 16 18  1  0
 17 16  2  0
M  END
$$$$
