GTC.pdb
     RDKit          3D

 18 17  0  0  1  0  0  0  0  0999 V2000
    8.8956  -18.4960   16.3871 N   0  0  0  0  0  0  0  0  0  0  0  0
    7.8976  -17.8359   17.2008 C   0  0  0  0  0  0  0  0  0  0  0  0
    8.5430  -16.7816   17.9892 C   0  0  0  0  0  0  0  0  0  0  0  0
    9.7997  -16.7184   18.0241 O   0  0  0  0  0  0  0  0  0  0  0  0
    8.2535  -12.6747   20.6960 C   0  0  0  0  0  0  0  0  0  0  0  0
    7.6347  -13.6598   19.7327 C   0  0  1  0  0  0  0  0  0  0  0  0
    7.4673  -13.0889   18.4965 O   0  0  0  0  0  0  0  0  0  0  0  0
    8.4639  -14.9238   19.6284 C   0  0  2  0  0  0  0  0  0  0  0  0
    7.7856  -15.8423   18.7050 N   0  0  0  0  0  0  0  0  0  0  0  0
    8.6452  -15.5750   20.9517 C   0  0  0  0  0  0  0  0  0  0  0  0
    7.6657  -16.1134   21.5633 O   0  0  0  0  0  0  0  0  0  0  0  0
    9.9057  -15.6209   21.5759 N   0  0  0  0  0  0  0  0  0  0  0  0
   10.1406  -16.3482   22.8100 C   0  0  1  0  0  0  0  0  0  0  0  0
   10.1669  -17.8310   22.6120 C   0  0  0  0  0  0  0  0  0  0  0  0
   10.4722  -18.6018   24.2280 S   0  0  0  0  0  0  0  0  0  0  0  0
   11.4079  -15.9400   23.4598 C   0  0  0  0  0  0  0  0  0  0  0  0
   12.2190  -15.2803   22.7602 O   0  0  0  0  0  0  0  0  0  0  0  0
   11.7500  -16.2310   24.7582 O   0  0  0  0  0  0  0  0  0  0  0  0
  2  1  1  0
  3  2  1  0
  4  3  2  0
  6  5  1  1
  6  7  1  0
  6  8  1  0
  8  9  1  6
  9  3  1  0
 10  8  1  0
 10 12  1  0
 11 10  2  0
 13 14  1  6
 13 12  1  0
 13 16  1  0
 14 15  1  0
 16 18  1  0
 17 16  2  0
M  END
$$$$
