GTC.pdb
     RDKit          3D

 18 17  0  0  1  0  0  0  0  0999 V2000
   10.7822  -17.7286   19.2641 N   0  0  0  0  0  0  0  0  0  0  0  0
    9.5885  -17.7289   20.0819 C   0  0  0  0  0  0  0  0  0  0  0  0
    9.5562  -16.5012   20.8829 C   0  0  0  0  0  0  0  0  0  0  0  0
    9.7506  -15.3920   20.3206 O   0  0  0  0  0  0  0  0  0  0  0  0
    7.5499  -14.7189   20.9541 C   0  0  0  0  0  0  0  0  0  0  0  0
    7.5491  -14.8984   22.4538 C   0  0  1  0  0  0  0  0  0  0  0  0
    6.5990  -15.8129   22.8320 O   0  0  0  0  0  0  0  0  0  0  0  0
    8.9167  -15.3098   22.9605 C   0  0  2  0  0  0  0  0  0  0  0  0
    9.3124  -16.5406   22.2640 N   0  0  0  0  0  0  0  0  0  0  0  0
    8.9159  -15.5345   24.4293 C   0  0  0  0  0  0  0  0  0  0  0  0
    9.2461  -16.6603   24.9261 O   0  0  0  0  0  0  0  0  0  0  0  0
    8.5511  -14.5111   25.3239 N   0  0  0  0  0  0  0  0  0  0  0  0
    9.0622  -14.4403   26.6808 C   0  0  1  0  0  0  0  0  0  0  0  0
   10.5527  -14.3209   26.7324 C   0  0  0  0  0  0  0  0  0  0  0  0
   11.0556  -14.3944   28.4761 S   0  0  0  0  0  0  0  0  0  0  0  0
    8.4752  -13.3079   27.4344 C   0  0  0  0  0  0  0  0  0  0  0  0
    8.2602  -12.2478   26.7920 O   0  0  0  0  0  0  0  0  0  0  0  0
    8.1550  -13.3397   28.7701 O   0  0  0  0  0  0  0  0  0  0  0  0
  2  1  1  0
  3  2  1  0
  4  3  2  0
  6  5  1  6
  6  7  1  0
  6  8  1  0
  8  9  1  6
  9  3  1  0
 10  8  1  0
 10 12  1  0
 11 10  2  0
 13 14  1  6
 13 12  1  0
 13 16  1  0
 14 15  1  0
 16 18  1  0
 17 16  2  0
M  END
$$$$
