GTC.pdb
     RDKit          3D

 18 17  0  0  1  0  0  0  0  0999 V2000
    4.1211  -19.6681   22.1982 N   0  0  0  0  0  0  0  0  0  0  0  0
    4.0293  -18.2243   22.1755 C   0  0  0  0  0  0  0  0  0  0  0  0
    5.3791  -17.6597   22.0814 C   0  0  0  0  0  0  0  0  0  0  0  0
    6.3757  -18.4165   22.2169 O   0  0  0  0  0  0  0  0  0  0  0  0
    8.2846  -13.9642   20.6327 C   0  0  0  0  0  0  0  0  0  0  0  0
    6.9368  -14.6413   20.7130 C   0  0  1  0  0  0  0  0  0  0  0  0
    6.5473  -15.0936   19.4778 O   0  0  0  0  0  0  0  0  0  0  0  0
    6.9492  -15.7764   21.7169 C   0  0  2  0  0  0  0  0  0  0  0  0
    5.5799  -16.2917   21.8432 N   0  0  0  0  0  0  0  0  0  0  0  0
    7.4502  -15.3334   23.0438 C   0  0  0  0  0  0  0  0  0  0  0  0
    6.7727  -14.5401   23.7752 O   0  0  0  0  0  0  0  0  0  0  0  0
    8.6908  -15.7753   23.5401 N   0  0  0  0  0  0  0  0  0  0  0  0
    9.2369  -15.3128   24.8031 C   0  0  1  0  0  0  0  0  0  0  0  0
    8.3254  -15.5780   25.9595 C   0  0  0  0  0  0  0  0  0  0  0  0
    7.9013  -17.3439   25.9389 S   0  0  0  0  0  0  0  0  0  0  0  0
   10.5535  -15.9267   25.0942 C   0  0  0  0  0  0  0  0  0  0  0  0
   10.9254  -16.8603   24.3376 O   0  0  0  0  0  0  0  0  0  0  0  0
   11.3827  -15.5479   26.1221 O   0  0  0  0  0  0  0  0  0  0  0  0
  2  1  1  0
  3  2  1  0
  4  3  2  0
  6  5  1  6
  6  7  1  0
  6  8  1  0
  8  9  1  1
  9  3  1  0
 10  8  1  0
 10 12  1  0
 11 10  2  0
 13 14  1  1
 13 12  1  0
 13 16  1  0
 14 15  1  0
 16 18  1  0
 17 16  2  0
M  END
$$$$
