GTC.pdb
     RDKit          3D

 18 17  0  0  1  0  0  0  0  0999 V2000
    8.7377  -13.2888   17.6216 N   0  0  0  0  0  0  0  0  0  0  0  0
    9.4369  -13.8327   18.7657 C   0  0  0  0  0  0  0  0  0  0  0  0
    8.5396  -13.8217   19.9252 C   0  0  0  0  0  0  0  0  0  0  0  0
    7.3440  -13.4571   19.7772 O   0  0  0  0  0  0  0  0  0  0  0  0
    6.3686  -15.1978   20.6139 C   0  0  0  0  0  0  0  0  0  0  0  0
    7.0627  -15.4735   21.9268 C   0  0  1  0  0  0  0  0  0  0  0  0
    7.7196  -16.6771   21.8844 O   0  0  0  0  0  0  0  0  0  0  0  0
    8.0199  -14.3561   22.2894 C   0  0  2  0  0  0  0  0  0  0  0  0
    8.9895  -14.2101   21.1961 N   0  0  0  0  0  0  0  0  0  0  0  0
    8.7299  -14.6307   23.5655 C   0  0  0  0  0  0  0  0  0  0  0  0
    9.9024  -15.1293   23.5757 O   0  0  0  0  0  0  0  0  0  0  0  0
    8.1327  -14.3488   24.8082 N   0  0  0  0  0  0  0  0  0  0  0  0
    8.8521  -14.4596   26.0642 C   0  0  1  0  0  0  0  0  0  0  0  0
    8.1456  -13.7849   27.1974 C   0  0  0  0  0  0  0  0  0  0  0  0
    7.8302  -12.0641   26.7093 S   0  0  0  0  0  0  0  0  0  0  0  0
    9.0960  -15.8721   26.4389 C   0  0  0  0  0  0  0  0  0  0  0  0
    8.5000  -16.7506   25.7641 O   0  0  0  0  0  0  0  0  0  0  0  0
    9.9192  -16.2789   27.4610 O   0  0  0  0  0  0  0  0  0  0  0  0
  2  1  1  0
  3  2  1  0
  4  3  2  0
  6  5  1  6
  6  7  1  0
  6  8  1  0
  8  9  1  6
  9  3  1  0
 10  8  1  0
 10 12  1  0
 11 10  2  0
 13 14  1  1
 13 12  1  0
 13 16  1  0
 14 15  1  0
 16 18  1  0
 17 16  2  0
M  END
$$$$
