GTC.pdb
     RDKit          3D

 18 17  0  0  1  0  0  0  0  0999 V2000
    9.9187  -19.0014   16.6116 N   0  0  0  0  0  0  0  0  0  0  0  0
   10.9606  -18.0262   16.8504 C   0  0  0  0  0  0  0  0  0  0  0  0
   11.6035  -18.3168   18.1357 C   0  0  0  0  0  0  0  0  0  0  0  0
   11.0501  -19.1151   18.9362 O   0  0  0  0  0  0  0  0  0  0  0  0
   14.6537  -20.0285   18.5792 C   0  0  0  0  0  0  0  0  0  0  0  0
   14.8317  -18.7474   19.3594 C   0  0  1  0  0  0  0  0  0  0  0  0
   15.5939  -17.8518   18.6531 O   0  0  0  0  0  0  0  0  0  0  0  0
   13.4950  -18.1361   19.7277 C   0  0  2  0  0  0  0  0  0  0  0  0
   12.8237  -17.7213   18.4892 N   0  0  0  0  0  0  0  0  0  0  0  0
   13.6532  -16.9703   20.6353 C   0  0  0  0  0  0  0  0  0  0  0  0
   13.9599  -15.8186   20.1850 O   0  0  0  0  0  0  0  0  0  0  0  0
   13.4689  -17.0970   22.0248 N   0  0  0  0  0  0  0  0  0  0  0  0
   13.6057  -15.9758   22.9367 C   0  0  1  0  0  0  0  0  0  0  0  0
   12.6540  -16.0475   24.0890 C   0  0  0  0  0  0  0  0  0  0  0  0
   10.9678  -15.9252   23.4250 S   0  0  0  0  0  0  0  0  0  0  0  0
   14.9823  -15.8636   23.4726 C   0  0  0  0  0  0  0  0  0  0  0  0
   15.7391  -16.8550   23.3084 O   0  0  0  0  0  0  0  0  0  0  0  0
   15.4790  -14.7629   24.1279 O   0  0  0  0  0  0  0  0  0  0  0  0
  2  1  1  0
  3  2  1  0
  4  3  2  0
  6  5  1  6
  6  7  1  0
  6  8  1  0
  8  9  1  6
  9  3  1  0
 10  8  1  0
 10 12  1  0
 11 10  2  0
 13 14  1  1
 13 12  1  0
 13 16  1  0
 14 15  1  0
 16 18  1  0
 17 16  2  0
M  END
$$$$
