GTC.pdb
     RDKit          3D

 18 17  0  0  1  0  0  0  0  0999 V2000
   -2.9606  -27.4573   29.9232 N   0  0  0  0  0  0  0  0  0  0  0  0
   -4.1803  -26.7216   30.1778 C   0  0  0  0  0  0  0  0  0  0  0  0
   -4.1810  -25.4999   29.3672 C   0  0  0  0  0  0  0  0  0  0  0  0
   -3.4043  -24.5571   29.6708 O   0  0  0  0  0  0  0  0  0  0  0  0
   -3.8909  -25.1923   25.5007 C   0  0  0  0  0  0  0  0  0  0  0  0
   -5.1285  -24.4903   26.0078 C   0  0  1  0  0  0  0  0  0  0  0  0
   -6.2425  -25.2647   25.8046 O   0  0  0  0  0  0  0  0  0  0  0  0
   -4.9935  -24.1241   27.4720 C   0  0  2  0  0  0  0  0  0  0  0  0
   -5.0315  -25.3628   28.2598 N   0  0  0  0  0  0  0  0  0  0  0  0
   -6.0766  -23.2075   27.9132 C   0  0  0  0  0  0  0  0  0  0  0  0
   -6.2264  -22.0581   27.3842 O   0  0  0  0  0  0  0  0  0  0  0  0
   -6.9760  -23.5770   28.9306 N   0  0  0  0  0  0  0  0  0  0  0  0
   -7.9423  -22.6514   29.4936 C   0  0  1  0  0  0  0  0  0  0  0  0
   -9.1026  -23.3450   30.1348 C   0  0  0  0  0  0  0  0  0  0  0  0
   -9.7498  -24.5577   28.9475 S   0  0  0  0  0  0  0  0  0  0  0  0
   -7.3257  -21.7486   30.4934 C   0  0  0  0  0  0  0  0  0  0  0  0
   -6.1748  -22.0523   30.9006 O   0  0  0  0  0  0  0  0  0  0  0  0
   -7.9206  -20.6174   30.9975 O   0  0  0  0  0  0  0  0  0  0  0  0
  2  1  1  0
  3  2  1  0
  4  3  2  0
  6  5  1  1
  6  7  1  0
  6  8  1  0
  8  9  1  1
  9  3  1  0
 10  8  1  0
 10 12  1  0
 11 10  2  0
 13 14  1  1
 13 12  1  0
 13 16  1  0
 14 15  1  0
 16 18  1  0
 17 16  2  0
M  END
$$$$
