GTC.pdb
     RDKit          3D

 18 17  0  0  1  0  0  0  0  0999 V2000
    8.9302  -17.1073   16.6949 N   0  0  0  0  0  0  0  0  0  0  0  0
    8.0770  -17.1293   17.8633 C   0  0  0  0  0  0  0  0  0  0  0  0
    8.7003  -16.3355   18.9268 C   0  0  0  0  0  0  0  0  0  0  0  0
    9.9315  -16.0809   18.8663 O   0  0  0  0  0  0  0  0  0  0  0  0
    7.3119  -13.0658   20.4115 C   0  0  0  0  0  0  0  0  0  0  0  0
    7.6763  -14.0026   21.5389 C   0  0  1  0  0  0  0  0  0  0  0  0
    6.5493  -14.5508   22.0970 O   0  0  0  0  0  0  0  0  0  0  0  0
    8.6212  -15.0899   21.0685 C   0  0  2  0  0  0  0  0  0  0  0  0
    7.9495  -15.8548   20.0102 N   0  0  0  0  0  0  0  0  0  0  0  0
    9.0157  -15.9957   22.1784 C   0  0  0  0  0  0  0  0  0  0  0  0
    8.5055  -17.1572   22.2970 O   0  0  0  0  0  0  0  0  0  0  0  0
    9.9677  -15.6030   23.1376 N   0  0  0  0  0  0  0  0  0  0  0  0
   10.4102  -16.4818   24.2049 C   0  0  1  0  0  0  0  0  0  0  0  0
   11.7626  -16.1176   24.7313 C   0  0  0  0  0  0  0  0  0  0  0  0
   12.9925  -16.6042   23.4866 S   0  0  0  0  0  0  0  0  0  0  0  0
    9.4559  -16.4998   25.3380 C   0  0  0  0  0  0  0  0  0  0  0  0
    8.5440  -15.6333   25.3272 O   0  0  0  0  0  0  0  0  0  0  0  0
    9.5015  -17.3886   26.3847 O   0  0  0  0  0  0  0  0  0  0  0  0
  2  1  1  0
  3  2  1  0
  4  3  2  0
  6  5  1  6
  6  7  1  0
  6  8  1  0
  8  9  1  6
  9  3  1  0
 10  8  1  0
 10 12  1  0
 11 10  2  0
 13 14  1  1
 13 12  1  0
 13 16  1  0
 14 15  1  0
 16 18  1  0
 17 16  2  0
M  END
$$$$
