GTC.pdb
     RDKit          3D

 18 17  0  0  1  0  0  0  0  0999 V2000
    8.7684  -16.7116   15.6354 N   0  0  0  0  0  0  0  0  0  0  0  0
    8.0841  -16.8933   16.8973 C   0  0  0  0  0  0  0  0  0  0  0  0
    8.6836  -16.0068   17.8995 C   0  0  0  0  0  0  0  0  0  0  0  0
    9.7482  -15.3943   17.6240 O   0  0  0  0  0  0  0  0  0  0  0  0
    7.1578  -13.1575   19.8276 C   0  0  0  0  0  0  0  0  0  0  0  0
    7.7674  -14.1108   20.8281 C   0  0  1  0  0  0  0  0  0  0  0  0
    6.7924  -14.8466   21.4527 O   0  0  0  0  0  0  0  0  0  0  0  0
    8.7850  -15.0220   20.1721 C   0  0  2  0  0  0  0  0  0  0  0  0
    8.0923  -15.8289   19.1593 N   0  0  0  0  0  0  0  0  0  0  0  0
    9.4496  -15.9092   21.1617 C   0  0  0  0  0  0  0  0  0  0  0  0
    9.1346  -17.1396   21.2629 O   0  0  0  0  0  0  0  0  0  0  0  0
   10.4513  -15.4218   22.0216 N   0  0  0  0  0  0  0  0  0  0  0  0
   11.1141  -16.2604   23.0038 C   0  0  1  0  0  0  0  0  0  0  0  0
   12.3140  -15.6038   23.6103 C   0  0  0  0  0  0  0  0  0  0  0  0
   13.0958  -16.8013   24.7300 S   0  0  0  0  0  0  0  0  0  0  0  0
   10.1978  -16.6623   24.0964 C   0  0  0  0  0  0  0  0  0  0  0  0
    9.3603  -15.8057   24.4802 O   0  0  0  0  0  0  0  0  0  0  0  0
   10.2032  -17.8921   24.7089 O   0  0  0  0  0  0  0  0  0  0  0  0
  2  1  1  0
  3  2  1  0
  4  3  2  0
  6  5  1  6
  6  7  1  0
  6  8  1  0
  8  9  1  6
  9  3  1  0
 10  8  1  0
 10 12  1  0
 11 10  2  0
 13 14  1  1
 13 12  1  0
 13 16  1  0
 14 15  1  0
 16 18  1  0
 17 16  2  0
M  END
$$$$
