GTC.pdb
     RDKit          3D

 18 17  0  0  1  0  0  0  0  0999 V2000
    7.9659  -13.4898   14.9889 N   0  0  0  0  0  0  0  0  0  0  0  0
    7.9866  -14.5946   15.9230 C   0  0  0  0  0  0  0  0  0  0  0  0
    8.6059  -14.1512   17.1759 C   0  0  0  0  0  0  0  0  0  0  0  0
    9.3684  -13.1499   17.1671 O   0  0  0  0  0  0  0  0  0  0  0  0
    7.1504  -13.2715   20.5088 C   0  0  0  0  0  0  0  0  0  0  0  0
    8.1841  -14.3468   20.7467 C   0  0  1  0  0  0  0  0  0  0  0  0
    7.5801  -15.5530   20.9959 O   0  0  0  0  0  0  0  0  0  0  0  0
    9.1402  -14.4608   19.5767 C   0  0  2  0  0  0  0  0  0  0  0  0
    8.3638  -14.8227   18.3838 N   0  0  0  0  0  0  0  0  0  0  0  0
   10.1957  -15.4771   19.8241 C   0  0  0  0  0  0  0  0  0  0  0  0
   10.0872  -16.6652   19.3771 O   0  0  0  0  0  0  0  0  0  0  0  0
   11.3532  -15.1626   20.5602 N   0  0  0  0  0  0  0  0  0  0  0  0
   12.3741  -16.1472   20.8695 C   0  0  1  0  0  0  0  0  0  0  0  0
   13.6127  -15.9743   20.0482 C   0  0  0  0  0  0  0  0  0  0  0  0
   13.9542  -14.1945   19.9263 S   0  0  0  0  0  0  0  0  0  0  0  0
   12.7539  -16.1190   22.3013 C   0  0  0  0  0  0  0  0  0  0  0  0
   13.6302  -16.9412   22.6735 O   0  0  0  0  0  0  0  0  0  0  0  0
   12.2189  -15.2654   23.2355 O   0  0  0  0  0  0  0  0  0  0  0  0
  2  1  1  0
  3  2  1  0
  4  3  2  0
  6  5  1  6
  6  7  1  0
  6  8  1  0
  8  9  1  6
  9  3  1  0
 10  8  1  0
 10 12  1  0
 11 10  2  0
 13 14  1  6
 13 12  1  0
 13 16  1  0
 14 15  1  0
 16 18  1  0
 17 16  2  0
M  END
$$$$
