GTC.pdb
     RDKit          3D

 18 17  0  0  1  0  0  0  0  0999 V2000
    7.7386  -17.6427   16.5009 N   0  0  0  0  0  0  0  0  0  0  0  0
    7.0582  -17.1961   17.6973 C   0  0  0  0  0  0  0  0  0  0  0  0
    7.9861  -16.4015   18.5079 C   0  0  0  0  0  0  0  0  0  0  0  0
    9.1770  -16.2623   18.1249 O   0  0  0  0  0  0  0  0  0  0  0  0
    7.5451  -12.8968   19.9250 C   0  0  0  0  0  0  0  0  0  0  0  0
    7.9238  -13.8230   21.0565 C   0  0  1  0  0  0  0  0  0  0  0  0
    6.8307  -14.1103   21.8341 O   0  0  0  0  0  0  0  0  0  0  0  0
    8.5582  -15.0973   20.5369 C   0  0  2  0  0  0  0  0  0  0  0  0
    7.5708  -15.7938   19.7023 N   0  0  0  0  0  0  0  0  0  0  0  0
    9.0033  -15.9828   21.6440 C   0  0  0  0  0  0  0  0  0  0  0  0
    8.2035  -16.8095   22.1917 O   0  0  0  0  0  0  0  0  0  0  0  0
   10.3248  -15.9402   22.1261 N   0  0  0  0  0  0  0  0  0  0  0  0
   10.7930  -16.7976   23.1999 C   0  0  1  0  0  0  0  0  0  0  0  0
   11.1925  -18.1579   22.7220 C   0  0  0  0  0  0  0  0  0  0  0  0
   12.1385  -17.9511   21.1854 S   0  0  0  0  0  0  0  0  0  0  0  0
   11.9391  -16.2005   23.9245 C   0  0  0  0  0  0  0  0  0  0  0  0
   12.4497  -15.1646   23.4260 O   0  0  0  0  0  0  0  0  0  0  0  0
   12.4726  -16.6976   25.0889 O   0  0  0  0  0  0  0  0  0  0  0  0
  2  1  1  0
  3  2  1  0
  4  3  2  0
  6  5  1  6
  6  7  1  0
  6  8  1  0
  8  9  1  1
  9  3  1  0
 10  8  1  0
 10 12  1  0
 11 10  2  0
 13 14  1  6
 13 12  1  0
 13 16  1  0
 14 15  1  0
 16 18  1  0
 17 16  2  0
M  END
$$$$
