GTC.pdb
     RDKit          3D

 18 17  0  0  1  0  0  0  0  0999 V2000
    4.4749  -18.9427   20.0419 N   0  0  0  0  0  0  0  0  0  0  0  0
    4.3754  -17.6058   20.5864 C   0  0  0  0  0  0  0  0  0  0  0  0
    5.6992  -16.9762   20.5558 C   0  0  0  0  0  0  0  0  0  0  0  0
    6.7161  -17.6869   20.3431 O   0  0  0  0  0  0  0  0  0  0  0  0
    8.4530  -12.9456   20.1077 C   0  0  0  0  0  0  0  0  0  0  0  0
    7.1134  -13.6432   20.0976 C   0  0  1  0  0  0  0  0  0  0  0  0
    6.6279  -13.7418   18.8184 O   0  0  0  0  0  0  0  0  0  0  0  0
    7.1999  -15.0120   20.7420 C   0  0  2  0  0  0  0  0  0  0  0  0
    5.8528  -15.5966   20.7594 N   0  0  0  0  0  0  0  0  0  0  0  0
    7.7397  -14.9375   22.1244 C   0  0  0  0  0  0  0  0  0  0  0  0
    7.0281  -14.5075   23.0898 O   0  0  0  0  0  0  0  0  0  0  0  0
    9.0562  -15.3403   22.4164 N   0  0  0  0  0  0  0  0  0  0  0  0
    9.5712  -15.4049   23.7721 C   0  0  1  0  0  0  0  0  0  0  0  0
    8.7962  -16.3441   24.6415 C   0  0  0  0  0  0  0  0  0  0  0  0
    9.5902  -16.3721   26.2748 S   0  0  0  0  0  0  0  0  0  0  0  0
   10.9970  -15.8063   23.8036 C   0  0  0  0  0  0  0  0  0  0  0  0
   11.4650  -16.3245   22.7572 O   0  0  0  0  0  0  0  0  0  0  0  0
   11.8292  -15.6514   24.8857 O   0  0  0  0  0  0  0  0  0  0  0  0
  2  1  1  0
  3  2  1  0
  4  3  2  0
  6  5  1  6
  6  7  1  0
  6  8  1  0
  8  9  1  1
  9  3  1  0
 10  8  1  0
 10 12  1  0
 11 10  2  0
 13 14  1  1
 13 12  1  0
 13 16  1  0
 14 15  1  0
 16 18  1  0
 17 16  2  0
M  END
$$$$
