GTC.pdb
     RDKit          3D

 18 17  0  0  1  0  0  0  0  0999 V2000
    2.3587  -19.3353   22.0801 N   0  0  0  0  0  0  0  0  0  0  0  0
    3.2470  -18.2973   21.6034 C   0  0  0  0  0  0  0  0  0  0  0  0
    4.4339  -18.2504   22.4629 C   0  0  0  0  0  0  0  0  0  0  0  0
    4.5814  -19.1210   23.3599 O   0  0  0  0  0  0  0  0  0  0  0  0
    7.5533  -19.0471   21.5689 C   0  0  0  0  0  0  0  0  0  0  0  0
    7.7820  -17.6936   22.1992 C   0  0  1  0  0  0  0  0  0  0  0  0
    7.9753  -16.7366   21.2355 O   0  0  0  0  0  0  0  0  0  0  0  0
    6.6337  -17.3087   23.1101 C   0  0  2  0  0  0  0  0  0  0  0  0
    5.4077  -17.2530   22.3037 N   0  0  0  0  0  0  0  0  0  0  0  0
    6.8686  -15.9980   23.7696 C   0  0  0  0  0  0  0  0  0  0  0  0
    6.4100  -14.9173   23.2748 O   0  0  0  0  0  0  0  0  0  0  0  0
    7.6054  -15.9043   24.9650 N   0  0  0  0  0  0  0  0  0  0  0  0
    7.8523  -14.6397   25.6338 C   0  0  1  0  0  0  0  0  0  0  0  0
    6.6609  -14.1428   26.3903 C   0  0  0  0  0  0  0  0  0  0  0  0
    7.1326  -12.5944   27.2142 S   0  0  0  0  0  0  0  0  0  0  0  0
    8.9990  -14.7229   26.5682 C   0  0  0  0  0  0  0  0  0  0  0  0
    9.4289  -15.8735   26.8399 O   0  0  0  0  0  0  0  0  0  0  0  0
    9.6146  -13.6406   27.1488 O   0  0  0  0  0  0  0  0  0  0  0  0
  2  1  1  0
  3  2  1  0
  4  3  2  0
  6  5  1  6
  6  7  1  0
  6  8  1  0
  8  9  1  6
  9  3  1  0
 10  8  1  0
 10 12  1  0
 11 10  2  0
 13 14  1  1
 13 12  1  0
 13 16  1  0
 14 15  1  0
 16 18  1  0
 17 16  2  0
M  END
$$$$
