GTC.pdb
     RDKit          3D

 18 17  0  0  1  0  0  0  0  0999 V2000
   -2.6522  -23.6260   23.2760 N   0  0  0  0  0  0  0  0  0  0  0  0
   -4.0247  -23.3455   23.6384 C   0  0  0  0  0  0  0  0  0  0  0  0
   -4.1864  -23.5316   25.0837 C   0  0  0  0  0  0  0  0  0  0  0  0
   -3.8356  -24.6203   25.6090 O   0  0  0  0  0  0  0  0  0  0  0  0
   -2.5298  -22.3428   27.8676 C   0  0  0  0  0  0  0  0  0  0  0  0
   -3.9576  -21.9087   28.1008 C   0  0  1  0  0  0  0  0  0  0  0  0
   -4.1210  -20.5858   27.7769 O   0  0  0  0  0  0  0  0  0  0  0  0
   -4.9301  -22.7722   27.3231 C   0  0  2  0  0  0  0  0  0  0  0  0
   -4.7247  -22.5185   25.8913 N   0  0  0  0  0  0  0  0  0  0  0  0
   -6.3403  -22.4850   27.6932 C   0  0  0  0  0  0  0  0  0  0  0  0
   -7.0792  -21.7492   26.9612 O   0  0  0  0  0  0  0  0  0  0  0  0
   -6.9098  -23.0164   28.8653 N   0  0  0  0  0  0  0  0  0  0  0  0
   -8.2796  -22.7443   29.2615 C   0  0  1  0  0  0  0  0  0  0  0  0
   -9.2359  -23.7985   28.8003 C   0  0  0  0  0  0  0  0  0  0  0  0
   -8.5346  -25.4151   29.2403 S   0  0  0  0  0  0  0  0  0  0  0  0
   -8.4125  -22.6015   30.7302 C   0  0  0  0  0  0  0  0  0  0  0  0
   -9.5145  -22.1759   31.1627 O   0  0  0  0  0  0  0  0  0  0  0  0
   -7.4247  -22.8995   31.6373 O   0  0  0  0  0  0  0  0  0  0  0  0
  2  1  1  0
  3  2  1  0
  4  3  2  0
  6  5  1  6
  6  7  1  0
  6  8  1  0
  8  9  1  6
  9  3  1  0
 10  8  1  0
 10 12  1  0
 11 10  2  0
 13 14  1  1
 13 12  1  0
 13 16  1  0
 14 15  1  0
 16 18  1  0
 17 16  2  0
M  END
$$$$
