IEC.pdb
     RDKit          3D

 24 23  0  0  1  0  0  0  0  0999 V2000
   24.4883  -13.3773  -20.0265 C   0  0  0  0  0  0  0  0  0  0  0  0
   24.4300  -12.7345  -18.6799 C   0  0  0  0  0  0  0  0  0  0  0  0
   23.2672  -11.7688  -18.5486 C   0  0  2  0  0  0  0  0  0  0  0  0
   23.3429  -10.6726  -19.6012 C   0  0  0  0  0  0  0  0  0  0  0  0
   23.3570  -11.0745  -17.2041 C   0  0  2  0  0  0  0  0  0  0  0  0
   23.3026  -12.1138  -16.1926 N   0  0  0  0  0  0  0  0  0  0  0  0
   22.2695  -10.1308  -16.9689 C   0  0  0  0  0  0  0  0  0  0  0  0
   22.1312   -9.0797  -17.6834 O   0  0  0  0  0  0  0  0  0  0  0  0
   21.2783  -10.2549  -15.9680 N   0  0  0  0  0  0  0  0  0  0  0  0
   20.2020   -9.3750  -15.7243 C   0  0  1  0  0  0  0  0  0  0  0  0
   19.0084   -9.9286  -15.0309 C   0  0  0  0  0  0  0  0  0  0  0  0
   18.2038  -10.8674  -15.9391 C   0  0  0  0  0  0  0  0  0  0  0  0
   17.0737  -11.4578  -15.2034 C   0  0  0  0  0  0  0  0  0  0  0  0
   16.0627  -10.7719  -14.9749 O   0  0  0  0  0  0  0  0  0  0  0  0
   20.7165   -8.2441  -14.9121 C   0  0  0  0  0  0  0  0  0  0  0  0
   21.6550   -8.4417  -14.1052 O   0  0  0  0  0  0  0  0  0  0  0  0
   17.1325  -12.7577  -14.7709 O   0  0  0  0  0  0  0  0  0  0  0  0
   20.1724   -6.9275  -15.0210 N   0  0  0  0  0  0  0  0  0  0  0  0
   20.7992   -5.8379  -14.2994 C   0  0  1  0  0  0  0  0  0  0  0  0
   22.2407   -5.7538  -14.7478 C   0  0  0  0  0  0  0  0  0  0  0  0
   23.0565   -4.2967  -14.0555 S   0  0  0  0  0  0  0  0  0  0  0  0
   20.0787   -4.5570  -14.5145 C   0  0  0  0  0  0  0  0  0  0  0  0
   20.1078   -3.5142  -13.6182 O   0  0  0  0  0  0  0  0  0  0  0  0
   19.4152   -4.4324  -15.5683 O   0  0  0  0  0  0  0  0  0  0  0  0
  2  1  1  0
  3  2  1  0
  3  4  1  6
  5  7  1  0
  5  3  1  0
  5  6  1  1
  7  8  2  0
  9 10  1  0
  9  7  1  0
 11 12  1  0
 10 11  1  1
 12 13  1  0
 13 14  2  0
 13 17  1  0
 15 10  1  0
 16 15  2  0
 18 15  1  0
 19 18  1  0
 19 20  1  6
 20 21  1  0
 22 19  1  0
 23 22  1  0
 24 22  2  0
M  END
$$$$
