IEC.pdb
     RDKit          3D

 24 23  0  0  1  0  0  0  0  0999 V2000
   30.6877  -13.0814  -18.0151 C   0  0  0  0  0  0  0  0  0  0  0  0
   29.4261  -12.8427  -17.2529 C   0  0  0  0  0  0  0  0  0  0  0  0
   28.9571  -11.4027  -17.3449 C   0  0  2  0  0  0  0  0  0  0  0  0
   29.9230  -10.4649  -16.6356 C   0  0  0  0  0  0  0  0  0  0  0  0
   27.6306  -11.2729  -16.6229 C   0  0  2  0  0  0  0  0  0  0  0  0
   26.7538  -12.2897  -17.1737 N   0  0  0  0  0  0  0  0  0  0  0  0
   27.0049   -9.9665  -16.7973 C   0  0  0  0  0  0  0  0  0  0  0  0
   27.5340   -8.9040  -16.3224 O   0  0  0  0  0  0  0  0  0  0  0  0
   25.7914   -9.7233  -17.4813 N   0  0  0  0  0  0  0  0  0  0  0  0
   25.1446   -8.4800  -17.6486 C   0  0  1  0  0  0  0  0  0  0  0  0
   25.0458   -7.9398  -19.0306 C   0  0  0  0  0  0  0  0  0  0  0  0
   24.4752   -6.5158  -19.0485 C   0  0  0  0  0  0  0  0  0  0  0  0
   24.4617   -5.9798  -20.4195 C   0  0  0  0  0  0  0  0  0  0  0  0
   24.8833   -6.6781  -21.3572 O   0  0  0  0  0  0  0  0  0  0  0  0
   23.7671   -8.6102  -17.1111 C   0  0  0  0  0  0  0  0  0  0  0  0
   23.0308   -9.5380  -17.5211 O   0  0  0  0  0  0  0  0  0  0  0  0
   23.9869   -4.7169  -20.6645 O   0  0  0  0  0  0  0  0  0  0  0  0
   23.2492   -7.7055  -16.1342 N   0  0  0  0  0  0  0  0  0  0  0  0
   21.8954   -7.8832  -15.6483 C   0  0  1  0  0  0  0  0  0  0  0  0
   21.9513   -7.9623  -14.1394 C   0  0  0  0  0  0  0  0  0  0  0  0
   22.5230   -9.5872  -13.5908 S   0  0  0  0  0  0  0  0  0  0  0  0
   21.0030   -6.7897  -16.1108 C   0  0  0  0  0  0  0  0  0  0  0  0
   19.6496   -6.7649  -15.8670 O   0  0  0  0  0  0  0  0  0  0  0  0
   21.5205   -5.8491  -16.7540 O   0  0  0  0  0  0  0  0  0  0  0  0
  2  1  1  0
  3  2  1  0
  3  4  1  1
  5  7  1  0
  5  3  1  0
  5  6  1  6
  7  8  2  0
  9 10  1  0
  9  7  1  0
 11 12  1  0
 10 11  1  6
 12 13  1  0
 13 14  2  0
 13 17  1  0
 15 10  1  0
 16 15  2  0
 18 15  1  0
 19 18  1  0
 19 20  1  1
 20 21  1  0
 22 19  1  0
 23 22  1  0
 24 22  2  0
M  END
$$$$
