IEC.pdb
     RDKit          3D

 24 23  0  0  1  0  0  0  0  0999 V2000
   16.3262  -13.3096  -15.3495 C   0  0  0  0  0  0  0  0  0  0  0  0
   17.2614  -13.1259  -16.4990 C   0  0  0  0  0  0  0  0  0  0  0  0
   18.3422  -12.1014  -16.2089 C   0  0  2  0  0  0  0  0  0  0  0  0
   17.7438  -10.7193  -15.9913 C   0  0  0  0  0  0  0  0  0  0  0  0
   19.2465  -11.9876  -17.4201 C   0  0  2  0  0  0  0  0  0  0  0  0
   19.8880  -13.2788  -17.5856 N   0  0  0  0  0  0  0  0  0  0  0  0
   20.2768  -10.9647  -17.2761 C   0  0  0  0  0  0  0  0  0  0  0  0
   21.2948  -11.1435  -16.5237 O   0  0  0  0  0  0  0  0  0  0  0  0
   20.2784   -9.7060  -17.9205 N   0  0  0  0  0  0  0  0  0  0  0  0
   21.2710   -8.7067  -17.8311 C   0  0  1  0  0  0  0  0  0  0  0  0
   21.4595   -7.8210  -19.0108 C   0  0  0  0  0  0  0  0  0  0  0  0
   22.1026   -8.5656  -20.1879 C   0  0  0  0  0  0  0  0  0  0  0  0
   22.3238   -7.6519  -21.3207 C   0  0  0  0  0  0  0  0  0  0  0  0
   23.0205   -6.6348  -21.1638 O   0  0  0  0  0  0  0  0  0  0  0  0
   20.9457   -7.8483  -16.6646 C   0  0  0  0  0  0  0  0  0  0  0  0
   19.7631   -7.4732  -16.4864 O   0  0  0  0  0  0  0  0  0  0  0  0
   21.7655   -7.9185  -22.5445 O   0  0  0  0  0  0  0  0  0  0  0  0
   21.9444   -7.4324  -15.7315 N   0  0  0  0  0  0  0  0  0  0  0  0
   21.5676   -6.5832  -14.6190 C   0  0  1  0  0  0  0  0  0  0  0  0
   22.0674   -7.2341  -13.3491 C   0  0  0  0  0  0  0  0  0  0  0  0
   21.8298   -6.1503  -11.9219 S   0  0  0  0  0  0  0  0  0  0  0  0
   22.1010   -5.2064  -14.7802 C   0  0  0  0  0  0  0  0  0  0  0  0
   23.3998   -4.9370  -15.1436 O   0  0  0  0  0  0  0  0  0  0  0  0
   21.3193   -4.2515  -14.5719 O   0  0  0  0  0  0  0  0  0  0  0  0
  2  1  1  0
  3  2  1  0
  3  4  1  6
  5  7  1  0
  5  3  1  0
  5  6  1  1
  7  8  2  0
  9 10  1  0
  9  7  1  0
 11 12  1  0
 10 11  1  6
 12 13  1  0
 13 14  2  0
 13 17  1  0
 15 10  1  0
 16 15  2  0
 18 15  1  0
 19 18  1  0
 19 20  1  1
 20 21  1  0
 22 19  1  0
 23 22  1  0
 24 22  2  0
M  END
$$$$
