IEC.pdb
     RDKit          3D

 24 23  0  0  1  0  0  0  0  0999 V2000
   14.6658  -14.7671  -16.2433 C   0  0  0  0  0  0  0  0  0  0  0  0
   16.1105  -14.6018  -16.5832 C   0  0  0  0  0  0  0  0  0  0  0  0
   16.6883  -13.3070  -16.0432 C   0  0  2  0  0  0  0  0  0  0  0  0
   16.0618  -12.0999  -16.7258 C   0  0  0  0  0  0  0  0  0  0  0  0
   18.1682  -13.2587  -16.3676 C   0  0  2  0  0  0  0  0  0  0  0  0
   18.7696  -14.4267  -15.7511 N   0  0  0  0  0  0  0  0  0  0  0  0
   18.8312  -12.0631  -15.8582 C   0  0  0  0  0  0  0  0  0  0  0  0
   18.8110  -11.7668  -14.6148 O   0  0  0  0  0  0  0  0  0  0  0  0
   19.5459  -11.1259  -16.6396 N   0  0  0  0  0  0  0  0  0  0  0  0
   20.2053   -9.9650  -16.1820 C   0  0  1  0  0  0  0  0  0  0  0  0
   21.4567   -9.5677  -16.8806 C   0  0  0  0  0  0  0  0  0  0  0  0
   22.5978  -10.5587  -16.6174 C   0  0  0  0  0  0  0  0  0  0  0  0
   23.8050  -10.1697  -17.3646 C   0  0  0  0  0  0  0  0  0  0  0  0
   24.4388  -11.0293  -18.0002 O   0  0  0  0  0  0  0  0  0  0  0  0
   19.2501   -8.8330  -16.2802 C   0  0  0  0  0  0  0  0  0  0  0  0
   18.4271   -8.8016  -17.2250 O   0  0  0  0  0  0  0  0  0  0  0  0
   24.2312   -8.8663  -17.3615 O   0  0  0  0  0  0  0  0  0  0  0  0
   19.2382   -7.7702  -15.3256 N   0  0  0  0  0  0  0  0  0  0  0  0
   18.2685   -6.7020  -15.4637 C   0  0  1  0  0  0  0  0  0  0  0  0
   17.0362   -7.0904  -14.6783 C   0  0  0  0  0  0  0  0  0  0  0  0
   15.9202   -5.6828  -14.4750 S   0  0  0  0  0  0  0  0  0  0  0  0
   18.8237   -5.4008  -15.0114 C   0  0  0  0  0  0  0  0  0  0  0  0
   18.3925   -4.1869  -15.4933 O   0  0  0  0  0  0  0  0  0  0  0  0
   19.7292   -5.4232  -14.1478 O   0  0  0  0  0  0  0  0  0  0  0  0
  2  1  1  0
  3  2  1  0
  3  4  1  6
  5  7  1  0
  5  3  1  0
  5  6  1  1
  7  8  2  0
  9 10  1  0
  9  7  1  0
 11 12  1  0
 10 11  1  6
 12 13  1  0
 13 14  2  0
 13 17  1  0
 15 10  1  0
 16 15  2  0
 18 15  1  0
 19 18  1  0
 19 20  1  1
 20 21  1  0
 22 19  1  0
 23 22  1  0
 24 22  2  0
M  END
$$$$
