IEC.pdb
     RDKit          3D

 24 23  0  0  1  0  0  0  0  0999 V2000
   16.2530  -27.8527   -2.5913 C   0  0  0  0  0  0  0  0  0  0  0  0
   16.6492  -26.4904   -3.0572 C   0  0  0  0  0  0  0  0  0  0  0  0
   17.3653  -26.5208   -4.3945 C   0  0  2  0  0  0  0  0  0  0  0  0
   18.7110  -27.2220   -4.2803 C   0  0  0  0  0  0  0  0  0  0  0  0
   17.6622  -25.0975   -4.8231 C   0  0  2  0  0  0  0  0  0  0  0  0
   16.3819  -24.4320   -4.9781 N   0  0  0  0  0  0  0  0  0  0  0  0
   18.3915  -25.0155   -6.0841 C   0  0  0  0  0  0  0  0  0  0  0  0
   19.5755  -25.4828   -6.2023 O   0  0  0  0  0  0  0  0  0  0  0  0
   17.9027  -24.4360   -7.2778 N   0  0  0  0  0  0  0  0  0  0  0  0
   18.5942  -24.2976   -8.5004 C   0  0  1  0  0  0  0  0  0  0  0  0
   17.8487  -24.6115   -9.7483 C   0  0  0  0  0  0  0  0  0  0  0  0
   18.7727  -24.6482  -10.9724 C   0  0  0  0  0  0  0  0  0  0  0  0
   18.0074  -24.9611  -12.1904 C   0  0  0  0  0  0  0  0  0  0  0  0
   16.7755  -25.1101  -12.1217 O   0  0  0  0  0  0  0  0  0  0  0  0
   19.0703  -22.8948   -8.5951 C   0  0  0  0  0  0  0  0  0  0  0  0
   18.3338  -21.9654   -8.1890 O   0  0  0  0  0  0  0  0  0  0  0  0
   18.6473  -25.0882  -13.3966 O   0  0  0  0  0  0  0  0  0  0  0  0
   20.3503  -22.5670   -9.1383 N   0  0  0  0  0  0  0  0  0  0  0  0
   20.7727  -21.1810   -9.1752 C   0  0  1  0  0  0  0  0  0  0  0  0
   22.2695  -21.1470   -8.9637 C   0  0  0  0  0  0  0  0  0  0  0  0
   22.7364  -22.0249   -7.4540 S   0  0  0  0  0  0  0  0  0  0  0  0
   20.3804  -20.5261  -10.4492 C   0  0  0  0  0  0  0  0  0  0  0  0
   20.5260  -19.1783  -10.6819 O   0  0  0  0  0  0  0  0  0  0  0  0
   19.8940  -21.2476  -11.3487 O   0  0  0  0  0  0  0  0  0  0  0  0
  2  1  1  0
  3  2  1  0
  3  4  1  1
  5  7  1  0
  5  3  1  0
  5  6  1  6
  7  8  2  0
  9 10  1  0
  9  7  1  0
 11 12  1  0
 10 11  1  6
 12 13  1  0
 13 14  2  0
 13 17  1  0
 15 10  1  0
 16 15  2  0
 18 15  1  0
 19 18  1  0
 19 20  1  6
 20 21  1  0
 22 19  1  0
 23 22  1  0
 24 22  2  0
M  END
$$$$
