IEC.pdb
     RDKit          3D

 24 23  0  0  1  0  0  0  0  0999 V2000
   18.2121  -12.9614  -17.1751 C   0  0  0  0  0  0  0  0  0  0  0  0
   17.8058  -12.5493  -15.7985 C   0  0  0  0  0  0  0  0  0  0  0  0
   17.9071  -11.0500  -15.5889 C   0  0  2  0  0  0  0  0  0  0  0  0
   19.3571  -10.5892  -15.6159 C   0  0  0  0  0  0  0  0  0  0  0  0
   17.3789  -10.7120  -14.2088 C   0  0  2  0  0  0  0  0  0  0  0  0
   15.9858  -11.1175  -14.1837 N   0  0  0  0  0  0  0  0  0  0  0  0
   17.4616   -9.2902  -13.8924 C   0  0  0  0  0  0  0  0  0  0  0  0
   16.6608   -8.4420  -14.4155 O   0  0  0  0  0  0  0  0  0  0  0  0
   18.3943   -8.6998  -13.0086 N   0  0  0  0  0  0  0  0  0  0  0  0
   18.5345   -7.3265  -12.7143 C   0  0  1  0  0  0  0  0  0  0  0  0
   18.2912   -6.8986  -11.3109 C   0  0  0  0  0  0  0  0  0  0  0  0
   16.7958   -6.8827  -10.9690 C   0  0  0  0  0  0  0  0  0  0  0  0
   16.5792   -6.3478   -9.6147 C   0  0  0  0  0  0  0  0  0  0  0  0
   17.5454   -6.2130   -8.8447 O   0  0  0  0  0  0  0  0  0  0  0  0
   19.9154   -6.9235  -13.0802 C   0  0  0  0  0  0  0  0  0  0  0  0
   20.8889   -7.5027  -12.5438 O   0  0  0  0  0  0  0  0  0  0  0  0
   15.3191   -5.9989   -9.2015 O   0  0  0  0  0  0  0  0  0  0  0  0
   20.1730   -5.8891  -14.0313 N   0  0  0  0  0  0  0  0  0  0  0  0
   21.5396   -5.6107  -14.4257 C   0  0  1  0  0  0  0  0  0  0  0  0
   21.5548   -5.3921  -15.9218 C   0  0  0  0  0  0  0  0  0  0  0  0
   20.8265   -6.7975  -16.7950 S   0  0  0  0  0  0  0  0  0  0  0  0
   22.0909   -4.4430  -13.6919 C   0  0  0  0  0  0  0  0  0  0  0  0
   23.4356   -4.1634  -13.6179 O   0  0  0  0  0  0  0  0  0  0  0  0
   21.2809   -3.6826  -13.1158 O   0  0  0  0  0  0  0  0  0  0  0  0
  2  1  1  0
  3  2  1  0
  3  4  1  1
  5  7  1  0
  5  3  1  0
  5  6  1  6
  7  8  2  0
  9 10  1  0
  9  7  1  0
 11 12  1  0
 10 11  1  1
 12 13  1  0
 13 14  2  0
 13 17  1  0
 15 10  1  0
 16 15  2  0
 18 15  1  0
 19 18  1  0
 19 20  1  6
 20 21  1  0
 22 19  1  0
 23 22  1  0
 24 22  2  0
M  END
$$$$
