IEC.pdb
     RDKit          3D

 24 23  0  0  1  0  0  0  0  0999 V2000
   17.3764  -14.3159  -18.7163 C   0  0  0  0  0  0  0  0  0  0  0  0
   18.0761  -13.7320  -17.5334 C   0  0  0  0  0  0  0  0  0  0  0  0
   18.1485  -12.2176  -17.5922 C   0  0  2  0  0  0  0  0  0  0  0  0
   19.0082  -11.7544  -18.7591 C   0  0  0  0  0  0  0  0  0  0  0  0
   18.8281  -11.7110  -16.3355 C   0  0  2  0  0  0  0  0  0  0  0  0
   18.0132  -12.1447  -15.2158 N   0  0  0  0  0  0  0  0  0  0  0  0
   18.9520  -10.2579  -16.2932 C   0  0  0  0  0  0  0  0  0  0  0  0
   19.6290   -9.6196  -17.1699 O   0  0  0  0  0  0  0  0  0  0  0  0
   18.3661   -9.4130  -15.3224 N   0  0  0  0  0  0  0  0  0  0  0  0
   18.4034   -8.0025  -15.2896 C   0  0  1  0  0  0  0  0  0  0  0  0
   17.2379   -7.3002  -14.6896 C   0  0  0  0  0  0  0  0  0  0  0  0
   16.0224   -7.3069  -15.6256 C   0  0  0  0  0  0  0  0  0  0  0  0
   14.8352   -6.7739  -14.9375 C   0  0  0  0  0  0  0  0  0  0  0  0
   14.5730   -5.5613  -15.0128 O   0  0  0  0  0  0  0  0  0  0  0  0
   19.6161   -7.5989  -14.5347 C   0  0  0  0  0  0  0  0  0  0  0  0
   19.8440   -8.1127  -13.4144 O   0  0  0  0  0  0  0  0  0  0  0  0
   14.0203   -7.6081  -14.2161 O   0  0  0  0  0  0  0  0  0  0  0  0
   20.5391   -6.6364  -15.0475 N   0  0  0  0  0  0  0  0  0  0  0  0
   21.6934   -6.2656  -14.2533 C   0  0  1  0  0  0  0  0  0  0  0  0
   22.9294   -6.7458  -14.9799 C   0  0  0  0  0  0  0  0  0  0  0  0
   22.9938   -8.5515  -15.0371 S   0  0  0  0  0  0  0  0  0  0  0  0
   21.7343   -4.8022  -14.0024 C   0  0  0  0  0  0  0  0  0  0  0  0
   22.4811   -4.2281  -13.0003 O   0  0  0  0  0  0  0  0  0  0  0  0
   21.0504   -4.0649  -14.7473 O   0  0  0  0  0  0  0  0  0  0  0  0
  2  1  1  0
  3  2  1  0
  3  4  1  6
  5  7  1  0
  5  3  1  0
  5  6  1  1
  7  8  2  0
  9 10  1  0
  9  7  1  0
 11 12  1  0
 10 11  1  1
 12 13  1  0
 13 14  2  0
 13 17  1  0
 15 10  1  0
 16 15  2  0
 18 15  1  0
 19 18  1  0
 19 20  1  6
 20 21  1  0
 22 19  1  0
 23 22  1  0
 24 22  2  0
M  END
$$$$
