IEC.pdb
     RDKit          3D

 24 23  0  0  1  0  0  0  0  0999 V2000
   24.9329  -14.0722  -16.7596 C   0  0  0  0  0  0  0  0  0  0  0  0
   24.1104  -13.2480  -15.8247 C   0  0  0  0  0  0  0  0  0  0  0  0
   23.7448  -11.8974  -16.4114 C   0  0  2  0  0  0  0  0  0  0  0  0
   24.9873  -11.0588  -16.6735 C   0  0  0  0  0  0  0  0  0  0  0  0
   22.9199  -11.1302  -15.3971 C   0  0  2  0  0  0  0  0  0  0  0  0
   21.8413  -12.0093  -14.9850 N   0  0  0  0  0  0  0  0  0  0  0  0
   22.3467   -9.9000  -15.9324 C   0  0  0  0  0  0  0  0  0  0  0  0
   23.0853   -8.9687  -16.4030 O   0  0  0  0  0  0  0  0  0  0  0  0
   20.9667   -9.5978  -15.9949 N   0  0  0  0  0  0  0  0  0  0  0  0
   20.3771   -8.4176  -16.4963 C   0  0  1  0  0  0  0  0  0  0  0  0
   19.0493   -8.5415  -17.1545 C   0  0  0  0  0  0  0  0  0  0  0  0
   19.1255   -9.3686  -18.4443 C   0  0  0  0  0  0  0  0  0  0  0  0
   17.8793   -9.2397  -19.2173 C   0  0  0  0  0  0  0  0  0  0  0  0
   16.7836   -9.3357  -18.6386 O   0  0  0  0  0  0  0  0  0  0  0  0
   20.2378   -7.4654  -15.3660 C   0  0  0  0  0  0  0  0  0  0  0  0
   20.2520   -7.8987  -14.1900 O   0  0  0  0  0  0  0  0  0  0  0  0
   17.9232   -9.0148  -20.5693 O   0  0  0  0  0  0  0  0  0  0  0  0
   20.0868   -6.0605  -15.5768 N   0  0  0  0  0  0  0  0  0  0  0  0
   20.5198   -5.1371  -14.5469 C   0  0  1  0  0  0  0  0  0  0  0  0
   21.9682   -5.4378  -14.2341 C   0  0  0  0  0  0  0  0  0  0  0  0
   22.6072   -4.3233  -12.9622 S   0  0  0  0  0  0  0  0  0  0  0  0
   20.3275   -3.7251  -14.9659 C   0  0  0  0  0  0  0  0  0  0  0  0
   20.7108   -3.2430  -16.1956 O   0  0  0  0  0  0  0  0  0  0  0  0
   19.7882   -2.9444  -14.1498 O   0  0  0  0  0  0  0  0  0  0  0  0
  2  1  1  0
  3  2  1  0
  3  4  1  1
  5  7  1  0
  5  3  1  0
  5  6  1  6
  7  8  2  0
  9 10  1  0
  9  7  1  0
 11 12  1  0
 10 11  1  1
 12 13  1  0
 13 14  2  0
 13 17  1  0
 15 10  1  0
 16 15  2  0
 18 15  1  0
 19 18  1  0
 19 20  1  6
 20 21  1  0
 22 19  1  0
 23 22  1  0
 24 22  2  0
M  END
$$$$
