IEC.pdb
     RDKit          3D

 24 23  0  0  1  0  0  0  0  0999 V2000
   18.4545  -14.2814  -18.6505 C   0  0  0  0  0  0  0  0  0  0  0  0
   19.5842  -13.3419  -18.3837 C   0  0  0  0  0  0  0  0  0  0  0  0
   19.2436  -12.3127  -17.3222 C   0  0  2  0  0  0  0  0  0  0  0  0
   18.1267  -11.3912  -17.7901 C   0  0  0  0  0  0  0  0  0  0  0  0
   20.4540  -11.4302  -17.0899 C   0  0  2  0  0  0  0  0  0  0  0  0
   21.5299  -12.3023  -16.6565 N   0  0  0  0  0  0  0  0  0  0  0  0
   20.2357  -10.4090  -16.0711 C   0  0  0  0  0  0  0  0  0  0  0  0
   19.7921  -10.7082  -14.9100 O   0  0  0  0  0  0  0  0  0  0  0  0
   20.4764   -9.0250  -16.2327 N   0  0  0  0  0  0  0  0  0  0  0  0
   20.1664   -7.9960  -15.3177 C   0  0  1  0  0  0  0  0  0  0  0  0
   21.1990   -6.9512  -15.0863 C   0  0  0  0  0  0  0  0  0  0  0  0
   20.7170   -5.8794  -14.1001 C   0  0  0  0  0  0  0  0  0  0  0  0
   21.7841   -4.9002  -13.8361 C   0  0  0  0  0  0  0  0  0  0  0  0
   21.4918   -3.7064  -13.6519 O   0  0  0  0  0  0  0  0  0  0  0  0
   18.9344   -7.3203  -15.7964 C   0  0  0  0  0  0  0  0  0  0  0  0
   18.8583   -6.9526  -16.9922 O   0  0  0  0  0  0  0  0  0  0  0  0
   23.0952   -5.2997  -13.7929 O   0  0  0  0  0  0  0  0  0  0  0  0
   17.8241   -7.0736  -14.9318 N   0  0  0  0  0  0  0  0  0  0  0  0
   16.7144   -6.2740  -15.4111 C   0  0  1  0  0  0  0  0  0  0  0  0
   15.4393   -7.0383  -15.1351 C   0  0  0  0  0  0  0  0  0  0  0  0
   13.9845   -5.9954  -15.3881 S   0  0  0  0  0  0  0  0  0  0  0  0
   16.6995   -4.9296  -14.7799 C   0  0  0  0  0  0  0  0  0  0  0  0
   16.2540   -3.7981  -15.4225 O   0  0  0  0  0  0  0  0  0  0  0  0
   17.1158   -4.8345  -13.6035 O   0  0  0  0  0  0  0  0  0  0  0  0
  2  1  1  0
  3  2  1  0
  3  4  1  6
  5  7  1  0
  5  3  1  0
  5  6  1  1
  7  8  2  0
  9 10  1  0
  9  7  1  0
 11 12  1  0
 10 11  1  6
 12 13  1  0
 13 14  2  0
 13 17  1  0
 15 10  1  0
 16 15  2  0
 18 15  1  0
 19 18  1  0
 19 20  1  1
 20 21  1  0
 22 19  1  0
 23 22  1  0
 24 22  2  0
M  END
$$$$
