IEC.pdb
     RDKit          3D

 24 23  0  0  1  0  0  0  0  0999 V2000
   28.5347  -12.3626  -16.4229 C   0  0  0  0  0  0  0  0  0  0  0  0
   27.1134  -12.6848  -16.0973 C   0  0  0  0  0  0  0  0  0  0  0  0
   26.1764  -11.5263  -16.3834 C   0  0  2  0  0  0  0  0  0  0  0  0
   26.3923  -10.3893  -15.3954 C   0  0  0  0  0  0  0  0  0  0  0  0
   24.7474  -11.9931  -16.1892 C   0  0  2  0  0  0  0  0  0  0  0  0
   24.5469  -13.1119  -17.0914 N   0  0  0  0  0  0  0  0  0  0  0  0
   23.7587  -10.9630  -16.4890 C   0  0  0  0  0  0  0  0  0  0  0  0
   23.4573  -10.6571  -17.6932 O   0  0  0  0  0  0  0  0  0  0  0  0
   23.0434  -10.2090  -15.5301 N   0  0  0  0  0  0  0  0  0  0  0  0
   22.0333   -9.2555  -15.7801 C   0  0  1  0  0  0  0  0  0  0  0  0
   20.6575   -9.5775  -15.3164 C   0  0  0  0  0  0  0  0  0  0  0  0
   19.6451   -8.5066  -15.7427 C   0  0  0  0  0  0  0  0  0  0  0  0
   18.2943   -8.8531  -15.2713 C   0  0  0  0  0  0  0  0  0  0  0  0
   18.1290   -9.8633  -14.5664 O   0  0  0  0  0  0  0  0  0  0  0  0
   22.4439   -7.9818  -15.1377 C   0  0  0  0  0  0  0  0  0  0  0  0
   22.9507   -8.0052  -13.9916 O   0  0  0  0  0  0  0  0  0  0  0  0
   17.2214   -8.0677  -15.6062 O   0  0  0  0  0  0  0  0  0  0  0  0
   22.2788   -6.7206  -15.7882 N   0  0  0  0  0  0  0  0  0  0  0  0
   22.6544   -5.5069  -15.0908 C   0  0  1  0  0  0  0  0  0  0  0  0
   23.0149   -4.4685  -16.1290 C   0  0  0  0  0  0  0  0  0  0  0  0
   23.4656   -2.8986  -15.3542 S   0  0  0  0  0  0  0  0  0  0  0  0
   21.5684   -5.0362  -14.1935 C   0  0  0  0  0  0  0  0  0  0  0  0
   21.7931   -4.5447  -12.9288 O   0  0  0  0  0  0  0  0  0  0  0  0
   20.3938   -5.0949  -14.6213 O   0  0  0  0  0  0  0  0  0  0  0  0
  2  1  1  0
  3  2  1  0
  3  4  1  1
  5  7  1  0
  5  3  1  0
  5  6  1  6
  7  8  2  0
  9 10  1  0
  9  7  1  0
 11 12  1  0
 10 11  1  1
 12 13  1  0
 13 14  2  0
 13 17  1  0
 15 10  1  0
 16 15  2  0
 18 15  1  0
 19 18  1  0
 19 20  1  6
 20 21  1  0
 22 19  1  0
 23 22  1  0
 24 22  2  0
M  END
$$$$
