IEC.pdb
     RDKit          3D

 24 23  0  0  1  0  0  0  0  0999 V2000
   12.2422  -12.7710  -10.1009 C   0  0  0  0  0  0  0  0  0  0  0  0
   13.4985  -12.3811  -10.8076 C   0  0  0  0  0  0  0  0  0  0  0  0
   14.2432  -11.2683  -10.0941 C   0  0  2  0  0  0  0  0  0  0  0  0
   13.4169   -9.9910  -10.0573 C   0  0  0  0  0  0  0  0  0  0  0  0
   15.4993  -10.9400  -10.8766 C   0  0  2  0  0  0  0  0  0  0  0  0
   16.3532  -12.1113  -10.8069 N   0  0  0  0  0  0  0  0  0  0  0  0
   16.2275   -9.7937  -10.3432 C   0  0  0  0  0  0  0  0  0  0  0  0
   16.8343   -9.8520   -9.2195 O   0  0  0  0  0  0  0  0  0  0  0  0
   16.3476   -8.5334  -10.9731 N   0  0  0  0  0  0  0  0  0  0  0  0
   16.9818   -7.3827  -10.4575 C   0  0  1  0  0  0  0  0  0  0  0  0
   17.9619   -6.6895  -11.3353 C   0  0  0  0  0  0  0  0  0  0  0  0
   19.2418   -7.5136  -11.5257 C   0  0  0  0  0  0  0  0  0  0  0  0
   20.1942   -6.7996  -12.3919 C   0  0  0  0  0  0  0  0  0  0  0  0
   20.7387   -5.7603  -11.9820 O   0  0  0  0  0  0  0  0  0  0  0  0
   15.9239   -6.4060  -10.0962 C   0  0  0  0  0  0  0  0  0  0  0  0
   14.7669   -6.5530  -10.5551 O   0  0  0  0  0  0  0  0  0  0  0  0
   20.4816   -7.2760  -13.6452 O   0  0  0  0  0  0  0  0  0  0  0  0
   16.1838   -5.2955   -9.2358 N   0  0  0  0  0  0  0  0  0  0  0  0
   15.1009   -4.3966   -8.8894 C   0  0  1  0  0  0  0  0  0  0  0  0
   14.1565   -5.1404   -7.9724 C   0  0  0  0  0  0  0  0  0  0  0  0
   12.9466   -4.0199   -7.2317 S   0  0  0  0  0  0  0  0  0  0  0  0
   15.6084   -3.1485   -8.2642 C   0  0  0  0  0  0  0  0  0  0  0  0
   14.9464   -1.9450   -8.3346 O   0  0  0  0  0  0  0  0  0  0  0  0
   16.6942   -3.2078   -7.6447 O   0  0  0  0  0  0  0  0  0  0  0  0
  2  1  1  0
  3  2  1  0
  3  4  1  6
  5  7  1  0
  5  3  1  0
  5  6  1  1
  7  8  2  0
  9 10  1  0
  9  7  1  0
 11 12  1  0
 10 11  1  6
 12 13  1  0
 13 14  2  0
 13 17  1  0
 15 10  1  0
 16 15  2  0
 18 15  1  0
 19 18  1  0
 19 20  1  1
 20 21  1  0
 22 19  1  0
 23 22  1  0
 24 22  2  0
M  END
$$$$
