WEG.pdb
     RDKit          3D

 28 29  0  0  1  0  0  0  0  0999 V2000
   17.1914  -17.1973    2.3500 N   0  0  0  0  0  0  0  0  0  0  0  0
   17.9180  -17.0962    3.5862 C   0  0  1  0  0  0  0  0  0  0  0  0
   17.2069  -16.2555    4.6099 C   0  0  0  0  0  0  0  0  0  0  0  0
   17.6523  -14.8445    4.6326 C   0  0  0  0  0  0  0  0  0  0  0  0
   17.1143  -13.7646    3.9538 C   0  0  0  0  0  0  0  0  0  0  0  0
   17.8450  -12.6652    4.2391 N   0  0  0  0  0  0  0  0  0  0  0  0
   18.8425  -12.9942    5.0832 C   0  0  0  0  0  0  0  0  0  0  0  0
   19.8301  -12.2386    5.6575 C   0  0  0  0  0  0  0  0  0  0  0  0
   20.7339  -12.8130    6.4998 C   0  0  0  0  0  0  0  0  0  0  0  0
   20.6548  -14.1544    6.7747 C   0  0  0  0  0  0  0  0  0  0  0  0
   19.6681  -14.9045    6.1993 C   0  0  0  0  0  0  0  0  0  0  0  0
   18.7311  -14.3618    5.3380 C   0  0  0  0  0  0  0  0  0  0  0  0
   18.2780  -18.4437    4.1392 C   0  0  0  0  0  0  0  0  0  0  0  0
   17.7098  -19.4944    3.6918 O   0  0  0  0  0  0  0  0  0  0  0  0
   19.2594  -18.5066    5.1617 N   0  0  0  0  0  0  0  0  0  0  0  0
   19.5674  -19.8193    5.7671 C   0  0  1  0  0  0  0  0  0  0  0  0
   21.0534  -19.8906    5.9859 C   0  0  0  0  0  0  0  0  0  0  0  0
   21.5918  -21.1720    6.4814 C   0  0  0  0  0  0  0  0  0  0  0  0
   21.5789  -21.1343    7.9876 C   0  0  0  0  0  0  0  0  0  0  0  0
   22.0295  -20.1627    8.6253 O   0  0  0  0  0  0  0  0  0  0  0  0
   18.9148  -19.9245    7.0919 C   0  0  0  0  0  0  0  0  0  0  0  0
   18.9639  -18.9554    7.8853 O   0  0  0  0  0  0  0  0  0  0  0  0
   21.0573  -22.1965    8.6858 O   0  0  0  0  0  0  0  0  0  0  0  0
   18.2098  -21.0806    7.5525 N   0  0  0  0  0  0  0  0  0  0  0  0
   17.6277  -21.1830    8.8566 C   0  0  0  0  0  0  0  0  0  0  0  0
   16.9693  -22.4751    9.1317 C   0  0  0  0  0  0  0  0  0  0  0  0
   16.4470  -22.6596   10.4173 O   0  0  0  0  0  0  0  0  0  0  0  0
   16.8356  -23.4115    8.3309 O   0  0  0  0  0  0  0  0  0  0  0  0
  2  1  1  6
  2  3  1  0
  2 13  1  0
  3  4  1  0
  4  5  2  0
  5  6  1  0
  7  8  2  0
  7  6  1  0
  9  8  1  0
 10  9  2  0
 11 10  1  0
 11 12  2  0
 12  4  1  0
 12  7  1  0
 13 15  1  0
 13 14  2  0
 15 16  1  0
 16 17  1  1
 18 17  1  0
 19 20  2  0
 19 18  1  0
 21 16  1  0
 21 22  2  0
 23 19  1  0
 24 21  1  0
 25 24  1  0
 26 25  1  0
 27 26  1  0
 28 26  2  0
M  END
$$$$
