WEG.pdb
     RDKit          3D

 28 29  0  0  1  0  0  0  0  0999 V2000
   26.6286  -22.9087  -13.1924 N   0  0  0  0  0  0  0  0  0  0  0  0
   25.8355  -21.8221  -12.6859 C   0  0  1  0  0  0  0  0  0  0  0  0
   26.6296  -20.5577  -12.5087 C   0  0  0  0  0  0  0  0  0  0  0  0
   27.6339  -20.6344  -11.4246 C   0  0  0  0  0  0  0  0  0  0  0  0
   28.9717  -20.9777  -11.5179 C   0  0  0  0  0  0  0  0  0  0  0  0
   29.5148  -20.9462  -10.2817 N   0  0  0  0  0  0  0  0  0  0  0  0
   28.5731  -20.5926   -9.3851 C   0  0  0  0  0  0  0  0  0  0  0  0
   28.6336  -20.4194   -8.0277 C   0  0  0  0  0  0  0  0  0  0  0  0
   27.5240  -20.0440   -7.3320 C   0  0  0  0  0  0  0  0  0  0  0  0
   26.3404  -19.8380   -7.9935 C   0  0  0  0  0  0  0  0  0  0  0  0
   26.2844  -20.0121   -9.3476 C   0  0  0  0  0  0  0  0  0  0  0  0
   27.3865  -20.3935  -10.0922 C   0  0  0  0  0  0  0  0  0  0  0  0
   24.6086  -21.5858  -13.5166 C   0  0  0  0  0  0  0  0  0  0  0  0
   24.6796  -21.6145  -14.7898 O   0  0  0  0  0  0  0  0  0  0  0  0
   23.3845  -21.3344  -12.8451 N   0  0  0  0  0  0  0  0  0  0  0  0
   22.1503  -21.2058  -13.6482 C   0  0  1  0  0  0  0  0  0  0  0  0
   21.0207  -21.8092  -12.8601 C   0  0  0  0  0  0  0  0  0  0  0  0
   19.7014  -21.8575  -13.5194 C   0  0  0  0  0  0  0  0  0  0  0  0
   18.7401  -22.5558  -12.5928 C   0  0  0  0  0  0  0  0  0  0  0  0
   18.2095  -21.9677  -11.6303 O   0  0  0  0  0  0  0  0  0  0  0  0
   21.8358  -19.7740  -13.8560 C   0  0  0  0  0  0  0  0  0  0  0  0
   21.6995  -19.0196  -12.8643 O   0  0  0  0  0  0  0  0  0  0  0  0
   18.4342  -23.8779  -12.8077 O   0  0  0  0  0  0  0  0  0  0  0  0
   21.6706  -19.1641  -15.1390 N   0  0  0  0  0  0  0  0  0  0  0  0
   21.2425  -17.8098  -15.3204 C   0  0  0  0  0  0  0  0  0  0  0  0
   19.7831  -17.6451  -15.4663 C   0  0  0  0  0  0  0  0  0  0  0  0
   19.1324  -16.8713  -14.4979 O   0  0  0  0  0  0  0  0  0  0  0  0
   19.0801  -18.1276  -16.3657 O   0  0  0  0  0  0  0  0  0  0  0  0
  2  1  1  6
  2  3  1  0
  2 13  1  0
  3  4  1  0
  4  5  2  0
  5  6  1  0
  7  8  2  0
  7  6  1  0
  9  8  1  0
 10  9  2  0
 11 10  1  0
 11 12  2  0
 12  4  1  0
 12  7  1  0
 13 15  1  0
 13 14  2  0
 15 16  1  0
 16 17  1  1
 18 17  1  0
 19 20  2  0
 19 18  1  0
 21 16  1  0
 21 22  2  0
 23 19  1  0
 24 21  1  0
 25 24  1  0
 26 25  1  0
 27 26  1  0
 28 26  2  0
M  END
$$$$
