WEG.pdb
     RDKit          3D

 28 29  0  0  1  0  0  0  0  0999 V2000
   28.1548  -21.0261  -10.0367 N   0  0  0  0  0  0  0  0  0  0  0  0
   26.7943  -21.2180   -9.6141 C   0  0  1  0  0  0  0  0  0  0  0  0
   26.5311  -20.6697   -8.2391 C   0  0  0  0  0  0  0  0  0  0  0  0
   27.7459  -20.1731   -7.5554 C   0  0  0  0  0  0  0  0  0  0  0  0
   28.9618  -19.8212   -8.1159 C   0  0  0  0  0  0  0  0  0  0  0  0
   29.8029  -19.4470   -7.1276 N   0  0  0  0  0  0  0  0  0  0  0  0
   29.1733  -19.5434   -5.9401 C   0  0  0  0  0  0  0  0  0  0  0  0
   29.5967  -19.2750   -4.6654 C   0  0  0  0  0  0  0  0  0  0  0  0
   28.7531  -19.4480   -3.6096 C   0  0  0  0  0  0  0  0  0  0  0  0
   27.4735  -19.8927   -3.8236 C   0  0  0  0  0  0  0  0  0  0  0  0
   27.0553  -20.1595   -5.0968 C   0  0  0  0  0  0  0  0  0  0  0  0
   27.8792  -19.9985   -6.1967 C   0  0  0  0  0  0  0  0  0  0  0  0
   25.8133  -20.6810  -10.6144 C   0  0  0  0  0  0  0  0  0  0  0  0
   25.7427  -19.4268  -10.8355 O   0  0  0  0  0  0  0  0  0  0  0  0
   24.9801  -21.6048  -11.2964 N   0  0  0  0  0  0  0  0  0  0  0  0
   24.1028  -21.1038  -12.3753 C   0  0  1  0  0  0  0  0  0  0  0  0
   23.9607  -22.1949  -13.4002 C   0  0  0  0  0  0  0  0  0  0  0  0
   25.1937  -22.6286  -14.0849 C   0  0  0  0  0  0  0  0  0  0  0  0
   25.7841  -21.4336  -14.7876 C   0  0  0  0  0  0  0  0  0  0  0  0
   25.0687  -20.5335  -15.2688 O   0  0  0  0  0  0  0  0  0  0  0  0
   22.7545  -20.8213  -11.8329 C   0  0  0  0  0  0  0  0  0  0  0  0
   22.4137  -21.3153  -10.7324 O   0  0  0  0  0  0  0  0  0  0  0  0
   27.1488  -21.3251  -14.9055 O   0  0  0  0  0  0  0  0  0  0  0  0
   21.7795  -20.0032  -12.4852 N   0  0  0  0  0  0  0  0  0  0  0  0
   20.4763  -19.7486  -11.9495 C   0  0  0  0  0  0  0  0  0  0  0  0
   19.6302  -18.8783  -12.7893 C   0  0  0  0  0  0  0  0  0  0  0  0
   18.5200  -18.2883  -12.1737 O   0  0  0  0  0  0  0  0  0  0  0  0
   19.8110  -18.6211  -13.9882 O   0  0  0  0  0  0  0  0  0  0  0  0
  2  1  1  6
  2  3  1  0
  2 13  1  0
  3  4  1  0
  4  5  2  0
  5  6  1  0
  7  8  2  0
  7  6  1  0
  9  8  1  0
 10  9  2  0
 11 10  1  0
 11 12  2  0
 12  4  1  0
 12  7  1  0
 13 15  1  0
 13 14  2  0
 15 16  1  0
 16 17  1  6
 18 17  1  0
 19 20  2  0
 19 18  1  0
 21 16  1  0
 21 22  2  0
 23 19  1  0
 24 21  1  0
 25 24  1  0
 26 25  1  0
 27 26  1  0
 28 26  2  0
M  END
$$$$
