WEG.pdb
     RDKit          3D

 28 29  0  0  1  0  0  0  0  0999 V2000
   26.3369  -21.7511  -12.4704 N   0  0  0  0  0  0  0  0  0  0  0  0
   25.6834  -21.1891  -11.3200 C   0  0  1  0  0  0  0  0  0  0  0  0
   26.5392  -20.1845  -10.5997 C   0  0  0  0  0  0  0  0  0  0  0  0
   27.8414  -20.7263  -10.1519 C   0  0  0  0  0  0  0  0  0  0  0  0
   28.7856  -21.4130  -10.8958 C   0  0  0  0  0  0  0  0  0  0  0  0
   29.8144  -21.7483  -10.0874 N   0  0  0  0  0  0  0  0  0  0  0  0
   29.5708  -21.3013   -8.8398 C   0  0  0  0  0  0  0  0  0  0  0  0
   30.3053  -21.3870   -7.6868 C   0  0  0  0  0  0  0  0  0  0  0  0
   29.8379  -20.8376   -6.5310 C   0  0  0  0  0  0  0  0  0  0  0  0
   28.6262  -20.1951   -6.5213 C   0  0  0  0  0  0  0  0  0  0  0  0
   27.8967  -20.1122   -7.6737 C   0  0  0  0  0  0  0  0  0  0  0  0
   28.3334  -20.6568   -8.8684 C   0  0  0  0  0  0  0  0  0  0  0  0
   24.3380  -20.6183  -11.6598 C   0  0  0  0  0  0  0  0  0  0  0  0
   23.5668  -20.1970  -10.7353 O   0  0  0  0  0  0  0  0  0  0  0  0
   23.9604  -20.5638  -13.0262 N   0  0  0  0  0  0  0  0  0  0  0  0
   22.6105  -20.0683  -13.3681 C   0  0  1  0  0  0  0  0  0  0  0  0
   22.6938  -19.3831  -14.7040 C   0  0  0  0  0  0  0  0  0  0  0  0
   21.4832  -18.6769  -15.1657 C   0  0  0  0  0  0  0  0  0  0  0  0
   21.7828  -18.0629  -16.5087 C   0  0  0  0  0  0  0  0  0  0  0  0
   21.7424  -18.7300  -17.5608 O   0  0  0  0  0  0  0  0  0  0  0  0
   21.6793  -21.2107  -13.5087 C   0  0  0  0  0  0  0  0  0  0  0  0
   22.1359  -22.3614  -13.7053 O   0  0  0  0  0  0  0  0  0  0  0  0
   22.1105  -16.7308  -16.5846 O   0  0  0  0  0  0  0  0  0  0  0  0
   20.2551  -21.1022  -13.4351 N   0  0  0  0  0  0  0  0  0  0  0  0
   19.3780  -22.2332  -13.3936 C   0  0  0  0  0  0  0  0  0  0  0  0
   18.6058  -22.3616  -12.1424 C   0  0  0  0  0  0  0  0  0  0  0  0
   17.7284  -23.4482  -12.0474 O   0  0  0  0  0  0  0  0  0  0  0  0
   18.6617  -21.5974  -11.1682 O   0  0  0  0  0  0  0  0  0  0  0  0
  2  1  1  6
  2  3  1  0
  2 13  1  0
  3  4  1  0
  4  5  2  0
  5  6  1  0
  7  8  2  0
  7  6  1  0
  9  8  1  0
 10  9  2  0
 11 10  1  0
 11 12  2  0
 12  4  1  0
 12  7  1  0
 13 15  1  0
 13 14  2  0
 15 16  1  0
 16 17  1  6
 18 17  1  0
 19 20  2  0
 19 18  1  0
 21 16  1  0
 21 22  2  0
 23 19  1  0
 24 21  1  0
 25 24  1  0
 26 25  1  0
 27 26  1  0
 28 26  2  0
M  END
$$$$
