WEG.pdb
     RDKit          3D

 28 29  0  0  1  0  0  0  0  0999 V2000
   27.5440  -21.4666  -10.2738 N   0  0  0  0  0  0  0  0  0  0  0  0
   26.4684  -20.8355   -9.5587 C   0  0  1  0  0  0  0  0  0  0  0  0
   26.9370  -19.7048   -8.6856 C   0  0  0  0  0  0  0  0  0  0  0  0
   28.1606  -20.0179   -7.9144 C   0  0  0  0  0  0  0  0  0  0  0  0
   29.3199  -20.6309   -8.3577 C   0  0  0  0  0  0  0  0  0  0  0  0
   30.1745  -20.7458   -7.3181 N   0  0  0  0  0  0  0  0  0  0  0  0
   29.6088  -20.2264   -6.2108 C   0  0  0  0  0  0  0  0  0  0  0  0
   30.0727  -20.1050   -4.9278 C   0  0  0  0  0  0  0  0  0  0  0  0
   29.2991  -19.5241   -3.9685 C   0  0  0  0  0  0  0  0  0  0  0  0
   28.0495  -19.0580   -4.2887 C   0  0  0  0  0  0  0  0  0  0  0  0
   27.5905  -19.1814   -5.5698 C   0  0  0  0  0  0  0  0  0  0  0  0
   28.3426  -19.7653   -6.5737 C   0  0  0  0  0  0  0  0  0  0  0  0
   25.3638  -20.3980  -10.4749 C   0  0  0  0  0  0  0  0  0  0  0  0
   24.9486  -19.1921  -10.4504 O   0  0  0  0  0  0  0  0  0  0  0  0
   24.8067  -21.3589  -11.3575 N   0  0  0  0  0  0  0  0  0  0  0  0
   23.8476  -20.9032  -12.3857 C   0  0  1  0  0  0  0  0  0  0  0  0
   23.9212  -21.8602  -13.5433 C   0  0  0  0  0  0  0  0  0  0  0  0
   24.6823  -21.4151  -14.7265 C   0  0  0  0  0  0  0  0  0  0  0  0
   25.9969  -20.8515  -14.2527 C   0  0  0  0  0  0  0  0  0  0  0  0
   26.1655  -19.6281  -14.0836 O   0  0  0  0  0  0  0  0  0  0  0  0
   22.4704  -20.9602  -11.8452 C   0  0  0  0  0  0  0  0  0  0  0  0
   22.0971  -21.9719  -11.2064 O   0  0  0  0  0  0  0  0  0  0  0  0
   27.0446  -21.7030  -13.9975 O   0  0  0  0  0  0  0  0  0  0  0  0
   21.5018  -19.9191  -11.9985 N   0  0  0  0  0  0  0  0  0  0  0  0
   20.1752  -19.9898  -11.4645 C   0  0  0  0  0  0  0  0  0  0  0  0
   19.2818  -20.9284  -12.1711 C   0  0  0  0  0  0  0  0  0  0  0  0
   17.9509  -20.9831  -11.7403 O   0  0  0  0  0  0  0  0  0  0  0  0
   19.5997  -21.6724  -13.1100 O   0  0  0  0  0  0  0  0  0  0  0  0
  2  1  1  6
  2  3  1  0
  2 13  1  0
  3  4  1  0
  4  5  2  0
  5  6  1  0
  7  8  2  0
  7  6  1  0
  9  8  1  0
 10  9  2  0
 11 10  1  0
 11 12  2  0
 12  4  1  0
 12  7  1  0
 13 15  1  0
 13 14  2  0
 15 16  1  0
 16 17  1  6
 18 17  1  0
 19 20  2  0
 19 18  1  0
 21 16  1  0
 21 22  2  0
 23 19  1  0
 24 21  1  0
 25 24  1  0
 26 25  1  0
 27 26  1  0
 28 26  2  0
M  END
$$$$
