WEG.pdb
     RDKit          3D

 28 29  0  0  1  0  0  0  0  0999 V2000
   24.1013  -11.8452  -19.8792 N   0  0  0  0  0  0  0  0  0  0  0  0
   24.2790  -11.1655  -18.6251 C   0  0  1  0  0  0  0  0  0  0  0  0
   25.6407  -10.5427  -18.4906 C   0  0  0  0  0  0  0  0  0  0  0  0
   26.7464  -11.5263  -18.4938 C   0  0  0  0  0  0  0  0  0  0  0  0
   27.5845  -11.8706  -19.5404 C   0  0  0  0  0  0  0  0  0  0  0  0
   28.4355  -12.8301  -19.1170 N   0  0  0  0  0  0  0  0  0  0  0  0
   28.1789  -13.1220  -17.8267 C   0  0  0  0  0  0  0  0  0  0  0  0
   28.7658  -14.0096  -16.9642 C   0  0  0  0  0  0  0  0  0  0  0  0
   28.3225  -14.1167  -15.6803 C   0  0  0  0  0  0  0  0  0  0  0  0
   27.2838  -13.3319  -15.2487 C   0  0  0  0  0  0  0  0  0  0  0  0
   26.7010  -12.4480  -16.1126 C   0  0  0  0  0  0  0  0  0  0  0  0
   27.1191  -12.3081  -17.4241 C   0  0  0  0  0  0  0  0  0  0  0  0
   23.1915  -10.1641  -18.3687 C   0  0  0  0  0  0  0  0  0  0  0  0
   22.7382   -9.4495  -19.3231 O   0  0  0  0  0  0  0  0  0  0  0  0
   22.6919  -10.0430  -17.0464 N   0  0  0  0  0  0  0  0  0  0  0  0
   21.5490   -9.1382  -16.8018 C   0  0  1  0  0  0  0  0  0  0  0  0
   20.5851   -9.8465  -15.8904 C   0  0  0  0  0  0  0  0  0  0  0  0
   19.2844   -9.1895  -15.6586 C   0  0  0  0  0  0  0  0  0  0  0  0
   18.4764  -10.0637  -14.7348 C   0  0  0  0  0  0  0  0  0  0  0  0
   18.9562  -11.0880  -14.2113 O   0  0  0  0  0  0  0  0  0  0  0  0
   22.0160   -7.9212  -16.0999 C   0  0  0  0  0  0  0  0  0  0  0  0
   22.9052   -8.0155  -15.2215 O   0  0  0  0  0  0  0  0  0  0  0  0
   17.1731   -9.7294  -14.4563 O   0  0  0  0  0  0  0  0  0  0  0  0
   21.5178   -6.6046  -16.3532 N   0  0  0  0  0  0  0  0  0  0  0  0
   21.9709   -5.4406  -15.6533 C   0  0  0  0  0  0  0  0  0  0  0  0
   21.3615   -5.2526  -14.3222 C   0  0  0  0  0  0  0  0  0  0  0  0
   21.8087   -4.1610  -13.5685 O   0  0  0  0  0  0  0  0  0  0  0  0
   20.4910   -5.9708  -13.8097 O   0  0  0  0  0  0  0  0  0  0  0  0
  2  1  1  6
  2  3  1  0
  2 13  1  0
  3  4  1  0
  4  5  2  0
  5  6  1  0
  7  8  2  0
  7  6  1  0
  9  8  1  0
 10  9  2  0
 11 10  1  0
 11 12  2  0
 12  4  1  0
 12  7  1  0
 13 15  1  0
 13 14  2  0
 15 16  1  0
 16 17  1  1
 18 17  1  0
 19 20  2  0
 19 18  1  0
 21 16  1  0
 21 22  2  0
 23 19  1  0
 24 21  1  0
 25 24  1  0
 26 25  1  0
 27 26  1  0
 28 26  2  0
M  END
$$$$
