WEG.pdb
     RDKit          3D

 28 29  0  0  1  0  0  0  0  0999 V2000
   25.2249  -19.3765  -11.6501 N   0  0  0  0  0  0  0  0  0  0  0  0
   25.8461  -20.6585  -11.8421 C   0  0  1  0  0  0  0  0  0  0  0  0
   25.8789  -21.4814  -10.5842 C   0  0  0  0  0  0  0  0  0  0  0  0
   26.3482  -20.7329   -9.3971 C   0  0  0  0  0  0  0  0  0  0  0  0
   25.5929  -20.0389   -8.4674 C   0  0  0  0  0  0  0  0  0  0  0  0
   26.4253  -19.4801   -7.5624 N   0  0  0  0  0  0  0  0  0  0  0  0
   27.6999  -19.7884   -7.8725 C   0  0  0  0  0  0  0  0  0  0  0  0
   28.8841  -19.4664   -7.2641 C   0  0  0  0  0  0  0  0  0  0  0  0
   30.0646  -19.9143   -7.7758 C   0  0  0  0  0  0  0  0  0  0  0  0
   30.0679  -20.6919   -8.9056 C   0  0  0  0  0  0  0  0  0  0  0  0
   28.8843  -21.0106   -9.5096 C   0  0  0  0  0  0  0  0  0  0  0  0
   27.6638  -20.5761   -9.0240 C   0  0  0  0  0  0  0  0  0  0  0  0
   25.2275  -21.4192  -12.9777 C   0  0  0  0  0  0  0  0  0  0  0  0
   25.6571  -22.5810  -13.2823 O   0  0  0  0  0  0  0  0  0  0  0  0
   24.1624  -20.8097  -13.6896 N   0  0  0  0  0  0  0  0  0  0  0  0
   23.6813  -21.4525  -14.9305 C   0  0  1  0  0  0  0  0  0  0  0  0
   22.1866  -21.5855  -14.8331 C   0  0  0  0  0  0  0  0  0  0  0  0
   21.6527  -22.2024  -13.6036 C   0  0  0  0  0  0  0  0  0  0  0  0
   20.1515  -22.2564  -13.7206 C   0  0  0  0  0  0  0  0  0  0  0  0
   19.5770  -23.1043  -14.4309 O   0  0  0  0  0  0  0  0  0  0  0  0
   23.9782  -20.5831  -16.0916 C   0  0  0  0  0  0  0  0  0  0  0  0
   23.7748  -19.3491  -16.0093 O   0  0  0  0  0  0  0  0  0  0  0  0
   19.3867  -21.3491  -13.0280 O   0  0  0  0  0  0  0  0  0  0  0  0
   24.4956  -21.0546  -17.3388 N   0  0  0  0  0  0  0  0  0  0  0  0
   25.8435  -21.5043  -17.5151 C   0  0  0  0  0  0  0  0  0  0  0  0
   26.8574  -20.4333  -17.4547 C   0  0  0  0  0  0  0  0  0  0  0  0
   27.5830  -20.1803  -18.6249 O   0  0  0  0  0  0  0  0  0  0  0  0
   27.1261  -19.7373  -16.4651 O   0  0  0  0  0  0  0  0  0  0  0  0
  2  1  1  1
  2  3  1  0
  2 13  1  0
  3  4  1  0
  4  5  2  0
  5  6  1  0
  7  8  2  0
  7  6  1  0
  9  8  1  0
 10  9  2  0
 11 10  1  0
 11 12  2  0
 12  4  1  0
 12  7  1  0
 13 15  1  0
 13 14  2  0
 15 16  1  0
 16 17  1  1
 18 17  1  0
 19 20  2  0
 19 18  1  0
 21 16  1  0
 21 22  2  0
 23 19  1  0
 24 21  1  0
 25 24  1  0
 26 25  1  0
 27 26  1  0
 28 26  2  0
M  END
$$$$
