WEG.pdb
     RDKit          3D

 28 29  0  0  1  0  0  0  0  0999 V2000
   21.7169  -16.4713  -18.1154 N   0  0  0  0  0  0  0  0  0  0  0  0
   22.4678  -17.6259  -17.7040 C   0  0  1  0  0  0  0  0  0  0  0  0
   23.9326  -17.5089  -18.0220 C   0  0  0  0  0  0  0  0  0  0  0  0
   24.2548  -17.7733  -19.4419 C   0  0  0  0  0  0  0  0  0  0  0  0
   24.4563  -16.8574  -20.4602 C   0  0  0  0  0  0  0  0  0  0  0  0
   24.7000  -17.5294  -21.6061 N   0  0  0  0  0  0  0  0  0  0  0  0
   24.6642  -18.8550  -21.3669 C   0  0  0  0  0  0  0  0  0  0  0  0
   24.8520  -19.9307  -22.1939 C   0  0  0  0  0  0  0  0  0  0  0  0
   24.7705  -21.1988  -21.7025 C   0  0  0  0  0  0  0  0  0  0  0  0
   24.4995  -21.3999  -20.3731 C   0  0  0  0  0  0  0  0  0  0  0  0
   24.3126  -20.3240  -19.5517 C   0  0  0  0  0  0  0  0  0  0  0  0
   24.3855  -19.0204  -20.0095 C   0  0  0  0  0  0  0  0  0  0  0  0
   22.2466  -17.9548  -16.2569 C   0  0  0  0  0  0  0  0  0  0  0  0
   22.2618  -17.0301  -15.3784 O   0  0  0  0  0  0  0  0  0  0  0  0
   22.0220  -19.3109  -15.9058 N   0  0  0  0  0  0  0  0  0  0  0  0
   21.9428  -19.6673  -14.4736 C   0  0  1  0  0  0  0  0  0  0  0  0
   20.5018  -19.9441  -14.1448 C   0  0  0  0  0  0  0  0  0  0  0  0
   19.4950  -19.0774  -14.7871 C   0  0  0  0  0  0  0  0  0  0  0  0
   18.1336  -19.4997  -14.2984 C   0  0  0  0  0  0  0  0  0  0  0  0
   17.9904  -20.3911  -13.4391 O   0  0  0  0  0  0  0  0  0  0  0  0
   22.7052  -20.9119  -14.2251 C   0  0  0  0  0  0  0  0  0  0  0  0
   22.4838  -21.9249  -14.9292 O   0  0  0  0  0  0  0  0  0  0  0  0
   17.0133  -18.8899  -14.8091 O   0  0  0  0  0  0  0  0  0  0  0  0
   23.7066  -21.0542  -13.2138 N   0  0  0  0  0  0  0  0  0  0  0  0
   25.0787  -21.3494  -13.4971 C   0  0  0  0  0  0  0  0  0  0  0  0
   25.3099  -22.6923  -14.0643 C   0  0  0  0  0  0  0  0  0  0  0  0
   26.6418  -23.0837  -14.2447 O   0  0  0  0  0  0  0  0  0  0  0  0
   24.4352  -23.5054  -14.3956 O   0  0  0  0  0  0  0  0  0  0  0  0
  2  1  1  1
  2  3  1  0
  2 13  1  0
  3  4  1  0
  4  5  2  0
  5  6  1  0
  7  8  2  0
  7  6  1  0
  9  8  1  0
 10  9  2  0
 11 10  1  0
 11 12  2  0
 12  4  1  0
 12  7  1  0
 13 15  1  0
 13 14  2  0
 15 16  1  0
 16 17  1  6
 18 17  1  0
 19 20  2  0
 19 18  1  0
 21 16  1  0
 21 22  2  0
 23 19  1  0
 24 21  1  0
 25 24  1  0
 26 25  1  0
 27 26  1  0
 28 26  2  0
M  END
$$$$
