WEG.pdb
     RDKit          3D

 28 29  0  0  1  0  0  0  0  0999 V2000
   25.2888  -18.8886   -8.9220 N   0  0  0  0  0  0  0  0  0  0  0  0
   26.1594  -19.9423   -9.3672 C   0  0  1  0  0  0  0  0  0  0  0  0
   26.4646  -20.9393   -8.2840 C   0  0  0  0  0  0  0  0  0  0  0  0
   27.0734  -20.3370   -7.0771 C   0  0  0  0  0  0  0  0  0  0  0  0
   26.5252  -19.4020   -6.2160 C   0  0  0  0  0  0  0  0  0  0  0  0
   27.4336  -19.1069   -5.2609 N   0  0  0  0  0  0  0  0  0  0  0  0
   28.5569  -19.8206   -5.4721 C   0  0  0  0  0  0  0  0  0  0  0  0
   29.7397  -19.8740   -4.7835 C   0  0  0  0  0  0  0  0  0  0  0  0
   30.7420  -20.6972   -5.2005 C   0  0  0  0  0  0  0  0  0  0  0  0
   30.5662  -21.4769   -6.3151 C   0  0  0  0  0  0  0  0  0  0  0  0
   29.3847  -21.4204   -6.9992 C   0  0  0  0  0  0  0  0  0  0  0  0
   28.3419  -20.5980   -6.6111 C   0  0  0  0  0  0  0  0  0  0  0  0
   25.6397  -20.6178  -10.6020 C   0  0  0  0  0  0  0  0  0  0  0  0
   24.4139  -20.9623  -10.6782 O   0  0  0  0  0  0  0  0  0  0  0  0
   26.5467  -20.8551  -11.6667 N   0  0  0  0  0  0  0  0  0  0  0  0
   26.0634  -20.7032  -13.0552 C   0  0  1  0  0  0  0  0  0  0  0  0
   27.2566  -20.7567  -13.9689 C   0  0  0  0  0  0  0  0  0  0  0  0
   26.9833  -20.7794  -15.4187 C   0  0  0  0  0  0  0  0  0  0  0  0
   27.6378  -19.5714  -16.0375 C   0  0  0  0  0  0  0  0  0  0  0  0
   28.8741  -19.4134  -16.0234 O   0  0  0  0  0  0  0  0  0  0  0  0
   25.1812  -21.8396  -13.4048 C   0  0  0  0  0  0  0  0  0  0  0  0
   25.4458  -22.9854  -12.9709 O   0  0  0  0  0  0  0  0  0  0  0  0
   26.8572  -18.6123  -16.6362 O   0  0  0  0  0  0  0  0  0  0  0  0
   24.0136  -21.7301  -14.2235 N   0  0  0  0  0  0  0  0  0  0  0  0
   22.7648  -22.3544  -13.9056 C   0  0  0  0  0  0  0  0  0  0  0  0
   22.5248  -23.6313  -14.6058 C   0  0  0  0  0  0  0  0  0  0  0  0
   23.6065  -24.1877  -15.2986 O   0  0  0  0  0  0  0  0  0  0  0  0
   21.4553  -24.2568  -14.6374 O   0  0  0  0  0  0  0  0  0  0  0  0
  2  1  1  1
  2  3  1  0
  2 13  1  0
  3  4  1  0
  4  5  2  0
  5  6  1  0
  7  8  2  0
  7  6  1  0
  9  8  1  0
 10  9  2  0
 11 10  1  0
 11 12  2  0
 12  4  1  0
 12  7  1  0
 13 15  1  0
 13 14  2  0
 15 16  1  0
 16 17  1  6
 18 17  1  0
 19 20  2  0
 19 18  1  0
 21 16  1  0
 21 22  2  0
 23 19  1  0
 24 21  1  0
 25 24  1  0
 26 25  1  0
 27 26  1  0
 28 26  2  0
M  END
$$$$
