WEG.pdb
     RDKit          3D

 28 29  0  0  1  0  0  0  0  0999 V2000
   17.4610  -68.6974  -34.5310 N   0  0  0  0  0  0  0  0  0  0  0  0
   18.1436  -69.4736  -33.5320 C   0  0  1  0  0  0  0  0  0  0  0  0
   17.2140  -70.0117  -32.4801 C   0  0  0  0  0  0  0  0  0  0  0  0
   16.1077  -69.0903  -32.1379 C   0  0  0  0  0  0  0  0  0  0  0  0
   15.8771  -67.8122  -32.6172 C   0  0  0  0  0  0  0  0  0  0  0  0
   14.7705  -67.3184  -32.0208 N   0  0  0  0  0  0  0  0  0  0  0  0
   14.2719  -68.2347  -31.1678 C   0  0  0  0  0  0  0  0  0  0  0  0
   13.1753  -68.2073  -30.3476 C   0  0  0  0  0  0  0  0  0  0  0  0
   12.8703  -69.2840  -29.5704 C   0  0  0  0  0  0  0  0  0  0  0  0
   13.6647  -70.4013  -29.6095 C   0  0  0  0  0  0  0  0  0  0  0  0
   14.7579  -70.4243  -30.4291 C   0  0  0  0  0  0  0  0  0  0  0  0
   15.1041  -69.3531  -31.2334 C   0  0  0  0  0  0  0  0  0  0  0  0
   18.9745  -70.5658  -34.1386 C   0  0  0  0  0  0  0  0  0  0  0  0
   19.2926  -71.5898  -33.4479 O   0  0  0  0  0  0  0  0  0  0  0  0
   19.3866  -70.4215  -35.4884 N   0  0  0  0  0  0  0  0  0  0  0  0
   20.6654  -71.0330  -35.9071 C   0  0  1  0  0  0  0  0  0  0  0  0
   20.3549  -72.1255  -36.8927 C   0  0  0  0  0  0  0  0  0  0  0  0
   21.4176  -72.4743  -37.8552 C   0  0  0  0  0  0  0  0  0  0  0  0
   20.8425  -72.3740  -39.2443 C   0  0  0  0  0  0  0  0  0  0  0  0
   21.5670  -72.2195  -40.2467 O   0  0  0  0  0  0  0  0  0  0  0  0
   21.4971  -70.0255  -36.6036 C   0  0  0  0  0  0  0  0  0  0  0  0
   21.4636  -68.8295  -36.2300 O   0  0  0  0  0  0  0  0  0  0  0  0
   19.4822  -72.4543  -39.4199 O   0  0  0  0  0  0  0  0  0  0  0  0
   22.3637  -70.3180  -37.7031 N   0  0  0  0  0  0  0  0  0  0  0  0
   21.8933  -70.7245  -38.9930 C   0  0  0  0  0  0  0  0  0  0  0  0
   22.1418  -72.1434  -39.3143 C   0  0  0  0  0  0  0  0  0  0  0  0
   21.2438  -73.0795  -38.7880 O   0  0  0  0  0  0  0  0  0  0  0  0
   23.0710  -72.5834  -40.0065 O   0  0  0  0  0  0  0  0  0  0  0  0
  2  1  1  6
  2  3  1  0
  2 13  1  0
  3  4  1  0
  4  5  2  0
  5  6  1  0
  7  8  2  0
  7  6  1  0
  9  8  1  0
 10  9  2  0
 11 10  1  0
 11 12  2  0
 12  4  1  0
 12  7  1  0
 13 15  1  0
 13 14  2  0
 15 16  1  0
 16 17  1  6
 18 17  1  0
 19 20  2  0
 19 18  1  0
 21 16  1  0
 21 22  2  0
 23 19  1  0
 24 21  1  0
 25 24  1  0
 26 25  1  0
 27 26  1  0
 28 26  2  0
M  END
$$$$
