IGA.pdb
     RDKit          3D

 18 17  0  0  1  0  0  0  0  0999 V2000
    5.6569  -11.7304   27.1389 C   0  0  0  0  0  0  0  0  0  0  0  0
    5.6513  -12.8637   26.1660 C   0  0  0  0  0  0  0  0  0  0  0  0
    6.9834  -13.5013   25.9614 C   0  0  2  0  0  0  0  0  0  0  0  0
    8.0127  -12.5261   25.4936 C   0  0  0  0  0  0  0  0  0  0  0  0
    6.8597  -14.7072   25.0266 C   0  0  2  0  0  0  0  0  0  0  0  0
    5.6663  -15.4027   25.3930 N   0  0  0  0  0  0  0  0  0  0  0  0
    8.0769  -15.5550   25.1079 C   0  0  0  0  0  0  0  0  0  0  0  0
    8.1212  -16.4891   25.9487 O   0  0  0  0  0  0  0  0  0  0  0  0
    9.1742  -15.3104   24.2455 N   0  0  0  0  0  0  0  0  0  0  0  0
   10.3487  -16.1747   24.2101 C   0  0  0  0  0  0  0  0  0  0  0  0
   11.0517  -16.0335   25.5073 C   0  0  0  0  0  0  0  0  0  0  0  0
   12.1799  -16.5508   25.7096 O   0  0  0  0  0  0  0  0  0  0  0  0
   10.5421  -13.8773   28.5334 C   0  0  0  0  0  0  0  0  0  0  0  0
   11.1149  -15.0948   27.8426 C   0  0  2  0  0  0  0  0  0  0  0  0
   10.4434  -15.2865   26.5810 N   0  0  0  0  0  0  0  0  0  0  0  0
   10.9690  -16.3171   28.6607 C   0  0  0  0  0  0  0  0  0  0  0  0
   10.2007  -17.3831   28.2409 O   0  0  0  0  0  0  0  0  0  0  0  0
   11.5612  -16.3795   29.7622 O   0  0  0  0  0  0  0  0  0  0  0  0
  1  2  1  0
  2  3  1  0
  3  5  1  0
  3  4  1  6
  5  7  1  0
  5  6  1  1
  7  8  2  0
  9 10  1  0
  9  7  1  0
 11 12  2  0
 11 10  1  0
 14 13  1  1
 14 16  1  0
 14 15  1  0
 15 11  1  0
 16 17  1  0
 18 16  2  0
M  END
$$$$
