IGA.pdb
     RDKit          3D

 18 17  0  0  1  0  0  0  0  0999 V2000
    7.1412  -12.1022   20.9835 C   0  0  0  0  0  0  0  0  0  0  0  0
    7.3225  -13.5520   21.2936 C   0  0  0  0  0  0  0  0  0  0  0  0
    8.6551  -14.0984   20.9082 C   0  0  2  0  0  0  0  0  0  0  0  0
    8.9153  -13.9769   19.4429 C   0  0  0  0  0  0  0  0  0  0  0  0
    8.8061  -15.5378   21.4068 C   0  0  2  0  0  0  0  0  0  0  0  0
    7.8396  -16.3275   20.7107 N   0  0  0  0  0  0  0  0  0  0  0  0
    8.6520  -15.5954   22.8832 C   0  0  0  0  0  0  0  0  0  0  0  0
    9.4739  -14.9834   23.6121 O   0  0  0  0  0  0  0  0  0  0  0  0
    7.5888  -16.3332   23.4601 N   0  0  0  0  0  0  0  0  0  0  0  0
    7.3530  -16.3700   24.8992 C   0  0  0  0  0  0  0  0  0  0  0  0
    8.5859  -15.8941   25.5703 C   0  0  0  0  0  0  0  0  0  0  0  0
    9.7245  -16.3134   25.2398 O   0  0  0  0  0  0  0  0  0  0  0  0
    9.3724  -13.1375   27.9969 C   0  0  0  0  0  0  0  0  0  0  0  0
    9.6758  -14.4606   27.3298 C   0  0  2  0  0  0  0  0  0  0  0  0
    8.5006  -14.9238   26.6342 N   0  0  0  0  0  0  0  0  0  0  0  0
   10.1002  -15.4886   28.3033 C   0  0  0  0  0  0  0  0  0  0  0  0
    9.3786  -16.6488   28.4935 O   0  0  0  0  0  0  0  0  0  0  0  0
   11.1428  -15.2945   28.9690 O   0  0  0  0  0  0  0  0  0  0  0  0
  1  2  1  0
  2  3  1  0
  3  5  1  0
  3  4  1  6
  5  7  1  0
  5  6  1  6
  7  8  2  0
  9 10  1  0
  9  7  1  0
 11 12  2  0
 11 10  1  0
 14 13  1  1
 14 16  1  0
 14 15  1  0
 15 11  1  0
 16 17  1  0
 18 16  2  0
M  END
$$$$
