IGA.pdb
     RDKit          3D

 18 17  0  0  1  0  0  0  0  0999 V2000
    5.8024  -11.3043   26.7866 C   0  0  0  0  0  0  0  0  0  0  0  0
    6.5524  -11.7593   25.5777 C   0  0  0  0  0  0  0  0  0  0  0  0
    7.1894  -13.0997   25.7212 C   0  0  2  0  0  0  0  0  0  0  0  0
    8.0375  -13.1960   26.9463 C   0  0  0  0  0  0  0  0  0  0  0  0
    7.9625  -13.4618   24.4506 C   0  0  2  0  0  0  0  0  0  0  0  0
    7.1587  -13.0586   23.3400 N   0  0  0  0  0  0  0  0  0  0  0  0
    8.2910  -14.9105   24.4371 C   0  0  0  0  0  0  0  0  0  0  0  0
    8.5625  -15.4902   25.5195 O   0  0  0  0  0  0  0  0  0  0  0  0
    8.2973  -15.6281   23.2153 N   0  0  0  0  0  0  0  0  0  0  0  0
    8.5752  -17.0586   23.1500 C   0  0  0  0  0  0  0  0  0  0  0  0
    9.9330  -17.2797   23.7016 C   0  0  0  0  0  0  0  0  0  0  0  0
   10.9554  -16.7795   23.1668 O   0  0  0  0  0  0  0  0  0  0  0  0
   11.2836  -19.1859   26.6789 C   0  0  0  0  0  0  0  0  0  0  0  0
   11.4215  -18.4181   25.3831 C   0  0  2  0  0  0  0  0  0  0  0  0
   10.1097  -18.0874   24.8836 N   0  0  0  0  0  0  0  0  0  0  0  0
   12.1517  -19.1898   24.3556 C   0  0  0  0  0  0  0  0  0  0  0  0
   11.4905  -19.8779   23.3595 O   0  0  0  0  0  0  0  0  0  0  0  0
   13.4029  -19.2150   24.3967 O   0  0  0  0  0  0  0  0  0  0  0  0
  1  2  1  0
  2  3  1  0
  3  5  1  0
  3  4  1  1
  5  7  1  0
  5  6  1  6
  7  8  2  0
  9 10  1  0
  9  7  1  0
 11 12  2  0
 11 10  1  0
 14 13  1  1
 14 16  1  0
 14 15  1  0
 15 11  1  0
 16 17  1  0
 18 16  2  0
M  END
$$$$
