IGA.pdb
     RDKit          3D

 18 17  0  0  1  0  0  0  0  0999 V2000
    6.4210  -11.3712   27.9607 C   0  0  0  0  0  0  0  0  0  0  0  0
    6.2051  -12.7191   27.3547 C   0  0  0  0  0  0  0  0  0  0  0  0
    7.1604  -13.0589   26.2616 C   0  0  2  0  0  0  0  0  0  0  0  0
    7.1939  -12.0161   25.1935 C   0  0  0  0  0  0  0  0  0  0  0  0
    6.8587  -14.4519   25.7030 C   0  0  2  0  0  0  0  0  0  0  0  0
    7.0019  -15.3777   26.7821 N   0  0  0  0  0  0  0  0  0  0  0  0
    7.7487  -14.7547   24.5528 C   0  0  0  0  0  0  0  0  0  0  0  0
    7.4878  -14.2611   23.4261 O   0  0  0  0  0  0  0  0  0  0  0  0
    8.8787  -15.5915   24.7276 N   0  0  0  0  0  0  0  0  0  0  0  0
    9.8414  -15.8386   23.6600 C   0  0  0  0  0  0  0  0  0  0  0  0
    9.1476  -16.6005   22.5947 C   0  0  0  0  0  0  0  0  0  0  0  0
    8.8008  -17.7986   22.7552 O   0  0  0  0  0  0  0  0  0  0  0  0
    7.4052  -15.6393   19.4327 C   0  0  0  0  0  0  0  0  0  0  0  0
    8.1140  -16.6560   20.2996 C   0  0  2  0  0  0  0  0  0  0  0  0
    8.8520  -15.9701   21.3313 N   0  0  0  0  0  0  0  0  0  0  0  0
    9.0423  -17.5004   19.5187 C   0  0  0  0  0  0  0  0  0  0  0  0
    8.6070  -18.6184   18.8379 O   0  0  0  0  0  0  0  0  0  0  0  0
   10.2538  -17.1866   19.4786 O   0  0  0  0  0  0  0  0  0  0  0  0
  1  2  1  0
  2  3  1  0
  3  5  1  0
  3  4  1  6
  5  7  1  0
  5  6  1  1
  7  8  2  0
  9 10  1  0
  9  7  1  0
 11 12  2  0
 11 10  1  0
 14 13  1  6
 14 16  1  0
 14 15  1  0
 15 11  1  0
 16 17  1  0
 18 16  2  0
M  END
$$$$
