IGA.pdb
     RDKit          3D

 18 17  0  0  1  0  0  0  0  0999 V2000
    6.1138  -11.5729   27.3508 C   0  0  0  0  0  0  0  0  0  0  0  0
    6.1651  -12.9820   26.8583 C   0  0  0  0  0  0  0  0  0  0  0  0
    7.2106  -13.2316   25.8250 C   0  0  2  0  0  0  0  0  0  0  0  0
    7.1031  -12.2901   24.6710 C   0  0  0  0  0  0  0  0  0  0  0  0
    7.1845  -14.6968   25.3825 C   0  0  2  0  0  0  0  0  0  0  0  0
    7.1247  -15.4930   26.5678 N   0  0  0  0  0  0  0  0  0  0  0  0
    8.3633  -15.0042   24.5324 C   0  0  0  0  0  0  0  0  0  0  0  0
    9.5153  -14.7281   24.9545 O   0  0  0  0  0  0  0  0  0  0  0  0
    8.1874  -15.6023   23.2601 N   0  0  0  0  0  0  0  0  0  0  0  0
    9.2576  -15.6652   22.2708 C   0  0  0  0  0  0  0  0  0  0  0  0
   10.3401  -16.5088   22.8307 C   0  0  0  0  0  0  0  0  0  0  0  0
   11.3350  -16.8533   22.1429 O   0  0  0  0  0  0  0  0  0  0  0  0
   11.6225  -17.3191   26.1618 C   0  0  0  0  0  0  0  0  0  0  0  0
   11.2899  -17.8052   24.7688 C   0  0  2  0  0  0  0  0  0  0  0  0
   10.2709  -16.9582   24.1996 N   0  0  0  0  0  0  0  0  0  0  0  0
   10.8140  -19.2045   24.7680 C   0  0  0  0  0  0  0  0  0  0  0  0
   11.6898  -20.2682   24.8349 O   0  0  0  0  0  0  0  0  0  0  0  0
    9.5826  -19.4224   24.7047 O   0  0  0  0  0  0  0  0  0  0  0  0
  1  2  1  0
  2  3  1  0
  3  5  1  0
  3  4  1  6
  5  7  1  0
  5  6  1  1
  7  8  2  0
  9 10  1  0
  9  7  1  0
 11 12  2  0
 11 10  1  0
 14 13  1  1
 14 16  1  0
 14 15  1  0
 15 11  1  0
 16 17  1  0
 18 16  2  0
M  END
$$$$
