IGA.pdb
     RDKit          3D

 18 17  0  0  1  0  0  0  0  0999 V2000
    5.4780  -11.5537   26.8109 C   0  0  0  0  0  0  0  0  0  0  0  0
    5.4944  -12.7980   25.9850 C   0  0  0  0  0  0  0  0  0  0  0  0
    6.8456  -13.4068   25.8219 C   0  0  2  0  0  0  0  0  0  0  0  0
    7.8354  -12.4451   25.2518 C   0  0  0  0  0  0  0  0  0  0  0  0
    6.7541  -14.6978   25.0045 C   0  0  2  0  0  0  0  0  0  0  0  0
    5.6100  -15.4133   25.4751 N   0  0  0  0  0  0  0  0  0  0  0  0
    8.0149  -15.4751   25.1176 C   0  0  0  0  0  0  0  0  0  0  0  0
    8.1391  -16.3151   26.0451 O   0  0  0  0  0  0  0  0  0  0  0  0
    9.0644  -15.2693   24.1881 N   0  0  0  0  0  0  0  0  0  0  0  0
   10.2288  -16.1450   24.1167 C   0  0  0  0  0  0  0  0  0  0  0  0
   10.9946  -15.9802   25.3750 C   0  0  0  0  0  0  0  0  0  0  0  0
   12.1956  -16.3404   25.4720 O   0  0  0  0  0  0  0  0  0  0  0  0
   10.5333  -13.9831   28.4794 C   0  0  0  0  0  0  0  0  0  0  0  0
   11.0851  -15.1974   27.7662 C   0  0  2  0  0  0  0  0  0  0  0  0
   10.3649  -15.3930   26.5322 N   0  0  0  0  0  0  0  0  0  0  0  0
   10.9789  -16.4205   28.5891 C   0  0  0  0  0  0  0  0  0  0  0  0
   11.6460  -16.5466   29.7900 O   0  0  0  0  0  0  0  0  0  0  0  0
   10.2631  -17.3625   28.1793 O   0  0  0  0  0  0  0  0  0  0  0  0
  1  2  1  0
  2  3  1  0
  3  5  1  0
  3  4  1  6
  5  7  1  0
  5  6  1  1
  7  8  2  0
  9 10  1  0
  9  7  1  0
 11 12  2  0
 11 10  1  0
 14 13  1  1
 14 16  1  0
 14 15  1  0
 15 11  1  0
 16 17  1  0
 18 16  2  0
M  END
$$$$
