IGA.pdb
     RDKit          3D

 18 17  0  0  1  0  0  0  0  0999 V2000
    6.7828  -11.1570   27.2993 C   0  0  0  0  0  0  0  0  0  0  0  0
    6.8714  -12.6458   27.2207 C   0  0  0  0  0  0  0  0  0  0  0  0
    6.9141  -13.1840   25.8309 C   0  0  2  0  0  0  0  0  0  0  0  0
    5.7221  -12.7776   25.0289 C   0  0  0  0  0  0  0  0  0  0  0  0
    7.1086  -14.7023   25.8524 C   0  0  2  0  0  0  0  0  0  0  0  0
    8.1076  -14.9844   26.8346 N   0  0  0  0  0  0  0  0  0  0  0  0
    7.4648  -15.1999   24.4988 C   0  0  0  0  0  0  0  0  0  0  0  0
    6.7975  -16.1379   23.9926 O   0  0  0  0  0  0  0  0  0  0  0  0
    8.5458  -14.6212   23.7888 N   0  0  0  0  0  0  0  0  0  0  0  0
    8.8453  -14.9658   22.4034 C   0  0  0  0  0  0  0  0  0  0  0  0
   10.0225  -15.8664   22.4072 C   0  0  0  0  0  0  0  0  0  0  0  0
   10.4333  -16.4247   21.3579 O   0  0  0  0  0  0  0  0  0  0  0  0
   12.9749  -16.3081   24.4967 C   0  0  0  0  0  0  0  0  0  0  0  0
   11.8948  -16.9746   23.6741 C   0  0  2  0  0  0  0  0  0  0  0  0
   10.7311  -16.1237   23.6369 N   0  0  0  0  0  0  0  0  0  0  0  0
   11.5142  -18.2936   24.2219 C   0  0  0  0  0  0  0  0  0  0  0  0
   12.3880  -19.3610   24.2154 O   0  0  0  0  0  0  0  0  0  0  0  0
   10.3671  -18.4384   24.7027 O   0  0  0  0  0  0  0  0  0  0  0  0
  1  2  1  0
  2  3  1  0
  3  5  1  0
  3  4  1  1
  5  7  1  0
  5  6  1  1
  7  8  2  0
  9 10  1  0
  9  7  1  0
 11 12  2  0
 11 10  1  0
 14 13  1  1
 14 16  1  0
 14 15  1  0
 15 11  1  0
 16 17  1  0
 18 16  2  0
M  END
$$$$
