IGA.pdb
     RDKit          3D

 18 17  0  0  1  0  0  0  0  0999 V2000
    8.5277  -12.4460   19.5729 C   0  0  0  0  0  0  0  0  0  0  0  0
    8.1978  -13.8569   19.9353 C   0  0  0  0  0  0  0  0  0  0  0  0
    7.7310  -14.0349   21.3401 C   0  0  2  0  0  0  0  0  0  0  0  0
    8.7135  -13.5103   22.3346 C   0  0  0  0  0  0  0  0  0  0  0  0
    7.3681  -15.4991   21.6003 C   0  0  2  0  0  0  0  0  0  0  0  0
    6.5745  -15.9383   20.4959 N   0  0  0  0  0  0  0  0  0  0  0  0
    6.6763  -15.6388   22.9074 C   0  0  0  0  0  0  0  0  0  0  0  0
    5.6983  -14.8929   23.1690 O   0  0  0  0  0  0  0  0  0  0  0  0
    7.1168  -16.6037   23.8469 N   0  0  0  0  0  0  0  0  0  0  0  0
    6.5446  -16.7110   25.1844 C   0  0  0  0  0  0  0  0  0  0  0  0
    7.2517  -17.8055   25.8908 C   0  0  0  0  0  0  0  0  0  0  0  0
    6.6476  -18.8307   26.2979 O   0  0  0  0  0  0  0  0  0  0  0  0
    9.2788  -19.9589   25.5005 C   0  0  0  0  0  0  0  0  0  0  0  0
    9.4466  -18.8616   26.5278 C   0  0  2  0  0  0  0  0  0  0  0  0
    8.6714  -17.7130   26.1286 N   0  0  0  0  0  0  0  0  0  0  0  0
   10.8605  -18.4614   26.6867 C   0  0  0  0  0  0  0  0  0  0  0  0
   11.3010  -17.2015   26.3381 O   0  0  0  0  0  0  0  0  0  0  0  0
   11.6739  -19.2929   27.1504 O   0  0  0  0  0  0  0  0  0  0  0  0
  1  2  1  0
  2  3  1  0
  3  5  1  0
  3  4  1  1
  5  7  1  0
  5  6  1  6
  7  8  2  0
  9 10  1  0
  9  7  1  0
 11 12  2  0
 11 10  1  0
 14 13  1  6
 14 16  1  0
 14 15  1  0
 15 11  1  0
 16 17  1  0
 18 16  2  0
M  END
$$$$
