IGA.pdb
     RDKit          3D

 18 17  0  0  1  0  0  0  0  0999 V2000
    7.5687  -11.9029   27.0064 C   0  0  0  0  0  0  0  0  0  0  0  0
    7.1995  -13.3317   26.7766 C   0  0  0  0  0  0  0  0  0  0  0  0
    7.3456  -13.7820   25.3628 C   0  0  2  0  0  0  0  0  0  0  0  0
    6.5754  -12.9254   24.4128 C   0  0  0  0  0  0  0  0  0  0  0  0
    6.9813  -15.2632   25.2342 C   0  0  2  0  0  0  0  0  0  0  0  0
    7.6398  -15.9522   26.2991 N   0  0  0  0  0  0  0  0  0  0  0  0
    7.3535  -15.7753   23.8903 C   0  0  0  0  0  0  0  0  0  0  0  0
    8.5127  -16.2253   23.7025 O   0  0  0  0  0  0  0  0  0  0  0  0
    6.4095  -15.7552   22.8339 N   0  0  0  0  0  0  0  0  0  0  0  0
    6.5853  -16.5342   21.6132 C   0  0  0  0  0  0  0  0  0  0  0  0
    7.5426  -15.8057   20.7473 C   0  0  0  0  0  0  0  0  0  0  0  0
    8.2113  -16.3924   19.8584 O   0  0  0  0  0  0  0  0  0  0  0  0
    8.1985  -12.1465   20.1522 C   0  0  0  0  0  0  0  0  0  0  0  0
    8.5209  -13.6147   19.9852 C   0  0  2  0  0  0  0  0  0  0  0  0
    7.7280  -14.3847   20.9114 N   0  0  0  0  0  0  0  0  0  0  0  0
    9.9524  -13.8988   20.2190 C   0  0  0  0  0  0  0  0  0  0  0  0
   10.3776  -14.6334   21.3064 O   0  0  0  0  0  0  0  0  0  0  0  0
   10.7953  -13.4580   19.4047 O   0  0  0  0  0  0  0  0  0  0  0  0
  1  2  1  0
  2  3  1  0
  3  5  1  0
  3  4  1  6
  5  7  1  0
  5  6  1  1
  7  8  2  0
  9 10  1  0
  9  7  1  0
 11 12  2  0
 11 10  1  0
 14 13  1  1
 14 16  1  0
 14 15  1  0
 15 11  1  0
 16 17  1  0
 18 16  2  0
M  END
$$$$
