IGA.pdb
     RDKit          3D

 18 17  0  0  1  0  0  0  0  0999 V2000
    7.8328  -11.7325   19.6425 C   0  0  0  0  0  0  0  0  0  0  0  0
    8.2362  -12.7908   20.6162 C   0  0  0  0  0  0  0  0  0  0  0  0
    8.1634  -14.1788   20.0765 C   0  0  2  0  0  0  0  0  0  0  0  0
    6.7816  -14.5488   19.6486 C   0  0  0  0  0  0  0  0  0  0  0  0
    8.7448  -15.1741   21.0838 C   0  0  2  0  0  0  0  0  0  0  0  0
    7.8950  -15.1546   22.2326 N   0  0  0  0  0  0  0  0  0  0  0  0
   10.1562  -14.8325   21.3968 C   0  0  0  0  0  0  0  0  0  0  0  0
   10.4017  -14.0222   22.3266 O   0  0  0  0  0  0  0  0  0  0  0  0
   11.2119  -15.4156   20.6530 N   0  0  0  0  0  0  0  0  0  0  0  0
   12.6110  -15.0691   20.8775 C   0  0  0  0  0  0  0  0  0  0  0  0
   13.0906  -15.8588   22.0365 C   0  0  0  0  0  0  0  0  0  0  0  0
   14.3143  -15.9619   22.3076 O   0  0  0  0  0  0  0  0  0  0  0  0
   11.4931  -17.1287   25.1331 C   0  0  0  0  0  0  0  0  0  0  0  0
   12.5680  -17.2409   24.0750 C   0  0  2  0  0  0  0  0  0  0  0  0
   12.1453  -16.5357   22.8902 N   0  0  0  0  0  0  0  0  0  0  0  0
   12.8579  -18.6473   23.7251 C   0  0  0  0  0  0  0  0  0  0  0  0
   13.6687  -19.4381   24.5126 O   0  0  0  0  0  0  0  0  0  0  0  0
   12.3508  -19.1267   22.6854 O   0  0  0  0  0  0  0  0  0  0  0  0
  1  2  1  0
  2  3  1  0
  3  5  1  0
  3  4  1  1
  5  7  1  0
  5  6  1  1
  7  8  2  0
  9 10  1  0
  9  7  1  0
 11 12  2  0
 11 10  1  0
 14 13  1  1
 14 16  1  0
 14 15  1  0
 15 11  1  0
 16 17  1  0
 18 16  2  0
M  END
$$$$
