IGA.pdb
     RDKit          3D

 18 17  0  0  1  0  0  0  0  0999 V2000
    6.0903  -11.5438   27.1898 C   0  0  0  0  0  0  0  0  0  0  0  0
    6.0859  -12.9418   26.6642 C   0  0  0  0  0  0  0  0  0  0  0  0
    7.1561  -13.2235   25.6650 C   0  0  2  0  0  0  0  0  0  0  0  0
    7.0979  -12.2967   24.4958 C   0  0  0  0  0  0  0  0  0  0  0  0
    7.1174  -14.6942   25.2419 C   0  0  2  0  0  0  0  0  0  0  0  0
    6.9865  -15.4713   26.4340 N   0  0  0  0  0  0  0  0  0  0  0  0
    8.3263  -15.0394   24.4507 C   0  0  0  0  0  0  0  0  0  0  0  0
    9.4590  -14.6969   24.8763 O   0  0  0  0  0  0  0  0  0  0  0  0
    8.2003  -15.7472   23.2297 N   0  0  0  0  0  0  0  0  0  0  0  0
    9.3092  -15.8953   22.2936 C   0  0  0  0  0  0  0  0  0  0  0  0
   10.3304  -16.7557   22.9368 C   0  0  0  0  0  0  0  0  0  0  0  0
   11.3403  -17.1670   22.3104 O   0  0  0  0  0  0  0  0  0  0  0  0
   11.5888  -17.3939   26.2583 C   0  0  0  0  0  0  0  0  0  0  0  0
   11.1277  -18.0215   24.9618 C   0  0  2  0  0  0  0  0  0  0  0  0
   10.1817  -17.1440   24.3180 N   0  0  0  0  0  0  0  0  0  0  0  0
   10.4972  -19.3408   25.1771 C   0  0  0  0  0  0  0  0  0  0  0  0
    9.1731  -19.4602   25.5452 O   0  0  0  0  0  0  0  0  0  0  0  0
   11.1890  -20.3725   25.0194 O   0  0  0  0  0  0  0  0  0  0  0  0
  1  2  1  0
  2  3  1  0
  3  5  1  0
  3  4  1  6
  5  7  1  0
  5  6  1  1
  7  8  2  0
  9 10  1  0
  9  7  1  0
 11 12  2  0
 11 10  1  0
 14 13  1  1
 14 16  1  0
 14 15  1  0
 15 11  1  0
 16 17  1  0
 18 16  2  0
M  END
$$$$
