IGA.pdb
     RDKit          3D

 18 17  0  0  1  0  0  0  0  0999 V2000
    5.7203  -11.4905   26.7421 C   0  0  0  0  0  0  0  0  0  0  0  0
    5.6966  -12.7491   25.9382 C   0  0  0  0  0  0  0  0  0  0  0  0
    7.0228  -13.4180   25.8091 C   0  0  2  0  0  0  0  0  0  0  0  0
    8.0555  -12.5188   25.2136 C   0  0  0  0  0  0  0  0  0  0  0  0
    6.8843  -14.7330   25.0377 C   0  0  2  0  0  0  0  0  0  0  0  0
    5.7195  -15.3930   25.5375 N   0  0  0  0  0  0  0  0  0  0  0  0
    8.1192  -15.5475   25.1730 C   0  0  0  0  0  0  0  0  0  0  0  0
    8.2072  -16.3809   26.1106 O   0  0  0  0  0  0  0  0  0  0  0  0
    9.1846  -15.3841   24.2533 N   0  0  0  0  0  0  0  0  0  0  0  0
   10.3426  -16.2709   24.2324 C   0  0  0  0  0  0  0  0  0  0  0  0
   11.0697  -16.0931   25.5117 C   0  0  0  0  0  0  0  0  0  0  0  0
   12.2144  -16.5800   25.6968 O   0  0  0  0  0  0  0  0  0  0  0  0
   10.5802  -13.9846   28.5734 C   0  0  0  0  0  0  0  0  0  0  0  0
   11.1115  -15.2139   27.8705 C   0  0  2  0  0  0  0  0  0  0  0  0
   10.4666  -15.3447   26.5873 N   0  0  0  0  0  0  0  0  0  0  0  0
   10.8833  -16.4448   28.6562 C   0  0  0  0  0  0  0  0  0  0  0  0
   11.5165  -16.6632   29.8621 O   0  0  0  0  0  0  0  0  0  0  0  0
   10.0932  -17.3073   28.2092 O   0  0  0  0  0  0  0  0  0  0  0  0
  1  2  1  0
  2  3  1  0
  3  5  1  0
  3  4  1  6
  5  7  1  0
  5  6  1  1
  7  8  2  0
  9 10  1  0
  9  7  1  0
 11 12  2  0
 11 10  1  0
 14 13  1  1
 14 16  1  0
 14 15  1  0
 15 11  1  0
 16 17  1  0
 18 16  2  0
M  END
$$$$
