FWV.pdb
     RDKit          3D

 33 35  0  0  1  0  0  0  0  0999 V2000
    7.5855  -17.1734   21.0568 N   0  0  0  0  0  0  0  0  0  0  0  0
    8.9878  -16.9645   20.8498 C   0  0  1  0  0  0  0  0  0  0  0  0
    9.1611  -15.9206   19.7407 C   0  0  0  0  0  0  0  0  0  0  0  0
    8.4539  -14.6982   20.1847 C   0  0  0  0  0  0  0  0  0  0  0  0
    8.4232  -13.6196   19.3460 C   0  0  0  0  0  0  0  0  0  0  0  0
    7.7716  -12.4898   19.7528 C   0  0  0  0  0  0  0  0  0  0  0  0
    7.1515  -12.4073   20.9705 C   0  0  0  0  0  0  0  0  0  0  0  0
    7.1794  -13.4814   21.8116 C   0  0  0  0  0  0  0  0  0  0  0  0
    7.8364  -14.6254   21.4054 C   0  0  0  0  0  0  0  0  0  0  0  0
    9.5587  -16.4166   22.1021 C   0  0  0  0  0  0  0  0  0  0  0  0
   10.5080  -15.6043   22.0215 O   0  0  0  0  0  0  0  0  0  0  0  0
    9.1258  -16.7291   23.3944 N   0  0  0  0  0  0  0  0  0  0  0  0
    9.7835  -16.3746   24.5980 C   0  0  1  0  0  0  0  0  0  0  0  0
    9.0014  -16.4572   25.8572 C   0  0  0  0  0  0  0  0  0  0  0  0
    7.7416  -15.6356   25.7788 C   0  0  0  0  0  0  0  0  0  0  0  0
    6.4638  -16.0393   25.4673 C   0  0  0  0  0  0  0  0  0  0  0  0
    5.6232  -14.9792   25.5104 N   0  0  0  0  0  0  0  0  0  0  0  0
    6.3135  -13.8755   25.8447 C   0  0  0  0  0  0  0  0  0  0  0  0
    5.9574  -12.5547   26.0261 C   0  0  0  0  0  0  0  0  0  0  0  0
    6.8768  -11.5868   26.3771 C   0  0  0  0  0  0  0  0  0  0  0  0
    8.1880  -11.9666   26.5481 C   0  0  0  0  0  0  0  0  0  0  0  0
    8.5332  -13.2976   26.3628 C   0  0  0  0  0  0  0  0  0  0  0  0
    7.6261  -14.2690   26.0134 C   0  0  0  0  0  0  0  0  0  0  0  0
   10.9950  -17.2320   24.7092 C   0  0  0  0  0  0  0  0  0  0  0  0
   10.9557  -18.4853   24.6225 O   0  0  0  0  0  0  0  0  0  0  0  0
   14.6468  -16.2102   23.2721 C   0  0  0  0  0  0  0  0  0  0  0  0
   14.7167  -16.7230   24.7055 C   0  0  2  0  0  0  0  0  0  0  0  0
   15.8810  -17.7110   24.7240 C   0  0  0  0  0  0  0  0  0  0  0  0
   13.4762  -17.4569   25.0901 C   0  0  2  0  0  0  0  0  0  0  0  0
   12.2786  -16.6517   24.9237 N   0  0  0  0  0  0  0  0  0  0  0  0
   13.6097  -17.9475   26.4791 C   0  0  0  0  0  0  0  0  0  0  0  0
   14.4170  -19.0157   26.7839 O   0  0  0  0  0  0  0  0  0  0  0  0
   12.9873  -17.4054   27.4418 O   0  0  0  0  0  0  0  0  0  0  0  0
  2  1  1  1
  2  3  1  0
  3  4  1  0
  4  5  2  0
  4  9  1  0
  5  6  1  0
  6  7  2  0
  8  7  1  0
  9  8  2  0
 10 12  1  0
 10  2  1  0
 11 10  2  0
 13 12  1  0
 13 14  1  1
 15 14  1  0
 15 16  2  0
 17 16  1  0
 18 23  2  0
 18 17  1  0
 19 18  1  0
 20 21  1  0
 20 19  2  0
 21 22  2  0
 22 23  1  0
 23 15  1  0
 24 13  1  0
 25 24  2  0
 27 26  1  6
 27 29  1  0
 27 28  1  0
 29 30  1  1
 30 24  1  0
 31 32  1  0
 31 29  1  0
 33 31  2  0
M  END
$$$$
