FWV.pdb
     RDKit          3D

 33 35  0  0  1  0  0  0  0  0999 V2000
    9.5912  -15.8659   18.3053 N   0  0  0  0  0  0  0  0  0  0  0  0
    9.1252  -16.8937   19.1882 C   0  0  1  0  0  0  0  0  0  0  0  0
   10.0928  -18.0794   19.1007 C   0  0  0  0  0  0  0  0  0  0  0  0
    9.6994  -18.8703   17.9127 C   0  0  0  0  0  0  0  0  0  0  0  0
   10.3944  -18.6925   16.7495 C   0  0  0  0  0  0  0  0  0  0  0  0
   10.0338  -19.4208   15.6513 C   0  0  0  0  0  0  0  0  0  0  0  0
    9.0013  -20.3191   15.6821 C   0  0  0  0  0  0  0  0  0  0  0  0
    8.3042  -20.5002   16.8411 C   0  0  0  0  0  0  0  0  0  0  0  0
    8.6645  -19.7670   17.9537 C   0  0  0  0  0  0  0  0  0  0  0  0
    9.1610  -16.3609   20.5700 C   0  0  0  0  0  0  0  0  0  0  0  0
   10.0950  -15.5911   20.8902 O   0  0  0  0  0  0  0  0  0  0  0  0
    8.2277  -16.6441   21.5718 N   0  0  0  0  0  0  0  0  0  0  0  0
    8.2045  -16.0751   22.8689 C   0  0  1  0  0  0  0  0  0  0  0  0
    6.8776  -15.7709   23.4611 C   0  0  0  0  0  0  0  0  0  0  0  0
    7.0094  -15.2248   24.8585 C   0  0  0  0  0  0  0  0  0  0  0  0
    6.9755  -15.8991   26.0572 C   0  0  0  0  0  0  0  0  0  0  0  0
    7.1322  -15.0267   27.0802 N   0  0  0  0  0  0  0  0  0  0  0  0
    7.2704  -13.7832   26.5892 C   0  0  0  0  0  0  0  0  0  0  0  0
    7.4546  -12.5482   27.1766 C   0  0  0  0  0  0  0  0  0  0  0  0
    7.5705  -11.3905   26.4339 C   0  0  0  0  0  0  0  0  0  0  0  0
    7.4980  -11.4870   25.0634 C   0  0  0  0  0  0  0  0  0  0  0  0
    7.3126  -12.7344   24.4850 C   0  0  0  0  0  0  0  0  0  0  0  0
    7.1960  -13.8929   25.2149 C   0  0  0  0  0  0  0  0  0  0  0  0
    8.9505  -16.9961   23.7694 C   0  0  0  0  0  0  0  0  0  0  0  0
    8.6499  -18.2087   23.9078 O   0  0  0  0  0  0  0  0  0  0  0  0
   12.7942  -15.8123   25.3366 C   0  0  0  0  0  0  0  0  0  0  0  0
   12.3411  -17.2423   25.0682 C   0  0  2  0  0  0  0  0  0  0  0  0
   12.5888  -17.4710   23.5787 C   0  0  0  0  0  0  0  0  0  0  0  0
   10.8832  -17.4178   25.3309 C   0  0  2  0  0  0  0  0  0  0  0  0
   10.0618  -16.5281   24.5285 N   0  0  0  0  0  0  0  0  0  0  0  0
   10.6223  -17.2390   26.7758 C   0  0  0  0  0  0  0  0  0  0  0  0
   11.1654  -18.0874   27.7091 O   0  0  0  0  0  0  0  0  0  0  0  0
    9.8896  -16.3001   27.2112 O   0  0  0  0  0  0  0  0  0  0  0  0
  2  1  1  6
  2  3  1  0
  3  4  1  0
  4  5  2  0
  4  9  1  0
  5  6  1  0
  6  7  2  0
  8  7  1  0
  9  8  2  0
 10 12  1  0
 10  2  1  0
 11 10  2  0
 13 12  1  0
 13 14  1  1
 15 14  1  0
 15 16  2  0
 17 16  1  0
 18 23  2  0
 18 17  1  0
 19 18  1  0
 20 21  1  0
 20 19  2  0
 21 22  2  0
 22 23  1  0
 23 15  1  0
 24 13  1  0
 25 24  2  0
 27 26  1  6
 27 29  1  0
 27 28  1  0
 29 30  1  6
 30 24  1  0
 31 32  1  0
 31 29  1  0
 33 31  2  0
M  END
$$$$
