FWV.pdb
     RDKit          3D

 33 35  0  0  1  0  0  0  0  0999 V2000
    8.8184  -16.0410   21.0211 N   0  0  0  0  0  0  0  0  0  0  0  0
    9.7135  -15.0206   21.4797 C   0  0  1  0  0  0  0  0  0  0  0  0
    8.9539  -13.6894   21.5063 C   0  0  0  0  0  0  0  0  0  0  0  0
    8.2916  -13.5443   20.1903 C   0  0  0  0  0  0  0  0  0  0  0  0
    8.9835  -12.9509   19.1721 C   0  0  0  0  0  0  0  0  0  0  0  0
    8.3750  -12.8152   17.9563 C   0  0  0  0  0  0  0  0  0  0  0  0
    7.0984  -13.2544   17.7298 C   0  0  0  0  0  0  0  0  0  0  0  0
    6.4033  -13.8475   18.7433 C   0  0  0  0  0  0  0  0  0  0  0  0
    7.0135  -13.9870   19.9735 C   0  0  0  0  0  0  0  0  0  0  0  0
   10.1193  -15.3561   22.8643 C   0  0  0  0  0  0  0  0  0  0  0  0
   11.1191  -14.7804   23.3507 O   0  0  0  0  0  0  0  0  0  0  0  0
    9.4750  -16.2762   23.6968 N   0  0  0  0  0  0  0  0  0  0  0  0
    9.0635  -16.0408   25.0318 C   0  0  1  0  0  0  0  0  0  0  0  0
    7.7565  -16.6027   25.4561 C   0  0  0  0  0  0  0  0  0  0  0  0
    6.6717  -15.5584   25.4272 C   0  0  0  0  0  0  0  0  0  0  0  0
    5.3210  -15.7199   25.2212 C   0  0  0  0  0  0  0  0  0  0  0  0
    4.7007  -14.5181   25.2745 N   0  0  0  0  0  0  0  0  0  0  0  0
    5.6095  -13.5568   25.5123 C   0  0  0  0  0  0  0  0  0  0  0  0
    5.5231  -12.1875   25.6592 C   0  0  0  0  0  0  0  0  0  0  0  0
    6.6319  -11.4027   25.9041 C   0  0  0  0  0  0  0  0  0  0  0  0
    7.8573  -12.0207   26.0023 C   0  0  0  0  0  0  0  0  0  0  0  0
    7.9308  -13.3980   25.8527 C   0  0  0  0  0  0  0  0  0  0  0  0
    6.8334  -14.1885   25.6088 C   0  0  0  0  0  0  0  0  0  0  0  0
   10.1381  -16.5560   25.9234 C   0  0  0  0  0  0  0  0  0  0  0  0
   11.0154  -17.3690   25.5371 O   0  0  0  0  0  0  0  0  0  0  0  0
   11.2992  -14.3857   29.3428 C   0  0  0  0  0  0  0  0  0  0  0  0
   11.2372  -15.9006   29.4967 C   0  0  2  0  0  0  0  0  0  0  0  0
   12.5013  -16.2800   30.2651 C   0  0  0  0  0  0  0  0  0  0  0  0
   11.2700  -16.5914   28.1749 C   0  0  2  0  0  0  0  0  0  0  0  0
   10.2168  -16.1378   27.2833 N   0  0  0  0  0  0  0  0  0  0  0  0
   11.2074  -18.0540   28.3865 C   0  0  0  0  0  0  0  0  0  0  0  0
   12.3239  -18.8423   28.2542 O   0  0  0  0  0  0  0  0  0  0  0  0
   10.1256  -18.6383   28.6968 O   0  0  0  0  0  0  0  0  0  0  0  0
  2  1  1  1
  2  3  1  0
  3  4  1  0
  4  5  2  0
  4  9  1  0
  5  6  1  0
  6  7  2  0
  8  7  1  0
  9  8  2  0
 10 12  1  0
 10  2  1  0
 11 10  2  0
 13 12  1  0
 13 14  1  1
 15 14  1  0
 15 16  2  0
 17 16  1  0
 18 23  2  0
 18 17  1  0
 19 18  1  0
 20 21  1  0
 20 19  2  0
 21 22  2  0
 22 23  1  0
 23 15  1  0
 24 13  1  0
 25 24  2  0
 27 26  1  6
 27 29  1  0
 27 28  1  0
 29 30  1  6
 30 24  1  0
 31 32  1  0
 31 29  1  0
 33 31  2  0
M  END
$$$$
