FWV.pdb
     RDKit          3D

 33 35  0  0  1  0  0  0  0  0999 V2000
    6.8807  -14.1407   21.3657 N   0  0  0  0  0  0  0  0  0  0  0  0
    8.0855  -14.8958   21.1891 C   0  0  1  0  0  0  0  0  0  0  0  0
    9.0187  -14.1053   20.2649 C   0  0  0  0  0  0  0  0  0  0  0  0
    8.4003  -14.1115   18.9198 C   0  0  0  0  0  0  0  0  0  0  0  0
    8.4230  -15.2700   18.1951 C   0  0  0  0  0  0  0  0  0  0  0  0
    7.8534  -15.2790   16.9533 C   0  0  0  0  0  0  0  0  0  0  0  0
    7.2634  -14.1665   16.4166 C   0  0  0  0  0  0  0  0  0  0  0  0
    7.2381  -13.0073   17.1361 C   0  0  0  0  0  0  0  0  0  0  0  0
    7.8122  -12.9929   18.3913 C   0  0  0  0  0  0  0  0  0  0  0  0
    8.7395  -15.0300   22.5115 C   0  0  0  0  0  0  0  0  0  0  0  0
    9.3280  -14.0345   22.9915 O   0  0  0  0  0  0  0  0  0  0  0  0
    8.7609  -16.1907   23.2906 N   0  0  0  0  0  0  0  0  0  0  0  0
    9.3913  -16.3323   24.5513 C   0  0  1  0  0  0  0  0  0  0  0  0
    8.5194  -16.5373   25.7353 C   0  0  0  0  0  0  0  0  0  0  0  0
    7.4740  -15.4587   25.8437 C   0  0  0  0  0  0  0  0  0  0  0  0
    6.1443  -15.5047   25.4933 C   0  0  0  0  0  0  0  0  0  0  0  0
    5.5581  -14.3132   25.7555 N   0  0  0  0  0  0  0  0  0  0  0  0
    6.4691  -13.4721   26.2742 C   0  0  0  0  0  0  0  0  0  0  0  0
    6.4105  -12.1639   26.7095 C   0  0  0  0  0  0  0  0  0  0  0  0
    7.5146  -11.5064   27.2135 C   0  0  0  0  0  0  0  0  0  0  0  0
    8.7062  -12.1911   27.2778 C   0  0  0  0  0  0  0  0  0  0  0  0
    8.7520  -13.5059   26.8371 C   0  0  0  0  0  0  0  0  0  0  0  0
    7.6591  -14.1697   26.3337 C   0  0  0  0  0  0  0  0  0  0  0  0
   10.3524  -17.4634   24.4408 C   0  0  0  0  0  0  0  0  0  0  0  0
   10.0169  -18.6095   24.0485 O   0  0  0  0  0  0  0  0  0  0  0  0
   14.2686  -16.9925   23.4011 C   0  0  0  0  0  0  0  0  0  0  0  0
   14.0887  -17.9007   24.6116 C   0  0  2  0  0  0  0  0  0  0  0  0
   14.9820  -19.1102   24.3447 C   0  0  0  0  0  0  0  0  0  0  0  0
   12.6815  -18.3791   24.7382 C   0  0  2  0  0  0  0  0  0  0  0  0
   11.7241  -17.2876   24.7839 N   0  0  0  0  0  0  0  0  0  0  0  0
   12.5668  -19.2497   25.9286 C   0  0  0  0  0  0  0  0  0  0  0  0
   13.0275  -20.5432   25.9134 O   0  0  0  0  0  0  0  0  0  0  0  0
   12.0407  -18.8404   27.0073 O   0  0  0  0  0  0  0  0  0  0  0  0
  2  1  1  1
  2  3  1  0
  3  4  1  0
  4  5  2  0
  4  9  1  0
  5  6  1  0
  6  7  2  0
  8  7  1  0
  9  8  2  0
 10 12  1  0
 10  2  1  0
 11 10  2  0
 13 12  1  0
 13 14  1  1
 15 14  1  0
 15 16  2  0
 17 16  1  0
 18 23  2  0
 18 17  1  0
 19 18  1  0
 20 21  1  0
 20 19  2  0
 21 22  2  0
 22 23  1  0
 23 15  1  0
 24 13  1  0
 25 24  2  0
 27 26  1  6
 27 29  1  0
 27 28  1  0
 29 30  1  1
 30 24  1  0
 31 32  1  0
 31 29  1  0
 33 31  2  0
M  END
$$$$
