FWV.pdb
     RDKit          3D

 33 35  0  0  1  0  0  0  0  0999 V2000
    8.5603  -16.4747   21.3784 N   0  0  0  0  0  0  0  0  0  0  0  0
    9.4729  -15.4581   21.8102 C   0  0  1  0  0  0  0  0  0  0  0  0
    8.7172  -14.1259   21.8705 C   0  0  0  0  0  0  0  0  0  0  0  0
    8.1647  -13.8819   20.5188 C   0  0  0  0  0  0  0  0  0  0  0  0
    6.8498  -14.1738   20.2875 C   0  0  0  0  0  0  0  0  0  0  0  0
    6.3370  -13.9499   19.0411 C   0  0  0  0  0  0  0  0  0  0  0  0
    7.0985  -13.4441   18.0222 C   0  0  0  0  0  0  0  0  0  0  0  0
    8.4120  -13.1511   18.2481 C   0  0  0  0  0  0  0  0  0  0  0  0
    8.9351  -13.3754   19.5056 C   0  0  0  0  0  0  0  0  0  0  0  0
    9.9267  -15.8015   23.1780 C   0  0  0  0  0  0  0  0  0  0  0  0
   10.9136  -15.1933   23.6510 O   0  0  0  0  0  0  0  0  0  0  0  0
    9.3420  -16.7627   24.0081 N   0  0  0  0  0  0  0  0  0  0  0  0
    9.6267  -16.9559   25.3823 C   0  0  1  0  0  0  0  0  0  0  0  0
    8.4803  -16.9668   26.3255 C   0  0  0  0  0  0  0  0  0  0  0  0
    7.5462  -15.8131   26.0716 C   0  0  0  0  0  0  0  0  0  0  0  0
    6.3403  -15.8064   25.4094 C   0  0  0  0  0  0  0  0  0  0  0  0
    5.8240  -14.5551   25.4068 N   0  0  0  0  0  0  0  0  0  0  0  0
    6.6604  -13.7258   26.0541 C   0  0  0  0  0  0  0  0  0  0  0  0
    6.6239  -12.3759   26.3380 C   0  0  0  0  0  0  0  0  0  0  0  0
    7.6331  -11.7436   27.0358 C   0  0  0  0  0  0  0  0  0  0  0  0
    8.7046  -12.4974   27.4559 C   0  0  0  0  0  0  0  0  0  0  0  0
    8.7294  -13.8536   27.1643 C   0  0  0  0  0  0  0  0  0  0  0  0
    7.7303  -14.4929   26.4703 C   0  0  0  0  0  0  0  0  0  0  0  0
   10.3805  -18.2336   25.5025 C   0  0  0  0  0  0  0  0  0  0  0  0
   10.0432  -19.2852   24.9022 O   0  0  0  0  0  0  0  0  0  0  0  0
   14.3241  -18.6882   25.4093 C   0  0  0  0  0  0  0  0  0  0  0  0
   13.7375  -19.3532   26.6487 C   0  0  2  0  0  0  0  0  0  0  0  0
   14.4084  -20.7228   26.7272 C   0  0  0  0  0  0  0  0  0  0  0  0
   12.2660  -19.5616   26.5189 C   0  0  2  0  0  0  0  0  0  0  0  0
   11.5425  -18.3174   26.3229 N   0  0  0  0  0  0  0  0  0  0  0  0
   11.7702  -20.2949   27.7039 C   0  0  0  0  0  0  0  0  0  0  0  0
   11.8795  -21.6607   27.7949 O   0  0  0  0  0  0  0  0  0  0  0  0
   11.2257  -19.6964   28.6803 O   0  0  0  0  0  0  0  0  0  0  0  0
  2  1  1  1
  2  3  1  0
  3  4  1  0
  4  5  2  0
  4  9  1  0
  5  6  1  0
  6  7  2  0
  8  7  1  0
  9  8  2  0
 10 12  1  0
 10  2  1  0
 11 10  2  0
 13 12  1  0
 13 14  1  1
 15 14  1  0
 15 16  2  0
 17 16  1  0
 18 23  2  0
 18 17  1  0
 19 18  1  0
 20 21  1  0
 20 19  2  0
 21 22  2  0
 22 23  1  0
 23 15  1  0
 24 13  1  0
 25 24  2  0
 27 26  1  6
 27 29  1  0
 27 28  1  0
 29 30  1  1
 30 24  1  0
 31 32  1  0
 31 29  1  0
 33 31  2  0
M  END
$$$$
