FWV.pdb
     RDKit          3D

 33 35  0  0  1  0  0  0  0  0999 V2000
    7.1600  -21.3266   22.3932 N   0  0  0  0  0  0  0  0  0  0  0  0
    6.9955  -20.9110   23.7545 C   0  0  1  0  0  0  0  0  0  0  0  0
    7.8454  -21.8256   24.6438 C   0  0  0  0  0  0  0  0  0  0  0  0
    7.6195  -21.3980   26.0430 C   0  0  0  0  0  0  0  0  0  0  0  0
    6.4247  -21.6993   26.6340 C   0  0  0  0  0  0  0  0  0  0  0  0
    6.2130  -21.3059   27.9251 C   0  0  0  0  0  0  0  0  0  0  0  0
    7.1587  -20.6218   28.6405 C   0  0  0  0  0  0  0  0  0  0  0  0
    8.3533  -20.3184   28.0549 C   0  0  0  0  0  0  0  0  0  0  0  0
    8.5722  -20.7137   26.7506 C   0  0  0  0  0  0  0  0  0  0  0  0
    7.5117  -19.5278   23.8763 C   0  0  0  0  0  0  0  0  0  0  0  0
    8.5878  -19.2386   23.3054 O   0  0  0  0  0  0  0  0  0  0  0  0
    6.8949  -18.4925   24.5851 N   0  0  0  0  0  0  0  0  0  0  0  0
    7.3834  -17.1690   24.7135 C   0  0  1  0  0  0  0  0  0  0  0  0
    6.3858  -16.0829   24.8847 C   0  0  0  0  0  0  0  0  0  0  0  0
    7.0103  -14.7256   24.6951 C   0  0  0  0  0  0  0  0  0  0  0  0
    7.8350  -14.2864   23.6852 C   0  0  0  0  0  0  0  0  0  0  0  0
    8.1731  -12.9930   23.8971 N   0  0  0  0  0  0  0  0  0  0  0  0
    7.5907  -12.5590   25.0280 C   0  0  0  0  0  0  0  0  0  0  0  0
    7.5993  -11.3504   25.6940 C   0  0  0  0  0  0  0  0  0  0  0  0
    6.9013  -11.1529   26.8684 C   0  0  0  0  0  0  0  0  0  0  0  0
    6.1775  -12.2053   27.3797 C   0  0  0  0  0  0  0  0  0  0  0  0
    6.1770  -13.4152   26.7007 C   0  0  0  0  0  0  0  0  0  0  0  0
    6.8682  -13.6226   25.5311 C   0  0  0  0  0  0  0  0  0  0  0  0
    8.3319  -17.1569   25.8605 C   0  0  0  0  0  0  0  0  0  0  0  0
    7.9675  -17.3324   27.0506 O   0  0  0  0  0  0  0  0  0  0  0  0
   12.5025  -15.9513   25.3593 C   0  0  0  0  0  0  0  0  0  0  0  0
   12.0914  -17.1156   26.2526 C   0  0  2  0  0  0  0  0  0  0  0  0
   12.1640  -18.3532   25.3608 C   0  0  0  0  0  0  0  0  0  0  0  0
   10.6877  -16.9710   26.7365 C   0  0  2  0  0  0  0  0  0  0  0  0
    9.7244  -16.9404   25.6497 N   0  0  0  0  0  0  0  0  0  0  0  0
   10.5853  -15.7634   27.5845 C   0  0  0  0  0  0  0  0  0  0  0  0
   11.2221  -15.6884   28.7987 O   0  0  0  0  0  0  0  0  0  0  0  0
    9.9084  -14.7522   27.2279 O   0  0  0  0  0  0  0  0  0  0  0  0
  2  1  1  6
  2  3  1  0
  3  4  1  0
  4  5  2  0
  4  9  1  0
  5  6  1  0
  6  7  2  0
  8  7  1  0
  9  8  2  0
 10 12  1  0
 10  2  1  0
 11 10  2  0
 13 12  1  0
 13 14  1  1
 15 14  1  0
 15 16  2  0
 17 16  1  0
 18 23  2  0
 18 17  1  0
 19 18  1  0
 20 21  1  0
 20 19  2  0
 21 22  2  0
 22 23  1  0
 23 15  1  0
 24 13  1  0
 25 24  2  0
 27 26  1  6
 27 29  1  0
 27 28  1  0
 29 30  1  6
 30 24  1  0
 31 32  1  0
 31 29  1  0
 33 31  2  0
M  END
$$$$
