FWV.pdb
     RDKit          3D

 33 35  0  0  1  0  0  0  0  0999 V2000
    7.9224  -13.3130   20.6521 N   0  0  0  0  0  0  0  0  0  0  0  0
    8.0862  -14.7109   20.9203 C   0  0  1  0  0  0  0  0  0  0  0  0
    8.9566  -15.3155   19.8128 C   0  0  0  0  0  0  0  0  0  0  0  0
    8.1322  -15.3439   18.5834 C   0  0  0  0  0  0  0  0  0  0  0  0
    7.3737  -16.4523   18.3304 C   0  0  0  0  0  0  0  0  0  0  0  0
    6.6120  -16.4817   17.1966 C   0  0  0  0  0  0  0  0  0  0  0  0
    6.5867  -15.4382   16.3110 C   0  0  0  0  0  0  0  0  0  0  0  0
    7.3423  -14.3294   16.5590 C   0  0  0  0  0  0  0  0  0  0  0  0
    8.1137  -14.2945   17.7031 C   0  0  0  0  0  0  0  0  0  0  0  0
    8.8047  -14.8487   22.2084 C   0  0  0  0  0  0  0  0  0  0  0  0
    9.6803  -14.0021   22.4985 O   0  0  0  0  0  0  0  0  0  0  0  0
    8.5908  -15.8587   23.1513 N   0  0  0  0  0  0  0  0  0  0  0  0
    9.2632  -15.9923   24.3910 C   0  0  1  0  0  0  0  0  0  0  0  0
    8.4332  -16.2202   25.6007 C   0  0  0  0  0  0  0  0  0  0  0  0
    7.3425  -15.1891   25.7234 C   0  0  0  0  0  0  0  0  0  0  0  0
    6.0077  -15.3004   25.4090 C   0  0  0  0  0  0  0  0  0  0  0  0
    5.3743  -14.1335   25.6719 N   0  0  0  0  0  0  0  0  0  0  0  0
    6.2588  -13.2447   26.1559 C   0  0  0  0  0  0  0  0  0  0  0  0
    6.1515  -11.9348   26.5763 C   0  0  0  0  0  0  0  0  0  0  0  0
    7.2368  -11.2208   27.0427 C   0  0  0  0  0  0  0  0  0  0  0  0
    8.4599  -11.8495   27.0839 C   0  0  0  0  0  0  0  0  0  0  0  0
    8.5546  -13.1666   26.6584 C   0  0  0  0  0  0  0  0  0  0  0  0
    7.4807  -13.8865   26.1924 C   0  0  0  0  0  0  0  0  0  0  0  0
   10.2434  -17.1028   24.2452 C   0  0  0  0  0  0  0  0  0  0  0  0
    9.9782  -18.1739   23.6432 O   0  0  0  0  0  0  0  0  0  0  0  0
   14.1067  -16.6798   23.4079 C   0  0  0  0  0  0  0  0  0  0  0  0
   13.9213  -17.5895   24.6165 C   0  0  2  0  0  0  0  0  0  0  0  0
   14.8260  -18.7924   24.3583 C   0  0  0  0  0  0  0  0  0  0  0  0
   12.5163  -18.0782   24.7289 C   0  0  2  0  0  0  0  0  0  0  0  0
   11.5530  -16.9931   24.7959 N   0  0  0  0  0  0  0  0  0  0  0  0
   12.4035  -18.9752   25.8996 C   0  0  0  0  0  0  0  0  0  0  0  0
   12.9165  -20.2486   25.8747 O   0  0  0  0  0  0  0  0  0  0  0  0
   11.8307  -18.6080   26.9697 O   0  0  0  0  0  0  0  0  0  0  0  0
  2  1  1  6
  2  3  1  0
  3  4  1  0
  4  5  2  0
  4  9  1  0
  5  6  1  0
  6  7  2  0
  8  7  1  0
  9  8  2  0
 10 12  1  0
 10  2  1  0
 11 10  2  0
 13 12  1  0
 13 14  1  1
 15 14  1  0
 15 16  2  0
 17 16  1  0
 18 23  2  0
 18 17  1  0
 19 18  1  0
 20 21  1  0
 20 19  2  0
 21 22  2  0
 22 23  1  0
 23 15  1  0
 24 13  1  0
 25 24  2  0
 27 26  1  6
 27 29  1  0
 27 28  1  0
 29 30  1  1
 30 24  1  0
 31 32  1  0
 31 29  1  0
 33 31  2  0
M  END
$$$$
