FWV.pdb
     RDKit          3D

 33 35  0  0  1  0  0  0  0  0999 V2000
    5.7708  -19.0959   21.8624 N   0  0  0  0  0  0  0  0  0  0  0  0
    6.4506  -18.9985   23.1199 C   0  0  1  0  0  0  0  0  0  0  0  0
    7.0712  -20.3633   23.4393 C   0  0  0  0  0  0  0  0  0  0  0  0
    5.9684  -21.2452   23.8841 C   0  0  0  0  0  0  0  0  0  0  0  0
    5.4345  -22.1274   22.9873 C   0  0  0  0  0  0  0  0  0  0  0  0
    4.4165  -22.9425   23.3947 C   0  0  0  0  0  0  0  0  0  0  0  0
    3.9183  -22.9012   24.6690 C   0  0  0  0  0  0  0  0  0  0  0  0
    4.4479  -22.0221   25.5682 C   0  0  0  0  0  0  0  0  0  0  0  0
    5.4767  -21.1963   25.1618 C   0  0  0  0  0  0  0  0  0  0  0  0
    7.5437  -18.0095   22.9739 C   0  0  0  0  0  0  0  0  0  0  0  0
    8.0995  -17.8926   21.8580 O   0  0  0  0  0  0  0  0  0  0  0  0
    8.0228  -17.1758   23.9889 N   0  0  0  0  0  0  0  0  0  0  0  0
    9.0678  -16.2281   23.8600 C   0  0  1  0  0  0  0  0  0  0  0  0
    9.1426  -15.1470   24.8747 C   0  0  0  0  0  0  0  0  0  0  0  0
    7.7709  -14.7086   25.3157 C   0  0  0  0  0  0  0  0  0  0  0  0
    6.6135  -15.4471   25.4030 C   0  0  0  0  0  0  0  0  0  0  0  0
    5.6012  -14.6651   25.8456 N   0  0  0  0  0  0  0  0  0  0  0  0
    6.0589  -13.4191   26.0559 C   0  0  0  0  0  0  0  0  0  0  0  0
    5.4652  -12.2540   26.4967 C   0  0  0  0  0  0  0  0  0  0  0  0
    6.1698  -11.0746   26.6307 C   0  0  0  0  0  0  0  0  0  0  0  0
    7.5078  -11.0763   26.3104 C   0  0  0  0  0  0  0  0  0  0  0  0
    8.0929  -12.2541   25.8684 C   0  0  0  0  0  0  0  0  0  0  0  0
    7.4009  -13.4334   25.7313 C   0  0  0  0  0  0  0  0  0  0  0  0
   10.3504  -16.9832   23.8439 C   0  0  0  0  0  0  0  0  0  0  0  0
   10.5268  -18.0446   24.4936 O   0  0  0  0  0  0  0  0  0  0  0  0
   12.8617  -17.0852   20.5330 C   0  0  0  0  0  0  0  0  0  0  0  0
   13.5623  -16.8249   21.8611 C   0  0  2  0  0  0  0  0  0  0  0  0
   14.8083  -17.7076   21.8396 C   0  0  0  0  0  0  0  0  0  0  0  0
   12.7186  -17.2373   23.0203 C   0  0  2  0  0  0  0  0  0  0  0  0
   11.4559  -16.5213   23.0726 N   0  0  0  0  0  0  0  0  0  0  0  0
   13.4898  -17.0665   24.2709 C   0  0  0  0  0  0  0  0  0  0  0  0
   13.1740  -16.0824   25.1750 O   0  0  0  0  0  0  0  0  0  0  0  0
   14.4701  -17.8175   24.5590 O   0  0  0  0  0  0  0  0  0  0  0  0
  2  1  1  6
  2  3  1  0
  3  4  1  0
  4  5  2  0
  4  9  1  0
  5  6  1  0
  6  7  2  0
  8  7  1  0
  9  8  2  0
 10 12  1  0
 10  2  1  0
 11 10  2  0
 13 12  1  0
 13 14  1  1
 15 14  1  0
 15 16  2  0
 17 16  1  0
 18 23  2  0
 18 17  1  0
 19 18  1  0
 20 21  1  0
 20 19  2  0
 21 22  2  0
 22 23  1  0
 23 15  1  0
 24 13  1  0
 25 24  2  0
 27 26  1  6
 27 29  1  0
 27 28  1  0
 29 30  1  1
 30 24  1  0
 31 32  1  0
 31 29  1  0
 33 31  2  0
M  END
$$$$
