FWV.pdb
     RDKit          3D

 33 35  0  0  1  0  0  0  0  0999 V2000
   10.9967  -15.7972   18.4886 N   0  0  0  0  0  0  0  0  0  0  0  0
   10.2464  -16.7745   19.2200 C   0  0  1  0  0  0  0  0  0  0  0  0
   11.1075  -18.0346   19.3636 C   0  0  0  0  0  0  0  0  0  0  0  0
   10.2084  -19.1953   19.1737 C   0  0  0  0  0  0  0  0  0  0  0  0
    9.6114  -19.3677   17.9565 C   0  0  0  0  0  0  0  0  0  0  0  0
    8.7809  -20.4378   17.7781 C   0  0  0  0  0  0  0  0  0  0  0  0
    8.5307  -21.3380   18.7786 C   0  0  0  0  0  0  0  0  0  0  0  0
    9.1243  -21.1703   19.9957 C   0  0  0  0  0  0  0  0  0  0  0  0
    9.9643  -20.0908   20.1813 C   0  0  0  0  0  0  0  0  0  0  0  0
    9.9825  -16.2309   20.5725 C   0  0  0  0  0  0  0  0  0  0  0  0
   10.9149  -15.6551   21.1781 O   0  0  0  0  0  0  0  0  0  0  0  0
    8.7618  -16.3025   21.2503 N   0  0  0  0  0  0  0  0  0  0  0  0
    8.5076  -15.8135   22.5553 C   0  0  1  0  0  0  0  0  0  0  0  0
    7.1045  -15.4699   22.8981 C   0  0  0  0  0  0  0  0  0  0  0  0
    6.9761  -15.0479   24.3381 C   0  0  0  0  0  0  0  0  0  0  0  0
    6.6389  -15.8068   25.4349 C   0  0  0  0  0  0  0  0  0  0  0  0
    6.6382  -15.0342   26.5463 N   0  0  0  0  0  0  0  0  0  0  0  0
    6.9685  -13.7744   26.2142 C   0  0  0  0  0  0  0  0  0  0  0  0
    7.1138  -12.6106   26.9414 C   0  0  0  0  0  0  0  0  0  0  0  0
    7.4696  -11.4145   26.3515 C   0  0  0  0  0  0  0  0  0  0  0  0
    7.6831  -11.3976   24.9924 C   0  0  0  0  0  0  0  0  0  0  0  0
    7.5338  -12.5743   24.2727 C   0  0  0  0  0  0  0  0  0  0  0  0
    7.1800  -13.7702   24.8498 C   0  0  0  0  0  0  0  0  0  0  0  0
    9.0184  -16.8295   23.5157 C   0  0  0  0  0  0  0  0  0  0  0  0
    8.6766  -18.0385   23.4778 O   0  0  0  0  0  0  0  0  0  0  0  0
   12.5043  -17.8316   23.8510 C   0  0  0  0  0  0  0  0  0  0  0  0
   12.0663  -17.4388   25.2568 C   0  0  2  0  0  0  0  0  0  0  0  0
   12.6362  -18.5192   26.1733 C   0  0  0  0  0  0  0  0  0  0  0  0
   10.5809  -17.4465   25.3944 C   0  0  2  0  0  0  0  0  0  0  0  0
    9.9375  -16.4628   24.5409 N   0  0  0  0  0  0  0  0  0  0  0  0
   10.2210  -17.2481   26.8153 C   0  0  0  0  0  0  0  0  0  0  0  0
    9.5173  -16.1426   27.2253 O   0  0  0  0  0  0  0  0  0  0  0  0
   10.5458  -18.0860   27.7099 O   0  0  0  0  0  0  0  0  0  0  0  0
  2  1  1  6
  2  3  1  0
  3  4  1  0
  4  5  2  0
  4  9  1  0
  5  6  1  0
  6  7  2  0
  8  7  1  0
  9  8  2  0
 10 12  1  0
 10  2  1  0
 11 10  2  0
 13 12  1  0
 13 14  1  6
 15 14  1  0
 15 16  2  0
 17 16  1  0
 18 23  2  0
 18 17  1  0
 19 18  1  0
 20 21  1  0
 20 19  2  0
 21 22  2  0
 22 23  1  0
 23 15  1  0
 24 13  1  0
 25 24  2  0
 27 26  1  6
 27 29  1  0
 27 28  1  0
 29 30  1  6
 30 24  1  0
 31 32  1  0
 31 29  1  0
 33 31  2  0
M  END
$$$$
