FWV.pdb
     RDKit          3D

 33 35  0  0  1  0  0  0  0  0999 V2000
    5.4198  -17.1384   25.5801 N   0  0  0  0  0  0  0  0  0  0  0  0
    6.4032  -16.1181   25.3684 C   0  0  1  0  0  0  0  0  0  0  0  0
    6.8108  -15.5509   26.7330 C   0  0  0  0  0  0  0  0  0  0  0  0
    6.6993  -14.0777   26.6386 C   0  0  0  0  0  0  0  0  0  0  0  0
    7.7093  -13.3116   27.1490 C   0  0  0  0  0  0  0  0  0  0  0  0
    7.6094  -11.9517   27.0636 C   0  0  0  0  0  0  0  0  0  0  0  0
    6.5319  -11.3373   26.4843 C   0  0  0  0  0  0  0  0  0  0  0  0
    5.5208  -12.0978   25.9733 C   0  0  0  0  0  0  0  0  0  0  0  0
    5.6168  -13.4723   26.0569 C   0  0  0  0  0  0  0  0  0  0  0  0
    7.5919  -16.7495   24.7497 C   0  0  0  0  0  0  0  0  0  0  0  0
    7.9602  -17.8703   25.1689 O   0  0  0  0  0  0  0  0  0  0  0  0
    8.3575  -16.1978   23.7180 N   0  0  0  0  0  0  0  0  0  0  0  0
    9.6232  -16.6631   23.2840 C   0  0  1  0  0  0  0  0  0  0  0  0
   10.0598  -16.2880   21.9156 C   0  0  0  0  0  0  0  0  0  0  0  0
    8.8919  -15.8813   21.0561 C   0  0  0  0  0  0  0  0  0  0  0  0
    7.8488  -16.6503   20.5941 C   0  0  0  0  0  0  0  0  0  0  0  0
    7.0111  -15.8902   19.8506 N   0  0  0  0  0  0  0  0  0  0  0  0
    7.4733  -14.6289   19.8067 C   0  0  0  0  0  0  0  0  0  0  0  0
    7.0188  -13.4744   19.2028 C   0  0  0  0  0  0  0  0  0  0  0  0
    7.6918  -12.2741   19.3106 C   0  0  0  0  0  0  0  0  0  0  0  0
    8.8529  -12.2434   20.0480 C   0  0  0  0  0  0  0  0  0  0  0  0
    9.2993  -13.4108   20.6502 C   0  0  0  0  0  0  0  0  0  0  0  0
    8.6372  -14.6108   20.5493 C   0  0  0  0  0  0  0  0  0  0  0  0
   10.6307  -16.1917   24.2731 C   0  0  0  0  0  0  0  0  0  0  0  0
   11.6201  -15.4842   23.9565 O   0  0  0  0  0  0  0  0  0  0  0  0
    9.7904  -14.2910   27.4608 C   0  0  0  0  0  0  0  0  0  0  0  0
   10.6920  -15.4582   27.8446 C   0  0  2  0  0  0  0  0  0  0  0  0
   11.7254  -14.8712   28.8036 C   0  0  0  0  0  0  0  0  0  0  0  0
   11.4141  -16.0099   26.6615 C   0  0  2  0  0  0  0  0  0  0  0  0
   10.5105  -16.5324   25.6514 N   0  0  0  0  0  0  0  0  0  0  0  0
   12.3753  -17.0398   27.1126 C   0  0  0  0  0  0  0  0  0  0  0  0
   13.5157  -16.6999   27.7978 O   0  0  0  0  0  0  0  0  0  0  0  0
   12.1878  -18.2733   26.8862 O   0  0  0  0  0  0  0  0  0  0  0  0
  2  1  1  1
  2  3  1  0
  3  4  1  0
  4  5  2  0
  4  9  1  0
  5  6  1  0
  6  7  2  0
  8  7  1  0
  9  8  2  0
 10 12  1  0
 10  2  1  0
 11 10  2  0
 13 12  1  0
 13 14  1  6
 15 14  1  0
 15 16  2  0
 17 16  1  0
 18 23  2  0
 18 17  1  0
 19 18  1  0
 20 21  1  0
 20 19  2  0
 21 22  2  0
 22 23  1  0
 23 15  1  0
 24 13  1  0
 25 24  2  0
 27 26  1  6
 27 29  1  0
 27 28  1  0
 29 30  1  6
 30 24  1  0
 31 32  1  0
 31 29  1  0
 33 31  2  0
M  END
$$$$
