FWV.pdb
     RDKit          3D

 33 35  0  0  1  0  0  0  0  0999 V2000
    7.6079  -18.0482   21.1288 N   0  0  0  0  0  0  0  0  0  0  0  0
    8.0186  -16.6897   20.9318 C   0  0  1  0  0  0  0  0  0  0  0  0
    6.7643  -15.8102   20.8764 C   0  0  0  0  0  0  0  0  0  0  0  0
    7.2075  -14.4505   20.4939 C   0  0  0  0  0  0  0  0  0  0  0  0
    8.5483  -14.1954   20.4237 C   0  0  0  0  0  0  0  0  0  0  0  0
    8.9606  -12.9415   20.0711 C   0  0  0  0  0  0  0  0  0  0  0  0
    8.0737  -11.9380   19.7876 C   0  0  0  0  0  0  0  0  0  0  0  0
    6.7339  -12.1876   19.8563 C   0  0  0  0  0  0  0  0  0  0  0  0
    6.3121  -13.4528   20.2120 C   0  0  0  0  0  0  0  0  0  0  0  0
    8.8258  -16.2810   22.1047 C   0  0  0  0  0  0  0  0  0  0  0  0
    9.5860  -15.2925   21.9925 O   0  0  0  0  0  0  0  0  0  0  0  0
    8.8171  -16.9105   23.3532 N   0  0  0  0  0  0  0  0  0  0  0  0
    9.6319  -16.5684   24.4604 C   0  0  1  0  0  0  0  0  0  0  0  0
    8.9917  -16.5366   25.7995 C   0  0  0  0  0  0  0  0  0  0  0  0
    7.8124  -15.6003   25.8248 C   0  0  0  0  0  0  0  0  0  0  0  0
    6.4720  -15.8949   25.7278 C   0  0  0  0  0  0  0  0  0  0  0  0
    5.7446  -14.7553   25.7949 N   0  0  0  0  0  0  0  0  0  0  0  0
    6.5719  -13.7053   25.9350 C   0  0  0  0  0  0  0  0  0  0  0  0
    6.3653  -12.3458   26.0496 C   0  0  0  0  0  0  0  0  0  0  0  0
    7.4086  -11.4524   26.1863 C   0  0  0  0  0  0  0  0  0  0  0  0
    8.6915  -11.9488   26.2074 C   0  0  0  0  0  0  0  0  0  0  0  0
    8.8859  -13.3176   26.0913 C   0  0  0  0  0  0  0  0  0  0  0  0
    7.8546  -14.2157   25.9548 C   0  0  0  0  0  0  0  0  0  0  0  0
   10.7752  -17.5213   24.4795 C   0  0  0  0  0  0  0  0  0  0  0  0
   10.6432  -18.7517   24.2587 O   0  0  0  0  0  0  0  0  0  0  0  0
   14.3460  -16.8037   22.8876 C   0  0  0  0  0  0  0  0  0  0  0  0
   14.4914  -17.3227   24.3131 C   0  0  2  0  0  0  0  0  0  0  0  0
   15.5796  -18.3919   24.2440 C   0  0  0  0  0  0  0  0  0  0  0  0
   13.2355  -17.9661   24.7969 C   0  0  2  0  0  0  0  0  0  0  0  0
   12.0966  -17.0654   24.7556 N   0  0  0  0  0  0  0  0  0  0  0  0
   13.4537  -18.5003   26.1589 C   0  0  0  0  0  0  0  0  0  0  0  0
   14.1931  -19.6382   26.3688 O   0  0  0  0  0  0  0  0  0  0  0  0
   12.9693  -17.9332   27.1844 O   0  0  0  0  0  0  0  0  0  0  0  0
  2  1  1  1
  2  3  1  0
  3  4  1  0
  4  5  2  0
  4  9  1  0
  5  6  1  0
  6  7  2  0
  8  7  1  0
  9  8  2  0
 10 12  1  0
 10  2  1  0
 11 10  2  0
 13 12  1  0
 13 14  1  1
 15 14  1  0
 15 16  2  0
 17 16  1  0
 18 23  2  0
 18 17  1  0
 19 18  1  0
 20 21  1  0
 20 19  2  0
 21 22  2  0
 22 23  1  0
 23 15  1  0
 24 13  1  0
 25 24  2  0
 27 26  1  6
 27 29  1  0
 27 28  1  0
 29 30  1  1
 30 24  1  0
 31 32  1  0
 31 29  1  0
 33 31  2  0
M  END
$$$$
