FYI.pdb
     RDKit          3D

 32 33  0  0  1  0  0  0  0  0999 V2000
   25.4702  -19.7283  -18.3516 N   0  0  0  0  0  0  0  0  0  0  0  0
   25.4465  -19.2662  -16.9532 C   0  0  1  0  0  0  0  0  0  0  0  0
   24.8928  -17.8802  -16.9445 C   0  0  0  0  0  0  0  0  0  0  0  0
   25.7383  -16.8686  -17.5911 C   0  0  0  0  0  0  0  0  0  0  0  0
   25.1561  -15.9490  -18.4270 C   0  0  0  0  0  0  0  0  0  0  0  0
   25.8995  -14.9727  -19.0662 C   0  0  0  0  0  0  0  0  0  0  0  0
   27.2487  -14.9548  -18.8343 C   0  0  0  0  0  0  0  0  0  0  0  0
   27.8503  -15.8659  -18.0016 C   0  0  0  0  0  0  0  0  0  0  0  0
   27.0898  -16.8244  -17.3797 C   0  0  0  0  0  0  0  0  0  0  0  0
   24.6954  -20.2598  -16.1873 C   0  0  0  0  0  0  0  0  0  0  0  0
   23.7286  -20.9256  -16.6939 O   0  0  0  0  0  0  0  0  0  0  0  0
   27.7765  -25.7901  -17.2747 O   0  0  0  0  0  0  0  0  0  0  0  0
   27.1298  -24.9802  -16.3213 C   0  0  0  0  0  0  0  0  0  0  0  0
   27.6462  -23.7449  -15.9904 C   0  0  0  0  0  0  0  0  0  0  0  0
   27.0115  -22.9593  -15.0601 C   0  0  0  0  0  0  0  0  0  0  0  0
   25.8535  -23.3458  -14.4188 C   0  0  0  0  0  0  0  0  0  0  0  0
   25.1794  -22.4922  -13.4208 C   0  0  0  0  0  0  0  0  0  0  0  0
   24.1897  -21.5234  -14.0427 C   0  0  2  0  0  0  0  0  0  0  0  0
   24.9731  -20.5760  -14.8110 N   0  0  0  0  0  0  0  0  0  0  0  0
   23.2621  -20.9161  -13.1006 C   0  0  0  0  0  0  0  0  0  0  0  0
   23.6821  -20.1356  -12.1833 O   0  0  0  0  0  0  0  0  0  0  0  0
   25.3518  -24.5790  -14.7595 C   0  0  0  0  0  0  0  0  0  0  0  0
   25.9742  -25.3965  -15.6992 C   0  0  0  0  0  0  0  0  0  0  0  0
   18.6770  -18.4783  -14.5954 C   0  0  0  0  0  0  0  0  0  0  0  0
   19.4471  -19.6197  -13.9979 C   0  0  0  0  0  0  0  0  0  0  0  0
   20.2063  -19.2996  -12.7523 C   0  0  2  0  0  0  0  0  0  0  0  0
   21.2841  -18.2465  -13.0557 C   0  0  0  0  0  0  0  0  0  0  0  0
   20.9600  -20.4716  -12.1533 C   0  0  2  0  0  0  0  0  0  0  0  0
   21.8543  -21.1131  -13.0995 N   0  0  0  0  0  0  0  0  0  0  0  0
   19.9508  -21.4673  -11.7476 C   0  0  0  0  0  0  0  0  0  0  0  0
   19.0477  -21.1814  -10.7476 O   0  0  0  0  0  0  0  0  0  0  0  0
   19.9012  -22.5838  -12.3044 O   0  0  0  0  0  0  0  0  0  0  0  0
  2  1  1  6
  3  2  1  0
  3  4  1  0
  4  9  1  0
  5  4  2  0
  5  6  1  0
  6  7  2  0
  7  8  1  0
  9  8  2  0
 10 11  2  0
 10  2  1  0
 12 13  1  0
 13 14  2  0
 14 15  1  0
 16 15  2  0
 16 17  1  0
 18 17  1  1
 18 19  1  0
 19 10  1  0
 20 29  1  0
 20 18  1  0
 21 20  2  0
 22 16  1  0
 23 13  1  0
 23 22  2  0
 24 25  1  0
 25 26  1  0
 26 27  1  6
 26 28  1  0
 28 29  1  6
 28 30  1  0
 30 31  1  0
 32 30  2  0
M  END
$$$$
