FYI.pdb
     RDKit          3D

 32 33  0  0  1  0  0  0  0  0999 V2000
   26.4044  -20.8797  -18.7283 N   0  0  0  0  0  0  0  0  0  0  0  0
   26.0648  -19.8065  -17.7782 C   0  0  1  0  0  0  0  0  0  0  0  0
   24.7194  -19.2802  -18.1530 C   0  0  0  0  0  0  0  0  0  0  0  0
   24.6726  -18.5383  -19.4194 C   0  0  0  0  0  0  0  0  0  0  0  0
   24.0022  -19.0824  -20.4861 C   0  0  0  0  0  0  0  0  0  0  0  0
   23.9239  -18.4326  -21.7051 C   0  0  0  0  0  0  0  0  0  0  0  0
   24.5437  -17.2167  -21.8123 C   0  0  0  0  0  0  0  0  0  0  0  0
   25.2194  -16.6552  -20.7571 C   0  0  0  0  0  0  0  0  0  0  0  0
   25.2821  -17.3207  -19.5583 C   0  0  0  0  0  0  0  0  0  0  0  0
   26.1784  -20.3730  -16.4349 C   0  0  0  0  0  0  0  0  0  0  0  0
   25.7080  -21.5236  -16.1361 O   0  0  0  0  0  0  0  0  0  0  0  0
   27.7888  -20.5558   -7.6233 O   0  0  0  0  0  0  0  0  0  0  0  0
   27.8022  -20.2806   -9.0044 C   0  0  0  0  0  0  0  0  0  0  0  0
   28.6032  -21.0145   -9.8539 C   0  0  0  0  0  0  0  0  0  0  0  0
   28.6124  -20.7420  -11.1996 C   0  0  0  0  0  0  0  0  0  0  0  0
   27.8441  -19.7473  -11.7672 C   0  0  0  0  0  0  0  0  0  0  0  0
   27.8616  -19.4640  -13.2159 C   0  0  0  0  0  0  0  0  0  0  0  0
   26.7337  -20.1491  -13.9664 C   0  0  2  0  0  0  0  0  0  0  0  0
   26.8232  -19.6961  -15.3406 N   0  0  0  0  0  0  0  0  0  0  0  0
   25.4195  -19.9905  -13.3629 C   0  0  0  0  0  0  0  0  0  0  0  0
   24.7465  -18.9211  -13.5378 O   0  0  0  0  0  0  0  0  0  0  0  0
   27.0517  -19.0253  -10.9076 C   0  0  0  0  0  0  0  0  0  0  0  0
   27.0224  -19.2797   -9.5389 C   0  0  0  0  0  0  0  0  0  0  0  0
   19.9000  -22.0642  -12.9107 C   0  0  0  0  0  0  0  0  0  0  0  0
   20.9927  -21.3543  -12.1657 C   0  0  0  0  0  0  0  0  0  0  0  0
   22.3699  -21.5440  -12.7114 C   0  0  2  0  0  0  0  0  0  0  0  0
   22.7815  -23.0194  -12.5843 C   0  0  0  0  0  0  0  0  0  0  0  0
   23.4507  -20.7704  -11.9808 C   0  0  2  0  0  0  0  0  0  0  0  0
   24.7704  -20.9624  -12.5538 N   0  0  0  0  0  0  0  0  0  0  0  0
   23.4852  -21.2842  -10.5990 C   0  0  0  0  0  0  0  0  0  0  0  0
   22.4601  -21.0050   -9.7224 O   0  0  0  0  0  0  0  0  0  0  0  0
   24.4445  -21.9790  -10.2041 O   0  0  0  0  0  0  0  0  0  0  0  0
  2  1  1  6
  3  2  1  0
  3  4  1  0
  4  9  1  0
  5  4  2  0
  5  6  1  0
  6  7  2  0
  7  8  1  0
  9  8  2  0
 10 11  2  0
 10  2  1  0
 12 13  1  0
 13 14  2  0
 14 15  1  0
 16 15  2  0
 16 17  1  0
 18 17  1  1
 18 19  1  0
 19 10  1  0
 20 29  1  0
 20 18  1  0
 21 20  2  0
 22 16  1  0
 23 13  1  0
 23 22  2  0
 24 25  1  0
 25 26  1  0
 26 27  1  1
 26 28  1  0
 28 29  1  6
 28 30  1  0
 30 31  1  0
 32 30  2  0
M  END
$$$$
