FYI.pdb
     RDKit          3D

 32 33  0  0  1  0  0  0  0  0999 V2000
   27.4844  -18.3261  -19.0974 N   0  0  0  0  0  0  0  0  0  0  0  0
   27.9023  -18.9847  -17.8478 C   0  0  1  0  0  0  0  0  0  0  0  0
   28.2384  -17.9143  -16.8634 C   0  0  0  0  0  0  0  0  0  0  0  0
   29.4159  -17.1050  -17.2025 C   0  0  0  0  0  0  0  0  0  0  0  0
   29.2572  -15.7616  -17.4332 C   0  0  0  0  0  0  0  0  0  0  0  0
   30.3275  -14.9470  -17.7578 C   0  0  0  0  0  0  0  0  0  0  0  0
   31.5623  -15.5322  -17.8419 C   0  0  0  0  0  0  0  0  0  0  0  0
   31.7421  -16.8744  -17.6147 C   0  0  0  0  0  0  0  0  0  0  0  0
   30.6635  -17.6604  -17.2943 C   0  0  0  0  0  0  0  0  0  0  0  0
   26.8233  -19.8928  -17.4615 C   0  0  0  0  0  0  0  0  0  0  0  0
   25.6086  -19.5071  -17.3600 O   0  0  0  0  0  0  0  0  0  0  0  0
   22.2355  -27.2859  -15.6498 O   0  0  0  0  0  0  0  0  0  0  0  0
   23.2236  -26.3582  -16.0322 C   0  0  0  0  0  0  0  0  0  0  0  0
   22.9429  -25.3876  -16.9709 C   0  0  0  0  0  0  0  0  0  0  0  0
   23.9101  -24.4856  -17.3400 C   0  0  0  0  0  0  0  0  0  0  0  0
   25.1834  -24.4946  -16.8105 C   0  0  0  0  0  0  0  0  0  0  0  0
   26.2148  -23.5189  -17.2145 C   0  0  0  0  0  0  0  0  0  0  0  0
   25.9901  -22.1400  -16.6204 C   0  0  2  0  0  0  0  0  0  0  0  0
   27.0273  -21.2863  -17.1655 N   0  0  0  0  0  0  0  0  0  0  0  0
   25.8878  -22.1143  -15.1694 C   0  0  0  0  0  0  0  0  0  0  0  0
   26.8699  -22.4756  -14.4400 O   0  0  0  0  0  0  0  0  0  0  0  0
   25.4471  -25.4675  -15.8767 C   0  0  0  0  0  0  0  0  0  0  0  0
   24.4859  -26.3950  -15.4835 C   0  0  0  0  0  0  0  0  0  0  0  0
   26.0432  -20.3893   -9.7874 C   0  0  0  0  0  0  0  0  0  0  0  0
   25.2072  -21.2631  -10.6765 C   0  0  0  0  0  0  0  0  0  0  0  0
   25.4197  -21.0769  -12.1430 C   0  0  2  0  0  0  0  0  0  0  0  0
   25.0514  -19.6395  -12.5440 C   0  0  0  0  0  0  0  0  0  0  0  0
   24.5590  -21.9629  -13.0232 C   0  0  2  0  0  0  0  0  0  0  0  0
   24.7400  -21.7015  -14.4394 N   0  0  0  0  0  0  0  0  0  0  0  0
   23.1543  -21.6623  -12.6900 C   0  0  0  0  0  0  0  0  0  0  0  0
   22.3152  -21.1066  -13.6303 O   0  0  0  0  0  0  0  0  0  0  0  0
   22.7062  -21.9067  -11.5505 O   0  0  0  0  0  0  0  0  0  0  0  0
  2  1  1  6
  3  2  1  0
  3  4  1  0
  4  9  1  0
  5  4  2  0
  5  6  1  0
  6  7  2  0
  7  8  1  0
  9  8  2  0
 10 11  2  0
 10  2  1  0
 12 13  1  0
 13 14  2  0
 14 15  1  0
 16 15  2  0
 16 17  1  0
 18 17  1  1
 18 19  1  0
 19 10  1  0
 20 29  1  0
 20 18  1  0
 21 20  2  0
 22 16  1  0
 23 13  1  0
 23 22  2  0
 24 25  1  0
 25 26  1  0
 26 27  1  6
 26 28  1  0
 28 29  1  6
 28 30  1  0
 30 31  1  0
 32 30  2  0
M  END
$$$$
