FYI.pdb
     RDKit          3D

 32 33  0  0  1  0  0  0  0  0999 V2000
   27.3022  -21.8965  -14.2359 N   0  0  0  0  0  0  0  0  0  0  0  0
   26.8807  -20.7611  -13.3976 C   0  0  1  0  0  0  0  0  0  0  0  0
   25.5116  -20.3596  -13.8358 C   0  0  0  0  0  0  0  0  0  0  0  0
   25.4388  -19.7539  -15.1715 C   0  0  0  0  0  0  0  0  0  0  0  0
   26.1999  -18.6447  -15.4427 C   0  0  0  0  0  0  0  0  0  0  0  0
   26.1735  -18.0285  -16.6813 C   0  0  0  0  0  0  0  0  0  0  0  0
   25.3546  -18.5680  -17.6365 C   0  0  0  0  0  0  0  0  0  0  0  0
   24.5853  -19.6773  -17.3852 C   0  0  0  0  0  0  0  0  0  0  0  0
   24.6299  -20.2696  -16.1478 C   0  0  0  0  0  0  0  0  0  0  0  0
   27.0068  -21.1880  -12.0047 C   0  0  0  0  0  0  0  0  0  0  0  0
   26.5065  -22.2842  -11.5777 O   0  0  0  0  0  0  0  0  0  0  0  0
   28.1048  -19.5281   -3.2599 O   0  0  0  0  0  0  0  0  0  0  0  0
   28.2626  -19.6513   -4.6539 C   0  0  0  0  0  0  0  0  0  0  0  0
   27.9084  -18.6134   -5.4901 C   0  0  0  0  0  0  0  0  0  0  0  0
   28.0644  -18.7389   -6.8486 C   0  0  0  0  0  0  0  0  0  0  0  0
   28.5697  -19.8764   -7.4422 C   0  0  0  0  0  0  0  0  0  0  0  0
   28.7338  -19.9995   -8.9040 C   0  0  0  0  0  0  0  0  0  0  0  0
   27.5471  -20.6639   -9.5788 C   0  0  2  0  0  0  0  0  0  0  0  0
   27.6982  -20.4234  -11.0004 N   0  0  0  0  0  0  0  0  0  0  0  0
   26.2511  -20.2852   -9.0370 C   0  0  0  0  0  0  0  0  0  0  0  0
   25.7725  -19.1212   -9.2448 O   0  0  0  0  0  0  0  0  0  0  0  0
   28.9179  -20.9012   -6.5955 C   0  0  0  0  0  0  0  0  0  0  0  0
   28.7706  -20.8017   -5.2145 C   0  0  0  0  0  0  0  0  0  0  0  0
   20.8089  -20.1832   -9.9619 C   0  0  0  0  0  0  0  0  0  0  0  0
   21.7093  -20.3719   -8.7759 C   0  0  0  0  0  0  0  0  0  0  0  0
   23.1123  -20.7743   -9.0926 C   0  0  2  0  0  0  0  0  0  0  0  0
   23.1319  -22.2134   -9.6323 C   0  0  0  0  0  0  0  0  0  0  0  0
   24.0494  -20.7894   -7.9001 C   0  0  2  0  0  0  0  0  0  0  0  0
   25.4147  -21.1291   -8.2567 N   0  0  0  0  0  0  0  0  0  0  0  0
   23.5558  -21.8316   -6.9809 C   0  0  0  0  0  0  0  0  0  0  0  0
   24.3077  -22.9583   -6.7315 O   0  0  0  0  0  0  0  0  0  0  0  0
   22.4490  -21.7074   -6.4164 O   0  0  0  0  0  0  0  0  0  0  0  0
  2  1  1  6
  3  2  1  0
  3  4  1  0
  4  9  1  0
  5  4  2  0
  5  6  1  0
  6  7  2  0
  7  8  1  0
  9  8  2  0
 10 11  2  0
 10  2  1  0
 12 13  1  0
 13 14  2  0
 14 15  1  0
 16 15  2  0
 16 17  1  0
 18 17  1  1
 18 19  1  0
 19 10  1  0
 20 29  1  0
 20 18  1  0
 21 20  2  0
 22 16  1  0
 23 13  1  0
 23 22  2  0
 24 25  1  0
 25 26  1  0
 26 27  1  1
 26 28  1  0
 28 29  1  6
 28 30  1  0
 30 31  1  0
 32 30  2  0
M  END
$$$$
