FYI.pdb
     RDKit          3D

 32 33  0  0  1  0  0  0  0  0999 V2000
   27.8244  -22.1068  -12.4551 N   0  0  0  0  0  0  0  0  0  0  0  0
   27.1620  -21.5206  -11.2772 C   0  0  1  0  0  0  0  0  0  0  0  0
   28.0091  -20.3886  -10.7990 C   0  0  0  0  0  0  0  0  0  0  0  0
   27.9304  -20.1186   -9.3577 C   0  0  0  0  0  0  0  0  0  0  0  0
   26.8492  -19.4310   -8.8665 C   0  0  0  0  0  0  0  0  0  0  0  0
   26.7189  -19.1449   -7.5191 C   0  0  0  0  0  0  0  0  0  0  0  0
   27.7149  -19.5753   -6.6841 C   0  0  0  0  0  0  0  0  0  0  0  0
   28.8047  -20.2647   -7.1557 C   0  0  0  0  0  0  0  0  0  0  0  0
   28.9097  -20.5355   -8.4972 C   0  0  0  0  0  0  0  0  0  0  0  0
   25.8000  -21.1741  -11.6809 C   0  0  0  0  0  0  0  0  0  0  0  0
   25.4210  -21.2014  -12.9016 O   0  0  0  0  0  0  0  0  0  0  0  0
   16.9765  -20.1342  -10.5240 O   0  0  0  0  0  0  0  0  0  0  0  0
   18.3747  -20.1665  -10.3581 C   0  0  0  0  0  0  0  0  0  0  0  0
   18.9991  -21.3176   -9.9259 C   0  0  0  0  0  0  0  0  0  0  0  0
   20.3626  -21.3436   -9.7659 C   0  0  0  0  0  0  0  0  0  0  0  0
   21.1671  -20.2527  -10.0199 C   0  0  0  0  0  0  0  0  0  0  0  0
   22.6323  -20.2927   -9.8450 C   0  0  0  0  0  0  0  0  0  0  0  0
   23.3632  -20.7768  -11.0845 C   0  0  2  0  0  0  0  0  0  0  0  0
   24.7744  -20.7770  -10.7526 N   0  0  0  0  0  0  0  0  0  0  0  0
   23.0301  -20.0575  -12.3045 C   0  0  0  0  0  0  0  0  0  0  0  0
   23.5401  -18.9138  -12.5469 O   0  0  0  0  0  0  0  0  0  0  0  0
   20.5298  -19.1137  -10.4496 C   0  0  0  0  0  0  0  0  0  0  0  0
   19.1490  -19.0587  -10.6207 C   0  0  0  0  0  0  0  0  0  0  0  0
   24.2905  -21.2798  -17.1038 C   0  0  0  0  0  0  0  0  0  0  0  0
   23.7900  -20.5802  -15.8738 C   0  0  0  0  0  0  0  0  0  0  0  0
   22.3073  -20.4271  -15.7807 C   0  0  2  0  0  0  0  0  0  0  0  0
   21.8053  -19.5203  -16.9157 C   0  0  0  0  0  0  0  0  0  0  0  0
   21.8195  -19.7667  -14.5055 C   0  0  2  0  0  0  0  0  0  0  0  0
   22.1454  -20.5273  -13.3131 N   0  0  0  0  0  0  0  0  0  0  0  0
   20.3497  -19.6903  -14.5981 C   0  0  0  0  0  0  0  0  0  0  0  0
   19.7273  -18.4951  -14.8833 O   0  0  0  0  0  0  0  0  0  0  0  0
   19.6488  -20.7080  -14.4186 O   0  0  0  0  0  0  0  0  0  0  0  0
  2  1  1  6
  3  2  1  0
  3  4  1  0
  4  9  1  0
  5  4  2  0
  5  6  1  0
  6  7  2  0
  7  8  1  0
  9  8  2  0
 10 11  2  0
 10  2  1  0
 12 13  1  0
 13 14  2  0
 14 15  1  0
 16 15  2  0
 16 17  1  0
 18 17  1  1
 18 19  1  0
 19 10  1  0
 20 29  1  0
 20 18  1  0
 21 20  2  0
 22 16  1  0
 23 13  1  0
 23 22  2  0
 24 25  1  0
 25 26  1  0
 26 27  1  6
 26 28  1  0
 28 29  1  1
 28 30  1  0
 30 31  1  0
 32 30  2  0
M  END
$$$$
