FYI.pdb
     RDKit          3D

 32 33  0  0  1  0  0  0  0  0999 V2000
   26.6585  -22.8268  -19.1767 N   0  0  0  0  0  0  0  0  0  0  0  0
   26.4846  -21.5269  -18.5058 C   0  0  1  0  0  0  0  0  0  0  0  0
   25.6125  -20.6831  -19.3747 C   0  0  0  0  0  0  0  0  0  0  0  0
   26.2415  -20.2090  -20.6140 C   0  0  0  0  0  0  0  0  0  0  0  0
   27.1072  -19.1457  -20.5574 C   0  0  0  0  0  0  0  0  0  0  0  0
   27.7298  -18.6524  -21.6903 C   0  0  0  0  0  0  0  0  0  0  0  0
   27.4504  -19.2671  -22.8813 C   0  0  0  0  0  0  0  0  0  0  0  0
   26.5874  -20.3322  -22.9591 C   0  0  0  0  0  0  0  0  0  0  0  0
   25.9828  -20.8021  -21.8200 C   0  0  0  0  0  0  0  0  0  0  0  0
   25.9743  -21.8034  -17.1637 C   0  0  0  0  0  0  0  0  0  0  0  0
   25.1683  -22.7663  -16.9236 O   0  0  0  0  0  0  0  0  0  0  0  0
   24.6780  -20.7551   -8.3631 O   0  0  0  0  0  0  0  0  0  0  0  0
   25.1837  -20.7471   -9.6775 C   0  0  0  0  0  0  0  0  0  0  0  0
   25.7554  -21.8827  -10.2117 C   0  0  0  0  0  0  0  0  0  0  0  0
   26.2468  -21.8693  -11.4937 C   0  0  0  0  0  0  0  0  0  0  0  0
   26.2002  -20.7527  -12.3017 C   0  0  0  0  0  0  0  0  0  0  0  0
   26.7311  -20.7504  -13.6791 C   0  0  0  0  0  0  0  0  0  0  0  0
   25.7152  -21.2183  -14.7056 C   0  0  2  0  0  0  0  0  0  0  0  0
   26.3295  -21.0275  -16.0047 N   0  0  0  0  0  0  0  0  0  0  0  0
   24.3955  -20.6213  -14.5684 C   0  0  0  0  0  0  0  0  0  0  0  0
   24.2190  -19.3750  -14.7750 O   0  0  0  0  0  0  0  0  0  0  0  0
   25.6277  -19.6295  -11.7549 C   0  0  0  0  0  0  0  0  0  0  0  0
   25.1213  -19.6144  -10.4579 C   0  0  0  0  0  0  0  0  0  0  0  0
   19.6923  -23.2703  -15.8889 C   0  0  0  0  0  0  0  0  0  0  0  0
   20.6336  -22.6941  -14.8715 C   0  0  0  0  0  0  0  0  0  0  0  0
   20.8611  -21.2213  -14.9689 C   0  0  2  0  0  0  0  0  0  0  0  0
   21.3556  -20.8631  -16.3795 C   0  0  0  0  0  0  0  0  0  0  0  0
   21.9252  -20.6834  -14.0314 C   0  0  2  0  0  0  0  0  0  0  0  0
   23.2143  -21.3261  -14.2094 N   0  0  0  0  0  0  0  0  0  0  0  0
   21.4700  -20.9691  -12.6582 C   0  0  0  0  0  0  0  0  0  0  0  0
   20.4764  -20.2117  -12.0782 O   0  0  0  0  0  0  0  0  0  0  0  0
   21.9794  -21.9011  -12.0018 O   0  0  0  0  0  0  0  0  0  0  0  0
  2  1  1  6
  3  2  1  0
  3  4  1  0
  4  9  1  0
  5  4  2  0
  5  6  1  0
  6  7  2  0
  7  8  1  0
  9  8  2  0
 10 11  2  0
 10  2  1  0
 12 13  1  0
 13 14  2  0
 14 15  1  0
 16 15  2  0
 16 17  1  0
 18 17  1  1
 18 19  1  0
 19 10  1  0
 20 29  1  0
 20 18  1  0
 21 20  2  0
 22 16  1  0
 23 13  1  0
 23 22  2  0
 24 25  1  0
 25 26  1  0
 26 27  1  6
 26 28  1  0
 28 29  1  6
 28 30  1  0
 30 31  1  0
 32 30  2  0
M  END
$$$$
