FYI.pdb
     RDKit          3D

 32 33  0  0  1  0  0  0  0  0999 V2000
   25.5016  -18.5671  -15.1901 N   0  0  0  0  0  0  0  0  0  0  0  0
   26.5719  -18.8006  -14.2053 C   0  0  1  0  0  0  0  0  0  0  0  0
   27.4553  -17.5977  -14.2043 C   0  0  0  0  0  0  0  0  0  0  0  0
   28.2352  -17.3978  -15.4324 C   0  0  0  0  0  0  0  0  0  0  0  0
   29.2591  -18.2649  -15.7202 C   0  0  0  0  0  0  0  0  0  0  0  0
   30.0304  -18.1281  -16.8608 C   0  0  0  0  0  0  0  0  0  0  0  0
   29.7347  -17.0882  -17.7007 C   0  0  0  0  0  0  0  0  0  0  0  0
   28.7144  -16.2097  -17.4307 C   0  0  0  0  0  0  0  0  0  0  0  0
   27.9643  -16.3679  -16.2922 C   0  0  0  0  0  0  0  0  0  0  0  0
   25.9217  -19.1177  -12.9345 C   0  0  0  0  0  0  0  0  0  0  0  0
   25.1190  -18.3078  -12.3564 O   0  0  0  0  0  0  0  0  0  0  0  0
   19.8048  -19.9131  -13.7378 O   0  0  0  0  0  0  0  0  0  0  0  0
   20.9696  -20.3584  -13.0834 C   0  0  0  0  0  0  0  0  0  0  0  0
   21.9935  -20.9402  -13.8011 C   0  0  0  0  0  0  0  0  0  0  0  0
   23.1270  -21.3725  -13.1580 C   0  0  0  0  0  0  0  0  0  0  0  0
   23.3057  -21.2551  -11.7956 C   0  0  0  0  0  0  0  0  0  0  0  0
   24.5293  -21.7229  -11.1152 C   0  0  0  0  0  0  0  0  0  0  0  0
   25.5559  -20.6216  -10.9205 C   0  0  2  0  0  0  0  0  0  0  0  0
   26.1225  -20.3554  -12.2280 N   0  0  0  0  0  0  0  0  0  0  0  0
   26.5376  -20.8848   -9.8795 C   0  0  0  0  0  0  0  0  0  0  0  0
   27.4581  -21.7502  -10.0552 O   0  0  0  0  0  0  0  0  0  0  0  0
   22.2766  -20.6735  -11.0949 C   0  0  0  0  0  0  0  0  0  0  0  0
   21.1161  -20.2259  -11.7207 C   0  0  0  0  0  0  0  0  0  0  0  0
   29.6130  -19.0810   -4.8076 C   0  0  0  0  0  0  0  0  0  0  0  0
   28.7997  -20.1249   -5.5159 C   0  0  0  0  0  0  0  0  0  0  0  0
   28.1537  -19.6819   -6.7875 C   0  0  2  0  0  0  0  0  0  0  0  0
   27.1666  -18.5395   -6.4994 C   0  0  0  0  0  0  0  0  0  0  0  0
   27.3283  -20.7485   -7.4814 C   0  0  2  0  0  0  0  0  0  0  0  0
   26.5795  -20.2372   -8.6147 N   0  0  0  0  0  0  0  0  0  0  0  0
   26.3552  -21.2478   -6.4922 C   0  0  0  0  0  0  0  0  0  0  0  0
   25.0137  -20.9653   -6.6257 O   0  0  0  0  0  0  0  0  0  0  0  0
   26.7338  -21.9329   -5.5195 O   0  0  0  0  0  0  0  0  0  0  0  0
  2  1  1  6
  3  2  1  0
  3  4  1  0
  4  9  1  0
  5  4  2  0
  5  6  1  0
  6  7  2  0
  7  8  1  0
  9  8  2  0
 10 11  2  0
 10  2  1  0
 12 13  1  0
 13 14  2  0
 14 15  1  0
 16 15  2  0
 16 17  1  0
 18 17  1  6
 18 19  1  0
 19 10  1  0
 20 29  1  0
 20 18  1  0
 21 20  2  0
 22 16  1  0
 23 13  1  0
 23 22  2  0
 24 25  1  0
 25 26  1  0
 26 27  1  1
 26 28  1  0
 28 29  1  6
 28 30  1  0
 30 31  1  0
 32 30  2  0
M  END
$$$$
