FYI.pdb
     RDKit          3D

 32 33  0  0  1  0  0  0  0  0999 V2000
   29.1091  -19.3687  -14.9739 N   0  0  0  0  0  0  0  0  0  0  0  0
   28.3774  -20.1247  -13.9428 C   0  0  1  0  0  0  0  0  0  0  0  0
   28.7566  -19.5602  -12.6142 C   0  0  0  0  0  0  0  0  0  0  0  0
   29.4593  -20.4901  -11.7210 C   0  0  0  0  0  0  0  0  0  0  0  0
   30.5224  -21.2077  -12.2089 C   0  0  0  0  0  0  0  0  0  0  0  0
   31.2235  -22.1001  -11.4173 C   0  0  0  0  0  0  0  0  0  0  0  0
   30.8168  -22.2443  -10.1180 C   0  0  0  0  0  0  0  0  0  0  0  0
   29.7557  -21.5356   -9.6107 C   0  0  0  0  0  0  0  0  0  0  0  0
   29.0770  -20.6567  -10.4174 C   0  0  0  0  0  0  0  0  0  0  0  0
   26.9580  -20.0528  -14.2866 C   0  0  0  0  0  0  0  0  0  0  0  0
   26.3495  -18.9403  -14.4498 O   0  0  0  0  0  0  0  0  0  0  0  0
   26.4303  -18.8298  -20.5908 O   0  0  0  0  0  0  0  0  0  0  0  0
   25.9636  -19.5770  -19.4920 C   0  0  0  0  0  0  0  0  0  0  0  0
   26.7916  -20.4824  -18.8623 C   0  0  0  0  0  0  0  0  0  0  0  0
   26.3313  -21.2082  -17.7914 C   0  0  0  0  0  0  0  0  0  0  0  0
   25.0512  -21.0801  -17.2949 C   0  0  0  0  0  0  0  0  0  0  0  0
   24.5678  -21.8654  -16.1422 C   0  0  0  0  0  0  0  0  0  0  0  0
   24.7223  -21.1336  -14.8210 C   0  0  2  0  0  0  0  0  0  0  0  0
   26.1271  -21.2133  -14.4718 N   0  0  0  0  0  0  0  0  0  0  0  0
   23.8140  -21.5747  -13.7736 C   0  0  0  0  0  0  0  0  0  0  0  0
   24.0728  -22.6144  -13.0814 O   0  0  0  0  0  0  0  0  0  0  0  0
   24.2389  -20.1741  -17.9332 C   0  0  0  0  0  0  0  0  0  0  0  0
   24.6788  -19.4246  -19.0211 C   0  0  0  0  0  0  0  0  0  0  0  0
   19.8199  -19.6955   -9.6033 C   0  0  0  0  0  0  0  0  0  0  0  0
   20.7809  -20.7505  -10.0686 C   0  0  0  0  0  0  0  0  0  0  0  0
   21.6728  -20.3530  -11.1986 C   0  0  2  0  0  0  0  0  0  0  0  0
   21.1434  -19.0664  -11.8520 C   0  0  0  0  0  0  0  0  0  0  0  0
   21.7506  -21.3633  -12.3272 C   0  0  2  0  0  0  0  0  0  0  0  0
   22.5989  -20.9267  -13.4210 N   0  0  0  0  0  0  0  0  0  0  0  0
   20.3834  -21.5187  -12.8576 C   0  0  0  0  0  0  0  0  0  0  0  0
   20.0240  -20.9304  -14.0500 O   0  0  0  0  0  0  0  0  0  0  0  0
   19.5323  -22.1852  -12.2328 O   0  0  0  0  0  0  0  0  0  0  0  0
  2  1  1  6
  3  2  1  0
  3  4  1  0
  4  9  1  0
  5  4  2  0
  5  6  1  0
  6  7  2  0
  7  8  1  0
  9  8  2  0
 10 11  2  0
 10  2  1  0
 12 13  1  0
 13 14  2  0
 14 15  1  0
 16 15  2  0
 16 17  1  0
 18 17  1  6
 18 19  1  0
 19 10  1  0
 20 29  1  0
 20 18  1  0
 21 20  2  0
 22 16  1  0
 23 13  1  0
 23 22  2  0
 24 25  1  0
 25 26  1  0
 26 27  1  6
 26 28  1  0
 28 29  1  6
 28 30  1  0
 30 31  1  0
 32 30  2  0
M  END
$$$$
