FYI.pdb
     RDKit          3D

 32 33  0  0  1  0  0  0  0  0999 V2000
   21.8662  -15.1245  -17.7743 N   0  0  0  0  0  0  0  0  0  0  0  0
   22.2625  -16.5411  -17.8519 C   0  0  1  0  0  0  0  0  0  0  0  0
   23.4662  -16.6261  -18.7303 C   0  0  0  0  0  0  0  0  0  0  0  0
   23.2051  -16.4381  -20.1630 C   0  0  0  0  0  0  0  0  0  0  0  0
   22.4231  -17.3521  -20.8235 C   0  0  0  0  0  0  0  0  0  0  0  0
   22.1423  -17.2302  -22.1729 C   0  0  0  0  0  0  0  0  0  0  0  0
   22.6762  -16.1564  -22.8333 C   0  0  0  0  0  0  0  0  0  0  0  0
   23.4610  -15.2309  -22.1908 C   0  0  0  0  0  0  0  0  0  0  0  0
   23.7243  -15.3752  -20.8515 C   0  0  0  0  0  0  0  0  0  0  0  0
   22.4384  -17.0117  -16.4787 C   0  0  0  0  0  0  0  0  0  0  0  0
   23.0176  -16.3065  -15.5832 O   0  0  0  0  0  0  0  0  0  0  0  0
   20.6708  -20.7722   -8.7074 O   0  0  0  0  0  0  0  0  0  0  0  0
   20.6910  -20.3782  -10.0593 C   0  0  0  0  0  0  0  0  0  0  0  0
   20.6254  -19.0429  -10.3975 C   0  0  0  0  0  0  0  0  0  0  0  0
   20.6455  -18.6643  -11.7173 C   0  0  0  0  0  0  0  0  0  0  0  0
   20.7299  -19.5693  -12.7544 C   0  0  0  0  0  0  0  0  0  0  0  0
   20.7516  -19.1504  -14.1698 C   0  0  0  0  0  0  0  0  0  0  0  0
   22.1346  -18.7432  -14.6452 C   0  0  2  0  0  0  0  0  0  0  0  0
   21.9801  -18.2948  -16.0152 N   0  0  0  0  0  0  0  0  0  0  0  0
   23.1637  -19.7535  -14.4532 C   0  0  0  0  0  0  0  0  0  0  0  0
   23.2215  -20.7775  -15.2116 O   0  0  0  0  0  0  0  0  0  0  0  0
   20.7944  -20.8956  -12.4009 C   0  0  0  0  0  0  0  0  0  0  0  0
   20.7760  -21.3081  -11.0712 C   0  0  0  0  0  0  0  0  0  0  0  0
   28.7882  -20.6132  -11.7388 C   0  0  0  0  0  0  0  0  0  0  0  0
   27.5558  -21.1375  -12.4163 C   0  0  0  0  0  0  0  0  0  0  0  0
   26.4669  -20.1382  -12.6312 C   0  0  2  0  0  0  0  0  0  0  0  0
   25.9259  -19.6580  -11.2750 C   0  0  0  0  0  0  0  0  0  0  0  0
   25.2553  -20.6736  -13.3700 C   0  0  2  0  0  0  0  0  0  0  0  0
   24.1707  -19.7124  -13.4507 N   0  0  0  0  0  0  0  0  0  0  0  0
   24.7660  -21.8352  -12.6046 C   0  0  0  0  0  0  0  0  0  0  0  0
   25.4544  -23.0280  -12.6259 O   0  0  0  0  0  0  0  0  0  0  0  0
   23.7203  -21.7539  -11.9272 O   0  0  0  0  0  0  0  0  0  0  0  0
  2  1  1  1
  3  2  1  0
  3  4  1  0
  4  9  1  0
  5  4  2  0
  5  6  1  0
  6  7  2  0
  7  8  1  0
  9  8  2  0
 10 11  2  0
 10  2  1  0
 12 13  1  0
 13 14  2  0
 14 15  1  0
 16 15  2  0
 16 17  1  0
 18 17  1  6
 18 19  1  0
 19 10  1  0
 20 29  1  0
 20 18  1  0
 21 20  2  0
 22 16  1  0
 23 13  1  0
 23 22  2  0
 24 25  1  0
 25 26  1  0
 26 27  1  1
 26 28  1  0
 28 29  1  1
 28 30  1  0
 30 31  1  0
 32 30  2  0
M  END
$$$$
