FYI.pdb
     RDKit          3D

 32 33  0  0  1  0  0  0  0  0999 V2000
   28.7270  -23.2443  -17.3736 N   0  0  0  0  0  0  0  0  0  0  0  0
   28.5406  -21.8618  -16.9003 C   0  0  1  0  0  0  0  0  0  0  0  0
   28.0526  -21.0510  -18.0545 C   0  0  0  0  0  0  0  0  0  0  0  0
   27.7337  -19.6523  -17.7412 C   0  0  0  0  0  0  0  0  0  0  0  0
   28.7015  -18.6941  -17.9100 C   0  0  0  0  0  0  0  0  0  0  0  0
   28.4622  -17.3602  -17.6308 C   0  0  0  0  0  0  0  0  0  0  0  0
   27.2151  -17.0252  -17.1760 C   0  0  0  0  0  0  0  0  0  0  0  0
   26.2331  -17.9688  -17.0004 C   0  0  0  0  0  0  0  0  0  0  0  0
   26.4965  -19.2854  -17.2848 C   0  0  0  0  0  0  0  0  0  0  0  0
   27.6520  -21.9231  -15.7407 C   0  0  0  0  0  0  0  0  0  0  0  0
   26.6549  -22.7214  -15.6848 O   0  0  0  0  0  0  0  0  0  0  0  0
   24.5234  -20.3560   -7.5093 O   0  0  0  0  0  0  0  0  0  0  0  0
   25.3017  -20.4148   -8.6815 C   0  0  0  0  0  0  0  0  0  0  0  0
   25.9469  -21.5821   -9.0323 C   0  0  0  0  0  0  0  0  0  0  0  0
   26.7045  -21.6339  -10.1763 C   0  0  0  0  0  0  0  0  0  0  0  0
   26.8620  -20.5540  -11.0194 C   0  0  0  0  0  0  0  0  0  0  0  0
   27.6785  -20.6218  -12.2473 C   0  0  0  0  0  0  0  0  0  0  0  0
   26.9001  -21.1286  -13.4482 C   0  0  2  0  0  0  0  0  0  0  0  0
   27.8173  -21.1016  -14.5705 N   0  0  0  0  0  0  0  0  0  0  0  0
   25.6371  -20.4461  -13.6843 C   0  0  0  0  0  0  0  0  0  0  0  0
   25.6125  -19.2822  -14.2056 O   0  0  0  0  0  0  0  0  0  0  0  0
   26.2129  -19.3987  -10.6560 C   0  0  0  0  0  0  0  0  0  0  0  0
   25.4382  -19.3175   -9.5019 C   0  0  0  0  0  0  0  0  0  0  0  0
   20.9151  -19.7941  -16.8200 C   0  0  0  0  0  0  0  0  0  0  0  0
   21.3477  -19.7469  -15.3835 C   0  0  0  0  0  0  0  0  0  0  0  0
   22.6635  -20.3886  -15.0879 C   0  0  2  0  0  0  0  0  0  0  0  0
   22.5767  -21.9002  -15.3525 C   0  0  0  0  0  0  0  0  0  0  0  0
   23.1150  -20.2678  -13.6450 C   0  0  2  0  0  0  0  0  0  0  0  0
   24.3539  -20.9753  -13.3779 N   0  0  0  0  0  0  0  0  0  0  0  0
   22.0626  -20.8818  -12.8143 C   0  0  0  0  0  0  0  0  0  0  0  0
   20.8298  -20.2804  -12.6888 O   0  0  0  0  0  0  0  0  0  0  0  0
   22.2746  -21.9550  -12.2124 O   0  0  0  0  0  0  0  0  0  0  0  0
  2  1  1  6
  3  2  1  0
  3  4  1  0
  4  9  1  0
  5  4  2  0
  5  6  1  0
  6  7  2  0
  7  8  1  0
  9  8  2  0
 10 11  2  0
 10  2  1  0
 12 13  1  0
 13 14  2  0
 14 15  1  0
 16 15  2  0
 16 17  1  0
 18 17  1  1
 18 19  1  0
 19 10  1  0
 20 29  1  0
 20 18  1  0
 21 20  2  0
 22 16  1  0
 23 13  1  0
 23 22  2  0
 24 25  1  0
 25 26  1  0
 26 27  1  1
 26 28  1  0
 28 29  1  6
 28 30  1  0
 30 31  1  0
 32 30  2  0
M  END
$$$$
