FYI.pdb
     RDKit          3D

 32 33  0  0  1  0  0  0  0  0999 V2000
   25.5831  -15.1670  -18.1813 N   0  0  0  0  0  0  0  0  0  0  0  0
   25.5924  -13.6977  -18.0761 C   0  0  1  0  0  0  0  0  0  0  0  0
   25.4688  -13.1450  -19.4570 C   0  0  0  0  0  0  0  0  0  0  0  0
   26.5421  -13.5337  -20.3808 C   0  0  0  0  0  0  0  0  0  0  0  0
   27.6631  -12.7470  -20.4688 C   0  0  0  0  0  0  0  0  0  0  0  0
   28.7072  -13.0596  -21.3211 C   0  0  0  0  0  0  0  0  0  0  0  0
   28.5830  -14.1915  -22.0813 C   0  0  0  0  0  0  0  0  0  0  0  0
   27.4697  -14.9919  -22.0079 C   0  0  0  0  0  0  0  0  0  0  0  0
   26.4480  -14.6591  -21.1540 C   0  0  0  0  0  0  0  0  0  0  0  0
   24.5292  -13.3292  -17.1423 C   0  0  0  0  0  0  0  0  0  0  0  0
   23.6774  -14.1774  -16.7070 O   0  0  0  0  0  0  0  0  0  0  0  0
   21.0824  -17.6329  -14.8132 O   0  0  0  0  0  0  0  0  0  0  0  0
   21.7153  -16.3783  -14.7196 C   0  0  0  0  0  0  0  0  0  0  0  0
   20.9943  -15.2178  -14.9071 C   0  0  0  0  0  0  0  0  0  0  0  0
   21.6165  -13.9973  -14.8147 C   0  0  0  0  0  0  0  0  0  0  0  0
   22.9604  -13.8612  -14.5370 C   0  0  0  0  0  0  0  0  0  0  0  0
   23.6183  -12.5434  -14.4392 C   0  0  0  0  0  0  0  0  0  0  0  0
   23.3471  -11.6560  -15.6408 C   0  0  2  0  0  0  0  0  0  0  0  0
   24.3478  -11.9953  -16.6333 N   0  0  0  0  0  0  0  0  0  0  0  0
   23.2550  -10.2360  -15.3375 C   0  0  0  0  0  0  0  0  0  0  0  0
   24.2960   -9.5663  -15.0294 O   0  0  0  0  0  0  0  0  0  0  0  0
   23.6647  -15.0267  -14.3529 C   0  0  0  0  0  0  0  0  0  0  0  0
   23.0599  -16.2778  -14.4407 C   0  0  0  0  0  0  0  0  0  0  0  0
   19.9118   -6.7175  -18.0769 C   0  0  0  0  0  0  0  0  0  0  0  0
   20.3462   -7.5938  -16.9383 C   0  0  0  0  0  0  0  0  0  0  0  0
   21.6490   -7.2272  -16.3068 C   0  0  2  0  0  0  0  0  0  0  0  0
   22.7955   -7.4671  -17.3020 C   0  0  0  0  0  0  0  0  0  0  0  0
   22.0116   -8.0487  -15.0845 C   0  0  2  0  0  0  0  0  0  0  0  0
   22.0548   -9.4745  -15.3527 N   0  0  0  0  0  0  0  0  0  0  0  0
   20.9549   -7.8150  -14.0828 C   0  0  0  0  0  0  0  0  0  0  0  0
   20.8167   -6.5814  -13.4858 O   0  0  0  0  0  0  0  0  0  0  0  0
   20.1712   -8.7323  -13.7613 O   0  0  0  0  0  0  0  0  0  0  0  0
  2  1  1  6
  3  2  1  0
  3  4  1  0
  4  9  1  0
  5  4  2  0
  5  6  1  0
  6  7  2  0
  7  8  1  0
  9  8  2  0
 10 11  2  0
 10  2  1  0
 12 13  1  0
 13 14  2  0
 14 15  1  0
 16 15  2  0
 16 17  1  0
 18 17  1  1
 18 19  1  0
 19 10  1  0
 20 29  1  0
 20 18  1  0
 21 20  2  0
 22 16  1  0
 23 13  1  0
 23 22  2  0
 24 25  1  0
 25 26  1  0
 26 27  1  6
 26 28  1  0
 28 29  1  6
 28 30  1  0
 30 31  1  0
 32 30  2  0
M  END
$$$$
