FYI.pdb
     RDKit          3D

 32 33  0  0  1  0  0  0  0  0999 V2000
   17.7219  -10.8555  -19.5532 N   0  0  0  0  0  0  0  0  0  0  0  0
   17.2032  -10.0341  -18.4460 C   0  0  1  0  0  0  0  0  0  0  0  0
   16.8498  -10.9558  -17.3265 C   0  0  0  0  0  0  0  0  0  0  0  0
   15.7334  -11.8691  -17.6018 C   0  0  0  0  0  0  0  0  0  0  0  0
   14.4567  -11.3676  -17.6428 C   0  0  0  0  0  0  0  0  0  0  0  0
   13.3639  -12.1776  -17.8960 C   0  0  0  0  0  0  0  0  0  0  0  0
   13.6016  -13.5094  -18.1064 C   0  0  0  0  0  0  0  0  0  0  0  0
   14.8713  -14.0307  -18.0697 C   0  0  0  0  0  0  0  0  0  0  0  0
   15.9383  -13.2053  -17.8163 C   0  0  0  0  0  0  0  0  0  0  0  0
   18.2204   -9.0267  -18.1481 C   0  0  0  0  0  0  0  0  0  0  0  0
   19.4669   -9.2361  -18.3404 O   0  0  0  0  0  0  0  0  0  0  0  0
   21.8617   -1.1058  -16.2477 O   0  0  0  0  0  0  0  0  0  0  0  0
   20.9676   -2.1647  -16.4976 C   0  0  0  0  0  0  0  0  0  0  0  0
   21.0518   -2.8865  -17.6697 C   0  0  0  0  0  0  0  0  0  0  0  0
   20.1775   -3.9180  -17.9082 C   0  0  0  0  0  0  0  0  0  0  0  0
   19.1910   -4.2844  -17.0170 C   0  0  0  0  0  0  0  0  0  0  0  0
   18.2570   -5.3960  -17.2840 C   0  0  0  0  0  0  0  0  0  0  0  0
   18.9333   -6.7550  -17.2633 C   0  0  2  0  0  0  0  0  0  0  0  0
   17.9151   -7.7235  -17.6192 N   0  0  0  0  0  0  0  0  0  0  0  0
   19.6502   -7.0570  -16.0338 C   0  0  0  0  0  0  0  0  0  0  0  0
   20.5607   -6.2754  -15.6012 O   0  0  0  0  0  0  0  0  0  0  0  0
   19.1202   -3.5556  -15.8542 C   0  0  0  0  0  0  0  0  0  0  0  0
   19.9934   -2.5047  -15.5859 C   0  0  0  0  0  0  0  0  0  0  0  0
   23.1352  -10.4662  -13.1736 C   0  0  0  0  0  0  0  0  0  0  0  0
   22.4504   -9.1333  -13.0870 C   0  0  0  0  0  0  0  0  0  0  0  0
   21.6534   -8.7417  -14.2877 C   0  0  2  0  0  0  0  0  0  0  0  0
   22.1921   -7.4218  -14.8623 C   0  0  0  0  0  0  0  0  0  0  0  0
   20.1849   -8.4802  -14.0131 C   0  0  2  0  0  0  0  0  0  0  0  0
   19.4248   -8.1985  -15.2171 N   0  0  0  0  0  0  0  0  0  0  0  0
   20.1166   -7.2848  -13.1524 C   0  0  0  0  0  0  0  0  0  0  0  0
   20.5632   -7.3331  -11.8503 O   0  0  0  0  0  0  0  0  0  0  0  0
   19.6523   -6.2122  -13.5917 O   0  0  0  0  0  0  0  0  0  0  0  0
  2  1  1  6
  3  2  1  0
  3  4  1  0
  4  9  1  0
  5  4  2  0
  5  6  1  0
  6  7  2  0
  7  8  1  0
  9  8  2  0
 10 11  2  0
 10  2  1  0
 12 13  1  0
 13 14  2  0
 14 15  1  0
 16 15  2  0
 16 17  1  0
 18 17  1  1
 18 19  1  0
 19 10  1  0
 20 29  1  0
 20 18  1  0
 21 20  2  0
 22 16  1  0
 23 13  1  0
 23 22  2  0
 24 25  1  0
 25 26  1  0
 26 27  1  1
 26 28  1  0
 28 29  1  6
 28 30  1  0
 30 31  1  0
 32 30  2  0
M  END
$$$$
