FYI.pdb
     RDKit          3D

 32 33  0  0  1  0  0  0  0  0999 V2000
   27.5539  -20.1757  -19.0303 N   0  0  0  0  0  0  0  0  0  0  0  0
   28.3517  -20.4792  -17.8298 C   0  0  1  0  0  0  0  0  0  0  0  0
   29.7222  -19.9297  -18.0472 C   0  0  0  0  0  0  0  0  0  0  0  0
   30.5311  -20.6500  -19.0388 C   0  0  0  0  0  0  0  0  0  0  0  0
   30.9515  -19.9870  -20.1643 C   0  0  0  0  0  0  0  0  0  0  0  0
   31.7146  -20.6114  -21.1350 C   0  0  0  0  0  0  0  0  0  0  0  0
   32.0392  -21.9259  -20.9327 C   0  0  0  0  0  0  0  0  0  0  0  0
   31.6284  -22.6071  -19.8135 C   0  0  0  0  0  0  0  0  0  0  0  0
   30.8722  -21.9641  -18.8656 C   0  0  0  0  0  0  0  0  0  0  0  0
   27.6211  -19.9405  -16.6835 C   0  0  0  0  0  0  0  0  0  0  0  0
   27.8753  -18.7885  -16.1908 O   0  0  0  0  0  0  0  0  0  0  0  0
   23.5295  -15.5946  -18.9166 O   0  0  0  0  0  0  0  0  0  0  0  0
   23.7385  -16.6818  -18.0463 C   0  0  0  0  0  0  0  0  0  0  0  0
   23.8597  -16.4746  -16.6882 C   0  0  0  0  0  0  0  0  0  0  0  0
   24.0634  -17.5383  -15.8442 C   0  0  0  0  0  0  0  0  0  0  0  0
   24.1565  -18.8401  -16.2894 C   0  0  0  0  0  0  0  0  0  0  0  0
   24.3747  -19.9760  -15.3722 C   0  0  0  0  0  0  0  0  0  0  0  0
   25.8144  -20.0906  -14.9044 C   0  0  2  0  0  0  0  0  0  0  0  0
   26.5615  -20.6484  -16.0145 N   0  0  0  0  0  0  0  0  0  0  0  0
   25.9882  -20.7969  -13.6444 C   0  0  0  0  0  0  0  0  0  0  0  0
   26.1010  -22.0672  -13.6192 O   0  0  0  0  0  0  0  0  0  0  0  0
   24.0336  -19.0298  -17.6448 C   0  0  0  0  0  0  0  0  0  0  0  0
   23.8266  -17.9701  -18.5240 C   0  0  0  0  0  0  0  0  0  0  0  0
   27.4638  -20.0746   -7.5630 C   0  0  0  0  0  0  0  0  0  0  0  0
   26.8896  -20.8632   -8.7037 C   0  0  0  0  0  0  0  0  0  0  0  0
   26.7685  -20.1263   -9.9970 C   0  0  2  0  0  0  0  0  0  0  0  0
   25.8496  -18.9073   -9.8175 C   0  0  0  0  0  0  0  0  0  0  0  0
   26.1436  -20.9266  -11.1237 C   0  0  2  0  0  0  0  0  0  0  0  0
   26.0511  -20.1803  -12.3651 N   0  0  0  0  0  0  0  0  0  0  0  0
   24.7711  -21.2613  -10.7010 C   0  0  0  0  0  0  0  0  0  0  0  0
   24.5420  -22.2972   -9.8226 O   0  0  0  0  0  0  0  0  0  0  0  0
   23.7973  -20.6108  -11.1341 O   0  0  0  0  0  0  0  0  0  0  0  0
  2  1  1  6
  3  2  1  0
  3  4  1  0
  4  9  1  0
  5  4  2  0
  5  6  1  0
  6  7  2  0
  7  8  1  0
  9  8  2  0
 10 11  2  0
 10  2  1  0
 12 13  1  0
 13 14  2  0
 14 15  1  0
 16 15  2  0
 16 17  1  0
 18 17  1  6
 18 19  1  0
 19 10  1  0
 20 29  1  0
 20 18  1  0
 21 20  2  0
 22 16  1  0
 23 13  1  0
 23 22  2  0
 24 25  1  0
 25 26  1  0
 26 27  1  1
 26 28  1  0
 28 29  1  6
 28 30  1  0
 30 31  1  0
 32 30  2  0
M  END
$$$$
