IQY.pdb
     RDKit          3D

 30 30  0  0  1  0  0  0  0  0999 V2000
    7.3069  -12.5011   17.9477 C   0  0  0  0  0  0  0  0  0  0  0  0
    8.3652  -13.4143   18.4803 C   0  0  0  0  0  0  0  0  0  0  0  0
    7.9796  -14.0100   19.8444 C   0  0  2  0  0  0  0  0  0  0  0  0
    7.6833  -12.9315   20.8276 C   0  0  0  0  0  0  0  0  0  0  0  0
    9.1220  -14.9070   20.2334 C   0  0  2  0  0  0  0  0  0  0  0  0
    9.2491  -15.9256   19.1886 N   0  0  0  0  0  0  0  0  0  0  0  0
    8.9531  -15.6207   21.5029 C   0  0  0  0  0  0  0  0  0  0  0  0
    8.6742  -15.0402   22.5969 O   0  0  0  0  0  0  0  0  0  0  0  0
   10.2743  -21.5009   20.5738 N   0  0  0  0  0  0  0  0  0  0  0  0
    8.9944  -21.0032   20.9032 C   0  0  0  0  0  0  0  0  0  0  0  0
    8.0359  -21.8197   21.0053 O   0  0  0  0  0  0  0  0  0  0  0  0
    8.7460  -19.5418   21.1329 C   0  0  0  0  0  0  0  0  0  0  0  0
    9.1327  -19.2054   22.5528 C   0  0  0  0  0  0  0  0  0  0  0  0
    8.9790  -17.7445   22.8588 C   0  0  2  0  0  0  0  0  0  0  0  0
    9.0891  -17.0295   21.6021 N   0  0  0  0  0  0  0  0  0  0  0  0
    9.8688  -17.2438   23.8906 C   0  0  0  0  0  0  0  0  0  0  0  0
   11.0817  -17.0940   23.6445 O   0  0  0  0  0  0  0  0  0  0  0  0
    5.6278  -12.1661   27.1502 O   0  0  0  0  0  0  0  0  0  0  0  0
    6.8130  -12.8793   26.9187 C   0  0  0  0  0  0  0  0  0  0  0  0
    7.8070  -12.8789   27.8676 C   0  0  0  0  0  0  0  0  0  0  0  0
    8.9882  -13.5816   27.6522 C   0  0  0  0  0  0  0  0  0  0  0  0
    9.2012  -14.2938   26.4948 C   0  0  0  0  0  0  0  0  0  0  0  0
   10.4543  -15.0325   26.2662 C   0  0  0  0  0  0  0  0  0  0  0  0
   10.3265  -16.5224   26.2641 C   0  0  2  0  0  0  0  0  0  0  0  0
    9.4039  -16.9156   25.1811 N   0  0  0  0  0  0  0  0  0  0  0  0
    9.8046  -16.9789   27.5689 C   0  0  0  0  0  0  0  0  0  0  0  0
    8.6789  -17.5756   27.6608 O   0  0  0  0  0  0  0  0  0  0  0  0
    8.1967  -14.2850   25.5537 C   0  0  0  0  0  0  0  0  0  0  0  0
    7.0114  -13.5870   25.7565 C   0  0  0  0  0  0  0  0  0  0  0  0
   10.5075  -16.7817   28.7268 O   0  0  0  0  0  0  0  0  0  0  0  0
  1  2  1  0
  2  3  1  0
  3  4  1  1
  5  3  1  0
  5  6  1  6
  7  8  2  0
  7  5  1  0
 10  9  1  0
 10 12  1  0
 11 10  2  0
 13 12  1  0
 14 13  1  6
 14 15  1  0
 15  7  1  0
 16 25  1  0
 16 14  1  0
 17 16  2  0
 19 18  1  0
 20 19  2  0
 21 20  1  0
 22 28  1  0
 22 21  2  0
 24 23  1  1
 23 22  1  0
 24 25  1  0
 24 26  1  0
 26 30  1  0
 27 26  2  0
 28 29  2  0
 29 19  1  0
M  END
$$$$
