IQY.pdb
     RDKit          3D

 30 30  0  0  1  0  0  0  0  0999 V2000
    8.8357  -12.9758   19.3769 C   0  0  0  0  0  0  0  0  0  0  0  0
    8.8262  -13.5740   20.7479 C   0  0  0  0  0  0  0  0  0  0  0  0
    7.5496  -14.3892   21.0123 C   0  0  2  0  0  0  0  0  0  0  0  0
    6.3371  -13.5401   20.8502 C   0  0  0  0  0  0  0  0  0  0  0  0
    7.7182  -14.9732   22.3877 C   0  0  2  0  0  0  0  0  0  0  0  0
    7.9588  -13.8578   23.3061 N   0  0  0  0  0  0  0  0  0  0  0  0
    8.8446  -15.8990   22.5408 C   0  0  0  0  0  0  0  0  0  0  0  0
    8.8553  -17.0703   22.0514 O   0  0  0  0  0  0  0  0  0  0  0  0
   14.4974  -16.4815   20.7316 N   0  0  0  0  0  0  0  0  0  0  0  0
   13.2750  -15.8073   20.5182 C   0  0  0  0  0  0  0  0  0  0  0  0
   13.2470  -14.8535   19.6902 O   0  0  0  0  0  0  0  0  0  0  0  0
   12.0194  -16.1914   21.2436 C   0  0  0  0  0  0  0  0  0  0  0  0
   12.2715  -16.0901   22.7285 C   0  0  0  0  0  0  0  0  0  0  0  0
   11.0783  -16.4969   23.5423 C   0  0  2  0  0  0  0  0  0  0  0  0
   10.0197  -15.5485   23.2545 N   0  0  0  0  0  0  0  0  0  0  0  0
   11.3389  -16.6619   24.9607 C   0  0  0  0  0  0  0  0  0  0  0  0
   12.2483  -17.4259   25.3395 O   0  0  0  0  0  0  0  0  0  0  0  0
    5.4225  -12.8279   26.3170 O   0  0  0  0  0  0  0  0  0  0  0  0
    6.6688  -13.3133   26.7391 C   0  0  0  0  0  0  0  0  0  0  0  0
    6.7327  -14.4349   27.5305 C   0  0  0  0  0  0  0  0  0  0  0  0
    7.9616  -14.9283   27.9571 C   0  0  0  0  0  0  0  0  0  0  0  0
    9.1433  -14.3178   27.6062 C   0  0  0  0  0  0  0  0  0  0  0  0
   10.4427  -14.8381   28.0631 C   0  0  0  0  0  0  0  0  0  0  0  0
   10.9094  -16.0827   27.3780 C   0  0  2  0  0  0  0  0  0  0  0  0
   10.5893  -15.9789   25.9409 N   0  0  0  0  0  0  0  0  0  0  0  0
   10.2344  -17.2579   27.9669 C   0  0  0  0  0  0  0  0  0  0  0  0
    9.4296  -17.9736   27.2799 O   0  0  0  0  0  0  0  0  0  0  0  0
    9.0635  -13.1955   26.8131 C   0  0  0  0  0  0  0  0  0  0  0  0
    7.8419  -12.6922   26.3799 C   0  0  0  0  0  0  0  0  0  0  0  0
   10.4469  -17.6247   29.2684 O   0  0  0  0  0  0  0  0  0  0  0  0
  1  2  1  0
  2  3  1  0
  3  4  1  1
  5  3  1  0
  5  6  1  1
  7  8  2  0
  7  5  1  0
 10  9  1  0
 10 12  1  0
 11 10  2  0
 13 12  1  0
 14 13  1  6
 14 15  1  0
 15  7  1  0
 16 25  1  0
 16 14  1  0
 17 16  2  0
 19 18  1  0
 20 19  2  0
 21 20  1  0
 22 28  1  0
 22 21  2  0
 24 23  1  1
 23 22  1  0
 24 25  1  0
 24 26  1  0
 26 30  1  0
 27 26  2  0
 28 29  2  0
 29 19  1  0
M  END
$$$$
