IQY.pdb
     RDKit          3D

 30 30  0  0  1  0  0  0  0  0999 V2000
    6.1263  -12.8921   25.7809 C   0  0  0  0  0  0  0  0  0  0  0  0
    6.2812  -13.8108   24.6107 C   0  0  0  0  0  0  0  0  0  0  0  0
    7.4130  -14.8297   24.8234 C   0  0  2  0  0  0  0  0  0  0  0  0
    8.6996  -14.1378   25.1123 C   0  0  0  0  0  0  0  0  0  0  0  0
    7.4314  -15.6809   23.5840 C   0  0  2  0  0  0  0  0  0  0  0  0
    6.0462  -16.0618   23.2986 N   0  0  0  0  0  0  0  0  0  0  0  0
    8.1998  -16.9250   23.6906 C   0  0  0  0  0  0  0  0  0  0  0  0
    7.8345  -18.0175   23.1570 O   0  0  0  0  0  0  0  0  0  0  0  0
   11.3471  -17.4262   19.8679 N   0  0  0  0  0  0  0  0  0  0  0  0
   12.4604  -17.4655   20.7358 C   0  0  0  0  0  0  0  0  0  0  0  0
   13.5663  -17.8751   20.2827 O   0  0  0  0  0  0  0  0  0  0  0  0
   12.3644  -17.0368   22.1701 C   0  0  0  0  0  0  0  0  0  0  0  0
   10.9059  -16.9528   22.5505 C   0  0  0  0  0  0  0  0  0  0  0  0
   10.6155  -17.6208   23.8624 C   0  0  2  0  0  0  0  0  0  0  0  0
    9.4232  -16.9991   24.4052 N   0  0  0  0  0  0  0  0  0  0  0  0
   11.7309  -17.6449   24.7910 C   0  0  0  0  0  0  0  0  0  0  0  0
   12.8009  -18.1931   24.4613 O   0  0  0  0  0  0  0  0  0  0  0  0
    9.3487  -12.0042   28.1996 O   0  0  0  0  0  0  0  0  0  0  0  0
    9.8382  -13.3171   28.2603 C   0  0  0  0  0  0  0  0  0  0  0  0
   11.1266  -13.5472   28.6795 C   0  0  0  0  0  0  0  0  0  0  0  0
   11.6262  -14.8440   28.7448 C   0  0  0  0  0  0  0  0  0  0  0  0
   10.8573  -15.9299   28.3960 C   0  0  0  0  0  0  0  0  0  0  0  0
   11.3896  -17.3013   28.4606 C   0  0  0  0  0  0  0  0  0  0  0  0
   12.1850  -17.7348   27.2708 C   0  0  2  0  0  0  0  0  0  0  0  0
   11.6468  -17.0617   26.0724 N   0  0  0  0  0  0  0  0  0  0  0  0
   12.0911  -19.2014   27.1169 C   0  0  0  0  0  0  0  0  0  0  0  0
   11.5805  -19.7270   26.0705 O   0  0  0  0  0  0  0  0  0  0  0  0
    9.5690  -15.6839   27.9783 C   0  0  0  0  0  0  0  0  0  0  0  0
    9.0573  -14.3929   27.9085 C   0  0  0  0  0  0  0  0  0  0  0  0
   12.5487  -20.0512   28.0875 O   0  0  0  0  0  0  0  0  0  0  0  0
  1  2  1  0
  2  3  1  0
  3  4  1  6
  5  3  1  0
  5  6  1  1
  7  8  2  0
  7  5  1  0
 10  9  1  0
 10 12  1  0
 11 10  2  0
 13 12  1  0
 14 13  1  6
 14 15  1  0
 15  7  1  0
 16 25  1  0
 16 14  1  0
 17 16  2  0
 19 18  1  0
 20 19  2  0
 21 20  1  0
 22 28  1  0
 22 21  2  0
 24 23  1  1
 23 22  1  0
 24 25  1  0
 24 26  1  0
 26 30  1  0
 27 26  2  0
 28 29  2  0
 29 19  1  0
M  END
$$$$
