IQY.pdb
     RDKit          3D

 30 30  0  0  1  0  0  0  0  0999 V2000
    8.6890  -12.0454   18.6438 C   0  0  0  0  0  0  0  0  0  0  0  0
    7.6127  -13.0825   18.5841 C   0  0  0  0  0  0  0  0  0  0  0  0
    7.7425  -14.1138   19.7172 C   0  0  2  0  0  0  0  0  0  0  0  0
    8.1338  -13.4517   20.9924 C   0  0  0  0  0  0  0  0  0  0  0  0
    8.7261  -15.1383   19.2233 C   0  0  2  0  0  0  0  0  0  0  0  0
    8.1410  -15.7641   18.0353 N   0  0  0  0  0  0  0  0  0  0  0  0
    9.0301  -16.2194   20.1658 C   0  0  0  0  0  0  0  0  0  0  0  0
    8.3227  -17.2678   20.2753 O   0  0  0  0  0  0  0  0  0  0  0  0
   13.4786  -19.8320   21.4680 N   0  0  0  0  0  0  0  0  0  0  0  0
   13.5232  -18.6620   20.6784 C   0  0  0  0  0  0  0  0  0  0  0  0
   14.5444  -18.4528   19.9647 O   0  0  0  0  0  0  0  0  0  0  0  0
   12.3985  -17.6695   20.6657 C   0  0  0  0  0  0  0  0  0  0  0  0
   11.2503  -18.2333   21.4674 C   0  0  0  0  0  0  0  0  0  0  0  0
   10.3885  -17.1614   22.0676 C   0  0  2  0  0  0  0  0  0  0  0  0
   10.1517  -16.1728   21.0335 N   0  0  0  0  0  0  0  0  0  0  0  0
   10.8963  -16.5964   23.3044 C   0  0  0  0  0  0  0  0  0  0  0  0
   11.7924  -15.7305   23.2690 O   0  0  0  0  0  0  0  0  0  0  0  0
    5.9138  -11.4745   27.9392 O   0  0  0  0  0  0  0  0  0  0  0  0
    6.5890  -12.4290   27.1646 C   0  0  0  0  0  0  0  0  0  0  0  0
    7.9163  -12.2459   26.8591 C   0  0  0  0  0  0  0  0  0  0  0  0
    8.5995  -13.1839   26.0917 C   0  0  0  0  0  0  0  0  0  0  0  0
    7.9779  -14.3153   25.6165 C   0  0  0  0  0  0  0  0  0  0  0  0
    8.7011  -15.3043   24.7998 C   0  0  0  0  0  0  0  0  0  0  0  0
    9.7979  -16.0361   25.5052 C   0  0  2  0  0  0  0  0  0  0  0  0
   10.4052  -16.9976   24.5642 N   0  0  0  0  0  0  0  0  0  0  0  0
    9.2476  -16.7482   26.6771 C   0  0  0  0  0  0  0  0  0  0  0  0
    8.4623  -17.7461   26.5380 O   0  0  0  0  0  0  0  0  0  0  0  0
    6.6485  -14.4851   25.9307 C   0  0  0  0  0  0  0  0  0  0  0  0
    5.9541  -13.5554   26.6967 C   0  0  0  0  0  0  0  0  0  0  0  0
    9.5595  -16.3674   27.9544 O   0  0  0  0  0  0  0  0  0  0  0  0
  1  2  1  0
  2  3  1  0
  3  4  1  1
  5  3  1  0
  5  6  1  6
  7  8  2  0
  7  5  1  0
 10  9  1  0
 10 12  1  0
 11 10  2  0
 13 12  1  0
 14 13  1  6
 14 15  1  0
 15  7  1  0
 16 25  1  0
 16 14  1  0
 17 16  2  0
 19 18  1  0
 20 19  2  0
 21 20  1  0
 22 28  1  0
 22 21  2  0
 24 23  1  6
 23 22  1  0
 24 25  1  0
 24 26  1  0
 26 30  1  0
 27 26  2  0
 28 29  2  0
 29 19  1  0
M  END
$$$$
