IQY.pdb
     RDKit          3D

 30 30  0  0  1  0  0  0  0  0999 V2000
    6.5672  -11.8612   26.6370 C   0  0  0  0  0  0  0  0  0  0  0  0
    6.4082  -12.9092   25.5816 C   0  0  0  0  0  0  0  0  0  0  0  0
    7.5793  -13.9056   25.5776 C   0  0  2  0  0  0  0  0  0  0  0  0
    8.8820  -13.1900   25.4857 C   0  0  0  0  0  0  0  0  0  0  0  0
    7.3074  -14.8473   24.4372 C   0  0  2  0  0  0  0  0  0  0  0  0
    5.9853  -15.4348   24.6656 N   0  0  0  0  0  0  0  0  0  0  0  0
    8.2503  -15.9625   24.3080 C   0  0  0  0  0  0  0  0  0  0  0  0
    8.1723  -17.0245   24.9990 O   0  0  0  0  0  0  0  0  0  0  0  0
   13.6260  -16.9146   19.9270 N   0  0  0  0  0  0  0  0  0  0  0  0
   12.6329  -17.7786   20.4382 C   0  0  0  0  0  0  0  0  0  0  0  0
   12.0704  -18.5881   19.6480 O   0  0  0  0  0  0  0  0  0  0  0  0
   12.2319  -17.7600   21.8836 C   0  0  0  0  0  0  0  0  0  0  0  0
   11.1264  -16.7478   22.0631 C   0  0  0  0  0  0  0  0  0  0  0  0
   10.3150  -16.9975   23.3005 C   0  0  2  0  0  0  0  0  0  0  0  0
    9.3308  -15.9362   23.3889 N   0  0  0  0  0  0  0  0  0  0  0  0
   11.0945  -17.1678   24.5130 C   0  0  0  0  0  0  0  0  0  0  0  0
   11.8648  -16.2620   24.8877 O   0  0  0  0  0  0  0  0  0  0  0  0
   10.4204  -13.2077   29.8859 O   0  0  0  0  0  0  0  0  0  0  0  0
   10.5395  -14.4935   29.3386 C   0  0  0  0  0  0  0  0  0  0  0  0
   11.4599  -15.3733   29.8554 C   0  0  0  0  0  0  0  0  0  0  0  0
   11.5898  -16.6521   29.3230 C   0  0  0  0  0  0  0  0  0  0  0  0
   10.8104  -17.0767   28.2720 C   0  0  0  0  0  0  0  0  0  0  0  0
   10.9530  -18.4286   27.7062 C   0  0  0  0  0  0  0  0  0  0  0  0
   11.8363  -18.5282   26.5037 C   0  0  2  0  0  0  0  0  0  0  0  0
   11.0109  -18.3388   25.2947 N   0  0  0  0  0  0  0  0  0  0  0  0
   12.4879  -19.8540   26.4733 C   0  0  0  0  0  0  0  0  0  0  0  0
   13.3230  -20.2032   27.3748 O   0  0  0  0  0  0  0  0  0  0  0  0
    9.8930  -16.1845   27.7650 C   0  0  0  0  0  0  0  0  0  0  0  0
    9.7531  -14.9037   28.2878 C   0  0  0  0  0  0  0  0  0  0  0  0
   12.2206  -20.7577   25.4806 O   0  0  0  0  0  0  0  0  0  0  0  0
  1  2  1  0
  2  3  1  0
  3  4  1  6
  5  3  1  0
  5  6  1  1
  7  8  2  0
  7  5  1  0
 10  9  1  0
 10 12  1  0
 11 10  2  0
 13 12  1  0
 14 13  1  6
 14 15  1  0
 15  7  1  0
 16 25  1  0
 16 14  1  0
 17 16  2  0
 19 18  1  0
 20 19  2  0
 21 20  1  0
 22 28  1  0
 22 21  2  0
 24 23  1  1
 23 22  1  0
 24 25  1  0
 24 26  1  0
 26 30  1  0
 27 26  2  0
 28 29  2  0
 29 19  1  0
M  END
$$$$
