IQY.pdb
     RDKit          3D

 30 30  0  0  1  0  0  0  0  0999 V2000
    5.6388  -11.3090   26.0545 C   0  0  0  0  0  0  0  0  0  0  0  0
    5.4312  -12.6962   25.5348 C   0  0  0  0  0  0  0  0  0  0  0  0
    6.7568  -13.3696   25.1431 C   0  0  2  0  0  0  0  0  0  0  0  0
    7.5124  -12.5264   24.1757 C   0  0  0  0  0  0  0  0  0  0  0  0
    6.3829  -14.7291   24.6206 C   0  0  2  0  0  0  0  0  0  0  0  0
    5.6769  -15.4283   25.6966 N   0  0  0  0  0  0  0  0  0  0  0  0
    7.5102  -15.5810   24.2295 C   0  0  0  0  0  0  0  0  0  0  0  0
    8.1189  -16.3463   25.0391 O   0  0  0  0  0  0  0  0  0  0  0  0
    9.0232  -18.4124   18.3030 N   0  0  0  0  0  0  0  0  0  0  0  0
    9.9426  -17.5489   18.9380 C   0  0  0  0  0  0  0  0  0  0  0  0
   10.6590  -16.7951   18.2207 O   0  0  0  0  0  0  0  0  0  0  0  0
   10.0892  -17.5042   20.4302 C   0  0  0  0  0  0  0  0  0  0  0  0
    9.0062  -16.6163   20.9937 C   0  0  0  0  0  0  0  0  0  0  0  0
    9.0877  -16.4883   22.4865 C   0  0  2  0  0  0  0  0  0  0  0  0
    8.0079  -15.6138   22.9012 N   0  0  0  0  0  0  0  0  0  0  0  0
   10.3873  -16.0840   22.9908 C   0  0  0  0  0  0  0  0  0  0  0  0
   10.7993  -14.9254   22.7856 O   0  0  0  0  0  0  0  0  0  0  0  0
   11.6595  -15.1005   31.3574 O   0  0  0  0  0  0  0  0  0  0  0  0
   11.3736  -15.4325   30.0250 C   0  0  0  0  0  0  0  0  0  0  0  0
   11.2491  -14.4380   29.0849 C   0  0  0  0  0  0  0  0  0  0  0  0
   10.9656  -14.7518   27.7594 C   0  0  0  0  0  0  0  0  0  0  0  0
   10.8016  -16.0539   27.3473 C   0  0  0  0  0  0  0  0  0  0  0  0
   10.4962  -16.3838   25.9451 C   0  0  0  0  0  0  0  0  0  0  0  0
   11.6848  -16.6519   25.0783 C   0  0  2  0  0  0  0  0  0  0  0  0
   11.2137  -16.9677   23.7155 N   0  0  0  0  0  0  0  0  0  0  0  0
   12.4550  -17.7873   25.6271 C   0  0  0  0  0  0  0  0  0  0  0  0
   12.0377  -18.9891   25.5119 O   0  0  0  0  0  0  0  0  0  0  0  0
   10.9294  -17.0391   28.3001 C   0  0  0  0  0  0  0  0  0  0  0  0
   11.2126  -16.7391   29.6280 C   0  0  0  0  0  0  0  0  0  0  0  0
   13.6441  -17.5947   26.2772 O   0  0  0  0  0  0  0  0  0  0  0  0
  1  2  1  0
  2  3  1  0
  3  4  1  6
  5  3  1  0
  5  6  1  1
  7  8  2  0
  7  5  1  0
 10  9  1  0
 10 12  1  0
 11 10  2  0
 13 12  1  0
 14 13  1  6
 14 15  1  0
 15  7  1  0
 16 25  1  0
 16 14  1  0
 17 16  2  0
 19 18  1  0
 20 19  2  0
 21 20  1  0
 22 28  1  0
 22 21  2  0
 24 23  1  1
 23 22  1  0
 24 25  1  0
 24 26  1  0
 26 30  1  0
 27 26  2  0
 28 29  2  0
 29 19  1  0
M  END
$$$$
