IQY.pdb
     RDKit          3D

 30 30  0  0  1  0  0  0  0  0999 V2000
    6.0307  -11.0655   26.8239 C   0  0  0  0  0  0  0  0  0  0  0  0
    5.6119  -12.3796   26.2449 C   0  0  0  0  0  0  0  0  0  0  0  0
    6.8189  -13.2439   25.8442 C   0  0  2  0  0  0  0  0  0  0  0  0
    7.7582  -12.4735   24.9830 C   0  0  0  0  0  0  0  0  0  0  0  0
    6.2419  -14.4693   25.1909 C   0  0  2  0  0  0  0  0  0  0  0  0
    5.4037  -15.1387   26.1881 N   0  0  0  0  0  0  0  0  0  0  0  0
    7.2249  -15.4556   24.7322 C   0  0  0  0  0  0  0  0  0  0  0  0
    7.7269  -16.3428   25.4888 O   0  0  0  0  0  0  0  0  0  0  0  0
    8.6928  -17.8405   18.5607 N   0  0  0  0  0  0  0  0  0  0  0  0
    9.6632  -17.1583   19.3270 C   0  0  0  0  0  0  0  0  0  0  0  0
   10.4949  -16.4185   18.7295 O   0  0  0  0  0  0  0  0  0  0  0  0
    9.7312  -17.2886   20.8198 C   0  0  0  0  0  0  0  0  0  0  0  0
    8.7064  -16.3637   21.4306 C   0  0  0  0  0  0  0  0  0  0  0  0
    8.6797  -16.4459   22.9287 C   0  0  2  0  0  0  0  0  0  0  0  0
    7.6911  -15.4918   23.3926 N   0  0  0  0  0  0  0  0  0  0  0  0
    9.9743  -16.2963   23.5678 C   0  0  0  0  0  0  0  0  0  0  0  0
   10.4012  -15.1584   23.8456 O   0  0  0  0  0  0  0  0  0  0  0  0
   10.2583  -13.7272   29.7519 O   0  0  0  0  0  0  0  0  0  0  0  0
   10.6585  -14.7181   28.8436 C   0  0  0  0  0  0  0  0  0  0  0  0
    9.8558  -15.0268   27.7718 C   0  0  0  0  0  0  0  0  0  0  0  0
   10.2394  -16.0074   26.8625 C   0  0  0  0  0  0  0  0  0  0  0  0
   11.4223  -16.6954   27.0023 C   0  0  0  0  0  0  0  0  0  0  0  0
   11.8241  -17.7368   26.0419 C   0  0  0  0  0  0  0  0  0  0  0  0
   12.0425  -17.2636   24.6403 C   0  0  2  0  0  0  0  0  0  0  0  0
   10.7792  -17.4085   23.8908 N   0  0  0  0  0  0  0  0  0  0  0  0
   13.1074  -18.0666   24.0042 C   0  0  0  0  0  0  0  0  0  0  0  0
   12.8415  -18.9071   23.0797 O   0  0  0  0  0  0  0  0  0  0  0  0
   12.2159  -16.3752   28.0805 C   0  0  0  0  0  0  0  0  0  0  0  0
   11.8444  -15.3974   28.9965 C   0  0  0  0  0  0  0  0  0  0  0  0
   14.4176  -17.9392   24.3797 O   0  0  0  0  0  0  0  0  0  0  0  0
  1  2  1  0
  2  3  1  0
  3  4  1  6
  5  3  1  0
  5  6  1  1
  7  8  2  0
  7  5  1  0
 10  9  1  0
 10 12  1  0
 11 10  2  0
 13 12  1  0
 14 13  1  6
 14 15  1  0
 15  7  1  0
 16 25  1  0
 16 14  1  0
 17 16  2  0
 19 18  1  0
 20 19  2  0
 21 20  1  0
 22 28  1  0
 22 21  2  0
 24 23  1  1
 23 22  1  0
 24 25  1  0
 24 26  1  0
 26 30  1  0
 27 26  2  0
 28 29  2  0
 29 19  1  0
M  END
$$$$
