IQY.pdb
     RDKit          3D

 30 30  0  0  1  0  0  0  0  0999 V2000
    7.4945  -11.7317   19.3814 C   0  0  0  0  0  0  0  0  0  0  0  0
    7.8602  -13.1689   19.1851 C   0  0  0  0  0  0  0  0  0  0  0  0
    7.9924  -13.9179   20.5214 C   0  0  2  0  0  0  0  0  0  0  0  0
    9.0467  -13.2994   21.3720 C   0  0  0  0  0  0  0  0  0  0  0  0
    8.2519  -15.3538   20.1583 C   0  0  2  0  0  0  0  0  0  0  0  0
    7.0984  -15.8213   19.3861 N   0  0  0  0  0  0  0  0  0  0  0  0
    8.4013  -16.2693   21.2936 C   0  0  0  0  0  0  0  0  0  0  0  0
    7.4190  -16.7172   21.9615 O   0  0  0  0  0  0  0  0  0  0  0  0
    9.7151  -22.1034   21.7606 N   0  0  0  0  0  0  0  0  0  0  0  0
   10.4615  -20.9418   21.4642 C   0  0  0  0  0  0  0  0  0  0  0  0
   11.6772  -21.0692   21.1452 O   0  0  0  0  0  0  0  0  0  0  0  0
    9.8528  -19.5718   21.5181 C   0  0  0  0  0  0  0  0  0  0  0  0
   10.5909  -18.7578   22.5532 C   0  0  0  0  0  0  0  0  0  0  0  0
    9.8490  -17.5120   22.9396 C   0  0  2  0  0  0  0  0  0  0  0  0
    9.6700  -16.7282   21.7328 N   0  0  0  0  0  0  0  0  0  0  0  0
   10.4446  -16.7656   24.0327 C   0  0  0  0  0  0  0  0  0  0  0  0
   11.4590  -16.0701   23.8288 O   0  0  0  0  0  0  0  0  0  0  0  0
    5.1185  -12.8812   26.4185 O   0  0  0  0  0  0  0  0  0  0  0  0
    6.4373  -13.3583   26.4310 C   0  0  0  0  0  0  0  0  0  0  0  0
    7.4278  -12.6130   27.0241 C   0  0  0  0  0  0  0  0  0  0  0  0
    8.7406  -13.0731   27.0443 C   0  0  0  0  0  0  0  0  0  0  0  0
    9.0902  -14.2767   26.4775 C   0  0  0  0  0  0  0  0  0  0  0  0
   10.4812  -14.7595   26.4949 C   0  0  0  0  0  0  0  0  0  0  0  0
   10.6416  -16.2463   26.4934 C   0  0  2  0  0  0  0  0  0  0  0  0
    9.9093  -16.7990   25.3372 N   0  0  0  0  0  0  0  0  0  0  0  0
   10.1051  -16.8060   27.7513 C   0  0  0  0  0  0  0  0  0  0  0  0
    9.1083  -17.6049   27.7496 O   0  0  0  0  0  0  0  0  0  0  0  0
    8.0874  -15.0121   25.8873 C   0  0  0  0  0  0  0  0  0  0  0  0
    6.7715  -14.5639   25.8603 C   0  0  0  0  0  0  0  0  0  0  0  0
   10.6561  -16.4915   28.9642 O   0  0  0  0  0  0  0  0  0  0  0  0
  1  2  1  0
  2  3  1  0
  3  4  1  1
  5  3  1  0
  5  6  1  6
  7  8  2  0
  7  5  1  0
 10  9  1  0
 10 12  1  0
 11 10  2  0
 13 12  1  0
 14 13  1  6
 14 15  1  0
 15  7  1  0
 16 25  1  0
 16 14  1  0
 17 16  2  0
 19 18  1  0
 20 19  2  0
 21 20  1  0
 22 28  1  0
 22 21  2  0
 24 23  1  1
 23 22  1  0
 24 25  1  0
 24 26  1  0
 26 30  1  0
 27 26  2  0
 28 29  2  0
 29 19  1  0
M  END
$$$$
