IQY.pdb
     RDKit          3D

 30 30  0  0  1  0  0  0  0  0999 V2000
    7.3832  -11.8690   18.6682 C   0  0  0  0  0  0  0  0  0  0  0  0
    7.0779  -13.3258   18.8168 C   0  0  0  0  0  0  0  0  0  0  0  0
    7.2303  -13.8014   20.2711 C   0  0  2  0  0  0  0  0  0  0  0  0
    8.6102  -13.5452   20.7691 C   0  0  0  0  0  0  0  0  0  0  0  0
    6.8313  -15.2511   20.2684 C   0  0  2  0  0  0  0  0  0  0  0  0
    5.4787  -15.3278   19.7119 N   0  0  0  0  0  0  0  0  0  0  0  0
    6.7840  -15.8898   21.5872 C   0  0  0  0  0  0  0  0  0  0  0  0
    5.8790  -15.6512   22.4449 O   0  0  0  0  0  0  0  0  0  0  0  0
    6.1972  -20.3097   25.1175 N   0  0  0  0  0  0  0  0  0  0  0  0
    6.6146  -20.4311   23.7738 C   0  0  0  0  0  0  0  0  0  0  0  0
    6.4162  -21.5260   23.1756 O   0  0  0  0  0  0  0  0  0  0  0  0
    7.2819  -19.3026   23.0448 C   0  0  0  0  0  0  0  0  0  0  0  0
    7.3545  -18.1100   23.9674 C   0  0  0  0  0  0  0  0  0  0  0  0
    8.1628  -16.9856   23.3894 C   0  0  2  0  0  0  0  0  0  0  0  0
    7.7573  -16.8337   22.0055 N   0  0  0  0  0  0  0  0  0  0  0  0
    9.5978  -17.1188   23.5618 C   0  0  0  0  0  0  0  0  0  0  0  0
   10.1419  -18.2286   23.3981 O   0  0  0  0  0  0  0  0  0  0  0  0
   10.9176  -14.8531   31.6821 O   0  0  0  0  0  0  0  0  0  0  0  0
   10.6245  -14.9848   30.3169 C   0  0  0  0  0  0  0  0  0  0  0  0
   10.3651  -16.2275   29.7907 C   0  0  0  0  0  0  0  0  0  0  0  0
   10.0729  -16.3740   28.4384 C   0  0  0  0  0  0  0  0  0  0  0  0
   10.0339  -15.2925   27.5892 C   0  0  0  0  0  0  0  0  0  0  0  0
    9.7298  -15.4501   26.1571 C   0  0  0  0  0  0  0  0  0  0  0  0
   10.8932  -15.8206   25.2938 C   0  0  2  0  0  0  0  0  0  0  0  0
   10.4115  -16.0218   23.9132 N   0  0  0  0  0  0  0  0  0  0  0  0
   11.5152  -17.0607   25.8023 C   0  0  0  0  0  0  0  0  0  0  0  0
   12.6790  -17.0511   26.3290 O   0  0  0  0  0  0  0  0  0  0  0  0
   10.2957  -14.0543   28.1306 C   0  0  0  0  0  0  0  0  0  0  0  0
   10.5890  -13.8941   29.4803 C   0  0  0  0  0  0  0  0  0  0  0  0
   10.8682  -18.2648   25.7302 O   0  0  0  0  0  0  0  0  0  0  0  0
  1  2  1  0
  2  3  1  0
  3  4  1  6
  5  3  1  0
  5  6  1  1
  7  8  2  0
  7  5  1  0
 10  9  1  0
 10 12  1  0
 11 10  2  0
 13 12  1  0
 14 13  1  6
 14 15  1  0
 15  7  1  0
 16 25  1  0
 16 14  1  0
 17 16  2  0
 19 18  1  0
 20 19  2  0
 21 20  1  0
 22 28  1  0
 22 21  2  0
 24 23  1  1
 23 22  1  0
 24 25  1  0
 24 26  1  0
 26 30  1  0
 27 26  2  0
 28 29  2  0
 29 19  1  0
M  END
$$$$
