IQY.pdb
     RDKit          3D

 30 30  0  0  1  0  0  0  0  0999 V2000
    6.8070  -12.5391   19.1473 C   0  0  0  0  0  0  0  0  0  0  0  0
    6.7143  -13.6959   20.0911 C   0  0  0  0  0  0  0  0  0  0  0  0
    7.9779  -14.5713   20.0560 C   0  0  2  0  0  0  0  0  0  0  0  0
    8.2158  -15.1015   18.6849 C   0  0  0  0  0  0  0  0  0  0  0  0
    7.7675  -15.6305   21.1025 C   0  0  2  0  0  0  0  0  0  0  0  0
    7.1325  -14.9836   22.2529 N   0  0  0  0  0  0  0  0  0  0  0  0
    8.9890  -16.2723   21.5978 C   0  0  0  0  0  0  0  0  0  0  0  0
    9.3468  -17.4429   21.2612 O   0  0  0  0  0  0  0  0  0  0  0  0
   15.0992  -14.5390   21.7865 N   0  0  0  0  0  0  0  0  0  0  0  0
   14.5297  -15.8004   22.0671 C   0  0  0  0  0  0  0  0  0  0  0  0
   14.8748  -16.7901   21.3619 O   0  0  0  0  0  0  0  0  0  0  0  0
   13.5336  -15.9936   23.1719 C   0  0  0  0  0  0  0  0  0  0  0  0
   12.2210  -15.3796   22.7491 C   0  0  0  0  0  0  0  0  0  0  0  0
   11.0490  -16.2673   23.0491 C   0  0  2  0  0  0  0  0  0  0  0  0
    9.8718  -15.6233   22.4992 N   0  0  0  0  0  0  0  0  0  0  0  0
   10.9090  -16.6360   24.4460 C   0  0  0  0  0  0  0  0  0  0  0  0
   11.9190  -16.9344   25.1131 O   0  0  0  0  0  0  0  0  0  0  0  0
    6.7161  -11.1628   25.2399 O   0  0  0  0  0  0  0  0  0  0  0  0
    7.0584  -12.4549   25.6645 C   0  0  0  0  0  0  0  0  0  0  0  0
    8.3479  -12.7269   26.0537 C   0  0  0  0  0  0  0  0  0  0  0  0
    8.7026  -14.0038   26.4772 C   0  0  0  0  0  0  0  0  0  0  0  0
    7.7855  -15.0282   26.5207 C   0  0  0  0  0  0  0  0  0  0  0  0
    8.1639  -16.3804   26.9640 C   0  0  0  0  0  0  0  0  0  0  0  0
    9.5276  -16.8311   26.5477 C   0  0  2  0  0  0  0  0  0  0  0  0
    9.6526  -16.6694   25.0859 N   0  0  0  0  0  0  0  0  0  0  0  0
    9.7194  -18.2477   26.9220 C   0  0  0  0  0  0  0  0  0  0  0  0
    9.7836  -19.1649   26.0353 O   0  0  0  0  0  0  0  0  0  0  0  0
    6.4979  -14.7407   26.1280 C   0  0  0  0  0  0  0  0  0  0  0  0
    6.1304  -13.4689   25.7028 C   0  0  0  0  0  0  0  0  0  0  0  0
    9.8370  -18.6300   28.2311 O   0  0  0  0  0  0  0  0  0  0  0  0
  1  2  1  0
  2  3  1  0
  3  4  1  6
  5  3  1  0
  5  6  1  1
  7  8  2  0
  7  5  1  0
 10  9  1  0
 10 12  1  0
 11 10  2  0
 13 12  1  0
 14 13  1  1
 14 15  1  0
 15  7  1  0
 16 25  1  0
 16 14  1  0
 17 16  2  0
 19 18  1  0
 20 19  2  0
 21 20  1  0
 22 28  1  0
 22 21  2  0
 24 23  1  6
 23 22  1  0
 24 25  1  0
 24 26  1  0
 26 30  1  0
 27 26  2  0
 28 29  2  0
 29 19  1  0
M  END
$$$$
