IQY.pdb
     RDKit          3D

 30 30  0  0  1  0  0  0  0  0999 V2000
    7.1213  -11.7319   19.4465 C   0  0  0  0  0  0  0  0  0  0  0  0
    7.3401  -13.1439   19.0039 C   0  0  0  0  0  0  0  0  0  0  0  0
    7.8622  -14.0317   20.1457 C   0  0  2  0  0  0  0  0  0  0  0  0
    9.1359  -13.4906   20.6958 C   0  0  0  0  0  0  0  0  0  0  0  0
    7.9751  -15.4145   19.5658 C   0  0  2  0  0  0  0  0  0  0  0  0
    6.6384  -15.8052   19.1121 N   0  0  0  0  0  0  0  0  0  0  0  0
    8.4252  -16.4503   20.5007 C   0  0  0  0  0  0  0  0  0  0  0  0
    7.6947  -16.9168   21.4282 O   0  0  0  0  0  0  0  0  0  0  0  0
   13.2607  -20.3013   19.7080 N   0  0  0  0  0  0  0  0  0  0  0  0
   13.0459  -20.4396   21.0969 C   0  0  0  0  0  0  0  0  0  0  0  0
   13.7375  -21.2827   21.7348 O   0  0  0  0  0  0  0  0  0  0  0  0
   12.0259  -19.6179   21.8281 C   0  0  0  0  0  0  0  0  0  0  0  0
   11.3581  -18.6908   20.8417 C   0  0  0  0  0  0  0  0  0  0  0  0
   10.2602  -17.8815   21.4672 C   0  0  2  0  0  0  0  0  0  0  0  0
    9.7252  -17.0148   20.4350 N   0  0  0  0  0  0  0  0  0  0  0  0
   10.6406  -17.1756   22.6771 C   0  0  0  0  0  0  0  0  0  0  0  0
   11.0882  -16.0144   22.6032 O   0  0  0  0  0  0  0  0  0  0  0  0
   10.5462  -13.9954   30.8653 O   0  0  0  0  0  0  0  0  0  0  0  0
   10.3473  -14.6034   29.6172 C   0  0  0  0  0  0  0  0  0  0  0  0
   10.1892  -13.8252   28.4956 C   0  0  0  0  0  0  0  0  0  0  0  0
    9.9911  -14.4139   27.2507 C   0  0  0  0  0  0  0  0  0  0  0  0
    9.9466  -15.7804   27.0997 C   0  0  0  0  0  0  0  0  0  0  0  0
    9.7313  -16.4016   25.7821 C   0  0  0  0  0  0  0  0  0  0  0  0
   10.9337  -17.0555   25.1798 C   0  0  2  0  0  0  0  0  0  0  0  0
   10.5206  -17.7648   23.9530 N   0  0  0  0  0  0  0  0  0  0  0  0
   11.5189  -18.0078   26.1463 C   0  0  0  0  0  0  0  0  0  0  0  0
   12.1533  -17.6002   27.1774 O   0  0  0  0  0  0  0  0  0  0  0  0
   10.1066  -16.5468   28.2318 C   0  0  0  0  0  0  0  0  0  0  0  0
   10.3055  -15.9712   29.4818 C   0  0  0  0  0  0  0  0  0  0  0  0
   11.4020  -19.3607   25.9748 O   0  0  0  0  0  0  0  0  0  0  0  0
  1  2  1  0
  2  3  1  0
  3  4  1  6
  5  3  1  0
  5  6  1  1
  7  8  2  0
  7  5  1  0
 10  9  1  0
 10 12  1  0
 11 10  2  0
 13 12  1  0
 14 13  1  6
 14 15  1  0
 15  7  1  0
 16 25  1  0
 16 14  1  0
 17 16  2  0
 19 18  1  0
 20 19  2  0
 21 20  1  0
 22 28  1  0
 22 21  2  0
 24 23  1  1
 23 22  1  0
 24 25  1  0
 24 26  1  0
 26 30  1  0
 27 26  2  0
 28 29  2  0
 29 19  1  0
M  END
$$$$
