IQY.pdb
     RDKit          3D

 30 30  0  0  1  0  0  0  0  0999 V2000
    7.1155  -11.5588   20.2186 C   0  0  0  0  0  0  0  0  0  0  0  0
    7.3926  -12.9898   19.8826 C   0  0  0  0  0  0  0  0  0  0  0  0
    7.7507  -13.8158   21.1292 C   0  0  2  0  0  0  0  0  0  0  0  0
    8.8857  -13.1949   21.8667 C   0  0  0  0  0  0  0  0  0  0  0  0
    8.0232  -15.2077   20.6296 C   0  0  2  0  0  0  0  0  0  0  0  0
    6.7818  -15.7051   20.0323 N   0  0  0  0  0  0  0  0  0  0  0  0
    8.4166  -16.1759   21.6578 C   0  0  0  0  0  0  0  0  0  0  0  0
    7.5835  -16.7812   22.4002 O   0  0  0  0  0  0  0  0  0  0  0  0
   14.1814  -20.1951   23.0272 N   0  0  0  0  0  0  0  0  0  0  0  0
   12.7866  -20.1044   22.8256 C   0  0  0  0  0  0  0  0  0  0  0  0
   12.2381  -20.9106   22.0222 O   0  0  0  0  0  0  0  0  0  0  0  0
   11.9466  -19.0839   23.5348 C   0  0  0  0  0  0  0  0  0  0  0  0
   11.4367  -18.0905   22.5191 C   0  0  0  0  0  0  0  0  0  0  0  0
   10.1861  -17.3963   22.9727 C   0  0  2  0  0  0  0  0  0  0  0  0
    9.7736  -16.5121   21.9000 N   0  0  0  0  0  0  0  0  0  0  0  0
   10.2923  -16.7351   24.2605 C   0  0  0  0  0  0  0  0  0  0  0  0
   11.0384  -15.7447   24.3897 O   0  0  0  0  0  0  0  0  0  0  0  0
    6.1704  -11.4739   25.3292 O   0  0  0  0  0  0  0  0  0  0  0  0
    6.7590  -12.6439   25.8307 C   0  0  0  0  0  0  0  0  0  0  0  0
    6.1406  -13.8561   25.6389 C   0  0  0  0  0  0  0  0  0  0  0  0
    6.7123  -15.0253   26.1306 C   0  0  0  0  0  0  0  0  0  0  0  0
    7.9033  -15.0100   26.8186 C   0  0  0  0  0  0  0  0  0  0  0  0
    8.5041  -16.2478   27.3431 C   0  0  0  0  0  0  0  0  0  0  0  0
    9.8165  -16.6284   26.7356 C   0  0  2  0  0  0  0  0  0  0  0  0
    9.5711  -17.1792   25.3883 N   0  0  0  0  0  0  0  0  0  0  0  0
   10.4841  -17.6368   27.5846 C   0  0  0  0  0  0  0  0  0  0  0  0
   10.7001  -18.8223   27.1607 O   0  0  0  0  0  0  0  0  0  0  0  0
    8.5110  -13.7887   27.0027 C   0  0  0  0  0  0  0  0  0  0  0  0
    7.9505  -12.6128   26.5165 C   0  0  0  0  0  0  0  0  0  0  0  0
   10.8975  -17.3388   28.8550 O   0  0  0  0  0  0  0  0  0  0  0  0
  1  2  1  0
  2  3  1  0
  3  4  1  6
  5  3  1  0
  5  6  1  1
  7  8  2  0
  7  5  1  0
 10  9  1  0
 10 12  1  0
 11 10  2  0
 13 12  1  0
 14 13  1  6
 14 15  1  0
 15  7  1  0
 16 25  1  0
 16 14  1  0
 17 16  2  0
 19 18  1  0
 20 19  2  0
 21 20  1  0
 22 28  1  0
 22 21  2  0
 24 23  1  1
 23 22  1  0
 24 25  1  0
 24 26  1  0
 26 30  1  0
 27 26  2  0
 28 29  2  0
 29 19  1  0
M  END
$$$$
