IQY.pdb
     RDKit          3D

 30 30  0  0  1  0  0  0  0  0999 V2000
    8.1905  -12.5331   18.3713 C   0  0  0  0  0  0  0  0  0  0  0  0
    7.9638  -13.9881   18.6339 C   0  0  0  0  0  0  0  0  0  0  0  0
    7.6647  -14.2667   20.1162 C   0  0  2  0  0  0  0  0  0  0  0  0
    8.7484  -13.7287   20.9843 C   0  0  0  0  0  0  0  0  0  0  0  0
    7.4692  -15.7542   20.2185 C   0  0  2  0  0  0  0  0  0  0  0  0
    6.4032  -16.1171   19.2819 N   0  0  0  0  0  0  0  0  0  0  0  0
    7.0581  -16.2420   21.5385 C   0  0  0  0  0  0  0  0  0  0  0  0
    6.0303  -15.8160   22.1498 O   0  0  0  0  0  0  0  0  0  0  0  0
    6.2947  -21.4789   24.1590 N   0  0  0  0  0  0  0  0  0  0  0  0
    6.5005  -20.7059   25.3228 C   0  0  0  0  0  0  0  0  0  0  0  0
    6.2019  -21.2081   26.4429 O   0  0  0  0  0  0  0  0  0  0  0  0
    7.0598  -19.3153   25.2636 C   0  0  0  0  0  0  0  0  0  0  0  0
    7.1695  -18.9022   23.8158 C   0  0  0  0  0  0  0  0  0  0  0  0
    7.6267  -17.4818   23.6573 C   0  0  2  0  0  0  0  0  0  0  0  0
    7.7870  -17.2392   22.2366 N   0  0  0  0  0  0  0  0  0  0  0  0
    8.7966  -17.1299   24.4411 C   0  0  0  0  0  0  0  0  0  0  0  0
    9.9294  -17.4813   24.0569 O   0  0  0  0  0  0  0  0  0  0  0  0
    4.8759  -12.1786   27.7902 O   0  0  0  0  0  0  0  0  0  0  0  0
    6.1233  -12.7535   27.5064 C   0  0  0  0  0  0  0  0  0  0  0  0
    6.3315  -13.3707   26.2964 C   0  0  0  0  0  0  0  0  0  0  0  0
    7.5634  -13.9456   26.0004 C   0  0  0  0  0  0  0  0  0  0  0  0
    8.6052  -13.9172   26.8983 C   0  0  0  0  0  0  0  0  0  0  0  0
    9.9066  -14.5310   26.5855 C   0  0  0  0  0  0  0  0  0  0  0  0
    9.8897  -16.0175   26.4239 C   0  0  2  0  0  0  0  0  0  0  0  0
    8.6969  -16.3937   25.6399 N   0  0  0  0  0  0  0  0  0  0  0  0
    9.8502  -16.6622   27.7528 C   0  0  0  0  0  0  0  0  0  0  0  0
    8.8646  -17.3943   28.1056 O   0  0  0  0  0  0  0  0  0  0  0  0
    8.3817  -13.2955   28.1059 C   0  0  0  0  0  0  0  0  0  0  0  0
    7.1555  -12.7170   28.4142 C   0  0  0  0  0  0  0  0  0  0  0  0
   10.8675  -16.5011   28.6543 O   0  0  0  0  0  0  0  0  0  0  0  0
  1  2  1  0
  2  3  1  0
  3  4  1  1
  5  3  1  0
  5  6  1  6
  7  8  2  0
  7  5  1  0
 10  9  1  0
 10 12  1  0
 11 10  2  0
 13 12  1  0
 14 13  1  6
 14 15  1  0
 15  7  1  0
 16 25  1  0
 16 14  1  0
 17 16  2  0
 19 18  1  0
 20 19  2  0
 21 20  1  0
 22 28  1  0
 22 21  2  0
 24 23  1  1
 23 22  1  0
 24 25  1  0
 24 26  1  0
 26 30  1  0
 27 26  2  0
 28 29  2  0
 29 19  1  0
M  END
$$$$
