IQY.pdb
     RDKit          3D

 30 30  0  0  1  0  0  0  0  0999 V2000
    5.2476  -12.0009   25.7696 C   0  0  0  0  0  0  0  0  0  0  0  0
    5.2901  -13.4040   25.2530 C   0  0  0  0  0  0  0  0  0  0  0  0
    6.7157  -13.9799   25.2650 C   0  0  2  0  0  0  0  0  0  0  0  0
    7.6809  -13.0146   24.6699 C   0  0  0  0  0  0  0  0  0  0  0  0
    6.6286  -15.2953   24.5416 C   0  0  2  0  0  0  0  0  0  0  0  0
    5.6888  -16.1377   25.2848 N   0  0  0  0  0  0  0  0  0  0  0  0
    7.8862  -16.0430   24.4488 C   0  0  0  0  0  0  0  0  0  0  0  0
    8.2983  -16.8288   25.3566 O   0  0  0  0  0  0  0  0  0  0  0  0
   10.3569  -18.0716   19.6341 N   0  0  0  0  0  0  0  0  0  0  0  0
   11.5764  -18.0695   20.3462 C   0  0  0  0  0  0  0  0  0  0  0  0
   12.5087  -18.8249   19.9511 O   0  0  0  0  0  0  0  0  0  0  0  0
   11.7913  -17.2005   21.5500 C   0  0  0  0  0  0  0  0  0  0  0  0
   10.5193  -16.4354   21.8242 C   0  0  0  0  0  0  0  0  0  0  0  0
    9.9535  -16.7303   23.1824 C   0  0  2  0  0  0  0  0  0  0  0  0
    8.7440  -15.9428   23.3230 N   0  0  0  0  0  0  0  0  0  0  0  0
   10.8882  -16.5582   24.2795 C   0  0  0  0  0  0  0  0  0  0  0  0
   11.6096  -15.5425   24.3262 O   0  0  0  0  0  0  0  0  0  0  0  0
    9.0443  -12.7726   29.3816 O   0  0  0  0  0  0  0  0  0  0  0  0
    9.6940  -13.9405   28.9560 C   0  0  0  0  0  0  0  0  0  0  0  0
    8.9602  -14.9800   28.4371 C   0  0  0  0  0  0  0  0  0  0  0  0
    9.5905  -16.1447   28.0108 C   0  0  0  0  0  0  0  0  0  0  0  0
   10.9553  -16.2958   28.0927 C   0  0  0  0  0  0  0  0  0  0  0  0
   11.6202  -17.5314   27.6462 C   0  0  0  0  0  0  0  0  0  0  0  0
   12.1513  -17.5020   26.2486 C   0  0  2  0  0  0  0  0  0  0  0  0
   11.0119  -17.5129   25.3103 N   0  0  0  0  0  0  0  0  0  0  0  0
   13.0122  -18.6807   26.0185 C   0  0  0  0  0  0  0  0  0  0  0  0
   12.6965  -19.5756   25.1633 O   0  0  0  0  0  0  0  0  0  0  0  0
   11.6770  -15.2462   28.6145 C   0  0  0  0  0  0  0  0  0  0  0  0
   11.0595  -14.0767   29.0440 C   0  0  0  0  0  0  0  0  0  0  0  0
   14.1798  -18.8573   26.7107 O   0  0  0  0  0  0  0  0  0  0  0  0
  1  2  1  0
  2  3  1  0
  3  4  1  6
  5  3  1  0
  5  6  1  1
  7  8  2  0
  7  5  1  0
 10  9  1  0
 10 12  1  0
 11 10  2  0
 13 12  1  0
 14 13  1  6
 14 15  1  0
 15  7  1  0
 16 25  1  0
 16 14  1  0
 17 16  2  0
 19 18  1  0
 20 19  2  0
 21 20  1  0
 22 28  1  0
 22 21  2  0
 24 23  1  1
 23 22  1  0
 24 25  1  0
 24 26  1  0
 26 30  1  0
 27 26  2  0
 28 29  2  0
 29 19  1  0
M  END
$$$$
