CYW.pdb
     RDKit          3D

 33 35  0  0  1  0  0  0  0  0999 V2000
   27.5359  -25.0103  -17.5731 N   0  0  0  0  0  0  0  0  0  0  0  0
   27.5314  -23.5461  -17.3926 C   0  0  1  0  0  0  0  0  0  0  0  0
   26.7135  -23.0294  -18.5724 C   0  0  0  0  0  0  0  0  0  0  0  0
   26.5744  -24.3178  -19.8202 S   0  0  0  0  0  0  0  0  0  0  0  0
   26.9167  -23.2598  -16.0967 C   0  0  0  0  0  0  0  0  0  0  0  0
   26.0239  -24.0464  -15.6362 O   0  0  0  0  0  0  0  0  0  0  0  0
   24.6965  -19.5335   -8.3650 O   0  0  0  0  0  0  0  0  0  0  0  0
   25.3520  -19.9290   -9.5426 C   0  0  0  0  0  0  0  0  0  0  0  0
   25.4511  -19.0660  -10.6169 C   0  0  0  0  0  0  0  0  0  0  0  0
   26.1006  -19.4867  -11.7556 C   0  0  0  0  0  0  0  0  0  0  0  0
   26.6552  -20.7370  -11.8625 C   0  0  0  0  0  0  0  0  0  0  0  0
   27.3349  -21.1429  -13.0842 C   0  0  0  0  0  0  0  0  0  0  0  0
   26.4484  -21.8750  -14.0669 C   0  0  2  0  0  0  0  0  0  0  0  0
   27.2257  -22.1566  -15.2727 N   0  0  0  0  0  0  0  0  0  0  0  0
   25.1943  -21.1716  -14.3825 C   0  0  0  0  0  0  0  0  0  0  0  0
   25.1757  -20.1342  -15.1246 O   0  0  0  0  0  0  0  0  0  0  0  0
   26.5601  -21.5970  -10.8006 C   0  0  0  0  0  0  0  0  0  0  0  0
   25.9145  -21.1761   -9.6717 C   0  0  0  0  0  0  0  0  0  0  0  0
   23.9361  -21.6011  -13.8864 N   0  0  0  0  0  0  0  0  0  0  0  0
   22.6900  -20.8342  -14.1167 C   0  0  1  0  0  0  0  0  0  0  0  0
   21.5983  -21.7966  -13.7143 C   0  0  0  0  0  0  0  0  0  0  0  0
   20.5233  -21.2607  -12.8984 C   0  0  0  0  0  0  0  0  0  0  0  0
   20.2118  -19.9368  -12.7097 C   0  0  0  0  0  0  0  0  0  0  0  0
   19.1687  -19.8184  -11.8671 N   0  0  0  0  0  0  0  0  0  0  0  0
   18.8015  -21.0735  -11.5077 C   0  0  0  0  0  0  0  0  0  0  0  0
   17.7941  -21.5205  -10.6826 C   0  0  0  0  0  0  0  0  0  0  0  0
   17.5787  -22.8648  -10.4601 C   0  0  0  0  0  0  0  0  0  0  0  0
   18.4089  -23.7788  -11.0927 C   0  0  0  0  0  0  0  0  0  0  0  0
   19.4083  -23.3209  -11.9108 C   0  0  0  0  0  0  0  0  0  0  0  0
   19.6244  -21.9781  -12.1331 C   0  0  0  0  0  0  0  0  0  0  0  0
   22.6915  -19.5402  -13.4724 C   0  0  0  0  0  0  0  0  0  0  0  0
   22.0957  -18.4441  -14.0707 O   0  0  0  0  0  0  0  0  0  0  0  0
   23.2356  -19.3674  -12.3539 O   0  0  0  0  0  0  0  0  0  0  0  0
  2  3  1  0
  2  1  1  6
  3  4  1  0
  5  2  1  0
  6  5  2  0
  8  7  1  0
  8  9  2  0
 10  9  1  0
 11 10  2  0
 12 11  1  0
 13 12  1  1
 13 14  1  0
 14  5  1  0
 15 13  1  0
 15 19  1  0
 16 15  2  0
 17 18  2  0
 17 11  1  0
 18  8  1  0
 20 21  1  1
 20 19  1  0
 20 31  1  0
 22 21  1  0
 22 23  2  0
 24 23  1  0
 25 30  2  0
 25 24  1  0
 26 25  1  0
 27 28  1  0
 27 26  2  0
 28 29  2  0
 29 30  1  0
 30 22  1  0
 31 32  1  0
 33 31  2  0
M  END
$$$$
