CYW.pdb
     RDKit          3D

 33 35  0  0  1  0  0  0  0  0999 V2000
   27.8027  -37.5298  -11.8823 N   0  0  0  0  0  0  0  0  0  0  0  0
   27.3075  -38.3797  -10.7827 C   0  0  1  0  0  0  0  0  0  0  0  0
   28.4213  -39.4013  -10.5731 C   0  0  0  0  0  0  0  0  0  0  0  0
   27.9051  -40.6134   -9.3482 S   0  0  0  0  0  0  0  0  0  0  0  0
   27.0889  -37.5198   -9.6199 C   0  0  0  0  0  0  0  0  0  0  0  0
   28.0402  -36.7840   -9.1937 O   0  0  0  0  0  0  0  0  0  0  0  0
   26.8056  -31.9625  -11.9710 O   0  0  0  0  0  0  0  0  0  0  0  0
   26.3338  -32.8219  -10.9651 C   0  0  0  0  0  0  0  0  0  0  0  0
   26.5866  -32.5530   -9.6338 C   0  0  0  0  0  0  0  0  0  0  0  0
   26.1091  -33.4169   -8.6741 C   0  0  0  0  0  0  0  0  0  0  0  0
   25.3882  -34.5397   -8.9933 C   0  0  0  0  0  0  0  0  0  0  0  0
   24.8998  -35.4274   -7.9479 C   0  0  0  0  0  0  0  0  0  0  0  0
   25.7995  -36.6127   -7.6778 C   0  0  2  0  0  0  0  0  0  0  0  0
   25.8827  -37.4191   -8.8946 N   0  0  0  0  0  0  0  0  0  0  0  0
   25.3924  -37.4226   -6.5179 C   0  0  0  0  0  0  0  0  0  0  0  0
   24.8404  -38.5641   -6.6574 O   0  0  0  0  0  0  0  0  0  0  0  0
   25.1343  -34.8115  -10.3116 C   0  0  0  0  0  0  0  0  0  0  0  0
   25.6101  -33.9517  -11.2618 C   0  0  0  0  0  0  0  0  0  0  0  0
   25.5885  -36.9885   -5.1812 N   0  0  0  0  0  0  0  0  0  0  0  0
   25.2379  -37.8316   -4.0149 C   0  0  1  0  0  0  0  0  0  0  0  0
   26.0190  -39.1032   -4.2452 C   0  0  0  0  0  0  0  0  0  0  0  0
   25.8420  -40.1640   -3.2695 C   0  0  0  0  0  0  0  0  0  0  0  0
   24.6615  -40.7652   -2.9088 C   0  0  0  0  0  0  0  0  0  0  0  0
   24.8807  -41.6891   -1.9548 N   0  0  0  0  0  0  0  0  0  0  0  0
   26.2119  -41.6871   -1.6956 C   0  0  0  0  0  0  0  0  0  0  0  0
   26.9652  -42.4399   -0.8231 C   0  0  0  0  0  0  0  0  0  0  0  0
   28.3327  -42.2876   -0.7246 C   0  0  0  0  0  0  0  0  0  0  0  0
   28.9509  -41.3455   -1.5341 C   0  0  0  0  0  0  0  0  0  0  0  0
   28.1897  -40.6023   -2.3977 C   0  0  0  0  0  0  0  0  0  0  0  0
   26.8234  -40.7536   -2.4962 C   0  0  0  0  0  0  0  0  0  0  0  0
   25.4364  -37.1621   -2.7492 C   0  0  0  0  0  0  0  0  0  0  0  0
   24.5317  -37.3115   -1.7130 O   0  0  0  0  0  0  0  0  0  0  0  0
   26.4308  -36.4217   -2.5501 O   0  0  0  0  0  0  0  0  0  0  0  0
  2  3  1  0
  2  1  1  6
  3  4  1  0
  5  2  1  0
  6  5  2  0
  8  7  1  0
  8  9  2  0
 10  9  1  0
 11 10  2  0
 12 11  1  0
 13 12  1  6
 13 14  1  0
 14  5  1  0
 15 13  1  0
 15 19  1  0
 16 15  2  0
 17 18  2  0
 17 11  1  0
 18  8  1  0
 20 21  1  1
 20 19  1  0
 20 31  1  0
 22 21  1  0
 22 23  2  0
 24 23  1  0
 25 30  2  0
 25 24  1  0
 26 25  1  0
 27 28  1  0
 27 26  2  0
 28 29  2  0
 29 30  1  0
 30 22  1  0
 31 32  1  0
 33 31  2  0
M  END
$$$$
