CYW.pdb
     RDKit          3D

 33 35  0  0  1  0  0  0  0  0999 V2000
   30.2818  -23.1721  -17.1423 N   0  0  0  0  0  0  0  0  0  0  0  0
   29.6235  -23.6449  -15.9096 C   0  0  1  0  0  0  0  0  0  0  0  0
   30.3715  -22.9262  -14.7906 C   0  0  0  0  0  0  0  0  0  0  0  0
   31.9007  -23.8016  -14.4283 S   0  0  0  0  0  0  0  0  0  0  0  0
   28.2112  -23.2731  -15.9891 C   0  0  0  0  0  0  0  0  0  0  0  0
   27.8803  -22.1733  -16.5450 O   0  0  0  0  0  0  0  0  0  0  0  0
   19.3865  -23.4939  -16.3190 O   0  0  0  0  0  0  0  0  0  0  0  0
   20.7511  -23.8101  -16.2158 C   0  0  0  0  0  0  0  0  0  0  0  0
   21.2380  -24.4742  -15.1066 C   0  0  0  0  0  0  0  0  0  0  0  0
   22.5812  -24.7683  -15.0386 C   0  0  0  0  0  0  0  0  0  0  0  0
   23.4574  -24.4242  -16.0367 C   0  0  0  0  0  0  0  0  0  0  0  0
   24.8709  -24.7548  -15.9268 C   0  0  0  0  0  0  0  0  0  0  0  0
   25.7565  -23.5704  -15.6102 C   0  0  2  0  0  0  0  0  0  0  0  0
   27.1359  -24.0405  -15.4928 N   0  0  0  0  0  0  0  0  0  0  0  0
   25.3396  -22.8111  -14.4199 C   0  0  0  0  0  0  0  0  0  0  0  0
   24.2536  -22.1422  -14.3974 O   0  0  0  0  0  0  0  0  0  0  0  0
   22.9805  -23.7657  -17.1391 C   0  0  0  0  0  0  0  0  0  0  0  0
   21.6464  -23.4752  -17.2032 C   0  0  0  0  0  0  0  0  0  0  0  0
   26.1129  -22.7770  -13.2306 N   0  0  0  0  0  0  0  0  0  0  0  0
   25.7344  -21.9478  -12.0630 C   0  0  1  0  0  0  0  0  0  0  0  0
   26.8809  -22.1422  -11.0997 C   0  0  0  0  0  0  0  0  0  0  0  0
   26.9138  -21.2699   -9.9392 C   0  0  0  0  0  0  0  0  0  0  0  0
   25.8455  -20.6407   -9.3493 C   0  0  0  0  0  0  0  0  0  0  0  0
   26.2606  -19.8916   -8.3107 N   0  0  0  0  0  0  0  0  0  0  0  0
   27.6064  -20.0367   -8.2267 C   0  0  0  0  0  0  0  0  0  0  0  0
   28.5207  -19.5049   -7.3453 C   0  0  0  0  0  0  0  0  0  0  0  0
   29.8661  -19.7981   -7.4279 C   0  0  0  0  0  0  0  0  0  0  0  0
   30.2936  -20.6542   -8.4326 C   0  0  0  0  0  0  0  0  0  0  0  0
   29.3736  -21.1761   -9.3037 C   0  0  0  0  0  0  0  0  0  0  0  0
   28.0294  -20.8832   -9.2221 C   0  0  0  0  0  0  0  0  0  0  0  0
   25.4008  -20.5866  -12.4167 C   0  0  0  0  0  0  0  0  0  0  0  0
   26.1865  -19.8650  -13.2980 O   0  0  0  0  0  0  0  0  0  0  0  0
   24.3927  -20.0140  -11.9344 O   0  0  0  0  0  0  0  0  0  0  0  0
  2  3  1  0
  2  1  1  6
  3  4  1  0
  5  2  1  0
  6  5  2  0
  8  7  1  0
  8  9  2  0
 10  9  1  0
 11 10  2  0
 12 11  1  0
 13 12  1  1
 13 14  1  0
 14  5  1  0
 15 13  1  0
 15 19  1  0
 16 15  2  0
 17 18  2  0
 17 11  1  0
 18  8  1  0
 20 21  1  1
 20 19  1  0
 20 31  1  0
 22 21  1  0
 22 23  2  0
 24 23  1  0
 25 30  2  0
 25 24  1  0
 26 25  1  0
 27 28  1  0
 27 26  2  0
 28 29  2  0
 29 30  1  0
 30 22  1  0
 31 32  1  0
 33 31  2  0
M  END
$$$$
