CYW.pdb
     RDKit          3D

 33 35  0  0  1  0  0  0  0  0999 V2000
   21.9124  -11.8991  -21.5546 N   0  0  0  0  0  0  0  0  0  0  0  0
   20.9135  -12.2266  -20.5196 C   0  0  1  0  0  0  0  0  0  0  0  0
   20.8043  -13.7474  -20.5775 C   0  0  0  0  0  0  0  0  0  0  0  0
   19.8146  -14.2272  -22.0009 S   0  0  0  0  0  0  0  0  0  0  0  0
   21.4217  -11.7344  -19.2395 C   0  0  0  0  0  0  0  0  0  0  0  0
   20.7915  -12.0090  -18.1646 O   0  0  0  0  0  0  0  0  0  0  0  0
   26.3971  -15.8670  -18.0248 O   0  0  0  0  0  0  0  0  0  0  0  0
   25.9171  -14.5514  -17.9167 C   0  0  0  0  0  0  0  0  0  0  0  0
   25.4439  -14.0716  -16.7107 C   0  0  0  0  0  0  0  0  0  0  0  0
   24.9809  -12.7769  -16.6407 C   0  0  0  0  0  0  0  0  0  0  0  0
   24.9725  -11.9425  -17.7298 C   0  0  0  0  0  0  0  0  0  0  0  0
   24.4754  -10.5792  -17.6135 C   0  0  0  0  0  0  0  0  0  0  0  0
   22.9740  -10.4585  -17.7496 C   0  0  2  0  0  0  0  0  0  0  0  0
   22.5860  -10.9556  -19.0687 N   0  0  0  0  0  0  0  0  0  0  0  0
   22.4572   -9.1013  -17.5085 C   0  0  0  0  0  0  0  0  0  0  0  0
   22.4446   -8.2155  -18.4263 O   0  0  0  0  0  0  0  0  0  0  0  0
   25.4405  -12.4127  -18.9282 C   0  0  0  0  0  0  0  0  0  0  0  0
   25.8993  -13.6986  -18.9941 C   0  0  0  0  0  0  0  0  0  0  0  0
   21.9426   -8.6964  -16.2496 N   0  0  0  0  0  0  0  0  0  0  0  0
   21.2976   -7.3788  -16.0440 C   0  0  1  0  0  0  0  0  0  0  0  0
   20.2183   -7.3405  -17.0993 C   0  0  0  0  0  0  0  0  0  0  0  0
   19.0033   -8.0843  -16.8180 C   0  0  0  0  0  0  0  0  0  0  0  0
   18.2788   -8.0709  -15.6518 C   0  0  0  0  0  0  0  0  0  0  0  0
   17.2267   -8.9053  -15.7465 N   0  0  0  0  0  0  0  0  0  0  0  0
   17.2694   -9.4628  -16.9821 C   0  0  0  0  0  0  0  0  0  0  0  0
   16.4326  -10.3672  -17.5963 C   0  0  0  0  0  0  0  0  0  0  0  0
   16.6518  -10.8003  -18.8876 C   0  0  0  0  0  0  0  0  0  0  0  0
   17.7503  -10.3012  -19.5725 C   0  0  0  0  0  0  0  0  0  0  0  0
   18.5757   -9.4022  -18.9496 C   0  0  0  0  0  0  0  0  0  0  0  0
   18.3576   -8.9695  -17.6595 C   0  0  0  0  0  0  0  0  0  0  0  0
   20.8841   -7.1555  -14.6770 C   0  0  0  0  0  0  0  0  0  0  0  0
   20.4624   -5.9074  -14.2537 O   0  0  0  0  0  0  0  0  0  0  0  0
   20.8979   -8.0823  -13.8300 O   0  0  0  0  0  0  0  0  0  0  0  0
  2  3  1  0
  2  1  1  6
  3  4  1  0
  5  2  1  0
  6  5  2  0
  8  7  1  0
  8  9  2  0
 10  9  1  0
 11 10  2  0
 12 11  1  0
 13 12  1  6
 13 14  1  0
 14  5  1  0
 15 13  1  0
 15 19  1  0
 16 15  2  0
 17 18  2  0
 17 11  1  0
 18  8  1  0
 20 21  1  6
 20 19  1  0
 20 31  1  0
 22 21  1  0
 22 23  2  0
 24 23  1  0
 25 30  2  0
 25 24  1  0
 26 25  1  0
 27 28  1  0
 27 26  2  0
 28 29  2  0
 29 30  1  0
 30 22  1  0
 31 32  1  0
 33 31  2  0
M  END
$$$$
