CYW.pdb
     RDKit          3D

 33 35  0  0  1  0  0  0  0  0999 V2000
   28.9908  -21.0091  -16.5852 N   0  0  0  0  0  0  0  0  0  0  0  0
   28.5351  -21.8055  -15.4300 C   0  0  1  0  0  0  0  0  0  0  0  0
   29.7660  -21.8959  -14.5330 C   0  0  0  0  0  0  0  0  0  0  0  0
   30.8847  -23.1530  -15.1690 S   0  0  0  0  0  0  0  0  0  0  0  0
   27.4212  -21.0900  -14.8083 C   0  0  0  0  0  0  0  0  0  0  0  0
   27.3399  -19.8227  -14.9320 O   0  0  0  0  0  0  0  0  0  0  0  0
   19.4882  -18.7086  -11.9312 O   0  0  0  0  0  0  0  0  0  0  0  0
   20.6098  -19.3750  -12.4516 C   0  0  0  0  0  0  0  0  0  0  0  0
   21.3837  -18.7887  -13.4344 C   0  0  0  0  0  0  0  0  0  0  0  0
   22.4761  -19.4704  -13.9217 C   0  0  0  0  0  0  0  0  0  0  0  0
   22.8254  -20.7159  -13.4646 C   0  0  0  0  0  0  0  0  0  0  0  0
   23.9894  -21.4029  -14.0054 C   0  0  0  0  0  0  0  0  0  0  0  0
   25.3093  -20.8796  -13.4844 C   0  0  2  0  0  0  0  0  0  0  0  0
   26.3865  -21.6859  -14.0561 N   0  0  0  0  0  0  0  0  0  0  0  0
   25.3947  -20.8242  -12.0158 C   0  0  0  0  0  0  0  0  0  0  0  0
   24.5899  -20.1172  -11.3233 O   0  0  0  0  0  0  0  0  0  0  0  0
   22.0620  -21.3022  -12.4901 C   0  0  0  0  0  0  0  0  0  0  0  0
   20.9780  -20.6227  -12.0087 C   0  0  0  0  0  0  0  0  0  0  0  0
   26.3696  -21.5498  -11.2831 N   0  0  0  0  0  0  0  0  0  0  0  0
   26.4243  -21.5311   -9.8030 C   0  0  1  0  0  0  0  0  0  0  0  0
   27.8009  -20.9881   -9.5029 C   0  0  0  0  0  0  0  0  0  0  0  0
   27.9561  -20.2521   -8.2608 C   0  0  0  0  0  0  0  0  0  0  0  0
   27.2784  -19.1195   -7.8824 C   0  0  0  0  0  0  0  0  0  0  0  0
   27.7048  -18.7018   -6.6759 N   0  0  0  0  0  0  0  0  0  0  0  0
   28.6647  -19.5694   -6.2695 C   0  0  0  0  0  0  0  0  0  0  0  0
   29.4144  -19.6141   -5.1156 C   0  0  0  0  0  0  0  0  0  0  0  0
   30.3431  -20.6088   -4.8897 C   0  0  0  0  0  0  0  0  0  0  0  0
   30.5144  -21.5836   -5.8620 C   0  0  0  0  0  0  0  0  0  0  0  0
   29.7625  -21.5273   -7.0061 C   0  0  0  0  0  0  0  0  0  0  0  0
   28.8349  -20.5336   -7.2327 C   0  0  0  0  0  0  0  0  0  0  0  0
   25.3043  -20.8432   -9.2014 C   0  0  0  0  0  0  0  0  0  0  0  0
   24.8119  -21.2252   -7.9661 O   0  0  0  0  0  0  0  0  0  0  0  0
   24.7400  -19.8820   -9.7799 O   0  0  0  0  0  0  0  0  0  0  0  0
  2  3  1  0
  2  1  1  6
  3  4  1  0
  5  2  1  0
  6  5  2  0
  8  7  1  0
  8  9  2  0
 10  9  1  0
 11 10  2  0
 12 11  1  0
 13 12  1  1
 13 14  1  0
 14  5  1  0
 15 13  1  0
 15 19  1  0
 16 15  2  0
 17 18  2  0
 17 11  1  0
 18  8  1  0
 20 21  1  6
 20 19  1  0
 20 31  1  0
 22 21  1  0
 22 23  2  0
 24 23  1  0
 25 30  2  0
 25 24  1  0
 26 25  1  0
 27 28  1  0
 27 26  2  0
 28 29  2  0
 29 30  1  0
 30 22  1  0
 31 32  1  0
 33 31  2  0
M  END
$$$$
