CYW.pdb
     RDKit          3D

 33 35  0  0  1  0  0  0  0  0999 V2000
   27.2230  -17.3030  -16.2356 N   0  0  0  0  0  0  0  0  0  0  0  0
   27.3744  -17.4050  -14.7716 C   0  0  1  0  0  0  0  0  0  0  0  0
   26.4756  -16.2984  -14.2278 C   0  0  0  0  0  0  0  0  0  0  0  0
   27.3854  -14.7470  -14.1888 S   0  0  0  0  0  0  0  0  0  0  0  0
   26.9439  -18.7445  -14.3722 C   0  0  0  0  0  0  0  0  0  0  0  0
   25.7621  -19.1354  -14.6526 O   0  0  0  0  0  0  0  0  0  0  0  0
   26.6616  -22.0625  -19.5103 O   0  0  0  0  0  0  0  0  0  0  0  0
   26.9475  -22.0690  -18.1351 C   0  0  0  0  0  0  0  0  0  0  0  0
   26.1158  -22.7224  -17.2463 C   0  0  0  0  0  0  0  0  0  0  0  0
   26.4264  -22.7087  -15.9052 C   0  0  0  0  0  0  0  0  0  0  0  0
   27.5366  -22.0669  -15.4174 C   0  0  0  0  0  0  0  0  0  0  0  0
   27.8304  -22.0770  -13.9916 C   0  0  0  0  0  0  0  0  0  0  0  0
   27.1746  -20.9532  -13.2208 C   0  0  2  0  0  0  0  0  0  0  0  0
   27.7373  -19.6846  -13.6808 N   0  0  0  0  0  0  0  0  0  0  0  0
   27.2736  -21.0913  -11.7585 C   0  0  0  0  0  0  0  0  0  0  0  0
   28.3611  -21.4396  -11.1898 O   0  0  0  0  0  0  0  0  0  0  0  0
   28.3650  -21.4174  -16.2939 C   0  0  0  0  0  0  0  0  0  0  0  0
   28.0535  -21.4330  -17.6247 C   0  0  0  0  0  0  0  0  0  0  0  0
   26.1743  -20.8458  -10.8955 N   0  0  0  0  0  0  0  0  0  0  0  0
   26.1876  -21.2329   -9.4657 C   0  0  1  0  0  0  0  0  0  0  0  0
   27.4794  -20.6466   -8.9486 C   0  0  0  0  0  0  0  0  0  0  0  0
   27.4352  -20.0237   -7.6376 C   0  0  0  0  0  0  0  0  0  0  0  0
   26.4853  -19.1489   -7.1712 C   0  0  0  0  0  0  0  0  0  0  0  0
   26.7858  -18.7581   -5.9186 N   0  0  0  0  0  0  0  0  0  0  0  0
   27.9376  -19.3840   -5.5708 C   0  0  0  0  0  0  0  0  0  0  0  0
   28.6708  -19.3485   -4.4060 C   0  0  0  0  0  0  0  0  0  0  0  0
   29.8259  -20.0865   -4.2509 C   0  0  0  0  0  0  0  0  0  0  0  0
   30.2469  -20.8813   -5.3072 C   0  0  0  0  0  0  0  0  0  0  0  0
   29.5086  -20.9072   -6.4613 C   0  0  0  0  0  0  0  0  0  0  0  0
   28.3549  -20.1698   -6.6171 C   0  0  0  0  0  0  0  0  0  0  0  0
   24.9767  -20.8665   -8.7664 C   0  0  0  0  0  0  0  0  0  0  0  0
   24.6559  -21.4372   -7.5474 O   0  0  0  0  0  0  0  0  0  0  0  0
   24.1761  -20.0242   -9.2422 O   0  0  0  0  0  0  0  0  0  0  0  0
  2  3  1  0
  2  1  1  6
  3  4  1  0
  5  2  1  0
  6  5  2  0
  8  7  1  0
  8  9  2  0
 10  9  1  0
 11 10  2  0
 12 11  1  0
 13 12  1  6
 13 14  1  0
 14  5  1  0
 15 13  1  0
 15 19  1  0
 16 15  2  0
 17 18  2  0
 17 11  1  0
 18  8  1  0
 20 21  1  1
 20 19  1  0
 20 31  1  0
 22 21  1  0
 22 23  2  0
 24 23  1  0
 25 30  2  0
 25 24  1  0
 26 25  1  0
 27 28  1  0
 27 26  2  0
 28 29  2  0
 29 30  1  0
 30 22  1  0
 31 32  1  0
 33 31  2  0
M  END
$$$$
