CYW.pdb
     RDKit          3D

 33 35  0  0  1  0  0  0  0  0999 V2000
   34.1693  -32.7041  -15.5275 N   0  0  0  0  0  0  0  0  0  0  0  0
   33.4578  -33.5627  -16.4935 C   0  0  1  0  0  0  0  0  0  0  0  0
   32.3028  -34.1496  -15.6875 C   0  0  0  0  0  0  0  0  0  0  0  0
   32.8943  -35.5388  -14.7097 S   0  0  0  0  0  0  0  0  0  0  0  0
   33.0151  -32.7148  -17.6000 C   0  0  0  0  0  0  0  0  0  0  0  0
   33.3996  -31.4994  -17.6544 O   0  0  0  0  0  0  0  0  0  0  0  0
   31.1304  -29.7245  -25.6098 O   0  0  0  0  0  0  0  0  0  0  0  0
   31.3382  -30.5294  -24.4777 C   0  0  0  0  0  0  0  0  0  0  0  0
   32.4502  -31.3442  -24.3877 C   0  0  0  0  0  0  0  0  0  0  0  0
   32.6224  -32.1200  -23.2634 C   0  0  0  0  0  0  0  0  0  0  0  0
   31.7260  -32.1130  -22.2248 C   0  0  0  0  0  0  0  0  0  0  0  0
   31.9455  -32.9476  -21.0524 C   0  0  0  0  0  0  0  0  0  0  0  0
   31.8217  -32.2077  -19.7392 C   0  0  2  0  0  0  0  0  0  0  0  0
   32.1722  -33.1241  -18.6552 N   0  0  0  0  0  0  0  0  0  0  0  0
   30.5037  -31.5894  -19.5211 C   0  0  0  0  0  0  0  0  0  0  0  0
   29.9988  -30.7724  -20.3607 O   0  0  0  0  0  0  0  0  0  0  0  0
   30.6216  -31.3069  -22.3083 C   0  0  0  0  0  0  0  0  0  0  0  0
   30.4538  -30.5382  -23.4260 C   0  0  0  0  0  0  0  0  0  0  0  0
   29.7165  -31.8626  -18.3724 N   0  0  0  0  0  0  0  0  0  0  0  0
   28.3989  -31.2251  -18.1450 C   0  0  1  0  0  0  0  0  0  0  0  0
   28.6453  -30.3021  -16.9756 C   0  0  0  0  0  0  0  0  0  0  0  0
   27.5361  -29.4609  -16.5627 C   0  0  0  0  0  0  0  0  0  0  0  0
   26.3512  -29.8727  -16.0044 C   0  0  0  0  0  0  0  0  0  0  0  0
   25.5503  -28.8151  -15.7764 N   0  0  0  0  0  0  0  0  0  0  0  0
   26.2206  -27.7106  -16.1890 C   0  0  0  0  0  0  0  0  0  0  0  0
   25.8690  -26.3796  -16.1720 C   0  0  0  0  0  0  0  0  0  0  0  0
   26.7196  -25.3967  -16.6340 C   0  0  0  0  0  0  0  0  0  0  0  0
   27.9600  -25.7764  -17.1261 C   0  0  0  0  0  0  0  0  0  0  0  0
   28.2974  -27.1045  -17.1381 C   0  0  0  0  0  0  0  0  0  0  0  0
   27.4479  -28.0870  -16.6773 C   0  0  0  0  0  0  0  0  0  0  0  0
   27.8402  -30.6329  -19.3395 C   0  0  0  0  0  0  0  0  0  0  0  0
   26.5165  -30.8381  -19.6859 O   0  0  0  0  0  0  0  0  0  0  0  0
   28.5364  -29.9184  -20.1022 O   0  0  0  0  0  0  0  0  0  0  0  0
  2  3  1  0
  2  1  1  1
  3  4  1  0
  5  2  1  0
  6  5  2  0
  8  7  1  0
  8  9  2  0
 10  9  1  0
 11 10  2  0
 12 11  1  0
 13 12  1  6
 13 14  1  0
 14  5  1  0
 15 13  1  0
 15 19  1  0
 16 15  2  0
 17 18  2  0
 17 11  1  0
 18  8  1  0
 20 21  1  1
 20 19  1  0
 20 31  1  0
 22 21  1  0
 22 23  2  0
 24 23  1  0
 25 30  2  0
 25 24  1  0
 26 25  1  0
 27 28  1  0
 27 26  2  0
 28 29  2  0
 29 30  1  0
 30 22  1  0
 31 32  1  0
 33 31  2  0
M  END
$$$$
