CYW.pdb
     RDKit          3D

 33 35  0  0  1  0  0  0  0  0999 V2000
   26.8305  -18.8129  -16.2772 N   0  0  0  0  0  0  0  0  0  0  0  0
   27.4955  -18.9924  -14.9725 C   0  0  1  0  0  0  0  0  0  0  0  0
   28.3515  -17.7391  -14.8168 C   0  0  0  0  0  0  0  0  0  0  0  0
   29.6727  -17.7556  -16.0375 S   0  0  0  0  0  0  0  0  0  0  0  0
   26.4522  -19.1072  -13.9538 C   0  0  0  0  0  0  0  0  0  0  0  0
   25.7272  -18.0939  -13.6787 O   0  0  0  0  0  0  0  0  0  0  0  0
   21.0403  -18.1501  -16.5102 O   0  0  0  0  0  0  0  0  0  0  0  0
   21.7582  -18.8416  -15.5205 C   0  0  0  0  0  0  0  0  0  0  0  0
   21.5791  -18.5438  -14.1834 C   0  0  0  0  0  0  0  0  0  0  0  0
   22.2993  -19.2414  -13.2400 C   0  0  0  0  0  0  0  0  0  0  0  0
   23.1919  -20.2258  -13.5811 C   0  0  0  0  0  0  0  0  0  0  0  0
   23.9332  -20.9412  -12.5525 C   0  0  0  0  0  0  0  0  0  0  0  0
   25.2003  -20.2439  -12.1105 C   0  0  2  0  0  0  0  0  0  0  0  0
   26.1562  -20.2733  -13.2164 N   0  0  0  0  0  0  0  0  0  0  0  0
   25.7849  -20.7891  -10.8744 C   0  0  0  0  0  0  0  0  0  0  0  0
   26.9569  -21.2925  -10.8518 O   0  0  0  0  0  0  0  0  0  0  0  0
   23.3736  -20.5256  -14.9053 C   0  0  0  0  0  0  0  0  0  0  0  0
   22.6571  -19.8309  -15.8392 C   0  0  0  0  0  0  0  0  0  0  0  0
   25.0876  -20.7876   -9.6385 N   0  0  0  0  0  0  0  0  0  0  0  0
   25.6715  -21.3496   -8.3986 C   0  0  1  0  0  0  0  0  0  0  0  0
   26.9312  -20.5415   -8.1984 C   0  0  0  0  0  0  0  0  0  0  0  0
   27.6929  -20.8079   -6.9912 C   0  0  0  0  0  0  0  0  0  0  0  0
   27.9214  -22.0320   -6.4128 C   0  0  0  0  0  0  0  0  0  0  0  0
   28.6471  -21.8885   -5.2881 N   0  0  0  0  0  0  0  0  0  0  0  0
   28.8908  -20.5630   -5.1369 C   0  0  0  0  0  0  0  0  0  0  0  0
   29.5916  -19.8761   -4.1711 C   0  0  0  0  0  0  0  0  0  0  0  0
   29.7346  -18.5047   -4.2134 C   0  0  0  0  0  0  0  0  0  0  0  0
   29.1502  -17.8132   -5.2647 C   0  0  0  0  0  0  0  0  0  0  0  0
   28.4548  -18.5086   -6.2189 C   0  0  0  0  0  0  0  0  0  0  0  0
   28.3110  -19.8786   -6.1770 C   0  0  0  0  0  0  0  0  0  0  0  0
   24.7367  -21.3878   -7.2967 C   0  0  0  0  0  0  0  0  0  0  0  0
   24.9992  -22.1374   -6.1636 O   0  0  0  0  0  0  0  0  0  0  0  0
   23.6570  -20.7477   -7.3326 O   0  0  0  0  0  0  0  0  0  0  0  0
  2  3  1  0
  2  1  1  6
  3  4  1  0
  5  2  1  0
  6  5  2  0
  8  7  1  0
  8  9  2  0
 10  9  1  0
 11 10  2  0
 12 11  1  0
 13 12  1  6
 13 14  1  0
 14  5  1  0
 15 13  1  0
 15 19  1  0
 16 15  2  0
 17 18  2  0
 17 11  1  0
 18  8  1  0
 20 21  1  1
 20 19  1  0
 20 31  1  0
 22 21  1  0
 22 23  2  0
 24 23  1  0
 25 30  2  0
 25 24  1  0
 26 25  1  0
 27 28  1  0
 27 26  2  0
 28 29  2  0
 29 30  1  0
 30 22  1  0
 31 32  1  0
 33 31  2  0
M  END
$$$$
