CYW.pdb
     RDKit          3D

 33 35  0  0  1  0  0  0  0  0999 V2000
   21.9017  -15.4277  -18.6203 N   0  0  0  0  0  0  0  0  0  0  0  0
   22.3118  -15.6418  -17.2194 C   0  0  1  0  0  0  0  0  0  0  0  0
   21.0089  -15.9734  -16.4980 C   0  0  0  0  0  0  0  0  0  0  0  0
   20.1958  -14.4509  -15.9911 S   0  0  0  0  0  0  0  0  0  0  0  0
   23.2757  -16.7418  -17.2014 C   0  0  0  0  0  0  0  0  0  0  0  0
   23.1510  -17.7014  -18.0331 O   0  0  0  0  0  0  0  0  0  0  0  0
   27.7324  -15.4249  -21.7356 O   0  0  0  0  0  0  0  0  0  0  0  0
   27.4734  -15.9261  -20.4493 C   0  0  0  0  0  0  0  0  0  0  0  0
   27.1034  -15.0769  -19.4243 C   0  0  0  0  0  0  0  0  0  0  0  0
   26.8570  -15.6023  -18.1758 C   0  0  0  0  0  0  0  0  0  0  0  0
   26.9660  -16.9442  -17.9117 C   0  0  0  0  0  0  0  0  0  0  0  0
   26.6953  -17.4601  -16.5776 C   0  0  0  0  0  0  0  0  0  0  0  0
   25.2897  -17.9877  -16.3959 C   0  0  2  0  0  0  0  0  0  0  0  0
   24.3732  -16.8509  -16.3212 N   0  0  0  0  0  0  0  0  0  0  0  0
   25.1315  -18.8879  -15.2419 C   0  0  0  0  0  0  0  0  0  0  0  0
   26.0174  -18.9684  -14.3276 O   0  0  0  0  0  0  0  0  0  0  0  0
   27.3323  -17.7911  -18.9241 C   0  0  0  0  0  0  0  0  0  0  0  0
   27.5764  -17.2660  -20.1623 C   0  0  0  0  0  0  0  0  0  0  0  0
   23.9912  -19.7157  -15.0741 N   0  0  0  0  0  0  0  0  0  0  0  0
   23.8247  -20.6071  -13.9029 C   0  0  1  0  0  0  0  0  0  0  0  0
   24.0713  -19.6974  -12.7232 C   0  0  0  0  0  0  0  0  0  0  0  0
   23.8714  -20.2702  -11.4039 C   0  0  0  0  0  0  0  0  0  0  0  0
   24.7771  -21.0016  -10.6759 C   0  0  0  0  0  0  0  0  0  0  0  0
   24.2319  -21.3904   -9.5082 N   0  0  0  0  0  0  0  0  0  0  0  0
   22.9650  -20.9075   -9.4789 C   0  0  0  0  0  0  0  0  0  0  0  0
   21.9823  -21.0022   -8.5192 C   0  0  0  0  0  0  0  0  0  0  0  0
   20.7453  -20.4143   -8.6844 C   0  0  0  0  0  0  0  0  0  0  0  0
   20.5006  -19.7118   -9.8555 C   0  0  0  0  0  0  0  0  0  0  0  0
   21.4867  -19.6257  -10.8029 C   0  0  0  0  0  0  0  0  0  0  0  0
   22.7225  -20.2132  -10.6389 C   0  0  0  0  0  0  0  0  0  0  0  0
   22.5769  -21.3368  -13.9168 C   0  0  0  0  0  0  0  0  0  0  0  0
   21.4908  -20.8799  -14.6422 O   0  0  0  0  0  0  0  0  0  0  0  0
   22.4361  -22.4037  -13.2697 O   0  0  0  0  0  0  0  0  0  0  0  0
  2  3  1  0
  2  1  1  6
  3  4  1  0
  5  2  1  0
  6  5  2  0
  8  7  1  0
  8  9  2  0
 10  9  1  0
 11 10  2  0
 12 11  1  0
 13 12  1  1
 13 14  1  0
 14  5  1  0
 15 13  1  0
 15 19  1  0
 16 15  2  0
 17 18  2  0
 17 11  1  0
 18  8  1  0
 20 21  1  1
 20 19  1  0
 20 31  1  0
 22 21  1  0
 22 23  2  0
 24 23  1  0
 25 30  2  0
 25 24  1  0
 26 25  1  0
 27 28  1  0
 27 26  2  0
 28 29  2  0
 29 30  1  0
 30 22  1  0
 31 32  1  0
 33 31  2  0
M  END
$$$$
