CYW.pdb
     RDKit          3D

 33 35  0  0  1  0  0  0  0  0999 V2000
   27.9616  -20.5618  -16.0992 N   0  0  0  0  0  0  0  0  0  0  0  0
   28.6066  -20.6342  -14.7744 C   0  0  1  0  0  0  0  0  0  0  0  0
   29.8889  -19.8244  -14.9413 C   0  0  0  0  0  0  0  0  0  0  0  0
   31.0461  -20.7338  -15.9757 S   0  0  0  0  0  0  0  0  0  0  0  0
   27.6836  -20.0558  -13.7983 C   0  0  0  0  0  0  0  0  0  0  0  0
   27.1248  -18.9361  -14.0472 O   0  0  0  0  0  0  0  0  0  0  0  0
   19.6432  -19.9371  -11.4216 O   0  0  0  0  0  0  0  0  0  0  0  0
   20.9706  -20.1857  -11.8076 C   0  0  0  0  0  0  0  0  0  0  0  0
   21.5728  -21.3952  -11.5192 C   0  0  0  0  0  0  0  0  0  0  0  0
   22.8754  -21.6050  -11.9126 C   0  0  0  0  0  0  0  0  0  0  0  0
   23.6000  -20.6525  -12.5834 C   0  0  0  0  0  0  0  0  0  0  0  0
   24.9751  -20.9144  -12.9831 C   0  0  0  0  0  0  0  0  0  0  0  0
   26.0066  -20.4422  -11.9829 C   0  0  2  0  0  0  0  0  0  0  0  0
   27.3358  -20.6365  -12.5600 N   0  0  0  0  0  0  0  0  0  0  0  0
   25.8927  -21.0763  -10.6592 C   0  0  0  0  0  0  0  0  0  0  0  0
   25.9645  -22.3416  -10.5132 O   0  0  0  0  0  0  0  0  0  0  0  0
   23.0082  -19.4514  -12.8722 C   0  0  0  0  0  0  0  0  0  0  0  0
   21.7149  -19.2465  -12.4801 C   0  0  0  0  0  0  0  0  0  0  0  0
   25.6989  -20.3256   -9.4707 N   0  0  0  0  0  0  0  0  0  0  0  0
   25.2556  -20.9500   -8.2027 C   0  0  1  0  0  0  0  0  0  0  0  0
   25.4790  -19.8675   -7.1739 C   0  0  0  0  0  0  0  0  0  0  0  0
   26.8482  -19.4254   -6.9779 C   0  0  0  0  0  0  0  0  0  0  0  0
   27.5109  -18.4534   -7.6858 C   0  0  0  0  0  0  0  0  0  0  0  0
   28.7759  -18.3330   -7.2414 N   0  0  0  0  0  0  0  0  0  0  0  0
   28.9338  -19.2325   -6.2388 C   0  0  0  0  0  0  0  0  0  0  0  0
   30.0184  -19.5154   -5.4393 C   0  0  0  0  0  0  0  0  0  0  0  0
   29.9621  -20.4751   -4.4499 C   0  0  0  0  0  0  0  0  0  0  0  0
   28.7724  -21.1654   -4.2683 C   0  0  0  0  0  0  0  0  0  0  0  0
   27.7006  -20.8748   -5.0711 C   0  0  0  0  0  0  0  0  0  0  0  0
   27.7563  -19.9166   -6.0600 C   0  0  0  0  0  0  0  0  0  0  0  0
   23.9270  -21.5141   -8.2809 C   0  0  0  0  0  0  0  0  0  0  0  0
   22.9580  -20.9487   -9.0907 O   0  0  0  0  0  0  0  0  0  0  0  0
   23.6078  -22.5300   -7.6155 O   0  0  0  0  0  0  0  0  0  0  0  0
  2  3  1  0
  2  1  1  6
  3  4  1  0
  5  2  1  0
  6  5  2  0
  8  7  1  0
  8  9  2  0
 10  9  1  0
 11 10  2  0
 12 11  1  0
 13 12  1  6
 13 14  1  0
 14  5  1  0
 15 13  1  0
 15 19  1  0
 16 15  2  0
 17 18  2  0
 17 11  1  0
 18  8  1  0
 20 21  1  1
 20 19  1  0
 20 31  1  0
 22 21  1  0
 22 23  2  0
 24 23  1  0
 25 30  2  0
 25 24  1  0
 26 25  1  0
 27 28  1  0
 27 26  2  0
 28 29  2  0
 29 30  1  0
 30 22  1  0
 31 32  1  0
 33 31  2  0
M  END
$$$$
