CYW.pdb
     RDKit          3D

 33 35  0  0  1  0  0  0  0  0999 V2000
   18.8507   -1.4893  -17.7196 N   0  0  0  0  0  0  0  0  0  0  0  0
   20.1306   -2.2230  -17.7078 C   0  0  1  0  0  0  0  0  0  0  0  0
   20.5620   -2.1927  -16.2446 C   0  0  0  0  0  0  0  0  0  0  0  0
   20.8835   -0.4945  -15.7457 S   0  0  0  0  0  0  0  0  0  0  0  0
   19.8729   -3.5746  -18.2040 C   0  0  0  0  0  0  0  0  0  0  0  0
   18.6881   -3.9053  -18.5429 O   0  0  0  0  0  0  0  0  0  0  0  0
   18.5693   -3.4403  -24.6008 O   0  0  0  0  0  0  0  0  0  0  0  0
   19.2346   -4.0672  -23.5343 C   0  0  0  0  0  0  0  0  0  0  0  0
   19.1050   -5.4266  -23.3253 C   0  0  0  0  0  0  0  0  0  0  0  0
   19.7713   -6.0082  -22.2702 C   0  0  0  0  0  0  0  0  0  0  0  0
   20.5627   -5.2835  -21.4154 C   0  0  0  0  0  0  0  0  0  0  0  0
   21.2518   -5.9369  -20.3119 C   0  0  0  0  0  0  0  0  0  0  0  0
   20.5136   -5.8598  -18.9942 C   0  0  2  0  0  0  0  0  0  0  0  0
   20.8430   -4.5887  -18.3513 N   0  0  0  0  0  0  0  0  0  0  0  0
   20.7642   -7.0010  -18.0987 C   0  0  0  0  0  0  0  0  0  0  0  0
   20.5494   -8.2031  -18.4678 O   0  0  0  0  0  0  0  0  0  0  0  0
   20.6952   -3.9352  -21.6177 C   0  0  0  0  0  0  0  0  0  0  0  0
   20.0321   -3.3612  -22.6660 C   0  0  0  0  0  0  0  0  0  0  0  0
   21.2587   -6.8373  -16.7787 N   0  0  0  0  0  0  0  0  0  0  0  0
   21.5121   -7.9867  -15.8793 C   0  0  1  0  0  0  0  0  0  0  0  0
   22.4586   -8.8577  -16.6702 C   0  0  0  0  0  0  0  0  0  0  0  0
   23.5855   -9.4209  -15.9480 C   0  0  0  0  0  0  0  0  0  0  0  0
   23.5505  -10.0631  -14.7350 C   0  0  0  0  0  0  0  0  0  0  0  0
   24.7923  -10.4262  -14.3632 N   0  0  0  0  0  0  0  0  0  0  0  0
   25.6374  -10.0170  -15.3418 C   0  0  0  0  0  0  0  0  0  0  0  0
   27.0023  -10.1440  -15.4703 C   0  0  0  0  0  0  0  0  0  0  0  0
   27.6771   -9.6619  -16.5727 C   0  0  0  0  0  0  0  0  0  0  0  0
   26.9455   -9.0343  -17.5707 C   0  0  0  0  0  0  0  0  0  0  0  0
   25.5878   -8.9139  -17.4303 C   0  0  0  0  0  0  0  0  0  0  0  0
   24.9132   -9.3947  -16.3290 C   0  0  0  0  0  0  0  0  0  0  0  0
   21.9388   -7.5900  -14.5564 C   0  0  0  0  0  0  0  0  0  0  0  0
   21.6550   -8.3716  -13.4505 O   0  0  0  0  0  0  0  0  0  0  0  0
   22.5754   -6.5244  -14.3668 O   0  0  0  0  0  0  0  0  0  0  0  0
  2  3  1  0
  2  1  1  1
  3  4  1  0
  5  2  1  0
  6  5  2  0
  8  7  1  0
  8  9  2  0
 10  9  1  0
 11 10  2  0
 12 11  1  0
 13 12  1  6
 13 14  1  0
 14  5  1  0
 15 13  1  0
 15 19  1  0
 16 15  2  0
 17 18  2  0
 17 11  1  0
 18  8  1  0
 20 21  1  6
 20 19  1  0
 20 31  1  0
 22 21  1  0
 22 23  2  0
 24 23  1  0
 25 30  2  0
 25 24  1  0
 26 25  1  0
 27 28  1  0
 27 26  2  0
 28 29  2  0
 29 30  1  0
 30 22  1  0
 31 32  1  0
 33 31  2  0
M  END
$$$$
