CYW.pdb
     RDKit          3D

 33 35  0  0  1  0  0  0  0  0999 V2000
   30.1370  -21.8489  -18.4972 N   0  0  0  0  0  0  0  0  0  0  0  0
   29.7507  -22.6128  -17.2956 C   0  0  1  0  0  0  0  0  0  0  0  0
   31.0803  -23.0726  -16.7050 C   0  0  0  0  0  0  0  0  0  0  0  0
   31.6403  -24.5529  -17.5601 S   0  0  0  0  0  0  0  0  0  0  0  0
   29.0107  -21.7104  -16.4140 C   0  0  0  0  0  0  0  0  0  0  0  0
   29.0578  -20.4518  -16.6187 O   0  0  0  0  0  0  0  0  0  0  0  0
   23.1025  -24.0917  -18.2148 O   0  0  0  0  0  0  0  0  0  0  0  0
   23.9389  -23.1896  -17.5368 C   0  0  0  0  0  0  0  0  0  0  0  0
   24.8969  -22.4671  -18.2215 C   0  0  0  0  0  0  0  0  0  0  0  0
   25.6995  -21.5917  -17.5253 C   0  0  0  0  0  0  0  0  0  0  0  0
   25.5819  -21.4100  -16.1705 C   0  0  0  0  0  0  0  0  0  0  0  0
   26.4497  -20.4732  -15.4715 C   0  0  0  0  0  0  0  0  0  0  0  0
   27.4488  -21.1328  -14.5474 C   0  0  2  0  0  0  0  0  0  0  0  0
   28.2182  -22.1094  -15.3167 N   0  0  0  0  0  0  0  0  0  0  0  0
   26.8472  -21.7398  -13.3488 C   0  0  0  0  0  0  0  0  0  0  0  0
   26.8685  -23.0001  -13.1525 O   0  0  0  0  0  0  0  0  0  0  0  0
   24.6337  -22.1235  -15.4862 C   0  0  0  0  0  0  0  0  0  0  0  0
   23.8387  -22.9919  -16.1806 C   0  0  0  0  0  0  0  0  0  0  0  0
   26.2119  -20.9668  -12.3425 N   0  0  0  0  0  0  0  0  0  0  0  0
   25.5823  -21.5812  -11.1508 C   0  0  1  0  0  0  0  0  0  0  0  0
   26.7349  -21.7674  -10.1934 C   0  0  0  0  0  0  0  0  0  0  0  0
   26.8214  -20.8322   -9.0858 C   0  0  0  0  0  0  0  0  0  0  0  0
   25.9628  -19.7967   -8.8111 C   0  0  0  0  0  0  0  0  0  0  0  0
   26.3740  -19.1270   -7.7182 N   0  0  0  0  0  0  0  0  0  0  0  0
   27.5062  -19.7326   -7.2815 C   0  0  0  0  0  0  0  0  0  0  0  0
   28.3199  -19.4616   -6.2045 C   0  0  0  0  0  0  0  0  0  0  0  0
   29.4349  -20.2243   -5.9252 C   0  0  0  0  0  0  0  0  0  0  0  0
   29.7307  -21.2904   -6.7624 C   0  0  0  0  0  0  0  0  0  0  0  0
   28.9132  -21.5491   -7.8312 C   0  0  0  0  0  0  0  0  0  0  0  0
   27.7995  -20.7872   -8.1112 C   0  0  0  0  0  0  0  0  0  0  0  0
   24.4412  -20.8389  -10.6644 C   0  0  0  0  0  0  0  0  0  0  0  0
   24.1388  -19.5851  -11.1658 O   0  0  0  0  0  0  0  0  0  0  0  0
   23.6914  -21.3036   -9.7708 O   0  0  0  0  0  0  0  0  0  0  0  0
  2  3  1  0
  2  1  1  6
  3  4  1  0
  5  2  1  0
  6  5  2  0
  8  7  1  0
  8  9  2  0
 10  9  1  0
 11 10  2  0
 12 11  1  0
 13 12  1  6
 13 14  1  0
 14  5  1  0
 15 13  1  0
 15 19  1  0
 16 15  2  0
 17 18  2  0
 17 11  1  0
 18  8  1  0
 20 21  1  1
 20 19  1  0
 20 31  1  0
 22 21  1  0
 22 23  2  0
 24 23  1  0
 25 30  2  0
 25 24  1  0
 26 25  1  0
 27 28  1  0
 27 26  2  0
 28 29  2  0
 29 30  1  0
 30 22  1  0
 31 32  1  0
 33 31  2  0
M  END
$$$$
