CYW.pdb
     RDKit          3D

 33 35  0  0  1  0  0  0  0  0999 V2000
   30.1398  -22.3403  -18.4314 N   0  0  0  0  0  0  0  0  0  0  0  0
   29.2739  -23.1834  -17.5853 C   0  0  1  0  0  0  0  0  0  0  0  0
   30.2452  -23.8738  -16.6325 C   0  0  0  0  0  0  0  0  0  0  0  0
   30.7360  -25.4628  -17.3184 S   0  0  0  0  0  0  0  0  0  0  0  0
   28.3261  -22.3030  -16.9028 C   0  0  0  0  0  0  0  0  0  0  0  0
   28.7021  -21.1425  -16.5289 O   0  0  0  0  0  0  0  0  0  0  0  0
   20.8705  -18.3464  -14.3102 O   0  0  0  0  0  0  0  0  0  0  0  0
   21.8591  -19.1372  -14.9188 C   0  0  0  0  0  0  0  0  0  0  0  0
   21.8053  -20.5154  -14.8403 C   0  0  0  0  0  0  0  0  0  0  0  0
   22.7910  -21.2595  -15.4486 C   0  0  0  0  0  0  0  0  0  0  0  0
   23.8291  -20.6793  -16.1328 C   0  0  0  0  0  0  0  0  0  0  0  0
   24.8511  -21.5022  -16.7634 C   0  0  0  0  0  0  0  0  0  0  0  0
   26.1094  -21.6588  -15.9391 C   0  0  2  0  0  0  0  0  0  0  0  0
   26.9841  -22.6224  -16.6055 N   0  0  0  0  0  0  0  0  0  0  0  0
   25.8647  -22.0294  -14.5356 C   0  0  0  0  0  0  0  0  0  0  0  0
   25.5354  -23.2161  -14.2029 O   0  0  0  0  0  0  0  0  0  0  0  0
   23.8877  -19.3132  -16.2142 C   0  0  0  0  0  0  0  0  0  0  0  0
   22.9074  -18.5776  -15.6089 C   0  0  0  0  0  0  0  0  0  0  0  0
   25.9804  -21.0974  -13.4718 N   0  0  0  0  0  0  0  0  0  0  0  0
   25.5838  -21.4268  -12.0832 C   0  0  1  0  0  0  0  0  0  0  0  0
   26.8259  -21.1312  -11.2769 C   0  0  0  0  0  0  0  0  0  0  0  0
   26.6265  -20.7030   -9.9038 C   0  0  0  0  0  0  0  0  0  0  0  0
   25.4401  -20.3373   -9.3173 C   0  0  0  0  0  0  0  0  0  0  0  0
   25.6447  -19.9743   -8.0373 N   0  0  0  0  0  0  0  0  0  0  0  0
   26.9721  -20.1060   -7.7925 C   0  0  0  0  0  0  0  0  0  0  0  0
   27.7084  -19.8818   -6.6509 C   0  0  0  0  0  0  0  0  0  0  0  0
   29.0705  -20.0965   -6.6101 C   0  0  0  0  0  0  0  0  0  0  0  0
   29.7008  -20.5509   -7.7595 C   0  0  0  0  0  0  0  0  0  0  0  0
   28.9566  -20.7694   -8.8892 C   0  0  0  0  0  0  0  0  0  0  0  0
   27.5960  -20.5546   -8.9309 C   0  0  0  0  0  0  0  0  0  0  0  0
   24.3639  -20.7708  -11.6696 C   0  0  0  0  0  0  0  0  0  0  0  0
   23.4025  -21.4463  -10.9390 O   0  0  0  0  0  0  0  0  0  0  0  0
   24.1349  -19.5713  -11.9623 O   0  0  0  0  0  0  0  0  0  0  0  0
  2  3  1  0
  2  1  1  6
  3  4  1  0
  5  2  1  0
  6  5  2  0
  8  7  1  0
  8  9  2  0
 10  9  1  0
 11 10  2  0
 12 11  1  0
 13 12  1  6
 13 14  1  0
 14  5  1  0
 15 13  1  0
 15 19  1  0
 16 15  2  0
 17 18  2  0
 17 11  1  0
 18  8  1  0
 20 21  1  1
 20 19  1  0
 20 31  1  0
 22 21  1  0
 22 23  2  0
 24 23  1  0
 25 30  2  0
 25 24  1  0
 26 25  1  0
 27 28  1  0
 27 26  2  0
 28 29  2  0
 29 30  1  0
 30 22  1  0
 31 32  1  0
 33 31  2  0
M  END
$$$$
