CYW.pdb
     RDKit          3D

 33 35  0  0  1  0  0  0  0  0999 V2000
   30.2090  -25.4179  -17.9173 N   0  0  0  0  0  0  0  0  0  0  0  0
   28.8221  -25.2816  -17.4332 C   0  0  1  0  0  0  0  0  0  0  0  0
   28.6694  -26.4137  -16.4216 C   0  0  0  0  0  0  0  0  0  0  0  0
   28.3972  -27.9656  -17.2897 S   0  0  0  0  0  0  0  0  0  0  0  0
   28.6882  -23.9536  -16.8353 C   0  0  0  0  0  0  0  0  0  0  0  0
   29.7111  -23.3876  -16.3241 O   0  0  0  0  0  0  0  0  0  0  0  0
   26.3678  -15.6812  -15.0110 O   0  0  0  0  0  0  0  0  0  0  0  0
   26.5129  -16.9756  -15.5366 C   0  0  0  0  0  0  0  0  0  0  0  0
   27.7129  -17.3811  -16.0881 C   0  0  0  0  0  0  0  0  0  0  0  0
   27.8198  -18.6571  -16.5940 C   0  0  0  0  0  0  0  0  0  0  0  0
   26.7735  -19.5442  -16.5700 C   0  0  0  0  0  0  0  0  0  0  0  0
   26.9280  -20.8854  -17.1144 C   0  0  0  0  0  0  0  0  0  0  0  0
   27.4603  -21.8944  -16.1215 C   0  0  2  0  0  0  0  0  0  0  0  0
   27.4930  -23.2066  -16.7654 N   0  0  0  0  0  0  0  0  0  0  0  0
   26.7194  -21.9330  -14.8500 C   0  0  0  0  0  0  0  0  0  0  0  0
   25.6125  -22.5571  -14.7375 O   0  0  0  0  0  0  0  0  0  0  0  0
   25.5813  -19.1478  -16.0242 C   0  0  0  0  0  0  0  0  0  0  0  0
   25.4786  -17.8803  -15.5230 C   0  0  0  0  0  0  0  0  0  0  0  0
   27.1870  -21.2847  -13.6776 N   0  0  0  0  0  0  0  0  0  0  0  0
   26.4076  -21.2660  -12.4181 C   0  0  1  0  0  0  0  0  0  0  0  0
   27.4267  -20.8806  -11.3726 C   0  0  0  0  0  0  0  0  0  0  0  0
   26.9226  -20.6100  -10.0380 C   0  0  0  0  0  0  0  0  0  0  0  0
   25.6359  -20.2771   -9.6935 C   0  0  0  0  0  0  0  0  0  0  0  0
   25.5461  -20.0735   -8.3659 N   0  0  0  0  0  0  0  0  0  0  0  0
   26.7824  -20.2761   -7.8466 C   0  0  0  0  0  0  0  0  0  0  0  0
   27.2412  -20.2112   -6.5501 C   0  0  0  0  0  0  0  0  0  0  0  0
   28.5573  -20.4733   -6.2303 C   0  0  0  0  0  0  0  0  0  0  0  0
   29.4299  -20.8102   -7.2549 C   0  0  0  0  0  0  0  0  0  0  0  0
   28.9609  -20.8705   -8.5410 C   0  0  0  0  0  0  0  0  0  0  0  0
   27.6464  -20.6082   -8.8613 C   0  0  0  0  0  0  0  0  0  0  0  0
   25.2148  -20.4536  -12.4998 C   0  0  0  0  0  0  0  0  0  0  0  0
   24.0144  -20.8928  -11.9700 O   0  0  0  0  0  0  0  0  0  0  0  0
   25.2271  -19.3280  -13.0562 O   0  0  0  0  0  0  0  0  0  0  0  0
  2  3  1  0
  2  1  1  1
  3  4  1  0
  5  2  1  0
  6  5  2  0
  8  7  1  0
  8  9  2  0
 10  9  1  0
 11 10  2  0
 12 11  1  0
 13 12  1  6
 13 14  1  0
 14  5  1  0
 15 13  1  0
 15 19  1  0
 16 15  2  0
 17 18  2  0
 17 11  1  0
 18  8  1  0
 20 21  1  1
 20 19  1  0
 20 31  1  0
 22 21  1  0
 22 23  2  0
 24 23  1  0
 25 30  2  0
 25 24  1  0
 26 25  1  0
 27 28  1  0
 27 26  2  0
 28 29  2  0
 29 30  1  0
 30 22  1  0
 31 32  1  0
 33 31  2  0
M  END
$$$$
