NIS.pdb
     RDKit          3D

 23 22  0  0  1  0  0  0  0  0999 V2000
   18.0618  -22.8357  -14.7535 N   0  0  0  0  0  0  0  0  0  0  0  0
   19.3563  -22.9246  -14.1682 C   0  0  0  0  0  0  0  0  0  0  0  0
   19.5625  -23.8909  -13.3879 O   0  0  0  0  0  0  0  0  0  0  0  0
   20.4328  -21.9173  -14.4620 C   0  0  0  0  0  0  0  0  0  0  0  0
   21.0013  -21.4832  -13.1551 C   0  0  2  0  0  0  0  0  0  0  0  0
   19.9840  -20.8386  -12.3561 N   0  0  0  0  0  0  0  0  0  0  0  0
   22.2471  -20.7209  -13.2402 C   0  0  0  0  0  0  0  0  0  0  0  0
   22.1515  -19.4586  -13.1144 O   0  0  0  0  0  0  0  0  0  0  0  0
   26.6989  -21.3789  -10.3299 C   0  0  0  0  0  0  0  0  0  0  0  0
   25.5781  -20.9108  -11.1917 C   0  0  0  0  0  0  0  0  0  0  0  0
   25.8591  -20.8974  -12.6635 C   0  0  2  0  0  0  0  0  0  0  0  0
   26.9822  -19.8673  -12.8529 C   0  0  0  0  0  0  0  0  0  0  0  0
   24.6898  -20.4348  -13.5040 C   0  0  2  0  0  0  0  0  0  0  0  0
   23.5453  -21.2804  -13.4511 N   0  0  0  0  0  0  0  0  0  0  0  0
   25.1939  -20.4265  -14.9237 C   0  0  0  0  0  0  0  0  0  0  0  0
   25.6684  -21.4817  -15.4296 O   0  0  0  0  0  0  0  0  0  0  0  0
   24.8218  -16.9100  -17.2008 O   0  0  0  0  0  0  0  0  0  0  0  0
   24.7053  -18.1413  -17.8347 C   0  0  0  0  0  0  0  0  0  0  0  0
   25.5168  -19.1517  -17.0524 C   0  0  2  0  0  0  0  0  0  0  0  0
   25.1263  -19.2229  -15.6739 N   0  0  0  0  0  0  0  0  0  0  0  0
   26.9683  -18.9169  -17.2258 C   0  0  0  0  0  0  0  0  0  0  0  0
   27.6267  -18.5230  -16.2308 O   0  0  0  0  0  0  0  0  0  0  0  0
   27.6506  -19.1043  -18.4182 O   0  0  0  0  0  0  0  0  0  0  0  0
  2  1  1  0
  3  2  2  0
  4  2  1  0
  4  5  1  0
  5  6  1  6
  7 14  1  0
  7  5  1  0
  8  7  2  0
 10  9  1  0
 11 10  1  0
 11 12  1  1
 13 14  1  6
 13 11  1  0
 15 13  1  0
 16 15  2  0
 17 18  1  0
 19 18  1  1
 19 20  1  0
 20 15  1  0
 21 19  1  0
 21 23  1  0
 22 21  2  0
M  END
$$$$
