NIS.pdb
     RDKit          3D

 23 22  0  0  1  0  0  0  0  0999 V2000
   24.8279   -9.9314  -23.0292 N   0  0  0  0  0  0  0  0  0  0  0  0
   23.8575   -8.9248  -22.7626 C   0  0  0  0  0  0  0  0  0  0  0  0
   23.6658   -8.0668  -23.6638 O   0  0  0  0  0  0  0  0  0  0  0  0
   23.0924   -8.8803  -21.4694 C   0  0  0  0  0  0  0  0  0  0  0  0
   23.5673  -10.0194  -20.6347 C   0  0  2  0  0  0  0  0  0  0  0  0
   22.9908  -11.2587  -21.1045 N   0  0  0  0  0  0  0  0  0  0  0  0
   23.4418   -9.8277  -19.1898 C   0  0  0  0  0  0  0  0  0  0  0  0
   22.3239  -10.1404  -18.6694 O   0  0  0  0  0  0  0  0  0  0  0  0
   27.5627  -10.9259  -16.1885 C   0  0  0  0  0  0  0  0  0  0  0  0
   26.0786  -10.8618  -16.2968 C   0  0  0  0  0  0  0  0  0  0  0  0
   25.4745   -9.5079  -16.0795 C   0  0  2  0  0  0  0  0  0  0  0  0
   25.0165   -9.4984  -14.6137 C   0  0  0  0  0  0  0  0  0  0  0  0
   24.2495   -9.2431  -16.9262 C   0  0  2  0  0  0  0  0  0  0  0  0
   24.4667   -9.3224  -18.3313 N   0  0  0  0  0  0  0  0  0  0  0  0
   23.8340   -7.8319  -16.6011 C   0  0  0  0  0  0  0  0  0  0  0  0
   24.5972   -6.8683  -16.8898 O   0  0  0  0  0  0  0  0  0  0  0  0
   21.4112   -4.3154  -16.9765 O   0  0  0  0  0  0  0  0  0  0  0  0
   21.9254   -5.5877  -17.1965 C   0  0  0  0  0  0  0  0  0  0  0  0
   21.9947   -6.3036  -15.8646 C   0  0  2  0  0  0  0  0  0  0  0  0
   22.5815   -7.6084  -15.9707 N   0  0  0  0  0  0  0  0  0  0  0  0
   20.6712   -6.3223  -15.2012 C   0  0  0  0  0  0  0  0  0  0  0  0
   19.8985   -7.2813  -15.4502 O   0  0  0  0  0  0  0  0  0  0  0  0
   20.2276   -5.3476  -14.3204 O   0  0  0  0  0  0  0  0  0  0  0  0
  2  1  1  0
  3  2  2  0
  4  2  1  0
  4  5  1  0
  5  6  1  6
  7 14  1  0
  7  5  1  0
  8  7  2  0
 10  9  1  0
 11 10  1  0
 11 12  1  1
 13 14  1  6
 13 11  1  0
 15 13  1  0
 16 15  2  0
 17 18  1  0
 19 18  1  6
 19 20  1  0
 20 15  1  0
 21 19  1  0
 21 23  1  0
 22 21  2  0
M  END
$$$$
