NIS.pdb
     RDKit          3D

 23 22  0  0  1  0  0  0  0  0999 V2000
   18.7809  -13.0867  -19.2066 N   0  0  0  0  0  0  0  0  0  0  0  0
   18.0937  -12.1737  -18.3578 C   0  0  0  0  0  0  0  0  0  0  0  0
   16.9011  -11.9051  -18.6587 O   0  0  0  0  0  0  0  0  0  0  0  0
   18.7524  -11.5545  -17.1568 C   0  0  0  0  0  0  0  0  0  0  0  0
   20.1605  -12.0402  -17.1247 C   0  0  2  0  0  0  0  0  0  0  0  0
   20.2010  -13.4328  -16.7401 N   0  0  0  0  0  0  0  0  0  0  0  0
   21.0925  -11.1995  -16.3732 C   0  0  0  0  0  0  0  0  0  0  0  0
   20.8160  -10.9983  -15.1479 O   0  0  0  0  0  0  0  0  0  0  0  0
   27.0043  -10.0559  -15.3880 C   0  0  0  0  0  0  0  0  0  0  0  0
   25.5884   -9.5966  -15.3395 C   0  0  0  0  0  0  0  0  0  0  0  0
   24.6170  -10.4175  -16.1319 C   0  0  2  0  0  0  0  0  0  0  0  0
   25.0523  -10.2600  -17.5962 C   0  0  0  0  0  0  0  0  0  0  0  0
   23.1885   -9.9288  -16.0413 C   0  0  2  0  0  0  0  0  0  0  0  0
   22.2737  -10.5957  -16.9051 N   0  0  0  0  0  0  0  0  0  0  0  0
   23.2338   -8.4783  -16.4462 C   0  0  0  0  0  0  0  0  0  0  0  0
   23.3713   -8.1680  -17.6624 O   0  0  0  0  0  0  0  0  0  0  0  0
   22.5768   -5.4284  -13.5473 O   0  0  0  0  0  0  0  0  0  0  0  0
   22.0908   -5.3336  -14.8459 C   0  0  0  0  0  0  0  0  0  0  0  0
   23.0398   -6.0802  -15.7588 C   0  0  2  0  0  0  0  0  0  0  0  0
   23.1204   -7.4777  -15.4451 N   0  0  0  0  0  0  0  0  0  0  0  0
   24.3664   -5.4240  -15.7983 C   0  0  0  0  0  0  0  0  0  0  0  0
   25.3543   -6.0602  -15.3535 O   0  0  0  0  0  0  0  0  0  0  0  0
   24.5902   -4.1493  -16.2959 O   0  0  0  0  0  0  0  0  0  0  0  0
  2  1  1  0
  3  2  2  0
  4  2  1  0
  4  5  1  0
  5  6  1  1
  7 14  1  0
  7  5  1  0
  8  7  2  0
 10  9  1  0
 11 10  1  0
 11 12  1  6
 13 14  1  6
 13 11  1  0
 15 13  1  0
 16 15  2  0
 17 18  1  0
 19 18  1  1
 19 20  1  0
 20 15  1  0
 21 19  1  0
 21 23  1  0
 22 21  2  0
M  END
$$$$
