NIS.pdb
     RDKit          3D

 23 22  0  0  1  0  0  0  0  0999 V2000
   20.5158  -10.2109  -22.8278 N   0  0  0  0  0  0  0  0  0  0  0  0
   20.2140  -11.0608  -21.7266 C   0  0  0  0  0  0  0  0  0  0  0  0
   20.2895  -12.3013  -21.9283 O   0  0  0  0  0  0  0  0  0  0  0  0
   19.8229  -10.5126  -20.3826 C   0  0  0  0  0  0  0  0  0  0  0  0
   20.3873  -11.4268  -19.3504 C   0  0  2  0  0  0  0  0  0  0  0  0
   19.6488  -12.6690  -19.3243 N   0  0  0  0  0  0  0  0  0  0  0  0
   20.5760  -10.8317  -18.0274 C   0  0  0  0  0  0  0  0  0  0  0  0
   19.5715  -10.8495  -17.2470 O   0  0  0  0  0  0  0  0  0  0  0  0
   22.1079   -9.9710  -12.9297 C   0  0  0  0  0  0  0  0  0  0  0  0
   23.0624   -9.6494  -14.0269 C   0  0  0  0  0  0  0  0  0  0  0  0
   22.8333  -10.3797  -15.3151 C   0  0  2  0  0  0  0  0  0  0  0  0
   24.1933  -10.3810  -16.0283 C   0  0  0  0  0  0  0  0  0  0  0  0
   21.8512   -9.6944  -16.2390 C   0  0  2  0  0  0  0  0  0  0  0  0
   21.7874  -10.2400  -17.5528 N   0  0  0  0  0  0  0  0  0  0  0  0
   22.3321   -8.2711  -16.3518 C   0  0  0  0  0  0  0  0  0  0  0  0
   23.3401   -8.0014  -17.0628 O   0  0  0  0  0  0  0  0  0  0  0  0
   19.8929   -5.1116  -16.1642 O   0  0  0  0  0  0  0  0  0  0  0  0
   21.2136   -5.0229  -16.5878 C   0  0  0  0  0  0  0  0  0  0  0  0
   22.0602   -5.8789  -15.6702 C   0  0  2  0  0  0  0  0  0  0  0  0
   21.6379   -7.2497  -15.6510 N   0  0  0  0  0  0  0  0  0  0  0  0
   22.1437   -5.2856  -14.3163 C   0  0  0  0  0  0  0  0  0  0  0  0
   21.6679   -5.9386  -13.3541 O   0  0  0  0  0  0  0  0  0  0  0  0
   22.7147   -4.0526  -14.0402 O   0  0  0  0  0  0  0  0  0  0  0  0
  2  1  1  0
  3  2  2  0
  4  2  1  0
  4  5  1  0
  5  6  1  1
  7 14  1  0
  7  5  1  0
  8  7  2  0
 10  9  1  0
 11 10  1  0
 11 12  1  6
 13 14  1  6
 13 11  1  0
 15 13  1  0
 16 15  2  0
 17 18  1  0
 19 18  1  6
 19 20  1  0
 20 15  1  0
 21 19  1  0
 21 23  1  0
 22 21  2  0
M  END
$$$$
