NIS.pdb
     RDKit          3D

 23 22  0  0  1  0  0  0  0  0999 V2000
   28.7344  -19.9510  -16.7222 N   0  0  0  0  0  0  0  0  0  0  0  0
   27.4551  -19.6404  -17.2636 C   0  0  0  0  0  0  0  0  0  0  0  0
   27.4054  -18.7049  -18.1047 O   0  0  0  0  0  0  0  0  0  0  0  0
   26.2164  -20.3886  -16.8566 C   0  0  0  0  0  0  0  0  0  0  0  0
   26.6113  -21.3520  -15.7909 C   0  0  2  0  0  0  0  0  0  0  0  0
   27.0503  -22.5970  -16.3793 N   0  0  0  0  0  0  0  0  0  0  0  0
   25.6346  -21.5265  -14.7159 C   0  0  0  0  0  0  0  0  0  0  0  0
   24.7562  -22.4308  -14.8866 O   0  0  0  0  0  0  0  0  0  0  0  0
   26.6237  -20.6369   -9.2984 C   0  0  0  0  0  0  0  0  0  0  0  0
   26.0378  -21.2796  -10.5075 C   0  0  0  0  0  0  0  0  0  0  0  0
   24.8987  -20.5413  -11.1418 C   0  0  2  0  0  0  0  0  0  0  0  0
   23.6750  -20.8552  -10.2686 C   0  0  0  0  0  0  0  0  0  0  0  0
   24.5726  -21.0092  -12.5427 C   0  0  2  0  0  0  0  0  0  0  0  0
   25.5938  -20.7678  -13.5053 N   0  0  0  0  0  0  0  0  0  0  0  0
   23.3538  -20.2252  -12.9545 C   0  0  0  0  0  0  0  0  0  0  0  0
   23.3237  -18.9740  -12.7873 O   0  0  0  0  0  0  0  0  0  0  0  0
   20.4404  -21.9499  -15.4122 O   0  0  0  0  0  0  0  0  0  0  0  0
   20.6157  -20.5740  -15.3241 C   0  0  0  0  0  0  0  0  0  0  0  0
   21.0410  -20.2437  -13.9094 C   0  0  2  0  0  0  0  0  0  0  0  0
   22.2515  -20.9124  -13.5280 N   0  0  0  0  0  0  0  0  0  0  0  0
   19.9336  -20.4733  -12.9538 C   0  0  0  0  0  0  0  0  0  0  0  0
   18.8852  -19.7943  -13.0895 O   0  0  0  0  0  0  0  0  0  0  0  0
   19.9783  -21.3915  -11.9158 O   0  0  0  0  0  0  0  0  0  0  0  0
  2  1  1  0
  3  2  2  0
  4  2  1  0
  4  5  1  0
  5  6  1  6
  7 14  1  0
  7  5  1  0
  8  7  2  0
 10  9  1  0
 11 10  1  0
 11 12  1  1
 13 14  1  6
 13 11  1  0
 15 13  1  0
 16 15  2  0
 17 18  1  0
 19 18  1  6
 19 20  1  0
 20 15  1  0
 21 19  1  0
 21 23  1  0
 22 21  2  0
M  END
$$$$
