NIS.pdb
     RDKit          3D

 23 22  0  0  1  0  0  0  0  0999 V2000
   19.5895  -23.4996  -14.4737 N   0  0  0  0  0  0  0  0  0  0  0  0
   19.3020  -22.1061  -14.5155 C   0  0  0  0  0  0  0  0  0  0  0  0
   18.0887  -21.7741  -14.4642 O   0  0  0  0  0  0  0  0  0  0  0  0
   20.3889  -21.0725  -14.6158 C   0  0  0  0  0  0  0  0  0  0  0  0
   21.2903  -21.2632  -13.4450 C   0  0  2  0  0  0  0  0  0  0  0  0
   20.5709  -21.0223  -12.2149 N   0  0  0  0  0  0  0  0  0  0  0  0
   22.5689  -20.5564  -13.5216 C   0  0  0  0  0  0  0  0  0  0  0  0
   22.5347  -19.2974  -13.3423 O   0  0  0  0  0  0  0  0  0  0  0  0
   26.8615  -21.7495  -10.6276 C   0  0  0  0  0  0  0  0  0  0  0  0
   25.8132  -21.1054  -11.4668 C   0  0  0  0  0  0  0  0  0  0  0  0
   26.1474  -20.9661  -12.9209 C   0  0  2  0  0  0  0  0  0  0  0  0
   27.3112  -19.9656  -12.9758 C   0  0  0  0  0  0  0  0  0  0  0  0
   25.0257  -20.3840  -13.7519 C   0  0  2  0  0  0  0  0  0  0  0  0
   23.8358  -21.1659  -13.7795 N   0  0  0  0  0  0  0  0  0  0  0  0
   25.5636  -20.3102  -15.1572 C   0  0  0  0  0  0  0  0  0  0  0  0
   25.8757  -21.3700  -15.7686 O   0  0  0  0  0  0  0  0  0  0  0  0
   25.6899  -16.5828  -17.0012 O   0  0  0  0  0  0  0  0  0  0  0  0
   25.4773  -17.6924  -17.8106 C   0  0  0  0  0  0  0  0  0  0  0  0
   26.1163  -18.8911  -17.1426 C   0  0  2  0  0  0  0  0  0  0  0  0
   25.7114  -19.0400  -15.7745 N   0  0  0  0  0  0  0  0  0  0  0  0
   27.5877  -18.8695  -17.3060 C   0  0  0  0  0  0  0  0  0  0  0  0
   28.2829  -18.4474  -16.3483 O   0  0  0  0  0  0  0  0  0  0  0  0
   28.2505  -19.2859  -18.4505 O   0  0  0  0  0  0  0  0  0  0  0  0
  2  1  1  0
  3  2  2  0
  4  2  1  0
  4  5  1  0
  5  6  1  1
  7 14  1  0
  7  5  1  0
  8  7  2  0
 10  9  1  0
 11 10  1  0
 11 12  1  1
 13 14  1  6
 13 11  1  0
 15 13  1  0
 16 15  2  0
 17 18  1  0
 19 18  1  1
 19 20  1  0
 20 15  1  0
 21 19  1  0
 21 23  1  0
 22 21  2  0
M  END
$$$$
