NIS.pdb
     RDKit          3D

 23 22  0  0  1  0  0  0  0  0999 V2000
   16.8808  -10.8318  -19.4936 N   0  0  0  0  0  0  0  0  0  0  0  0
   16.5518   -9.5335  -19.0116 C   0  0  0  0  0  0  0  0  0  0  0  0
   15.9091   -8.7832  -19.7921 O   0  0  0  0  0  0  0  0  0  0  0  0
   16.9484   -9.0713  -17.6373 C   0  0  0  0  0  0  0  0  0  0  0  0
   17.7298  -10.1728  -17.0082 C   0  0  2  0  0  0  0  0  0  0  0  0
   16.8422  -11.2159  -16.5468 N   0  0  0  0  0  0  0  0  0  0  0  0
   18.7055   -9.7496  -16.0037 C   0  0  0  0  0  0  0  0  0  0  0  0
   18.2592   -9.5355  -14.8318 O   0  0  0  0  0  0  0  0  0  0  0  0
   23.5553  -11.8766  -14.8085 C   0  0  0  0  0  0  0  0  0  0  0  0
   22.2436  -11.1712  -14.8026 C   0  0  0  0  0  0  0  0  0  0  0  0
   22.2990   -9.7051  -15.1070 C   0  0  2  0  0  0  0  0  0  0  0  0
   23.0183   -9.0687  -13.9087 C   0  0  0  0  0  0  0  0  0  0  0  0
   20.9392   -9.0500  -15.2040 C   0  0  2  0  0  0  0  0  0  0  0  0
   20.1029   -9.5611  -16.2371 N   0  0  0  0  0  0  0  0  0  0  0  0
   21.2127   -7.5994  -15.5051 C   0  0  0  0  0  0  0  0  0  0  0  0
   21.7628   -7.2752  -16.5945 O   0  0  0  0  0  0  0  0  0  0  0  0
   19.1575   -4.6808  -15.8539 O   0  0  0  0  0  0  0  0  0  0  0  0
   19.9077   -4.3545  -14.7304 C   0  0  0  0  0  0  0  0  0  0  0  0
   21.1475   -5.2230  -14.7244 C   0  0  2  0  0  0  0  0  0  0  0  0
   20.8443   -6.6144  -14.5511 N   0  0  0  0  0  0  0  0  0  0  0  0
   22.1402   -4.7261  -13.7448 C   0  0  0  0  0  0  0  0  0  0  0  0
   22.2674   -5.3517  -12.6626 O   0  0  0  0  0  0  0  0  0  0  0  0
   22.9413   -3.6121  -13.9445 O   0  0  0  0  0  0  0  0  0  0  0  0
  2  1  1  0
  3  2  2  0
  4  2  1  0
  4  5  1  0
  5  6  1  1
  7 14  1  0
  7  5  1  0
  8  7  2  0
 10  9  1  0
 11 10  1  0
 11 12  1  1
 13 14  1  6
 13 11  1  0
 15 13  1  0
 16 15  2  0
 17 18  1  0
 19 18  1  1
 19 20  1  0
 20 15  1  0
 21 19  1  0
 21 23  1  0
 22 21  2  0
M  END
$$$$
