NIS.pdb
     RDKit          3D

 23 22  0  0  1  0  0  0  0  0999 V2000
   17.5689  -13.1966  -19.8088 N   0  0  0  0  0  0  0  0  0  0  0  0
   17.4201  -11.7912  -19.9785 C   0  0  0  0  0  0  0  0  0  0  0  0
   17.0019  -11.3947  -21.0978 O   0  0  0  0  0  0  0  0  0  0  0  0
   17.7443  -10.8187  -18.8790 C   0  0  0  0  0  0  0  0  0  0  0  0
   18.2801  -11.6074  -17.7342 C   0  0  2  0  0  0  0  0  0  0  0  0
   17.2198  -12.3640  -17.1078 N   0  0  0  0  0  0  0  0  0  0  0  0
   19.0973  -10.8514  -16.7851 C   0  0  0  0  0  0  0  0  0  0  0  0
   18.4797  -10.2821  -15.8298 O   0  0  0  0  0  0  0  0  0  0  0  0
   24.1760  -12.1532  -14.9377 C   0  0  0  0  0  0  0  0  0  0  0  0
   22.7754  -11.6738  -15.1015 C   0  0  0  0  0  0  0  0  0  0  0  0
   22.6292  -10.2805  -15.6331 C   0  0  2  0  0  0  0  0  0  0  0  0
   23.1421   -9.3630  -14.5136 C   0  0  0  0  0  0  0  0  0  0  0  0
   21.1972   -9.8801  -15.9103 C   0  0  2  0  0  0  0  0  0  0  0  0
   20.5178  -10.7064  -16.8501 N   0  0  0  0  0  0  0  0  0  0  0  0
   21.2731   -8.4900  -16.4861 C   0  0  0  0  0  0  0  0  0  0  0  0
   21.4142   -8.3308  -17.7307 O   0  0  0  0  0  0  0  0  0  0  0  0
   19.6575   -4.6171  -17.4280 O   0  0  0  0  0  0  0  0  0  0  0  0
   19.7753   -5.9394  -17.0168 C   0  0  0  0  0  0  0  0  0  0  0  0
   20.9667   -6.0387  -16.0882 C   0  0  2  0  0  0  0  0  0  0  0  0
   21.1840   -7.3744  -15.6122 N   0  0  0  0  0  0  0  0  0  0  0  0
   20.8709   -5.0479  -14.9923 C   0  0  0  0  0  0  0  0  0  0  0  0
   20.9503   -3.8293  -15.2881 O   0  0  0  0  0  0  0  0  0  0  0  0
   20.6987   -5.3781  -13.6567 O   0  0  0  0  0  0  0  0  0  0  0  0
  2  1  1  0
  3  2  2  0
  4  2  1  0
  4  5  1  0
  5  6  1  1
  7 14  1  0
  7  5  1  0
  8  7  2  0
 10  9  1  0
 11 10  1  0
 11 12  1  1
 13 14  1  6
 13 11  1  0
 15 13  1  0
 16 15  2  0
 17 18  1  0
 19 18  1  1
 19 20  1  0
 20 15  1  0
 21 19  1  0
 21 23  1  0
 22 21  2  0
M  END
$$$$
