NIS.pdb
     RDKit          3D

 23 22  0  0  1  0  0  0  0  0999 V2000
   18.2981  -12.6050  -18.7841 N   0  0  0  0  0  0  0  0  0  0  0  0
   18.5231  -13.2135  -17.5171 C   0  0  0  0  0  0  0  0  0  0  0  0
   17.8074  -14.2084  -17.2290 O   0  0  0  0  0  0  0  0  0  0  0  0
   19.5639  -12.6999  -16.5618 C   0  0  0  0  0  0  0  0  0  0  0  0
   20.2604  -11.5669  -17.2333 C   0  0  2  0  0  0  0  0  0  0  0  0
   20.9073  -12.0230  -18.4425 N   0  0  0  0  0  0  0  0  0  0  0  0
   21.1324  -10.7715  -16.3689 C   0  0  0  0  0  0  0  0  0  0  0  0
   20.6479  -10.4105  -15.2494 O   0  0  0  0  0  0  0  0  0  0  0  0
   26.5743  -11.5249  -15.9420 C   0  0  0  0  0  0  0  0  0  0  0  0
   25.1408  -11.2399  -15.6554 C   0  0  0  0  0  0  0  0  0  0  0  0
   24.7208   -9.8119  -15.8275 C   0  0  2  0  0  0  0  0  0  0  0  0
   25.3354   -9.0617  -14.6367 C   0  0  0  0  0  0  0  0  0  0  0  0
   23.2245   -9.6030  -15.7558 C   0  0  2  0  0  0  0  0  0  0  0  0
   22.4690  -10.3751  -16.6837 N   0  0  0  0  0  0  0  0  0  0  0  0
   23.0062   -8.1477  -16.0787 C   0  0  0  0  0  0  0  0  0  0  0  0
   23.1732   -7.7328  -17.2596 O   0  0  0  0  0  0  0  0  0  0  0  0
   20.8152   -4.3967  -16.3789 O   0  0  0  0  0  0  0  0  0  0  0  0
   21.0433   -5.7514  -16.1689 C   0  0  0  0  0  0  0  0  0  0  0  0
   22.2672   -5.8913  -15.2891 C   0  0  2  0  0  0  0  0  0  0  0  0
   22.6136   -7.2612  -15.0414 N   0  0  0  0  0  0  0  0  0  0  0  0
   22.1207   -5.1028  -14.0446 C   0  0  0  0  0  0  0  0  0  0  0  0
   21.7557   -5.7038  -13.0033 O   0  0  0  0  0  0  0  0  0  0  0  0
   22.3608   -3.7403  -13.9530 O   0  0  0  0  0  0  0  0  0  0  0  0
  2  1  1  0
  3  2  2  0
  4  2  1  0
  4  5  1  0
  5  6  1  6
  7 14  1  0
  7  5  1  0
  8  7  2  0
 10  9  1  0
 11 10  1  0
 11 12  1  1
 13 14  1  6
 13 11  1  0
 15 13  1  0
 16 15  2  0
 17 18  1  0
 19 18  1  1
 19 20  1  0
 20 15  1  0
 21 19  1  0
 21 23  1  0
 22 21  2  0
M  END
$$$$
