NIS.pdb
     RDKit          3D

 23 22  0  0  1  0  0  0  0  0999 V2000
   32.6737  -12.6933  -20.8525 N   0  0  0  0  0  0  0  0  0  0  0  0
   31.9642  -11.4638  -20.9583 C   0  0  0  0  0  0  0  0  0  0  0  0
   31.5651  -11.1346  -22.1061 O   0  0  0  0  0  0  0  0  0  0  0  0
   31.6990  -10.5932  -19.7619 C   0  0  0  0  0  0  0  0  0  0  0  0
   32.0850  -11.3733  -18.5527 C   0  0  2  0  0  0  0  0  0  0  0  0
   31.1195  -12.4193  -18.3025 N   0  0  0  0  0  0  0  0  0  0  0  0
   32.3986  -10.5728  -17.3690 C   0  0  0  0  0  0  0  0  0  0  0  0
   31.4666  -10.4310  -16.5148 O   0  0  0  0  0  0  0  0  0  0  0  0
   36.5396   -8.6415  -13.2451 C   0  0  0  0  0  0  0  0  0  0  0  0
   35.2967   -8.4236  -14.0364 C   0  0  0  0  0  0  0  0  0  0  0  0
   35.0380   -9.4265  -15.1193 C   0  0  2  0  0  0  0  0  0  0  0  0
   36.2544   -9.3389  -16.0526 C   0  0  0  0  0  0  0  0  0  0  0  0
   33.8165   -9.1192  -15.9566 C   0  0  2  0  0  0  0  0  0  0  0  0
   33.6560   -9.9469  -17.1041 N   0  0  0  0  0  0  0  0  0  0  0  0
   34.0010   -7.7012  -16.4309 C   0  0  0  0  0  0  0  0  0  0  0  0
   34.7619   -7.4583  -17.4088 O   0  0  0  0  0  0  0  0  0  0  0  0
   32.5678   -3.1049  -16.0304 O   0  0  0  0  0  0  0  0  0  0  0  0
   32.3786   -4.3957  -15.5513 C   0  0  0  0  0  0  0  0  0  0  0  0
   33.4674   -5.2754  -16.1275 C   0  0  2  0  0  0  0  0  0  0  0  0
   33.3107   -6.6545  -15.7646 N   0  0  0  0  0  0  0  0  0  0  0  0
   34.8099   -4.7449  -15.7982 C   0  0  0  0  0  0  0  0  0  0  0  0
   35.4254   -4.1018  -16.6849 O   0  0  0  0  0  0  0  0  0  0  0  0
   35.4339   -4.9120  -14.5713 O   0  0  0  0  0  0  0  0  0  0  0  0
  2  1  1  0
  3  2  2  0
  4  2  1  0
  4  5  1  0
  5  6  1  1
  7 14  1  0
  7  5  1  0
  8  7  2  0
 10  9  1  0
 11 10  1  0
 11 12  1  6
 13 14  1  6
 13 11  1  0
 15 13  1  0
 16 15  2  0
 17 18  1  0
 19 18  1  1
 19 20  1  0
 20 15  1  0
 21 19  1  0
 21 23  1  0
 22 21  2  0
M  END
$$$$
