NIS.pdb
     RDKit          3D

 23 22  0  0  1  0  0  0  0  0999 V2000
   19.1293  -20.4951  -11.9890 N   0  0  0  0  0  0  0  0  0  0  0  0
   18.8977  -20.6600  -13.3837 C   0  0  0  0  0  0  0  0  0  0  0  0
   18.0107  -21.4883  -13.7188 O   0  0  0  0  0  0  0  0  0  0  0  0
   19.6702  -19.8861  -14.4152 C   0  0  0  0  0  0  0  0  0  0  0  0
   20.9304  -20.6359  -14.6788 C   0  0  2  0  0  0  0  0  0  0  0  0
   20.7202  -22.0525  -14.4842 N   0  0  0  0  0  0  0  0  0  0  0  0
   22.1161  -20.1219  -13.9931 C   0  0  0  0  0  0  0  0  0  0  0  0
   22.4322  -18.9130  -14.2319 O   0  0  0  0  0  0  0  0  0  0  0  0
   25.7827  -20.0723   -9.2474 C   0  0  0  0  0  0  0  0  0  0  0  0
   25.8199  -20.1628  -10.7335 C   0  0  0  0  0  0  0  0  0  0  0  0
   24.7035  -20.9417  -11.3598 C   0  0  2  0  0  0  0  0  0  0  0  0
   25.3153  -22.3001  -11.7321 C   0  0  0  0  0  0  0  0  0  0  0  0
   24.1752  -20.3305  -12.6385 C   0  0  2  0  0  0  0  0  0  0  0  0
   22.9344  -20.8658  -13.0876 N   0  0  0  0  0  0  0  0  0  0  0  0
   25.2151  -20.6304  -13.6866 C   0  0  0  0  0  0  0  0  0  0  0  0
   25.3277  -21.8015  -14.1449 O   0  0  0  0  0  0  0  0  0  0  0  0
   29.5818  -20.2061  -14.7824 O   0  0  0  0  0  0  0  0  0  0  0  0
   28.4888  -19.8662  -13.9942 C   0  0  0  0  0  0  0  0  0  0  0  0
   27.2627  -19.8296  -14.8812 C   0  0  2  0  0  0  0  0  0  0  0  0
   26.0570  -19.5826  -14.1441 N   0  0  0  0  0  0  0  0  0  0  0  0
   27.1803  -21.0433  -15.7252 C   0  0  0  0  0  0  0  0  0  0  0  0
   27.0058  -22.1493  -15.1550 O   0  0  0  0  0  0  0  0  0  0  0  0
   27.2833  -21.0390  -17.1079 O   0  0  0  0  0  0  0  0  0  0  0  0
  2  1  1  0
  3  2  2  0
  4  2  1  0
  4  5  1  0
  5  6  1  1
  7 14  1  0
  7  5  1  0
  8  7  2  0
 10  9  1  0
 11 10  1  0
 11 12  1  6
 13 14  1  6
 13 11  1  0
 15 13  1  0
 16 15  2  0
 17 18  1  0
 19 18  1  1
 19 20  1  0
 20 15  1  0
 21 19  1  0
 21 23  1  0
 22 21  2  0
M  END
$$$$
