NIS.pdb
     RDKit          3D

 23 22  0  0  1  0  0  0  0  0999 V2000
   23.9729   -7.6305  -23.9184 N   0  0  0  0  0  0  0  0  0  0  0  0
   24.3950   -8.1279  -22.6533 C   0  0  0  0  0  0  0  0  0  0  0  0
   25.6154   -8.4129  -22.5327 O   0  0  0  0  0  0  0  0  0  0  0  0
   23.4365   -8.3075  -21.5093 C   0  0  0  0  0  0  0  0  0  0  0  0
   23.8623   -9.5240  -20.7619 C   0  0  2  0  0  0  0  0  0  0  0  0
   23.6085  -10.7094  -21.5489 N   0  0  0  0  0  0  0  0  0  0  0  0
   23.3658   -9.6171  -19.3890 C   0  0  0  0  0  0  0  0  0  0  0  0
   22.1951  -10.0917  -19.2383 O   0  0  0  0  0  0  0  0  0  0  0  0
   23.8967  -11.1152  -13.8324 C   0  0  0  0  0  0  0  0  0  0  0  0
   23.9101   -9.7661  -14.4634 C   0  0  0  0  0  0  0  0  0  0  0  0
   24.5166   -9.7010  -15.8321 C   0  0  2  0  0  0  0  0  0  0  0  0
   25.4936   -8.5170  -15.7872 C   0  0  0  0  0  0  0  0  0  0  0  0
   23.5176   -9.4072  -16.9291 C   0  0  2  0  0  0  0  0  0  0  0  0
   24.0873   -9.2204  -18.2207 N   0  0  0  0  0  0  0  0  0  0  0  0
   22.8479   -8.1188  -16.5278 C   0  0  0  0  0  0  0  0  0  0  0  0
   23.5128   -7.0457  -16.4991 O   0  0  0  0  0  0  0  0  0  0  0  0
   19.0309   -5.4444  -16.4044 O   0  0  0  0  0  0  0  0  0  0  0  0
   19.6297   -6.6336  -16.8029 C   0  0  0  0  0  0  0  0  0  0  0  0
   20.7507   -6.9433  -15.8340 C   0  0  2  0  0  0  0  0  0  0  0  0
   21.4698   -8.1337  -16.1862 N   0  0  0  0  0  0  0  0  0  0  0  0
   20.2571   -6.9634  -14.4383 C   0  0  0  0  0  0  0  0  0  0  0  0
   19.6983   -5.9296  -13.9937 O   0  0  0  0  0  0  0  0  0  0  0  0
   20.3715   -8.0521  -13.5873 O   0  0  0  0  0  0  0  0  0  0  0  0
  2  1  1  0
  3  2  2  0
  4  2  1  0
  4  5  1  0
  5  6  1  6
  7 14  1  0
  7  5  1  0
  8  7  2  0
 10  9  1  0
 11 10  1  0
 11 12  1  1
 13 14  1  6
 13 11  1  0
 15 13  1  0
 16 15  2  0
 17 18  1  0
 19 18  1  6
 19 20  1  0
 20 15  1  0
 21 19  1  0
 21 23  1  0
 22 21  2  0
M  END
$$$$
