NIS.pdb
     RDKit          3D

 23 22  0  0  1  0  0  0  0  0999 V2000
   23.6229  -12.2521  -17.1254 N   0  0  0  0  0  0  0  0  0  0  0  0
   22.4249  -12.1854  -16.3596 C   0  0  0  0  0  0  0  0  0  0  0  0
   22.3657  -12.9107  -15.3322 O   0  0  0  0  0  0  0  0  0  0  0  0
   21.2794  -11.2941  -16.7509 C   0  0  0  0  0  0  0  0  0  0  0  0
   20.0213  -12.0408  -16.4692 C   0  0  2  0  0  0  0  0  0  0  0  0
   19.9012  -13.1730  -17.3594 N   0  0  0  0  0  0  0  0  0  0  0  0
   18.8120  -11.2204  -16.4013 C   0  0  0  0  0  0  0  0  0  0  0  0
   18.3768  -10.7562  -17.5029 O   0  0  0  0  0  0  0  0  0  0  0  0
   15.4491  -12.9419  -14.9879 C   0  0  0  0  0  0  0  0  0  0  0  0
   14.9091  -11.5539  -14.9879 C   0  0  0  0  0  0  0  0  0  0  0  0
   15.7973  -10.5169  -14.3705 C   0  0  2  0  0  0  0  0  0  0  0  0
   14.8992   -9.2902  -14.1539 C   0  0  0  0  0  0  0  0  0  0  0  0
   16.9357  -10.0779  -15.2644 C   0  0  2  0  0  0  0  0  0  0  0  0
   18.0930  -10.9057  -15.2068 N   0  0  0  0  0  0  0  0  0  0  0  0
   17.3232   -8.7061  -14.7767 C   0  0  0  0  0  0  0  0  0  0  0  0
   17.7946   -8.5609  -13.6144 O   0  0  0  0  0  0  0  0  0  0  0  0
   18.2920   -4.1630  -16.0425 O   0  0  0  0  0  0  0  0  0  0  0  0
   17.8086   -5.3871  -16.4892 C   0  0  0  0  0  0  0  0  0  0  0  0
   17.5705   -6.2678  -15.2813 C   0  0  2  0  0  0  0  0  0  0  0  0
   17.1499   -7.5918  -15.6394 N   0  0  0  0  0  0  0  0  0  0  0  0
   16.6532   -5.6152  -14.3197 C   0  0  0  0  0  0  0  0  0  0  0  0
   17.1527   -5.0620  -13.3082 O   0  0  0  0  0  0  0  0  0  0  0  0
   15.2747   -5.5745  -14.4632 O   0  0  0  0  0  0  0  0  0  0  0  0
  2  1  1  0
  3  2  2  0
  4  2  1  0
  4  5  1  0
  5  6  1  6
  7 14  1  0
  7  5  1  0
  8  7  2  0
 10  9  1  0
 11 10  1  0
 11 12  1  6
 13 14  1  1
 13 11  1  0
 15 13  1  0
 16 15  2  0
 17 18  1  0
 19 18  1  6
 19 20  1  0
 20 15  1  0
 21 19  1  0
 21 23  1  0
 22 21  2  0
M  END
$$$$
