WTP.pdb
     RDKit          3D

 29 31  0  0  1  0  0  0  0  0999 V2000
    6.0675  -16.6858   21.4280 N   0  0  0  0  0  0  0  0  0  0  0  0
    6.9502  -15.8562   22.2169 C   0  0  1  0  0  0  0  0  0  0  0  0
    6.4846  -14.4253   22.2970 C   0  0  0  0  0  0  0  0  0  0  0  0
    7.3446  -13.5784   23.1541 C   0  0  0  0  0  0  0  0  0  0  0  0
    8.6561  -13.2084   22.9418 C   0  0  0  0  0  0  0  0  0  0  0  0
    9.0768  -12.4417   23.9386 N   0  0  0  0  0  0  0  0  0  0  0  0
    8.0971  -12.2665   24.8396 C   0  0  0  0  0  0  0  0  0  0  0  0
    8.0238  -11.5701   26.0295 C   0  0  0  0  0  0  0  0  0  0  0  0
    6.8771  -11.5580   26.7665 C   0  0  0  0  0  0  0  0  0  0  0  0
    5.7753  -12.2553   26.3099 C   0  0  0  0  0  0  0  0  0  0  0  0
    5.8597  -12.9470   25.1206 C   0  0  0  0  0  0  0  0  0  0  0  0
    7.0024  -12.9814   24.3495 C   0  0  0  0  0  0  0  0  0  0  0  0
    7.0559  -16.4319   23.5689 C   0  0  0  0  0  0  0  0  0  0  0  0
    6.0728  -17.0015   24.1348 O   0  0  0  0  0  0  0  0  0  0  0  0
    6.9032  -18.8041   24.7272 C   0  0  0  0  0  0  0  0  0  0  0  0
    8.2250  -18.5051   25.4329 C   0  0  1  0  0  0  0  0  0  0  0  0
    9.2242  -19.0114   24.6462 O   0  0  0  0  0  0  0  0  0  0  0  0
    8.4061  -17.0117   25.5954 C   0  0  2  0  0  0  0  0  0  0  0  0
    8.2520  -16.3728   24.2873 N   0  0  0  0  0  0  0  0  0  0  0  0
    9.7346  -16.7194   26.1384 C   0  0  0  0  0  0  0  0  0  0  0  0
   10.7044  -16.7955   25.3427 O   0  0  0  0  0  0  0  0  0  0  0  0
    9.9774  -16.3628   27.4765 N   0  0  0  0  0  0  0  0  0  0  0  0
    8.9248  -16.4887   28.4997 C   0  0  0  0  0  0  0  0  0  0  0  0
    9.2674  -15.4375   29.5158 C   0  0  0  0  0  0  0  0  0  0  0  0
   10.5416  -14.7741   29.0185 C   0  0  0  0  0  0  0  0  0  0  0  0
   11.1534  -15.8998   28.1803 C   0  0  1  0  0  0  0  0  0  0  0  0
   11.6895  -16.9281   29.1252 C   0  0  0  0  0  0  0  0  0  0  0  0
   11.0377  -17.9677   29.3074 O   0  0  0  0  0  0  0  0  0  0  0  0
   12.8818  -16.7396   29.7874 O   0  0  0  0  0  0  0  0  0  0  0  0
  2  1  1  6
  2  3  1  0
  2 13  1  0
  3  4  1  0
  4 12  1  0
  5  4  2  0
  5  6  1  0
  6  7  1  0
  7  8  1  0
  8  9  2  0
 10  9  1  0
 11 10  2  0
 12  7  2  0
 12 11  1  0
 13 19  1  0
 13 14  2  0
 16 15  1  6
 17 16  1  0
 18 16  1  0
 18 19  1  6
 20 18  1  0
 20 21  2  0
 22 20  1  0
 23 22  1  0
 24 25  1  0
 24 23  1  0
 25 26  1  0
 26 22  1  0
 26 27  1  1
 27 29  1  0
 28 27  2  0
M  END
$$$$
