WTP.pdb
     RDKit          3D

 29 31  0  0  1  0  0  0  0  0999 V2000
    5.9570  -17.4978   24.5237 N   0  0  0  0  0  0  0  0  0  0  0  0
    6.6360  -16.3251   24.0201 C   0  0  1  0  0  0  0  0  0  0  0  0
    7.5411  -15.6931   25.0457 C   0  0  0  0  0  0  0  0  0  0  0  0
    6.8658  -14.6599   25.8631 C   0  0  0  0  0  0  0  0  0  0  0  0
    5.6516  -14.7475   26.5112 C   0  0  0  0  0  0  0  0  0  0  0  0
    5.3917  -13.6096   27.1405 N   0  0  0  0  0  0  0  0  0  0  0  0
    6.3892  -12.7314   26.9500 C   0  0  0  0  0  0  0  0  0  0  0  0
    6.6006  -11.4366   27.3803 C   0  0  0  0  0  0  0  0  0  0  0  0
    7.7293  -10.7564   27.0321 C   0  0  0  0  0  0  0  0  0  0  0  0
    8.6721  -11.3781   26.2362 C   0  0  0  0  0  0  0  0  0  0  0  0
    8.4508  -12.6710   25.8124 C   0  0  0  0  0  0  0  0  0  0  0  0
    7.3214  -13.3890   26.1450 C   0  0  0  0  0  0  0  0  0  0  0  0
    7.4099  -16.7046   22.8253 C   0  0  0  0  0  0  0  0  0  0  0  0
    7.9150  -17.8615   22.6920 O   0  0  0  0  0  0  0  0  0  0  0  0
    6.9436  -14.4698   19.5259 C   0  0  0  0  0  0  0  0  0  0  0  0
    8.3781  -14.9845   19.6335 C   0  0  1  0  0  0  0  0  0  0  0  0
    9.1484  -13.9401   20.0689 O   0  0  0  0  0  0  0  0  0  0  0  0
    8.4525  -16.1255   20.6245 C   0  0  2  0  0  0  0  0  0  0  0  0
    7.6202  -15.7986   21.7835 N   0  0  0  0  0  0  0  0  0  0  0  0
    9.8379  -16.3361   21.0504 C   0  0  0  0  0  0  0  0  0  0  0  0
   10.1828  -15.8188   22.1426 O   0  0  0  0  0  0  0  0  0  0  0  0
   10.7837  -17.0741   20.3172 N   0  0  0  0  0  0  0  0  0  0  0  0
   10.4461  -17.6500   19.0038 C   0  0  0  0  0  0  0  0  0  0  0  0
   11.3382  -18.8521   18.8853 C   0  0  0  0  0  0  0  0  0  0  0  0
   12.1743  -18.8796   20.1545 C   0  0  0  0  0  0  0  0  0  0  0  0
   12.1759  -17.3978   20.5399 C   0  0  1  0  0  0  0  0  0  0  0  0
   13.0827  -16.6834   19.5885 C   0  0  0  0  0  0  0  0  0  0  0  0
   12.6104  -16.2499   18.5265 O   0  0  0  0  0  0  0  0  0  0  0  0
   14.4179  -16.5021   19.8714 O   0  0  0  0  0  0  0  0  0  0  0  0
  2  1  1  1
  2  3  1  0
  2 13  1  0
  3  4  1  0
  4 12  1  0
  5  4  2  0
  5  6  1  0
  6  7  1  0
  7  8  1  0
  8  9  2  0
 10  9  1  0
 11 10  2  0
 12  7  2  0
 12 11  1  0
 13 19  1  0
 13 14  2  0
 16 15  1  1
 17 16  1  0
 18 16  1  0
 18 19  1  1
 20 18  1  0
 20 21  2  0
 22 20  1  0
 23 22  1  0
 24 25  1  0
 24 23  1  0
 25 26  1  0
 26 22  1  0
 26 27  1  6
 27 29  1  0
 28 27  2  0
M  END
$$$$
