WTP.pdb
     RDKit          3D

 29 31  0  0  1  0  0  0  0  0999 V2000
    9.0984  -18.1700   23.7408 N   0  0  0  0  0  0  0  0  0  0  0  0
    8.2716  -16.9931   23.8861 C   0  0  1  0  0  0  0  0  0  0  0  0
    8.6659  -16.1493   25.0707 C   0  0  0  0  0  0  0  0  0  0  0  0
    7.6024  -15.2137   25.5011 C   0  0  0  0  0  0  0  0  0  0  0  0
    6.2666  -15.4836   25.7132 C   0  0  0  0  0  0  0  0  0  0  0  0
    5.6373  -14.3804   26.0946 N   0  0  0  0  0  0  0  0  0  0  0  0
    6.4952  -13.3495   26.1545 C   0  0  0  0  0  0  0  0  0  0  0  0
    6.3477  -12.0183   26.4897 C   0  0  0  0  0  0  0  0  0  0  0  0
    7.4115  -11.1663   26.4667 C   0  0  0  0  0  0  0  0  0  0  0  0
    8.6534  -11.6490   26.1015 C   0  0  0  0  0  0  0  0  0  0  0  0
    8.7893  -12.9797   25.7690 C   0  0  0  0  0  0  0  0  0  0  0  0
    7.7360  -13.8697   25.7811 C   0  0  0  0  0  0  0  0  0  0  0  0
    8.3571  -16.2003   22.6473 C   0  0  0  0  0  0  0  0  0  0  0  0
    9.4342  -15.6345   22.2853 O   0  0  0  0  0  0  0  0  0  0  0  0
    6.9072  -13.2462   22.0894 C   0  0  0  0  0  0  0  0  0  0  0  0
    7.7782  -13.8302   20.9782 C   0  0  1  0  0  0  0  0  0  0  0  0
    9.0562  -13.8993   21.4635 O   0  0  0  0  0  0  0  0  0  0  0  0
    7.2945  -15.2148   20.6063 C   0  0  2  0  0  0  0  0  0  0  0  0
    7.2469  -16.0384   21.8156 N   0  0  0  0  0  0  0  0  0  0  0  0
    8.1996  -15.8207   19.6271 C   0  0  0  0  0  0  0  0  0  0  0  0
    8.6427  -16.9662   19.8936 O   0  0  0  0  0  0  0  0  0  0  0  0
    8.5897  -15.2014   18.4267 N   0  0  0  0  0  0  0  0  0  0  0  0
    8.2401  -13.7978   18.1469 C   0  0  0  0  0  0  0  0  0  0  0  0
    8.1720  -13.7239   16.6486 C   0  0  0  0  0  0  0  0  0  0  0  0
    8.5224  -15.1146   16.1446 C   0  0  0  0  0  0  0  0  0  0  0  0
    9.3815  -15.6396   17.2980 C   0  0  1  0  0  0  0  0  0  0  0  0
   10.7044  -14.9445   17.2303 C   0  0  0  0  0  0  0  0  0  0  0  0
   11.5129  -15.2856   16.3535 O   0  0  0  0  0  0  0  0  0  0  0  0
   11.0334  -13.9435   18.1165 O   0  0  0  0  0  0  0  0  0  0  0  0
  2  1  1  6
  2  3  1  0
  2 13  1  0
  3  4  1  0
  4 12  1  0
  5  4  2  0
  5  6  1  0
  6  7  1  0
  7  8  1  0
  8  9  2  0
 10  9  1  0
 11 10  2  0
 12  7  2  0
 12 11  1  0
 13 19  1  0
 13 14  2  0
 16 15  1  1
 17 16  1  0
 18 16  1  0
 18 19  1  1
 20 18  1  0
 20 21  2  0
 22 20  1  0
 23 22  1  0
 24 25  1  0
 24 23  1  0
 25 26  1  0
 26 22  1  0
 26 27  1  1
 27 29  1  0
 28 27  2  0
M  END
$$$$
