WTP.pdb
     RDKit          3D

 29 31  0  0  1  0  0  0  0  0999 V2000
    6.3575  -17.7322   24.6834 N   0  0  0  0  0  0  0  0  0  0  0  0
    7.1613  -16.7038   24.0621 C   0  0  1  0  0  0  0  0  0  0  0  0
    7.9340  -15.8861   25.0645 C   0  0  0  0  0  0  0  0  0  0  0  0
    7.0866  -14.9375   25.8219 C   0  0  0  0  0  0  0  0  0  0  0  0
    6.0421  -15.2245   26.6755 C   0  0  0  0  0  0  0  0  0  0  0  0
    5.5339  -14.1006   27.1623 N   0  0  0  0  0  0  0  0  0  0  0  0
    6.1935  -13.0385   26.6731 C   0  0  0  0  0  0  0  0  0  0  0  0
    6.0604  -11.6773   26.8613 C   0  0  0  0  0  0  0  0  0  0  0  0
    6.8841  -10.7967   26.2255 C   0  0  0  0  0  0  0  0  0  0  0  0
    7.8648  -11.2806   25.3813 C   0  0  0  0  0  0  0  0  0  0  0  0
    7.9887  -12.6415   25.2008 C   0  0  0  0  0  0  0  0  0  0  0  0
    7.1738  -13.5609   25.8271 C   0  0  0  0  0  0  0  0  0  0  0  0
    8.0846  -17.3394   23.1061 C   0  0  0  0  0  0  0  0  0  0  0  0
    8.5275  -18.5160   23.2815 O   0  0  0  0  0  0  0  0  0  0  0  0
    7.9059  -17.1465   19.3154 C   0  0  0  0  0  0  0  0  0  0  0  0
    9.3450  -16.7955   19.6901 C   0  0  1  0  0  0  0  0  0  0  0  0
    9.4868  -15.4449   19.5192 O   0  0  0  0  0  0  0  0  0  0  0  0
    9.6150  -17.1617   21.1332 C   0  0  2  0  0  0  0  0  0  0  0  0
    8.5127  -16.6667   21.9595 N   0  0  0  0  0  0  0  0  0  0  0  0
   10.8768  -16.5664   21.5785 C   0  0  0  0  0  0  0  0  0  0  0  0
   10.9890  -15.3196   21.4669 O   0  0  0  0  0  0  0  0  0  0  0  0
   11.9480  -17.3014   22.1161 N   0  0  0  0  0  0  0  0  0  0  0  0
   11.8780  -18.7681   22.2381 C   0  0  0  0  0  0  0  0  0  0  0  0
   12.7724  -19.0868   23.4014 C   0  0  0  0  0  0  0  0  0  0  0  0
   13.3380  -17.7564   23.8713 C   0  0  0  0  0  0  0  0  0  0  0  0
   13.2668  -16.9328   22.5826 C   0  0  1  0  0  0  0  0  0  0  0  0
   14.3473  -17.4229   21.6716 C   0  0  0  0  0  0  0  0  0  0  0  0
   15.5171  -17.0747   21.8928 O   0  0  0  0  0  0  0  0  0  0  0  0
   14.0653  -18.2453   20.6039 O   0  0  0  0  0  0  0  0  0  0  0  0
  2  1  1  1
  2  3  1  0
  2 13  1  0
  3  4  1  0
  4 12  1  0
  5  4  2  0
  5  6  1  0
  6  7  1  0
  7  8  1  0
  8  9  2  0
 10  9  1  0
 11 10  2  0
 12  7  2  0
 12 11  1  0
 13 19  1  0
 13 14  2  0
 16 15  1  1
 17 16  1  0
 18 16  1  0
 18 19  1  1
 20 18  1  0
 20 21  2  0
 22 20  1  0
 23 22  1  0
 24 25  1  0
 24 23  1  0
 25 26  1  0
 26 22  1  0
 26 27  1  6
 27 29  1  0
 28 27  2  0
M  END
$$$$
