WTP.pdb
     RDKit          3D

 29 31  0  0  1  0  0  0  0  0999 V2000
    6.6403  -16.7820   24.8072 N   0  0  0  0  0  0  0  0  0  0  0  0
    7.0829  -15.5674   24.1602 C   0  0  1  0  0  0  0  0  0  0  0  0
    8.2811  -14.9528   24.8364 C   0  0  0  0  0  0  0  0  0  0  0  0
    7.9658  -14.3562   26.1541 C   0  0  0  0  0  0  0  0  0  0  0  0
    8.3237  -14.8166   27.4039 C   0  0  0  0  0  0  0  0  0  0  0  0
    7.8518  -14.0024   28.3381 N   0  0  0  0  0  0  0  0  0  0  0  0
    7.1754  -12.9879   27.7761 C   0  0  0  0  0  0  0  0  0  0  0  0
    6.5067  -11.8978   28.2963 C   0  0  0  0  0  0  0  0  0  0  0  0
    5.8902  -10.9970   27.4798 C   0  0  0  0  0  0  0  0  0  0  0  0
    5.9393  -11.1839   26.1118 C   0  0  0  0  0  0  0  0  0  0  0  0
    6.6098  -12.2756   25.6034 C   0  0  0  0  0  0  0  0  0  0  0  0
    7.2444  -13.2064   26.3987 C   0  0  0  0  0  0  0  0  0  0  0  0
    7.3941  -15.8692   22.7521 C   0  0  0  0  0  0  0  0  0  0  0  0
    7.4460  -17.0603   22.3164 O   0  0  0  0  0  0  0  0  0  0  0  0
    8.4042  -14.1037   18.2090 C   0  0  0  0  0  0  0  0  0  0  0  0
    7.9999  -13.8441   19.6594 C   0  0  1  0  0  0  0  0  0  0  0  0
    6.7106  -13.3849   19.6413 O   0  0  0  0  0  0  0  0  0  0  0  0
    8.0779  -15.1243   20.4623 C   0  0  2  0  0  0  0  0  0  0  0  0
    7.6467  -14.8479   21.8336 N   0  0  0  0  0  0  0  0  0  0  0  0
    9.4501  -15.6362   20.4659 C   0  0  0  0  0  0  0  0  0  0  0  0
   10.2729  -15.0548   21.2174 O   0  0  0  0  0  0  0  0  0  0  0  0
    9.8869  -16.7242   19.6899 N   0  0  0  0  0  0  0  0  0  0  0  0
    9.0208  -17.3163   18.6555 C   0  0  0  0  0  0  0  0  0  0  0  0
    9.4684  -18.7472   18.5712 C   0  0  0  0  0  0  0  0  0  0  0  0
   10.6101  -18.8879   19.5649 C   0  0  0  0  0  0  0  0  0  0  0  0
   11.1357  -17.4508   19.6171 C   0  0  1  0  0  0  0  0  0  0  0  0
   11.8689  -17.1900   18.3395 C   0  0  0  0  0  0  0  0  0  0  0  0
   11.2378  -16.7398   17.3711 O   0  0  0  0  0  0  0  0  0  0  0  0
   13.2182  -17.4393   18.2247 O   0  0  0  0  0  0  0  0  0  0  0  0
  2  1  1  1
  2  3  1  0
  2 13  1  0
  3  4  1  0
  4 12  1  0
  5  4  2  0
  5  6  1  0
  6  7  1  0
  7  8  1  0
  8  9  2  0
 10  9  1  0
 11 10  2  0
 12  7  2  0
 12 11  1  0
 13 19  1  0
 13 14  2  0
 16 15  1  6
 17 16  1  0
 18 16  1  0
 18 19  1  1
 20 18  1  0
 20 21  2  0
 22 20  1  0
 23 22  1  0
 24 25  1  0
 24 23  1  0
 25 26  1  0
 26 22  1  0
 26 27  1  6
 27 29  1  0
 28 27  2  0
M  END
$$$$
