WTP.pdb
     RDKit          3D

 29 31  0  0  1  0  0  0  0  0999 V2000
    6.0200  -17.6594   24.2550 N   0  0  0  0  0  0  0  0  0  0  0  0
    7.0534  -16.8012   23.7208 C   0  0  1  0  0  0  0  0  0  0  0  0
    7.9551  -16.2428   24.7913 C   0  0  0  0  0  0  0  0  0  0  0  0
    7.2870  -15.2426   25.6544 C   0  0  0  0  0  0  0  0  0  0  0  0
    6.3796  -15.4650   26.6688 C   0  0  0  0  0  0  0  0  0  0  0  0
    6.0114  -14.3106   27.2075 N   0  0  0  0  0  0  0  0  0  0  0  0
    6.6355  -13.2900   26.5981 C   0  0  0  0  0  0  0  0  0  0  0  0
    6.6010  -11.9215   26.7776 C   0  0  0  0  0  0  0  0  0  0  0  0
    7.3546  -11.0923   26.0012 C   0  0  0  0  0  0  0  0  0  0  0  0
    8.1628  -11.6364   25.0217 C   0  0  0  0  0  0  0  0  0  0  0  0
    8.1895  -13.0040   24.8514 C   0  0  0  0  0  0  0  0  0  0  0  0
    7.4412  -13.8725   25.6178 C   0  0  0  0  0  0  0  0  0  0  0  0
    7.8430  -17.5669   22.7407 C   0  0  0  0  0  0  0  0  0  0  0  0
    8.1142  -18.7954   22.9098 O   0  0  0  0  0  0  0  0  0  0  0  0
    7.9735  -16.8538   18.8233 C   0  0  0  0  0  0  0  0  0  0  0  0
    9.3867  -16.9172   19.4006 C   0  0  1  0  0  0  0  0  0  0  0  0
    9.8280  -15.6276   19.5262 O   0  0  0  0  0  0  0  0  0  0  0  0
    9.3691  -17.5883   20.7567 C   0  0  2  0  0  0  0  0  0  0  0  0
    8.3287  -16.9662   21.5773 N   0  0  0  0  0  0  0  0  0  0  0  0
   10.6717  -17.4423   21.4101 C   0  0  0  0  0  0  0  0  0  0  0  0
   10.8698  -16.3818   22.0548 O   0  0  0  0  0  0  0  0  0  0  0  0
   11.6919  -18.4083   21.3575 N   0  0  0  0  0  0  0  0  0  0  0  0
   11.5391  -19.6319   20.5510 C   0  0  0  0  0  0  0  0  0  0  0  0
   12.3958  -20.6471   21.2513 C   0  0  0  0  0  0  0  0  0  0  0  0
   13.0263  -19.9219   22.4291 C   0  0  0  0  0  0  0  0  0  0  0  0
   13.0214  -18.4767   21.9237 C   0  0  1  0  0  0  0  0  0  0  0  0
   14.0877  -18.3576   20.8813 C   0  0  0  0  0  0  0  0  0  0  0  0
   13.7683  -18.4614   19.6872 O   0  0  0  0  0  0  0  0  0  0  0  0
   15.4028  -18.1370   21.2243 O   0  0  0  0  0  0  0  0  0  0  0  0
  2  1  1  1
  2  3  1  0
  2 13  1  0
  3  4  1  0
  4 12  1  0
  5  4  2  0
  5  6  1  0
  6  7  1  0
  7  8  1  0
  8  9  2  0
 10  9  1  0
 11 10  2  0
 12  7  2  0
 12 11  1  0
 13 19  1  0
 13 14  2  0
 16 15  1  1
 17 16  1  0
 18 16  1  0
 18 19  1  1
 20 18  1  0
 20 21  2  0
 22 20  1  0
 23 22  1  0
 24 25  1  0
 24 23  1  0
 25 26  1  0
 26 22  1  0
 26 27  1  6
 27 29  1  0
 28 27  2  0
M  END
$$$$
