WTP.pdb
     RDKit          3D

 29 31  0  0  1  0  0  0  0  0999 V2000
    5.9082  -17.5157   23.8410 N   0  0  0  0  0  0  0  0  0  0  0  0
    6.5026  -16.2348   23.5318 C   0  0  1  0  0  0  0  0  0  0  0  0
    7.4421  -15.7557   24.6080 C   0  0  0  0  0  0  0  0  0  0  0  0
    6.7809  -14.9075   25.6253 C   0  0  0  0  0  0  0  0  0  0  0  0
    5.7101  -15.2269   26.4336 C   0  0  0  0  0  0  0  0  0  0  0  0
    5.4111  -14.1986   27.2157 N   0  0  0  0  0  0  0  0  0  0  0  0
    6.2421  -13.1717   26.9762 C   0  0  0  0  0  0  0  0  0  0  0  0
    6.3514  -11.9030   27.5097 C   0  0  0  0  0  0  0  0  0  0  0  0
    7.3108  -11.0383   27.0739 C   0  0  0  0  0  0  0  0  0  0  0  0
    8.1839  -11.4442   26.0830 C   0  0  0  0  0  0  0  0  0  0  0  0
    8.0657  -12.7130   25.5577 C   0  0  0  0  0  0  0  0  0  0  0  0
    7.1081  -13.6137   25.9740 C   0  0  0  0  0  0  0  0  0  0  0  0
    7.2156  -16.3432   22.2471 C   0  0  0  0  0  0  0  0  0  0  0  0
    7.8392  -17.3968   21.9121 O   0  0  0  0  0  0  0  0  0  0  0  0
    8.3266  -12.9089   20.1512 C   0  0  0  0  0  0  0  0  0  0  0  0
    7.7598  -14.0578   19.3185 C   0  0  1  0  0  0  0  0  0  0  0  0
    8.4640  -14.0894   18.1452 O   0  0  0  0  0  0  0  0  0  0  0  0
    7.9272  -15.3698   20.0534 C   0  0  2  0  0  0  0  0  0  0  0  0
    7.2336  -15.2818   21.3396 N   0  0  0  0  0  0  0  0  0  0  0  0
    9.3481  -15.6491   20.2725 C   0  0  0  0  0  0  0  0  0  0  0  0
    9.8631  -15.1912   21.3235 O   0  0  0  0  0  0  0  0  0  0  0  0
   10.1506  -16.3903   19.3874 N   0  0  0  0  0  0  0  0  0  0  0  0
    9.6207  -16.8653   18.0973 C   0  0  0  0  0  0  0  0  0  0  0  0
   10.4168  -18.1040   17.8026 C   0  0  0  0  0  0  0  0  0  0  0  0
   11.3984  -18.2544   18.9535 C   0  0  0  0  0  0  0  0  0  0  0  0
   11.5373  -16.8014   19.4157 C   0  0  1  0  0  0  0  0  0  0  0  0
   12.3629  -16.0794   18.3984 C   0  0  0  0  0  0  0  0  0  0  0  0
   11.8078  -15.6514   17.3750 O   0  0  0  0  0  0  0  0  0  0  0  0
   13.7139  -15.8853   18.5798 O   0  0  0  0  0  0  0  0  0  0  0  0
  2  1  1  1
  2  3  1  0
  2 13  1  0
  3  4  1  0
  4 12  1  0
  5  4  2  0
  5  6  1  0
  6  7  1  0
  7  8  1  0
  8  9  2  0
 10  9  1  0
 11 10  2  0
 12  7  2  0
 12 11  1  0
 13 19  1  0
 13 14  2  0
 16 15  1  1
 17 16  1  0
 18 16  1  0
 18 19  1  1
 20 18  1  0
 20 21  2  0
 22 20  1  0
 23 22  1  0
 24 25  1  0
 24 23  1  0
 25 26  1  0
 26 22  1  0
 26 27  1  6
 27 29  1  0
 28 27  2  0
M  END
$$$$
