WTP.pdb
     RDKit          3D

 29 31  0  0  1  0  0  0  0  0999 V2000
    6.1618  -17.4412   24.5949 N   0  0  0  0  0  0  0  0  0  0  0  0
    6.9026  -16.4476   23.8508 C   0  0  1  0  0  0  0  0  0  0  0  0
    7.8765  -15.6848   24.7113 C   0  0  0  0  0  0  0  0  0  0  0  0
    7.2161  -14.7886   25.6871 C   0  0  0  0  0  0  0  0  0  0  0  0
    6.2600  -15.1115   26.6271 C   0  0  0  0  0  0  0  0  0  0  0  0
    5.9183  -14.0303   27.3146 N   0  0  0  0  0  0  0  0  0  0  0  0
    6.6082  -12.9631   26.8813 C   0  0  0  0  0  0  0  0  0  0  0  0
    6.6232  -11.6344   27.2561 C   0  0  0  0  0  0  0  0  0  0  0  0
    7.4411  -10.7386   26.6342 C   0  0  0  0  0  0  0  0  0  0  0  0
    8.2652  -11.1738   25.6143 C   0  0  0  0  0  0  0  0  0  0  0  0
    8.2421  -12.5026   25.2484 C   0  0  0  0  0  0  0  0  0  0  0  0
    7.4282  -13.4361   25.8549 C   0  0  0  0  0  0  0  0  0  0  0  0
    7.6154  -17.1173   22.7490 C   0  0  0  0  0  0  0  0  0  0  0  0
    8.1150  -18.2769   22.8794 O   0  0  0  0  0  0  0  0  0  0  0  0
    7.1817  -15.9036   18.9191 C   0  0  0  0  0  0  0  0  0  0  0  0
    8.6519  -16.0927   19.2893 C   0  0  1  0  0  0  0  0  0  0  0  0
    9.1715  -14.8478   19.5211 O   0  0  0  0  0  0  0  0  0  0  0  0
    8.7733  -16.9403   20.5368 C   0  0  2  0  0  0  0  0  0  0  0  0
    7.7709  -16.4973   21.5073 N   0  0  0  0  0  0  0  0  0  0  0  0
   10.1142  -16.8067   21.1105 C   0  0  0  0  0  0  0  0  0  0  0  0
   10.3434  -15.7733   21.7881 O   0  0  0  0  0  0  0  0  0  0  0  0
   11.1383  -17.7562   20.9485 N   0  0  0  0  0  0  0  0  0  0  0  0
   10.9537  -18.9327   20.0809 C   0  0  0  0  0  0  0  0  0  0  0  0
   11.8545  -19.9769   20.6751 C   0  0  0  0  0  0  0  0  0  0  0  0
   12.5399  -19.3140   21.8589 C   0  0  0  0  0  0  0  0  0  0  0  0
   12.4962  -17.8420   21.4399 C   0  0  1  0  0  0  0  0  0  0  0  0
   13.5053  -17.6505   20.3523 C   0  0  0  0  0  0  0  0  0  0  0  0
   14.7077  -17.6125   20.6546 O   0  0  0  0  0  0  0  0  0  0  0  0
   13.1230  -17.5177   19.0362 O   0  0  0  0  0  0  0  0  0  0  0  0
  2  1  1  1
  2  3  1  0
  2 13  1  0
  3  4  1  0
  4 12  1  0
  5  4  2  0
  5  6  1  0
  6  7  1  0
  7  8  1  0
  8  9  2  0
 10  9  1  0
 11 10  2  0
 12  7  2  0
 12 11  1  0
 13 19  1  0
 13 14  2  0
 16 15  1  1
 17 16  1  0
 18 16  1  0
 18 19  1  1
 20 18  1  0
 20 21  2  0
 22 20  1  0
 23 22  1  0
 24 25  1  0
 24 23  1  0
 25 26  1  0
 26 22  1  0
 26 27  1  6
 27 29  1  0
 28 27  2  0
M  END
$$$$
