WTP.pdb
     RDKit          3D

 29 31  0  0  1  0  0  0  0  0999 V2000
    6.3607  -17.2875   23.7920 N   0  0  0  0  0  0  0  0  0  0  0  0
    6.8911  -15.9974   23.4124 C   0  0  1  0  0  0  0  0  0  0  0  0
    7.8675  -15.4513   24.4219 C   0  0  0  0  0  0  0  0  0  0  0  0
    7.2101  -14.7932   25.5736 C   0  0  0  0  0  0  0  0  0  0  0  0
    6.3661  -15.3570   26.5074 C   0  0  0  0  0  0  0  0  0  0  0  0
    5.9852  -14.4390   27.3853 N   0  0  0  0  0  0  0  0  0  0  0  0
    6.5388  -13.2519   27.0907 C   0  0  0  0  0  0  0  0  0  0  0  0
    6.4642  -12.0049   27.6786 C   0  0  0  0  0  0  0  0  0  0  0  0
    7.1452  -10.9431   27.1618 C   0  0  0  0  0  0  0  0  0  0  0  0
    7.9199  -11.1247   26.0323 C   0  0  0  0  0  0  0  0  0  0  0  0
    7.9871  -12.3740   25.4538 C   0  0  0  0  0  0  0  0  0  0  0  0
    7.3123  -13.4699   25.9489 C   0  0  0  0  0  0  0  0  0  0  0  0
    7.5395  -16.1225   22.0955 C   0  0  0  0  0  0  0  0  0  0  0  0
    8.0941  -17.2008   21.7199 O   0  0  0  0  0  0  0  0  0  0  0  0
    8.9113  -13.8106   17.8971 C   0  0  0  0  0  0  0  0  0  0  0  0
    8.0731  -13.8257   19.1745 C   0  0  1  0  0  0  0  0  0  0  0  0
    6.7618  -13.7217   18.7960 O   0  0  0  0  0  0  0  0  0  0  0  0
    8.2891  -15.1201   19.9277 C   0  0  2  0  0  0  0  0  0  0  0  0
    7.5701  -15.0505   21.2009 N   0  0  0  0  0  0  0  0  0  0  0  0
    9.7175  -15.3297   20.1739 C   0  0  0  0  0  0  0  0  0  0  0  0
   10.2615  -14.5921   21.0339 O   0  0  0  0  0  0  0  0  0  0  0  0
   10.4971  -16.2955   19.5134 N   0  0  0  0  0  0  0  0  0  0  0  0
    9.9318  -17.1163   18.4283 C   0  0  0  0  0  0  0  0  0  0  0  0
   10.7245  -18.3908   18.4754 C   0  0  0  0  0  0  0  0  0  0  0  0
   11.7402  -18.2109   19.5921 C   0  0  0  0  0  0  0  0  0  0  0  0
   11.8859  -16.6870   19.6168 C   0  0  1  0  0  0  0  0  0  0  0  0
   12.6780  -16.2881   18.4121 C   0  0  0  0  0  0  0  0  0  0  0  0
   13.9162  -16.3348   18.4705 O   0  0  0  0  0  0  0  0  0  0  0  0
   12.0597  -15.8749   17.2533 O   0  0  0  0  0  0  0  0  0  0  0  0
  2  1  1  1
  2  3  1  0
  2 13  1  0
  3  4  1  0
  4 12  1  0
  5  4  2  0
  5  6  1  0
  6  7  1  0
  7  8  1  0
  8  9  2  0
 10  9  1  0
 11 10  2  0
 12  7  2  0
 12 11  1  0
 13 19  1  0
 13 14  2  0
 16 15  1  6
 17 16  1  0
 18 16  1  0
 18 19  1  1
 20 18  1  0
 20 21  2  0
 22 20  1  0
 23 22  1  0
 24 25  1  0
 24 23  1  0
 25 26  1  0
 26 22  1  0
 26 27  1  6
 27 29  1  0
 28 27  2  0
M  END
$$$$
