WTP.pdb
     RDKit          3D

 29 31  0  0  1  0  0  0  0  0999 V2000
    6.4617  -16.5747   21.4772 N   0  0  0  0  0  0  0  0  0  0  0  0
    7.2567  -15.7535   22.3624 C   0  0  1  0  0  0  0  0  0  0  0  0
    6.7546  -14.3352   22.4456 C   0  0  0  0  0  0  0  0  0  0  0  0
    7.4603  -13.5247   23.4638 C   0  0  0  0  0  0  0  0  0  0  0  0
    8.8195  -13.3512   23.6207 C   0  0  0  0  0  0  0  0  0  0  0  0
    9.0573  -12.5488   24.6492 N   0  0  0  0  0  0  0  0  0  0  0  0
    7.9038  -12.1579   25.2140 C   0  0  0  0  0  0  0  0  0  0  0  0
    7.6087  -11.3411   26.2874 C   0  0  0  0  0  0  0  0  0  0  0  0
    6.3178  -11.1059   26.6567 C   0  0  0  0  0  0  0  0  0  0  0  0
    5.2941  -11.6970   25.9416 C   0  0  0  0  0  0  0  0  0  0  0  0
    5.6002  -12.5105   24.8718 C   0  0  0  0  0  0  0  0  0  0  0  0
    6.8934  -12.7706   24.4701 C   0  0  0  0  0  0  0  0  0  0  0  0
    7.2613  -16.3695   23.7006 C   0  0  0  0  0  0  0  0  0  0  0  0
    6.2026  -16.8222   24.2350 O   0  0  0  0  0  0  0  0  0  0  0  0
    6.5991  -18.5672   25.0323 C   0  0  0  0  0  0  0  0  0  0  0  0
    7.9908  -18.5218   25.6611 C   0  0  1  0  0  0  0  0  0  0  0  0
    8.8263  -19.2298   24.8400 O   0  0  0  0  0  0  0  0  0  0  0  0
    8.4699  -17.0907   25.7707 C   0  0  2  0  0  0  0  0  0  0  0  0
    8.4406  -16.4804   24.4404 N   0  0  0  0  0  0  0  0  0  0  0  0
    9.8328  -17.0531   26.3054 C   0  0  0  0  0  0  0  0  0  0  0  0
   10.7596  -17.3916   25.5268 O   0  0  0  0  0  0  0  0  0  0  0  0
   10.1536  -16.6636   27.6177 N   0  0  0  0  0  0  0  0  0  0  0  0
    9.1026  -16.4753   28.6330 C   0  0  0  0  0  0  0  0  0  0  0  0
    9.6757  -15.4567   29.5757 C   0  0  0  0  0  0  0  0  0  0  0  0
   11.0648  -15.1341   29.0495 C   0  0  0  0  0  0  0  0  0  0  0  0
   11.4056  -16.4262   28.3023 C   0  0  1  0  0  0  0  0  0  0  0  0
   11.6997  -17.4771   29.3256 C   0  0  0  0  0  0  0  0  0  0  0  0
   10.8529  -18.3591   29.5347 O   0  0  0  0  0  0  0  0  0  0  0  0
   12.8827  -17.4793   30.0300 O   0  0  0  0  0  0  0  0  0  0  0  0
  2  1  1  6
  2  3  1  0
  2 13  1  0
  3  4  1  0
  4 12  1  0
  5  4  2  0
  5  6  1  0
  6  7  1  0
  7  8  1  0
  8  9  2  0
 10  9  1  0
 11 10  2  0
 12  7  2  0
 12 11  1  0
 13 19  1  0
 13 14  2  0
 16 15  1  6
 17 16  1  0
 18 16  1  0
 18 19  1  6
 20 18  1  0
 20 21  2  0
 22 20  1  0
 23 22  1  0
 24 25  1  0
 24 23  1  0
 25 26  1  0
 26 22  1  0
 26 27  1  1
 27 29  1  0
 28 27  2  0
M  END
$$$$
