WTP.pdb
     RDKit          3D

 29 31  0  0  1  0  0  0  0  0999 V2000
    6.4084  -16.9781   24.9588 N   0  0  0  0  0  0  0  0  0  0  0  0
    6.9441  -15.7989   24.3167 C   0  0  1  0  0  0  0  0  0  0  0  0
    8.2284  -15.3269   24.9479 C   0  0  0  0  0  0  0  0  0  0  0  0
    8.0183  -14.5641   26.1992 C   0  0  0  0  0  0  0  0  0  0  0  0
    8.3705  -14.9227   27.4834 C   0  0  0  0  0  0  0  0  0  0  0  0
    8.0133  -13.9696   28.3333 N   0  0  0  0  0  0  0  0  0  0  0  0
    7.4223  -12.9570   27.6791 C   0  0  0  0  0  0  0  0  0  0  0  0
    6.8827  -11.7551   28.0918 C   0  0  0  0  0  0  0  0  0  0  0  0
    6.3314  -10.8884   27.1957 C   0  0  0  0  0  0  0  0  0  0  0  0
    6.3158  -11.2241   25.8556 C   0  0  0  0  0  0  0  0  0  0  0  0
    6.8574  -12.4266   25.4548 C   0  0  0  0  0  0  0  0  0  0  0  0
    7.4230  -13.3271   26.3327 C   0  0  0  0  0  0  0  0  0  0  0  0
    7.1590  -16.0950   22.8896 C   0  0  0  0  0  0  0  0  0  0  0  0
    7.2611  -17.2846   22.4586 O   0  0  0  0  0  0  0  0  0  0  0  0
    8.3722  -12.9513   20.4739 C   0  0  0  0  0  0  0  0  0  0  0  0
    7.5424  -14.0298   19.7791 C   0  0  1  0  0  0  0  0  0  0  0  0
    8.0718  -14.2010   18.5285 O   0  0  0  0  0  0  0  0  0  0  0  0
    7.6191  -15.3287   20.5514 C   0  0  2  0  0  0  0  0  0  0  0  0
    7.2598  -15.0697   21.9467 N   0  0  0  0  0  0  0  0  0  0  0  0
    8.9742  -15.8799   20.4807 C   0  0  0  0  0  0  0  0  0  0  0  0
    9.7848  -15.5142   21.3689 O   0  0  0  0  0  0  0  0  0  0  0  0
    9.4073  -16.7810   19.4922 N   0  0  0  0  0  0  0  0  0  0  0  0
    8.5399  -17.1372   18.3558 C   0  0  0  0  0  0  0  0  0  0  0  0
    8.9818  -18.5198   17.9708 C   0  0  0  0  0  0  0  0  0  0  0  0
   10.1218  -18.8722   18.9125 C   0  0  0  0  0  0  0  0  0  0  0  0
   10.6532  -17.4810   19.2676 C   0  0  1  0  0  0  0  0  0  0  0  0
   11.3889  -16.9589   18.0742 C   0  0  0  0  0  0  0  0  0  0  0  0
   12.5353  -17.3769   17.8509 O   0  0  0  0  0  0  0  0  0  0  0  0
   10.8185  -16.0325   17.2303 O   0  0  0  0  0  0  0  0  0  0  0  0
  2  1  1  1
  2  3  1  0
  2 13  1  0
  3  4  1  0
  4 12  1  0
  5  4  2  0
  5  6  1  0
  6  7  1  0
  7  8  1  0
  8  9  2  0
 10  9  1  0
 11 10  2  0
 12  7  2  0
 12 11  1  0
 13 19  1  0
 13 14  2  0
 16 15  1  1
 17 16  1  0
 18 16  1  0
 18 19  1  1
 20 18  1  0
 20 21  2  0
 22 20  1  0
 23 22  1  0
 24 25  1  0
 24 23  1  0
 25 26  1  0
 26 22  1  0
 26 27  1  6
 27 29  1  0
 28 27  2  0
M  END
$$$$
