WTP.pdb
     RDKit          3D

 29 31  0  0  1  0  0  0  0  0999 V2000
    6.4238  -17.4145   25.6424 N   0  0  0  0  0  0  0  0  0  0  0  0
    7.3592  -16.5115   25.0104 C   0  0  1  0  0  0  0  0  0  0  0  0
    8.7923  -16.8271   25.3528 C   0  0  0  0  0  0  0  0  0  0  0  0
    9.2111  -16.2885   26.6666 C   0  0  0  0  0  0  0  0  0  0  0  0
    9.8097  -16.9623   27.7105 C   0  0  0  0  0  0  0  0  0  0  0  0
   10.0316  -16.1295   28.7183 N   0  0  0  0  0  0  0  0  0  0  0  0
    9.6051  -14.8950   28.4076 C   0  0  0  0  0  0  0  0  0  0  0  0
    9.6050  -13.6969   29.0936 C   0  0  0  0  0  0  0  0  0  0  0  0
    9.0973  -12.5646   28.5293 C   0  0  0  0  0  0  0  0  0  0  0  0
    8.5765  -12.6241   27.2511 C   0  0  0  0  0  0  0  0  0  0  0  0
    8.5818  -13.8255   26.5753 C   0  0  0  0  0  0  0  0  0  0  0  0
    9.0868  -14.9899   27.1145 C   0  0  0  0  0  0  0  0  0  0  0  0
    7.1609  -16.5713   23.5518 C   0  0  0  0  0  0  0  0  0  0  0  0
    6.5705  -17.5468   22.9939 O   0  0  0  0  0  0  0  0  0  0  0  0
    6.9259  -13.2762   21.2501 C   0  0  0  0  0  0  0  0  0  0  0  0
    7.8769  -14.3124   20.6532 C   0  0  1  0  0  0  0  0  0  0  0  0
    9.1503  -13.9076   20.9502 O   0  0  0  0  0  0  0  0  0  0  0  0
    7.6162  -15.6738   21.2599 C   0  0  2  0  0  0  0  0  0  0  0  0
    7.6188  -15.5486   22.7184 N   0  0  0  0  0  0  0  0  0  0  0  0
    8.6512  -16.6212   20.8401 C   0  0  0  0  0  0  0  0  0  0  0  0
    9.4649  -17.0021   21.7190 O   0  0  0  0  0  0  0  0  0  0  0  0
    8.7789  -17.1194   19.5316 N   0  0  0  0  0  0  0  0  0  0  0  0
    7.9457  -16.5969   18.4346 C   0  0  0  0  0  0  0  0  0  0  0  0
    7.8378  -17.7440   17.4717 C   0  0  0  0  0  0  0  0  0  0  0  0
    8.6578  -18.8739   18.0732 C   0  0  0  0  0  0  0  0  0  0  0  0
    9.6617  -18.0908   18.9234 C   0  0  1  0  0  0  0  0  0  0  0  0
   10.6462  -17.4568   17.9926 C   0  0  0  0  0  0  0  0  0  0  0  0
   10.5123  -16.2562   17.7107 O   0  0  0  0  0  0  0  0  0  0  0  0
   11.6866  -18.1780   17.4511 O   0  0  0  0  0  0  0  0  0  0  0  0
  2  1  1  1
  2  3  1  0
  2 13  1  0
  3  4  1  0
  4 12  1  0
  5  4  2  0
  5  6  1  0
  6  7  1  0
  7  8  1  0
  8  9  2  0
 10  9  1  0
 11 10  2  0
 12  7  2  0
 12 11  1  0
 13 19  1  0
 13 14  2  0
 16 15  1  1
 17 16  1  0
 18 16  1  0
 18 19  1  1
 20 18  1  0
 20 21  2  0
 22 20  1  0
 23 22  1  0
 24 25  1  0
 24 23  1  0
 25 26  1  0
 26 22  1  0
 26 27  1  6
 27 29  1  0
 28 27  2  0
M  END
$$$$
