WTP.pdb
     RDKit          3D

 29 31  0  0  1  0  0  0  0  0999 V2000
    7.4029  -17.5809   23.8931 N   0  0  0  0  0  0  0  0  0  0  0  0
    7.5848  -16.1715   24.1583 C   0  0  1  0  0  0  0  0  0  0  0  0
    8.0605  -15.9016   25.5623 C   0  0  0  0  0  0  0  0  0  0  0  0
    7.2011  -14.9455   26.2965 C   0  0  0  0  0  0  0  0  0  0  0  0
    6.0564  -15.2115   27.0183 C   0  0  0  0  0  0  0  0  0  0  0  0
    5.5734  -14.0878   27.5305 N   0  0  0  0  0  0  0  0  0  0  0  0
    6.3478  -13.0463   27.1869 C   0  0  0  0  0  0  0  0  0  0  0  0
    6.2837  -11.6939   27.4574 C   0  0  0  0  0  0  0  0  0  0  0  0
    7.2247  -10.8354   26.9719 C   0  0  0  0  0  0  0  0  0  0  0  0
    8.2554  -11.3329   26.1981 C   0  0  0  0  0  0  0  0  0  0  0  0
    8.3095  -12.6847   25.9344 C   0  0  0  0  0  0  0  0  0  0  0  0
    7.3759  -13.5819   26.4085 C   0  0  0  0  0  0  0  0  0  0  0  0
    8.5464  -15.6281   23.1834 C   0  0  0  0  0  0  0  0  0  0  0  0
    8.9211  -14.4157   23.2142 O   0  0  0  0  0  0  0  0  0  0  0  0
   11.9753  -15.9853   19.7872 C   0  0  0  0  0  0  0  0  0  0  0  0
   11.1271  -16.6212   20.8875 C   0  0  1  0  0  0  0  0  0  0  0  0
   11.8497  -16.5437   22.0475 O   0  0  0  0  0  0  0  0  0  0  0  0
    9.8229  -15.8701   21.0438 C   0  0  2  0  0  0  0  0  0  0  0  0
    9.0880  -16.4322   22.1782 N   0  0  0  0  0  0  0  0  0  0  0  0
    9.0215  -15.9890   19.8237 C   0  0  0  0  0  0  0  0  0  0  0  0
    8.4855  -17.1037   19.6007 O   0  0  0  0  0  0  0  0  0  0  0  0
    8.8218  -14.9415   18.9074 N   0  0  0  0  0  0  0  0  0  0  0  0
    9.4367  -13.6194   19.1186 C   0  0  0  0  0  0  0  0  0  0  0  0
    8.5053  -12.6629   18.4311 C   0  0  0  0  0  0  0  0  0  0  0  0
    7.4005  -13.5152   17.8279 C   0  0  0  0  0  0  0  0  0  0  0  0
    8.1250  -14.8512   17.6428 C   0  0  1  0  0  0  0  0  0  0  0  0
    9.0641  -14.7010   16.4882 C   0  0  0  0  0  0  0  0  0  0  0  0
   10.2480  -14.4093   16.7166 O   0  0  0  0  0  0  0  0  0  0  0  0
    8.6384  -14.8801   15.1911 O   0  0  0  0  0  0  0  0  0  0  0  0
  2  1  1  1
  2  3  1  0
  2 13  1  0
  3  4  1  0
  4 12  1  0
  5  4  2  0
  5  6  1  0
  6  7  1  0
  7  8  1  0
  8  9  2  0
 10  9  1  0
 11 10  2  0
 12  7  2  0
 12 11  1  0
 13 19  1  0
 13 14  2  0
 16 15  1  6
 17 16  1  0
 18 16  1  0
 18 19  1  1
 20 18  1  0
 20 21  2  0
 22 20  1  0
 23 22  1  0
 24 25  1  0
 24 23  1  0
 25 26  1  0
 26 22  1  0
 26 27  1  6
 27 29  1  0
 28 27  2  0
M  END
$$$$
