WTP.pdb
     RDKit          3D

 29 31  0  0  1  0  0  0  0  0999 V2000
    5.7973  -16.9966   23.9737 N   0  0  0  0  0  0  0  0  0  0  0  0
    6.6863  -15.9131   23.6191 C   0  0  1  0  0  0  0  0  0  0  0  0
    7.6661  -15.5837   24.7155 C   0  0  0  0  0  0  0  0  0  0  0  0
    7.0503  -14.8609   25.8513 C   0  0  0  0  0  0  0  0  0  0  0  0
    6.3783  -15.3906   26.9329 C   0  0  0  0  0  0  0  0  0  0  0  0
    5.9767  -14.4159   27.7374 N   0  0  0  0  0  0  0  0  0  0  0  0
    6.3490  -13.2224   27.2482 C   0  0  0  0  0  0  0  0  0  0  0  0
    6.1810  -11.9266   27.6942 C   0  0  0  0  0  0  0  0  0  0  0  0
    6.6723  -10.8708   26.9856 C   0  0  0  0  0  0  0  0  0  0  0  0
    7.3478  -11.1083   25.8040 C   0  0  0  0  0  0  0  0  0  0  0  0
    7.5098  -12.4060   25.3683 C   0  0  0  0  0  0  0  0  0  0  0  0
    7.0265  -13.4975   26.0587 C   0  0  0  0  0  0  0  0  0  0  0  0
    7.4070  -16.2779   22.3871 C   0  0  0  0  0  0  0  0  0  0  0  0
    7.7963  -17.4653   22.1635 O   0  0  0  0  0  0  0  0  0  0  0  0
    7.1292  -13.8493   19.1884 C   0  0  0  0  0  0  0  0  0  0  0  0
    8.5370  -14.4273   19.3242 C   0  0  1  0  0  0  0  0  0  0  0  0
    9.3255  -13.4440   19.8580 O   0  0  0  0  0  0  0  0  0  0  0  0
    8.5235  -15.6298   20.2424 C   0  0  2  0  0  0  0  0  0  0  0  0
    7.6930  -15.3236   21.4084 N   0  0  0  0  0  0  0  0  0  0  0  0
    9.8856  -15.9529   20.6729 C   0  0  0  0  0  0  0  0  0  0  0  0
   10.3146  -15.3626   21.6962 O   0  0  0  0  0  0  0  0  0  0  0  0
   10.7219  -16.8725   20.0158 N   0  0  0  0  0  0  0  0  0  0  0  0
   10.3005  -17.5223   18.7625 C   0  0  0  0  0  0  0  0  0  0  0  0
   11.0301  -18.8348   18.7615 C   0  0  0  0  0  0  0  0  0  0  0  0
   11.8683  -18.8487   20.0296 C   0  0  0  0  0  0  0  0  0  0  0  0
   12.0634  -17.3496   20.2718 C   0  0  1  0  0  0  0  0  0  0  0  0
   13.0448  -16.8511   19.2588 C   0  0  0  0  0  0  0  0  0  0  0  0
   14.2512  -17.0803   19.4344 O   0  0  0  0  0  0  0  0  0  0  0  0
   12.6330  -16.1500   18.1476 O   0  0  0  0  0  0  0  0  0  0  0  0
  2  1  1  1
  2  3  1  0
  2 13  1  0
  3  4  1  0
  4 12  1  0
  5  4  2  0
  5  6  1  0
  6  7  1  0
  7  8  1  0
  8  9  2  0
 10  9  1  0
 11 10  2  0
 12  7  2  0
 12 11  1  0
 13 19  1  0
 13 14  2  0
 16 15  1  1
 17 16  1  0
 18 16  1  0
 18 19  1  1
 20 18  1  0
 20 21  2  0
 22 20  1  0
 23 22  1  0
 24 25  1  0
 24 23  1  0
 25 26  1  0
 26 22  1  0
 26 27  1  6
 27 29  1  0
 28 27  2  0
M  END
$$$$
