WTP.pdb
     RDKit          3D

 29 31  0  0  1  0  0  0  0  0999 V2000
    6.4145  -16.6492   25.4562 N   0  0  0  0  0  0  0  0  0  0  0  0
    7.0181  -15.6524   24.6007 C   0  0  1  0  0  0  0  0  0  0  0  0
    8.3440  -15.1640   25.1243 C   0  0  0  0  0  0  0  0  0  0  0  0
    8.2200  -14.3305   26.3415 C   0  0  0  0  0  0  0  0  0  0  0  0
    8.8240  -14.5192   27.5669 C   0  0  0  0  0  0  0  0  0  0  0  0
    8.4629  -13.5549   28.4025 N   0  0  0  0  0  0  0  0  0  0  0  0
    7.6249  -12.6995   27.7954 C   0  0  0  0  0  0  0  0  0  0  0  0
    6.9776  -11.5549   28.2164 C   0  0  0  0  0  0  0  0  0  0  0  0
    6.1625  -10.8591   27.3741 C   0  0  0  0  0  0  0  0  0  0  0  0
    5.9858  -11.3117   26.0808 C   0  0  0  0  0  0  0  0  0  0  0  0
    6.6369  -12.4555   25.6712 C   0  0  0  0  0  0  0  0  0  0  0  0
    7.4684  -13.1842   26.4953 C   0  0  0  0  0  0  0  0  0  0  0  0
    7.1843  -16.2248   23.2534 C   0  0  0  0  0  0  0  0  0  0  0  0
    6.9978  -17.4586   23.0204 O   0  0  0  0  0  0  0  0  0  0  0  0
    6.8093  -13.8856   20.0093 C   0  0  0  0  0  0  0  0  0  0  0  0
    7.9764  -14.8594   19.8546 C   0  0  1  0  0  0  0  0  0  0  0  0
    9.1240  -14.1530   20.0947 O   0  0  0  0  0  0  0  0  0  0  0  0
    7.8512  -15.9902   20.8522 C   0  0  2  0  0  0  0  0  0  0  0  0
    7.5570  -15.4257   22.1704 N   0  0  0  0  0  0  0  0  0  0  0  0
    9.0978  -16.7572   20.9064 C   0  0  0  0  0  0  0  0  0  0  0  0
    9.8669  -16.5264   21.8733 O   0  0  0  0  0  0  0  0  0  0  0  0
    9.4714  -17.7212   19.9536 N   0  0  0  0  0  0  0  0  0  0  0  0
    8.6562  -17.9549   18.7488 C   0  0  0  0  0  0  0  0  0  0  0  0
    8.9178  -19.3910   18.3966 C   0  0  0  0  0  0  0  0  0  0  0  0
    9.9124  -19.9003   19.4272 C   0  0  0  0  0  0  0  0  0  0  0  0
   10.6137  -18.6001   19.8293 C   0  0  1  0  0  0  0  0  0  0  0  0
   11.5135  -18.2034   18.7020 C   0  0  0  0  0  0  0  0  0  0  0  0
   11.1234  -17.3371   17.9044 O   0  0  0  0  0  0  0  0  0  0  0  0
   12.7536  -18.7790   18.5392 O   0  0  0  0  0  0  0  0  0  0  0  0
  2  1  1  1
  2  3  1  0
  2 13  1  0
  3  4  1  0
  4 12  1  0
  5  4  2  0
  5  6  1  0
  6  7  1  0
  7  8  1  0
  8  9  2  0
 10  9  1  0
 11 10  2  0
 12  7  2  0
 12 11  1  0
 13 19  1  0
 13 14  2  0
 16 15  1  1
 17 16  1  0
 18 16  1  0
 18 19  1  1
 20 18  1  0
 20 21  2  0
 22 20  1  0
 23 22  1  0
 24 25  1  0
 24 23  1  0
 25 26  1  0
 26 22  1  0
 26 27  1  6
 27 29  1  0
 28 27  2  0
M  END
$$$$
