ELY.pdb
     RDKit          3D

 30 30  0  0  1  0  0  0  0  0999 V2000
   26.6597  -23.5492  -17.1144 N   0  0  0  0  0  0  0  0  0  0  0  0
   26.3581  -22.2351  -16.6172 C   0  0  1  0  0  0  0  0  0  0  0  0
   25.4814  -21.4581  -17.5515 C   0  0  0  0  0  0  0  0  0  0  0  0
   26.1265  -21.0490  -18.8299 C   0  0  0  0  0  0  0  0  0  0  0  0
   27.3028  -20.1893  -18.6911 C   0  0  0  0  0  0  0  0  0  0  0  0
   28.4970  -20.5232  -18.7874 O   0  0  0  0  0  0  0  0  0  0  0  0
   25.7100  -22.2710  -15.2810 C   0  0  0  0  0  0  0  0  0  0  0  0
   25.0927  -23.3470  -14.9973 O   0  0  0  0  0  0  0  0  0  0  0  0
   27.0791  -18.8287  -18.4178 O   0  0  0  0  0  0  0  0  0  0  0  0
   25.4493  -19.3456   -9.8187 C   0  0  0  0  0  0  0  0  0  0  0  0
   24.9722  -20.4580  -10.7278 C   0  0  2  0  0  0  0  0  0  0  0  0
   25.4355  -21.7715  -10.0945 C   0  0  0  0  0  0  0  0  0  0  0  0
   25.6513  -20.3541  -12.0548 C   0  0  0  0  0  0  0  0  0  0  0  0
   25.0916  -21.2958  -13.0961 C   0  0  2  0  0  0  0  0  0  0  0  0
   25.7557  -21.1954  -14.3569 N   0  0  0  0  0  0  0  0  0  0  0  0
   23.6306  -20.9444  -13.2191 C   0  0  0  0  0  0  0  0  0  0  0  0
   22.9468  -20.6972  -12.1890 O   0  0  0  0  0  0  0  0  0  0  0  0
   24.2066  -15.4473  -17.6987 O   0  0  0  0  0  0  0  0  0  0  0  0
   23.5158  -16.5892  -17.2923 C   0  0  0  0  0  0  0  0  0  0  0  0
   24.0638  -17.8436  -17.4553 C   0  0  0  0  0  0  0  0  0  0  0  0
   23.4076  -18.9926  -17.0645 C   0  0  0  0  0  0  0  0  0  0  0  0
   22.1571  -18.9405  -16.4856 C   0  0  0  0  0  0  0  0  0  0  0  0
   21.4088  -20.1384  -16.0588 C   0  0  0  0  0  0  0  0  0  0  0  0
   21.5736  -20.4568  -14.5930 C   0  0  2  0  0  0  0  0  0  0  0  0
   22.9782  -20.8779  -14.4623 N   0  0  0  0  0  0  0  0  0  0  0  0
   20.6599  -21.5631  -14.2435 C   0  0  0  0  0  0  0  0  0  0  0  0
   21.1645  -22.8781  -14.2752 O   0  0  0  0  0  0  0  0  0  0  0  0
   21.6096  -17.6662  -16.3242 C   0  0  0  0  0  0  0  0  0  0  0  0
   22.2656  -16.5186  -16.7146 C   0  0  0  0  0  0  0  0  0  0  0  0
   19.4686  -21.4073  -13.9216 O   0  0  0  0  0  0  0  0  0  0  0  0
  2  3  1  0
  2  1  1  6
  3  4  1  0
  4  5  1  0
  5  9  1  0
  5  6  2  0
  7  8  2  0
  7  2  1  0
 11 12  1  1
 11 10  1  0
 13 11  1  0
 14 13  1  1
 14 15  1  0
 15  7  1  0
 16 25  1  0
 16 14  1  0
 17 16  2  0
 19 18  1  0
 20 19  2  0
 21 20  1  0
 22 28  1  0
 22 21  2  0
 23 22  1  0
 24 25  1  0
 24 23  1  6
 26 24  1  0
 27 26  1  0
 28 29  2  0
 29 19  1  0
 30 26  2  0
M  END
$$$$
