ELY.pdb
     RDKit          3D

 30 30  0  0  1  0  0  0  0  0999 V2000
   22.9550  -22.7580   -6.9714 N   0  0  0  0  0  0  0  0  0  0  0  0
   22.3566  -21.9208   -7.9745 C   0  0  1  0  0  0  0  0  0  0  0  0
   21.3018  -21.0183   -7.4105 C   0  0  0  0  0  0  0  0  0  0  0  0
   20.3326  -21.6765   -6.4912 C   0  0  0  0  0  0  0  0  0  0  0  0
   19.4207  -22.6319   -7.1216 C   0  0  0  0  0  0  0  0  0  0  0  0
   19.6817  -23.7881   -7.4987 O   0  0  0  0  0  0  0  0  0  0  0  0
   23.3589  -21.0883   -8.6879 C   0  0  0  0  0  0  0  0  0  0  0  0
   22.8854  -20.1449   -9.3985 O   0  0  0  0  0  0  0  0  0  0  0  0
   18.0951  -22.2152   -7.3339 O   0  0  0  0  0  0  0  0  0  0  0  0
   27.0973  -19.0551   -7.1690 C   0  0  0  0  0  0  0  0  0  0  0  0
   27.3326  -20.5038   -7.5396 C   0  0  2  0  0  0  0  0  0  0  0  0
   28.8141  -20.7875   -7.2828 C   0  0  0  0  0  0  0  0  0  0  0  0
   27.1026  -20.6959   -9.0036 C   0  0  0  0  0  0  0  0  0  0  0  0
   25.6564  -20.5400   -9.4143 C   0  0  2  0  0  0  0  0  0  0  0  0
   24.7590  -21.3021   -8.6053 N   0  0  0  0  0  0  0  0  0  0  0  0
   25.5940  -20.9744  -10.8567 C   0  0  0  0  0  0  0  0  0  0  0  0
   25.7147  -22.1923  -11.1602 O   0  0  0  0  0  0  0  0  0  0  0  0
   19.6760  -21.3688  -17.0802 O   0  0  0  0  0  0  0  0  0  0  0  0
   20.5515  -21.1901  -16.0088 C   0  0  0  0  0  0  0  0  0  0  0  0
   20.6302  -19.9798  -15.3533 C   0  0  0  0  0  0  0  0  0  0  0  0
   21.4849  -19.7697  -14.2908 C   0  0  0  0  0  0  0  0  0  0  0  0
   22.3112  -20.7722  -13.8283 C   0  0  0  0  0  0  0  0  0  0  0  0
   23.2493  -20.5974  -12.7030 C   0  0  0  0  0  0  0  0  0  0  0  0
   24.6822  -20.4170  -13.1402 C   0  0  2  0  0  0  0  0  0  0  0  0
   25.4024  -20.0600  -11.9068 N   0  0  0  0  0  0  0  0  0  0  0  0
   24.7426  -19.3139  -14.1204 C   0  0  0  0  0  0  0  0  0  0  0  0
   24.6682  -17.9918  -13.6396 O   0  0  0  0  0  0  0  0  0  0  0  0
   22.2249  -21.9946  -14.4977 C   0  0  0  0  0  0  0  0  0  0  0  0
   21.3708  -22.2041  -15.5591 C   0  0  0  0  0  0  0  0  0  0  0  0
   24.8553  -19.4785  -15.3480 O   0  0  0  0  0  0  0  0  0  0  0  0
  2  3  1  0
  2  1  1  1
  3  4  1  0
  4  5  1  0
  5  9  1  0
  5  6  2  0
  7  8  2  0
  7  2  1  0
 11 12  1  6
 11 10  1  0
 13 11  1  0
 14 13  1  1
 14 15  1  0
 15  7  1  0
 16 25  1  0
 16 14  1  0
 17 16  2  0
 19 18  1  0
 20 19  2  0
 21 20  1  0
 22 28  1  0
 22 21  2  0
 23 22  1  0
 24 25  1  0
 24 23  1  1
 26 24  1  0
 27 26  1  0
 28 29  2  0
 29 19  1  0
 30 26  2  0
M  END
$$$$
