ELY.pdb
     RDKit          3D

 30 30  0  0  1  0  0  0  0  0999 V2000
   43.0284   -9.3333  -10.6234 N   0  0  0  0  0  0  0  0  0  0  0  0
   42.0287   -8.6508  -11.3980 C   0  0  1  0  0  0  0  0  0  0  0  0
   41.4923   -9.4977  -12.5117 C   0  0  0  0  0  0  0  0  0  0  0  0
   40.7341  -10.7042  -12.0792 C   0  0  0  0  0  0  0  0  0  0  0  0
   40.1434  -11.4940  -13.1605 C   0  0  0  0  0  0  0  0  0  0  0  0
   39.0916  -11.2568  -13.7805 O   0  0  0  0  0  0  0  0  0  0  0  0
   40.8889   -8.1859  -10.5666 C   0  0  0  0  0  0  0  0  0  0  0  0
   40.0704   -7.4012  -11.1440 O   0  0  0  0  0  0  0  0  0  0  0  0
   40.8268  -12.6562  -13.5585 O   0  0  0  0  0  0  0  0  0  0  0  0
   37.4791  -10.1086   -9.0144 C   0  0  0  0  0  0  0  0  0  0  0  0
   38.6403  -10.3152   -8.0656 C   0  0  2  0  0  0  0  0  0  0  0  0
   38.1239  -11.1942   -6.9246 C   0  0  0  0  0  0  0  0  0  0  0  0
   39.0378   -9.0085   -7.4593 C   0  0  0  0  0  0  0  0  0  0  0  0
   39.6121   -8.0287   -8.4566 C   0  0  2  0  0  0  0  0  0  0  0  0
   40.6945   -8.5709   -9.2150 N   0  0  0  0  0  0  0  0  0  0  0  0
   40.0558   -6.8369   -7.6468 C   0  0  0  0  0  0  0  0  0  0  0  0
   39.2429   -6.2474   -6.8843 O   0  0  0  0  0  0  0  0  0  0  0  0
   43.8683  -10.1231   -3.3125 O   0  0  0  0  0  0  0  0  0  0  0  0
   43.7108   -8.9822   -4.0998 C   0  0  0  0  0  0  0  0  0  0  0  0
   43.9038   -9.0313   -5.4639 C   0  0  0  0  0  0  0  0  0  0  0  0
   43.7562   -7.9220   -6.2710 C   0  0  0  0  0  0  0  0  0  0  0  0
   43.4048   -6.6965   -5.7453 C   0  0  0  0  0  0  0  0  0  0  0  0
   43.2433   -5.4783   -6.5619 C   0  0  0  0  0  0  0  0  0  0  0  0
   41.8065   -5.1781   -6.9120 C   0  0  2  0  0  0  0  0  0  0  0  0
   41.3691   -6.3393   -7.7042 N   0  0  0  0  0  0  0  0  0  0  0  0
   41.7650   -3.9445   -7.7230 C   0  0  0  0  0  0  0  0  0  0  0  0
   42.0426   -2.7193   -7.0853 O   0  0  0  0  0  0  0  0  0  0  0  0
   43.2113   -6.6559   -4.3631 C   0  0  0  0  0  0  0  0  0  0  0  0
   43.3586   -7.7642   -3.5572 C   0  0  0  0  0  0  0  0  0  0  0  0
   41.4995   -3.9183   -8.9378 O   0  0  0  0  0  0  0  0  0  0  0  0
  2  3  1  0
  2  1  1  1
  3  4  1  0
  4  5  1  0
  5  9  1  0
  5  6  2  0
  7  8  2  0
  7  2  1  0
 11 12  1  1
 11 10  1  0
 13 11  1  0
 14 13  1  1
 14 15  1  0
 15  7  1  0
 16 25  1  0
 16 14  1  0
 17 16  2  0
 19 18  1  0
 20 19  2  0
 21 20  1  0
 22 28  1  0
 22 21  2  0
 23 22  1  0
 24 25  1  0
 24 23  1  6
 26 24  1  0
 27 26  1  0
 28 29  2  0
 29 19  1  0
 30 26  2  0
M  END
$$$$
