ELY.pdb
     RDKit          3D

 30 30  0  0  1  0  0  0  0  0999 V2000
   19.1740  -12.0803  -16.6184 N   0  0  0  0  0  0  0  0  0  0  0  0
   20.1097  -11.2199  -17.2889 C   0  0  1  0  0  0  0  0  0  0  0  0
   19.4810  -10.4625  -18.4187 C   0  0  0  0  0  0  0  0  0  0  0  0
   18.8999  -11.3065  -19.4992 C   0  0  0  0  0  0  0  0  0  0  0  0
   18.2848  -10.5720  -20.6056 C   0  0  0  0  0  0  0  0  0  0  0  0
   17.0726  -10.3661  -20.7932 O   0  0  0  0  0  0  0  0  0  0  0  0
   20.7464  -10.2472  -16.3643 C   0  0  0  0  0  0  0  0  0  0  0  0
   20.0447   -9.9011  -15.3607 O   0  0  0  0  0  0  0  0  0  0  0  0
   19.1441  -10.0300  -21.5772 O   0  0  0  0  0  0  0  0  0  0  0  0
   24.1228  -10.5043  -13.6195 C   0  0  0  0  0  0  0  0  0  0  0  0
   24.5326  -10.2434  -15.0532 C   0  0  2  0  0  0  0  0  0  0  0  0
   26.0625  -10.2308  -15.0770 C   0  0  0  0  0  0  0  0  0  0  0  0
   24.0821   -8.8806  -15.4688 C   0  0  0  0  0  0  0  0  0  0  0  0
   22.5848   -8.7639  -15.6381 C   0  0  2  0  0  0  0  0  0  0  0  0
   22.0488   -9.7181  -16.5562 N   0  0  0  0  0  0  0  0  0  0  0  0
   22.3373   -7.3535  -16.1101 C   0  0  0  0  0  0  0  0  0  0  0  0
   22.9466   -6.9038  -17.1183 O   0  0  0  0  0  0  0  0  0  0  0  0
   18.3347   -1.0147  -20.1133 O   0  0  0  0  0  0  0  0  0  0  0  0
   18.8396   -2.1255  -19.4368 C   0  0  0  0  0  0  0  0  0  0  0  0
   18.0787   -3.2640  -19.2785 C   0  0  0  0  0  0  0  0  0  0  0  0
   18.5475   -4.3793  -18.6152 C   0  0  0  0  0  0  0  0  0  0  0  0
   19.8147   -4.4085  -18.0722 C   0  0  0  0  0  0  0  0  0  0  0  0
   20.3608   -5.5710  -17.3459 C   0  0  0  0  0  0  0  0  0  0  0  0
   21.0202   -5.2049  -16.0389 C   0  0  2  0  0  0  0  0  0  0  0  0
   21.4347   -6.4939  -15.4608 N   0  0  0  0  0  0  0  0  0  0  0  0
   20.0233   -4.5397  -15.1760 C   0  0  0  0  0  0  0  0  0  0  0  0
   20.0790   -3.1372  -15.0540 O   0  0  0  0  0  0  0  0  0  0  0  0
   20.5786   -3.2514  -18.2373 C   0  0  0  0  0  0  0  0  0  0  0  0
   20.1098   -2.1376  -18.9001 C   0  0  0  0  0  0  0  0  0  0  0  0
   19.1342   -5.1410  -14.5476 O   0  0  0  0  0  0  0  0  0  0  0  0
  2  3  1  0
  2  1  1  1
  3  4  1  0
  4  5  1  0
  5  9  1  0
  5  6  2  0
  7  8  2  0
  7  2  1  0
 11 12  1  1
 11 10  1  0
 13 11  1  0
 14 13  1  6
 14 15  1  0
 15  7  1  0
 16 25  1  0
 16 14  1  0
 17 16  2  0
 19 18  1  0
 20 19  2  0
 21 20  1  0
 22 28  1  0
 22 21  2  0
 23 22  1  0
 24 25  1  0
 24 23  1  6
 26 24  1  0
 27 26  1  0
 28 29  2  0
 29 19  1  0
 30 26  2  0
M  END
$$$$
