ELY.pdb
     RDKit          3D

 30 30  0  0  1  0  0  0  0  0999 V2000
   26.4518  -20.9910  -18.9125 N   0  0  0  0  0  0  0  0  0  0  0  0
   25.9204  -19.6769  -19.1490 C   0  0  1  0  0  0  0  0  0  0  0  0
   24.9617  -19.6471  -20.3002 C   0  0  0  0  0  0  0  0  0  0  0  0
   25.5468  -20.0143  -21.6195 C   0  0  0  0  0  0  0  0  0  0  0  0
   26.4166  -19.0033  -22.2224 C   0  0  0  0  0  0  0  0  0  0  0  0
   27.6435  -19.0795  -22.4119 O   0  0  0  0  0  0  0  0  0  0  0  0
   25.2398  -19.1184  -17.9526 C   0  0  0  0  0  0  0  0  0  0  0  0
   24.9662  -19.9553  -17.0340 O   0  0  0  0  0  0  0  0  0  0  0  0
   25.8169  -17.8030  -22.6415 O   0  0  0  0  0  0  0  0  0  0  0  0
   26.6367  -16.2455  -15.0083 C   0  0  0  0  0  0  0  0  0  0  0  0
   26.0395  -15.5770  -16.2281 C   0  0  2  0  0  0  0  0  0  0  0  0
   26.2001  -14.0689  -16.0249 C   0  0  0  0  0  0  0  0  0  0  0  0
   24.5719  -15.8515  -16.2886 C   0  0  0  0  0  0  0  0  0  0  0  0
   24.2384  -17.2850  -16.6324 C   0  0  2  0  0  0  0  0  0  0  0  0
   24.9021  -17.7478  -17.8097 N   0  0  0  0  0  0  0  0  0  0  0  0
   22.7404  -17.3256  -16.7985 C   0  0  0  0  0  0  0  0  0  0  0  0
   22.1695  -16.5523  -17.6145 O   0  0  0  0  0  0  0  0  0  0  0  0
   21.2213  -19.2902  -22.5832 O   0  0  0  0  0  0  0  0  0  0  0  0
   20.9727  -19.3559  -21.2120 C   0  0  0  0  0  0  0  0  0  0  0  0
   21.9530  -19.7659  -20.3337 C   0  0  0  0  0  0  0  0  0  0  0  0
   21.7401  -19.8421  -18.9726 C   0  0  0  0  0  0  0  0  0  0  0  0
   20.5219  -19.5081  -18.4193 C   0  0  0  0  0  0  0  0  0  0  0  0
   20.2393  -19.5808  -16.9730 C   0  0  0  0  0  0  0  0  0  0  0  0
   20.4701  -18.2759  -16.2512 C   0  0  2  0  0  0  0  0  0  0  0  0
   21.9292  -18.2095  -16.0662 N   0  0  0  0  0  0  0  0  0  0  0  0
   19.7782  -18.3274  -14.9475 C   0  0  0  0  0  0  0  0  0  0  0  0
   18.3703  -18.2769  -14.9390 O   0  0  0  0  0  0  0  0  0  0  0  0
   19.5350  -19.0939  -19.3159 C   0  0  0  0  0  0  0  0  0  0  0  0
   19.7481  -19.0178  -20.6755 C   0  0  0  0  0  0  0  0  0  0  0  0
   20.3615  -18.4130  -13.8523 O   0  0  0  0  0  0  0  0  0  0  0  0
  2  3  1  0
  2  1  1  1
  3  4  1  0
  4  5  1  0
  5  9  1  0
  5  6  2  0
  7  8  2  0
  7  2  1  0
 11 12  1  1
 11 10  1  0
 13 11  1  0
 14 13  1  6
 14 15  1  0
 15  7  1  0
 16 25  1  0
 16 14  1  0
 17 16  2  0
 19 18  1  0
 20 19  2  0
 21 20  1  0
 22 28  1  0
 22 21  2  0
 23 22  1  0
 24 25  1  0
 24 23  1  6
 26 24  1  0
 27 26  1  0
 28 29  2  0
 29 19  1  0
 30 26  2  0
M  END
$$$$
