ELY.pdb
     RDKit          3D

 30 30  0  0  1  0  0  0  0  0999 V2000
   19.2675  -14.7564  -18.5557 N   0  0  0  0  0  0  0  0  0  0  0  0
   20.4849  -14.0650  -18.8798 C   0  0  1  0  0  0  0  0  0  0  0  0
   20.3061  -13.0893  -20.0029 C   0  0  0  0  0  0  0  0  0  0  0  0
   19.9077  -13.6912  -21.3055 C   0  0  0  0  0  0  0  0  0  0  0  0
   19.7042  -12.7401  -22.3991 C   0  0  0  0  0  0  0  0  0  0  0  0
   18.6378  -12.1974  -22.7385 O   0  0  0  0  0  0  0  0  0  0  0  0
   21.0531  -13.3430  -17.7126 C   0  0  0  0  0  0  0  0  0  0  0  0
   20.2082  -12.9343  -16.8534 O   0  0  0  0  0  0  0  0  0  0  0  0
   20.8289  -12.3869  -23.1648 O   0  0  0  0  0  0  0  0  0  0  0  0
   24.0745  -14.6441  -14.6935 C   0  0  0  0  0  0  0  0  0  0  0  0
   24.7030  -14.0901  -15.9543 C   0  0  2  0  0  0  0  0  0  0  0  0
   26.2187  -14.1797  -15.7651 C   0  0  0  0  0  0  0  0  0  0  0  0
   24.3690  -12.6401  -16.0918 C   0  0  0  0  0  0  0  0  0  0  0  0
   22.9117  -12.3814  -16.3980 C   0  0  2  0  0  0  0  0  0  0  0  0
   22.4408  -13.1068  -17.5350 N   0  0  0  0  0  0  0  0  0  0  0  0
   22.7994  -10.8936  -16.6147 C   0  0  0  0  0  0  0  0  0  0  0  0
   23.5142  -10.3211  -17.4815 O   0  0  0  0  0  0  0  0  0  0  0  0
   19.4476   -3.1135  -18.4868 O   0  0  0  0  0  0  0  0  0  0  0  0
   19.7353   -4.4325  -18.1345 C   0  0  0  0  0  0  0  0  0  0  0  0
   20.7930   -5.1041  -18.7093 C   0  0  0  0  0  0  0  0  0  0  0  0
   21.1046   -6.4081  -18.3835 C   0  0  0  0  0  0  0  0  0  0  0  0
   20.3636   -7.1103  -17.4564 C   0  0  0  0  0  0  0  0  0  0  0  0
   20.6482   -8.5081  -17.0793 C   0  0  0  0  0  0  0  0  0  0  0  0
   21.7858   -8.6438  -16.0973 C   0  0  2  0  0  0  0  0  0  0  0  0
   21.9110  -10.0939  -15.8754 N   0  0  0  0  0  0  0  0  0  0  0  0
   21.4159   -7.9520  -14.8460 C   0  0  0  0  0  0  0  0  0  0  0  0
   21.8045   -6.6069  -14.6895 O   0  0  0  0  0  0  0  0  0  0  0  0
   19.2944   -6.4225  -16.8791 C   0  0  0  0  0  0  0  0  0  0  0  0
   18.9836   -5.1198  -17.2048 C   0  0  0  0  0  0  0  0  0  0  0  0
   20.7808   -8.4834  -13.9180 O   0  0  0  0  0  0  0  0  0  0  0  0
  2  3  1  0
  2  1  1  1
  3  4  1  0
  4  5  1  0
  5  9  1  0
  5  6  2  0
  7  8  2  0
  7  2  1  0
 11 12  1  1
 11 10  1  0
 13 11  1  0
 14 13  1  6
 14 15  1  0
 15  7  1  0
 16 25  1  0
 16 14  1  0
 17 16  2  0
 19 18  1  0
 20 19  2  0
 21 20  1  0
 22 28  1  0
 22 21  2  0
 23 22  1  0
 24 25  1  0
 24 23  1  6
 26 24  1  0
 27 26  1  0
 28 29  2  0
 29 19  1  0
 30 26  2  0
M  END
$$$$
