ELY.pdb
     RDKit          3D

 30 30  0  0  1  0  0  0  0  0999 V2000
   22.4942  -11.7522  -20.0105 N   0  0  0  0  0  0  0  0  0  0  0  0
   21.4441  -11.4862  -19.0662 C   0  0  1  0  0  0  0  0  0  0  0  0
   20.9070  -12.7378  -18.4416 C   0  0  0  0  0  0  0  0  0  0  0  0
   21.9393  -13.6939  -17.9537 C   0  0  0  0  0  0  0  0  0  0  0  0
   21.4206  -14.8974  -17.3022 C   0  0  0  0  0  0  0  0  0  0  0  0
   20.5150  -15.6458  -17.7106 O   0  0  0  0  0  0  0  0  0  0  0  0
   21.8768  -10.5658  -17.9836 C   0  0  0  0  0  0  0  0  0  0  0  0
   20.9649  -10.1989  -17.1756 O   0  0  0  0  0  0  0  0  0  0  0  0
   21.9979  -15.2666  -16.0749 O   0  0  0  0  0  0  0  0  0  0  0  0
   24.8785  -10.6730  -14.5172 C   0  0  0  0  0  0  0  0  0  0  0  0
   25.4748  -10.4558  -15.8915 C   0  0  2  0  0  0  0  0  0  0  0  0
   26.9875  -10.3305  -15.6988 C   0  0  0  0  0  0  0  0  0  0  0  0
   25.0003   -9.1533  -16.4495 C   0  0  0  0  0  0  0  0  0  0  0  0
   23.5346   -9.1512  -16.8183 C   0  0  2  0  0  0  0  0  0  0  0  0
   23.2102  -10.1057  -17.8304 N   0  0  0  0  0  0  0  0  0  0  0  0
   23.2320   -7.7467  -17.2754 C   0  0  0  0  0  0  0  0  0  0  0  0
   23.9130   -7.2160  -18.1943 O   0  0  0  0  0  0  0  0  0  0  0  0
   19.3919   -0.9171  -20.8033 O   0  0  0  0  0  0  0  0  0  0  0  0
   19.7911   -2.1173  -20.2147 C   0  0  0  0  0  0  0  0  0  0  0  0
   18.9664   -2.7816  -19.3321 C   0  0  0  0  0  0  0  0  0  0  0  0
   19.3305   -3.9699  -18.7328 C   0  0  0  0  0  0  0  0  0  0  0  0
   20.5515   -4.5566  -18.9910 C   0  0  0  0  0  0  0  0  0  0  0  0
   20.9932   -5.8201  -18.3703 C   0  0  0  0  0  0  0  0  0  0  0  0
   21.8847   -5.6182  -17.1697 C   0  0  2  0  0  0  0  0  0  0  0  0
   22.1982   -6.9810  -16.7093 N   0  0  0  0  0  0  0  0  0  0  0  0
   21.1299   -4.8773  -16.1391 C   0  0  0  0  0  0  0  0  0  0  0  0
   21.2873   -3.4787  -16.0757 O   0  0  0  0  0  0  0  0  0  0  0  0
   21.3804   -3.8772  -19.8861 C   0  0  0  0  0  0  0  0  0  0  0  0
   21.0162   -2.6903  -20.4846 C   0  0  0  0  0  0  0  0  0  0  0  0
   20.3610   -5.4114  -15.3203 O   0  0  0  0  0  0  0  0  0  0  0  0
  2  3  1  0
  2  1  1  6
  3  4  1  0
  4  5  1  0
  5  9  1  0
  5  6  2  0
  7  8  2  0
  7  2  1  0
 11 12  1  1
 11 10  1  0
 13 11  1  0
 14 13  1  6
 14 15  1  0
 15  7  1  0
 16 25  1  0
 16 14  1  0
 17 16  2  0
 19 18  1  0
 20 19  2  0
 21 20  1  0
 22 28  1  0
 22 21  2  0
 23 22  1  0
 24 25  1  0
 24 23  1  6
 26 24  1  0
 27 26  1  0
 28 29  2  0
 29 19  1  0
 30 26  2  0
M  END
$$$$
