ELY.pdb
     RDKit          3D

 30 30  0  0  1  0  0  0  0  0999 V2000
   28.9898  -37.9668   -5.7030 N   0  0  0  0  0  0  0  0  0  0  0  0
   27.7485  -37.2904   -5.4446 C   0  0  1  0  0  0  0  0  0  0  0  0
   27.0594  -37.8093   -4.2194 C   0  0  0  0  0  0  0  0  0  0  0  0
   26.3810  -39.1246   -4.3851 C   0  0  0  0  0  0  0  0  0  0  0  0
   24.9371  -39.1194   -4.1465 C   0  0  0  0  0  0  0  0  0  0  0  0
   24.0349  -39.3438   -4.9728 O   0  0  0  0  0  0  0  0  0  0  0  0
   27.9234  -35.8222   -5.3025 C   0  0  0  0  0  0  0  0  0  0  0  0
   29.1216  -35.4230   -5.1474 O   0  0  0  0  0  0  0  0  0  0  0  0
   24.4995  -38.8301   -2.8423 O   0  0  0  0  0  0  0  0  0  0  0  0
   27.4745  -32.7956   -8.1673 C   0  0  0  0  0  0  0  0  0  0  0  0
   26.1440  -33.0892   -7.5079 C   0  0  2  0  0  0  0  0  0  0  0  0
   25.1038  -32.2130   -8.2090 C   0  0  0  0  0  0  0  0  0  0  0  0
   26.1809  -32.6567   -6.0780 C   0  0  0  0  0  0  0  0  0  0  0  0
   27.0969  -33.4948   -5.2161 C   0  0  2  0  0  0  0  0  0  0  0  0
   26.8484  -34.8967   -5.3328 N   0  0  0  0  0  0  0  0  0  0  0  0
   26.8759  -33.0171   -3.8032 C   0  0  0  0  0  0  0  0  0  0  0  0
   27.2270  -31.8551   -3.4623 O   0  0  0  0  0  0  0  0  0  0  0  0
   23.7144  -31.2979    4.1368 O   0  0  0  0  0  0  0  0  0  0  0  0
   23.9698  -31.7357    2.8370 C   0  0  0  0  0  0  0  0  0  0  0  0
   23.8766  -33.0714    2.5088 C   0  0  0  0  0  0  0  0  0  0  0  0
   24.1225  -33.5375    1.2337 C   0  0  0  0  0  0  0  0  0  0  0  0
   24.4778  -32.6792    0.2145 C   0  0  0  0  0  0  0  0  0  0  0  0
   24.7605  -33.1264   -1.1628 C   0  0  0  0  0  0  0  0  0  0  0  0
   26.2176  -33.4343   -1.4055 C   0  0  2  0  0  0  0  0  0  0  0  0
   26.2806  -33.8289   -2.8224 N   0  0  0  0  0  0  0  0  0  0  0  0
   26.6164  -34.5554   -0.5308 C   0  0  0  0  0  0  0  0  0  0  0  0
   26.8739  -34.2811    0.8269 O   0  0  0  0  0  0  0  0  0  0  0  0
   24.5697  -31.3283    0.5556 C   0  0  0  0  0  0  0  0  0  0  0  0
   24.3238  -30.8631    1.8295 C   0  0  0  0  0  0  0  0  0  0  0  0
   26.7398  -35.7309   -0.9179 O   0  0  0  0  0  0  0  0  0  0  0  0
  2  3  1  0
  2  1  1  1
  3  4  1  0
  4  5  1  0
  5  9  1  0
  5  6  2  0
  7  8  2  0
  7  2  1  0
 11 12  1  6
 11 10  1  0
 13 11  1  0
 14 13  1  6
 14 15  1  0
 15  7  1  0
 16 25  1  0
 16 14  1  0
 17 16  2  0
 19 18  1  0
 20 19  2  0
 21 20  1  0
 22 28  1  0
 22 21  2  0
 23 22  1  0
 24 25  1  0
 24 23  1  1
 26 24  1  0
 27 26  1  0
 28 29  2  0
 29 19  1  0
 30 26  2  0
M  END
$$$$
