ELY.pdb
     RDKit          3D

 30 30  0  0  1  0  0  0  0  0999 V2000
   28.6429  -19.6766  -14.4745 N   0  0  0  0  0  0  0  0  0  0  0  0
   27.6262  -20.6367  -14.8057 C   0  0  1  0  0  0  0  0  0  0  0  0
   28.1695  -21.8010  -15.5768 C   0  0  0  0  0  0  0  0  0  0  0  0
   29.1111  -21.4475  -16.6750 C   0  0  0  0  0  0  0  0  0  0  0  0
   28.5590  -20.5847  -17.7203 C   0  0  0  0  0  0  0  0  0  0  0  0
   28.9769  -19.4685  -18.0762 O   0  0  0  0  0  0  0  0  0  0  0  0
   26.9228  -21.1529  -13.6035 C   0  0  0  0  0  0  0  0  0  0  0  0
   26.0690  -22.0718  -13.8174 O   0  0  0  0  0  0  0  0  0  0  0  0
   27.4283  -21.0520  -18.4125 O   0  0  0  0  0  0  0  0  0  0  0  0
   26.1345  -19.6001   -7.7248 C   0  0  0  0  0  0  0  0  0  0  0  0
   25.7564  -20.5972   -8.7992 C   0  0  2  0  0  0  0  0  0  0  0  0
   25.7647  -21.9776   -8.1393 C   0  0  0  0  0  0  0  0  0  0  0  0
   26.8066  -20.6192   -9.8620 C   0  0  0  0  0  0  0  0  0  0  0  0
   26.2854  -21.0337  -11.2188 C   0  0  2  0  0  0  0  0  0  0  0  0
   27.1619  -20.6764  -12.2887 N   0  0  0  0  0  0  0  0  0  0  0  0
   24.9447  -20.3594  -11.3631 C   0  0  0  0  0  0  0  0  0  0  0  0
   24.8525  -19.1041  -11.2890 O   0  0  0  0  0  0  0  0  0  0  0  0
   17.2824  -19.1626  -15.5528 O   0  0  0  0  0  0  0  0  0  0  0  0
   18.5072  -19.5815  -15.0325 C   0  0  0  0  0  0  0  0  0  0  0  0
   18.5830  -20.6683  -14.1877 C   0  0  0  0  0  0  0  0  0  0  0  0
   19.7776  -21.1085  -13.6559 C   0  0  0  0  0  0  0  0  0  0  0  0
   20.9670  -20.4746  -13.9474 C   0  0  0  0  0  0  0  0  0  0  0  0
   22.2694  -20.8986  -13.3986 C   0  0  0  0  0  0  0  0  0  0  0  0
   22.5016  -20.4353  -11.9814 C   0  0  2  0  0  0  0  0  0  0  0  0
   23.7610  -21.0850  -11.5823 N   0  0  0  0  0  0  0  0  0  0  0  0
   21.3810  -20.9033  -11.1410 C   0  0  0  0  0  0  0  0  0  0  0  0
   20.2761  -20.0465  -10.9679 O   0  0  0  0  0  0  0  0  0  0  0  0
   20.8812  -19.3751  -14.8038 C   0  0  0  0  0  0  0  0  0  0  0  0
   19.6876  -18.9358  -15.3349 C   0  0  0  0  0  0  0  0  0  0  0  0
   21.3505  -22.0099  -10.5740 O   0  0  0  0  0  0  0  0  0  0  0  0
  2  3  1  0
  2  1  1  1
  3  4  1  0
  4  5  1  0
  5  9  1  0
  5  6  2  0
  7  8  2  0
  7  2  1  0
 11 12  1  1
 11 10  1  0
 13 11  1  0
 14 13  1  1
 14 15  1  0
 15  7  1  0
 16 25  1  0
 16 14  1  0
 17 16  2  0
 19 18  1  0
 20 19  2  0
 21 20  1  0
 22 28  1  0
 22 21  2  0
 23 22  1  0
 24 25  1  0
 24 23  1  6
 26 24  1  0
 27 26  1  0
 28 29  2  0
 29 19  1  0
 30 26  2  0
M  END
$$$$
