ELY.pdb
     RDKit          3D

 30 30  0  0  1  0  0  0  0  0999 V2000
   23.6205  -20.3534  -19.3595 N   0  0  0  0  0  0  0  0  0  0  0  0
   24.1380  -21.4012  -18.5232 C   0  0  1  0  0  0  0  0  0  0  0  0
   25.4185  -21.9733  -19.0507 C   0  0  0  0  0  0  0  0  0  0  0  0
   25.3268  -22.5842  -20.4056 C   0  0  0  0  0  0  0  0  0  0  0  0
   24.5617  -23.8296  -20.4809 C   0  0  0  0  0  0  0  0  0  0  0  0
   24.0141  -24.3193  -21.4846 O   0  0  0  0  0  0  0  0  0  0  0  0
   24.3620  -20.9506  -17.1256 C   0  0  0  0  0  0  0  0  0  0  0  0
   24.8050  -21.8359  -16.3260 O   0  0  0  0  0  0  0  0  0  0  0  0
   24.4178  -24.5713  -19.2955 O   0  0  0  0  0  0  0  0  0  0  0  0
   27.1556  -18.1727  -16.0810 C   0  0  0  0  0  0  0  0  0  0  0  0
   25.8590  -17.4144  -16.2688 C   0  0  2  0  0  0  0  0  0  0  0  0
   26.1778  -15.9358  -16.0375 C   0  0  0  0  0  0  0  0  0  0  0  0
   24.8799  -17.8161  -15.2139 C   0  0  0  0  0  0  0  0  0  0  0  0
   24.4155  -19.2494  -15.3339 C   0  0  2  0  0  0  0  0  0  0  0  0
   24.1095  -19.6286  -16.6767 N   0  0  0  0  0  0  0  0  0  0  0  0
   23.2023  -19.3597  -14.4456 C   0  0  0  0  0  0  0  0  0  0  0  0
   23.2876  -19.0934  -13.2161 O   0  0  0  0  0  0  0  0  0  0  0  0
   20.9357  -13.4146  -14.2778 O   0  0  0  0  0  0  0  0  0  0  0  0
   20.6429  -14.7732  -14.3992 C   0  0  0  0  0  0  0  0  0  0  0  0
   20.0618  -15.4677  -13.3598 C   0  0  0  0  0  0  0  0  0  0  0  0
   19.7595  -16.8111  -13.4469 C   0  0  0  0  0  0  0  0  0  0  0  0
   20.0278  -17.5319  -14.5915 C   0  0  0  0  0  0  0  0  0  0  0  0
   19.7335  -18.9707  -14.7333 C   0  0  0  0  0  0  0  0  0  0  0  0
   20.7592  -19.8597  -14.0742 C   0  0  2  0  0  0  0  0  0  0  0  0
   21.9470  -19.7563  -14.9379 N   0  0  0  0  0  0  0  0  0  0  0  0
   20.2437  -21.2436  -14.0552 C   0  0  0  0  0  0  0  0  0  0  0  0
   19.1079  -21.5197  -13.2687 O   0  0  0  0  0  0  0  0  0  0  0  0
   20.6162  -16.8207  -15.6393 C   0  0  0  0  0  0  0  0  0  0  0  0
   20.9179  -15.4787  -15.5518 C   0  0  0  0  0  0  0  0  0  0  0  0
   20.7503  -22.1843  -14.6917 O   0  0  0  0  0  0  0  0  0  0  0  0
  2  3  1  0
  2  1  1  6
  3  4  1  0
  4  5  1  0
  5  9  1  0
  5  6  2  0
  7  8  2  0
  7  2  1  0
 11 12  1  1
 11 10  1  0
 13 11  1  0
 14 13  1  6
 14 15  1  0
 15  7  1  0
 16 25  1  0
 16 14  1  0
 17 16  2  0
 19 18  1  0
 20 19  2  0
 21 20  1  0
 22 28  1  0
 22 21  2  0
 23 22  1  0
 24 25  1  0
 24 23  1  6
 26 24  1  0
 27 26  1  0
 28 29  2  0
 29 19  1  0
 30 26  2  0
M  END
$$$$
