CAN.pdb
     RDKit          3D

 20 19  0  0  1  0  0  0  0  0999 V2000
   13.6486  -15.8514   17.1822 N   0  0  0  0  0  0  0  0  0  0  0  0
   12.5526  -16.6716   17.6588 C   0  0  1  0  0  0  0  0  0  0  0  0
   12.9356  -18.1217   17.4343 C   0  0  0  0  0  0  0  0  0  0  0  0
   11.3971  -19.0146   16.9947 S   0  0  0  0  0  0  0  0  0  0  0  0
   12.3705  -16.3664   19.1115 C   0  0  0  0  0  0  0  0  0  0  0  0
   13.3968  -16.2972   19.8692 O   0  0  0  0  0  0  0  0  0  0  0  0
    9.5559  -15.5092   21.3914 C   0  0  0  0  0  0  0  0  0  0  0  0
   11.0045  -15.9123   21.0930 C   0  0  2  0  0  0  0  0  0  0  0  0
   11.0867  -16.1479   19.6864 N   0  0  0  0  0  0  0  0  0  0  0  0
   11.3543  -17.1038   21.9011 C   0  0  0  0  0  0  0  0  0  0  0  0
   11.1451  -18.2898   21.5243 O   0  0  0  0  0  0  0  0  0  0  0  0
   15.3106  -18.8965   22.2256 N   0  0  0  0  0  0  0  0  0  0  0  0
   14.4082  -19.1983   23.2802 C   0  0  0  0  0  0  0  0  0  0  0  0
   14.1013  -20.4182   23.4635 O   0  0  0  0  0  0  0  0  0  0  0  0
   13.8276  -18.1547   24.1509 C   0  0  0  0  0  0  0  0  0  0  0  0
   12.3092  -18.0952   24.0285 C   0  0  2  0  0  0  0  0  0  0  0  0
   11.9623  -16.9466   23.1699 N   0  0  0  0  0  0  0  0  0  0  0  0
   11.7608  -17.9008   25.3772 C   0  0  0  0  0  0  0  0  0  0  0  0
   11.4306  -16.5966   25.7348 O   0  0  0  0  0  0  0  0  0  0  0  0
   11.5833  -18.8357   26.1980 O   0  0  0  0  0  0  0  0  0  0  0  0
  2  5  1  0
  2  1  1  1
  3  2  1  0
  3  4  1  0
  5  6  2  0
  8  7  1  6
  9  8  1  0
  9  5  1  0
 10 11  2  0
 10  8  1  0
 13 15  1  0
 13 12  1  0
 14 13  2  0
 16 15  1  1
 16 18  1  0
 16 17  1  0
 17 10  1  0
 18 19  1  0
 20 18  2  0
M  END
$$$$
