CAN.pdb
     RDKit          3D

 20 19  0  0  1  0  0  0  0  0999 V2000
   -1.5827  -22.7326   18.7218 N   0  0  0  0  0  0  0  0  0  0  0  0
   -0.6605  -21.6519   18.4341 C   0  0  1  0  0  0  0  0  0  0  0  0
   -1.3135  -20.3606   18.8879 C   0  0  0  0  0  0  0  0  0  0  0  0
   -2.6461  -19.9895   17.6865 S   0  0  0  0  0  0  0  0  0  0  0  0
    0.5984  -21.9309   19.1916 C   0  0  0  0  0  0  0  0  0  0  0  0
    0.5248  -22.2997   20.4126 O   0  0  0  0  0  0  0  0  0  0  0  0
    4.2487  -22.0402   18.4626 C   0  0  0  0  0  0  0  0  0  0  0  0
    3.0331  -22.1046   19.3943 C   0  0  2  0  0  0  0  0  0  0  0  0
    1.8861  -21.8004   18.5988 N   0  0  0  0  0  0  0  0  0  0  0  0
    3.2284  -21.1558   20.5154 C   0  0  0  0  0  0  0  0  0  0  0  0
    2.9952  -19.9185   20.4325 O   0  0  0  0  0  0  0  0  0  0  0  0
    3.1775  -23.3120   23.7279 N   0  0  0  0  0  0  0  0  0  0  0  0
    2.4067  -22.2151   24.1973 C   0  0  0  0  0  0  0  0  0  0  0  0
    1.4168  -22.4698   24.9530 O   0  0  0  0  0  0  0  0  0  0  0  0
    2.7167  -20.8156   23.8374 C   0  0  0  0  0  0  0  0  0  0  0  0
    3.9252  -20.7228   22.9127 C   0  0  2  0  0  0  0  0  0  0  0  0
    3.6969  -21.6235   21.7667 N   0  0  0  0  0  0  0  0  0  0  0  0
    5.1026  -21.1620   23.6731 C   0  0  0  0  0  0  0  0  0  0  0  0
    5.7552  -22.3013   23.2104 O   0  0  0  0  0  0  0  0  0  0  0  0
    5.5324  -20.5697   24.6947 O   0  0  0  0  0  0  0  0  0  0  0  0
  2  5  1  0
  2  1  1  1
  3  2  1  0
  3  4  1  0
  5  6  2  0
  8  7  1  6
  9  8  1  0
  9  5  1  0
 10 11  2  0
 10  8  1  0
 13 15  1  0
 13 12  1  0
 14 13  2  0
 16 15  1  1
 16 18  1  0
 16 17  1  0
 17 10  1  0
 18 19  1  0
 20 18  2  0
M  END
$$$$
