CAN.pdb
     RDKit          3D

 20 19  0  0  1  0  0  0  0  0999 V2000
    6.5702  -13.5835   18.4149 N   0  0  0  0  0  0  0  0  0  0  0  0
    8.0141  -13.7019   18.4629 C   0  0  1  0  0  0  0  0  0  0  0  0
    8.5313  -12.6162   19.3869 C   0  0  0  0  0  0  0  0  0  0  0  0
   10.3403  -12.8650   19.5370 S   0  0  0  0  0  0  0  0  0  0  0  0
    8.3289  -15.0679   18.9842 C   0  0  0  0  0  0  0  0  0  0  0  0
    7.5938  -15.5728   19.8989 O   0  0  0  0  0  0  0  0  0  0  0  0
    9.9250  -18.0336   17.7434 C   0  0  0  0  0  0  0  0  0  0  0  0
    9.5797  -17.1735   18.9645 C   0  0  2  0  0  0  0  0  0  0  0  0
    9.4255  -15.8330   18.4956 N   0  0  0  0  0  0  0  0  0  0  0  0
   10.6523  -17.3131   19.9770 C   0  0  0  0  0  0  0  0  0  0  0  0
   10.9790  -18.4131   20.5019 O   0  0  0  0  0  0  0  0  0  0  0  0
   13.2910  -13.8900   18.9679 N   0  0  0  0  0  0  0  0  0  0  0  0
   13.8529  -14.8115   19.8913 C   0  0  0  0  0  0  0  0  0  0  0  0
   14.8510  -15.4983   19.5065 O   0  0  0  0  0  0  0  0  0  0  0  0
   13.3192  -14.9908   21.2578 C   0  0  0  0  0  0  0  0  0  0  0  0
   12.4825  -16.2596   21.3772 C   0  0  2  0  0  0  0  0  0  0  0  0
   11.3776  -16.1745   20.4032 N   0  0  0  0  0  0  0  0  0  0  0  0
   11.9474  -16.3132   22.7439 C   0  0  0  0  0  0  0  0  0  0  0  0
   12.8715  -16.4907   23.7697 O   0  0  0  0  0  0  0  0  0  0  0  0
   10.7252  -16.2094   23.0177 O   0  0  0  0  0  0  0  0  0  0  0  0
  2  5  1  0
  2  1  1  1
  3  2  1  0
  3  4  1  0
  5  6  2  0
  8  7  1  6
  9  8  1  0
  9  5  1  0
 10 11  2  0
 10  8  1  0
 13 15  1  0
 13 12  1  0
 14 13  2  0
 16 15  1  1
 16 18  1  0
 16 17  1  0
 17 10  1  0
 18 19  1  0
 20 18  2  0
M  END
$$$$
