CAN.pdb
     RDKit          3D

 20 19  0  0  1  0  0  0  0  0999 V2000
    7.4759  -15.3642   20.8128 N   0  0  0  0  0  0  0  0  0  0  0  0
    8.4335  -14.2767   20.8509 C   0  0  1  0  0  0  0  0  0  0  0  0
    7.9045  -13.1703   19.9587 C   0  0  0  0  0  0  0  0  0  0  0  0
    7.8741  -13.8347   18.2514 S   0  0  0  0  0  0  0  0  0  0  0  0
    8.5435  -13.8336   22.2750 C   0  0  0  0  0  0  0  0  0  0  0  0
    9.4480  -12.9919   22.5999 O   0  0  0  0  0  0  0  0  0  0  0  0
    6.6071  -13.4757   25.2441 C   0  0  0  0  0  0  0  0  0  0  0  0
    7.9363  -13.9494   24.6450 C   0  0  2  0  0  0  0  0  0  0  0  0
    7.6712  -14.3179   23.2904 N   0  0  0  0  0  0  0  0  0  0  0  0
    8.4642  -15.0703   25.4573 C   0  0  0  0  0  0  0  0  0  0  0  0
    8.6292  -15.0108   26.7069 O   0  0  0  0  0  0  0  0  0  0  0  0
    6.4671  -18.4568   23.8243 N   0  0  0  0  0  0  0  0  0  0  0  0
    7.2001  -18.5877   25.0339 C   0  0  0  0  0  0  0  0  0  0  0  0
    6.5448  -18.5971   26.1231 O   0  0  0  0  0  0  0  0  0  0  0  0
    8.6728  -18.7095   25.0602 C   0  0  0  0  0  0  0  0  0  0  0  0
    9.3362  -17.4454   25.5952 C   0  0  2  0  0  0  0  0  0  0  0  0
    8.8108  -16.2945   24.8363 N   0  0  0  0  0  0  0  0  0  0  0  0
   10.7829  -17.5754   25.3774 C   0  0  0  0  0  0  0  0  0  0  0  0
   11.3539  -16.7133   24.4455 O   0  0  0  0  0  0  0  0  0  0  0  0
   11.5055  -18.4088   25.9796 O   0  0  0  0  0  0  0  0  0  0  0  0
  2  5  1  0
  2  1  1  1
  3  2  1  0
  3  4  1  0
  5  6  2  0
  8  7  1  1
  9  8  1  0
  9  5  1  0
 10 11  2  0
 10  8  1  0
 13 15  1  0
 13 12  1  0
 14 13  2  0
 16 15  1  6
 16 18  1  0
 16 17  1  0
 17 10  1  0
 18 19  1  0
 20 18  2  0
M  END
$$$$
