CAN.pdb
     RDKit          3D

 20 19  0  0  1  0  0  0  0  0999 V2000
    9.9084  -15.3576   15.2239 N   0  0  0  0  0  0  0  0  0  0  0  0
    8.8517  -15.4937   16.2067 C   0  0  1  0  0  0  0  0  0  0  0  0
    8.9433  -16.8925   16.7855 C   0  0  0  0  0  0  0  0  0  0  0  0
    7.3092  -17.2687   17.5241 S   0  0  0  0  0  0  0  0  0  0  0  0
    9.0806  -14.4473   17.2503 C   0  0  0  0  0  0  0  0  0  0  0  0
    9.4883  -13.2896   16.8962 O   0  0  0  0  0  0  0  0  0  0  0  0
    7.6585  -12.7156   19.1829 C   0  0  0  0  0  0  0  0  0  0  0  0
    8.8727  -13.5836   19.5328 C   0  0  2  0  0  0  0  0  0  0  0  0
    8.8592  -14.6945   18.6347 N   0  0  0  0  0  0  0  0  0  0  0  0
    8.7879  -13.9881   20.9555 C   0  0  0  0  0  0  0  0  0  0  0  0
    8.7144  -13.1683   21.9120 O   0  0  0  0  0  0  0  0  0  0  0  0
    8.1144  -18.5767   20.6540 N   0  0  0  0  0  0  0  0  0  0  0  0
    7.8266  -17.7119   21.7435 C   0  0  0  0  0  0  0  0  0  0  0  0
    6.6397  -17.2688   21.8477 O   0  0  0  0  0  0  0  0  0  0  0  0
    8.8481  -17.3203   22.7372 C   0  0  0  0  0  0  0  0  0  0  0  0
    9.2009  -15.8408   22.6340 C   0  0  2  0  0  0  0  0  0  0  0  0
    8.7820  -15.3603   21.3035 N   0  0  0  0  0  0  0  0  0  0  0  0
   10.6574  -15.7190   22.7789 C   0  0  0  0  0  0  0  0  0  0  0  0
   11.1641  -15.7895   24.0736 O   0  0  0  0  0  0  0  0  0  0  0  0
   11.4423  -15.5577   21.8108 O   0  0  0  0  0  0  0  0  0  0  0  0
  2  5  1  0
  2  1  1  6
  3  2  1  0
  3  4  1  0
  5  6  2  0
  8  7  1  6
  9  8  1  0
  9  5  1  0
 10 11  2  0
 10  8  1  0
 13 15  1  0
 13 12  1  0
 14 13  2  0
 16 15  1  6
 16 18  1  0
 16 17  1  0
 17 10  1  0
 18 19  1  0
 20 18  2  0
M  END
$$$$
