CAN.pdb
     RDKit          3D

 20 19  0  0  1  0  0  0  0  0999 V2000
    9.2184  -15.6683   15.1938 N   0  0  0  0  0  0  0  0  0  0  0  0
    8.3752  -15.8861   16.3526 C   0  0  1  0  0  0  0  0  0  0  0  0
    8.6141  -17.3050   16.8316 C   0  0  0  0  0  0  0  0  0  0  0  0
    7.5684  -17.5466   18.3166 S   0  0  0  0  0  0  0  0  0  0  0  0
    8.7730  -14.8797   17.3848 C   0  0  0  0  0  0  0  0  0  0  0  0
   10.0062  -14.5734   17.5169 O   0  0  0  0  0  0  0  0  0  0  0  0
    7.1273  -12.5050   19.6986 C   0  0  0  0  0  0  0  0  0  0  0  0
    8.3027  -13.3923   19.2730 C   0  0  2  0  0  0  0  0  0  0  0  0
    7.8217  -14.2446   18.2323 N   0  0  0  0  0  0  0  0  0  0  0  0
    8.7990  -14.1409   20.4514 C   0  0  0  0  0  0  0  0  0  0  0  0
    9.2192  -13.5874   21.5047 O   0  0  0  0  0  0  0  0  0  0  0  0
    6.8252  -17.6699   21.3722 N   0  0  0  0  0  0  0  0  0  0  0  0
    8.0119  -18.4362   21.2238 C   0  0  0  0  0  0  0  0  0  0  0  0
    7.8940  -19.7003   21.1591 O   0  0  0  0  0  0  0  0  0  0  0  0
    9.3517  -17.8172   21.1457 C   0  0  0  0  0  0  0  0  0  0  0  0
    9.3248  -16.3530   21.5694 C   0  0  2  0  0  0  0  0  0  0  0  0
    8.8154  -15.5564   20.4370 N   0  0  0  0  0  0  0  0  0  0  0  0
   10.7028  -15.9557   21.8864 C   0  0  0  0  0  0  0  0  0  0  0  0
   11.4911  -15.5312   20.8205 O   0  0  0  0  0  0  0  0  0  0  0  0
   11.1860  -15.9831   23.0463 O   0  0  0  0  0  0  0  0  0  0  0  0
  2  5  1  0
  2  1  1  6
  3  2  1  0
  3  4  1  0
  5  6  2  0
  8  7  1  1
  9  8  1  0
  9  5  1  0
 10 11  2  0
 10  8  1  0
 13 15  1  0
 13 12  1  0
 14 13  2  0
 16 15  1  6
 16 18  1  0
 16 17  1  0
 17 10  1  0
 18 19  1  0
 20 18  2  0
M  END
$$$$
