CAN.pdb
     RDKit          3D

 20 19  0  0  1  0  0  0  0  0999 V2000
    7.4634  -14.7459   18.1929 N   0  0  0  0  0  0  0  0  0  0  0  0
    8.2905  -14.2991   19.2962 C   0  0  1  0  0  0  0  0  0  0  0  0
    7.8314  -12.9045   19.6762 C   0  0  0  0  0  0  0  0  0  0  0  0
    8.7242  -11.7362   18.5830 S   0  0  0  0  0  0  0  0  0  0  0  0
    8.0955  -15.2699   20.4170 C   0  0  0  0  0  0  0  0  0  0  0  0
    6.9097  -15.5996   20.7594 O   0  0  0  0  0  0  0  0  0  0  0  0
    9.8260  -17.9963   21.9143 C   0  0  0  0  0  0  0  0  0  0  0  0
    8.9094  -16.7914   22.1552 C   0  0  2  0  0  0  0  0  0  0  0  0
    9.1900  -15.8454   21.1222 N   0  0  0  0  0  0  0  0  0  0  0  0
    9.1573  -16.2554   23.5141 C   0  0  0  0  0  0  0  0  0  0  0  0
   10.1500  -15.5352   23.8109 O   0  0  0  0  0  0  0  0  0  0  0  0
    5.8531  -13.3990   26.0322 N   0  0  0  0  0  0  0  0  0  0  0  0
    7.1036  -14.0650   26.1334 C   0  0  0  0  0  0  0  0  0  0  0  0
    8.1536  -13.3882   25.8978 O   0  0  0  0  0  0  0  0  0  0  0  0
    7.2149  -15.4935   26.4960 C   0  0  0  0  0  0  0  0  0  0  0  0
    8.4975  -16.1166   25.9565 C   0  0  2  0  0  0  0  0  0  0  0  0
    8.2523  -16.5402   24.5648 N   0  0  0  0  0  0  0  0  0  0  0  0
    8.8111  -17.2836   26.7914 C   0  0  0  0  0  0  0  0  0  0  0  0
    8.8735  -18.5149   26.1451 O   0  0  0  0  0  0  0  0  0  0  0  0
    9.0188  -17.2186   28.0292 O   0  0  0  0  0  0  0  0  0  0  0  0
  2  5  1  0
  2  1  1  6
  3  2  1  0
  3  4  1  0
  5  6  2  0
  8  7  1  6
  9  8  1  0
  9  5  1  0
 10 11  2  0
 10  8  1  0
 13 15  1  0
 13 12  1  0
 14 13  2  0
 16 15  1  1
 16 18  1  0
 16 17  1  0
 17 10  1  0
 18 19  1  0
 20 18  2  0
M  END
$$$$
