CAN.pdb
     RDKit          3D

 20 19  0  0  1  0  0  0  0  0999 V2000
    6.2398  -19.0282   21.0445 N   0  0  0  0  0  0  0  0  0  0  0  0
    5.9633  -18.0270   22.0556 C   0  0  1  0  0  0  0  0  0  0  0  0
    6.0150  -18.7148   23.4062 C   0  0  0  0  0  0  0  0  0  0  0  0
    5.4175  -17.5016   24.6424 S   0  0  0  0  0  0  0  0  0  0  0  0
    7.0152  -16.9711   21.9321 C   0  0  0  0  0  0  0  0  0  0  0  0
    8.2268  -17.3172   21.7215 O   0  0  0  0  0  0  0  0  0  0  0  0
    7.1425  -13.3221   21.4413 C   0  0  0  0  0  0  0  0  0  0  0  0
    7.7797  -14.6448   21.8820 C   0  0  2  0  0  0  0  0  0  0  0  0
    6.7150  -15.5839   22.0410 N   0  0  0  0  0  0  0  0  0  0  0  0
    8.5476  -14.4233   23.1295 C   0  0  0  0  0  0  0  0  0  0  0  0
    9.5868  -13.7103   23.1932 O   0  0  0  0  0  0  0  0  0  0  0  0
    5.6189  -13.1447   26.3355 N   0  0  0  0  0  0  0  0  0  0  0  0
    7.0266  -13.2428   26.4984 C   0  0  0  0  0  0  0  0  0  0  0  0
    7.6996  -12.1646   26.4789 O   0  0  0  0  0  0  0  0  0  0  0  0
    7.7156  -14.5370   26.6845 C   0  0  0  0  0  0  0  0  0  0  0  0
    8.7918  -14.7628   25.6286 C   0  0  2  0  0  0  0  0  0  0  0  0
    8.1232  -15.0232   24.3395 N   0  0  0  0  0  0  0  0  0  0  0  0
    9.5765  -15.9356   26.0360 C   0  0  0  0  0  0  0  0  0  0  0  0
   10.3139  -15.8160   27.2106 O   0  0  0  0  0  0  0  0  0  0  0  0
    9.6094  -17.0111   25.3867 O   0  0  0  0  0  0  0  0  0  0  0  0
  2  5  1  0
  2  1  1  6
  3  2  1  0
  3  4  1  0
  5  6  2  0
  8  7  1  1
  9  8  1  0
  9  5  1  0
 10 11  2  0
 10  8  1  0
 13 15  1  0
 13 12  1  0
 14 13  2  0
 16 15  1  1
 16 18  1  0
 16 17  1  0
 17 10  1  0
 18 19  1  0
 20 18  2  0
M  END
$$$$
