CAN.pdb
     RDKit          3D

 20 19  0  0  1  0  0  0  0  0999 V2000
    6.9087  -13.3457   19.0539 N   0  0  0  0  0  0  0  0  0  0  0  0
    8.2159  -13.9696   19.1096 C   0  0  1  0  0  0  0  0  0  0  0  0
    9.2063  -12.9157   19.5658 C   0  0  0  0  0  0  0  0  0  0  0  0
   10.8777  -13.5485   19.1618 S   0  0  0  0  0  0  0  0  0  0  0  0
    8.1250  -15.1013   20.0830 C   0  0  0  0  0  0  0  0  0  0  0  0
    7.4523  -14.9486   21.1583 O   0  0  0  0  0  0  0  0  0  0  0  0
    8.3179  -18.6592   20.2251 C   0  0  0  0  0  0  0  0  0  0  0  0
    8.7181  -17.3367   20.8890 C   0  0  2  0  0  0  0  0  0  0  0  0
    8.7646  -16.3524   19.8548 N   0  0  0  0  0  0  0  0  0  0  0  0
   10.0170  -17.5126   21.5799 C   0  0  0  0  0  0  0  0  0  0  0  0
   10.2318  -18.4025   22.4483 O   0  0  0  0  0  0  0  0  0  0  0  0
   13.0408  -16.3156   18.4148 N   0  0  0  0  0  0  0  0  0  0  0  0
   13.4100  -16.9824   19.6135 C   0  0  0  0  0  0  0  0  0  0  0  0
   13.6865  -18.2209   19.5388 O   0  0  0  0  0  0  0  0  0  0  0  0
   13.4785  -16.2905   20.9177 C   0  0  0  0  0  0  0  0  0  0  0  0
   12.4333  -16.8178   21.8942 C   0  0  2  0  0  0  0  0  0  0  0  0
   11.1040  -16.6585   21.2746 N   0  0  0  0  0  0  0  0  0  0  0  0
   12.5196  -16.0102   23.1180 C   0  0  0  0  0  0  0  0  0  0  0  0
   13.7271  -16.0517   23.8095 O   0  0  0  0  0  0  0  0  0  0  0  0
   11.5758  -15.3044   23.5545 O   0  0  0  0  0  0  0  0  0  0  0  0
  2  5  1  0
  2  1  1  1
  3  2  1  0
  3  4  1  0
  5  6  2  0
  8  7  1  6
  9  8  1  0
  9  5  1  0
 10 11  2  0
 10  8  1  0
 13 15  1  0
 13 12  1  0
 14 13  2  0
 16 15  1  6
 16 18  1  0
 16 17  1  0
 17 10  1  0
 18 19  1  0
 20 18  2  0
M  END
$$$$
