CAN.pdb
     RDKit          3D

 20 19  0  0  1  0  0  0  0  0999 V2000
    7.9753  -14.8237   18.0385 N   0  0  0  0  0  0  0  0  0  0  0  0
    8.5950  -14.1767   19.1780 C   0  0  1  0  0  0  0  0  0  0  0  0
    7.8065  -12.9150   19.4719 C   0  0  0  0  0  0  0  0  0  0  0  0
    8.5912  -12.1263   20.9277 S   0  0  0  0  0  0  0  0  0  0  0  0
    8.5396  -15.1418   20.3191 C   0  0  0  0  0  0  0  0  0  0  0  0
    7.4196  -15.6649   20.6418 O   0  0  0  0  0  0  0  0  0  0  0  0
   10.1020  -17.7217   21.8206 C   0  0  0  0  0  0  0  0  0  0  0  0
    9.5333  -16.3505   22.2033 C   0  0  2  0  0  0  0  0  0  0  0  0
    9.6970  -15.5028   21.0652 N   0  0  0  0  0  0  0  0  0  0  0  0
   10.2397  -15.8489   23.4052 C   0  0  0  0  0  0  0  0  0  0  0  0
   11.3893  -15.3297   23.3744 O   0  0  0  0  0  0  0  0  0  0  0  0
    9.8622  -13.1539   28.5217 N   0  0  0  0  0  0  0  0  0  0  0  0
    9.8035  -14.5247   28.1544 C   0  0  0  0  0  0  0  0  0  0  0  0
   10.2760  -15.3756   28.9721 O   0  0  0  0  0  0  0  0  0  0  0  0
    9.2216  -14.9790   26.8741 C   0  0  0  0  0  0  0  0  0  0  0  0
   10.2921  -15.4807   25.9116 C   0  0  2  0  0  0  0  0  0  0  0  0
    9.6238  -15.9344   24.6771 N   0  0  0  0  0  0  0  0  0  0  0  0
   10.9787  -16.6074   26.5571 C   0  0  0  0  0  0  0  0  0  0  0  0
   12.2374  -16.3479   27.0918 O   0  0  0  0  0  0  0  0  0  0  0  0
   10.4914  -17.7626   26.6434 O   0  0  0  0  0  0  0  0  0  0  0  0
  2  5  1  0
  2  1  1  6
  3  2  1  0
  3  4  1  0
  5  6  2  0
  8  7  1  6
  9  8  1  0
  9  5  1  0
 10 11  2  0
 10  8  1  0
 13 15  1  0
 13 12  1  0
 14 13  2  0
 16 15  1  1
 16 18  1  0
 16 17  1  0
 17 10  1  0
 18 19  1  0
 20 18  2  0
M  END
$$$$
