CAN.pdb
     RDKit          3D

 20 19  0  0  1  0  0  0  0  0999 V2000
    8.3625  -14.8492   17.4071 N   0  0  0  0  0  0  0  0  0  0  0  0
    9.2182  -14.0366   18.2489 C   0  0  1  0  0  0  0  0  0  0  0  0
    8.4434  -13.7136   19.5119 C   0  0  0  0  0  0  0  0  0  0  0  0
    7.1337  -12.5221   19.0405 S   0  0  0  0  0  0  0  0  0  0  0  0
   10.4436  -14.8420   18.5426 C   0  0  0  0  0  0  0  0  0  0  0  0
   10.3787  -16.1172   18.5003 O   0  0  0  0  0  0  0  0  0  0  0  0
   14.0534  -14.3273   18.6192 C   0  0  0  0  0  0  0  0  0  0  0  0
   12.8140  -15.0849   19.1091 C   0  0  2  0  0  0  0  0  0  0  0  0
   11.6897  -14.2366   18.8699 N   0  0  0  0  0  0  0  0  0  0  0  0
   12.9871  -15.4273   20.5401 C   0  0  0  0  0  0  0  0  0  0  0  0
   13.9322  -16.1388   20.9791 O   0  0  0  0  0  0  0  0  0  0  0  0
    9.2162  -17.4043   24.7408 N   0  0  0  0  0  0  0  0  0  0  0  0
   10.3864  -16.6880   24.3734 C   0  0  0  0  0  0  0  0  0  0  0  0
   11.2688  -16.5000   25.2690 O   0  0  0  0  0  0  0  0  0  0  0  0
   10.6010  -16.1652   23.0078 C   0  0  0  0  0  0  0  0  0  0  0  0
   11.9710  -15.5130   22.8597 C   0  0  2  0  0  0  0  0  0  0  0  0
   12.0654  -14.9461   21.5009 N   0  0  0  0  0  0  0  0  0  0  0  0
   12.9848  -16.5602   23.0411 C   0  0  0  0  0  0  0  0  0  0  0  0
   14.0303  -16.2724   23.9140 O   0  0  0  0  0  0  0  0  0  0  0  0
   12.9489  -17.6726   22.4575 O   0  0  0  0  0  0  0  0  0  0  0  0
  2  5  1  0
  2  1  1  6
  3  2  1  0
  3  4  1  0
  5  6  2  0
  8  7  1  1
  9  8  1  0
  9  5  1  0
 10 11  2  0
 10  8  1  0
 13 15  1  0
 13 12  1  0
 14 13  2  0
 16 15  1  6
 16 18  1  0
 16 17  1  0
 17 10  1  0
 18 19  1  0
 20 18  2  0
M  END
$$$$
