CAN.pdb
     RDKit          3D

 20 19  0  0  1  0  0  0  0  0999 V2000
    7.6463  -15.7945   19.8127 N   0  0  0  0  0  0  0  0  0  0  0  0
    6.7539  -15.8315   20.9543 C   0  0  1  0  0  0  0  0  0  0  0  0
    6.4168  -17.2852   21.2241 C   0  0  0  0  0  0  0  0  0  0  0  0
    5.2368  -17.3047   22.6256 S   0  0  0  0  0  0  0  0  0  0  0  0
    7.4804  -15.2098   22.1042 C   0  0  0  0  0  0  0  0  0  0  0  0
    8.7578  -15.2215   22.1167 O   0  0  0  0  0  0  0  0  0  0  0  0
    6.5894  -13.0102   24.9510 C   0  0  0  0  0  0  0  0  0  0  0  0
    7.5670  -13.8944   24.1685 C   0  0  2  0  0  0  0  0  0  0  0  0
    6.7969  -14.6002   23.1940 N   0  0  0  0  0  0  0  0  0  0  0  0
    8.2718  -14.7937   25.1117 C   0  0  0  0  0  0  0  0  0  0  0  0
    8.9491  -14.3837   26.0943 O   0  0  0  0  0  0  0  0  0  0  0  0
    8.0989  -18.2699   28.2452 N   0  0  0  0  0  0  0  0  0  0  0  0
    7.7915  -18.9616   27.0433 C   0  0  0  0  0  0  0  0  0  0  0  0
    7.0907  -20.0184   27.1332 O   0  0  0  0  0  0  0  0  0  0  0  0
    8.2557  -18.4970   25.7193 C   0  0  0  0  0  0  0  0  0  0  0  0
    8.9405  -17.1376   25.8041 C   0  0  2  0  0  0  0  0  0  0  0  0
    8.2033  -16.1971   24.9388 N   0  0  0  0  0  0  0  0  0  0  0  0
   10.3160  -17.3005   25.3156 C   0  0  0  0  0  0  0  0  0  0  0  0
   10.5766  -16.8536   24.0233 O   0  0  0  0  0  0  0  0  0  0  0  0
   11.2404  -17.8124   25.9959 O   0  0  0  0  0  0  0  0  0  0  0  0
  2  5  1  0
  2  1  1  6
  3  2  1  0
  3  4  1  0
  5  6  2  0
  8  7  1  1
  9  8  1  0
  9  5  1  0
 10 11  2  0
 10  8  1  0
 13 15  1  0
 13 12  1  0
 14 13  2  0
 16 15  1  6
 16 18  1  0
 16 17  1  0
 17 10  1  0
 18 19  1  0
 20 18  2  0
M  END
$$$$
