CAN.pdb
     RDKit          3D

 20 19  0  0  1  0  0  0  0  0999 V2000
    5.6391  -13.1862   26.3735 N   0  0  0  0  0  0  0  0  0  0  0  0
    6.8584  -12.9359   25.6306 C   0  0  1  0  0  0  0  0  0  0  0  0
    8.0176  -13.0543   26.6013 C   0  0  0  0  0  0  0  0  0  0  0  0
    8.0229  -11.5246   27.6099 S   0  0  0  0  0  0  0  0  0  0  0  0
    6.9363  -13.9650   24.5483 C   0  0  0  0  0  0  0  0  0  0  0  0
    6.4689  -15.1345   24.7626 O   0  0  0  0  0  0  0  0  0  0  0  0
    7.6473  -14.0412   20.9291 C   0  0  0  0  0  0  0  0  0  0  0  0
    7.5231  -14.7254   22.2952 C   0  0  2  0  0  0  0  0  0  0  0  0
    7.5158  -13.6884   23.2778 N   0  0  0  0  0  0  0  0  0  0  0  0
    8.6454  -15.6774   22.4665 C   0  0  0  0  0  0  0  0  0  0  0  0
    8.8914  -16.6194   21.6637 O   0  0  0  0  0  0  0  0  0  0  0  0
   11.9439  -17.1386   21.4144 N   0  0  0  0  0  0  0  0  0  0  0  0
   12.5685  -16.2167   22.2962 C   0  0  0  0  0  0  0  0  0  0  0  0
   13.7153  -15.7743   21.9721 O   0  0  0  0  0  0  0  0  0  0  0  0
   11.9354  -15.7685   23.5542 C   0  0  0  0  0  0  0  0  0  0  0  0
   10.6238  -16.4986   23.8199 C   0  0  2  0  0  0  0  0  0  0  0  0
    9.5156  -15.5556   23.5764 N   0  0  0  0  0  0  0  0  0  0  0  0
   10.6265  -16.9218   25.2264 C   0  0  0  0  0  0  0  0  0  0  0  0
   11.4581  -17.9884   25.5558 O   0  0  0  0  0  0  0  0  0  0  0  0
    9.9289  -16.3772   26.1186 O   0  0  0  0  0  0  0  0  0  0  0  0
  2  5  1  0
  2  1  1  1
  3  2  1  0
  3  4  1  0
  5  6  2  0
  8  7  1  6
  9  8  1  0
  9  5  1  0
 10 11  2  0
 10  8  1  0
 13 15  1  0
 13 12  1  0
 14 13  2  0
 16 15  1  1
 16 18  1  0
 16 17  1  0
 17 10  1  0
 18 19  1  0
 20 18  2  0
M  END
$$$$
