CAN.pdb
     RDKit          3D

 20 19  0  0  1  0  0  0  0  0999 V2000
    8.2953  -15.2432   18.5348 N   0  0  0  0  0  0  0  0  0  0  0  0
    8.1443  -14.2947   19.6205 C   0  0  1  0  0  0  0  0  0  0  0  0
    7.2082  -13.2005   19.1448 C   0  0  0  0  0  0  0  0  0  0  0  0
    8.1011  -12.2663   17.8458 S   0  0  0  0  0  0  0  0  0  0  0  0
    7.5756  -15.0416   20.7846 C   0  0  0  0  0  0  0  0  0  0  0  0
    7.3470  -14.4183   21.8761 O   0  0  0  0  0  0  0  0  0  0  0  0
    6.0730  -18.3287   21.5044 C   0  0  0  0  0  0  0  0  0  0  0  0
    6.8817  -17.0958   21.9238 C   0  0  2  0  0  0  0  0  0  0  0  0
    7.2764  -16.4319   20.7220 N   0  0  0  0  0  0  0  0  0  0  0  0
    8.0322  -17.5270   22.7518 C   0  0  0  0  0  0  0  0  0  0  0  0
    7.9216  -18.2535   23.7776 O   0  0  0  0  0  0  0  0  0  0  0  0
   12.8524  -20.4018   23.1592 N   0  0  0  0  0  0  0  0  0  0  0  0
   11.8431  -19.5916   23.7445 C   0  0  0  0  0  0  0  0  0  0  0  0
   11.9442  -19.3261   24.9836 O   0  0  0  0  0  0  0  0  0  0  0  0
   10.7023  -19.0612   22.9690 C   0  0  0  0  0  0  0  0  0  0  0  0
   10.5314  -17.5594   23.1679 C   0  0  2  0  0  0  0  0  0  0  0  0
    9.3451  -17.1271   22.4047 N   0  0  0  0  0  0  0  0  0  0  0  0
   11.7355  -16.9010   22.6447 C   0  0  0  0  0  0  0  0  0  0  0  0
   12.2776  -17.4284   21.4761 O   0  0  0  0  0  0  0  0  0  0  0  0
   12.2813  -15.9104   23.1928 O   0  0  0  0  0  0  0  0  0  0  0  0
  2  5  1  0
  2  1  1  6
  3  2  1  0
  3  4  1  0
  5  6  2  0
  8  7  1  6
  9  8  1  0
  9  5  1  0
 10 11  2  0
 10  8  1  0
 13 15  1  0
 13 12  1  0
 14 13  2  0
 16 15  1  6
 16 18  1  0
 16 17  1  0
 17 10  1  0
 18 19  1  0
 20 18  2  0
M  END
$$$$
