GDS.pdb
     RDKit          3D

 19 18  0  0  1  0  0  0  0  0999 V2000
    7.7576  -19.9524   17.6713 N   0  0  0  0  0  0  0  0  0  0  0  0
    8.3764  -19.2075   18.7244 C   0  0  0  0  0  0  0  0  0  0  0  0
    9.4392  -20.0057   19.3709 C   0  0  0  0  0  0  0  0  0  0  0  0
    9.1082  -21.0668   19.9507 O   0  0  0  0  0  0  0  0  0  0  0  0
   10.8062  -19.6510   19.3767 N   0  0  0  0  0  0  0  0  0  0  0  0
   11.7892  -20.3554   20.1583 C   0  0  1  0  0  0  0  0  0  0  0  0
   13.2217  -19.9603   19.7991 C   0  0  0  0  0  0  0  0  0  0  0  0
   13.5602  -20.2816   18.4210 C   0  0  0  0  0  0  0  0  0  0  0  0
   14.2199  -19.4648   17.7223 O   0  0  0  0  0  0  0  0  0  0  0  0
   11.6228  -20.0158   21.5967 C   0  0  0  0  0  0  0  0  0  0  0  0
   11.5503  -18.7988   21.9012 O   0  0  0  0  0  0  0  0  0  0  0  0
   13.1530  -21.4969   17.8681 O   0  0  0  0  0  0  0  0  0  0  0  0
    8.9423  -21.4349   24.1677 O   0  0  0  0  0  0  0  0  0  0  0  0
   10.2498  -21.6752   24.5781 C   0  0  0  0  0  0  0  0  0  0  0  0
   11.2578  -20.7324   23.9901 C   0  0  2  0  0  0  0  0  0  0  0  0
   11.5435  -20.9662   22.6173 N   0  0  0  0  0  0  0  0  0  0  0  0
   12.5213  -20.8895   24.7622 C   0  0  0  0  0  0  0  0  0  0  0  0
   12.5994  -20.6638   26.1435 O   0  0  0  0  0  0  0  0  0  0  0  0
   13.5615  -21.2372   24.1583 O   0  0  0  0  0  0  0  0  0  0  0  0
  1  2  1  0
  3  5  1  0
  3  2  1  0
  4  3  2  0
  6  5  1  0
  6  7  1  6
  7  8  1  0
  8 12  1  0
  8  9  2  0
 10  6  1  0
 10 11  2  0
 13 14  1  0
 15 14  1  1
 15 16  1  0
 16 10  1  0
 17 18  1  0
 17 15  1  0
 19 17  2  0
M  END
$$$$
