GDS.pdb
     RDKit          3D

 19 18  0  0  1  0  0  0  0  0999 V2000
   -1.6537  -25.7702   26.2867 N   0  0  0  0  0  0  0  0  0  0  0  0
   -2.8192  -26.5981   26.3446 C   0  0  0  0  0  0  0  0  0  0  0  0
   -3.6768  -26.2098   27.4840 C   0  0  0  0  0  0  0  0  0  0  0  0
   -4.8907  -26.5201   27.4396 O   0  0  0  0  0  0  0  0  0  0  0  0
   -3.2167  -25.5122   28.6225 N   0  0  0  0  0  0  0  0  0  0  0  0
   -4.0715  -25.1909   29.7359 C   0  0  1  0  0  0  0  0  0  0  0  0
   -3.2871  -24.8752   31.0095 C   0  0  0  0  0  0  0  0  0  0  0  0
   -4.1483  -24.7282   32.1731 C   0  0  0  0  0  0  0  0  0  0  0  0
   -5.3421  -25.1332   32.1347 O   0  0  0  0  0  0  0  0  0  0  0  0
   -4.8562  -23.9656   29.4279 C   0  0  0  0  0  0  0  0  0  0  0  0
   -4.2414  -22.9954   28.9183 O   0  0  0  0  0  0  0  0  0  0  0  0
   -3.6537  -24.1357   33.3361 O   0  0  0  0  0  0  0  0  0  0  0  0
   -8.9937  -22.1545   27.9047 O   0  0  0  0  0  0  0  0  0  0  0  0
   -8.1654  -23.1953   28.3126 C   0  0  0  0  0  0  0  0  0  0  0  0
   -7.0766  -22.7759   29.2556 C   0  0  2  0  0  0  0  0  0  0  0  0
   -6.2254  -23.8358   29.6718 N   0  0  0  0  0  0  0  0  0  0  0  0
   -7.7284  -22.2000   30.4642 C   0  0  0  0  0  0  0  0  0  0  0  0
   -7.9537  -20.8255   30.6224 O   0  0  0  0  0  0  0  0  0  0  0  0
   -8.0927  -22.9702   31.3816 O   0  0  0  0  0  0  0  0  0  0  0  0
  1  2  1  0
  3  5  1  0
  3  2  1  0
  4  3  2  0
  6  5  1  0
  6  7  1  1
  7  8  1  0
  8 12  1  0
  8  9  2  0
 10  6  1  0
 10 11  2  0
 13 14  1  0
 15 14  1  6
 15 16  1  0
 16 10  1  0
 17 18  1  0
 17 15  1  0
 19 17  2  0
M  END
$$$$
