GDS.pdb
     RDKit          3D

 19 18  0  0  1  0  0  0  0  0999 V2000
    3.5822  -18.5172   20.4573 N   0  0  0  0  0  0  0  0  0  0  0  0
    4.4133  -19.4453   21.1606 C   0  0  0  0  0  0  0  0  0  0  0  0
    4.9032  -18.8520   22.4226 C   0  0  0  0  0  0  0  0  0  0  0  0
    4.1090  -18.1466   23.0886 O   0  0  0  0  0  0  0  0  0  0  0  0
    6.2096  -19.0295   22.9288 N   0  0  0  0  0  0  0  0  0  0  0  0
    6.6089  -18.5634   24.2314 C   0  0  1  0  0  0  0  0  0  0  0  0
    7.5838  -19.5151   24.9248 C   0  0  0  0  0  0  0  0  0  0  0  0
    6.9371  -20.7301   25.3966 C   0  0  0  0  0  0  0  0  0  0  0  0
    6.1324  -20.6854   26.3668 O   0  0  0  0  0  0  0  0  0  0  0  0
    7.3287  -17.2684   24.1013 C   0  0  0  0  0  0  0  0  0  0  0  0
    8.2076  -17.1801   23.2076 O   0  0  0  0  0  0  0  0  0  0  0  0
    7.2080  -21.9505   24.7756 O   0  0  0  0  0  0  0  0  0  0  0  0
    6.1035  -14.0350   26.4449 O   0  0  0  0  0  0  0  0  0  0  0  0
    6.8416  -13.7461   25.3015 C   0  0  0  0  0  0  0  0  0  0  0  0
    7.7029  -14.8795   24.8278 C   0  0  2  0  0  0  0  0  0  0  0  0
    7.0834  -16.1564   24.9102 N   0  0  0  0  0  0  0  0  0  0  0  0
    8.9249  -14.8988   25.6784 C   0  0  0  0  0  0  0  0  0  0  0  0
    9.8382  -13.8361   25.7184 O   0  0  0  0  0  0  0  0  0  0  0  0
    9.1525  -15.9036   26.3897 O   0  0  0  0  0  0  0  0  0  0  0  0
  1  2  1  0
  3  5  1  0
  3  2  1  0
  4  3  2  0
  6  5  1  0
  6  7  1  6
  7  8  1  0
  8 12  1  0
  8  9  2  0
 10  6  1  0
 10 11  2  0
 13 14  1  0
 15 14  1  1
 15 16  1  0
 16 10  1  0
 17 18  1  0
 17 15  1  0
 19 17  2  0
M  END
$$$$
