GDS.pdb
     RDKit          3D

 19 18  0  0  1  0  0  0  0  0999 V2000
    7.7661  -13.4411   16.6209 N   0  0  0  0  0  0  0  0  0  0  0  0
    8.7653  -13.1216   17.5938 C   0  0  0  0  0  0  0  0  0  0  0  0
    8.9646  -14.2519   18.5250 C   0  0  0  0  0  0  0  0  0  0  0  0
    7.9476  -14.8385   18.9649 O   0  0  0  0  0  0  0  0  0  0  0  0
   10.2284  -14.7162   18.9512 N   0  0  0  0  0  0  0  0  0  0  0  0
   10.3857  -15.8380   19.8401 C   0  0  1  0  0  0  0  0  0  0  0  0
   11.7493  -16.5147   19.7000 C   0  0  0  0  0  0  0  0  0  0  0  0
   11.9086  -17.1892   18.4206 C   0  0  0  0  0  0  0  0  0  0  0  0
   11.1848  -18.1806   18.1311 O   0  0  0  0  0  0  0  0  0  0  0  0
   10.3054  -15.3745   21.2510 C   0  0  0  0  0  0  0  0  0  0  0  0
   11.0931  -14.4629   21.6083 O   0  0  0  0  0  0  0  0  0  0  0  0
   12.8664  -16.7399   17.5100 O   0  0  0  0  0  0  0  0  0  0  0  0
    7.0642  -14.4572   23.0429 O   0  0  0  0  0  0  0  0  0  0  0  0
    7.7852  -15.2633   23.9181 C   0  0  0  0  0  0  0  0  0  0  0  0
    9.2219  -15.4538   23.5303 C   0  0  2  0  0  0  0  0  0  0  0  0
    9.4111  -15.8919   22.1911 N   0  0  0  0  0  0  0  0  0  0  0  0
    9.7994  -16.4796   24.4420 C   0  0  0  0  0  0  0  0  0  0  0  0
    9.8631  -16.3095   25.8320 O   0  0  0  0  0  0  0  0  0  0  0  0
   10.2492  -17.5409   23.9531 O   0  0  0  0  0  0  0  0  0  0  0  0
  1  2  1  0
  3  5  1  0
  3  2  1  0
  4  3  2  0
  6  5  1  0
  6  7  1  1
  7  8  1  0
  8 12  1  0
  8  9  2  0
 10  6  1  0
 10 11  2  0
 13 14  1  0
 15 14  1  1
 15 16  1  0
 16 10  1  0
 17 18  1  0
 17 15  1  0
 19 17  2  0
M  END
$$$$
