GDS.pdb
     RDKit          3D

 19 18  0  0  1  0  0  0  0  0999 V2000
    7.3793  -18.7327   19.3169 N   0  0  0  0  0  0  0  0  0  0  0  0
    7.6174  -17.3840   19.7307 C   0  0  0  0  0  0  0  0  0  0  0  0
    8.7263  -17.3274   20.7062 C   0  0  0  0  0  0  0  0  0  0  0  0
    8.8351  -18.2674   21.5287 O   0  0  0  0  0  0  0  0  0  0  0  0
    9.6740  -16.2824   20.7714 N   0  0  0  0  0  0  0  0  0  0  0  0
   10.6691  -16.1985   21.8087 C   0  0  1  0  0  0  0  0  0  0  0  0
   11.8037  -15.2348   21.4607 C   0  0  0  0  0  0  0  0  0  0  0  0
   12.6561  -15.7383   20.3945 C   0  0  0  0  0  0  0  0  0  0  0  0
   13.2397  -16.8495   20.5193 O   0  0  0  0  0  0  0  0  0  0  0  0
   10.0521  -15.6669   23.0532 C   0  0  0  0  0  0  0  0  0  0  0  0
    9.5886  -14.4994   23.0184 O   0  0  0  0  0  0  0  0  0  0  0  0
   12.8311  -14.9898   19.2294 O   0  0  0  0  0  0  0  0  0  0  0  0
    7.3892  -17.3209   25.1145 O   0  0  0  0  0  0  0  0  0  0  0  0
    7.8713  -16.0722   25.4940 C   0  0  0  0  0  0  0  0  0  0  0  0
    9.3671  -15.9603   25.4656 C   0  0  2  0  0  0  0  0  0  0  0  0
    9.9606  -16.3873   24.2464 N   0  0  0  0  0  0  0  0  0  0  0  0
    9.9005  -16.8100   26.5660 C   0  0  0  0  0  0  0  0  0  0  0  0
    9.6369  -16.5531   27.9186 O   0  0  0  0  0  0  0  0  0  0  0  0
   10.6155  -17.7965   26.2780 O   0  0  0  0  0  0  0  0  0  0  0  0
  1  2  1  0
  3  5  1  0
  3  2  1  0
  4  3  2  0
  6  5  1  0
  6  7  1  6
  7  8  1  0
  8 12  1  0
  8  9  2  0
 10  6  1  0
 10 11  2  0
 13 14  1  0
 15 14  1  6
 15 16  1  0
 16 10  1  0
 17 18  1  0
 17 15  1  0
 19 17  2  0
M  END
$$$$
