GDS.pdb
     RDKit          3D

 19 18  0  0  1  0  0  0  0  0999 V2000
    4.2259  -25.9594   22.3945 N   0  0  0  0  0  0  0  0  0  0  0  0
    2.9957  -25.8958   23.1222 C   0  0  0  0  0  0  0  0  0  0  0  0
    2.2314  -24.6876   22.7469 C   0  0  0  0  0  0  0  0  0  0  0  0
    2.7814  -23.5716   22.9014 O   0  0  0  0  0  0  0  0  0  0  0  0
    0.9200  -24.7086   22.2232 N   0  0  0  0  0  0  0  0  0  0  0  0
    0.1819  -23.5085   21.9259 C   0  0  1  0  0  0  0  0  0  0  0  0
   -0.2597  -23.4347   20.4642 C   0  0  0  0  0  0  0  0  0  0  0  0
   -0.8736  -22.1584   20.1306 C   0  0  0  0  0  0  0  0  0  0  0  0
   -0.2773  -21.0788   20.3945 O   0  0  0  0  0  0  0  0  0  0  0  0
   -1.0688  -23.4773   22.7301 C   0  0  0  0  0  0  0  0  0  0  0  0
   -1.6255  -24.5757   22.9806 O   0  0  0  0  0  0  0  0  0  0  0  0
   -2.1272  -22.1268   19.5176 O   0  0  0  0  0  0  0  0  0  0  0  0
   -3.0454  -19.8300   23.5471 O   0  0  0  0  0  0  0  0  0  0  0  0
   -3.0839  -20.8096   24.5343 C   0  0  0  0  0  0  0  0  0  0  0  0
   -2.8141  -22.1964   24.0296 C   0  0  2  0  0  0  0  0  0  0  0  0
   -1.6525  -22.3055   23.2173 N   0  0  0  0  0  0  0  0  0  0  0  0
   -3.9907  -22.6144   23.2184 C   0  0  0  0  0  0  0  0  0  0  0  0
   -5.2729  -22.7666   23.7641 O   0  0  0  0  0  0  0  0  0  0  0  0
   -3.8351  -22.8415   21.9970 O   0  0  0  0  0  0  0  0  0  0  0  0
  1  2  1  0
  3  5  1  0
  3  2  1  0
  4  3  2  0
  6  5  1  0
  6  7  1  6
  7  8  1  0
  8 12  1  0
  8  9  2  0
 10  6  1  0
 10 11  2  0
 13 14  1  0
 15 14  1  6
 15 16  1  0
 16 10  1  0
 17 18  1  0
 17 15  1  0
 19 17  2  0
M  END
$$$$
