GDS.pdb
     RDKit          3D

 19 18  0  0  1  0  0  0  0  0999 V2000
    7.4265  -19.1576   13.8309 N   0  0  0  0  0  0  0  0  0  0  0  0
    8.7529  -18.6247   13.8906 C   0  0  0  0  0  0  0  0  0  0  0  0
    9.5145  -19.2477   14.9936 C   0  0  0  0  0  0  0  0  0  0  0  0
    8.9525  -20.1469   15.6624 O   0  0  0  0  0  0  0  0  0  0  0  0
   10.8371  -18.8964   15.3427 N   0  0  0  0  0  0  0  0  0  0  0  0
   11.5834  -19.5907   16.3598 C   0  0  1  0  0  0  0  0  0  0  0  0
   13.0863  -19.3246   16.2733 C   0  0  0  0  0  0  0  0  0  0  0  0
   13.8417  -20.0593   17.2766 C   0  0  0  0  0  0  0  0  0  0  0  0
   14.6879  -19.4629   17.9971 O   0  0  0  0  0  0  0  0  0  0  0  0
   11.1631  -19.1127   17.7040 C   0  0  0  0  0  0  0  0  0  0  0  0
   11.1612  -17.8722   17.9046 O   0  0  0  0  0  0  0  0  0  0  0  0
   13.6315  -21.4292   17.4429 O   0  0  0  0  0  0  0  0  0  0  0  0
    8.3255  -19.4734   21.4608 O   0  0  0  0  0  0  0  0  0  0  0  0
    8.7975  -19.7761   20.1875 C   0  0  0  0  0  0  0  0  0  0  0  0
   10.2755  -19.5795   20.0212 C   0  0  2  0  0  0  0  0  0  0  0  0
   10.7741  -19.9589   18.7450 N   0  0  0  0  0  0  0  0  0  0  0  0
   10.9563  -20.4097   21.0529 C   0  0  0  0  0  0  0  0  0  0  0  0
   10.7289  -20.2494   22.4268 O   0  0  0  0  0  0  0  0  0  0  0  0
   11.7676  -21.2893   20.6847 O   0  0  0  0  0  0  0  0  0  0  0  0
  1  2  1  0
  3  5  1  0
  3  2  1  0
  4  3  2  0
  6  5  1  0
  6  7  1  6
  7  8  1  0
  8 12  1  0
  8  9  2  0
 10  6  1  0
 10 11  2  0
 13 14  1  0
 15 14  1  6
 15 16  1  0
 16 10  1  0
 17 18  1  0
 17 15  1  0
 19 17  2  0
M  END
$$$$
