GDS.pdb
     RDKit          3D

 19 18  0  0  1  0  0  0  0  0999 V2000
    6.7740  -13.0196   19.5034 N   0  0  0  0  0  0  0  0  0  0  0  0
    7.8912  -13.3707   18.6815 C   0  0  0  0  0  0  0  0  0  0  0  0
    8.1857  -14.8148   18.7937 C   0  0  0  0  0  0  0  0  0  0  0  0
    7.5372  -15.4844   19.6321 O   0  0  0  0  0  0  0  0  0  0  0  0
    9.1509  -15.4910   18.0155 N   0  0  0  0  0  0  0  0  0  0  0  0
    9.4098  -16.9010   18.1504 C   0  0  1  0  0  0  0  0  0  0  0  0
   10.2045  -17.4697   16.9748 C   0  0  0  0  0  0  0  0  0  0  0  0
   10.3758  -18.9119   17.0628 C   0  0  0  0  0  0  0  0  0  0  0  0
   11.4785  -19.4404   16.7536 O   0  0  0  0  0  0  0  0  0  0  0  0
   10.2420  -17.1443   19.3589 C   0  0  0  0  0  0  0  0  0  0  0  0
   11.3332  -16.5272   19.4460 O   0  0  0  0  0  0  0  0  0  0  0  0
    9.3169  -19.7152   17.4892 O   0  0  0  0  0  0  0  0  0  0  0  0
    8.5574  -19.1533   22.6307 O   0  0  0  0  0  0  0  0  0  0  0  0
    9.6408  -18.3005   22.8167 C   0  0  0  0  0  0  0  0  0  0  0  0
   10.5530  -18.2038   21.6295 C   0  0  2  0  0  0  0  0  0  0  0  0
    9.8805  -18.0125   20.3917 N   0  0  0  0  0  0  0  0  0  0  0  0
   11.3212  -19.4769   21.5504 C   0  0  0  0  0  0  0  0  0  0  0  0
   12.1849  -19.9061   22.5676 O   0  0  0  0  0  0  0  0  0  0  0  0
   11.1953  -20.1988   20.5353 O   0  0  0  0  0  0  0  0  0  0  0  0
  1  2  1  0
  3  5  1  0
  3  2  1  0
  4  3  2  0
  6  5  1  0
  6  7  1  6
  7  8  1  0
  8 12  1  0
  8  9  2  0
 10  6  1  0
 10 11  2  0
 13 14  1  0
 15 14  1  1
 15 16  1  0
 16 10  1  0
 17 18  1  0
 17 15  1  0
 19 17  2  0
M  END
$$$$
