GDS.pdb
     RDKit          3D

 19 18  0  0  1  0  0  0  0  0999 V2000
    7.1685  -13.2345   17.3514 N   0  0  0  0  0  0  0  0  0  0  0  0
    8.5559  -13.3580   17.6780 C   0  0  0  0  0  0  0  0  0  0  0  0
    8.7706  -14.4751   18.6217 C   0  0  0  0  0  0  0  0  0  0  0  0
    7.7700  -14.9492   19.2099 O   0  0  0  0  0  0  0  0  0  0  0  0
   10.0315  -15.0453   18.9034 N   0  0  0  0  0  0  0  0  0  0  0  0
   10.2031  -16.1346   19.8294 C   0  0  1  0  0  0  0  0  0  0  0  0
   11.4925  -16.9187   19.5850 C   0  0  0  0  0  0  0  0  0  0  0  0
   11.5519  -18.1498   20.3582 C   0  0  0  0  0  0  0  0  0  0  0  0
   10.4984  -18.6484   20.8400 O   0  0  0  0  0  0  0  0  0  0  0  0
   10.3073  -15.6031   21.2146 C   0  0  0  0  0  0  0  0  0  0  0  0
   11.2086  -14.7585   21.4459 O   0  0  0  0  0  0  0  0  0  0  0  0
   12.7784  -18.7817   20.5698 O   0  0  0  0  0  0  0  0  0  0  0  0
    7.4685  -14.0387   23.2615 O   0  0  0  0  0  0  0  0  0  0  0  0
    8.0497  -15.0434   24.0287 C   0  0  0  0  0  0  0  0  0  0  0  0
    9.4225  -15.4424   23.5739 C   0  0  2  0  0  0  0  0  0  0  0  0
    9.4665  -15.9875   22.2616 N   0  0  0  0  0  0  0  0  0  0  0  0
    9.9268  -16.4727   24.5234 C   0  0  0  0  0  0  0  0  0  0  0  0
   10.0461  -16.2412   25.9008 O   0  0  0  0  0  0  0  0  0  0  0  0
   10.2603  -17.5948   24.0794 O   0  0  0  0  0  0  0  0  0  0  0  0
  1  2  1  0
  3  5  1  0
  3  2  1  0
  4  3  2  0
  6  5  1  0
  6  7  1  6
  7  8  1  0
  8 12  1  0
  8  9  2  0
 10  6  1  0
 10 11  2  0
 13 14  1  0
 15 14  1  1
 15 16  1  0
 16 10  1  0
 17 18  1  0
 17 15  1  0
 19 17  2  0
M  END
$$$$
