GDS.pdb
     RDKit          3D

 19 18  0  0  1  0  0  0  0  0999 V2000
    7.6158  -13.6276   17.1382 N   0  0  0  0  0  0  0  0  0  0  0  0
    9.0366  -13.5178   17.2652 C   0  0  0  0  0  0  0  0  0  0  0  0
    9.5635  -14.5804   18.1471 C   0  0  0  0  0  0  0  0  0  0  0  0
    8.7427  -15.2474   18.8204 O   0  0  0  0  0  0  0  0  0  0  0  0
   10.9339  -14.8951   18.2799 N   0  0  0  0  0  0  0  0  0  0  0  0
   11.4101  -15.9504   19.1359 C   0  0  1  0  0  0  0  0  0  0  0  0
   12.7910  -16.4633   18.7272 C   0  0  0  0  0  0  0  0  0  0  0  0
   12.7553  -17.2455   17.5009 C   0  0  0  0  0  0  0  0  0  0  0  0
   12.0951  -18.3190   17.4515 O   0  0  0  0  0  0  0  0  0  0  0  0
   11.5612  -15.4395   20.5245 C   0  0  0  0  0  0  0  0  0  0  0  0
   12.2723  -14.4172   20.6928 O   0  0  0  0  0  0  0  0  0  0  0  0
   13.4546  -16.8087   16.3746 O   0  0  0  0  0  0  0  0  0  0  0  0
    8.7072  -16.2293   23.3692 O   0  0  0  0  0  0  0  0  0  0  0  0
    9.6684  -15.2442   23.5728 C   0  0  0  0  0  0  0  0  0  0  0  0
   11.0100  -15.5690   22.9851 C   0  0  2  0  0  0  0  0  0  0  0  0
   10.9618  -16.0281   21.6405 N   0  0  0  0  0  0  0  0  0  0  0  0
   11.6177  -16.6404   23.8218 C   0  0  0  0  0  0  0  0  0  0  0  0
   11.9169  -16.4644   25.1799 O   0  0  0  0  0  0  0  0  0  0  0  0
   11.8751  -17.7472   23.2962 O   0  0  0  0  0  0  0  0  0  0  0  0
  1  2  1  0
  3  5  1  0
  3  2  1  0
  4  3  2  0
  6  5  1  0
  6  7  1  6
  7  8  1  0
  8 12  1  0
  8  9  2  0
 10  6  1  0
 10 11  2  0
 13 14  1  0
 15 14  1  1
 15 16  1  0
 16 10  1  0
 17 18  1  0
 17 15  1  0
 19 17  2  0
M  END
$$$$
