NGL.pdb
     RDKit          3D

 21 20  0  0  1  0  0  0  0  0999 V2000
   16.2485  -15.2361  -15.5415 N   0  0  0  0  0  0  0  0  0  0  0  0
   17.0458  -15.3724  -16.6999 C   0  0  0  0  0  0  0  0  0  0  0  0
   17.3023  -16.5124  -17.1526 O   0  0  0  0  0  0  0  0  0  0  0  0
   17.5890  -14.1777  -17.3953 C   0  0  0  0  0  0  0  0  0  0  0  0
   17.1576  -12.9163  -16.6717 C   0  0  2  0  0  0  0  0  0  0  0  0
   15.8536  -12.5025  -17.1461 N   0  0  0  0  0  0  0  0  0  0  0  0
   18.1229  -11.8212  -16.8754 C   0  0  0  0  0  0  0  0  0  0  0  0
   19.2141  -11.8988  -16.2512 O   0  0  0  0  0  0  0  0  0  0  0  0
   17.8953  -10.7048  -17.7198 N   0  0  0  0  0  0  0  0  0  0  0  0
   18.8111   -9.6342  -17.9304 C   0  0  0  0  0  0  0  0  0  0  0  0
   19.2867   -8.9586  -16.7229 C   0  0  0  0  0  0  0  0  0  0  0  0
   18.4581   -8.8585  -15.7499 O   0  0  0  0  0  0  0  0  0  0  0  0
   23.8391  -10.0872  -14.3015 C   0  0  0  0  0  0  0  0  0  0  0  0
   22.4051   -9.6417  -14.4731 C   0  0  1  0  0  0  0  0  0  0  0  0
   21.7469   -9.7961  -13.0936 C   0  0  0  0  0  0  0  0  0  0  0  0
   22.2816   -8.2124  -14.8679 C   0  0  0  0  0  0  0  0  0  0  0  0
   20.8940   -7.7692  -15.2212 C   0  0  2  0  0  0  0  0  0  0  0  0
   20.5521   -8.4045  -16.5003 N   0  0  0  0  0  0  0  0  0  0  0  0
   20.8686   -6.2864  -15.3712 C   0  0  0  0  0  0  0  0  0  0  0  0
   20.8598   -5.7124  -16.4836 O   0  0  0  0  0  0  0  0  0  0  0  0
   20.8539   -5.4899  -14.2310 O   0  0  0  0  0  0  0  0  0  0  0  0
  2  1  1  0
  2  3  2  0
  4  2  1  0
  5  4  1  0
  5  6  1  6
  7  9  1  0
  7  5  1  0
  8  7  2  0
 10 11  1  0
 10  9  1  0
 11 18  1  0
 12 11  2  0
 14 13  1  1
 14 15  1  0
 16 14  1  0
 17 16  1  6
 18 17  1  0
 19 21  1  0
 19 17  1  0
 20 19  2  0
M  END
$$$$
