NGL.pdb
     RDKit          3D

 21 20  0  0  1  0  0  0  0  0999 V2000
   22.6423  -21.2537  -15.1266 N   0  0  0  0  0  0  0  0  0  0  0  0
   22.7892  -19.8784  -14.8387 C   0  0  0  0  0  0  0  0  0  0  0  0
   22.3456  -19.0208  -15.6375 O   0  0  0  0  0  0  0  0  0  0  0  0
   23.4658  -19.4287  -13.5953 C   0  0  0  0  0  0  0  0  0  0  0  0
   23.9314  -20.6304  -12.7953 C   0  0  2  0  0  0  0  0  0  0  0  0
   22.8108  -21.2061  -12.0814 N   0  0  0  0  0  0  0  0  0  0  0  0
   24.9869  -20.2622  -11.8346 C   0  0  0  0  0  0  0  0  0  0  0  0
   26.1786  -20.4489  -12.1967 O   0  0  0  0  0  0  0  0  0  0  0  0
   24.7395  -19.7193  -10.5479 N   0  0  0  0  0  0  0  0  0  0  0  0
   25.7413  -19.2787   -9.6361 C   0  0  0  0  0  0  0  0  0  0  0  0
   26.1008  -20.2264   -8.5810 C   0  0  0  0  0  0  0  0  0  0  0  0
   25.4416  -21.3251   -8.5392 O   0  0  0  0  0  0  0  0  0  0  0  0
   29.8552  -19.4716   -4.1954 C   0  0  0  0  0  0  0  0  0  0  0  0
   28.5565  -19.7361   -4.9217 C   0  0  1  0  0  0  0  0  0  0  0  0
   28.1925  -18.4214   -5.6284 C   0  0  0  0  0  0  0  0  0  0  0  0
   28.6773  -20.7860   -5.9691 C   0  0  0  0  0  0  0  0  0  0  0  0
   27.3939  -21.1524   -6.6513 C   0  0  2  0  0  0  0  0  0  0  0  0
   27.0900  -20.0760   -7.6029 N   0  0  0  0  0  0  0  0  0  0  0  0
   26.3042  -21.2542   -5.6393 C   0  0  0  0  0  0  0  0  0  0  0  0
   25.4151  -20.3837   -5.5031 O   0  0  0  0  0  0  0  0  0  0  0  0
   26.2601  -22.3625   -4.7999 O   0  0  0  0  0  0  0  0  0  0  0  0
  2  1  1  0
  2  3  2  0
  4  2  1  0
  5  4  1  0
  5  6  1  1
  7  9  1  0
  7  5  1  0
  8  7  2  0
 10 11  1  0
 10  9  1  0
 11 18  1  0
 12 11  2  0
 14 13  1  6
 14 15  1  0
 16 14  1  0
 17 16  1  1
 18 17  1  0
 19 21  1  0
 19 17  1  0
 20 19  2  0
M  END
$$$$
