NGL.pdb
     RDKit          3D

 21 20  0  0  1  0  0  0  0  0999 V2000
   15.8967  -15.5717  -20.1948 N   0  0  0  0  0  0  0  0  0  0  0  0
   17.1691  -15.2959  -19.6463 C   0  0  0  0  0  0  0  0  0  0  0  0
   17.9073  -16.2374  -19.2735 O   0  0  0  0  0  0  0  0  0  0  0  0
   17.6498  -13.8979  -19.5031 C   0  0  0  0  0  0  0  0  0  0  0  0
   18.1788  -13.6733  -18.0994 C   0  0  2  0  0  0  0  0  0  0  0  0
   17.0853  -13.7222  -17.1514 N   0  0  0  0  0  0  0  0  0  0  0  0
   18.8685  -12.3756  -17.9846 C   0  0  0  0  0  0  0  0  0  0  0  0
   20.1173  -12.3767  -18.1478 O   0  0  0  0  0  0  0  0  0  0  0  0
   18.2157  -11.1480  -17.7054 N   0  0  0  0  0  0  0  0  0  0  0  0
   18.8563   -9.8787  -17.6178 C   0  0  0  0  0  0  0  0  0  0  0  0
   19.5209   -9.5891  -16.3469 C   0  0  0  0  0  0  0  0  0  0  0  0
   18.9342   -9.9921  -15.2807 O   0  0  0  0  0  0  0  0  0  0  0  0
   24.4664  -10.8470  -15.3962 C   0  0  0  0  0  0  0  0  0  0  0  0
   22.9972  -10.5327  -15.2320 C   0  0  1  0  0  0  0  0  0  0  0  0
   22.5098  -11.3939  -14.0568 C   0  0  0  0  0  0  0  0  0  0  0  0
   22.7410   -9.1103  -14.8780 C   0  0  0  0  0  0  0  0  0  0  0  0
   21.2944   -8.7237  -14.8110 C   0  0  2  0  0  0  0  0  0  0  0  0
   20.7342   -8.9193  -16.1542 N   0  0  0  0  0  0  0  0  0  0  0  0
   21.1805   -7.2897  -14.4203 C   0  0  0  0  0  0  0  0  0  0  0  0
   21.0251   -6.3659  -15.2506 O   0  0  0  0  0  0  0  0  0  0  0  0
   21.2482   -6.9465  -13.0741 O   0  0  0  0  0  0  0  0  0  0  0  0
  2  1  1  0
  2  3  2  0
  4  2  1  0
  5  4  1  0
  5  6  1  1
  7  9  1  0
  7  5  1  0
  8  7  2  0
 10 11  1  0
 10  9  1  0
 11 18  1  0
 12 11  2  0
 14 13  1  1
 14 15  1  0
 16 14  1  0
 17 16  1  6
 18 17  1  0
 19 21  1  0
 19 17  1  0
 20 19  2  0
M  END
$$$$
