NGL.pdb
     RDKit          3D

 21 20  0  0  1  0  0  0  0  0999 V2000
   17.4123  -17.4454  -17.0569 N   0  0  0  0  0  0  0  0  0  0  0  0
   17.0461  -16.6124  -15.9761 C   0  0  0  0  0  0  0  0  0  0  0  0
   16.2536  -17.0339  -15.1017 O   0  0  0  0  0  0  0  0  0  0  0  0
   17.5893  -15.2351  -15.8582 C   0  0  0  0  0  0  0  0  0  0  0  0
   18.5889  -14.9756  -16.9692 C   0  0  2  0  0  0  0  0  0  0  0  0
   19.8721  -15.5453  -16.6150 N   0  0  0  0  0  0  0  0  0  0  0  0
   18.7477  -13.5327  -17.2251 C   0  0  0  0  0  0  0  0  0  0  0  0
   17.7629  -12.9306  -17.7289 O   0  0  0  0  0  0  0  0  0  0  0  0
   19.9269  -12.7978  -16.9409 N   0  0  0  0  0  0  0  0  0  0  0  0
   20.0939  -11.3992  -17.1528 C   0  0  0  0  0  0  0  0  0  0  0  0
   20.7393  -10.6646  -16.0643 C   0  0  0  0  0  0  0  0  0  0  0  0
   20.2823  -10.8594  -14.8825 O   0  0  0  0  0  0  0  0  0  0  0  0
   25.9942  -10.0111  -15.9236 C   0  0  0  0  0  0  0  0  0  0  0  0
   24.5372  -10.2254  -15.5842 C   0  0  1  0  0  0  0  0  0  0  0  0
   24.5205  -11.1606  -14.3654 C   0  0  0  0  0  0  0  0  0  0  0  0
   23.8389   -8.9711  -15.1926 C   0  0  0  0  0  0  0  0  0  0  0  0
   22.3631   -9.1095  -14.9699 C   0  0  2  0  0  0  0  0  0  0  0  0
   21.8082   -9.7668  -16.1600 N   0  0  0  0  0  0  0  0  0  0  0  0
   21.7554   -7.7577  -14.8103 C   0  0  0  0  0  0  0  0  0  0  0  0
   21.1700   -7.1579  -15.7401 O   0  0  0  0  0  0  0  0  0  0  0  0
   21.8346   -7.1203  -13.5765 O   0  0  0  0  0  0  0  0  0  0  0  0
  2  1  1  0
  2  3  2  0
  4  2  1  0
  5  4  1  0
  5  6  1  1
  7  9  1  0
  7  5  1  0
  8  7  2  0
 10 11  1  0
 10  9  1  0
 11 18  1  0
 12 11  2  0
 14 13  1  1
 14 15  1  0
 16 14  1  0
 17 16  1  6
 18 17  1  0
 19 21  1  0
 19 17  1  0
 20 19  2  0
M  END
$$$$
