NGL.pdb
     RDKit          3D

 21 20  0  0  1  0  0  0  0  0999 V2000
   14.9454   -9.7281  -19.7906 N   0  0  0  0  0  0  0  0  0  0  0  0
   14.4503  -10.4720  -18.6964 C   0  0  0  0  0  0  0  0  0  0  0  0
   13.6339  -11.4027  -18.8905 O   0  0  0  0  0  0  0  0  0  0  0  0
   14.8849  -10.1671  -17.3092 C   0  0  0  0  0  0  0  0  0  0  0  0
   15.9597   -9.0969  -17.3266 C   0  0  2  0  0  0  0  0  0  0  0  0
   17.2090   -9.6665  -17.7867 N   0  0  0  0  0  0  0  0  0  0  0  0
   16.1538   -8.5062  -15.9901 C   0  0  0  0  0  0  0  0  0  0  0  0
   15.8084   -7.3042  -15.8419 O   0  0  0  0  0  0  0  0  0  0  0  0
   16.6984   -9.2036  -14.8819 N   0  0  0  0  0  0  0  0  0  0  0  0
   16.8655   -8.6645  -13.5740 C   0  0  0  0  0  0  0  0  0  0  0  0
   18.2009   -8.1536  -13.2635 C   0  0  0  0  0  0  0  0  0  0  0  0
   18.5118   -8.0591  -12.0234 O   0  0  0  0  0  0  0  0  0  0  0  0
   23.0352  -10.4815  -13.2920 C   0  0  0  0  0  0  0  0  0  0  0  0
   22.6412   -9.2288  -14.0400 C   0  0  1  0  0  0  0  0  0  0  0  0
   23.2492   -9.3665  -15.4441 C   0  0  0  0  0  0  0  0  0  0  0  0
   21.1692   -9.0861  -14.2042 C   0  0  0  0  0  0  0  0  0  0  0  0
   20.6113   -7.7557  -13.7972 C   0  0  2  0  0  0  0  0  0  0  0  0
   19.1905   -7.7534  -14.1682 N   0  0  0  0  0  0  0  0  0  0  0  0
   21.3261   -6.6717  -14.5293 C   0  0  0  0  0  0  0  0  0  0  0  0
   22.3832   -6.1474  -14.1116 O   0  0  0  0  0  0  0  0  0  0  0  0
   20.8063   -6.2108  -15.7343 O   0  0  0  0  0  0  0  0  0  0  0  0
  2  1  1  0
  2  3  2  0
  4  2  1  0
  5  4  1  0
  5  6  1  1
  7  9  1  0
  7  5  1  0
  8  7  2  0
 10 11  1  0
 10  9  1  0
 11 18  1  0
 12 11  2  0
 14 13  1  1
 14 15  1  0
 16 14  1  0
 17 16  1  6
 18 17  1  0
 19 21  1  0
 19 17  1  0
 20 19  2  0
M  END
$$$$
