NGL.pdb
     RDKit          3D

 21 20  0  0  1  0  0  0  0  0999 V2000
   13.4955  -21.4009    1.7433 N   0  0  0  0  0  0  0  0  0  0  0  0
   14.3125  -21.7840    2.8304 C   0  0  0  0  0  0  0  0  0  0  0  0
   14.8620  -22.9102    2.8339 O   0  0  0  0  0  0  0  0  0  0  0  0
   14.5327  -20.8669    3.9778 C   0  0  0  0  0  0  0  0  0  0  0  0
   15.7656  -20.0179    3.7331 C   0  0  2  0  0  0  0  0  0  0  0  0
   16.9434  -20.8602    3.7158 N   0  0  0  0  0  0  0  0  0  0  0  0
   15.9204  -18.9812    4.7694 C   0  0  0  0  0  0  0  0  0  0  0  0
   14.9747  -18.1599    4.9008 O   0  0  0  0  0  0  0  0  0  0  0  0
   17.0549  -18.8591    5.6116 N   0  0  0  0  0  0  0  0  0  0  0  0
   17.2247  -17.8698    6.6223 C   0  0  0  0  0  0  0  0  0  0  0  0
   18.4667  -17.9540    7.3911 C   0  0  0  0  0  0  0  0  0  0  0  0
   19.2222  -18.9644    7.1636 O   0  0  0  0  0  0  0  0  0  0  0  0
   22.1613  -14.1052    8.2685 C   0  0  0  0  0  0  0  0  0  0  0  0
   21.6583  -15.5223    8.1176 C   0  0  1  0  0  0  0  0  0  0  0  0
   22.9103  -16.4094    8.0433 C   0  0  0  0  0  0  0  0  0  0  0  0
   20.8545  -15.9831    9.2820 C   0  0  0  0  0  0  0  0  0  0  0  0
   20.1738  -17.3059    9.0996 C   0  0  2  0  0  0  0  0  0  0  0  0
   18.9344  -17.0527    8.3538 N   0  0  0  0  0  0  0  0  0  0  0  0
   19.8505  -17.8869   10.4338 C   0  0  0  0  0  0  0  0  0  0  0  0
   20.7075  -18.4262   11.1698 O   0  0  0  0  0  0  0  0  0  0  0  0
   18.5396  -17.8351   10.8960 O   0  0  0  0  0  0  0  0  0  0  0  0
  2  1  1  0
  2  3  2  0
  4  2  1  0
  5  4  1  0
  5  6  1  1
  7  9  1  0
  7  5  1  0
  8  7  2  0
 10 11  1  0
 10  9  1  0
 11 18  1  0
 12 11  2  0
 14 13  1  1
 14 15  1  0
 16 14  1  0
 17 16  1  1
 18 17  1  0
 19 21  1  0
 19 17  1  0
 20 19  2  0
M  END
$$$$
