NGL.pdb
     RDKit          3D

 21 20  0  0  1  0  0  0  0  0999 V2000
   14.5158  -13.2867  -15.1712 N   0  0  0  0  0  0  0  0  0  0  0  0
   14.7105  -12.1072  -15.9241 C   0  0  0  0  0  0  0  0  0  0  0  0
   13.7445  -11.5817  -16.5249 O   0  0  0  0  0  0  0  0  0  0  0  0
   16.0513  -11.4750  -16.0158 C   0  0  0  0  0  0  0  0  0  0  0  0
   16.4939  -11.4069  -17.4651 C   0  0  2  0  0  0  0  0  0  0  0  0
   16.8977  -12.7228  -17.9149 N   0  0  0  0  0  0  0  0  0  0  0  0
   17.6127  -10.4639  -17.6432 C   0  0  0  0  0  0  0  0  0  0  0  0
   18.1638  -10.4397  -18.7754 O   0  0  0  0  0  0  0  0  0  0  0  0
   18.0946   -9.5981  -16.6286 N   0  0  0  0  0  0  0  0  0  0  0  0
   19.1139   -8.6182  -16.8012 C   0  0  0  0  0  0  0  0  0  0  0  0
   19.5066   -7.8909  -15.5939 C   0  0  0  0  0  0  0  0  0  0  0  0
   18.6264   -7.7865  -14.6677 O   0  0  0  0  0  0  0  0  0  0  0  0
   20.9174   -7.3088  -10.8970 C   0  0  0  0  0  0  0  0  0  0  0  0
   22.0918   -7.5145  -11.8257 C   0  0  1  0  0  0  0  0  0  0  0  0
   22.8765   -8.7065  -11.2568 C   0  0  0  0  0  0  0  0  0  0  0  0
   21.6841   -7.8705  -13.2118 C   0  0  0  0  0  0  0  0  0  0  0  0
   21.0592   -6.7561  -13.9955 C   0  0  2  0  0  0  0  0  0  0  0  0
   20.7420   -7.2909  -15.3258 N   0  0  0  0  0  0  0  0  0  0  0  0
   22.0298   -5.6318  -14.1217 C   0  0  0  0  0  0  0  0  0  0  0  0
   22.2544   -4.8165  -13.1987 O   0  0  0  0  0  0  0  0  0  0  0  0
   22.7259   -5.4679  -15.3146 O   0  0  0  0  0  0  0  0  0  0  0  0
  2  1  1  0
  2  3  2  0
  4  2  1  0
  5  4  1  0
  5  6  1  1
  7  9  1  0
  7  5  1  0
  8  7  2  0
 10 11  1  0
 10  9  1  0
 11 18  1  0
 12 11  2  0
 14 13  1  1
 14 15  1  0
 16 14  1  0
 17 16  1  1
 18 17  1  0
 19 21  1  0
 19 17  1  0
 20 19  2  0
M  END
$$$$
