NGL.pdb
     RDKit          3D

 21 20  0  0  1  0  0  0  0  0999 V2000
   13.5100  -11.6108  -16.9606 N   0  0  0  0  0  0  0  0  0  0  0  0
   14.3386  -10.6377  -17.5625 C   0  0  0  0  0  0  0  0  0  0  0  0
   14.5519  -10.6741  -18.7968 O   0  0  0  0  0  0  0  0  0  0  0  0
   14.9659   -9.5639  -16.7503 C   0  0  0  0  0  0  0  0  0  0  0  0
   15.4802   -8.4620  -17.6570 C   0  0  2  0  0  0  0  0  0  0  0  0
   16.6571   -8.9212  -18.3649 N   0  0  0  0  0  0  0  0  0  0  0  0
   15.8119   -7.2461  -16.8927 C   0  0  0  0  0  0  0  0  0  0  0  0
   15.0063   -6.2817  -16.9768 O   0  0  0  0  0  0  0  0  0  0  0  0
   16.9674   -7.1042  -16.0828 N   0  0  0  0  0  0  0  0  0  0  0  0
   17.2235   -6.0150  -15.2012 C   0  0  0  0  0  0  0  0  0  0  0  0
   18.4633   -6.1010  -14.4290 C   0  0  0  0  0  0  0  0  0  0  0  0
   18.7301   -5.1190  -13.6493 O   0  0  0  0  0  0  0  0  0  0  0  0
   22.3701   -8.7298  -11.5033 C   0  0  0  0  0  0  0  0  0  0  0  0
   22.5798   -8.5210  -12.9853 C   0  0  1  0  0  0  0  0  0  0  0  0
   23.2964   -9.7818  -13.4923 C   0  0  0  0  0  0  0  0  0  0  0  0
   21.3051   -8.3983  -13.7432 C   0  0  0  0  0  0  0  0  0  0  0  0
   20.6370   -7.0598  -13.6487 C   0  0  2  0  0  0  0  0  0  0  0  0
   19.4015   -7.1391  -14.4385 N   0  0  0  0  0  0  0  0  0  0  0  0
   21.5343   -6.0148  -14.2186 C   0  0  0  0  0  0  0  0  0  0  0  0
   21.6526   -5.8126  -15.4483 O   0  0  0  0  0  0  0  0  0  0  0  0
   22.2816   -5.2193  -13.3563 O   0  0  0  0  0  0  0  0  0  0  0  0
  2  1  1  0
  2  3  2  0
  4  2  1  0
  5  4  1  0
  5  6  1  1
  7  9  1  0
  7  5  1  0
  8  7  2  0
 10 11  1  0
 10  9  1  0
 11 18  1  0
 12 11  2  0
 14 13  1  1
 14 15  1  0
 16 14  1  0
 17 16  1  6
 18 17  1  0
 19 21  1  0
 19 17  1  0
 20 19  2  0
M  END
$$$$
