NGL.pdb
     RDKit          3D

 21 20  0  0  1  0  0  0  0  0999 V2000
   20.9294  -21.0279  -16.2724 N   0  0  0  0  0  0  0  0  0  0  0  0
   21.9057  -20.0823  -15.8871 C   0  0  0  0  0  0  0  0  0  0  0  0
   21.9543  -18.9662  -16.4548 O   0  0  0  0  0  0  0  0  0  0  0  0
   22.8828  -20.3914  -14.8120 C   0  0  0  0  0  0  0  0  0  0  0  0
   24.1749  -19.6344  -15.0531 C   0  0  2  0  0  0  0  0  0  0  0  0
   24.7401  -20.0260  -16.3275 N   0  0  0  0  0  0  0  0  0  0  0  0
   25.1565  -19.8892  -13.9833 C   0  0  0  0  0  0  0  0  0  0  0  0
   24.8104  -19.5932  -12.8090 O   0  0  0  0  0  0  0  0  0  0  0  0
   26.4459  -20.4389  -14.1989 N   0  0  0  0  0  0  0  0  0  0  0  0
   27.4261  -20.6547  -13.1881 C   0  0  0  0  0  0  0  0  0  0  0  0
   26.9090  -21.0301  -11.8719 C   0  0  0  0  0  0  0  0  0  0  0  0
   26.5813  -22.2584  -11.7064 O   0  0  0  0  0  0  0  0  0  0  0  0
   28.7851  -20.8332   -7.9413 C   0  0  0  0  0  0  0  0  0  0  0  0
   27.4761  -20.3280   -7.3798 C   0  0  1  0  0  0  0  0  0  0  0  0
   27.8414  -19.1882   -6.4167 C   0  0  0  0  0  0  0  0  0  0  0  0
   26.5755  -19.7607   -8.4197 C   0  0  0  0  0  0  0  0  0  0  0  0
   26.1746  -20.7169   -9.5021 C   0  0  2  0  0  0  0  0  0  0  0  0
   26.7293  -20.2002  -10.7598 N   0  0  0  0  0  0  0  0  0  0  0  0
   24.6876  -20.7721   -9.5912 C   0  0  0  0  0  0  0  0  0  0  0  0
   24.0431  -20.2996  -10.5547 O   0  0  0  0  0  0  0  0  0  0  0  0
   23.9689  -21.3736   -8.5634 O   0  0  0  0  0  0  0  0  0  0  0  0
  2  1  1  0
  2  3  2  0
  4  2  1  0
  5  4  1  0
  5  6  1  6
  7  9  1  0
  7  5  1  0
  8  7  2  0
 10 11  1  0
 10  9  1  0
 11 18  1  0
 12 11  2  0
 14 13  1  6
 14 15  1  0
 16 14  1  0
 17 16  1  1
 18 17  1  0
 19 21  1  0
 19 17  1  0
 20 19  2  0
M  END
$$$$
