NGL.pdb
     RDKit          3D

 21 20  0  0  1  0  0  0  0  0999 V2000
   19.1307  -16.3143  -20.8996 N   0  0  0  0  0  0  0  0  0  0  0  0
   19.7278  -15.6006  -19.8366 C   0  0  0  0  0  0  0  0  0  0  0  0
   20.1527  -16.2154  -18.8307 O   0  0  0  0  0  0  0  0  0  0  0  0
   19.8614  -14.1224  -19.8921 C   0  0  0  0  0  0  0  0  0  0  0  0
   19.5278  -13.5210  -18.5401 C   0  0  2  0  0  0  0  0  0  0  0  0
   18.1076  -13.6461  -18.2866 N   0  0  0  0  0  0  0  0  0  0  0  0
   19.9139  -12.1001  -18.4722 C   0  0  0  0  0  0  0  0  0  0  0  0
   21.1423  -11.8473  -18.3573 O   0  0  0  0  0  0  0  0  0  0  0  0
   18.9953  -11.0210  -18.5278 N   0  0  0  0  0  0  0  0  0  0  0  0
   19.3406   -9.6427  -18.4268 C   0  0  0  0  0  0  0  0  0  0  0  0
   19.6632   -9.1659  -17.0816 C   0  0  0  0  0  0  0  0  0  0  0  0
   18.8092   -9.4138  -16.1582 O   0  0  0  0  0  0  0  0  0  0  0  0
   24.0456  -10.3038  -14.5280 C   0  0  0  0  0  0  0  0  0  0  0  0
   22.5968   -9.9306  -14.7415 C   0  0  1  0  0  0  0  0  0  0  0  0
   21.8551  -10.3720  -13.4706 C   0  0  0  0  0  0  0  0  0  0  0  0
   22.3881   -8.4651  -14.8926 C   0  0  0  0  0  0  0  0  0  0  0  0
   20.9984   -8.0586  -15.2804 C   0  0  2  0  0  0  0  0  0  0  0  0
   20.8055   -8.4657  -16.6781 N   0  0  0  0  0  0  0  0  0  0  0  0
   20.8618   -6.5790  -15.1621 C   0  0  0  0  0  0  0  0  0  0  0  0
   20.9460   -5.8047  -16.1421 O   0  0  0  0  0  0  0  0  0  0  0  0
   20.6297   -6.0177  -13.9108 O   0  0  0  0  0  0  0  0  0  0  0  0
  2  1  1  0
  2  3  2  0
  4  2  1  0
  5  4  1  0
  5  6  1  6
  7  9  1  0
  7  5  1  0
  8  7  2  0
 10 11  1  0
 10  9  1  0
 11 18  1  0
 12 11  2  0
 14 13  1  1
 14 15  1  0
 16 14  1  0
 17 16  1  6
 18 17  1  0
 19 21  1  0
 19 17  1  0
 20 19  2  0
M  END
$$$$
