NGL.pdb
     RDKit          3D

 21 20  0  0  1  0  0  0  0  0999 V2000
   16.9329  -10.8505  -17.4758 N   0  0  0  0  0  0  0  0  0  0  0  0
   16.3714  -11.0568  -16.1960 C   0  0  0  0  0  0  0  0  0  0  0  0
   15.2383  -11.5808  -16.0867 O   0  0  0  0  0  0  0  0  0  0  0  0
   17.1074  -10.6600  -14.9685 C   0  0  0  0  0  0  0  0  0  0  0  0
   18.3968   -9.9543  -15.3431 C   0  0  2  0  0  0  0  0  0  0  0  0
   19.4948  -10.8981  -15.3205 N   0  0  0  0  0  0  0  0  0  0  0  0
   18.6891   -8.8411  -14.4221 C   0  0  0  0  0  0  0  0  0  0  0  0
   18.1987   -7.7176  -14.7111 O   0  0  0  0  0  0  0  0  0  0  0  0
   19.4780   -8.9626  -13.2499 N   0  0  0  0  0  0  0  0  0  0  0  0
   19.8121   -7.8930  -12.3704 C   0  0  0  0  0  0  0  0  0  0  0  0
   20.8766   -7.0011  -12.8310 C   0  0  0  0  0  0  0  0  0  0  0  0
   22.0779   -7.4409  -12.7481 O   0  0  0  0  0  0  0  0  0  0  0  0
   20.7581   -4.2559  -16.7313 C   0  0  0  0  0  0  0  0  0  0  0  0
   21.1490   -5.5932  -16.1458 C   0  0  1  0  0  0  0  0  0  0  0  0
   21.6346   -6.4461  -17.3277 C   0  0  0  0  0  0  0  0  0  0  0  0
   22.2718   -5.4987  -15.1738 C   0  0  0  0  0  0  0  0  0  0  0  0
   21.9022   -4.9503  -13.8287 C   0  0  2  0  0  0  0  0  0  0  0  0
   20.7385   -5.7124  -13.3584 N   0  0  0  0  0  0  0  0  0  0  0  0
   21.5425   -3.5097  -13.9607 C   0  0  0  0  0  0  0  0  0  0  0  0
   20.3682   -3.0873  -13.8633 O   0  0  0  0  0  0  0  0  0  0  0  0
   22.5478   -2.5796  -14.2034 O   0  0  0  0  0  0  0  0  0  0  0  0
  2  1  1  0
  2  3  2  0
  4  2  1  0
  5  4  1  0
  5  6  1  1
  7  9  1  0
  7  5  1  0
  8  7  2  0
 10 11  1  0
 10  9  1  0
 11 18  1  0
 12 11  2  0
 14 13  1  6
 14 15  1  0
 16 14  1  0
 17 16  1  6
 18 17  1  0
 19 21  1  0
 19 17  1  0
 20 19  2  0
M  END
$$$$
