KWV.pdb
     RDKit          3D

 31 32  0  0  1  0  0  0  0  0999 V2000
   27.2327  -19.4691  -18.4876 N   0  0  0  0  0  0  0  0  0  0  0  0
   26.5876  -18.6158  -17.5655 C   0  0  1  0  0  0  0  0  0  0  0  0
   25.6282  -17.6700  -18.1222 C   0  0  0  0  0  0  0  0  0  0  0  0
   25.9477  -16.4212  -18.7596 C   0  0  0  0  0  0  0  0  0  0  0  0
   27.1742  -15.7966  -19.1605 C   0  0  0  0  0  0  0  0  0  0  0  0
   27.3831  -14.5140  -19.8153 C   0  0  0  0  0  0  0  0  0  0  0  0
   26.3056  -13.8284  -20.4388 N   0  0  0  0  0  0  0  0  0  0  0  0
   26.0063  -19.4492  -16.4541 C   0  0  0  0  0  0  0  0  0  0  0  0
   25.0873  -20.2455  -16.7345 O   0  0  0  0  0  0  0  0  0  0  0  0
   26.4511  -19.3702  -15.1249 N   0  0  0  0  0  0  0  0  0  0  0  0
   25.9053  -20.0828  -14.0053 C   0  0  1  0  0  0  0  0  0  0  0  0
   26.7051  -20.0149  -12.7580 C   0  0  0  0  0  0  0  0  0  0  0  0
   26.2276  -20.8561  -11.6439 C   0  0  0  0  0  0  0  0  0  0  0  0
   25.8060  -22.1416  -11.5907 C   0  0  0  0  0  0  0  0  0  0  0  0
   25.4756  -22.4322  -10.3117 N   0  0  0  0  0  0  0  0  0  0  0  0
   25.6758  -21.3506   -9.5233 C   0  0  0  0  0  0  0  0  0  0  0  0
   25.5052  -21.1065   -8.1762 C   0  0  0  0  0  0  0  0  0  0  0  0
   25.8019  -19.8691   -7.6325 C   0  0  0  0  0  0  0  0  0  0  0  0
   26.2770  -18.8617   -8.4507 C   0  0  0  0  0  0  0  0  0  0  0  0
   26.4420  -19.1187   -9.7883 C   0  0  0  0  0  0  0  0  0  0  0  0
   26.1450  -20.3619  -10.3435 C   0  0  0  0  0  0  0  0  0  0  0  0
   24.4703  -19.7434  -13.8134 C   0  0  0  0  0  0  0  0  0  0  0  0
   24.0811  -18.5492  -13.7387 O   0  0  0  0  0  0  0  0  0  0  0  0
   21.5655  -19.9210  -15.7719 C   0  0  0  0  0  0  0  0  0  0  0  0
   21.2030  -20.7650  -14.5631 C   0  0  2  0  0  0  0  0  0  0  0  0
   19.7304  -20.5163  -14.3115 C   0  0  0  0  0  0  0  0  0  0  0  0
   22.0596  -20.3603  -13.4098 C   0  0  2  0  0  0  0  0  0  0  0  0
   23.4401  -20.7459  -13.7005 N   0  0  0  0  0  0  0  0  0  0  0  0
   21.6273  -21.1107  -12.2156 C   0  0  0  0  0  0  0  0  0  0  0  0
   21.8598  -22.3311  -12.1254 O   0  0  0  0  0  0  0  0  0  0  0  0
   20.9647  -20.4664  -11.1956 O   0  0  0  0  0  0  0  0  0  0  0  0
  2  1  1  6
  3  2  1  0
  3  4  1  0
  5  4  1  0
  5  6  1  0
  7  6  1  0
  8  2  1  0
  8  9  2  0
 10  8  1  0
 11 10  1  0
 11 12  1  1
 13 12  1  0
 14 13  2  0
 15 14  1  0
 16 21  2  0
 16 15  1  0
 17 16  1  0
 18 17  2  0
 18 19  1  0
 19 20  2  0
 20 21  1  0
 21 13  1  0
 22 11  1  0
 23 22  2  0
 25 24  1  6
 25 27  1  0
 26 25  1  0
 27 28  1  6
 27 29  1  0
 28 22  1  0
 29 31  1  0
 30 29  2  0
M  END
$$$$
