KWV.pdb
     RDKit          3D

 31 32  0  0  1  0  0  0  0  0999 V2000
   28.7561  -22.3071  -15.3711 N   0  0  0  0  0  0  0  0  0  0  0  0
   28.4465  -21.0726  -14.7589 C   0  0  1  0  0  0  0  0  0  0  0  0
   27.8922  -20.0415  -15.6275 C   0  0  0  0  0  0  0  0  0  0  0  0
   28.6048  -19.3317  -16.6551 C   0  0  0  0  0  0  0  0  0  0  0  0
   29.4305  -18.1599  -16.6621 C   0  0  0  0  0  0  0  0  0  0  0  0
   29.9501  -17.4064  -17.7934 C   0  0  0  0  0  0  0  0  0  0  0  0
   29.9642  -17.9667  -19.0994 N   0  0  0  0  0  0  0  0  0  0  0  0
   27.5950  -21.3307  -13.5440 C   0  0  0  0  0  0  0  0  0  0  0  0
   26.5176  -21.9409  -13.6994 O   0  0  0  0  0  0  0  0  0  0  0  0
   27.9588  -20.9180  -12.2523 N   0  0  0  0  0  0  0  0  0  0  0  0
   27.1376  -20.9891  -11.0777 C   0  0  1  0  0  0  0  0  0  0  0  0
   27.8296  -20.6921   -9.7999 C   0  0  0  0  0  0  0  0  0  0  0  0
   26.9802  -20.7023   -8.5936 C   0  0  0  0  0  0  0  0  0  0  0  0
   25.6692  -20.9840   -8.4067 C   0  0  0  0  0  0  0  0  0  0  0  0
   25.3836  -20.8448   -7.0920 N   0  0  0  0  0  0  0  0  0  0  0  0
   26.4937  -20.4742   -6.4125 C   0  0  0  0  0  0  0  0  0  0  0  0
   26.7548  -20.2043   -5.0850 C   0  0  0  0  0  0  0  0  0  0  0  0
   28.0224  -19.8389   -4.6674 C   0  0  0  0  0  0  0  0  0  0  0  0
   29.0436  -19.7431   -5.5938 C   0  0  0  0  0  0  0  0  0  0  0  0
   28.7695  -20.0147   -6.9104 C   0  0  0  0  0  0  0  0  0  0  0  0
   27.4956  -20.3827   -7.3389 C   0  0  0  0  0  0  0  0  0  0  0  0
   25.8787  -20.2206  -11.2675 C   0  0  0  0  0  0  0  0  0  0  0  0
   25.8699  -18.9624  -11.2672 O   0  0  0  0  0  0  0  0  0  0  0  0
   23.0100  -21.5080  -13.6195 C   0  0  0  0  0  0  0  0  0  0  0  0
   23.0826  -20.0682  -13.1437 C   0  0  2  0  0  0  0  0  0  0  0  0
   24.1588  -19.4095  -13.9814 C   0  0  0  0  0  0  0  0  0  0  0  0
   23.3984  -20.0508  -11.6850 C   0  0  2  0  0  0  0  0  0  0  0  0
   24.5989  -20.8558  -11.4615 N   0  0  0  0  0  0  0  0  0  0  0  0
   22.2880  -20.6909  -10.9549 C   0  0  0  0  0  0  0  0  0  0  0  0
   22.4174  -21.8457  -10.5063 O   0  0  0  0  0  0  0  0  0  0  0  0
   21.1035  -20.0157  -10.7659 O   0  0  0  0  0  0  0  0  0  0  0  0
  2  1  1  6
  3  2  1  0
  3  4  1  0
  5  4  1  0
  5  6  1  0
  7  6  1  0
  8  2  1  0
  8  9  2  0
 10  8  1  0
 11 10  1  0
 11 12  1  1
 13 12  1  0
 14 13  2  0
 15 14  1  0
 16 21  2  0
 16 15  1  0
 17 16  1  0
 18 17  2  0
 18 19  1  0
 19 20  2  0
 20 21  1  0
 21 13  1  0
 22 11  1  0
 23 22  2  0
 25 24  1  6
 25 27  1  0
 26 25  1  0
 27 28  1  6
 27 29  1  0
 28 22  1  0
 29 31  1  0
 30 29  2  0
M  END
$$$$
