KWV.pdb
     RDKit          3D

 31 32  0  0  1  0  0  0  0  0999 V2000
   29.0305  -22.7869  -14.9998 N   0  0  0  0  0  0  0  0  0  0  0  0
   28.4346  -21.5313  -14.7490 C   0  0  1  0  0  0  0  0  0  0  0  0
   27.7320  -20.9145  -15.8673 C   0  0  0  0  0  0  0  0  0  0  0  0
   28.3019  -20.5943  -17.1481 C   0  0  0  0  0  0  0  0  0  0  0  0
   29.5660  -20.0640  -17.5675 C   0  0  0  0  0  0  0  0  0  0  0  0
   29.8511  -19.0433  -18.5648 C   0  0  0  0  0  0  0  0  0  0  0  0
   28.9986  -18.8609  -19.6872 N   0  0  0  0  0  0  0  0  0  0  0  0
   27.5832  -21.6342  -13.5112 C   0  0  0  0  0  0  0  0  0  0  0  0
   26.4939  -22.2375  -13.5947 O   0  0  0  0  0  0  0  0  0  0  0  0
   27.9595  -21.0850  -12.2752 N   0  0  0  0  0  0  0  0  0  0  0  0
   27.1530  -21.0362  -11.0893 C   0  0  1  0  0  0  0  0  0  0  0  0
   27.8520  -20.5776   -9.8641 C   0  0  0  0  0  0  0  0  0  0  0  0
   27.0703  -20.6505   -8.6150 C   0  0  0  0  0  0  0  0  0  0  0  0
   25.7819  -20.9840   -8.3664 C   0  0  0  0  0  0  0  0  0  0  0  0
   25.5636  -20.8901   -7.0349 N   0  0  0  0  0  0  0  0  0  0  0  0
   26.6956  -20.4981   -6.4053 C   0  0  0  0  0  0  0  0  0  0  0  0
   27.0190  -20.2543   -5.0865 C   0  0  0  0  0  0  0  0  0  0  0  0
   28.2942  -19.8549   -4.7270 C   0  0  0  0  0  0  0  0  0  0  0  0
   29.2595  -19.6978   -5.7035 C   0  0  0  0  0  0  0  0  0  0  0  0
   28.9238  -19.9439   -7.0108 C   0  0  0  0  0  0  0  0  0  0  0  0
   27.6419  -20.3460   -7.3809 C   0  0  0  0  0  0  0  0  0  0  0  0
   25.8750  -20.3220  -11.3501 C   0  0  0  0  0  0  0  0  0  0  0  0
   25.8504  -19.0907  -11.6077 O   0  0  0  0  0  0  0  0  0  0  0  0
   22.7240  -22.0368  -13.0776 C   0  0  0  0  0  0  0  0  0  0  0  0
   22.8675  -20.5328  -12.9279 C   0  0  2  0  0  0  0  0  0  0  0  0
   23.8350  -20.0999  -14.0097 C   0  0  0  0  0  0  0  0  0  0  0  0
   23.3644  -20.2235  -11.5549 C   0  0  2  0  0  0  0  0  0  0  0  0
   24.5934  -20.9823  -11.3253 N   0  0  0  0  0  0  0  0  0  0  0  0
   22.3629  -20.6868  -10.5759 C   0  0  0  0  0  0  0  0  0  0  0  0
   22.5729  -21.7150   -9.9049 O   0  0  0  0  0  0  0  0  0  0  0  0
   21.1916  -19.9857  -10.3994 O   0  0  0  0  0  0  0  0  0  0  0  0
  2  1  1  6
  3  2  1  0
  3  4  1  0
  5  4  1  0
  5  6  1  0
  7  6  1  0
  8  2  1  0
  8  9  2  0
 10  8  1  0
 11 10  1  0
 11 12  1  1
 13 12  1  0
 14 13  2  0
 15 14  1  0
 16 21  2  0
 16 15  1  0
 17 16  1  0
 18 17  2  0
 18 19  1  0
 19 20  2  0
 20 21  1  0
 21 13  1  0
 22 11  1  0
 23 22  2  0
 25 24  1  1
 25 27  1  0
 26 25  1  0
 27 28  1  1
 27 29  1  0
 28 22  1  0
 29 31  1  0
 30 29  2  0
M  END
$$$$
