KWV.pdb
     RDKit          3D

 31 32  0  0  1  0  0  0  0  0999 V2000
   28.8181  -22.2226  -16.2129 N   0  0  0  0  0  0  0  0  0  0  0  0
   28.4225  -21.0049  -15.6169 C   0  0  1  0  0  0  0  0  0  0  0  0
   27.8595  -20.0006  -16.5109 C   0  0  0  0  0  0  0  0  0  0  0  0
   28.5749  -19.2848  -17.5324 C   0  0  0  0  0  0  0  0  0  0  0  0
   29.6933  -18.3882  -17.5181 C   0  0  0  0  0  0  0  0  0  0  0  0
   29.8184  -17.0627  -18.1056 C   0  0  0  0  0  0  0  0  0  0  0  0
   28.8173  -16.5522  -18.9756 N   0  0  0  0  0  0  0  0  0  0  0  0
   27.5301  -21.3045  -14.4415 C   0  0  0  0  0  0  0  0  0  0  0  0
   26.4154  -21.8190  -14.6650 O   0  0  0  0  0  0  0  0  0  0  0  0
   27.8958  -21.0326  -13.1136 N   0  0  0  0  0  0  0  0  0  0  0  0
   27.0235  -21.0497  -11.9743 C   0  0  1  0  0  0  0  0  0  0  0  0
   27.6545  -20.6750  -10.6854 C   0  0  0  0  0  0  0  0  0  0  0  0
   26.7390  -20.5555   -9.5345 C   0  0  0  0  0  0  0  0  0  0  0  0
   25.3915  -20.6370   -9.4318 C   0  0  0  0  0  0  0  0  0  0  0  0
   25.0480  -20.4542   -8.1365 N   0  0  0  0  0  0  0  0  0  0  0  0
   26.1562  -20.2532   -7.3862 C   0  0  0  0  0  0  0  0  0  0  0  0
   26.3710  -20.0231   -6.0430 C   0  0  0  0  0  0  0  0  0  0  0  0
   27.6503  -19.8514   -5.5444 C   0  0  0  0  0  0  0  0  0  0  0  0
   28.7304  -19.9115   -6.4046 C   0  0  0  0  0  0  0  0  0  0  0  0
   28.5020  -20.1412   -7.7378 C   0  0  0  0  0  0  0  0  0  0  0  0
   27.2167  -20.3147   -8.2476 C   0  0  0  0  0  0  0  0  0  0  0  0
   25.7669  -20.3082  -12.2616 C   0  0  0  0  0  0  0  0  0  0  0  0
   25.7557  -19.0562  -12.3858 O   0  0  0  0  0  0  0  0  0  0  0  0
   22.7335  -22.0464  -14.2723 C   0  0  0  0  0  0  0  0  0  0  0  0
   22.9088  -20.5421  -14.1654 C   0  0  2  0  0  0  0  0  0  0  0  0
   23.9744  -20.1768  -15.1777 C   0  0  0  0  0  0  0  0  0  0  0  0
   23.3000  -20.1937  -12.7679 C   0  0  2  0  0  0  0  0  0  0  0  0
   24.4920  -20.9642  -12.4149 N   0  0  0  0  0  0  0  0  0  0  0  0
   22.2146  -20.6063  -11.8580 C   0  0  0  0  0  0  0  0  0  0  0  0
   22.3058  -21.6708  -11.2175 O   0  0  0  0  0  0  0  0  0  0  0  0
   21.0959  -19.8177  -11.7126 O   0  0  0  0  0  0  0  0  0  0  0  0
  2  1  1  6
  3  2  1  0
  3  4  1  0
  5  4  1  0
  5  6  1  0
  7  6  1  0
  8  2  1  0
  8  9  2  0
 10  8  1  0
 11 10  1  0
 11 12  1  1
 13 12  1  0
 14 13  2  0
 15 14  1  0
 16 21  2  0
 16 15  1  0
 17 16  1  0
 18 17  2  0
 18 19  1  0
 19 20  2  0
 20 21  1  0
 21 13  1  0
 22 11  1  0
 23 22  2  0
 25 24  1  1
 25 27  1  0
 26 25  1  0
 27 28  1  1
 27 29  1  0
 28 22  1  0
 29 31  1  0
 30 29  2  0
M  END
$$$$
