KWV.pdb
     RDKit          3D

 31 32  0  0  1  0  0  0  0  0999 V2000
   28.6844  -22.8088  -15.4108 N   0  0  0  0  0  0  0  0  0  0  0  0
   28.2861  -21.4963  -15.0742 C   0  0  1  0  0  0  0  0  0  0  0  0
   27.7127  -20.6988  -16.1513 C   0  0  0  0  0  0  0  0  0  0  0  0
   28.3461  -20.3968  -17.4064 C   0  0  0  0  0  0  0  0  0  0  0  0
   29.3632  -19.4696  -17.8073 C   0  0  0  0  0  0  0  0  0  0  0  0
   29.2441  -18.2642  -18.6139 C   0  0  0  0  0  0  0  0  0  0  0  0
   28.1491  -17.3750  -18.4406 N   0  0  0  0  0  0  0  0  0  0  0  0
   27.4024  -21.5520  -13.8563 C   0  0  0  0  0  0  0  0  0  0  0  0
   26.2323  -21.9628  -13.9965 O   0  0  0  0  0  0  0  0  0  0  0  0
   27.8350  -21.1649  -12.5780 N   0  0  0  0  0  0  0  0  0  0  0  0
   27.0449  -21.1658  -11.3801 C   0  0  1  0  0  0  0  0  0  0  0  0
   27.7878  -20.8783  -10.1290 C   0  0  0  0  0  0  0  0  0  0  0  0
   26.9772  -20.8392   -8.8969 C   0  0  0  0  0  0  0  0  0  0  0  0
   25.6797  -21.1385   -8.6518 C   0  0  0  0  0  0  0  0  0  0  0  0
   25.4323  -20.9318   -7.3383 N   0  0  0  0  0  0  0  0  0  0  0  0
   26.5542  -20.4994   -6.7170 C   0  0  0  0  0  0  0  0  0  0  0  0
   26.8504  -20.1495   -5.4158 C   0  0  0  0  0  0  0  0  0  0  0  0
   28.1215  -19.7336   -5.0608 C   0  0  0  0  0  0  0  0  0  0  0  0
   29.1105  -19.6678   -6.0240 C   0  0  0  0  0  0  0  0  0  0  0  0
   28.8018  -20.0190   -7.3138 C   0  0  0  0  0  0  0  0  0  0  0  0
   27.5241  -20.4383   -7.6793 C   0  0  0  0  0  0  0  0  0  0  0  0
   25.8239  -20.3349  -11.5536 C   0  0  0  0  0  0  0  0  0  0  0  0
   25.8919  -19.0856  -11.6869 O   0  0  0  0  0  0  0  0  0  0  0  0
   22.8247  -21.5655  -13.6962 C   0  0  0  0  0  0  0  0  0  0  0  0
   23.0183  -20.1133  -13.2982 C   0  0  2  0  0  0  0  0  0  0  0  0
   24.1448  -19.5930  -14.1667 C   0  0  0  0  0  0  0  0  0  0  0  0
   23.3364  -20.0439  -11.8416 C   0  0  2  0  0  0  0  0  0  0  0  0
   24.4959  -20.8961  -11.5798 N   0  0  0  0  0  0  0  0  0  0  0  0
   22.1966  -20.5938  -11.0837 C   0  0  0  0  0  0  0  0  0  0  0  0
   21.1390  -19.9432  -10.9844 O   0  0  0  0  0  0  0  0  0  0  0  0
   22.2960  -21.8279  -10.4822 O   0  0  0  0  0  0  0  0  0  0  0  0
  2  1  1  6
  3  2  1  0
  3  4  1  0
  5  4  1  0
  5  6  1  0
  7  6  1  0
  8  2  1  0
  8  9  2  0
 10  8  1  0
 11 10  1  0
 11 12  1  1
 13 12  1  0
 14 13  2  0
 15 14  1  0
 16 21  2  0
 16 15  1  0
 17 16  1  0
 18 17  2  0
 18 19  1  0
 19 20  2  0
 20 21  1  0
 21 13  1  0
 22 11  1  0
 23 22  2  0
 25 24  1  6
 25 27  1  0
 26 25  1  0
 27 28  1  6
 27 29  1  0
 28 22  1  0
 29 31  1  0
 30 29  2  0
M  END
$$$$
