KWV.pdb
     RDKit          3D

 31 32  0  0  1  0  0  0  0  0999 V2000
   27.8714  -19.9336  -14.8333 N   0  0  0  0  0  0  0  0  0  0  0  0
   27.3578  -21.2383  -15.0025 C   0  0  1  0  0  0  0  0  0  0  0  0
   28.3314  -22.2831  -15.2948 C   0  0  0  0  0  0  0  0  0  0  0  0
   29.3082  -22.2544  -16.3497 C   0  0  0  0  0  0  0  0  0  0  0  0
   29.7748  -21.2350  -17.2430 C   0  0  0  0  0  0  0  0  0  0  0  0
   30.5506  -21.3679  -18.4670 C   0  0  0  0  0  0  0  0  0  0  0  0
   31.7936  -22.0567  -18.4725 N   0  0  0  0  0  0  0  0  0  0  0  0
   26.4795  -21.5730  -13.8260 C   0  0  0  0  0  0  0  0  0  0  0  0
   26.1744  -22.7688  -13.6408 O   0  0  0  0  0  0  0  0  0  0  0  0
   25.9927  -20.6045  -12.9338 N   0  0  0  0  0  0  0  0  0  0  0  0
   25.0747  -20.8322  -11.8547 C   0  0  1  0  0  0  0  0  0  0  0  0
   25.4779  -20.2611  -10.5465 C   0  0  0  0  0  0  0  0  0  0  0  0
   26.8027  -20.6760  -10.0470 C   0  0  0  0  0  0  0  0  0  0  0  0
   27.7923  -21.4163  -10.6000 C   0  0  0  0  0  0  0  0  0  0  0  0
   28.8112  -21.5005   -9.7145 N   0  0  0  0  0  0  0  0  0  0  0  0
   28.5015  -20.8231   -8.5846 C   0  0  0  0  0  0  0  0  0  0  0  0
   29.1653  -20.5926   -7.3974 C   0  0  0  0  0  0  0  0  0  0  0  0
   28.5863  -19.8399   -6.3910 C   0  0  0  0  0  0  0  0  0  0  0  0
   27.3235  -19.3101   -6.5772 C   0  0  0  0  0  0  0  0  0  0  0  0
   26.6751  -19.5472   -7.7629 C   0  0  0  0  0  0  0  0  0  0  0  0
   27.2513  -20.3046   -8.7809 C   0  0  0  0  0  0  0  0  0  0  0  0
   23.6881  -20.4779  -12.2587 C   0  0  0  0  0  0  0  0  0  0  0  0
   23.3643  -19.2925  -12.5290 O   0  0  0  0  0  0  0  0  0  0  0  0
   21.8468  -21.7603  -15.1375 C   0  0  0  0  0  0  0  0  0  0  0  0
   20.9191  -21.9849  -13.9569 C   0  0  2  0  0  0  0  0  0  0  0  0
   19.5206  -21.7171  -14.4730 C   0  0  0  0  0  0  0  0  0  0  0  0
   21.3084  -21.0655  -12.8476 C   0  0  2  0  0  0  0  0  0  0  0  0
   22.6334  -21.4552  -12.3665 N   0  0  0  0  0  0  0  0  0  0  0  0
   20.3578  -21.2424  -11.7335 C   0  0  0  0  0  0  0  0  0  0  0  0
   20.3927  -22.2762  -11.0394 O   0  0  0  0  0  0  0  0  0  0  0  0
   19.4277  -20.2666  -11.4557 O   0  0  0  0  0  0  0  0  0  0  0  0
  2  1  1  1
  3  2  1  0
  3  4  1  0
  5  4  1  0
  5  6  1  0
  7  6  1  0
  8  2  1  0
  8  9  2  0
 10  8  1  0
 11 10  1  0
 11 12  1  1
 13 12  1  0
 14 13  2  0
 15 14  1  0
 16 21  2  0
 16 15  1  0
 17 16  1  0
 18 17  2  0
 18 19  1  0
 19 20  2  0
 20 21  1  0
 21 13  1  0
 22 11  1  0
 23 22  2  0
 25 24  1  6
 25 27  1  0
 26 25  1  0
 27 28  1  1
 27 29  1  0
 28 22  1  0
 29 31  1  0
 30 29  2  0
M  END
$$$$
