KWV.pdb
     RDKit          3D

 31 32  0  0  1  0  0  0  0  0999 V2000
   28.6190  -21.1050  -15.0629 N   0  0  0  0  0  0  0  0  0  0  0  0
   27.7282  -20.1433  -14.5377 C   0  0  1  0  0  0  0  0  0  0  0  0
   27.0813  -19.2653  -15.5049 C   0  0  0  0  0  0  0  0  0  0  0  0
   27.7470  -18.3375  -16.3789 C   0  0  0  0  0  0  0  0  0  0  0  0
   28.9039  -17.5019  -16.2439 C   0  0  0  0  0  0  0  0  0  0  0  0
   29.8428  -17.0575  -17.2631 C   0  0  0  0  0  0  0  0  0  0  0  0
   29.3939  -16.7006  -18.5634 N   0  0  0  0  0  0  0  0  0  0  0  0
   26.7456  -20.8336  -13.6291 C   0  0  0  0  0  0  0  0  0  0  0  0
   26.2974  -21.9436  -13.9817 O   0  0  0  0  0  0  0  0  0  0  0  0
   26.3152  -20.2864  -12.4099 N   0  0  0  0  0  0  0  0  0  0  0  0
   25.3849  -20.8835  -11.4950 C   0  0  1  0  0  0  0  0  0  0  0  0
   25.6582  -20.6350  -10.0585 C   0  0  0  0  0  0  0  0  0  0  0  0
   27.0154  -20.9815   -9.5951 C   0  0  0  0  0  0  0  0  0  0  0  0
   28.0273  -21.6682  -10.1760 C   0  0  0  0  0  0  0  0  0  0  0  0
   29.0719  -21.7011   -9.3177 N   0  0  0  0  0  0  0  0  0  0  0  0
   28.7572  -21.0428   -8.1779 C   0  0  0  0  0  0  0  0  0  0  0  0
   29.4391  -20.7803   -7.0076 C   0  0  0  0  0  0  0  0  0  0  0  0
   28.8483  -20.0606   -5.9841 C   0  0  0  0  0  0  0  0  0  0  0  0
   27.5553  -19.5968   -6.1356 C   0  0  0  0  0  0  0  0  0  0  0  0
   26.8893  -19.8651   -7.3047 C   0  0  0  0  0  0  0  0  0  0  0  0
   27.4771  -20.5895   -8.3399 C   0  0  0  0  0  0  0  0  0  0  0  0
   23.9848  -20.5839  -11.8966 C   0  0  0  0  0  0  0  0  0  0  0  0
   23.5424  -19.4061  -11.9113 O   0  0  0  0  0  0  0  0  0  0  0  0
   22.4664  -22.1551  -15.0739 C   0  0  0  0  0  0  0  0  0  0  0  0
   21.4489  -22.2610  -13.9521 C   0  0  2  0  0  0  0  0  0  0  0  0
   20.0982  -22.0242  -14.5951 C   0  0  0  0  0  0  0  0  0  0  0  0
   21.7713  -21.2497  -12.9029 C   0  0  2  0  0  0  0  0  0  0  0  0
   23.0503  -21.6088  -12.2910 N   0  0  0  0  0  0  0  0  0  0  0  0
   20.7383  -21.3154  -11.8519 C   0  0  0  0  0  0  0  0  0  0  0  0
   19.7657  -20.5375  -11.8810 O   0  0  0  0  0  0  0  0  0  0  0  0
   20.8439  -22.2358  -10.8340 O   0  0  0  0  0  0  0  0  0  0  0  0
  2  1  1  6
  3  2  1  0
  3  4  1  0
  5  4  1  0
  5  6  1  0
  7  6  1  0
  8  2  1  0
  8  9  2  0
 10  8  1  0
 11 10  1  0
 11 12  1  1
 13 12  1  0
 14 13  2  0
 15 14  1  0
 16 21  2  0
 16 15  1  0
 17 16  1  0
 18 17  2  0
 18 19  1  0
 19 20  2  0
 20 21  1  0
 21 13  1  0
 22 11  1  0
 23 22  2  0
 25 24  1  6
 25 27  1  0
 26 25  1  0
 27 28  1  1
 27 29  1  0
 28 22  1  0
 29 31  1  0
 30 29  2  0
M  END
$$$$
