KWV.pdb
     RDKit          3D

 31 32  0  0  1  0  0  0  0  0999 V2000
   28.4748  -22.2971  -15.4889 N   0  0  0  0  0  0  0  0  0  0  0  0
   28.2620  -21.0948  -14.7792 C   0  0  1  0  0  0  0  0  0  0  0  0
   27.6999  -19.9859  -15.5403 C   0  0  0  0  0  0  0  0  0  0  0  0
   28.3315  -19.3146  -16.6440 C   0  0  0  0  0  0  0  0  0  0  0  0
   29.6939  -19.1549  -17.0605 C   0  0  0  0  0  0  0  0  0  0  0  0
   30.2361  -18.3565  -18.1496 C   0  0  0  0  0  0  0  0  0  0  0  0
   29.3773  -17.7176  -19.0845 N   0  0  0  0  0  0  0  0  0  0  0  0
   27.4803  -21.3985  -13.5285 C   0  0  0  0  0  0  0  0  0  0  0  0
   26.4350  -22.0716  -13.6368 O   0  0  0  0  0  0  0  0  0  0  0  0
   27.8743  -20.9608  -12.2540 N   0  0  0  0  0  0  0  0  0  0  0  0
   27.0712  -20.9830  -11.0651 C   0  0  1  0  0  0  0  0  0  0  0  0
   27.7678  -20.5767   -9.8203 C   0  0  0  0  0  0  0  0  0  0  0  0
   26.9600  -20.6309   -8.5869 C   0  0  0  0  0  0  0  0  0  0  0  0
   25.6588  -20.9318   -8.3642 C   0  0  0  0  0  0  0  0  0  0  0  0
   25.4167  -20.8338   -7.0372 N   0  0  0  0  0  0  0  0  0  0  0  0
   26.5457  -20.4713   -6.3848 C   0  0  0  0  0  0  0  0  0  0  0  0
   26.8491  -20.2371   -5.0595 C   0  0  0  0  0  0  0  0  0  0  0  0
   28.1266  -19.8705   -4.6744 C   0  0  0  0  0  0  0  0  0  0  0  0
   29.1146  -19.7370   -5.6314 C   0  0  0  0  0  0  0  0  0  0  0  0
   28.7987  -19.9732   -6.9454 C   0  0  0  0  0  0  0  0  0  0  0  0
   27.5146  -20.3423   -7.3414 C   0  0  0  0  0  0  0  0  0  0  0  0
   25.7825  -20.2746  -11.2863 C   0  0  0  0  0  0  0  0  0  0  0  0
   25.7392  -19.0311  -11.4732 O   0  0  0  0  0  0  0  0  0  0  0  0
   22.8857  -21.8800  -13.3515 C   0  0  0  0  0  0  0  0  0  0  0  0
   22.9525  -20.3966  -13.0354 C   0  0  2  0  0  0  0  0  0  0  0  0
   24.0169  -19.8264  -13.9495 C   0  0  0  0  0  0  0  0  0  0  0  0
   23.2806  -20.2191  -11.5902 C   0  0  2  0  0  0  0  0  0  0  0  0
   24.5112  -20.9547  -11.3010 N   0  0  0  0  0  0  0  0  0  0  0  0
   22.2005  -20.8194  -10.7846 C   0  0  0  0  0  0  0  0  0  0  0  0
   22.3837  -21.9052  -10.2024 O   0  0  0  0  0  0  0  0  0  0  0  0
   20.9850  -20.1831  -10.6727 O   0  0  0  0  0  0  0  0  0  0  0  0
  2  1  1  6
  3  2  1  0
  3  4  1  0
  5  4  1  0
  5  6  1  0
  7  6  1  0
  8  2  1  0
  8  9  2  0
 10  8  1  0
 11 10  1  0
 11 12  1  1
 13 12  1  0
 14 13  2  0
 15 14  1  0
 16 21  2  0
 16 15  1  0
 17 16  1  0
 18 17  2  0
 18 19  1  0
 19 20  2  0
 20 21  1  0
 21 13  1  0
 22 11  1  0
 23 22  2  0
 25 24  1  1
 25 27  1  0
 26 25  1  0
 27 28  1  6
 27 29  1  0
 28 22  1  0
 29 31  1  0
 30 29  2  0
M  END
$$$$
