KWV.pdb
     RDKit          3D

 31 32  0  0  1  0  0  0  0  0999 V2000
   22.7167  -19.9246  -12.3989 N   0  0  0  0  0  0  0  0  0  0  0  0
   23.8071  -20.8199  -12.3361 C   0  0  1  0  0  0  0  0  0  0  0  0
   24.4036  -21.2020  -13.6101 C   0  0  0  0  0  0  0  0  0  0  0  0
   24.0780  -22.3748  -14.3758 C   0  0  0  0  0  0  0  0  0  0  0  0
   23.4128  -23.6071  -14.0696 C   0  0  0  0  0  0  0  0  0  0  0  0
   23.3635  -24.8423  -14.8374 C   0  0  0  0  0  0  0  0  0  0  0  0
   24.5389  -25.6083  -15.0645 N   0  0  0  0  0  0  0  0  0  0  0  0
   24.8185  -20.2886  -11.3552 C   0  0  0  0  0  0  0  0  0  0  0  0
   25.2011  -19.1079  -11.4857 O   0  0  0  0  0  0  0  0  0  0  0  0
   25.3458  -21.0587  -10.3064 N   0  0  0  0  0  0  0  0  0  0  0  0
   26.4034  -20.6691   -9.4182 C   0  0  1  0  0  0  0  0  0  0  0  0
   26.0148  -20.5199   -7.9946 C   0  0  0  0  0  0  0  0  0  0  0  0
   26.8345  -19.5841   -7.2013 C   0  0  0  0  0  0  0  0  0  0  0  0
   27.1204  -18.2698   -7.3553 C   0  0  0  0  0  0  0  0  0  0  0  0
   27.9261  -17.8840   -6.3398 N   0  0  0  0  0  0  0  0  0  0  0  0
   28.1730  -18.9316   -5.5194 C   0  0  0  0  0  0  0  0  0  0  0  0
   28.9116  -19.0864   -4.3645 C   0  0  0  0  0  0  0  0  0  0  0  0
   28.9833  -20.3100   -3.7224 C   0  0  0  0  0  0  0  0  0  0  0  0
   28.3044  -21.3944   -4.2451 C   0  0  0  0  0  0  0  0  0  0  0  0
   27.5737  -21.2259   -5.3941 C   0  0  0  0  0  0  0  0  0  0  0  0
   27.4969  -19.9971   -6.0468 C   0  0  0  0  0  0  0  0  0  0  0  0
   27.6044  -21.5219   -9.6228 C   0  0  0  0  0  0  0  0  0  0  0  0
   27.5313  -22.7777   -9.5983 O   0  0  0  0  0  0  0  0  0  0  0  0
   30.5347  -20.6209  -12.1944 C   0  0  0  0  0  0  0  0  0  0  0  0
   31.0944  -21.0794  -10.8597 C   0  0  2  0  0  0  0  0  0  0  0  0
   32.3192  -21.9079  -11.1874 C   0  0  0  0  0  0  0  0  0  0  0  0
   30.0497  -21.8601  -10.1339 C   0  0  2  0  0  0  0  0  0  0  0  0
   28.9176  -20.9756   -9.8596 N   0  0  0  0  0  0  0  0  0  0  0  0
   30.6024  -22.2949   -8.8371 C   0  0  0  0  0  0  0  0  0  0  0  0
   30.2899  -21.6951   -7.7911 O   0  0  0  0  0  0  0  0  0  0  0  0
   31.4662  -23.3648   -8.7766 O   0  0  0  0  0  0  0  0  0  0  0  0
  2  1  1  6
  3  2  1  0
  3  4  1  0
  5  4  1  0
  5  6  1  0
  7  6  1  0
  8  2  1  0
  8  9  2  0
 10  8  1  0
 11 10  1  0
 11 12  1  1
 13 12  1  0
 14 13  2  0
 15 14  1  0
 16 21  2  0
 16 15  1  0
 17 16  1  0
 18 17  2  0
 18 19  1  0
 19 20  2  0
 20 21  1  0
 21 13  1  0
 22 11  1  0
 23 22  2  0
 25 24  1  6
 25 27  1  0
 26 25  1  0
 27 28  1  1
 27 29  1  0
 28 22  1  0
 29 31  1  0
 30 29  2  0
M  END
$$$$
