KWV.pdb
     RDKit          3D

 31 32  0  0  1  0  0  0  0  0999 V2000
   28.8450  -20.9829  -14.2890 N   0  0  0  0  0  0  0  0  0  0  0  0
   28.2101  -19.9786  -13.5256 C   0  0  1  0  0  0  0  0  0  0  0  0
   27.6265  -18.8711  -14.2724 C   0  0  0  0  0  0  0  0  0  0  0  0
   28.3332  -17.9863  -15.1586 C   0  0  0  0  0  0  0  0  0  0  0  0
   28.9627  -18.1548  -16.4354 C   0  0  0  0  0  0  0  0  0  0  0  0
   28.6054  -17.5756  -17.7218 C   0  0  0  0  0  0  0  0  0  0  0  0
   29.3913  -17.8263  -18.8790 N   0  0  0  0  0  0  0  0  0  0  0  0
   27.2297  -20.6277  -12.5848 C   0  0  0  0  0  0  0  0  0  0  0  0
   26.6348  -21.6545  -12.9712 O   0  0  0  0  0  0  0  0  0  0  0  0
   26.9580  -20.1315  -11.2999 N   0  0  0  0  0  0  0  0  0  0  0  0
   25.9705  -20.6352  -10.3887 C   0  0  1  0  0  0  0  0  0  0  0  0
   26.2381  -20.3733   -8.9536 C   0  0  0  0  0  0  0  0  0  0  0  0
   27.5985  -20.6998   -8.4853 C   0  0  0  0  0  0  0  0  0  0  0  0
   28.6240  -21.3677   -9.0644 C   0  0  0  0  0  0  0  0  0  0  0  0
   29.6651  -21.3874   -8.2013 N   0  0  0  0  0  0  0  0  0  0  0  0
   29.3346  -20.7391   -7.0603 C   0  0  0  0  0  0  0  0  0  0  0  0
   30.0068  -20.4706   -5.8858 C   0  0  0  0  0  0  0  0  0  0  0  0
   29.3998  -19.7649   -4.8620 C   0  0  0  0  0  0  0  0  0  0  0  0
   28.1002  -19.3213   -5.0176 C   0  0  0  0  0  0  0  0  0  0  0  0
   27.4440  -19.5954   -6.1909 C   0  0  0  0  0  0  0  0  0  0  0  0
   28.0481  -20.3058   -7.2263 C   0  0  0  0  0  0  0  0  0  0  0  0
   24.6037  -20.2415  -10.8226 C   0  0  0  0  0  0  0  0  0  0  0  0
   24.2548  -19.0341  -10.8826 O   0  0  0  0  0  0  0  0  0  0  0  0
   22.2809  -22.9054  -12.9595 C   0  0  0  0  0  0  0  0  0  0  0  0
   22.1615  -21.3993  -13.1088 C   0  0  2  0  0  0  0  0  0  0  0  0
   23.2453  -20.9932  -14.0856 C   0  0  0  0  0  0  0  0  0  0  0  0
   22.3259  -20.7608  -11.7698 C   0  0  2  0  0  0  0  0  0  0  0  0
   23.5974  -21.2035  -11.1986 N   0  0  0  0  0  0  0  0  0  0  0  0
   21.2471  -21.2385  -10.8844 C   0  0  0  0  0  0  0  0  0  0  0  0
   21.4767  -22.1259  -10.0409 O   0  0  0  0  0  0  0  0  0  0  0  0
   19.9816  -20.7067  -10.9860 O   0  0  0  0  0  0  0  0  0  0  0  0
  2  1  1  6
  3  2  1  0
  3  4  1  0
  5  4  1  0
  5  6  1  0
  7  6  1  0
  8  2  1  0
  8  9  2  0
 10  8  1  0
 11 10  1  0
 11 12  1  1
 13 12  1  0
 14 13  2  0
 15 14  1  0
 16 21  2  0
 16 15  1  0
 17 16  1  0
 18 17  2  0
 18 19  1  0
 19 20  2  0
 20 21  1  0
 21 13  1  0
 22 11  1  0
 23 22  2  0
 25 24  1  1
 25 27  1  0
 26 25  1  0
 27 28  1  1
 27 29  1  0
 28 22  1  0
 29 31  1  0
 30 29  2  0
M  END
$$$$
