KWV.pdb
     RDKit          3D

 31 32  0  0  1  0  0  0  0  0999 V2000
   27.9924  -23.2318  -15.4300 N   0  0  0  0  0  0  0  0  0  0  0  0
   27.3877  -21.9655  -15.2709 C   0  0  1  0  0  0  0  0  0  0  0  0
   26.7615  -21.3948  -16.4570 C   0  0  0  0  0  0  0  0  0  0  0  0
   27.4276  -21.0721  -17.6899 C   0  0  0  0  0  0  0  0  0  0  0  0
   28.7991  -20.8666  -18.0528 C   0  0  0  0  0  0  0  0  0  0  0  0
   29.3549  -20.0805  -19.1441 C   0  0  0  0  0  0  0  0  0  0  0  0
   28.9867  -20.3398  -20.4921 N   0  0  0  0  0  0  0  0  0  0  0  0
   26.4579  -22.0143  -14.0874 C   0  0  0  0  0  0  0  0  0  0  0  0
   25.7547  -23.0337  -13.9331 O   0  0  0  0  0  0  0  0  0  0  0  0
   26.3489  -20.9698  -13.1557 N   0  0  0  0  0  0  0  0  0  0  0  0
   25.4224  -20.9037  -12.0620 C   0  0  1  0  0  0  0  0  0  0  0  0
   25.8997  -20.1628  -10.8689 C   0  0  0  0  0  0  0  0  0  0  0  0
   27.1740  -20.6311  -10.2913 C   0  0  0  0  0  0  0  0  0  0  0  0
   28.2070  -21.3323  -10.8152 C   0  0  0  0  0  0  0  0  0  0  0  0
   29.1431  -21.5002   -9.8536 N   0  0  0  0  0  0  0  0  0  0  0  0
   28.7362  -20.9165   -8.7025 C   0  0  0  0  0  0  0  0  0  0  0  0
   29.2928  -20.7924   -7.4462 C   0  0  0  0  0  0  0  0  0  0  0  0
   28.6286  -20.1206   -6.4351 C   0  0  0  0  0  0  0  0  0  0  0  0
   27.3886  -19.5647   -6.6867 C   0  0  0  0  0  0  0  0  0  0  0  0
   26.8473  -19.6957   -7.9406 C   0  0  0  0  0  0  0  0  0  0  0  0
   27.5095  -20.3710   -8.9639 C   0  0  0  0  0  0  0  0  0  0  0  0
   24.0796  -20.4730  -12.5341 C   0  0  0  0  0  0  0  0  0  0  0  0
   23.9076  -19.3662  -13.1072 O   0  0  0  0  0  0  0  0  0  0  0  0
   21.1244  -23.0751  -13.5675 C   0  0  0  0  0  0  0  0  0  0  0  0
   21.1460  -21.6121  -13.9727 C   0  0  2  0  0  0  0  0  0  0  0  0
   22.0942  -21.5230  -15.1503 C   0  0  0  0  0  0  0  0  0  0  0  0
   21.5940  -20.7897  -12.8105 C   0  0  2  0  0  0  0  0  0  0  0  0
   22.8982  -21.2831  -12.3693 N   0  0  0  0  0  0  0  0  0  0  0  0
   20.6425  -20.9851  -11.7004 C   0  0  0  0  0  0  0  0  0  0  0  0
   20.9450  -21.7165  -10.7384 O   0  0  0  0  0  0  0  0  0  0  0  0
   19.4159  -20.3609  -11.7220 O   0  0  0  0  0  0  0  0  0  0  0  0
  2  1  1  6
  3  2  1  0
  3  4  1  0
  5  4  1  0
  5  6  1  0
  7  6  1  0
  8  2  1  0
  8  9  2  0
 10  8  1  0
 11 10  1  0
 11 12  1  1
 13 12  1  0
 14 13  2  0
 15 14  1  0
 16 21  2  0
 16 15  1  0
 17 16  1  0
 18 17  2  0
 18 19  1  0
 19 20  2  0
 20 21  1  0
 21 13  1  0
 22 11  1  0
 23 22  2  0
 25 24  1  1
 25 27  1  0
 26 25  1  0
 27 28  1  1
 27 29  1  0
 28 22  1  0
 29 31  1  0
 30 29  2  0
M  END
$$$$
