KWV.pdb
     RDKit          3D

 31 32  0  0  1  0  0  0  0  0999 V2000
   27.8202  -23.1648  -15.9586 N   0  0  0  0  0  0  0  0  0  0  0  0
   27.8523  -21.8922  -15.3471 C   0  0  1  0  0  0  0  0  0  0  0  0
   27.4821  -20.7613  -16.1890 C   0  0  0  0  0  0  0  0  0  0  0  0
   28.1975  -20.3039  -17.3496 C   0  0  0  0  0  0  0  0  0  0  0  0
   29.5835  -20.2774  -17.7147 C   0  0  0  0  0  0  0  0  0  0  0  0
   30.2656  -19.4268  -18.6784 C   0  0  0  0  0  0  0  0  0  0  0  0
   29.6423  -18.2560  -19.1888 N   0  0  0  0  0  0  0  0  0  0  0  0
   27.0640  -21.9470  -14.0653 C   0  0  0  0  0  0  0  0  0  0  0  0
   25.9450  -22.4992  -14.0857 O   0  0  0  0  0  0  0  0  0  0  0  0
   27.5305  -21.4079  -12.8559 N   0  0  0  0  0  0  0  0  0  0  0  0
   26.7704  -21.2523  -11.6487 C   0  0  1  0  0  0  0  0  0  0  0  0
   27.5433  -20.8046  -10.4646 C   0  0  0  0  0  0  0  0  0  0  0  0
   26.7592  -20.5792   -9.2353 C   0  0  0  0  0  0  0  0  0  0  0  0
   25.4294  -20.6214   -8.9841 C   0  0  0  0  0  0  0  0  0  0  0  0
   25.2304  -20.3354   -7.6772 N   0  0  0  0  0  0  0  0  0  0  0  0
   26.4160  -20.1056   -7.0664 C   0  0  0  0  0  0  0  0  0  0  0  0
   26.7778  -19.7821   -5.7750 C   0  0  0  0  0  0  0  0  0  0  0  0
   28.1059  -19.6040   -5.4298 C   0  0  0  0  0  0  0  0  0  0  0  0
   29.0859  -19.7526   -6.3928 C   0  0  0  0  0  0  0  0  0  0  0  0
   28.7116  -20.0747   -7.6729 C   0  0  0  0  0  0  0  0  0  0  0  0
   27.3764  -20.2552   -8.0285 C   0  0  0  0  0  0  0  0  0  0  0  0
   25.5431  -20.4507  -11.8984 C   0  0  0  0  0  0  0  0  0  0  0  0
   25.5991  -19.2128  -12.1169 O   0  0  0  0  0  0  0  0  0  0  0  0
   22.4351  -21.7131  -13.9224 C   0  0  0  0  0  0  0  0  0  0  0  0
   22.6447  -20.2589  -13.5399 C   0  0  2  0  0  0  0  0  0  0  0  0
   23.7176  -19.7364  -14.4724 C   0  0  0  0  0  0  0  0  0  0  0  0
   23.0447  -20.1839  -12.1040 C   0  0  2  0  0  0  0  0  0  0  0  0
   24.2222  -21.0288  -11.9066 N   0  0  0  0  0  0  0  0  0  0  0  0
   21.9531  -20.7382  -11.2811 C   0  0  0  0  0  0  0  0  0  0  0  0
   20.9356  -20.0575  -11.0508 O   0  0  0  0  0  0  0  0  0  0  0  0
   22.0534  -22.0097  -10.7636 O   0  0  0  0  0  0  0  0  0  0  0  0
  2  1  1  6
  3  2  1  0
  3  4  1  0
  5  4  1  0
  5  6  1  0
  7  6  1  0
  8  2  1  0
  8  9  2  0
 10  8  1  0
 11 10  1  0
 11 12  1  1
 13 12  1  0
 14 13  2  0
 15 14  1  0
 16 21  2  0
 16 15  1  0
 17 16  1  0
 18 17  2  0
 18 19  1  0
 19 20  2  0
 20 21  1  0
 21 13  1  0
 22 11  1  0
 23 22  2  0
 25 24  1  6
 25 27  1  0
 26 25  1  0
 27 28  1  6
 27 29  1  0
 28 22  1  0
 29 31  1  0
 30 29  2  0
M  END
$$$$
