KWV.pdb
     RDKit          3D

 31 32  0  0  1  0  0  0  0  0999 V2000
   28.2150  -21.9586  -15.6091 N   0  0  0  0  0  0  0  0  0  0  0  0
   28.0826  -20.8544  -14.7387 C   0  0  1  0  0  0  0  0  0  0  0  0
   27.4746  -19.6558  -15.3031 C   0  0  0  0  0  0  0  0  0  0  0  0
   28.0178  -18.8558  -16.3673 C   0  0  0  0  0  0  0  0  0  0  0  0
   29.3470  -18.6070  -16.8432 C   0  0  0  0  0  0  0  0  0  0  0  0
   29.7909  -17.7379  -17.9226 C   0  0  0  0  0  0  0  0  0  0  0  0
   31.1743  -17.5626  -18.1968 N   0  0  0  0  0  0  0  0  0  0  0  0
   27.4066  -21.3098  -13.4725 C   0  0  0  0  0  0  0  0  0  0  0  0
   26.3683  -21.9948  -13.5734 O   0  0  0  0  0  0  0  0  0  0  0  0
   27.8908  -20.9997  -12.1918 N   0  0  0  0  0  0  0  0  0  0  0  0
   27.1302  -21.0024  -10.9750 C   0  0  1  0  0  0  0  0  0  0  0  0
   27.8600  -20.5422   -9.7686 C   0  0  0  0  0  0  0  0  0  0  0  0
   27.1013  -20.5884   -8.5041 C   0  0  0  0  0  0  0  0  0  0  0  0
   25.8093  -20.8850   -8.2288 C   0  0  0  0  0  0  0  0  0  0  0  0
   25.6199  -20.7799   -6.8938 N   0  0  0  0  0  0  0  0  0  0  0  0
   26.7745  -20.4170   -6.2882 C   0  0  0  0  0  0  0  0  0  0  0  0
   27.1304  -20.1770   -4.9771 C   0  0  0  0  0  0  0  0  0  0  0  0
   28.4229  -19.8116   -4.6444 C   0  0  0  0  0  0  0  0  0  0  0  0
   29.3728  -19.6853   -5.6402 C   0  0  0  0  0  0  0  0  0  0  0  0
   29.0048  -19.9272   -6.9396 C   0  0  0  0  0  0  0  0  0  0  0  0
   27.7053  -20.2950   -7.2828 C   0  0  0  0  0  0  0  0  0  0  0  0
   25.8186  -20.3298  -11.1720 C   0  0  0  0  0  0  0  0  0  0  0  0
   25.7352  -19.0843  -11.3290 O   0  0  0  0  0  0  0  0  0  0  0  0
   22.7670  -22.1363  -12.9861 C   0  0  0  0  0  0  0  0  0  0  0  0
   22.8279  -20.6320  -12.7902 C   0  0  2  0  0  0  0  0  0  0  0  0
   23.7687  -20.1136  -13.8579 C   0  0  0  0  0  0  0  0  0  0  0  0
   23.3088  -20.3381  -11.4082 C   0  0  2  0  0  0  0  0  0  0  0  0
   24.5691  -21.0491  -11.1955 N   0  0  0  0  0  0  0  0  0  0  0  0
   22.3267  -20.8699  -10.4445 C   0  0  0  0  0  0  0  0  0  0  0  0
   22.5814  -21.9035   -9.7976 O   0  0  0  0  0  0  0  0  0  0  0  0
   21.1243  -20.2273  -10.2557 O   0  0  0  0  0  0  0  0  0  0  0  0
  2  1  1  6
  3  2  1  0
  3  4  1  0
  5  4  1  0
  5  6  1  0
  7  6  1  0
  8  2  1  0
  8  9  2  0
 10  8  1  0
 11 10  1  0
 11 12  1  1
 13 12  1  0
 14 13  2  0
 15 14  1  0
 16 21  2  0
 16 15  1  0
 17 16  1  0
 18 17  2  0
 18 19  1  0
 19 20  2  0
 20 21  1  0
 21 13  1  0
 22 11  1  0
 23 22  2  0
 25 24  1  1
 25 27  1  0
 26 25  1  0
 27 28  1  1
 27 29  1  0
 28 22  1  0
 29 31  1  0
 30 29  2  0
M  END
$$$$
