PVQ.pdb
     RDKit          3D

 24 24  0  0  1  0  0  0  0  0999 V2000
    7.8138  -14.4215   20.1709 N   0  0  0  0  0  0  0  0  0  0  0  0
    7.4955  -15.4975   19.2691 C   0  0  0  0  0  0  0  0  0  0  0  0
    7.1526  -16.6188   20.2416 C   0  0  0  0  0  0  0  0  0  0  0  0
    6.2187  -15.8680   21.1952 C   0  0  0  0  0  0  0  0  0  0  0  0
    6.8917  -14.5191   21.2665 C   0  0  1  0  0  0  0  0  0  0  0  0
    7.6356  -14.3324   22.5347 C   0  0  0  0  0  0  0  0  0  0  0  0
    8.8553  -14.6201   22.5816 O   0  0  0  0  0  0  0  0  0  0  0  0
    5.5666  -13.5054   26.0658 C   0  0  0  0  0  0  0  0  0  0  0  0
    6.8981  -12.8320   25.8660 C   0  0  1  0  0  0  0  0  0  0  0  0
    7.5023  -12.3617   27.1462 C   0  0  0  0  0  0  0  0  0  0  0  0
    7.8120  -13.6107   24.9642 C   0  0  2  0  0  0  0  0  0  0  0  0
    7.0527  -13.8426   23.7189 N   0  0  0  0  0  0  0  0  0  0  0  0
    8.2942  -14.8822   25.5134 C   0  0  0  0  0  0  0  0  0  0  0  0
    7.5608  -15.9052   25.4480 O   0  0  0  0  0  0  0  0  0  0  0  0
   14.1359  -16.0537   24.5259 N   0  0  0  0  0  0  0  0  0  0  0  0
   13.7876  -17.2127   25.2528 C   0  0  0  0  0  0  0  0  0  0  0  0
   14.6246  -18.1410   25.3429 O   0  0  0  0  0  0  0  0  0  0  0  0
   12.4528  -17.3891   25.9287 C   0  0  0  0  0  0  0  0  0  0  0  0
   11.5655  -16.2093   25.6427 C   0  0  0  0  0  0  0  0  0  0  0  0
   10.2248  -16.2738   26.3222 C   0  0  2  0  0  0  0  0  0  0  0  0
    9.5650  -14.9785   26.1120 N   0  0  0  0  0  0  0  0  0  0  0  0
   10.3693  -16.5357   27.7571 C   0  0  0  0  0  0  0  0  0  0  0  0
   10.6870  -17.8306   28.2242 O   0  0  0  0  0  0  0  0  0  0  0  0
   10.2324  -15.6810   28.6618 O   0  0  0  0  0  0  0  0  0  0  0  0
  1  2  1  0
  3  2  1  0
  4  3  1  0
  4  5  1  0
  5  1  1  0
  6  7  2  0
  5  6  1  1
  9  8  1  1
  9 11  1  0
 10  9  1  0
 11 13  1  0
 11 12  1  6
 12  6  1  0
 13 21  1  0
 14 13  2  0
 16 15  1  0
 17 16  2  0
 18 16  1  0
 19 18  1  0
 20 19  1  6
 21 20  1  0
 22 23  1  0
 22 20  1  0
 24 22  2  0
M  END
$$$$
