PVQ.pdb
     RDKit          3D

 24 24  0  0  1  0  0  0  0  0999 V2000
    6.7968  -14.9113   20.6180 N   0  0  0  0  0  0  0  0  0  0  0  0
    6.1545  -14.1751   19.5608 C   0  0  0  0  0  0  0  0  0  0  0  0
    6.8887  -12.8420   19.6279 C   0  0  0  0  0  0  0  0  0  0  0  0
    8.3357  -13.3383   19.6995 C   0  0  0  0  0  0  0  0  0  0  0  0
    8.1871  -14.5564   20.5780 C   0  0  1  0  0  0  0  0  0  0  0  0
    8.6563  -14.3078   21.9616 C   0  0  0  0  0  0  0  0  0  0  0  0
    9.8847  -14.1864   22.1831 O   0  0  0  0  0  0  0  0  0  0  0  0
    5.9731  -14.2848   25.3803 C   0  0  0  0  0  0  0  0  0  0  0  0
    7.1205  -13.3309   25.1803 C   0  0  1  0  0  0  0  0  0  0  0  0
    7.4734  -12.5873   26.4245 C   0  0  0  0  0  0  0  0  0  0  0  0
    8.2730  -13.9558   24.4483 C   0  0  2  0  0  0  0  0  0  0  0  0
    7.7969  -14.1961   23.0711 N   0  0  0  0  0  0  0  0  0  0  0  0
    8.7847  -15.1980   25.0364 C   0  0  0  0  0  0  0  0  0  0  0  0
    8.1397  -16.2700   24.8829 O   0  0  0  0  0  0  0  0  0  0  0  0
   12.0292  -15.8381   30.3483 N   0  0  0  0  0  0  0  0  0  0  0  0
   10.9225  -15.0866   29.8975 C   0  0  0  0  0  0  0  0  0  0  0  0
   10.4816  -14.1678   30.6267 O   0  0  0  0  0  0  0  0  0  0  0  0
   10.2423  -15.3361   28.5766 C   0  0  0  0  0  0  0  0  0  0  0  0
   11.1523  -16.1073   27.6609 C   0  0  0  0  0  0  0  0  0  0  0  0
   10.5340  -16.4531   26.3338 C   0  0  2  0  0  0  0  0  0  0  0  0
    9.9868  -15.2123   25.7695 N   0  0  0  0  0  0  0  0  0  0  0  0
    9.4673  -17.4465   26.4882 C   0  0  0  0  0  0  0  0  0  0  0  0
    8.1822  -17.0604   26.9300 O   0  0  0  0  0  0  0  0  0  0  0  0
    9.5855  -18.6711   26.2554 O   0  0  0  0  0  0  0  0  0  0  0  0
  1  2  1  0
  3  2  1  0
  4  3  1  0
  4  5  1  0
  5  1  1  0
  6  7  2  0
  5  6  1  1
  9  8  1  1
  9 11  1  0
 10  9  1  0
 11 13  1  0
 11 12  1  6
 12  6  1  0
 13 21  1  0
 14 13  2  0
 16 15  1  0
 17 16  2  0
 18 16  1  0
 19 18  1  0
 20 19  1  1
 21 20  1  0
 22 23  1  0
 22 20  1  0
 24 22  2  0
M  END
$$$$
