PVQ.pdb
     RDKit          3D

 24 24  0  0  1  0  0  0  0  0999 V2000
    8.0460  -15.9070   16.9629 N   0  0  0  0  0  0  0  0  0  0  0  0
    7.2562  -15.3937   15.8743 C   0  0  0  0  0  0  0  0  0  0  0  0
    7.5183  -13.8972   15.9868 C   0  0  0  0  0  0  0  0  0  0  0  0
    9.0423  -13.9043   16.1366 C   0  0  0  0  0  0  0  0  0  0  0  0
    9.2484  -15.1240   17.0012 C   0  0  1  0  0  0  0  0  0  0  0  0
    9.5411  -14.7673   18.4096 C   0  0  0  0  0  0  0  0  0  0  0  0
   10.6891  -14.3679   18.7181 O   0  0  0  0  0  0  0  0  0  0  0  0
    6.5873  -15.3095   21.3878 C   0  0  0  0  0  0  0  0  0  0  0  0
    7.5945  -14.1968   21.5060 C   0  0  1  0  0  0  0  0  0  0  0  0
    7.6799  -13.6432   22.8886 C   0  0  0  0  0  0  0  0  0  0  0  0
    8.9072  -14.5318   20.8585 C   0  0  2  0  0  0  0  0  0  0  0  0
    8.5960  -14.8481   19.4499 N   0  0  0  0  0  0  0  0  0  0  0  0
    9.6443  -15.6370   21.4799 C   0  0  0  0  0  0  0  0  0  0  0  0
    9.3009  -16.8257   21.2396 O   0  0  0  0  0  0  0  0  0  0  0  0
   15.6619  -15.1090   23.1104 N   0  0  0  0  0  0  0  0  0  0  0  0
   15.3792  -16.4869   23.2304 C   0  0  0  0  0  0  0  0  0  0  0  0
   16.3346  -17.2972   23.2582 O   0  0  0  0  0  0  0  0  0  0  0  0
   13.9786  -17.0334   23.3272 C   0  0  0  0  0  0  0  0  0  0  0  0
   12.9843  -15.9971   22.8814 C   0  0  0  0  0  0  0  0  0  0  0  0
   11.5600  -16.4812   22.8711 C   0  0  2  0  0  0  0  0  0  0  0  0
   10.7312  -15.3908   22.3406 N   0  0  0  0  0  0  0  0  0  0  0  0
   11.1120  -16.8407   24.2197 C   0  0  0  0  0  0  0  0  0  0  0  0
   11.3990  -18.1151   24.7578 O   0  0  0  0  0  0  0  0  0  0  0  0
   10.4647  -16.0918   24.9863 O   0  0  0  0  0  0  0  0  0  0  0  0
  1  2  1  0
  3  2  1  0
  4  3  1  0
  4  5  1  0
  5  1  1  0
  6  7  2  0
  5  6  1  1
  9  8  1  1
  9 11  1  0
 10  9  1  0
 11 13  1  0
 11 12  1  6
 12  6  1  0
 13 21  1  0
 14 13  2  0
 16 15  1  0
 17 16  2  0
 18 16  1  0
 19 18  1  0
 20 19  1  1
 21 20  1  0
 22 23  1  0
 22 20  1  0
 24 22  2  0
M  END
$$$$
