PVQ.pdb
     RDKit          3D

 24 24  0  0  1  0  0  0  0  0999 V2000
    8.9326  -18.2129   19.2667 N   0  0  0  0  0  0  0  0  0  0  0  0
    8.3278  -18.0701   17.9682 C   0  0  0  0  0  0  0  0  0  0  0  0
    8.5117  -16.5803   17.7084 C   0  0  0  0  0  0  0  0  0  0  0  0
    9.9851  -16.4225   18.0949 C   0  0  0  0  0  0  0  0  0  0  0  0
   10.0805  -17.3512   19.2807 C   0  0  1  0  0  0  0  0  0  0  0  0
   10.1087  -16.6144   20.5663 C   0  0  0  0  0  0  0  0  0  0  0  0
   11.1294  -15.9550   20.8762 O   0  0  0  0  0  0  0  0  0  0  0  0
    7.2322  -14.3439   21.8713 C   0  0  0  0  0  0  0  0  0  0  0  0
    7.6521  -15.3267   22.9315 C   0  0  1  0  0  0  0  0  0  0  0  0
    6.6245  -16.3794   23.1789 C   0  0  0  0  0  0  0  0  0  0  0  0
    9.0563  -15.8226   22.7389 C   0  0  2  0  0  0  0  0  0  0  0  0
    9.0425  -16.6039   21.4857 N   0  0  0  0  0  0  0  0  0  0  0  0
    9.5878  -16.6321   23.8402 C   0  0  0  0  0  0  0  0  0  0  0  0
    9.5092  -17.8888   23.7819 O   0  0  0  0  0  0  0  0  0  0  0  0
    8.9575  -13.0572   27.9921 N   0  0  0  0  0  0  0  0  0  0  0  0
   10.1172  -13.8519   28.1205 C   0  0  0  0  0  0  0  0  0  0  0  0
   11.2198  -13.2836   28.2984 O   0  0  0  0  0  0  0  0  0  0  0  0
   10.0942  -15.3568   28.0538 C   0  0  0  0  0  0  0  0  0  0  0  0
   11.1770  -15.8530   27.1358 C   0  0  0  0  0  0  0  0  0  0  0  0
   10.6951  -16.8200   26.0889 C   0  0  2  0  0  0  0  0  0  0  0  0
   10.1860  -16.0272   24.9622 N   0  0  0  0  0  0  0  0  0  0  0  0
    9.6340  -17.6846   26.6135 C   0  0  0  0  0  0  0  0  0  0  0  0
    9.9507  -18.8368   27.3671 O   0  0  0  0  0  0  0  0  0  0  0  0
    8.4067  -17.4956   26.4527 O   0  0  0  0  0  0  0  0  0  0  0  0
  1  2  1  0
  3  2  1  0
  4  3  1  0
  4  5  1  0
  5  1  1  0
  6  7  2  0
  5  6  1  1
  9  8  1  6
  9 11  1  0
 10  9  1  0
 11 13  1  0
 11 12  1  6
 12  6  1  0
 13 21  1  0
 14 13  2  0
 16 15  1  0
 17 16  2  0
 18 16  1  0
 19 18  1  0
 20 19  1  1
 21 20  1  0
 22 23  1  0
 22 20  1  0
 24 22  2  0
M  END
$$$$
