PVQ.pdb
     RDKit          3D

 24 24  0  0  1  0  0  0  0  0999 V2000
    8.0580  -14.2237   20.3254 N   0  0  0  0  0  0  0  0  0  0  0  0
    7.7280  -15.2772   19.4016 C   0  0  0  0  0  0  0  0  0  0  0  0
    7.3808  -16.4172   20.3507 C   0  0  0  0  0  0  0  0  0  0  0  0
    6.4564  -15.6807   21.3245 C   0  0  0  0  0  0  0  0  0  0  0  0
    7.1397  -14.3387   21.4226 C   0  0  1  0  0  0  0  0  0  0  0  0
    7.8902  -14.1854   22.6914 C   0  0  0  0  0  0  0  0  0  0  0  0
    9.1308  -14.3684   22.6993 O   0  0  0  0  0  0  0  0  0  0  0  0
    7.2810  -11.4809   25.7920 C   0  0  0  0  0  0  0  0  0  0  0  0
    7.1981  -12.9478   26.1201 C   0  0  1  0  0  0  0  0  0  0  0  0
    5.7964  -13.4100   26.3368 C   0  0  0  0  0  0  0  0  0  0  0  0
    8.0262  -13.7958   25.1982 C   0  0  2  0  0  0  0  0  0  0  0  0
    7.2914  -13.8403   23.9179 N   0  0  0  0  0  0  0  0  0  0  0  0
    8.2993  -15.1543   25.6784 C   0  0  0  0  0  0  0  0  0  0  0  0
    7.3822  -16.0186   25.6527 O   0  0  0  0  0  0  0  0  0  0  0  0
   12.0588  -19.4673   23.1690 N   0  0  0  0  0  0  0  0  0  0  0  0
   12.2480  -18.5742   24.2458 C   0  0  0  0  0  0  0  0  0  0  0  0
   13.1665  -17.7252   24.1694 O   0  0  0  0  0  0  0  0  0  0  0  0
   11.3958  -18.5919   25.4881 C   0  0  0  0  0  0  0  0  0  0  0  0
   11.2614  -17.2019   26.0460 C   0  0  0  0  0  0  0  0  0  0  0  0
    9.8883  -16.8847   26.5724 C   0  0  2  0  0  0  0  0  0  0  0  0
    9.5714  -15.5090   26.1671 N   0  0  0  0  0  0  0  0  0  0  0  0
    9.8400  -17.0008   28.0328 C   0  0  0  0  0  0  0  0  0  0  0  0
    9.8982  -18.2669   28.6567 O   0  0  0  0  0  0  0  0  0  0  0  0
    9.7474  -16.0383   28.8283 O   0  0  0  0  0  0  0  0  0  0  0  0
  1  2  1  0
  3  2  1  0
  4  3  1  0
  4  5  1  0
  5  1  1  0
  6  7  2  0
  5  6  1  1
  9  8  1  6
  9 11  1  0
 10  9  1  0
 11 13  1  0
 11 12  1  6
 12  6  1  0
 13 21  1  0
 14 13  2  0
 16 15  1  0
 17 16  2  0
 18 16  1  0
 19 18  1  0
 20 19  1  1
 21 20  1  0
 22 23  1  0
 22 20  1  0
 24 22  2  0
M  END
$$$$
