PVQ.pdb
     RDKit          3D

 24 24  0  0  1  0  0  0  0  0999 V2000
    8.2190  -14.7939   20.7141 N   0  0  0  0  0  0  0  0  0  0  0  0
    7.9543  -15.9338   19.8758 C   0  0  0  0  0  0  0  0  0  0  0  0
    7.6245  -17.0026   20.9100 C   0  0  0  0  0  0  0  0  0  0  0  0
    6.6468  -16.2241   21.7950 C   0  0  0  0  0  0  0  0  0  0  0  0
    7.2761  -14.8524   21.7947 C   0  0  1  0  0  0  0  0  0  0  0  0
    7.9853  -14.5630   23.0634 C   0  0  0  0  0  0  0  0  0  0  0  0
    9.2199  -14.7692   23.1399 O   0  0  0  0  0  0  0  0  0  0  0  0
    7.0987  -11.5046   25.5843 C   0  0  0  0  0  0  0  0  0  0  0  0
    7.2027  -12.8476   26.2564 C   0  0  1  0  0  0  0  0  0  0  0  0
    5.8791  -13.3712   26.7026 C   0  0  0  0  0  0  0  0  0  0  0  0
    8.0587  -13.8146   25.4901 C   0  0  2  0  0  0  0  0  0  0  0  0
    7.3528  -14.0604   24.2164 N   0  0  0  0  0  0  0  0  0  0  0  0
    8.3335  -15.0818   26.1753 C   0  0  0  0  0  0  0  0  0  0  0  0
    7.4201  -15.9446   26.2758 O   0  0  0  0  0  0  0  0  0  0  0  0
   13.0954  -18.6537   25.4069 N   0  0  0  0  0  0  0  0  0  0  0  0
   12.0733  -18.0623   24.6331 C   0  0  0  0  0  0  0  0  0  0  0  0
   12.1400  -18.1439   23.3845 O   0  0  0  0  0  0  0  0  0  0  0  0
   10.9010  -17.3345   25.2379 C   0  0  0  0  0  0  0  0  0  0  0  0
   11.0514  -17.2580   26.7321 C   0  0  0  0  0  0  0  0  0  0  0  0
    9.8902  -16.6045   27.4306 C   0  0  2  0  0  0  0  0  0  0  0  0
    9.6029  -15.3505   26.7220 N   0  0  0  0  0  0  0  0  0  0  0  0
   10.2043  -16.3261   28.8350 C   0  0  0  0  0  0  0  0  0  0  0  0
   10.2745  -14.9965   29.3072 O   0  0  0  0  0  0  0  0  0  0  0  0
   10.4294  -17.1952   29.7079 O   0  0  0  0  0  0  0  0  0  0  0  0
  1  2  1  0
  3  2  1  0
  4  3  1  0
  4  5  1  0
  5  1  1  0
  6  7  2  0
  5  6  1  1
  9  8  1  6
  9 11  1  0
 10  9  1  0
 11 13  1  0
 11 12  1  6
 12  6  1  0
 13 21  1  0
 14 13  2  0
 16 15  1  0
 17 16  2  0
 18 16  1  0
 19 18  1  0
 20 19  1  6
 21 20  1  0
 22 23  1  0
 22 20  1  0
 24 22  2  0
M  END
$$$$
