PVQ.pdb
     RDKit          3D

 24 24  0  0  1  0  0  0  0  0999 V2000
    8.0363  -14.2326   20.4361 N   0  0  0  0  0  0  0  0  0  0  0  0
    7.5651  -15.2112   19.4913 C   0  0  0  0  0  0  0  0  0  0  0  0
    7.0234  -16.2928   20.4174 C   0  0  0  0  0  0  0  0  0  0  0  0
    6.2052  -15.4310   21.3833 C   0  0  0  0  0  0  0  0  0  0  0  0
    7.0881  -14.2139   21.5135 C   0  0  1  0  0  0  0  0  0  0  0  0
    7.8260  -14.1941   22.7987 C   0  0  0  0  0  0  0  0  0  0  0  0
    9.0077  -14.6120   22.8370 O   0  0  0  0  0  0  0  0  0  0  0  0
    7.2883  -11.3971   25.8375 C   0  0  0  0  0  0  0  0  0  0  0  0
    7.2255  -12.8521   26.2190 C   0  0  1  0  0  0  0  0  0  0  0  0
    5.8368  -13.3090   26.5158 C   0  0  0  0  0  0  0  0  0  0  0  0
    8.0131  -13.7297   25.2894 C   0  0  2  0  0  0  0  0  0  0  0  0
    7.2780  -13.7271   24.0085 N   0  0  0  0  0  0  0  0  0  0  0  0
    8.2209  -15.1042   25.7568 C   0  0  0  0  0  0  0  0  0  0  0  0
    7.3380  -15.9760   25.5355 O   0  0  0  0  0  0  0  0  0  0  0  0
   13.1719  -20.0000   24.5833 N   0  0  0  0  0  0  0  0  0  0  0  0
   12.6597  -18.7359   24.9475 C   0  0  0  0  0  0  0  0  0  0  0  0
   13.2274  -17.7078   24.5106 O   0  0  0  0  0  0  0  0  0  0  0  0
   11.4585  -18.5616   25.8400 C   0  0  0  0  0  0  0  0  0  0  0  0
   10.9759  -17.1383   25.7897 C   0  0  0  0  0  0  0  0  0  0  0  0
    9.7703  -16.8710   26.6490 C   0  0  2  0  0  0  0  0  0  0  0  0
    9.3929  -15.4658   26.4485 N   0  0  0  0  0  0  0  0  0  0  0  0
   10.0631  -17.1143   28.0645 C   0  0  0  0  0  0  0  0  0  0  0  0
   10.2704  -18.4278   28.5414 O   0  0  0  0  0  0  0  0  0  0  0  0
   10.1534  -16.2270   28.9433 O   0  0  0  0  0  0  0  0  0  0  0  0
  1  2  1  0
  3  2  1  0
  4  3  1  0
  4  5  1  0
  5  1  1  0
  6  7  2  0
  5  6  1  1
  9  8  1  6
  9 11  1  0
 10  9  1  0
 11 13  1  0
 11 12  1  6
 12  6  1  0
 13 21  1  0
 14 13  2  0
 16 15  1  0
 17 16  2  0
 18 16  1  0
 19 18  1  0
 20 19  1  6
 21 20  1  0
 22 23  1  0
 22 20  1  0
 24 22  2  0
M  END
$$$$
