PVQ.pdb
     RDKit          3D

 24 24  0  0  1  0  0  0  0  0999 V2000
    7.9772  -14.6473   20.2715 N   0  0  0  0  0  0  0  0  0  0  0  0
    7.4059  -15.6616   19.4246 C   0  0  0  0  0  0  0  0  0  0  0  0
    6.8642  -16.6471   20.4523 C   0  0  0  0  0  0  0  0  0  0  0  0
    6.1452  -15.6791   21.3963 C   0  0  0  0  0  0  0  0  0  0  0  0
    7.0930  -14.5047   21.3932 C   0  0  1  0  0  0  0  0  0  0  0  0
    7.9020  -14.4366   22.6331 C   0  0  0  0  0  0  0  0  0  0  0  0
    9.0345  -14.9747   22.6601 O   0  0  0  0  0  0  0  0  0  0  0  0
    6.2275  -12.8035   26.1326 C   0  0  0  0  0  0  0  0  0  0  0  0
    7.7029  -12.6431   25.8796 C   0  0  1  0  0  0  0  0  0  0  0  0
    8.4642  -12.3011   27.1160 C   0  0  0  0  0  0  0  0  0  0  0  0
    8.2740  -13.7592   25.0532 C   0  0  2  0  0  0  0  0  0  0  0  0
    7.4761  -13.7939   23.8110 N   0  0  0  0  0  0  0  0  0  0  0  0
    8.2727  -15.0761   25.6987 C   0  0  0  0  0  0  0  0  0  0  0  0
    7.1892  -15.7092   25.8165 O   0  0  0  0  0  0  0  0  0  0  0  0
   12.8825  -18.8953   24.7990 N   0  0  0  0  0  0  0  0  0  0  0  0
   12.0094  -18.1070   24.0184 C   0  0  0  0  0  0  0  0  0  0  0  0
   12.2798  -17.9281   22.8080 O   0  0  0  0  0  0  0  0  0  0  0  0
   10.7628  -17.4673   24.5719 C   0  0  0  0  0  0  0  0  0  0  0  0
   10.6663  -17.7122   26.0524 C   0  0  0  0  0  0  0  0  0  0  0  0
    9.5074  -17.0165   26.7129 C   0  0  2  0  0  0  0  0  0  0  0  0
    9.4639  -15.6452   26.1884 N   0  0  0  0  0  0  0  0  0  0  0  0
    9.6642  -16.9911   28.1700 C   0  0  0  0  0  0  0  0  0  0  0  0
    9.8418  -15.7677   28.8539 O   0  0  0  0  0  0  0  0  0  0  0  0
    9.6565  -17.9996   28.9121 O   0  0  0  0  0  0  0  0  0  0  0  0
  1  2  1  0
  3  2  1  0
  4  3  1  0
  4  5  1  0
  5  1  1  0
  6  7  2  0
  5  6  1  1
  9  8  1  1
  9 11  1  0
 10  9  1  0
 11 13  1  0
 11 12  1  6
 12  6  1  0
 13 21  1  0
 14 13  2  0
 16 15  1  0
 17 16  2  0
 18 16  1  0
 19 18  1  0
 20 19  1  6
 21 20  1  0
 22 23  1  0
 22 20  1  0
 24 22  2  0
M  END
$$$$
