PVQ.pdb
     RDKit          3D

 24 24  0  0  1  0  0  0  0  0999 V2000
    6.8042  -14.2804   21.0331 N   0  0  0  0  0  0  0  0  0  0  0  0
    6.4956  -13.4846   19.8739 C   0  0  0  0  0  0  0  0  0  0  0  0
    7.6194  -12.4564   19.9021 C   0  0  0  0  0  0  0  0  0  0  0  0
    8.8195  -13.3798   20.1310 C   0  0  0  0  0  0  0  0  0  0  0  0
    8.2342  -14.3944   21.0827 C   0  0  1  0  0  0  0  0  0  0  0  0
    8.6825  -14.1749   22.4781 C   0  0  0  0  0  0  0  0  0  0  0  0
    9.8957  -14.3124   22.7643 O   0  0  0  0  0  0  0  0  0  0  0  0
    5.8896  -13.1832   25.5679 C   0  0  0  0  0  0  0  0  0  0  0  0
    7.3048  -12.6701   25.5503 C   0  0  1  0  0  0  0  0  0  0  0  0
    7.7255  -12.0988   26.8625 C   0  0  0  0  0  0  0  0  0  0  0  0
    8.2657  -13.6410   24.9267 C   0  0  2  0  0  0  0  0  0  0  0  0
    7.8189  -13.8138   23.5297 N   0  0  0  0  0  0  0  0  0  0  0  0
    8.3607  -14.9415   25.5978 C   0  0  0  0  0  0  0  0  0  0  0  0
    7.3883  -15.7415   25.5429 O   0  0  0  0  0  0  0  0  0  0  0  0
   10.9278  -19.0127   23.7020 N   0  0  0  0  0  0  0  0  0  0  0  0
   11.3125  -19.4819   24.9767 C   0  0  0  0  0  0  0  0  0  0  0  0
   11.6256  -20.6884   25.1048 O   0  0  0  0  0  0  0  0  0  0  0  0
   11.3652  -18.5989   26.1963 C   0  0  0  0  0  0  0  0  0  0  0  0
   10.9156  -17.2065   25.8497 C   0  0  0  0  0  0  0  0  0  0  0  0
    9.7782  -16.7030   26.6960 C   0  0  2  0  0  0  0  0  0  0  0  0
    9.5226  -15.3113   26.3021 N   0  0  0  0  0  0  0  0  0  0  0  0
   10.1093  -16.7675   28.1224 C   0  0  0  0  0  0  0  0  0  0  0  0
   10.5166  -15.6085   28.8201 O   0  0  0  0  0  0  0  0  0  0  0  0
   10.0656  -17.8030   28.8250 O   0  0  0  0  0  0  0  0  0  0  0  0
  1  2  1  0
  3  2  1  0
  4  3  1  0
  4  5  1  0
  5  1  1  0
  6  7  2  0
  5  6  1  1
  9  8  1  1
  9 11  1  0
 10  9  1  0
 11 13  1  0
 11 12  1  6
 12  6  1  0
 13 21  1  0
 14 13  2  0
 16 15  1  0
 17 16  2  0
 18 16  1  0
 19 18  1  0
 20 19  1  6
 21 20  1  0
 22 23  1  0
 22 20  1  0
 24 22  2  0
M  END
$$$$
