PVQ.pdb
     RDKit          3D

 24 24  0  0  1  0  0  0  0  0999 V2000
    5.3080  -12.1847   26.0840 N   0  0  0  0  0  0  0  0  0  0  0  0
    5.5614  -11.2929   27.1852 C   0  0  0  0  0  0  0  0  0  0  0  0
    7.0463  -11.5276   27.4320 C   0  0  0  0  0  0  0  0  0  0  0  0
    7.5718  -11.4407   25.9962 C   0  0  0  0  0  0  0  0  0  0  0  0
    6.4630  -12.1243   25.2340 C   0  0  1  0  0  0  0  0  0  0  0  0
    6.8304  -13.5019   24.8291 C   0  0  0  0  0  0  0  0  0  0  0  0
    6.5139  -14.4657   25.5662 O   0  0  0  0  0  0  0  0  0  0  0  0
    6.9226  -14.7546   20.9974 C   0  0  0  0  0  0  0  0  0  0  0  0
    8.1502  -15.1433   21.7774 C   0  0  1  0  0  0  0  0  0  0  0  0
    9.3670  -14.3974   21.3434 C   0  0  0  0  0  0  0  0  0  0  0  0
    7.9073  -15.1836   23.2586 C   0  0  2  0  0  0  0  0  0  0  0  0
    7.5272  -13.8099   23.6452 N   0  0  0  0  0  0  0  0  0  0  0  0
    9.0426  -15.6458   24.0638 C   0  0  0  0  0  0  0  0  0  0  0  0
    9.8705  -14.8066   24.5099 O   0  0  0  0  0  0  0  0  0  0  0  0
   10.3434  -20.7965   29.1194 N   0  0  0  0  0  0  0  0  0  0  0  0
    9.7230  -19.9223   28.2007 C   0  0  0  0  0  0  0  0  0  0  0  0
    8.4712  -19.8799   28.1614 O   0  0  0  0  0  0  0  0  0  0  0  0
   10.4957  -19.0337   27.2610 C   0  0  0  0  0  0  0  0  0  0  0  0
    9.5569  -18.3341   26.3174 C   0  0  0  0  0  0  0  0  0  0  0  0
   10.2476  -17.4798   25.2896 C   0  0  2  0  0  0  0  0  0  0  0  0
    9.2218  -17.0133   24.3476 N   0  0  0  0  0  0  0  0  0  0  0  0
   11.2772  -18.2389   24.5739 C   0  0  0  0  0  0  0  0  0  0  0  0
   12.5405  -18.4706   25.1625 O   0  0  0  0  0  0  0  0  0  0  0  0
   11.1439  -18.7306   23.4301 O   0  0  0  0  0  0  0  0  0  0  0  0
  1  2  1  0
  3  2  1  0
  4  3  1  0
  4  5  1  0
  5  1  1  0
  6  7  2  0
  5  6  1  1
  9  8  1  6
  9 11  1  0
 10  9  1  0
 11 13  1  0
 11 12  1  1
 12  6  1  0
 13 21  1  0
 14 13  2  0
 16 15  1  0
 17 16  2  0
 18 16  1  0
 19 18  1  0
 20 19  1  1
 21 20  1  0
 22 23  1  0
 22 20  1  0
 24 22  2  0
M  END
$$$$
