PVQ.pdb
     RDKit          3D

 24 24  0  0  1  0  0  0  0  0999 V2000
    6.8326  -14.5508   21.0908 N   0  0  0  0  0  0  0  0  0  0  0  0
    6.2732  -13.7832   20.0091 C   0  0  0  0  0  0  0  0  0  0  0  0
    7.0878  -12.4987   20.0937 C   0  0  0  0  0  0  0  0  0  0  0  0
    8.4974  -13.0849   20.2157 C   0  0  0  0  0  0  0  0  0  0  0  0
    8.2431  -14.2848   21.0951 C   0  0  1  0  0  0  0  0  0  0  0  0
    8.6817  -14.0563   22.4922 C   0  0  0  0  0  0  0  0  0  0  0  0
    9.9062  -13.9625   22.7460 O   0  0  0  0  0  0  0  0  0  0  0  0
    5.8356  -13.5704   25.6264 C   0  0  0  0  0  0  0  0  0  0  0  0
    7.2116  -12.9613   25.6695 C   0  0  1  0  0  0  0  0  0  0  0  0
    7.5812  -12.4716   27.0293 C   0  0  0  0  0  0  0  0  0  0  0  0
    8.2428  -13.8093   24.9823 C   0  0  2  0  0  0  0  0  0  0  0  0
    7.7965  -13.9346   23.5801 N   0  0  0  0  0  0  0  0  0  0  0  0
    8.4527  -15.1354   25.5725 C   0  0  0  0  0  0  0  0  0  0  0  0
    7.4970  -15.9562   25.6121 O   0  0  0  0  0  0  0  0  0  0  0  0
   12.4638  -18.5620   22.6150 N   0  0  0  0  0  0  0  0  0  0  0  0
   12.3327  -18.1288   23.9522 C   0  0  0  0  0  0  0  0  0  0  0  0
   13.3379  -18.1691   24.6993 O   0  0  0  0  0  0  0  0  0  0  0  0
   11.0375  -17.6179   24.5277 C   0  0  0  0  0  0  0  0  0  0  0  0
   11.1791  -17.3938   26.0079 C   0  0  0  0  0  0  0  0  0  0  0  0
    9.9432  -16.8403   26.6633 C   0  0  2  0  0  0  0  0  0  0  0  0
    9.7064  -15.5068   26.0949 N   0  0  0  0  0  0  0  0  0  0  0  0
   10.1112  -16.7433   28.1162 C   0  0  0  0  0  0  0  0  0  0  0  0
   10.1467  -17.9071   28.9162 O   0  0  0  0  0  0  0  0  0  0  0  0
   10.2334  -15.6742   28.7565 O   0  0  0  0  0  0  0  0  0  0  0  0
  1  2  1  0
  3  2  1  0
  4  3  1  0
  4  5  1  0
  5  1  1  0
  6  7  2  0
  5  6  1  1
  9  8  1  1
  9 11  1  0
 10  9  1  0
 11 13  1  0
 11 12  1  6
 12  6  1  0
 13 21  1  0
 14 13  2  0
 16 15  1  0
 17 16  2  0
 18 16  1  0
 19 18  1  0
 20 19  1  6
 21 20  1  0
 22 23  1  0
 22 20  1  0
 24 22  2  0
M  END
$$$$
