PVQ.pdb
     RDKit          3D

 24 24  0  0  1  0  0  0  0  0999 V2000
    6.7916  -14.7701   21.4577 N   0  0  0  0  0  0  0  0  0  0  0  0
    6.1895  -14.0486   20.3672 C   0  0  0  0  0  0  0  0  0  0  0  0
    6.9858  -12.7499   20.3844 C   0  0  0  0  0  0  0  0  0  0  0  0
    8.4073  -13.3106   20.4854 C   0  0  0  0  0  0  0  0  0  0  0  0
    8.1972  -14.4832   21.4120 C   0  0  1  0  0  0  0  0  0  0  0  0
    8.6716  -14.2003   22.7873 C   0  0  0  0  0  0  0  0  0  0  0  0
    9.8862  -13.9560   22.9820 O   0  0  0  0  0  0  0  0  0  0  0  0
    6.8780  -11.9508   25.5262 C   0  0  0  0  0  0  0  0  0  0  0  0
    7.1974  -13.3285   26.0423 C   0  0  1  0  0  0  0  0  0  0  0  0
    5.9789  -14.1675   26.2334 C   0  0  0  0  0  0  0  0  0  0  0  0
    8.3243  -13.9809   25.2944 C   0  0  2  0  0  0  0  0  0  0  0  0
    7.8321  -14.1867   23.9173 N   0  0  0  0  0  0  0  0  0  0  0  0
    8.7985  -15.2471   25.8625 C   0  0  0  0  0  0  0  0  0  0  0  0
    8.0958  -16.2860   25.7376 O   0  0  0  0  0  0  0  0  0  0  0  0
   14.2549  -18.0630   25.0154 N   0  0  0  0  0  0  0  0  0  0  0  0
   13.5402  -16.8675   24.7855 C   0  0  0  0  0  0  0  0  0  0  0  0
   14.1334  -15.9064   24.2428 O   0  0  0  0  0  0  0  0  0  0  0  0
   12.0924  -16.6898   25.1624 C   0  0  0  0  0  0  0  0  0  0  0  0
   11.9300  -16.7723   26.6551 C   0  0  0  0  0  0  0  0  0  0  0  0
   10.5150  -16.5779   27.1276 C   0  0  2  0  0  0  0  0  0  0  0  0
   10.0280  -15.3207   26.5449 N   0  0  0  0  0  0  0  0  0  0  0  0
   10.4486  -16.5112   28.5904 C   0  0  0  0  0  0  0  0  0  0  0  0
   10.7744  -17.6378   29.3780 O   0  0  0  0  0  0  0  0  0  0  0  0
   10.1138  -15.5009   29.2501 O   0  0  0  0  0  0  0  0  0  0  0  0
  1  2  1  0
  3  2  1  0
  4  3  1  0
  4  5  1  0
  5  1  1  0
  6  7  2  0
  5  6  1  1
  9  8  1  6
  9 11  1  0
 10  9  1  0
 11 13  1  0
 11 12  1  6
 12  6  1  0
 13 21  1  0
 14 13  2  0
 16 15  1  0
 17 16  2  0
 18 16  1  0
 19 18  1  0
 20 19  1  1
 21 20  1  0
 22 23  1  0
 22 20  1  0
 24 22  2  0
M  END
$$$$
