PVQ.pdb
     RDKit          3D

 24 24  0  0  1  0  0  0  0  0999 V2000
    6.6954  -14.1708   21.3018 N   0  0  0  0  0  0  0  0  0  0  0  0
    6.3955  -13.3492   20.1585 C   0  0  0  0  0  0  0  0  0  0  0  0
    7.5450  -12.3500   20.1913 C   0  0  0  0  0  0  0  0  0  0  0  0
    8.7237  -13.3066   20.3934 C   0  0  0  0  0  0  0  0  0  0  0  0
    8.1225  -14.3213   21.3350 C   0  0  1  0  0  0  0  0  0  0  0  0
    8.5899  -14.1352   22.7290 C   0  0  0  0  0  0  0  0  0  0  0  0
    9.8097  -14.2607   22.9917 O   0  0  0  0  0  0  0  0  0  0  0  0
    7.2196  -11.4073   25.3732 C   0  0  0  0  0  0  0  0  0  0  0  0
    7.2041  -12.8194   25.8947 C   0  0  1  0  0  0  0  0  0  0  0  0
    5.8240  -13.3727   26.0148 C   0  0  0  0  0  0  0  0  0  0  0  0
    8.2004  -13.7041   25.2022 C   0  0  2  0  0  0  0  0  0  0  0  0
    7.7379  -13.8198   23.8044 N   0  0  0  0  0  0  0  0  0  0  0  0
    8.3710  -15.0342   25.7961 C   0  0  0  0  0  0  0  0  0  0  0  0
    7.4574  -15.8933   25.6690 O   0  0  0  0  0  0  0  0  0  0  0  0
   10.9236  -18.9251   23.7636 N   0  0  0  0  0  0  0  0  0  0  0  0
   11.5270  -19.3466   24.9682 C   0  0  0  0  0  0  0  0  0  0  0  0
   11.9551  -20.5215   25.0481 O   0  0  0  0  0  0  0  0  0  0  0  0
   11.6822  -18.4487   26.1681 C   0  0  0  0  0  0  0  0  0  0  0  0
   11.0744  -17.1015   25.8911 C   0  0  0  0  0  0  0  0  0  0  0  0
    9.9083  -16.7628   26.7793 C   0  0  2  0  0  0  0  0  0  0  0  0
    9.5407  -15.3673   26.5055 N   0  0  0  0  0  0  0  0  0  0  0  0
   10.2556  -16.9212   28.1945 C   0  0  0  0  0  0  0  0  0  0  0  0
   10.3673  -15.7942   29.0390 O   0  0  0  0  0  0  0  0  0  0  0  0
   10.4758  -18.0148   28.7631 O   0  0  0  0  0  0  0  0  0  0  0  0
  1  2  1  0
  3  2  1  0
  4  3  1  0
  4  5  1  0
  5  1  1  0
  6  7  2  0
  5  6  1  1
  9  8  1  6
  9 11  1  0
 10  9  1  0
 11 13  1  0
 11 12  1  6
 12  6  1  0
 13 21  1  0
 14 13  2  0
 16 15  1  0
 17 16  2  0
 18 16  1  0
 19 18  1  0
 20 19  1  6
 21 20  1  0
 22 23  1  0
 22 20  1  0
 24 22  2  0
M  END
$$$$
