QLC.pdb
     RDKit          3D

 24 23  0  0  1  0  0  0  0  0999 V2000
   29.2364  -35.6952   -5.3146 N   0  0  0  0  0  0  0  0  0  0  0  0
   28.4517  -35.3453   -6.4601 C   0  0  0  0  0  0  0  0  0  0  0  0
   28.6175  -36.0244   -7.4819 O   0  0  0  0  0  0  0  0  0  0  0  0
   27.5197  -34.2414   -6.3735 C   0  0  0  0  0  0  0  0  0  0  0  0
   27.4218  -33.5738   -5.0344 C   0  0  0  0  0  0  0  0  0  0  0  0
   26.6328  -34.2849   -3.9964 C   0  0  2  0  0  0  0  0  0  0  0  0
   25.2815  -34.6248   -4.3402 N   0  0  0  0  0  0  0  0  0  0  0  0
   26.7177  -33.6356   -2.6590 C   0  0  0  0  0  0  0  0  0  0  0  0
   27.8290  -33.1556   -2.3221 O   0  0  0  0  0  0  0  0  0  0  0  0
   22.2809  -30.9439   -0.4812 C   0  0  0  0  0  0  0  0  0  0  0  0
   23.6375  -31.4008   -0.9407 C   0  0  1  0  0  0  0  0  0  0  0  0
   24.5378  -30.1532   -0.9792 C   0  0  0  0  0  0  0  0  0  0  0  0
   24.3249  -32.3757   -0.0587 C   0  0  0  0  0  0  0  0  0  0  0  0
   25.6586  -32.8751   -0.5024 C   0  0  2  0  0  0  0  0  0  0  0  0
   25.6216  -33.5430   -1.7796 N   0  0  0  0  0  0  0  0  0  0  0  0
   26.0766  -33.9042    0.5207 C   0  0  0  0  0  0  0  0  0  0  0  0
   26.1875  -33.6164    1.7470 O   0  0  0  0  0  0  0  0  0  0  0  0
   26.3438  -35.2180    0.0577 N   0  0  0  0  0  0  0  0  0  0  0  0
   26.6952  -36.3079    0.9419 C   0  0  1  0  0  0  0  0  0  0  0  0
   25.3941  -36.9520    1.3853 C   0  0  0  0  0  0  0  0  0  0  0  0
   25.0304  -36.6307    3.1169 S   0  0  0  0  0  0  0  0  0  0  0  0
   27.5085  -37.2976    0.2292 C   0  0  0  0  0  0  0  0  0  0  0  0
   27.7335  -37.1576   -0.9971 O   0  0  0  0  0  0  0  0  0  0  0  0
   28.0259  -38.3774    0.8955 O   0  0  0  0  0  0  0  0  0  0  0  0
  2  1  1  0
  3  2  2  0
  4  2  1  0
  5  4  1  0
  6  7  1  6
  6  5  1  0
  8  6  1  0
  9  8  2  0
 11 10  1  1
 12 11  1  0
 14 13  1  1
 13 11  1  0
 14 15  1  0
 15  8  1  0
 16 18  1  0
 16 14  1  0
 17 16  2  0
 19 20  1  6
 19 18  1  0
 21 20  1  0
 22 19  1  0
 22 24  1  0
 23 22  2  0
M  END
$$$$
