QLC.pdb
     RDKit          3D

 24 23  0  0  1  0  0  0  0  0999 V2000
   17.1258   -9.8846  -18.5410 N   0  0  0  0  0  0  0  0  0  0  0  0
   17.6816  -10.8389  -19.4525 C   0  0  0  0  0  0  0  0  0  0  0  0
   16.9768  -11.1719  -20.4144 O   0  0  0  0  0  0  0  0  0  0  0  0
   19.0122  -11.3570  -19.2161 C   0  0  0  0  0  0  0  0  0  0  0  0
   19.6533  -10.9440  -17.9251 C   0  0  0  0  0  0  0  0  0  0  0  0
   21.0100  -11.4852  -17.6567 C   0  0  2  0  0  0  0  0  0  0  0  0
   21.0920  -12.8848  -17.3501 N   0  0  0  0  0  0  0  0  0  0  0  0
   21.7812  -10.6593  -16.6869 C   0  0  0  0  0  0  0  0  0  0  0  0
   21.3546  -10.6104  -15.5061 O   0  0  0  0  0  0  0  0  0  0  0  0
   27.2970  -10.4802  -16.6355 C   0  0  0  0  0  0  0  0  0  0  0  0
   25.8474  -10.4524  -16.2380 C   0  0  1  0  0  0  0  0  0  0  0  0
   25.7895  -10.8046  -14.7410 C   0  0  0  0  0  0  0  0  0  0  0  0
   25.1631   -9.1435  -16.3783 C   0  0  0  0  0  0  0  0  0  0  0  0
   23.6922   -9.1128  -16.1323 C   0  0  2  0  0  0  0  0  0  0  0  0
   22.9445   -9.9481  -17.0391 N   0  0  0  0  0  0  0  0  0  0  0  0
   23.2596   -7.6886  -16.3872 C   0  0  0  0  0  0  0  0  0  0  0  0
   23.1384   -7.2297  -17.5592 O   0  0  0  0  0  0  0  0  0  0  0  0
   22.9904   -6.8732  -15.2583 N   0  0  0  0  0  0  0  0  0  0  0  0
   22.4163   -5.5492  -15.3625 C   0  0  1  0  0  0  0  0  0  0  0  0
   21.0349   -5.7151  -15.9695 C   0  0  0  0  0  0  0  0  0  0  0  0
   21.0887   -5.8327  -17.7632 S   0  0  0  0  0  0  0  0  0  0  0  0
   22.2929   -4.9435  -14.0333 C   0  0  0  0  0  0  0  0  0  0  0  0
   22.5103   -5.6331  -13.0079 O   0  0  0  0  0  0  0  0  0  0  0  0
   21.9409   -3.6257  -13.9032 O   0  0  0  0  0  0  0  0  0  0  0  0
  2  1  1  0
  3  2  2  0
  4  2  1  0
  5  4  1  0
  6  7  1  1
  6  5  1  0
  8  6  1  0
  9  8  2  0
 11 10  1  1
 12 11  1  0
 14 13  1  6
 13 11  1  0
 14 15  1  0
 15  8  1  0
 16 18  1  0
 16 14  1  0
 17 16  2  0
 19 20  1  1
 19 18  1  0
 21 20  1  0
 22 19  1  0
 22 24  1  0
 23 22  2  0
M  END
$$$$
