QLC.pdb
     RDKit          3D

 24 23  0  0  1  0  0  0  0  0999 V2000
   29.3906  -20.0716  -15.0767 N   0  0  0  0  0  0  0  0  0  0  0  0
   29.1656  -20.6716  -16.3573 C   0  0  0  0  0  0  0  0  0  0  0  0
   29.9058  -20.3123  -17.2825 O   0  0  0  0  0  0  0  0  0  0  0  0
   28.1101  -21.6502  -16.5086 C   0  0  0  0  0  0  0  0  0  0  0  0
   27.3650  -22.0051  -15.2567 C   0  0  0  0  0  0  0  0  0  0  0  0
   26.1628  -21.1895  -14.9482 C   0  0  2  0  0  0  0  0  0  0  0  0
   26.3436  -19.7660  -14.9246 N   0  0  0  0  0  0  0  0  0  0  0  0
   25.4267  -21.6746  -13.7481 C   0  0  0  0  0  0  0  0  0  0  0  0
   24.9757  -22.8468  -13.7848 O   0  0  0  0  0  0  0  0  0  0  0  0
   26.2885  -19.5263   -8.6483 C   0  0  0  0  0  0  0  0  0  0  0  0
   26.0170  -20.3914   -9.8475 C   0  0  1  0  0  0  0  0  0  0  0  0
   26.4542  -21.8191   -9.4745 C   0  0  0  0  0  0  0  0  0  0  0  0
   24.5967  -20.4929  -10.2640 C   0  0  0  0  0  0  0  0  0  0  0  0
   24.3088  -21.2156  -11.5366 C   0  0  2  0  0  0  0  0  0  0  0  0
   25.2235  -20.8839  -12.6007 N   0  0  0  0  0  0  0  0  0  0  0  0
   22.9389  -20.7544  -11.9738 C   0  0  0  0  0  0  0  0  0  0  0  0
   22.6375  -19.5279  -12.0338 O   0  0  0  0  0  0  0  0  0  0  0  0
   21.9907  -21.7513  -12.3188 N   0  0  0  0  0  0  0  0  0  0  0  0
   20.6370  -21.4428  -12.7257 C   0  0  1  0  0  0  0  0  0  0  0  0
   20.4547  -22.0169  -14.1191 C   0  0  0  0  0  0  0  0  0  0  0  0
   18.7428  -21.9478  -14.6656 S   0  0  0  0  0  0  0  0  0  0  0  0
   19.6770  -22.0704  -11.8127 C   0  0  0  0  0  0  0  0  0  0  0  0
   18.5217  -21.5955  -11.6950 O   0  0  0  0  0  0  0  0  0  0  0  0
   20.0344  -23.1752  -11.0852 O   0  0  0  0  0  0  0  0  0  0  0  0
  2  1  1  0
  3  2  2  0
  4  2  1  0
  5  4  1  0
  6  7  1  1
  6  5  1  0
  8  6  1  0
  9  8  2  0
 11 10  1  1
 12 11  1  0
 14 13  1  1
 13 11  1  0
 14 15  1  0
 15  8  1  0
 16 18  1  0
 16 14  1  0
 17 16  2  0
 19 20  1  6
 19 18  1  0
 21 20  1  0
 22 19  1  0
 22 24  1  0
 23 22  2  0
M  END
$$$$
