QLC.pdb
     RDKit          3D

 24 23  0  0  1  0  0  0  0  0999 V2000
   29.4153  -21.1550  -16.2181 N   0  0  0  0  0  0  0  0  0  0  0  0
   29.0837  -21.4950  -17.5690 C   0  0  0  0  0  0  0  0  0  0  0  0
   30.0256  -21.6230  -18.3622 O   0  0  0  0  0  0  0  0  0  0  0  0
   27.6953  -21.6726  -17.9374 C   0  0  0  0  0  0  0  0  0  0  0  0
   26.7011  -21.5256  -16.8246 C   0  0  0  0  0  0  0  0  0  0  0  0
   26.6942  -22.5979  -15.7971 C   0  0  2  0  0  0  0  0  0  0  0  0
   26.7959  -23.9462  -16.2780 N   0  0  0  0  0  0  0  0  0  0  0  0
   25.5922  -22.4441  -14.8075 C   0  0  0  0  0  0  0  0  0  0  0  0
   24.5996  -23.2049  -14.9290 O   0  0  0  0  0  0  0  0  0  0  0  0
   26.2728  -19.8850   -9.6633 C   0  0  0  0  0  0  0  0  0  0  0  0
   25.8325  -20.8651  -10.7147 C   0  0  1  0  0  0  0  0  0  0  0  0
   25.0862  -21.9958   -9.9846 C   0  0  0  0  0  0  0  0  0  0  0  0
   24.8891  -20.3414  -11.7329 C   0  0  0  0  0  0  0  0  0  0  0  0
   24.5286  -21.2494  -12.8601 C   0  0  2  0  0  0  0  0  0  0  0  0
   25.6233  -21.4980  -13.7649 N   0  0  0  0  0  0  0  0  0  0  0  0
   23.4614  -20.5276  -13.6479 C   0  0  0  0  0  0  0  0  0  0  0  0
   23.7274  -19.5135  -14.3545 O   0  0  0  0  0  0  0  0  0  0  0  0
   22.1368  -21.0288  -13.5694 N   0  0  0  0  0  0  0  0  0  0  0  0
   21.0290  -20.4419  -14.2916 C   0  0  1  0  0  0  0  0  0  0  0  0
   20.5687  -21.4736  -15.3055 C   0  0  0  0  0  0  0  0  0  0  0  0
   19.0801  -20.9587  -16.1733 S   0  0  0  0  0  0  0  0  0  0  0  0
   19.9276  -20.1392  -13.3728 C   0  0  0  0  0  0  0  0  0  0  0  0
   19.6805  -20.9110  -12.4151 O   0  0  0  0  0  0  0  0  0  0  0  0
   19.1642  -19.0157  -13.5539 O   0  0  0  0  0  0  0  0  0  0  0  0
  2  1  1  0
  3  2  2  0
  4  2  1  0
  5  4  1  0
  6  7  1  6
  6  5  1  0
  8  6  1  0
  9  8  2  0
 11 10  1  1
 12 11  1  0
 14 13  1  1
 13 11  1  0
 14 15  1  0
 15  8  1  0
 16 18  1  0
 16 14  1  0
 17 16  2  0
 19 20  1  6
 19 18  1  0
 21 20  1  0
 22 19  1  0
 22 24  1  0
 23 22  2  0
M  END
$$$$
