QLC.pdb
     RDKit          3D

 24 23  0  0  1  0  0  0  0  0999 V2000
   20.0293  -12.4665  -20.0983 N   0  0  0  0  0  0  0  0  0  0  0  0
   18.8980  -13.3276  -19.9275 C   0  0  0  0  0  0  0  0  0  0  0  0
   18.7487  -14.2293  -20.7627 O   0  0  0  0  0  0  0  0  0  0  0  0
   18.0026  -13.1126  -18.8109 C   0  0  0  0  0  0  0  0  0  0  0  0
   18.3776  -11.9994  -17.8790 C   0  0  0  0  0  0  0  0  0  0  0  0
   19.5869  -12.2142  -17.0439 C   0  0  2  0  0  0  0  0  0  0  0  0
   19.5490  -13.3250  -16.1360 N   0  0  0  0  0  0  0  0  0  0  0  0
   20.0583  -10.9691  -16.3769 C   0  0  0  0  0  0  0  0  0  0  0  0
   19.2552  -10.3925  -15.6014 O   0  0  0  0  0  0  0  0  0  0  0  0
   25.5168  -10.1629  -15.1024 C   0  0  0  0  0  0  0  0  0  0  0  0
   24.0144  -10.2013  -15.0673 C   0  0  1  0  0  0  0  0  0  0  0  0
   23.5968   -9.9518  -13.6072 C   0  0  0  0  0  0  0  0  0  0  0  0
   23.3217   -9.1672  -15.8746 C   0  0  0  0  0  0  0  0  0  0  0  0
   21.8329   -9.2346  -15.9375 C   0  0  2  0  0  0  0  0  0  0  0  0
   21.3426  -10.4284  -16.5804 N   0  0  0  0  0  0  0  0  0  0  0  0
   21.4013   -8.0659  -16.7909 C   0  0  0  0  0  0  0  0  0  0  0  0
   21.5006   -8.0897  -18.0511 O   0  0  0  0  0  0  0  0  0  0  0  0
   20.8753   -6.9282  -16.1268 N   0  0  0  0  0  0  0  0  0  0  0  0
   20.3750   -5.7673  -16.8306 C   0  0  1  0  0  0  0  0  0  0  0  0
   18.8901   -5.9926  -17.0514 C   0  0  0  0  0  0  0  0  0  0  0  0
   18.0406   -4.4895  -17.5543 S   0  0  0  0  0  0  0  0  0  0  0  0
   20.5678   -4.5607  -16.0207 C   0  0  0  0  0  0  0  0  0  0  0  0
   20.8543   -4.6624  -14.8035 O   0  0  0  0  0  0  0  0  0  0  0  0
   20.4367   -3.3195  -16.5861 O   0  0  0  0  0  0  0  0  0  0  0  0
  2  1  1  0
  3  2  2  0
  4  2  1  0
  5  4  1  0
  6  7  1  1
  6  5  1  0
  8  6  1  0
  9  8  2  0
 11 10  1  1
 12 11  1  0
 14 13  1  6
 13 11  1  0
 14 15  1  0
 15  8  1  0
 16 18  1  0
 16 14  1  0
 17 16  2  0
 19 20  1  1
 19 18  1  0
 21 20  1  0
 22 19  1  0
 22 24  1  0
 23 22  2  0
M  END
$$$$
