QLC.pdb
     RDKit          3D

 24 23  0  0  1  0  0  0  0  0999 V2000
   23.6607  -20.0597  -14.0163 N   0  0  0  0  0  0  0  0  0  0  0  0
   22.5936  -20.2393  -13.0785 C   0  0  0  0  0  0  0  0  0  0  0  0
   21.5553  -19.5961  -13.2809 O   0  0  0  0  0  0  0  0  0  0  0  0
   22.7712  -21.1456  -11.9641 C   0  0  0  0  0  0  0  0  0  0  0  0
   24.0736  -21.8876  -11.9277 C   0  0  0  0  0  0  0  0  0  0  0  0
   25.0762  -21.4171  -10.9382 C   0  0  2  0  0  0  0  0  0  0  0  0
   24.5625  -20.7746   -9.7622 N   0  0  0  0  0  0  0  0  0  0  0  0
   26.1800  -20.6345  -11.5600 C   0  0  0  0  0  0  0  0  0  0  0  0
   26.1952  -19.3955  -11.3512 O   0  0  0  0  0  0  0  0  0  0  0  0
   31.1804  -22.5041  -11.1350 C   0  0  0  0  0  0  0  0  0  0  0  0
   29.9806  -21.6106  -11.2834 C   0  0  1  0  0  0  0  0  0  0  0  0
   30.3196  -20.2884  -10.5724 C   0  0  0  0  0  0  0  0  0  0  0  0
   29.6132  -21.2463  -12.6738 C   0  0  0  0  0  0  0  0  0  0  0  0
   28.3291  -20.5133  -12.8705 C   0  0  2  0  0  0  0  0  0  0  0  0
   27.1835  -21.2210  -12.3549 N   0  0  0  0  0  0  0  0  0  0  0  0
   28.1413  -20.4009  -14.3647 C   0  0  0  0  0  0  0  0  0  0  0  0
   28.9665  -19.7798  -15.0941 O   0  0  0  0  0  0  0  0  0  0  0  0
   26.9977  -21.0207  -14.9302 N   0  0  0  0  0  0  0  0  0  0  0  0
   26.6966  -20.9759  -16.3447 C   0  0  1  0  0  0  0  0  0  0  0  0
   26.4335  -22.4048  -16.7842 C   0  0  0  0  0  0  0  0  0  0  0  0
   27.6930  -23.5428  -16.1904 S   0  0  0  0  0  0  0  0  0  0  0  0
   25.4980  -20.1662  -16.5829 C   0  0  0  0  0  0  0  0  0  0  0  0
   24.9345  -19.5841  -15.6249 O   0  0  0  0  0  0  0  0  0  0  0  0
   24.9877  -20.0409  -17.8484 O   0  0  0  0  0  0  0  0  0  0  0  0
  2  1  1  0
  3  2  2  0
  4  2  1  0
  5  4  1  0
  6  7  1  1
  6  5  1  0
  8  6  1  0
  9  8  2  0
 11 10  1  6
 12 11  1  0
 14 13  1  6
 13 11  1  0
 14 15  1  0
 15  8  1  0
 16 18  1  0
 16 14  1  0
 17 16  2  0
 19 20  1  1
 19 18  1  0
 21 20  1  0
 22 19  1  0
 22 24  1  0
 23 22  2  0
M  END
$$$$
