QLC.pdb
     RDKit          3D

 24 23  0  0  1  0  0  0  0  0999 V2000
   16.0718  -29.6258   -3.5850 N   0  0  0  0  0  0  0  0  0  0  0  0
   15.7550  -28.2642   -3.2752 C   0  0  0  0  0  0  0  0  0  0  0  0
   15.9394  -27.4282   -4.1697 O   0  0  0  0  0  0  0  0  0  0  0  0
   15.2426  -27.9341   -1.9625 C   0  0  0  0  0  0  0  0  0  0  0  0
   16.2380  -27.9836   -0.8422 C   0  0  0  0  0  0  0  0  0  0  0  0
   16.2499  -26.8231    0.0845 C   0  0  2  0  0  0  0  0  0  0  0  0
   16.2152  -25.5214   -0.5189 N   0  0  0  0  0  0  0  0  0  0  0  0
   17.3110  -26.9237    1.1244 C   0  0  0  0  0  0  0  0  0  0  0  0
   17.7241  -28.0742    1.4152 O   0  0  0  0  0  0  0  0  0  0  0  0
   21.8972  -24.4313    0.7352 C   0  0  0  0  0  0  0  0  0  0  0  0
   20.7638  -25.3431    1.1148 C   0  0  1  0  0  0  0  0  0  0  0  0
   21.3574  -26.7559    1.2567 C   0  0  0  0  0  0  0  0  0  0  0  0
   20.0992  -25.0456    2.4074 C   0  0  0  0  0  0  0  0  0  0  0  0
   18.9040  -25.8635    2.7643 C   0  0  2  0  0  0  0  0  0  0  0  0
   17.8544  -25.8008    1.7777 N   0  0  0  0  0  0  0  0  0  0  0  0
   18.3523  -25.2585    4.0332 C   0  0  0  0  0  0  0  0  0  0  0  0
   17.7614  -24.1407    4.0352 O   0  0  0  0  0  0  0  0  0  0  0  0
   18.5196  -25.9919    5.2358 N   0  0  0  0  0  0  0  0  0  0  0  0
   18.0783  -25.5027    6.5239 C   0  0  1  0  0  0  0  0  0  0  0  0
   16.8635  -26.3249    6.9144 C   0  0  0  0  0  0  0  0  0  0  0  0
   17.0645  -28.0674    6.5181 S   0  0  0  0  0  0  0  0  0  0  0  0
   19.1325  -25.6884    7.5255 C   0  0  0  0  0  0  0  0  0  0  0  0
   20.1922  -26.2847    7.2167 O   0  0  0  0  0  0  0  0  0  0  0  0
   18.9674  -25.2135    8.8002 O   0  0  0  0  0  0  0  0  0  0  0  0
  2  1  1  0
  3  2  2  0
  4  2  1  0
  5  4  1  0
  6  7  1  6
  6  5  1  0
  8  6  1  0
  9  8  2  0
 11 10  1  1
 12 11  1  0
 14 13  1  6
 13 11  1  0
 14 15  1  0
 15  8  1  0
 16 18  1  0
 16 14  1  0
 17 16  2  0
 19 20  1  1
 19 18  1  0
 21 20  1  0
 22 19  1  0
 22 24  1  0
 23 22  2  0
M  END
$$$$
