QLC.pdb
     RDKit          3D

 24 23  0  0  1  0  0  0  0  0999 V2000
   25.4973  -19.8007  -18.6762 N   0  0  0  0  0  0  0  0  0  0  0  0
   25.6561  -18.3776  -18.6669 C   0  0  0  0  0  0  0  0  0  0  0  0
   25.4384  -17.7823  -19.7305 O   0  0  0  0  0  0  0  0  0  0  0  0
   26.0518  -17.7140  -17.4430 C   0  0  0  0  0  0  0  0  0  0  0  0
   26.2065  -18.5984  -16.2421 C   0  0  0  0  0  0  0  0  0  0  0  0
   27.5073  -18.5252  -15.5293 C   0  0  2  0  0  0  0  0  0  0  0  0
   28.6471  -18.1453  -16.3143 N   0  0  0  0  0  0  0  0  0  0  0  0
   27.7822  -19.7319  -14.7011 C   0  0  0  0  0  0  0  0  0  0  0  0
   27.9988  -20.8098  -15.3093 O   0  0  0  0  0  0  0  0  0  0  0  0
   30.4113  -22.5685  -10.8633 C   0  0  0  0  0  0  0  0  0  0  0  0
   29.4470  -21.5224  -10.3777 C   0  0  1  0  0  0  0  0  0  0  0  0
   30.1228  -20.8099   -9.1927 C   0  0  0  0  0  0  0  0  0  0  0  0
   29.1010  -20.4590  -11.3526 C   0  0  0  0  0  0  0  0  0  0  0  0
   28.1813  -20.8282  -12.4673 C   0  0  2  0  0  0  0  0  0  0  0  0
   27.8072  -19.7072  -13.2933 N   0  0  0  0  0  0  0  0  0  0  0  0
   26.9181  -21.3332  -11.8118 C   0  0  0  0  0  0  0  0  0  0  0  0
   26.8981  -22.4075  -11.1453 O   0  0  0  0  0  0  0  0  0  0  0  0
   25.7421  -20.5560  -11.9690 N   0  0  0  0  0  0  0  0  0  0  0  0
   24.4557  -20.9597  -11.4441 C   0  0  1  0  0  0  0  0  0  0  0  0
   24.1364  -20.0228  -10.2932 C   0  0  0  0  0  0  0  0  0  0  0  0
   22.4905  -20.3019   -9.6244 S   0  0  0  0  0  0  0  0  0  0  0  0
   23.4230  -20.8302  -12.4764 C   0  0  0  0  0  0  0  0  0  0  0  0
   23.5534  -19.9801  -13.3898 O   0  0  0  0  0  0  0  0  0  0  0  0
   22.3133  -21.6336  -12.4499 O   0  0  0  0  0  0  0  0  0  0  0  0
  2  1  1  0
  3  2  2  0
  4  2  1  0
  5  4  1  0
  6  7  1  6
  6  5  1  0
  8  6  1  0
  9  8  2  0
 11 10  1  6
 12 11  1  0
 14 13  1  1
 13 11  1  0
 14 15  1  0
 15  8  1  0
 16 18  1  0
 16 14  1  0
 17 16  2  0
 19 20  1  1
 19 18  1  0
 21 20  1  0
 22 19  1  0
 22 24  1  0
 23 22  2  0
M  END
$$$$
