QLC.pdb
     RDKit          3D

 24 23  0  0  1  0  0  0  0  0999 V2000
   23.4932  -13.3724  -22.4778 N   0  0  0  0  0  0  0  0  0  0  0  0
   22.7246  -12.1942  -22.2105 C   0  0  0  0  0  0  0  0  0  0  0  0
   23.2099  -11.1142  -22.5726 O   0  0  0  0  0  0  0  0  0  0  0  0
   21.4438  -12.3156  -21.5476 C   0  0  0  0  0  0  0  0  0  0  0  0
   21.2242  -11.4008  -20.3800 C   0  0  0  0  0  0  0  0  0  0  0  0
   21.4868  -11.9708  -19.0340 C   0  0  2  0  0  0  0  0  0  0  0  0
   20.7138  -13.1220  -18.6642 N   0  0  0  0  0  0  0  0  0  0  0  0
   21.4934  -10.9394  -17.9599 C   0  0  0  0  0  0  0  0  0  0  0  0
   20.4653  -10.8486  -17.2433 O   0  0  0  0  0  0  0  0  0  0  0  0
   26.3302   -9.7505  -15.4668 C   0  0  0  0  0  0  0  0  0  0  0  0
   24.8637  -10.0112  -15.6703 C   0  0  1  0  0  0  0  0  0  0  0  0
   24.2734  -10.3372  -14.2869 C   0  0  0  0  0  0  0  0  0  0  0  0
   24.0712   -8.8728  -16.1966 C   0  0  0  0  0  0  0  0  0  0  0  0
   22.6704   -9.1561  -16.6236 C   0  0  2  0  0  0  0  0  0  0  0  0
   22.5861  -10.0826  -17.7251 N   0  0  0  0  0  0  0  0  0  0  0  0
   22.1120   -7.8404  -17.1111 C   0  0  0  0  0  0  0  0  0  0  0  0
   22.5455   -7.2810  -18.1588 O   0  0  0  0  0  0  0  0  0  0  0  0
   21.0747   -7.2456  -16.3482 N   0  0  0  0  0  0  0  0  0  0  0  0
   20.4975   -5.9592  -16.6726 C   0  0  1  0  0  0  0  0  0  0  0  0
   19.0195   -6.0426  -16.3366 C   0  0  0  0  0  0  0  0  0  0  0  0
   18.1940   -4.4529  -16.4962 S   0  0  0  0  0  0  0  0  0  0  0  0
   21.1201   -4.9056  -15.8656 C   0  0  0  0  0  0  0  0  0  0  0  0
   21.3128   -5.0871  -14.6393 O   0  0  0  0  0  0  0  0  0  0  0  0
   21.4938   -3.7207  -16.4437 O   0  0  0  0  0  0  0  0  0  0  0  0
  2  1  1  0
  3  2  2  0
  4  2  1  0
  5  4  1  0
  6  7  1  1
  6  5  1  0
  8  6  1  0
  9  8  2  0
 11 10  1  1
 12 11  1  0
 14 13  1  6
 13 11  1  0
 14 15  1  0
 15  8  1  0
 16 18  1  0
 16 14  1  0
 17 16  2  0
 19 20  1  1
 19 18  1  0
 21 20  1  0
 22 19  1  0
 22 24  1  0
 23 22  2  0
M  END
$$$$
