QLC.pdb
     RDKit          3D

 24 23  0  0  1  0  0  0  0  0999 V2000
   16.6784  -11.6020  -18.2887 N   0  0  0  0  0  0  0  0  0  0  0  0
   17.3134  -12.7187  -18.9214 C   0  0  0  0  0  0  0  0  0  0  0  0
   16.6404  -13.3544  -19.7434 O   0  0  0  0  0  0  0  0  0  0  0  0
   18.6820  -13.0448  -18.5820 C   0  0  0  0  0  0  0  0  0  0  0  0
   19.3425  -12.1353  -17.5896 C   0  0  0  0  0  0  0  0  0  0  0  0
   20.7607  -12.4309  -17.2623 C   0  0  2  0  0  0  0  0  0  0  0  0
   21.0387  -13.7397  -16.7433 N   0  0  0  0  0  0  0  0  0  0  0  0
   21.4008  -11.3633  -16.4451 C   0  0  0  0  0  0  0  0  0  0  0  0
   20.8806  -11.1012  -15.3318 O   0  0  0  0  0  0  0  0  0  0  0  0
   26.9231  -10.2566  -16.2081 C   0  0  0  0  0  0  0  0  0  0  0  0
   25.4604  -10.4324  -15.9088 C   0  0  1  0  0  0  0  0  0  0  0  0
   25.3176  -10.4420  -14.3765 C   0  0  0  0  0  0  0  0  0  0  0  0
   24.5659   -9.3543  -16.3974 C   0  0  0  0  0  0  0  0  0  0  0  0
   23.1021   -9.5251  -16.1664 C   0  0  2  0  0  0  0  0  0  0  0  0
   22.5419  -10.6540  -16.8669 N   0  0  0  0  0  0  0  0  0  0  0  0
   22.4468   -8.2872  -16.7308 C   0  0  0  0  0  0  0  0  0  0  0  0
   22.3777   -8.0799  -17.9762 O   0  0  0  0  0  0  0  0  0  0  0  0
   21.9053   -7.3543  -15.8098 N   0  0  0  0  0  0  0  0  0  0  0  0
   21.2408   -6.1368  -16.2215 C   0  0  1  0  0  0  0  0  0  0  0  0
   19.7486   -6.3870  -16.0995 C   0  0  0  0  0  0  0  0  0  0  0  0
   18.7881   -4.8767  -16.2748 S   0  0  0  0  0  0  0  0  0  0  0  0
   21.6208   -5.0284  -15.3406 C   0  0  0  0  0  0  0  0  0  0  0  0
   21.7642   -5.2269  -14.1101 O   0  0  0  0  0  0  0  0  0  0  0  0
   21.8209   -3.7737  -15.8538 O   0  0  0  0  0  0  0  0  0  0  0  0
  2  1  1  0
  3  2  2  0
  4  2  1  0
  5  4  1  0
  6  7  1  1
  6  5  1  0
  8  6  1  0
  9  8  2  0
 11 10  1  1
 12 11  1  0
 14 13  1  6
 13 11  1  0
 14 15  1  0
 15  8  1  0
 16 18  1  0
 16 14  1  0
 17 16  2  0
 19 20  1  1
 19 18  1  0
 21 20  1  0
 22 19  1  0
 22 24  1  0
 23 22  2  0
M  END
$$$$
