QLC.pdb
     RDKit          3D

 24 23  0  0  1  0  0  0  0  0999 V2000
   18.1678  -11.2132  -20.6820 N   0  0  0  0  0  0  0  0  0  0  0  0
   18.4955  -12.6031  -20.5769 C   0  0  0  0  0  0  0  0  0  0  0  0
   17.9794  -13.3649  -21.4053 O   0  0  0  0  0  0  0  0  0  0  0  0
   19.3964  -13.0446  -19.5337 C   0  0  0  0  0  0  0  0  0  0  0  0
   19.8323  -11.9916  -18.5594 C   0  0  0  0  0  0  0  0  0  0  0  0
   20.7445  -12.4317  -17.4731 C   0  0  2  0  0  0  0  0  0  0  0  0
   20.3578  -13.6095  -16.7501 N   0  0  0  0  0  0  0  0  0  0  0  0
   21.1327  -11.3225  -16.5585 C   0  0  0  0  0  0  0  0  0  0  0  0
   20.4620  -11.1842  -15.5050 O   0  0  0  0  0  0  0  0  0  0  0  0
   26.4626   -9.8659  -15.8277 C   0  0  0  0  0  0  0  0  0  0  0  0
   24.9985  -10.1794  -15.6928 C   0  0  1  0  0  0  0  0  0  0  0  0
   24.7498  -10.5151  -14.2116 C   0  0  0  0  0  0  0  0  0  0  0  0
   24.0668   -9.0737  -16.0248 C   0  0  0  0  0  0  0  0  0  0  0  0
   22.6061   -9.3685  -15.9570 C   0  0  2  0  0  0  0  0  0  0  0  0
   22.2003  -10.4442  -16.8270 N   0  0  0  0  0  0  0  0  0  0  0  0
   21.9089   -8.1209  -16.4445 C   0  0  0  0  0  0  0  0  0  0  0  0
   21.8583   -7.8237  -17.6724 O   0  0  0  0  0  0  0  0  0  0  0  0
   21.3060   -7.2839  -15.4709 N   0  0  0  0  0  0  0  0  0  0  0  0
   20.6204   -6.0546  -15.8056 C   0  0  1  0  0  0  0  0  0  0  0  0
   19.3328   -6.0359  -15.0019 C   0  0  0  0  0  0  0  0  0  0  0  0
   18.5012   -4.4436  -15.0847 S   0  0  0  0  0  0  0  0  0  0  0  0
   21.4414   -4.8983  -15.4340 C   0  0  0  0  0  0  0  0  0  0  0  0
   22.0556   -4.8917  -14.3401 O   0  0  0  0  0  0  0  0  0  0  0  0
   21.5423   -3.8219  -16.2760 O   0  0  0  0  0  0  0  0  0  0  0  0
  2  1  1  0
  3  2  2  0
  4  2  1  0
  5  4  1  0
  6  7  1  1
  6  5  1  0
  8  6  1  0
  9  8  2  0
 11 10  1  1
 12 11  1  0
 14 13  1  6
 13 11  1  0
 14 15  1  0
 15  8  1  0
 16 18  1  0
 16 14  1  0
 17 16  2  0
 19 20  1  1
 19 18  1  0
 21 20  1  0
 22 19  1  0
 22 24  1  0
 23 22  2  0
M  END
$$$$
