QLC.pdb
     RDKit          3D

 24 23  0  0  1  0  0  0  0  0999 V2000
   22.8180  -16.2002  -17.4746 N   0  0  0  0  0  0  0  0  0  0  0  0
   21.9987  -16.0311  -18.6367 C   0  0  0  0  0  0  0  0  0  0  0  0
   21.8166  -17.0306  -19.3445 O   0  0  0  0  0  0  0  0  0  0  0  0
   21.4309  -14.7311  -18.9237 C   0  0  0  0  0  0  0  0  0  0  0  0
   21.7766  -13.6400  -17.9551 C   0  0  0  0  0  0  0  0  0  0  0  0
   21.9889  -12.2872  -18.5300 C   0  0  2  0  0  0  0  0  0  0  0  0
   22.8933  -12.1983  -19.6408 N   0  0  0  0  0  0  0  0  0  0  0  0
   22.2801  -11.2574  -17.4946 C   0  0  0  0  0  0  0  0  0  0  0  0
   21.4899  -11.1816  -16.5206 O   0  0  0  0  0  0  0  0  0  0  0  0
   27.5909   -9.7853  -16.6720 C   0  0  0  0  0  0  0  0  0  0  0  0
   26.1448  -10.1770  -16.5483 C   0  0  1  0  0  0  0  0  0  0  0  0
   25.9901  -10.8856  -15.1910 C   0  0  0  0  0  0  0  0  0  0  0  0
   25.1699   -9.0587  -16.5407 C   0  0  0  0  0  0  0  0  0  0  0  0
   23.7217   -9.4158  -16.5561 C   0  0  2  0  0  0  0  0  0  0  0  0
   23.3842  -10.3863  -17.5674 N   0  0  0  0  0  0  0  0  0  0  0  0
   22.9854   -8.1438  -16.9031 C   0  0  0  0  0  0  0  0  0  0  0  0
   23.1943   -7.5290  -17.9881 O   0  0  0  0  0  0  0  0  0  0  0  0
   22.0419   -7.6553  -15.9635 N   0  0  0  0  0  0  0  0  0  0  0  0
   21.2006   -6.5060  -16.2176 C   0  0  1  0  0  0  0  0  0  0  0  0
   19.7657   -7.0016  -16.2141 C   0  0  0  0  0  0  0  0  0  0  0  0
   19.4470   -8.1745  -17.5394 S   0  0  0  0  0  0  0  0  0  0  0  0
   21.3719   -5.5074  -15.1582 C   0  0  0  0  0  0  0  0  0  0  0  0
   22.1595   -5.7313  -14.2076 O   0  0  0  0  0  0  0  0  0  0  0  0
   20.6755   -4.3281  -15.1996 O   0  0  0  0  0  0  0  0  0  0  0  0
  2  1  1  0
  3  2  2  0
  4  2  1  0
  5  4  1  0
  6  7  1  6
  6  5  1  0
  8  6  1  0
  9  8  2  0
 11 10  1  1
 12 11  1  0
 14 13  1  6
 13 11  1  0
 14 15  1  0
 15  8  1  0
 16 18  1  0
 16 14  1  0
 17 16  2  0
 19 20  1  1
 19 18  1  0
 21 20  1  0
 22 19  1  0
 22 24  1  0
 23 22  2  0
M  END
$$$$
