QLC.pdb
     RDKit          3D

 24 23  0  0  1  0  0  0  0  0999 V2000
   29.3683  -19.9507  -16.6678 N   0  0  0  0  0  0  0  0  0  0  0  0
   28.9226  -19.9738  -18.0284 C   0  0  0  0  0  0  0  0  0  0  0  0
   29.7854  -19.8240  -18.9036 O   0  0  0  0  0  0  0  0  0  0  0  0
   27.5171  -20.1697  -18.3132 C   0  0  0  0  0  0  0  0  0  0  0  0
   26.6352  -20.3944  -17.1215 C   0  0  0  0  0  0  0  0  0  0  0  0
   26.7286  -21.7260  -16.4705 C   0  0  2  0  0  0  0  0  0  0  0  0
   26.6562  -22.8684  -17.3360 N   0  0  0  0  0  0  0  0  0  0  0  0
   25.8220  -21.8614  -15.2970 C   0  0  0  0  0  0  0  0  0  0  0  0
   24.7497  -22.4934  -15.4685 O   0  0  0  0  0  0  0  0  0  0  0  0
   24.5078  -21.8980   -9.8567 C   0  0  0  0  0  0  0  0  0  0  0  0
   24.8922  -20.5948  -10.5000 C   0  0  1  0  0  0  0  0  0  0  0  0
   25.6797  -19.7942   -9.4477 C   0  0  0  0  0  0  0  0  0  0  0  0
   25.7775  -20.6951  -11.6862 C   0  0  0  0  0  0  0  0  0  0  0  0
   25.1920  -21.2802  -12.9271 C   0  0  2  0  0  0  0  0  0  0  0  0
   26.1179  -21.3185  -14.0317 N   0  0  0  0  0  0  0  0  0  0  0  0
   24.0657  -20.3578  -13.3283 C   0  0  0  0  0  0  0  0  0  0  0  0
   24.2802  -19.1688  -13.7012 O   0  0  0  0  0  0  0  0  0  0  0  0
   22.7453  -20.8728  -13.2730 N   0  0  0  0  0  0  0  0  0  0  0  0
   21.5778  -20.0821  -13.5972 C   0  0  1  0  0  0  0  0  0  0  0  0
   21.1533  -20.4785  -14.9997 C   0  0  0  0  0  0  0  0  0  0  0  0
   19.5441  -19.8069  -15.4397 S   0  0  0  0  0  0  0  0  0  0  0  0
   20.4897  -20.3756  -12.6596 C   0  0  0  0  0  0  0  0  0  0  0  0
   20.3339  -21.5426  -12.2262 O   0  0  0  0  0  0  0  0  0  0  0  0
   19.6398  -19.3809  -12.2525 O   0  0  0  0  0  0  0  0  0  0  0  0
  2  1  1  0
  3  2  2  0
  4  2  1  0
  5  4  1  0
  6  7  1  6
  6  5  1  0
  8  6  1  0
  9  8  2  0
 11 10  1  1
 12 11  1  0
 14 13  1  1
 13 11  1  0
 14 15  1  0
 15  8  1  0
 16 18  1  0
 16 14  1  0
 17 16  2  0
 19 20  1  6
 19 18  1  0
 21 20  1  0
 22 19  1  0
 22 24  1  0
 23 22  2  0
M  END
$$$$
