GVA.pdb
     RDKit          3D

 17 16  0  0  1  0  0  0  0  0999 V2000
    7.5365  -18.1898   17.0934 N   0  0  0  0  0  0  0  0  0  0  0  0
    6.9042  -17.6302   18.2461 C   0  0  0  0  0  0  0  0  0  0  0  0
    7.7993  -16.6788   18.9965 C   0  0  0  0  0  0  0  0  0  0  0  0
    9.0337  -16.8499   18.8114 O   0  0  0  0  0  0  0  0  0  0  0  0
    7.2537  -12.9762   19.4390 C   0  0  0  0  0  0  0  0  0  0  0  0
    7.4736  -13.5776   20.8372 C   0  0  2  0  0  0  0  0  0  0  0  0
    8.2196  -12.5380   21.6145 C   0  0  0  0  0  0  0  0  0  0  0  0
    8.1592  -14.8718   20.6248 C   0  0  2  0  0  0  0  0  0  0  0  0
    7.2350  -15.6828   19.8359 N   0  0  0  0  0  0  0  0  0  0  0  0
    8.5687  -15.6216   21.8122 C   0  0  0  0  0  0  0  0  0  0  0  0
    7.7356  -15.8625   22.7235 O   0  0  0  0  0  0  0  0  0  0  0  0
   10.5526  -18.2351   22.9696 C   0  0  0  0  0  0  0  0  0  0  0  0
   10.2408  -16.7974   23.2671 C   0  0  2  0  0  0  0  0  0  0  0  0
    9.8823  -16.1208   22.0304 N   0  0  0  0  0  0  0  0  0  0  0  0
   11.4938  -16.1773   23.8012 C   0  0  0  0  0  0  0  0  0  0  0  0
   12.1754  -15.1930   23.1029 O   0  0  0  0  0  0  0  0  0  0  0  0
   11.9631  -16.5330   24.9000 O   0  0  0  0  0  0  0  0  0  0  0  0
  2  1  1  0
  3  2  1  0
  3  4  2  0
  6  5  1  6
  6  8  1  0
  7  6  1  0
  8  9  1  1
  9  3  1  0
 10  8  1  0
 10 14  1  0
 11 10  2  0
 13 12  1  6
 13 14  1  0
 13 15  1  0
 15 17  2  0
 15 16  1  0
M  END
$$$$
