GVA.pdb
     RDKit          3D

 17 16  0  0  1  0  0  0  0  0999 V2000
    7.7317  -18.1022   16.9596 N   0  0  0  0  0  0  0  0  0  0  0  0
    7.1136  -17.7027   18.1844 C   0  0  0  0  0  0  0  0  0  0  0  0
    7.9903  -16.7982   19.0106 C   0  0  0  0  0  0  0  0  0  0  0  0
    9.2288  -16.9582   18.8439 O   0  0  0  0  0  0  0  0  0  0  0  0
    7.2667  -13.1299   19.7019 C   0  0  0  0  0  0  0  0  0  0  0  0
    7.5695  -13.8180   21.0435 C   0  0  2  0  0  0  0  0  0  0  0  0
    8.2880  -12.7979   21.8710 C   0  0  0  0  0  0  0  0  0  0  0  0
    8.3138  -15.0536   20.7130 C   0  0  2  0  0  0  0  0  0  0  0  0
    7.4058  -15.8541   19.8951 N   0  0  0  0  0  0  0  0  0  0  0  0
    8.8041  -15.8648   21.8272 C   0  0  0  0  0  0  0  0  0  0  0  0
    7.9933  -16.3505   22.6575 O   0  0  0  0  0  0  0  0  0  0  0  0
   10.9104  -18.2835   22.9309 C   0  0  0  0  0  0  0  0  0  0  0  0
   10.6091  -16.8514   23.2640 C   0  0  2  0  0  0  0  0  0  0  0  0
   10.1755  -16.1620   22.0588 N   0  0  0  0  0  0  0  0  0  0  0  0
   11.8878  -16.2304   23.7318 C   0  0  0  0  0  0  0  0  0  0  0  0
   12.4052  -16.4873   24.9918 O   0  0  0  0  0  0  0  0  0  0  0  0
   12.5288  -15.4572   22.9933 O   0  0  0  0  0  0  0  0  0  0  0  0
  2  1  1  0
  3  2  1  0
  3  4  2  0
  6  5  1  6
  6  8  1  0
  7  6  1  0
  8  9  1  1
  9  3  1  0
 10  8  1  0
 10 14  1  0
 11 10  2  0
 13 12  1  6
 13 14  1  0
 13 15  1  0
 15 17  2  0
 15 16  1  0
M  END
$$$$
