GVA.pdb
     RDKit          3D

 17 16  0  0  1  0  0  0  0  0999 V2000
    5.9446  -18.5864   19.0882 N   0  0  0  0  0  0  0  0  0  0  0  0
    5.4769  -17.9727   20.2908 C   0  0  0  0  0  0  0  0  0  0  0  0
    6.5727  -17.2711   21.0502 C   0  0  0  0  0  0  0  0  0  0  0  0
    7.6746  -17.8811   21.0816 O   0  0  0  0  0  0  0  0  0  0  0  0
    7.4526  -13.6757   20.8862 C   0  0  0  0  0  0  0  0  0  0  0  0
    7.2616  -13.9917   22.3791 C   0  0  2  0  0  0  0  0  0  0  0  0
    8.2805  -13.1677   23.1030 C   0  0  0  0  0  0  0  0  0  0  0  0
    7.3792  -15.4614   22.5064 C   0  0  2  0  0  0  0  0  0  0  0  0
    6.3221  -16.0160   21.6644 N   0  0  0  0  0  0  0  0  0  0  0  0
    7.2782  -16.0328   23.8493 C   0  0  0  0  0  0  0  0  0  0  0  0
    6.2325  -15.8652   24.5283 O   0  0  0  0  0  0  0  0  0  0  0  0
    7.6526  -18.7795   25.6705 C   0  0  0  0  0  0  0  0  0  0  0  0
    8.1250  -17.3610   25.8023 C   0  0  2  0  0  0  0  0  0  0  0  0
    8.3045  -16.7924   24.4756 N   0  0  0  0  0  0  0  0  0  0  0  0
    9.4562  -17.4026   26.4848 C   0  0  0  0  0  0  0  0  0  0  0  0
    9.5997  -17.8898   27.7745 O   0  0  0  0  0  0  0  0  0  0  0  0
   10.4827  -16.9961   25.9058 O   0  0  0  0  0  0  0  0  0  0  0  0
  2  1  1  0
  3  2  1  0
  3  4  2  0
  6  5  1  6
  6  8  1  0
  7  6  1  0
  8  9  1  6
  9  3  1  0
 10  8  1  0
 10 14  1  0
 11 10  2  0
 13 12  1  6
 13 14  1  0
 13 15  1  0
 15 17  2  0
 15 16  1  0
M  END
$$$$
