GVA.pdb
     RDKit          3D

 17 16  0  0  1  0  0  0  0  0999 V2000
    4.5806  -18.0709   23.0987 N   0  0  0  0  0  0  0  0  0  0  0  0
    4.8607  -17.5179   24.3862 C   0  0  0  0  0  0  0  0  0  0  0  0
    5.9139  -16.4417   24.3405 C   0  0  0  0  0  0  0  0  0  0  0  0
    6.4423  -16.2603   23.2113 O   0  0  0  0  0  0  0  0  0  0  0  0
    5.8767  -13.0258   26.0638 C   0  0  0  0  0  0  0  0  0  0  0  0
    7.1449  -13.7854   26.4878 C   0  0  2  0  0  0  0  0  0  0  0  0
    8.2038  -12.7422   26.6657 C   0  0  0  0  0  0  0  0  0  0  0  0
    7.3820  -14.8054   25.4421 C   0  0  2  0  0  0  0  0  0  0  0  0
    6.2440  -15.7184   25.5166 N   0  0  0  0  0  0  0  0  0  0  0  0
    8.6246  -15.5735   25.5178 C   0  0  0  0  0  0  0  0  0  0  0  0
    8.8380  -16.3315   26.4989 O   0  0  0  0  0  0  0  0  0  0  0  0
   11.5202  -16.3693   23.2654 C   0  0  0  0  0  0  0  0  0  0  0  0
   10.7544  -16.4822   24.5513 C   0  0  2  0  0  0  0  0  0  0  0  0
    9.6520  -15.5333   24.5353 N   0  0  0  0  0  0  0  0  0  0  0  0
   11.6907  -16.1031   25.6554 C   0  0  0  0  0  0  0  0  0  0  0  0
   12.5825  -17.0136   26.2003 O   0  0  0  0  0  0  0  0  0  0  0  0
   11.6940  -14.9462   26.1198 O   0  0  0  0  0  0  0  0  0  0  0  0
  2  1  1  0
  3  2  1  0
  3  4  2  0
  6  5  1  6
  6  8  1  0
  7  6  1  0
  8  9  1  1
  9  3  1  0
 10  8  1  0
 10 14  1  0
 11 10  2  0
 13 12  1  6
 13 14  1  0
 13 15  1  0
 15 17  2  0
 15 16  1  0
M  END
$$$$
