GVA.pdb
     RDKit          3D

 17 16  0  0  1  0  0  0  0  0999 V2000
    8.1777  -17.3120   16.4621 N   0  0  0  0  0  0  0  0  0  0  0  0
    7.3844  -16.9725   17.6010 C   0  0  0  0  0  0  0  0  0  0  0  0
    8.1711  -16.2508   18.6639 C   0  0  0  0  0  0  0  0  0  0  0  0
    9.4213  -16.2729   18.5093 O   0  0  0  0  0  0  0  0  0  0  0  0
    7.4284  -12.8267   19.9761 C   0  0  0  0  0  0  0  0  0  0  0  0
    7.5285  -13.7700   21.1866 C   0  0  2  0  0  0  0  0  0  0  0  0
    8.1066  -12.9481   22.2963 C   0  0  0  0  0  0  0  0  0  0  0  0
    8.3221  -14.9348   20.7355 C   0  0  2  0  0  0  0  0  0  0  0  0
    7.4973  -15.6111   19.7372 N   0  0  0  0  0  0  0  0  0  0  0  0
    8.7414  -15.9001   21.7515 C   0  0  0  0  0  0  0  0  0  0  0  0
    7.8842  -16.6101   22.3377 O   0  0  0  0  0  0  0  0  0  0  0  0
   11.7897  -17.6957   22.7838 C   0  0  0  0  0  0  0  0  0  0  0  0
   10.4443  -17.1260   23.1272 C   0  0  2  0  0  0  0  0  0  0  0  0
   10.0911  -16.1113   22.1468 N   0  0  0  0  0  0  0  0  0  0  0  0
   10.5739  -16.4682   24.4652 C   0  0  0  0  0  0  0  0  0  0  0  0
   10.7675  -17.2039   25.6239 O   0  0  0  0  0  0  0  0  0  0  0  0
   10.5105  -15.2280   24.5749 O   0  0  0  0  0  0  0  0  0  0  0  0
  2  1  1  0
  3  2  1  0
  3  4  2  0
  6  5  1  6
  6  8  1  0
  7  6  1  0
  8  9  1  6
  9  3  1  0
 10  8  1  0
 10 14  1  0
 11 10  2  0
 13 12  1  6
 13 14  1  0
 13 15  1  0
 15 17  2  0
 15 16  1  0
M  END
$$$$
