GVA.pdb
     RDKit          3D

 17 16  0  0  1  0  0  0  0  0999 V2000
    8.1293  -17.7591   16.8935 N   0  0  0  0  0  0  0  0  0  0  0  0
    7.3234  -17.3947   18.0158 C   0  0  0  0  0  0  0  0  0  0  0  0
    8.0804  -16.5874   19.0380 C   0  0  0  0  0  0  0  0  0  0  0  0
    9.3089  -16.8531   19.1238 O   0  0  0  0  0  0  0  0  0  0  0  0
    7.3798  -12.8800   19.6916 C   0  0  0  0  0  0  0  0  0  0  0  0
    7.4504  -13.6144   21.0410 C   0  0  2  0  0  0  0  0  0  0  0  0
    8.0623  -12.6427   22.0016 C   0  0  0  0  0  0  0  0  0  0  0  0
    8.1995  -14.8655   20.7893 C   0  0  2  0  0  0  0  0  0  0  0  0
    7.4045  -15.6126   19.8178 N   0  0  0  0  0  0  0  0  0  0  0  0
    8.4886  -15.7222   21.9393 C   0  0  0  0  0  0  0  0  0  0  0  0
    7.5921  -16.4686   22.4101 O   0  0  0  0  0  0  0  0  0  0  0  0
    9.9875  -18.1306   23.0828 C   0  0  0  0  0  0  0  0  0  0  0  0
   10.0052  -16.7441   23.6573 C   0  0  2  0  0  0  0  0  0  0  0  0
    9.7491  -15.7839   22.5951 N   0  0  0  0  0  0  0  0  0  0  0  0
   11.3835  -16.5063   24.1896 C   0  0  0  0  0  0  0  0  0  0  0  0
   11.8533  -17.1625   25.3165 O   0  0  0  0  0  0  0  0  0  0  0  0
   12.1543  -15.7034   23.6281 O   0  0  0  0  0  0  0  0  0  0  0  0
  2  1  1  0
  3  2  1  0
  3  4  2  0
  6  5  1  6
  6  8  1  0
  7  6  1  0
  8  9  1  6
  9  3  1  0
 10  8  1  0
 10 14  1  0
 11 10  2  0
 13 12  1  6
 13 14  1  0
 13 15  1  0
 15 17  2  0
 15 16  1  0
M  END
$$$$
