GVA.pdb
     RDKit          3D

 17 16  0  0  1  0  0  0  0  0999 V2000
    7.8469  -17.6460   16.7465 N   0  0  0  0  0  0  0  0  0  0  0  0
    7.2281  -17.0657   17.8963 C   0  0  0  0  0  0  0  0  0  0  0  0
    8.2156  -16.3821   18.8058 C   0  0  0  0  0  0  0  0  0  0  0  0
    9.4258  -16.6403   18.5691 O   0  0  0  0  0  0  0  0  0  0  0  0
    7.0075  -13.8829   21.9873 C   0  0  0  0  0  0  0  0  0  0  0  0
    8.2061  -13.5814   21.0721 C   0  0  2  0  0  0  0  0  0  0  0  0
    7.6697  -12.7237   19.9684 C   0  0  0  0  0  0  0  0  0  0  0  0
    8.7676  -14.8945   20.6842 C   0  0  2  0  0  0  0  0  0  0  0  0
    7.7561  -15.5210   19.8365 N   0  0  0  0  0  0  0  0  0  0  0  0
    9.1360  -15.8153   21.7595 C   0  0  0  0  0  0  0  0  0  0  0  0
    8.2410  -16.4040   22.4190 O   0  0  0  0  0  0  0  0  0  0  0  0
   11.8711  -18.0105   22.6351 C   0  0  0  0  0  0  0  0  0  0  0  0
   10.7744  -17.1197   23.1414 C   0  0  2  0  0  0  0  0  0  0  0  0
   10.4749  -16.1124   22.1357 N   0  0  0  0  0  0  0  0  0  0  0  0
   11.2966  -16.4303   24.3627 C   0  0  0  0  0  0  0  0  0  0  0  0
   11.5107  -15.0611   24.3920 O   0  0  0  0  0  0  0  0  0  0  0  0
   11.5558  -17.0753   25.3975 O   0  0  0  0  0  0  0  0  0  0  0  0
  2  1  1  0
  3  2  1  0
  3  4  2  0
  6  5  1  1
  6  8  1  0
  7  6  1  0
  8  9  1  6
  9  3  1  0
 10  8  1  0
 10 14  1  0
 11 10  2  0
 13 12  1  6
 13 14  1  0
 13 15  1  0
 15 17  2  0
 15 16  1  0
M  END
$$$$
