GVA.pdb
     RDKit          3D

 17 16  0  0  1  0  0  0  0  0999 V2000
    8.2858  -17.8409   17.1158 N   0  0  0  0  0  0  0  0  0  0  0  0
    7.4856  -17.4506   18.2334 C   0  0  0  0  0  0  0  0  0  0  0  0
    8.1929  -16.4823   19.1454 C   0  0  0  0  0  0  0  0  0  0  0  0
    9.4509  -16.5406   19.1125 O   0  0  0  0  0  0  0  0  0  0  0  0
    7.3830  -12.8270   19.9063 C   0  0  0  0  0  0  0  0  0  0  0  0
    7.3711  -13.6213   21.2231 C   0  0  2  0  0  0  0  0  0  0  0  0
    7.8789  -12.6801   22.2707 C   0  0  0  0  0  0  0  0  0  0  0  0
    8.1734  -14.8399   20.9752 C   0  0  2  0  0  0  0  0  0  0  0  0
    7.4426  -15.5933   19.9591 N   0  0  0  0  0  0  0  0  0  0  0  0
    8.4493  -15.7104   22.1181 C   0  0  0  0  0  0  0  0  0  0  0  0
    7.4998  -16.2466   22.7453 O   0  0  0  0  0  0  0  0  0  0  0  0
   10.4910  -18.1838   23.3361 C   0  0  0  0  0  0  0  0  0  0  0  0
    9.9552  -16.8505   23.7697 C   0  0  2  0  0  0  0  0  0  0  0  0
    9.7535  -16.0130   22.5977 N   0  0  0  0  0  0  0  0  0  0  0  0
   11.0009  -16.2160   24.6321 C   0  0  0  0  0  0  0  0  0  0  0  0
   11.6625  -15.0610   24.2456 O   0  0  0  0  0  0  0  0  0  0  0  0
   11.3083  -16.7142   25.7327 O   0  0  0  0  0  0  0  0  0  0  0  0
  2  1  1  0
  3  2  1  0
  3  4  2  0
  6  5  1  6
  6  8  1  0
  7  6  1  0
  8  9  1  6
  9  3  1  0
 10  8  1  0
 10 14  1  0
 11 10  2  0
 13 12  1  6
 13 14  1  0
 13 15  1  0
 15 17  2  0
 15 16  1  0
M  END
$$$$
