GVA.pdb
     RDKit          3D

 17 16  0  0  1  0  0  0  0  0999 V2000
    6.9879  -14.3686   20.3278 N   0  0  0  0  0  0  0  0  0  0  0  0
    6.2892  -14.4455   21.5718 C   0  0  0  0  0  0  0  0  0  0  0  0
    7.1799  -14.1774   22.7569 C   0  0  0  0  0  0  0  0  0  0  0  0
    8.4105  -14.1116   22.4950 O   0  0  0  0  0  0  0  0  0  0  0  0
    6.4119  -11.7818   25.5749 C   0  0  0  0  0  0  0  0  0  0  0  0
    6.7988  -13.1282   26.2095 C   0  0  2  0  0  0  0  0  0  0  0  0
    7.5462  -12.7882   27.4613 C   0  0  0  0  0  0  0  0  0  0  0  0
    7.5425  -13.8739   25.1699 C   0  0  2  0  0  0  0  0  0  0  0  0
    6.6158  -14.0194   24.0500 N   0  0  0  0  0  0  0  0  0  0  0  0
    8.0743  -15.1877   25.5320 C   0  0  0  0  0  0  0  0  0  0  0  0
    7.2897  -16.1457   25.7537 O   0  0  0  0  0  0  0  0  0  0  0  0
   11.1722  -17.0911   25.1256 C   0  0  0  0  0  0  0  0  0  0  0  0
    9.9252  -16.8365   25.9210 C   0  0  2  0  0  0  0  0  0  0  0  0
    9.4596  -15.4837   25.6587 N   0  0  0  0  0  0  0  0  0  0  0  0
   10.2976  -16.9382   27.3669 C   0  0  0  0  0  0  0  0  0  0  0  0
   10.6626  -18.1449   27.9429 O   0  0  0  0  0  0  0  0  0  0  0  0
   10.2894  -15.9299   28.1000 O   0  0  0  0  0  0  0  0  0  0  0  0
  2  1  1  0
  3  2  1  0
  3  4  2  0
  6  5  1  6
  6  8  1  0
  7  6  1  0
  8  9  1  6
  9  3  1  0
 10  8  1  0
 10 14  1  0
 11 10  2  0
 13 12  1  6
 13 14  1  0
 13 15  1  0
 15 17  2  0
 15 16  1  0
M  END
$$$$
