GVA.pdb
     RDKit          3D

 17 16  0  0  1  0  0  0  0  0999 V2000
    7.0345  -17.7307   16.7136 N   0  0  0  0  0  0  0  0  0  0  0  0
    6.5930  -17.1082   17.9216 C   0  0  0  0  0  0  0  0  0  0  0  0
    7.7202  -16.4771   18.6965 C   0  0  0  0  0  0  0  0  0  0  0  0
    8.8764  -16.8008   18.3149 O   0  0  0  0  0  0  0  0  0  0  0  0
    7.0626  -13.7490   21.8661 C   0  0  0  0  0  0  0  0  0  0  0  0
    8.1413  -13.5971   20.7806 C   0  0  2  0  0  0  0  0  0  0  0  0
    7.5064  -12.7987   19.6848 C   0  0  0  0  0  0  0  0  0  0  0  0
    8.5775  -14.9695   20.4397 C   0  0  2  0  0  0  0  0  0  0  0  0
    7.4380  -15.5902   19.7684 N   0  0  0  0  0  0  0  0  0  0  0  0
    9.0199  -15.8295   21.5373 C   0  0  0  0  0  0  0  0  0  0  0  0
    8.1902  -16.2418   22.3884 O   0  0  0  0  0  0  0  0  0  0  0  0
   11.6103  -18.2442   22.2683 C   0  0  0  0  0  0  0  0  0  0  0  0
   10.7246  -17.1601   22.8096 C   0  0  2  0  0  0  0  0  0  0  0  0
   10.3631  -16.2553   21.7297 N   0  0  0  0  0  0  0  0  0  0  0  0
   11.5273  -16.3990   23.8176 C   0  0  0  0  0  0  0  0  0  0  0  0
   11.8667  -15.0688   23.6259 O   0  0  0  0  0  0  0  0  0  0  0  0
   11.9165  -16.9464   24.8679 O   0  0  0  0  0  0  0  0  0  0  0  0
  2  1  1  0
  3  2  1  0
  3  4  2  0
  6  5  1  1
  6  8  1  0
  7  6  1  0
  8  9  1  1
  9  3  1  0
 10  8  1  0
 10 14  1  0
 11 10  2  0
 13 12  1  6
 13 14  1  0
 13 15  1  0
 15 17  2  0
 15 16  1  0
M  END
$$$$
