GVA.pdb
     RDKit          3D

 17 16  0  0  1  0  0  0  0  0999 V2000
    7.0546  -18.4346   17.3594 N   0  0  0  0  0  0  0  0  0  0  0  0
    6.4961  -17.7478   18.4811 C   0  0  0  0  0  0  0  0  0  0  0  0
    7.4977  -16.8672   19.1818 C   0  0  0  0  0  0  0  0  0  0  0  0
    8.7049  -17.1505   18.9586 O   0  0  0  0  0  0  0  0  0  0  0  0
    7.1230  -13.0859   19.5273 C   0  0  0  0  0  0  0  0  0  0  0  0
    7.4401  -13.6783   20.9105 C   0  0  2  0  0  0  0  0  0  0  0  0
    8.2679  -12.6483   21.6143 C   0  0  0  0  0  0  0  0  0  0  0  0
    8.0784  -14.9897   20.6595 C   0  0  2  0  0  0  0  0  0  0  0  0
    7.0535  -15.8110   20.0198 N   0  0  0  0  0  0  0  0  0  0  0  0
    8.6235  -15.7067   21.8122 C   0  0  0  0  0  0  0  0  0  0  0  0
    7.8483  -16.2024   22.6700 O   0  0  0  0  0  0  0  0  0  0  0  0
   10.4552  -18.0688   22.9975 C   0  0  0  0  0  0  0  0  0  0  0  0
   10.4879  -16.5882   23.2414 C   0  0  2  0  0  0  0  0  0  0  0  0
   10.0121  -15.8979   22.0528 N   0  0  0  0  0  0  0  0  0  0  0  0
   11.9184  -16.2115   23.4682 C   0  0  0  0  0  0  0  0  0  0  0  0
   12.5890  -16.5599   24.6302 O   0  0  0  0  0  0  0  0  0  0  0  0
   12.5522  -15.5676   22.6092 O   0  0  0  0  0  0  0  0  0  0  0  0
  2  1  1  0
  3  2  1  0
  3  4  2  0
  6  5  1  6
  6  8  1  0
  7  6  1  0
  8  9  1  1
  9  3  1  0
 10  8  1  0
 10 14  1  0
 11 10  2  0
 13 12  1  6
 13 14  1  0
 13 15  1  0
 15 17  2  0
 15 16  1  0
M  END
$$$$
