GVA.pdb
     RDKit          3D

 17 16  0  0  1  0  0  0  0  0999 V2000
    5.7071  -18.7956   18.8255 N   0  0  0  0  0  0  0  0  0  0  0  0
    5.5517  -17.8393   19.8758 C   0  0  0  0  0  0  0  0  0  0  0  0
    6.7806  -16.9915   20.0772 C   0  0  0  0  0  0  0  0  0  0  0  0
    7.8559  -17.5059   19.6692 O   0  0  0  0  0  0  0  0  0  0  0  0
    6.8150  -13.2917   19.4584 C   0  0  0  0  0  0  0  0  0  0  0  0
    7.4863  -13.5214   20.8229 C   0  0  2  0  0  0  0  0  0  0  0  0
    8.5746  -12.4978   20.9184 C   0  0  0  0  0  0  0  0  0  0  0  0
    7.9021  -14.9415   20.8425 C   0  0  2  0  0  0  0  0  0  0  0  0
    6.6723  -15.7147   20.6880 N   0  0  0  0  0  0  0  0  0  0  0  0
    8.6275  -15.4161   22.0209 C   0  0  0  0  0  0  0  0  0  0  0  0
    8.0058  -15.6633   23.0862 O   0  0  0  0  0  0  0  0  0  0  0  0
   10.2826  -17.6072   23.4167 C   0  0  0  0  0  0  0  0  0  0  0  0
   10.6821  -16.1704   23.2479 C   0  0  2  0  0  0  0  0  0  0  0  0
   10.0328  -15.6303   22.0636 N   0  0  0  0  0  0  0  0  0  0  0  0
   12.1624  -16.1484   23.0291 C   0  0  0  0  0  0  0  0  0  0  0  0
   13.0557  -16.3959   24.0596 O   0  0  0  0  0  0  0  0  0  0  0  0
   12.6370  -15.9045   21.9025 O   0  0  0  0  0  0  0  0  0  0  0  0
  2  1  1  0
  3  2  1  0
  3  4  2  0
  6  5  1  6
  6  8  1  0
  7  6  1  0
  8  9  1  1
  9  3  1  0
 10  8  1  0
 10 14  1  0
 11 10  2  0
 13 12  1  6
 13 14  1  0
 13 15  1  0
 15 17  2  0
 15 16  1  0
M  END
$$$$
