GVA.pdb
     RDKit          3D

 17 16  0  0  1  0  0  0  0  0999 V2000
    8.5194  -17.9248   16.5838 N   0  0  0  0  0  0  0  0  0  0  0  0
    7.6533  -17.3701   17.5758 C   0  0  0  0  0  0  0  0  0  0  0  0
    8.3842  -16.5016   18.5663 C   0  0  0  0  0  0  0  0  0  0  0  0
    9.6378  -16.6269   18.5621 O   0  0  0  0  0  0  0  0  0  0  0  0
    7.4016  -12.8874   19.3320 C   0  0  0  0  0  0  0  0  0  0  0  0
    7.5820  -13.6414   20.6601 C   0  0  2  0  0  0  0  0  0  0  0  0
    8.1368  -12.6397   21.6246 C   0  0  0  0  0  0  0  0  0  0  0  0
    8.4305  -14.8147   20.3547 C   0  0  2  0  0  0  0  0  0  0  0  0
    7.6589  -15.6257   19.4160 N   0  0  0  0  0  0  0  0  0  0  0  0
    8.8579  -15.6492   21.4776 C   0  0  0  0  0  0  0  0  0  0  0  0
    8.0012  -16.2243   22.1972 O   0  0  0  0  0  0  0  0  0  0  0  0
   10.8287  -18.1243   22.4368 C   0  0  0  0  0  0  0  0  0  0  0  0
   10.5719  -16.7380   22.9515 C   0  0  2  0  0  0  0  0  0  0  0  0
   10.2155  -15.8736   21.8373 N   0  0  0  0  0  0  0  0  0  0  0  0
   11.8546  -16.2443   23.5436 C   0  0  0  0  0  0  0  0  0  0  0  0
   12.3369  -16.7313   24.7483 O   0  0  0  0  0  0  0  0  0  0  0  0
   12.5310  -15.3725   22.9633 O   0  0  0  0  0  0  0  0  0  0  0  0
  2  1  1  0
  3  2  1  0
  3  4  2  0
  6  5  1  6
  6  8  1  0
  7  6  1  0
  8  9  1  6
  9  3  1  0
 10  8  1  0
 10 14  1  0
 11 10  2  0
 13 12  1  6
 13 14  1  0
 13 15  1  0
 15 17  2  0
 15 16  1  0
M  END
$$$$
