GVA.pdb
     RDKit          3D

 17 16  0  0  1  0  0  0  0  0999 V2000
    8.7190  -17.6181   16.5634 N   0  0  0  0  0  0  0  0  0  0  0  0
    7.8325  -17.2262   17.6134 C   0  0  0  0  0  0  0  0  0  0  0  0
    8.5167  -16.4084   18.6776 C   0  0  0  0  0  0  0  0  0  0  0  0
    9.7757  -16.4490   18.6542 O   0  0  0  0  0  0  0  0  0  0  0  0
    7.4310  -12.9244   19.7826 C   0  0  0  0  0  0  0  0  0  0  0  0
    7.5829  -13.8098   21.0309 C   0  0  2  0  0  0  0  0  0  0  0  0
    8.0753  -12.9029   22.1156 C   0  0  0  0  0  0  0  0  0  0  0  0
    8.4729  -14.9249   20.6381 C   0  0  2  0  0  0  0  0  0  0  0  0
    7.7458  -15.6667   19.6108 N   0  0  0  0  0  0  0  0  0  0  0  0
    8.9026  -15.8478   21.6887 C   0  0  0  0  0  0  0  0  0  0  0  0
    8.0630  -16.5969   22.2513 O   0  0  0  0  0  0  0  0  0  0  0  0
   12.0377  -17.3359   22.9977 C   0  0  0  0  0  0  0  0  0  0  0  0
   10.6058  -16.9260   23.1828 C   0  0  2  0  0  0  0  0  0  0  0  0
   10.2438  -15.9737   22.1445 N   0  0  0  0  0  0  0  0  0  0  0  0
   10.5129  -16.2396   24.5094 C   0  0  0  0  0  0  0  0  0  0  0  0
   10.1655  -14.9020   24.6158 O   0  0  0  0  0  0  0  0  0  0  0  0
   10.7479  -16.8588   25.5656 O   0  0  0  0  0  0  0  0  0  0  0  0
  2  1  1  0
  3  2  1  0
  3  4  2  0
  6  5  1  6
  6  8  1  0
  7  6  1  0
  8  9  1  6
  9  3  1  0
 10  8  1  0
 10 14  1  0
 11 10  2  0
 13 12  1  6
 13 14  1  0
 13 15  1  0
 15 17  2  0
 15 16  1  0
M  END
$$$$
