DME.pdb
     RDKit          3D

 26 25  0  0  1  0  0  0  0  0999 V2000
   20.1557  -19.9656  -11.9891 N   0  0  0  0  0  0  0  0  0  0  0  0
   21.1560  -20.9637  -12.1140 C   0  0  1  0  0  0  0  0  0  0  0  0
   20.7076  -22.0168  -13.0866 C   0  0  0  0  0  0  0  0  0  0  0  0
   19.5065  -22.7716  -12.6555 C   0  0  0  0  0  0  0  0  0  0  0  0
   19.2059  -22.8572  -11.4137 O   0  0  0  0  0  0  0  0  0  0  0  0
   22.5258  -20.4595  -12.3516 C   0  0  0  0  0  0  0  0  0  0  0  0
   22.6993  -19.3904  -12.9955 O   0  0  0  0  0  0  0  0  0  0  0  0
   18.6349  -23.4251  -13.5079 O   0  0  0  0  0  0  0  0  0  0  0  0
   30.2674  -20.9941  -10.5487 C   0  0  0  0  0  0  0  0  0  0  0  0
   28.5819  -21.5814  -10.3428 S   0  0  0  0  0  0  0  0  0  0  0  0
   27.4729  -20.8800  -11.6015 C   0  0  0  0  0  0  0  0  0  0  0  0
   26.0648  -21.3376  -11.2824 C   0  0  0  0  0  0  0  0  0  0  0  0
   25.0303  -20.7324  -12.1822 C   0  0  2  0  0  0  0  0  0  0  0  0
   23.6905  -21.0999  -11.8968 N   0  0  0  0  0  0  0  0  0  0  0  0
   25.4312  -20.9643  -13.5839 C   0  0  0  0  0  0  0  0  0  0  0  0
   25.2350  -22.0845  -14.0956 O   0  0  0  0  0  0  0  0  0  0  0  0
   26.0305  -19.9496  -14.3538 N   0  0  0  0  0  0  0  0  0  0  0  0
   26.1611  -20.0812  -15.8340 C   0  0  1  0  0  0  0  0  0  0  0  0
   25.1182  -19.2350  -16.4869 C   0  0  0  0  0  0  0  0  0  0  0  0
   25.1539  -19.2852  -17.9577 C   0  0  0  0  0  0  0  0  0  0  0  0
   24.2165  -18.3902  -18.6498 C   0  0  0  0  0  0  0  0  0  0  0  0
   23.4176  -17.6722  -18.0125 O   0  0  0  0  0  0  0  0  0  0  0  0
   27.5428  -19.6752  -16.1232 C   0  0  0  0  0  0  0  0  0  0  0  0
   28.1579  -20.1337  -17.2711 O   0  0  0  0  0  0  0  0  0  0  0  0
   24.1705  -18.2971  -20.0471 O   0  0  0  0  0  0  0  0  0  0  0  0
   28.1688  -18.9289  -15.3562 O   0  0  0  0  0  0  0  0  0  0  0  0
  2  1  1  6
  2  3  1  0
  3  4  1  0
  4  8  1  0
  5  4  2  0
  6  2  1  0
  7  6  2  0
 10  9  1  0
 10 11  1  0
 11 12  1  0
 13 12  1  1
 13 14  1  0
 14  6  1  0
 15 13  1  0
 15 16  2  0
 17 15  1  0
 18 17  1  0
 18 19  1  6
 20 19  1  0
 20 21  1  0
 21 25  1  0
 22 21  2  0
 23 18  1  0
 24 23  1  0
 26 23  2  0
M  END
$$$$
