DME.pdb
     RDKit          3D

 26 25  0  0  1  0  0  0  0  0999 V2000
   16.3748  -13.0785  -11.3078 N   0  0  0  0  0  0  0  0  0  0  0  0
   15.5898  -12.3575  -12.2441 C   0  0  1  0  0  0  0  0  0  0  0  0
   14.3407  -13.1281  -12.5634 C   0  0  0  0  0  0  0  0  0  0  0  0
   14.5778  -14.5417  -12.9422 C   0  0  0  0  0  0  0  0  0  0  0  0
   15.5113  -14.8445  -13.7648 O   0  0  0  0  0  0  0  0  0  0  0  0
   15.3593  -10.9347  -11.9129 C   0  0  0  0  0  0  0  0  0  0  0  0
   14.7738  -10.1840  -12.7383 O   0  0  0  0  0  0  0  0  0  0  0  0
   13.8517  -15.6199  -12.4690 O   0  0  0  0  0  0  0  0  0  0  0  0
   11.8415   -8.4305   -7.8538 C   0  0  0  0  0  0  0  0  0  0  0  0
   13.0914   -7.1573   -7.6413 S   0  0  0  0  0  0  0  0  0  0  0  0
   14.3861   -7.2752   -8.9124 C   0  0  0  0  0  0  0  0  0  0  0  0
   14.5993   -8.7430   -9.2191 C   0  0  0  0  0  0  0  0  0  0  0  0
   15.5743   -8.9769  -10.3331 C   0  0  2  0  0  0  0  0  0  0  0  0
   15.7531  -10.3335  -10.7059 N   0  0  0  0  0  0  0  0  0  0  0  0
   16.8310   -8.2704  -10.0154 C   0  0  0  0  0  0  0  0  0  0  0  0
   17.6122   -8.7650   -9.1785 O   0  0  0  0  0  0  0  0  0  0  0  0
   17.1654   -7.0517  -10.6353 N   0  0  0  0  0  0  0  0  0  0  0  0
   18.4773   -6.3903  -10.3767 C   0  0  1  0  0  0  0  0  0  0  0  0
   19.4179   -6.7366  -11.4835 C   0  0  0  0  0  0  0  0  0  0  0  0
   20.7101   -6.0363  -11.4000 C   0  0  0  0  0  0  0  0  0  0  0  0
   21.6371   -6.2719  -12.5153 C   0  0  0  0  0  0  0  0  0  0  0  0
   22.2198   -5.3244  -13.0833 O   0  0  0  0  0  0  0  0  0  0  0  0
   18.1590   -4.9601  -10.2736 C   0  0  0  0  0  0  0  0  0  0  0  0
   17.0358   -4.4681  -10.9082 O   0  0  0  0  0  0  0  0  0  0  0  0
   21.9122   -7.5593  -12.9952 O   0  0  0  0  0  0  0  0  0  0  0  0
   18.8797   -4.1847   -9.6282 O   0  0  0  0  0  0  0  0  0  0  0  0
  2  1  1  1
  2  3  1  0
  3  4  1  0
  4  8  1  0
  5  4  2  0
  6  2  1  0
  7  6  2  0
 10  9  1  0
 10 11  1  0
 11 12  1  0
 13 12  1  1
 13 14  1  0
 14  6  1  0
 15 13  1  0
 15 16  2  0
 17 15  1  0
 18 17  1  0
 18 19  1  6
 20 19  1  0
 20 21  1  0
 21 25  1  0
 22 21  2  0
 23 18  1  0
 24 23  1  0
 26 23  2  0
M  END
$$$$
