DME.pdb
     RDKit          3D

 26 25  0  0  1  0  0  0  0  0999 V2000
   21.6453  -12.7020  -18.1723 N   0  0  0  0  0  0  0  0  0  0  0  0
   20.8727  -12.2003  -17.0933 C   0  0  1  0  0  0  0  0  0  0  0  0
   20.1858  -13.3340  -16.3871 C   0  0  0  0  0  0  0  0  0  0  0  0
   19.3458  -14.1804  -17.2681 C   0  0  0  0  0  0  0  0  0  0  0  0
   19.2363  -13.9092  -18.5148 O   0  0  0  0  0  0  0  0  0  0  0  0
   21.5774  -11.2609  -16.1945 C   0  0  0  0  0  0  0  0  0  0  0  0
   21.0566  -10.9326  -15.0951 O   0  0  0  0  0  0  0  0  0  0  0  0
   18.6331  -15.2908  -16.8530 O   0  0  0  0  0  0  0  0  0  0  0  0
   28.0888  -12.8209  -15.2113 C   0  0  0  0  0  0  0  0  0  0  0  0
   27.3628  -11.2246  -15.6030 S   0  0  0  0  0  0  0  0  0  0  0  0
   25.5538  -11.2523  -15.4219 C   0  0  0  0  0  0  0  0  0  0  0  0
   25.0357   -9.8683  -15.7535 C   0  0  0  0  0  0  0  0  0  0  0  0
   23.5427   -9.7633  -15.6747 C   0  0  2  0  0  0  0  0  0  0  0  0
   22.8280  -10.6875  -16.4787 N   0  0  0  0  0  0  0  0  0  0  0  0
   23.1574   -8.3548  -15.8914 C   0  0  0  0  0  0  0  0  0  0  0  0
   23.0120   -7.9362  -17.0571 O   0  0  0  0  0  0  0  0  0  0  0  0
   22.9518   -7.4752  -14.8118 N   0  0  0  0  0  0  0  0  0  0  0  0
   22.4027   -6.1052  -15.0281 C   0  0  1  0  0  0  0  0  0  0  0  0
   21.0587   -6.2205  -15.6686 C   0  0  0  0  0  0  0  0  0  0  0  0
   20.3759   -4.9280  -15.8433 C   0  0  0  0  0  0  0  0  0  0  0  0
   19.0391   -4.9892  -16.4499 C   0  0  0  0  0  0  0  0  0  0  0  0
   18.8734   -5.4285  -17.6073 O   0  0  0  0  0  0  0  0  0  0  0  0
   22.3898   -5.4943  -13.6924 C   0  0  0  0  0  0  0  0  0  0  0  0
   22.3336   -4.1196  -13.5762 O   0  0  0  0  0  0  0  0  0  0  0  0
   17.8921   -4.5615  -15.7682 O   0  0  0  0  0  0  0  0  0  0  0  0
   22.4291   -6.1887  -12.6661 O   0  0  0  0  0  0  0  0  0  0  0  0
  2  1  1  6
  2  3  1  0
  3  4  1  0
  4  8  1  0
  5  4  2  0
  6  2  1  0
  7  6  2  0
 10  9  1  0
 10 11  1  0
 11 12  1  0
 13 12  1  6
 13 14  1  0
 14  6  1  0
 15 13  1  0
 15 16  2  0
 17 15  1  0
 18 17  1  0
 18 19  1  1
 20 19  1  0
 20 21  1  0
 21 25  1  0
 22 21  2  0
 23 18  1  0
 24 23  1  0
 26 23  2  0
M  END
$$$$
