DME.pdb
     RDKit          3D

 26 25  0  0  1  0  0  0  0  0999 V2000
   16.2997   -9.6896  -16.1459 N   0  0  0  0  0  0  0  0  0  0  0  0
   17.0414   -8.6260  -15.5703 C   0  0  1  0  0  0  0  0  0  0  0  0
   18.4610   -9.0597  -15.3405 C   0  0  0  0  0  0  0  0  0  0  0  0
   18.5986  -10.2672  -14.4912 C   0  0  0  0  0  0  0  0  0  0  0  0
   19.2061  -11.3044  -14.9329 O   0  0  0  0  0  0  0  0  0  0  0  0
   16.9066   -7.3203  -16.2513 C   0  0  0  0  0  0  0  0  0  0  0  0
   17.0555   -7.2442  -17.5002 O   0  0  0  0  0  0  0  0  0  0  0  0
   18.1099  -10.3880  -13.2029 O   0  0  0  0  0  0  0  0  0  0  0  0
   11.1192   -5.0455  -17.6092 C   0  0  0  0  0  0  0  0  0  0  0  0
   12.4144   -4.2117  -16.6842 S   0  0  0  0  0  0  0  0  0  0  0  0
   14.0336   -4.9949  -16.9503 C   0  0  0  0  0  0  0  0  0  0  0  0
   15.0418   -4.2788  -16.0758 C   0  0  0  0  0  0  0  0  0  0  0  0
   16.4259   -4.8423  -16.1892 C   0  0  2  0  0  0  0  0  0  0  0  0
   16.6118   -6.1152  -15.5922 N   0  0  0  0  0  0  0  0  0  0  0  0
   17.3894   -3.8197  -15.7362 C   0  0  0  0  0  0  0  0  0  0  0  0
   17.7230   -3.7878  -14.5350 O   0  0  0  0  0  0  0  0  0  0  0  0
   17.9381   -2.8806  -16.6297 N   0  0  0  0  0  0  0  0  0  0  0  0
   18.9922   -1.9217  -16.1883 C   0  0  1  0  0  0  0  0  0  0  0  0
   19.6804   -1.3733  -17.3947 C   0  0  0  0  0  0  0  0  0  0  0  0
   20.6754   -0.3336  -17.0844 C   0  0  0  0  0  0  0  0  0  0  0  0
   21.3842    0.2362  -18.2384 C   0  0  0  0  0  0  0  0  0  0  0  0
   22.1154    1.2414  -18.1164 O   0  0  0  0  0  0  0  0  0  0  0  0
   18.2733   -0.9201  -15.3899 C   0  0  0  0  0  0  0  0  0  0  0  0
   18.8979   -0.3460  -14.3006 O   0  0  0  0  0  0  0  0  0  0  0  0
   21.2771   -0.3130  -19.5230 O   0  0  0  0  0  0  0  0  0  0  0  0
   17.1156   -0.5798  -15.6744 O   0  0  0  0  0  0  0  0  0  0  0  0
  2  1  1  6
  2  3  1  0
  3  4  1  0
  4  8  1  0
  5  4  2  0
  6  2  1  0
  7  6  2  0
 10  9  1  0
 10 11  1  0
 11 12  1  0
 13 12  1  1
 13 14  1  0
 14  6  1  0
 15 13  1  0
 15 16  2  0
 17 15  1  0
 18 17  1  0
 18 19  1  6
 20 19  1  0
 20 21  1  0
 21 25  1  0
 22 21  2  0
 23 18  1  0
 24 23  1  0
 26 23  2  0
M  END
$$$$
