DME.pdb
     RDKit          3D

 26 25  0  0  1  0  0  0  0  0999 V2000
   28.1862  -20.1087  -16.3259 N   0  0  0  0  0  0  0  0  0  0  0  0
   27.6065  -21.4028  -16.2804 C   0  0  1  0  0  0  0  0  0  0  0  0
   28.6787  -22.4470  -16.4077 C   0  0  0  0  0  0  0  0  0  0  0  0
   29.4298  -22.3956  -17.6849 C   0  0  0  0  0  0  0  0  0  0  0  0
   29.1041  -21.5558  -18.5951 O   0  0  0  0  0  0  0  0  0  0  0  0
   26.6616  -21.6333  -15.1665 C   0  0  0  0  0  0  0  0  0  0  0  0
   25.9888  -22.6978  -15.1229 O   0  0  0  0  0  0  0  0  0  0  0  0
   30.5028  -23.2079  -18.0048 O   0  0  0  0  0  0  0  0  0  0  0  0
   24.7424  -21.5651   -7.8887 C   0  0  0  0  0  0  0  0  0  0  0  0
   25.8570  -21.0864   -9.2143 S   0  0  0  0  0  0  0  0  0  0  0  0
   24.9493  -20.4086  -10.6365 C   0  0  0  0  0  0  0  0  0  0  0  0
   25.9425  -20.2000  -11.7608 C   0  0  0  0  0  0  0  0  0  0  0  0
   25.5374  -20.8726  -13.0374 C   0  0  2  0  0  0  0  0  0  0  0  0
   26.4497  -20.7278  -14.1135 N   0  0  0  0  0  0  0  0  0  0  0  0
   24.1549  -20.4705  -13.3636 C   0  0  0  0  0  0  0  0  0  0  0  0
   23.9253  -19.2883  -13.6871 O   0  0  0  0  0  0  0  0  0  0  0  0
   23.0916  -21.3918  -13.3163 N   0  0  0  0  0  0  0  0  0  0  0  0
   21.7347  -21.0285  -13.8183 C   0  0  1  0  0  0  0  0  0  0  0  0
   21.2779  -22.0794  -14.7758 C   0  0  0  0  0  0  0  0  0  0  0  0
   19.9176  -21.8555  -15.2923 C   0  0  0  0  0  0  0  0  0  0  0  0
   19.4253  -22.8562  -16.2489 C   0  0  0  0  0  0  0  0  0  0  0  0
   20.0486  -23.9196  -16.4508 O   0  0  0  0  0  0  0  0  0  0  0  0
   20.9103  -20.9078  -12.6086 C   0  0  0  0  0  0  0  0  0  0  0  0
   19.8421  -20.0331  -12.6007 O   0  0  0  0  0  0  0  0  0  0  0  0
   18.2429  -22.6709  -16.9774 O   0  0  0  0  0  0  0  0  0  0  0  0
   21.1550  -21.5757  -11.5932 O   0  0  0  0  0  0  0  0  0  0  0  0
  2  1  1  1
  2  3  1  0
  3  4  1  0
  4  8  1  0
  5  4  2  0
  6  2  1  0
  7  6  2  0
 10  9  1  0
 10 11  1  0
 11 12  1  0
 13 12  1  1
 13 14  1  0
 14  6  1  0
 15 13  1  0
 15 16  2  0
 17 15  1  0
 18 17  1  0
 18 19  1  6
 20 19  1  0
 20 21  1  0
 21 25  1  0
 22 21  2  0
 23 18  1  0
 24 23  1  0
 26 23  2  0
M  END
$$$$
