DME.pdb
     RDKit          3D

 26 25  0  0  1  0  0  0  0  0999 V2000
   28.2701  -22.1055  -16.7888 N   0  0  0  0  0  0  0  0  0  0  0  0
   27.5501  -21.0225  -16.2219 C   0  0  1  0  0  0  0  0  0  0  0  0
   26.9738  -20.1661  -17.3129 C   0  0  0  0  0  0  0  0  0  0  0  0
   27.9783  -19.6385  -18.2673 C   0  0  0  0  0  0  0  0  0  0  0  0
   28.8944  -18.8381  -17.8675 O   0  0  0  0  0  0  0  0  0  0  0  0
   26.5854  -21.3902  -15.1630 C   0  0  0  0  0  0  0  0  0  0  0  0
   25.6841  -22.2381  -15.4005 O   0  0  0  0  0  0  0  0  0  0  0  0
   28.0241  -19.9426  -19.6159 O   0  0  0  0  0  0  0  0  0  0  0  0
   24.7883  -20.9507   -7.3923 C   0  0  0  0  0  0  0  0  0  0  0  0
   25.9240  -20.6669   -8.7553 S   0  0  0  0  0  0  0  0  0  0  0  0
   25.1687  -21.0950  -10.3529 C   0  0  0  0  0  0  0  0  0  0  0  0
   26.1908  -20.8179  -11.4356 C   0  0  0  0  0  0  0  0  0  0  0  0
   25.6987  -21.1538  -12.8108 C   0  0  2  0  0  0  0  0  0  0  0  0
   26.5972  -20.8517  -13.8656 N   0  0  0  0  0  0  0  0  0  0  0  0
   24.3521  -20.5740  -12.9839 C   0  0  0  0  0  0  0  0  0  0  0  0
   24.2374  -19.3458  -13.1666 O   0  0  0  0  0  0  0  0  0  0  0  0
   23.1964  -21.3768  -12.9462 N   0  0  0  0  0  0  0  0  0  0  0  0
   21.8491  -20.8013  -13.2269 C   0  0  1  0  0  0  0  0  0  0  0  0
   21.0148  -21.8368  -13.9061 C   0  0  0  0  0  0  0  0  0  0  0  0
   19.6398  -21.3937  -14.1891 C   0  0  0  0  0  0  0  0  0  0  0  0
   18.7660  -22.3898  -14.8240 C   0  0  0  0  0  0  0  0  0  0  0  0
   17.5922  -22.1094  -15.1455 O   0  0  0  0  0  0  0  0  0  0  0  0
   21.3443  -20.3782  -11.9140 C   0  0  0  0  0  0  0  0  0  0  0  0
   20.4508  -19.3283  -11.8375 O   0  0  0  0  0  0  0  0  0  0  0  0
   19.2002  -23.6935  -15.0984 O   0  0  0  0  0  0  0  0  0  0  0  0
   21.7051  -20.9449  -10.8721 O   0  0  0  0  0  0  0  0  0  0  0  0
  2  1  1  6
  2  3  1  0
  3  4  1  0
  4  8  1  0
  5  4  2  0
  6  2  1  0
  7  6  2  0
 10  9  1  0
 10 11  1  0
 11 12  1  0
 13 12  1  1
 13 14  1  0
 14  6  1  0
 15 13  1  0
 15 16  2  0
 17 15  1  0
 18 17  1  0
 18 19  1  1
 20 19  1  0
 20 21  1  0
 21 25  1  0
 22 21  2  0
 23 18  1  0
 24 23  1  0
 26 23  2  0
M  END
$$$$
