DME.pdb
     RDKit          3D

 26 25  0  0  1  0  0  0  0  0999 V2000
   14.2590  -19.9118    1.4144 N   0  0  0  0  0  0  0  0  0  0  0  0
   13.7387  -20.4213    2.6319 C   0  0  1  0  0  0  0  0  0  0  0  0
   12.5188  -21.2533    2.3570 C   0  0  0  0  0  0  0  0  0  0  0  0
   11.4718  -20.5574    1.5710 C   0  0  0  0  0  0  0  0  0  0  0  0
   11.6765  -19.3757    1.1220 O   0  0  0  0  0  0  0  0  0  0  0  0
   14.7282  -21.0671    3.5211 C   0  0  0  0  0  0  0  0  0  0  0  0
   14.5456  -22.2519    3.9093 O   0  0  0  0  0  0  0  0  0  0  0  0
   10.2328  -21.0878    1.2597 O   0  0  0  0  0  0  0  0  0  0  0  0
   20.8718  -24.9553    3.6705 C   0  0  0  0  0  0  0  0  0  0  0  0
   19.4690  -24.0398    3.0207 S   0  0  0  0  0  0  0  0  0  0  0  0
   18.8120  -22.8680    4.2460 C   0  0  0  0  0  0  0  0  0  0  0  0
   17.6289  -22.1600    3.6193 C   0  0  0  0  0  0  0  0  0  0  0  0
   17.0604  -21.0795    4.4886 C   0  0  2  0  0  0  0  0  0  0  0  0
   15.8995  -20.4425    3.9808 N   0  0  0  0  0  0  0  0  0  0  0  0
   18.1462  -20.1481    4.8531 C   0  0  0  0  0  0  0  0  0  0  0  0
   18.6059  -19.3799    3.9849 O   0  0  0  0  0  0  0  0  0  0  0  0
   18.6735  -20.1092    6.1577 N   0  0  0  0  0  0  0  0  0  0  0  0
   19.6556  -19.0613    6.5607 C   0  0  1  0  0  0  0  0  0  0  0  0
   19.1387  -18.3567    7.7716 C   0  0  0  0  0  0  0  0  0  0  0  0
   20.0695  -17.3521    8.3116 C   0  0  0  0  0  0  0  0  0  0  0  0
   19.6165  -16.6452    9.5174 C   0  0  0  0  0  0  0  0  0  0  0  0
   18.5890  -17.0042   10.1300 O   0  0  0  0  0  0  0  0  0  0  0  0
   20.9128  -19.7910    6.7716 C   0  0  0  0  0  0  0  0  0  0  0  0
   22.1118  -19.1098    6.7022 O   0  0  0  0  0  0  0  0  0  0  0  0
   20.3069  -15.5422   10.0370 O   0  0  0  0  0  0  0  0  0  0  0  0
   20.9192  -21.0075    7.0103 O   0  0  0  0  0  0  0  0  0  0  0  0
  2  1  1  6
  2  3  1  0
  3  4  1  0
  4  8  1  0
  5  4  2  0
  6  2  1  0
  7  6  2  0
 10  9  1  0
 10 11  1  0
 11 12  1  0
 13 12  1  6
 13 14  1  0
 14  6  1  0
 15 13  1  0
 15 16  2  0
 17 15  1  0
 18 17  1  0
 18 19  1  1
 20 19  1  0
 20 21  1  0
 21 25  1  0
 22 21  2  0
 23 18  1  0
 24 23  1  0
 26 23  2  0
M  END
$$$$
