DME.pdb
     RDKit          3D

 26 25  0  0  1  0  0  0  0  0999 V2000
   26.7487  -19.8712  -15.1561 N   0  0  0  0  0  0  0  0  0  0  0  0
   26.0980  -21.1256  -15.0309 C   0  0  1  0  0  0  0  0  0  0  0  0
   26.9080  -22.1910  -15.7125 C   0  0  0  0  0  0  0  0  0  0  0  0
   27.2187  -21.9038  -17.1335 C   0  0  0  0  0  0  0  0  0  0  0  0
   26.8351  -20.8071  -17.6720 O   0  0  0  0  0  0  0  0  0  0  0  0
   25.6592  -21.4763  -13.6629 C   0  0  0  0  0  0  0  0  0  0  0  0
   25.7600  -22.6644  -13.2555 O   0  0  0  0  0  0  0  0  0  0  0  0
   27.9184  -22.7482  -17.9765 O   0  0  0  0  0  0  0  0  0  0  0  0
   25.9544  -19.7113   -6.1384 C   0  0  0  0  0  0  0  0  0  0  0  0
   26.1241  -19.2385   -7.8635 S   0  0  0  0  0  0  0  0  0  0  0  0
   25.1900  -20.3526   -8.9553 C   0  0  0  0  0  0  0  0  0  0  0  0
   25.4994  -19.9633  -10.3858 C   0  0  0  0  0  0  0  0  0  0  0  0
   24.7768  -20.8034  -11.3949 C   0  0  2  0  0  0  0  0  0  0  0  0
   25.1225  -20.5554  -12.7477 N   0  0  0  0  0  0  0  0  0  0  0  0
   23.3281  -20.7265  -11.1212 C   0  0  0  0  0  0  0  0  0  0  0  0
   22.6357  -19.8929  -11.7384 O   0  0  0  0  0  0  0  0  0  0  0  0
   22.7128  -21.5721  -10.1790 N   0  0  0  0  0  0  0  0  0  0  0  0
   21.2324  -21.5729   -9.9956 C   0  0  1  0  0  0  0  0  0  0  0  0
   20.8846  -22.5119   -8.8877 C   0  0  0  0  0  0  0  0  0  0  0  0
   19.4402  -22.5933   -8.6153 C   0  0  0  0  0  0  0  0  0  0  0  0
   19.0428  -23.5264   -7.5522 C   0  0  0  0  0  0  0  0  0  0  0  0
   19.8956  -24.1599   -6.8954 O   0  0  0  0  0  0  0  0  0  0  0  0
   20.8891  -20.1690   -9.7335 C   0  0  0  0  0  0  0  0  0  0  0  0
   19.7560  -19.6294  -10.3090 O   0  0  0  0  0  0  0  0  0  0  0  0
   17.6995  -23.7521   -7.2239 O   0  0  0  0  0  0  0  0  0  0  0  0
   21.5974  -19.4578   -9.0058 O   0  0  0  0  0  0  0  0  0  0  0  0
  2  1  1  1
  2  3  1  0
  3  4  1  0
  4  8  1  0
  5  4  2  0
  6  2  1  0
  7  6  2  0
 10  9  1  0
 10 11  1  0
 11 12  1  0
 13 12  1  1
 13 14  1  0
 14  6  1  0
 15 13  1  0
 15 16  2  0
 17 15  1  0
 18 17  1  0
 18 19  1  1
 20 19  1  0
 20 21  1  0
 21 25  1  0
 22 21  2  0
 23 18  1  0
 24 23  1  0
 26 23  2  0
M  END
$$$$
