DME.pdb
     RDKit          3D

 26 25  0  0  1  0  0  0  0  0999 V2000
   22.0846  -12.5090  -18.8362 N   0  0  0  0  0  0  0  0  0  0  0  0
   21.2056  -12.2345  -17.7571 C   0  0  1  0  0  0  0  0  0  0  0  0
   20.6440  -13.5186  -17.2170 C   0  0  0  0  0  0  0  0  0  0  0  0
   19.9972  -14.3771  -18.2382 C   0  0  0  0  0  0  0  0  0  0  0  0
   19.6039  -13.8779  -19.3498 O   0  0  0  0  0  0  0  0  0  0  0  0
   21.7395  -11.3214  -16.7235 C   0  0  0  0  0  0  0  0  0  0  0  0
   21.1171  -11.1669  -15.6389 O   0  0  0  0  0  0  0  0  0  0  0  0
   19.7659  -15.7338  -18.0994 O   0  0  0  0  0  0  0  0  0  0  0  0
   28.2190  -12.3590  -15.2161 C   0  0  0  0  0  0  0  0  0  0  0  0
   27.3899  -10.8061  -15.5765 S   0  0  0  0  0  0  0  0  0  0  0  0
   25.5817  -10.9963  -15.5607 C   0  0  0  0  0  0  0  0  0  0  0  0
   24.9727   -9.6418  -15.8575 C   0  0  0  0  0  0  0  0  0  0  0  0
   23.4758   -9.6707  -15.9260 C   0  0  2  0  0  0  0  0  0  0  0  0
   22.9305  -10.5888  -16.8594 N   0  0  0  0  0  0  0  0  0  0  0  0
   22.9847   -8.2878  -16.0864 C   0  0  0  0  0  0  0  0  0  0  0  0
   23.0977   -7.7266  -17.1943 O   0  0  0  0  0  0  0  0  0  0  0  0
   22.3933   -7.5898  -15.0165 N   0  0  0  0  0  0  0  0  0  0  0  0
   21.8207   -6.2259  -15.2093 C   0  0  1  0  0  0  0  0  0  0  0  0
   20.3413   -6.3436  -15.3751 C   0  0  0  0  0  0  0  0  0  0  0  0
   19.6478   -5.0458  -15.4195 C   0  0  0  0  0  0  0  0  0  0  0  0
   18.1801   -5.1070  -15.4486 C   0  0  0  0  0  0  0  0  0  0  0  0
   17.5680   -5.4672  -16.4760 O   0  0  0  0  0  0  0  0  0  0  0  0
   22.2418   -5.4739  -14.0199 C   0  0  0  0  0  0  0  0  0  0  0  0
   22.5793   -6.1586  -12.8694 O   0  0  0  0  0  0  0  0  0  0  0  0
   17.3988   -4.7673  -14.3362 O   0  0  0  0  0  0  0  0  0  0  0  0
   22.2998   -4.2355  -14.0281 O   0  0  0  0  0  0  0  0  0  0  0  0
  2  1  1  6
  2  3  1  0
  3  4  1  0
  4  8  1  0
  5  4  2  0
  6  2  1  0
  7  6  2  0
 10  9  1  0
 10 11  1  0
 11 12  1  0
 13 12  1  6
 13 14  1  0
 14  6  1  0
 15 13  1  0
 15 16  2  0
 17 15  1  0
 18 17  1  0
 18 19  1  1
 20 19  1  0
 20 21  1  0
 21 25  1  0
 22 21  2  0
 23 18  1  0
 24 23  1  0
 26 23  2  0
M  END
$$$$
