DME.pdb
     RDKit          3D

 26 25  0  0  1  0  0  0  0  0999 V2000
   13.1861  -22.7267    1.2269 N   0  0  0  0  0  0  0  0  0  0  0  0
   14.4480  -22.9801    1.8236 C   0  0  1  0  0  0  0  0  0  0  0  0
   15.2586  -23.8837    0.9391 C   0  0  0  0  0  0  0  0  0  0  0  0
   15.1746  -25.3202    1.2960 C   0  0  0  0  0  0  0  0  0  0  0  0
   14.4696  -25.6996    2.2955 O   0  0  0  0  0  0  0  0  0  0  0  0
   15.1740  -21.7828    2.2994 C   0  0  0  0  0  0  0  0  0  0  0  0
   15.2611  -20.7657    1.5608 O   0  0  0  0  0  0  0  0  0  0  0  0
   15.8163  -26.3422    0.6198 O   0  0  0  0  0  0  0  0  0  0  0  0
   13.5610  -15.8631    2.6983 C   0  0  0  0  0  0  0  0  0  0  0  0
   13.5505  -17.3066    3.7682 S   0  0  0  0  0  0  0  0  0  0  0  0
   15.0059  -18.3586    3.4830 C   0  0  0  0  0  0  0  0  0  0  0  0
   14.9003  -19.5530    4.4082 C   0  0  0  0  0  0  0  0  0  0  0  0
   16.0572  -20.4979    4.2854 C   0  0  2  0  0  0  0  0  0  0  0  0
   15.7937  -21.6855    3.5563 N   0  0  0  0  0  0  0  0  0  0  0  0
   16.6200  -20.7307    5.6301 C   0  0  0  0  0  0  0  0  0  0  0  0
   16.1490  -21.6437    6.3371 O   0  0  0  0  0  0  0  0  0  0  0  0
   17.6750  -19.9447    6.1309 N   0  0  0  0  0  0  0  0  0  0  0  0
   18.2449  -20.1938    7.4868 C   0  0  1  0  0  0  0  0  0  0  0  0
   19.5874  -19.5457    7.5717 C   0  0  0  0  0  0  0  0  0  0  0  0
   20.1612  -19.5532    8.9274 C   0  0  0  0  0  0  0  0  0  0  0  0
   21.4443  -18.8540    9.0814 C   0  0  0  0  0  0  0  0  0  0  0  0
   22.0007  -18.7612   10.1957 O   0  0  0  0  0  0  0  0  0  0  0  0
   17.2463  -19.6490    8.4160 C   0  0  0  0  0  0  0  0  0  0  0  0
   16.4610  -18.5847    8.0197 O   0  0  0  0  0  0  0  0  0  0  0  0
   22.1033  -18.2606    7.9966 O   0  0  0  0  0  0  0  0  0  0  0  0
   17.0944  -20.1256    9.5504 O   0  0  0  0  0  0  0  0  0  0  0  0
  2  1  1  6
  2  3  1  0
  3  4  1  0
  4  8  1  0
  5  4  2  0
  6  2  1  0
  7  6  2  0
 10  9  1  0
 10 11  1  0
 11 12  1  0
 13 12  1  1
 13 14  1  0
 14  6  1  0
 15 13  1  0
 15 16  2  0
 17 15  1  0
 18 17  1  0
 18 19  1  6
 20 19  1  0
 20 21  1  0
 21 25  1  0
 22 21  2  0
 23 18  1  0
 24 23  1  0
 26 23  2  0
M  END
$$$$
