DME.pdb
     RDKit          3D

 26 25  0  0  1  0  0  0  0  0999 V2000
   22.3515  -15.0218  -17.5179 N   0  0  0  0  0  0  0  0  0  0  0  0
   22.1762  -13.6997  -18.0016 C   0  0  1  0  0  0  0  0  0  0  0  0
   20.8159  -13.5597  -18.6228 C   0  0  0  0  0  0  0  0  0  0  0  0
   20.4976  -14.5987  -19.6314 C   0  0  0  0  0  0  0  0  0  0  0  0
   21.1560  -14.6608  -20.7280 O   0  0  0  0  0  0  0  0  0  0  0  0
   22.5221  -12.6258  -17.0454 C   0  0  0  0  0  0  0  0  0  0  0  0
   21.8531  -12.4874  -15.9866 O   0  0  0  0  0  0  0  0  0  0  0  0
   19.5084  -15.5560  -19.4958 O   0  0  0  0  0  0  0  0  0  0  0  0
   28.7555  -12.3846  -14.4600 C   0  0  0  0  0  0  0  0  0  0  0  0
   27.8574  -11.1632  -15.4244 S   0  0  0  0  0  0  0  0  0  0  0  0
   26.0875  -11.5663  -15.5291 C   0  0  0  0  0  0  0  0  0  0  0  0
   25.3879  -10.4017  -16.1986 C   0  0  0  0  0  0  0  0  0  0  0  0
   23.9185  -10.6273  -16.3889 C   0  0  2  0  0  0  0  0  0  0  0  0
   23.5776  -11.7174  -17.2297 N   0  0  0  0  0  0  0  0  0  0  0  0
   23.2923   -9.3487  -16.7793 C   0  0  0  0  0  0  0  0  0  0  0  0
   23.1955   -9.0630  -17.9893 O   0  0  0  0  0  0  0  0  0  0  0  0
   22.8037   -8.4459  -15.8160 N   0  0  0  0  0  0  0  0  0  0  0  0
   21.9053   -7.3193  -16.2019 C   0  0  1  0  0  0  0  0  0  0  0  0
   20.7199   -7.8732  -16.9217 C   0  0  0  0  0  0  0  0  0  0  0  0
   19.6511   -6.8857  -17.1447 C   0  0  0  0  0  0  0  0  0  0  0  0
   18.3971   -7.4162  -17.6967 C   0  0  0  0  0  0  0  0  0  0  0  0
   17.9392   -6.9974  -18.7806 O   0  0  0  0  0  0  0  0  0  0  0  0
   21.5882   -6.6458  -14.9356 C   0  0  0  0  0  0  0  0  0  0  0  0
   20.9696   -5.4117  -14.9606 O   0  0  0  0  0  0  0  0  0  0  0  0
   17.6569   -8.4094  -17.0418 O   0  0  0  0  0  0  0  0  0  0  0  0
   21.8656   -7.1634  -13.8437 O   0  0  0  0  0  0  0  0  0  0  0  0
  2  1  1  1
  2  3  1  0
  3  4  1  0
  4  8  1  0
  5  4  2  0
  6  2  1  0
  7  6  2  0
 10  9  1  0
 10 11  1  0
 11 12  1  0
 13 12  1  6
 13 14  1  0
 14  6  1  0
 15 13  1  0
 15 16  2  0
 17 15  1  0
 18 17  1  0
 18 19  1  1
 20 19  1  0
 20 21  1  0
 21 25  1  0
 22 21  2  0
 23 18  1  0
 24 23  1  0
 26 23  2  0
M  END
$$$$
