DME.pdb
     RDKit          3D

 26 25  0  0  1  0  0  0  0  0999 V2000
   21.1077  -33.7059  -15.2540 N   0  0  0  0  0  0  0  0  0  0  0  0
   22.0072  -34.7301  -15.6472 C   0  0  1  0  0  0  0  0  0  0  0  0
   22.3521  -34.5759  -17.1009 C   0  0  0  0  0  0  0  0  0  0  0  0
   21.2133  -34.7993  -18.0237 C   0  0  0  0  0  0  0  0  0  0  0  0
   21.2563  -34.3578  -19.2250 O   0  0  0  0  0  0  0  0  0  0  0  0
   23.1759  -34.9194  -14.7611 C   0  0  0  0  0  0  0  0  0  0  0  0
   24.0251  -35.8128  -15.0229 O   0  0  0  0  0  0  0  0  0  0  0  0
   20.0502  -35.4726  -17.6962 O   0  0  0  0  0  0  0  0  0  0  0  0
   28.3381  -33.4781  -15.9410 C   0  0  0  0  0  0  0  0  0  0  0  0
   28.1940  -32.4221  -14.4944 S   0  0  0  0  0  0  0  0  0  0  0  0
   27.0657  -33.1338  -13.2590 C   0  0  0  0  0  0  0  0  0  0  0  0
   25.6915  -33.2274  -13.8889 C   0  0  0  0  0  0  0  0  0  0  0  0
   24.6847  -33.9047  -13.0092 C   0  0  2  0  0  0  0  0  0  0  0  0
   23.4245  -34.1520  -13.6110 N   0  0  0  0  0  0  0  0  0  0  0  0
   24.6063  -33.1704  -11.7309 C   0  0  0  0  0  0  0  0  0  0  0  0
   24.0521  -32.0536  -11.7038 O   0  0  0  0  0  0  0  0  0  0  0  0
   25.1440  -33.7028  -10.5439 N   0  0  0  0  0  0  0  0  0  0  0  0
   24.9413  -33.0209   -9.2327 C   0  0  1  0  0  0  0  0  0  0  0  0
   25.2473  -33.9862   -8.1353 C   0  0  0  0  0  0  0  0  0  0  0  0
   25.1030  -33.4118   -6.7875 C   0  0  0  0  0  0  0  0  0  0  0  0
   25.4336  -34.3096   -5.6724 C   0  0  0  0  0  0  0  0  0  0  0  0
   25.7140  -35.5105   -5.8701 O   0  0  0  0  0  0  0  0  0  0  0  0
   25.8295  -31.8520   -9.2801 C   0  0  0  0  0  0  0  0  0  0  0  0
   26.9697  -31.8979  -10.0574 O   0  0  0  0  0  0  0  0  0  0  0  0
   25.4507  -33.8693   -4.3423 O   0  0  0  0  0  0  0  0  0  0  0  0
   25.5761  -30.8240   -8.6350 O   0  0  0  0  0  0  0  0  0  0  0  0
  2  1  1  1
  2  3  1  0
  3  4  1  0
  4  8  1  0
  5  4  2  0
  6  2  1  0
  7  6  2  0
 10  9  1  0
 10 11  1  0
 11 12  1  0
 13 12  1  6
 13 14  1  0
 14  6  1  0
 15 13  1  0
 15 16  2  0
 17 15  1  0
 18 17  1  0
 18 19  1  1
 20 19  1  0
 20 21  1  0
 21 25  1  0
 22 21  2  0
 23 18  1  0
 24 23  1  0
 26 23  2  0
M  END
$$$$
