DME.pdb
     RDKit          3D

 26 25  0  0  1  0  0  0  0  0999 V2000
   20.4298  -15.0884  -17.1025 N   0  0  0  0  0  0  0  0  0  0  0  0
   20.6604  -13.8919  -17.8290 C   0  0  1  0  0  0  0  0  0  0  0  0
   19.5033  -13.6215  -18.7476 C   0  0  0  0  0  0  0  0  0  0  0  0
   19.1572  -14.7538  -19.6400 C   0  0  0  0  0  0  0  0  0  0  0  0
   17.9410  -15.1363  -19.7598 O   0  0  0  0  0  0  0  0  0  0  0  0
   21.0765  -12.7289  -17.0157 C   0  0  0  0  0  0  0  0  0  0  0  0
   20.3091  -12.2791  -16.1232 O   0  0  0  0  0  0  0  0  0  0  0  0
   20.0667  -15.4733  -20.3940 O   0  0  0  0  0  0  0  0  0  0  0  0
   27.3970  -10.0434  -16.6069 C   0  0  0  0  0  0  0  0  0  0  0  0
   26.5439  -10.0476  -15.0255 S   0  0  0  0  0  0  0  0  0  0  0  0
   24.7460   -9.8784  -15.2374 C   0  0  0  0  0  0  0  0  0  0  0  0
   24.2769  -11.0135  -16.1235 C   0  0  0  0  0  0  0  0  0  0  0  0
   22.7979  -10.9999  -16.3655 C   0  0  2  0  0  0  0  0  0  0  0  0
   22.3054  -12.0644  -17.1628 N   0  0  0  0  0  0  0  0  0  0  0  0
   22.4118   -9.6593  -16.8481 C   0  0  0  0  0  0  0  0  0  0  0  0
   22.8070   -9.2786  -17.9679 O   0  0  0  0  0  0  0  0  0  0  0  0
   21.6089   -8.8024  -16.0718 N   0  0  0  0  0  0  0  0  0  0  0  0
   21.2440   -7.4396  -16.5566 C   0  0  1  0  0  0  0  0  0  0  0  0
   20.0531   -6.9599  -15.7941 C   0  0  0  0  0  0  0  0  0  0  0  0
   19.7031   -5.5566  -16.0688 C   0  0  0  0  0  0  0  0  0  0  0  0
   18.5676   -5.0208  -15.3056 C   0  0  0  0  0  0  0  0  0  0  0  0
   17.9762   -5.7154  -14.4525 O   0  0  0  0  0  0  0  0  0  0  0  0
   22.4577   -6.6365  -16.3580 C   0  0  0  0  0  0  0  0  0  0  0  0
   23.2302   -6.8427  -15.2323 O   0  0  0  0  0  0  0  0  0  0  0  0
   18.0937   -3.7157  -15.4941 O   0  0  0  0  0  0  0  0  0  0  0  0
   22.8025   -5.7760  -17.1812 O   0  0  0  0  0  0  0  0  0  0  0  0
  2  1  1  1
  2  3  1  0
  3  4  1  0
  4  8  1  0
  5  4  2  0
  6  2  1  0
  7  6  2  0
 10  9  1  0
 10 11  1  0
 11 12  1  0
 13 12  1  6
 13 14  1  0
 14  6  1  0
 15 13  1  0
 15 16  2  0
 17 15  1  0
 18 17  1  0
 18 19  1  1
 20 19  1  0
 20 21  1  0
 21 25  1  0
 22 21  2  0
 23 18  1  0
 24 23  1  0
 26 23  2  0
M  END
$$$$
