DME.pdb
     RDKit          3D

 26 25  0  0  1  0  0  0  0  0999 V2000
   31.6530   -9.8856  -19.0671 N   0  0  0  0  0  0  0  0  0  0  0  0
   31.0797   -8.9694  -18.1481 C   0  0  1  0  0  0  0  0  0  0  0  0
   29.6712   -9.3814  -17.8283 C   0  0  0  0  0  0  0  0  0  0  0  0
   28.8272   -9.6397  -19.0195 C   0  0  0  0  0  0  0  0  0  0  0  0
   29.0114   -8.9781  -20.1003 O   0  0  0  0  0  0  0  0  0  0  0  0
   31.9080   -8.6617  -16.9623 C   0  0  0  0  0  0  0  0  0  0  0  0
   31.4758   -7.8711  -16.0815 O   0  0  0  0  0  0  0  0  0  0  0  0
   27.8086  -10.5737  -19.0798 O   0  0  0  0  0  0  0  0  0  0  0  0
   38.0790  -10.7851  -12.4056 C   0  0  0  0  0  0  0  0  0  0  0  0
   37.0084  -11.0705  -13.8200 S   0  0  0  0  0  0  0  0  0  0  0  0
   35.8942   -9.6627  -14.1077 C   0  0  0  0  0  0  0  0  0  0  0  0
   35.0455   -9.9862  -15.3197 C   0  0  0  0  0  0  0  0  0  0  0  0
   34.0432   -8.9187  -15.6394 C   0  0  2  0  0  0  0  0  0  0  0  0
   33.1833   -9.2034  -16.7307 N   0  0  0  0  0  0  0  0  0  0  0  0
   34.7500   -7.6275  -15.7523 C   0  0  0  0  0  0  0  0  0  0  0  0
   35.3390   -7.3472  -16.8151 O   0  0  0  0  0  0  0  0  0  0  0  0
   34.7739   -6.7078  -14.6869 N   0  0  0  0  0  0  0  0  0  0  0  0
   35.3795   -5.3544  -14.8509 C   0  0  1  0  0  0  0  0  0  0  0  0
   34.3341   -4.3229  -14.5807 C   0  0  0  0  0  0  0  0  0  0  0  0
   34.8283   -2.9403  -14.6881 C   0  0  0  0  0  0  0  0  0  0  0  0
   33.8511   -1.8874  -14.3794 C   0  0  0  0  0  0  0  0  0  0  0  0
   32.7594   -2.1573  -13.8360 O   0  0  0  0  0  0  0  0  0  0  0  0
   36.5094   -5.3361  -13.9126 C   0  0  0  0  0  0  0  0  0  0  0  0
   37.5749   -4.4911  -14.1511 O   0  0  0  0  0  0  0  0  0  0  0  0
   34.0909   -0.5393  -14.6763 O   0  0  0  0  0  0  0  0  0  0  0  0
   36.5259   -6.0652  -12.9100 O   0  0  0  0  0  0  0  0  0  0  0  0
  2  1  1  1
  2  3  1  0
  3  4  1  0
  4  8  1  0
  5  4  2  0
  6  2  1  0
  7  6  2  0
 10  9  1  0
 10 11  1  0
 11 12  1  0
 13 12  1  6
 13 14  1  0
 14  6  1  0
 15 13  1  0
 15 16  2  0
 17 15  1  0
 18 17  1  0
 18 19  1  1
 20 19  1  0
 20 21  1  0
 21 25  1  0
 22 21  2  0
 23 18  1  0
 24 23  1  0
 26 23  2  0
M  END
$$$$
