NKM.pdb
     RDKit          3D

 26 25  0  0  1  0  0  0  0  0999 V2000
    7.2013  -12.3901   17.3829 N   0  0  0  0  0  0  0  0  0  0  0  0
    7.8459  -13.5118   18.0173 C   0  0  0  0  0  0  0  0  0  0  0  0
    8.3631  -14.3966   17.3071 O   0  0  0  0  0  0  0  0  0  0  0  0
    7.8463  -13.5300   19.4856 C   0  0  0  0  0  0  0  0  0  0  0  0
    8.8295  -14.5129   20.0740 C   0  0  2  0  0  0  0  0  0  0  0  0
    9.0771  -15.5061   19.0460 N   0  0  0  0  0  0  0  0  0  0  0  0
    8.2786  -15.0919   21.2992 C   0  0  0  0  0  0  0  0  0  0  0  0
    7.8133  -14.3939   22.2289 O   0  0  0  0  0  0  0  0  0  0  0  0
    8.2338  -16.5271   21.5214 N   0  0  0  0  0  0  0  0  0  0  0  0
    7.7727  -17.0707   22.7399 C   0  0  1  0  0  0  0  0  0  0  0  0
    7.5410  -18.5188   22.8694 C   0  0  0  0  0  0  0  0  0  0  0  0
    7.0794  -19.1252   24.1188 C   0  0  0  0  0  0  0  0  0  0  0  0
    6.8194  -20.5971   24.1470 C   0  0  0  0  0  0  0  0  0  0  0  0
    6.3964  -21.0384   25.5566 C   0  0  0  0  0  0  0  0  0  0  0  0
    6.1383  -22.4440   25.6288 N   0  0  0  0  0  0  0  0  0  0  0  0
    8.5321  -16.5354   23.9318 C   0  0  0  0  0  0  0  0  0  0  0  0
    9.7847  -16.5833   23.8314 O   0  0  0  0  0  0  0  0  0  0  0  0
    6.4613  -10.3001   25.9722 C   0  0  0  0  0  0  0  0  0  0  0  0
    6.4042  -11.9532   26.7634 S   0  0  0  0  0  0  0  0  0  0  0  0
    7.7083  -13.0072   26.2726 C   0  0  0  0  0  0  0  0  0  0  0  0
    7.9145  -14.3548   26.7871 C   0  0  0  0  0  0  0  0  0  0  0  0
    8.7218  -15.3951   26.1164 C   0  0  2  0  0  0  0  0  0  0  0  0
    7.8644  -16.0293   25.0555 N   0  0  0  0  0  0  0  0  0  0  0  0
    9.0441  -16.5727   27.0083 C   0  0  0  0  0  0  0  0  0  0  0  0
    9.9065  -16.4564   27.9430 O   0  0  0  0  0  0  0  0  0  0  0  0
    8.4514  -17.7668   26.8570 O   0  0  0  0  0  0  0  0  0  0  0  0
  1  2  1  0
  2  4  1  0
  2  3  2  0
  5  4  1  0
  5  6  1  6
  7  5  1  0
  7  9  1  0
  8  7  2  0
 10 11  1  6
 10  9  1  0
 10 16  1  0
 11 12  1  0
 12 13  1  0
 13 14  1  0
 14 15  1  0
 16 23  1  0
 17 16  2  0
 19 20  1  0
 19 18  1  0
 21 20  1  0
 22 21  1  1
 23 22  1  0
 24 22  1  0
 24 26  1  0
 25 24  2  0
M  END
$$$$
