NKM.pdb
     RDKit          3D

 26 25  0  0  1  0  0  0  0  0999 V2000
   13.7170  -13.9932   17.0382 N   0  0  0  0  0  0  0  0  0  0  0  0
   14.1967  -14.1622   18.3863 C   0  0  0  0  0  0  0  0  0  0  0  0
   15.4163  -14.0432   18.6167 O   0  0  0  0  0  0  0  0  0  0  0  0
   13.1914  -14.4685   19.4119 C   0  0  0  0  0  0  0  0  0  0  0  0
   13.4607  -15.7566   20.1515 C   0  0  2  0  0  0  0  0  0  0  0  0
   13.3493  -16.8200   19.1711 N   0  0  0  0  0  0  0  0  0  0  0  0
   12.5115  -15.9025   21.2549 C   0  0  0  0  0  0  0  0  0  0  0  0
   12.2640  -14.9781   22.0626 O   0  0  0  0  0  0  0  0  0  0  0  0
   11.7863  -17.1395   21.4898 N   0  0  0  0  0  0  0  0  0  0  0  0
   10.8263  -17.2476   22.5191 C   0  0  1  0  0  0  0  0  0  0  0  0
    9.8548  -18.3538   22.5187 C   0  0  0  0  0  0  0  0  0  0  0  0
    9.2245  -18.8365   21.2892 C   0  0  0  0  0  0  0  0  0  0  0  0
    9.3435  -20.2864   20.9453 C   0  0  0  0  0  0  0  0  0  0  0  0
    8.6228  -20.5828   19.6211 C   0  0  0  0  0  0  0  0  0  0  0  0
    8.6433  -21.9756   19.2939 N   0  0  0  0  0  0  0  0  0  0  0  0
   11.4314  -17.0592   23.8911 C   0  0  0  0  0  0  0  0  0  0  0  0
   11.9228  -18.0967   24.4043 O   0  0  0  0  0  0  0  0  0  0  0  0
   10.4282  -13.5466   29.8222 C   0  0  0  0  0  0  0  0  0  0  0  0
    9.1276  -13.5745   28.5299 S   0  0  0  0  0  0  0  0  0  0  0  0
    9.1982  -14.9834   27.4992 C   0  0  0  0  0  0  0  0  0  0  0  0
    9.9145  -15.0398   26.2315 C   0  0  0  0  0  0  0  0  0  0  0  0
   11.1579  -15.8051   26.0033 C   0  0  2  0  0  0  0  0  0  0  0  0
   11.4303  -15.8085   24.5239 N   0  0  0  0  0  0  0  0  0  0  0  0
   11.0179  -17.2807   26.3023 C   0  0  0  0  0  0  0  0  0  0  0  0
   11.6983  -17.8154   27.2415 O   0  0  0  0  0  0  0  0  0  0  0  0
   10.1914  -18.0755   25.6059 O   0  0  0  0  0  0  0  0  0  0  0  0
  1  2  1  0
  2  4  1  0
  2  3  2  0
  5  4  1  0
  5  6  1  6
  7  5  1  0
  7  9  1  0
  8  7  2  0
 10 11  1  1
 10  9  1  0
 10 16  1  0
 11 12  1  0
 12 13  1  0
 13 14  1  0
 14 15  1  0
 16 23  1  0
 17 16  2  0
 19 20  1  0
 19 18  1  0
 21 20  1  0
 22 21  1  6
 23 22  1  0
 24 22  1  0
 24 26  1  0
 25 24  2  0
M  END
$$$$
