NKM.pdb
     RDKit          3D

 26 25  0  0  1  0  0  0  0  0999 V2000
    9.4602  -13.8321   16.6764 N   0  0  0  0  0  0  0  0  0  0  0  0
    8.0997  -13.4830   16.9979 C   0  0  0  0  0  0  0  0  0  0  0  0
    7.4191  -12.8571   16.1613 O   0  0  0  0  0  0  0  0  0  0  0  0
    7.6044  -13.8995   18.3160 C   0  0  0  0  0  0  0  0  0  0  0  0
    8.6670  -14.5247   19.1871 C   0  0  2  0  0  0  0  0  0  0  0  0
    9.3491  -15.5017   18.3595 N   0  0  0  0  0  0  0  0  0  0  0  0
    8.0497  -15.1194   20.3724 C   0  0  0  0  0  0  0  0  0  0  0  0
    7.3054  -14.4735   21.1451 O   0  0  0  0  0  0  0  0  0  0  0  0
    8.2602  -16.5104   20.7357 N   0  0  0  0  0  0  0  0  0  0  0  0
    7.6942  -17.0608   21.9061 C   0  0  1  0  0  0  0  0  0  0  0  0
    7.4665  -18.5114   22.0125 C   0  0  0  0  0  0  0  0  0  0  0  0
    7.0396  -19.3188   20.8689 C   0  0  0  0  0  0  0  0  0  0  0  0
    6.9779  -20.8043   21.0247 C   0  0  0  0  0  0  0  0  0  0  0  0
    6.6043  -21.4668   19.6897 C   0  0  0  0  0  0  0  0  0  0  0  0
    6.6094  -22.8952   19.7744 N   0  0  0  0  0  0  0  0  0  0  0  0
    8.3348  -16.5198   23.1633 C   0  0  0  0  0  0  0  0  0  0  0  0
    9.5529  -16.2258   23.0572 O   0  0  0  0  0  0  0  0  0  0  0  0
    7.4777  -10.9194   28.2726 C   0  0  0  0  0  0  0  0  0  0  0  0
    7.4237  -11.8341   26.6843 S   0  0  0  0  0  0  0  0  0  0  0  0
    7.1573  -13.5501   26.8760 C   0  0  0  0  0  0  0  0  0  0  0  0
    7.0735  -14.4977   25.7722 C   0  0  0  0  0  0  0  0  0  0  0  0
    8.1618  -15.4109   25.3654 C   0  0  2  0  0  0  0  0  0  0  0  0
    7.6024  -16.3681   24.3487 N   0  0  0  0  0  0  0  0  0  0  0  0
    8.6053  -16.3450   26.4686 C   0  0  0  0  0  0  0  0  0  0  0  0
    8.0536  -17.4885   26.6057 O   0  0  0  0  0  0  0  0  0  0  0  0
    9.5763  -16.0175   27.3347 O   0  0  0  0  0  0  0  0  0  0  0  0
  1  2  1  0
  2  4  1  0
  2  3  2  0
  5  4  1  0
  5  6  1  6
  7  5  1  0
  7  9  1  0
  8  7  2  0
 10 11  1  6
 10  9  1  0
 10 16  1  0
 11 12  1  0
 12 13  1  0
 13 14  1  0
 14 15  1  0
 16 23  1  0
 17 16  2  0
 19 20  1  0
 19 18  1  0
 21 20  1  0
 22 21  1  1
 23 22  1  0
 24 22  1  0
 24 26  1  0
 25 24  2  0
M  END
$$$$
