NKM.pdb
     RDKit          3D

 26 25  0  0  1  0  0  0  0  0999 V2000
   15.1073  -13.8241   17.3560 N   0  0  0  0  0  0  0  0  0  0  0  0
   15.0240  -14.6792   18.5127 C   0  0  0  0  0  0  0  0  0  0  0  0
   15.8732  -15.5795   18.6651 O   0  0  0  0  0  0  0  0  0  0  0  0
   13.9210  -14.4214   19.4471 C   0  0  0  0  0  0  0  0  0  0  0  0
   13.3426  -15.6764   20.0549 C   0  0  2  0  0  0  0  0  0  0  0  0
   12.6951  -16.3922   18.9719 N   0  0  0  0  0  0  0  0  0  0  0  0
   12.4186  -15.3248   21.1330 C   0  0  0  0  0  0  0  0  0  0  0  0
   12.7669  -14.6559   22.1327 O   0  0  0  0  0  0  0  0  0  0  0  0
   11.0237  -15.7311   21.1162 N   0  0  0  0  0  0  0  0  0  0  0  0
   10.1233  -15.3190   22.1224 C   0  0  1  0  0  0  0  0  0  0  0  0
    8.6882  -15.1782   21.8258 C   0  0  0  0  0  0  0  0  0  0  0  0
    8.1774  -14.1485   20.9198 C   0  0  0  0  0  0  0  0  0  0  0  0
    8.0791  -14.4628   19.4616 C   0  0  0  0  0  0  0  0  0  0  0  0
    7.6177  -13.2245   18.6777 C   0  0  0  0  0  0  0  0  0  0  0  0
    7.6599  -13.4331   17.2628 N   0  0  0  0  0  0  0  0  0  0  0  0
   10.3373  -16.0586   23.4228 C   0  0  0  0  0  0  0  0  0  0  0  0
   10.8564  -17.1983   23.3089 O   0  0  0  0  0  0  0  0  0  0  0  0
    9.7006  -13.0098   29.3883 C   0  0  0  0  0  0  0  0  0  0  0  0
   10.5260  -14.6031   29.7654 S   0  0  0  0  0  0  0  0  0  0  0  0
   10.5421  -15.7166   28.4192 C   0  0  0  0  0  0  0  0  0  0  0  0
   10.3186  -15.3323   27.0315 C   0  0  0  0  0  0  0  0  0  0  0  0
   10.3567  -16.2647   25.8857 C   0  0  2  0  0  0  0  0  0  0  0  0
    9.9731  -15.4933   24.6526 N   0  0  0  0  0  0  0  0  0  0  0  0
    9.2827  -17.3275   25.9407 C   0  0  0  0  0  0  0  0  0  0  0  0
    8.1789  -17.1613   25.3202 O   0  0  0  0  0  0  0  0  0  0  0  0
    9.4394  -18.4665   26.6322 O   0  0  0  0  0  0  0  0  0  0  0  0
  1  2  1  0
  2  4  1  0
  2  3  2  0
  5  4  1  0
  5  6  1  6
  7  5  1  0
  7  9  1  0
  8  7  2  0
 10 11  1  6
 10  9  1  0
 10 16  1  0
 11 12  1  0
 12 13  1  0
 13 14  1  0
 14 15  1  0
 16 23  1  0
 17 16  2  0
 19 20  1  0
 19 18  1  0
 21 20  1  0
 22 21  1  1
 23 22  1  0
 24 22  1  0
 24 26  1  0
 25 24  2  0
M  END
$$$$
