NKM.pdb
     RDKit          3D

 26 25  0  0  1  0  0  0  0  0999 V2000
    9.4572  -13.3214   16.3652 N   0  0  0  0  0  0  0  0  0  0  0  0
    8.0316  -13.4562   16.5257 C   0  0  0  0  0  0  0  0  0  0  0  0
    7.2795  -13.1034   15.5958 O   0  0  0  0  0  0  0  0  0  0  0  0
    7.5597  -14.0114   17.8006 C   0  0  0  0  0  0  0  0  0  0  0  0
    8.6774  -14.3777   18.7469 C   0  0  2  0  0  0  0  0  0  0  0  0
    9.5588  -15.2651   18.0118 N   0  0  0  0  0  0  0  0  0  0  0  0
    8.1245  -14.9987   19.9504 C   0  0  0  0  0  0  0  0  0  0  0  0
    7.2768  -14.4317   20.6771 O   0  0  0  0  0  0  0  0  0  0  0  0
    8.5248  -16.3255   20.3869 N   0  0  0  0  0  0  0  0  0  0  0  0
    8.0665  -16.8704   21.6058 C   0  0  1  0  0  0  0  0  0  0  0  0
    8.1444  -18.3202   21.8499 C   0  0  0  0  0  0  0  0  0  0  0  0
    7.3001  -19.2772   21.1336 C   0  0  0  0  0  0  0  0  0  0  0  0
    7.4999  -20.7371   21.3859 C   0  0  0  0  0  0  0  0  0  0  0  0
    6.4652  -21.5612   20.6043 C   0  0  0  0  0  0  0  0  0  0  0  0
    6.6981  -22.9686   20.7165 N   0  0  0  0  0  0  0  0  0  0  0  0
    8.5592  -16.0925   22.8041 C   0  0  0  0  0  0  0  0  0  0  0  0
    9.7500  -15.6954   22.7292 O   0  0  0  0  0  0  0  0  0  0  0  0
    6.5639  -10.6806   28.1508 C   0  0  0  0  0  0  0  0  0  0  0  0
    6.2053  -11.6724   26.6508 S   0  0  0  0  0  0  0  0  0  0  0  0
    7.2846  -13.0295   26.4370 C   0  0  0  0  0  0  0  0  0  0  0  0
    7.2069  -13.9758   25.3316 C   0  0  0  0  0  0  0  0  0  0  0  0
    8.2751  -14.9294   24.9664 C   0  0  2  0  0  0  0  0  0  0  0  0
    7.7292  -15.8469   23.9066 N   0  0  0  0  0  0  0  0  0  0  0  0
    8.6204  -15.8975   26.0754 C   0  0  0  0  0  0  0  0  0  0  0  0
    8.0567  -17.0420   26.1307 O   0  0  0  0  0  0  0  0  0  0  0  0
    9.5139  -15.5999   27.0309 O   0  0  0  0  0  0  0  0  0  0  0  0
  1  2  1  0
  2  4  1  0
  2  3  2  0
  5  4  1  0
  5  6  1  6
  7  5  1  0
  7  9  1  0
  8  7  2  0
 10 11  1  1
 10  9  1  0
 10 16  1  0
 11 12  1  0
 12 13  1  0
 13 14  1  0
 14 15  1  0
 16 23  1  0
 17 16  2  0
 19 20  1  0
 19 18  1  0
 21 20  1  0
 22 21  1  1
 23 22  1  0
 24 22  1  0
 24 26  1  0
 25 24  2  0
M  END
$$$$
