NKM.pdb
     RDKit          3D

 26 25  0  0  1  0  0  0  0  0999 V2000
    8.7165  -12.5786   16.8915 N   0  0  0  0  0  0  0  0  0  0  0  0
    7.7030  -13.6025   16.8643 C   0  0  0  0  0  0  0  0  0  0  0  0
    6.9870  -13.7219   15.8504 O   0  0  0  0  0  0  0  0  0  0  0  0
    7.5859  -14.4483   18.0589 C   0  0  0  0  0  0  0  0  0  0  0  0
    8.5245  -14.0494   19.1720 C   0  0  2  0  0  0  0  0  0  0  0  0
    9.8543  -14.0212   18.5927 N   0  0  0  0  0  0  0  0  0  0  0  0
    8.4101  -14.9970   20.2804 C   0  0  0  0  0  0  0  0  0  0  0  0
    7.3539  -15.1488   20.9358 O   0  0  0  0  0  0  0  0  0  0  0  0
    9.5229  -15.8322   20.6988 N   0  0  0  0  0  0  0  0  0  0  0  0
    9.4095  -16.7190   21.7914 C   0  0  1  0  0  0  0  0  0  0  0  0
   10.0722  -18.0332   21.7563 C   0  0  0  0  0  0  0  0  0  0  0  0
   10.3191  -18.7477   20.5032 C   0  0  0  0  0  0  0  0  0  0  0  0
   11.4046  -19.7750   20.4668 C   0  0  0  0  0  0  0  0  0  0  0  0
   11.5106  -20.3914   19.0634 C   0  0  0  0  0  0  0  0  0  0  0  0
   12.6073  -21.3039   18.9546 N   0  0  0  0  0  0  0  0  0  0  0  0
    9.6425  -16.0306   23.1165 C   0  0  0  0  0  0  0  0  0  0  0  0
   10.4353  -15.0553   23.0787 O   0  0  0  0  0  0  0  0  0  0  0  0
    6.2553  -11.2109   27.4918 C   0  0  0  0  0  0  0  0  0  0  0  0
    6.7230  -12.1632   25.9962 S   0  0  0  0  0  0  0  0  0  0  0  0
    7.2026  -13.8080   26.3379 C   0  0  0  0  0  0  0  0  0  0  0  0
    7.6886  -14.7479   25.3361 C   0  0  0  0  0  0  0  0  0  0  0  0
    8.9621  -15.4917   25.4306 C   0  0  2  0  0  0  0  0  0  0  0  0
    9.0094  -16.4687   24.2879 N   0  0  0  0  0  0  0  0  0  0  0  0
    9.0350  -16.4066   26.6322 C   0  0  0  0  0  0  0  0  0  0  0  0
    8.6240  -17.6129   26.5496 O   0  0  0  0  0  0  0  0  0  0  0  0
    9.5223  -15.9974   27.8133 O   0  0  0  0  0  0  0  0  0  0  0  0
  1  2  1  0
  2  4  1  0
  2  3  2  0
  5  4  1  0
  5  6  1  6
  7  5  1  0
  7  9  1  0
  8  7  2  0
 10 11  1  6
 10  9  1  0
 10 16  1  0
 11 12  1  0
 12 13  1  0
 13 14  1  0
 14 15  1  0
 16 23  1  0
 17 16  2  0
 19 20  1  0
 19 18  1  0
 21 20  1  0
 22 21  1  1
 23 22  1  0
 24 22  1  0
 24 26  1  0
 25 24  2  0
M  END
$$$$
