NKM.pdb
     RDKit          3D

 26 25  0  0  1  0  0  0  0  0999 V2000
   14.1690  -15.7203   20.0127 N   0  0  0  0  0  0  0  0  0  0  0  0
   13.5298  -14.5807   19.4052 C   0  0  0  0  0  0  0  0  0  0  0  0
   14.1824  -13.8651   18.6198 O   0  0  0  0  0  0  0  0  0  0  0  0
   12.1260  -14.3413   19.7637 C   0  0  0  0  0  0  0  0  0  0  0  0
   11.2331  -15.5351   19.5258 C   0  0  2  0  0  0  0  0  0  0  0  0
   10.8801  -15.5055   18.1190 N   0  0  0  0  0  0  0  0  0  0  0  0
   10.0654  -15.4635   20.4038 C   0  0  0  0  0  0  0  0  0  0  0  0
    9.2896  -14.4806   20.4209 O   0  0  0  0  0  0  0  0  0  0  0  0
    9.7244  -16.5365   21.3223 N   0  0  0  0  0  0  0  0  0  0  0  0
    8.4039  -16.7171   21.7877 C   0  0  1  0  0  0  0  0  0  0  0  0
    7.7834  -18.0521   21.7691 C   0  0  0  0  0  0  0  0  0  0  0  0
    6.4530  -18.3006   22.3258 C   0  0  0  0  0  0  0  0  0  0  0  0
    5.4514  -19.0296   21.4890 C   0  0  0  0  0  0  0  0  0  0  0  0
    4.1103  -19.1355   22.2312 C   0  0  0  0  0  0  0  0  0  0  0  0
    3.1227  -19.8339   21.4669 N   0  0  0  0  0  0  0  0  0  0  0  0
    8.1610  -16.0258   23.1094 C   0  0  0  0  0  0  0  0  0  0  0  0
    7.0127  -16.1911   23.5946 O   0  0  0  0  0  0  0  0  0  0  0  0
    7.1073  -11.1025   27.5027 C   0  0  0  0  0  0  0  0  0  0  0  0
    6.0607  -12.2401   26.5163 S   0  0  0  0  0  0  0  0  0  0  0  0
    6.7535  -13.8319   26.3197 C   0  0  0  0  0  0  0  0  0  0  0  0
    7.4632  -14.2784   25.1280 C   0  0  0  0  0  0  0  0  0  0  0  0
    8.8601  -14.7602   25.1140 C   0  0  2  0  0  0  0  0  0  0  0  0
    9.1597  -15.2606   23.7274 N   0  0  0  0  0  0  0  0  0  0  0  0
    9.0757  -16.0006   25.9512 C   0  0  0  0  0  0  0  0  0  0  0  0
    8.8933  -15.9652   27.2147 O   0  0  0  0  0  0  0  0  0  0  0  0
    9.4625  -17.1673   25.4134 O   0  0  0  0  0  0  0  0  0  0  0  0
  1  2  1  0
  2  4  1  0
  2  3  2  0
  5  4  1  0
  5  6  1  6
  7  5  1  0
  7  9  1  0
  8  7  2  0
 10 11  1  1
 10  9  1  0
 10 16  1  0
 11 12  1  0
 12 13  1  0
 13 14  1  0
 14 15  1  0
 16 23  1  0
 17 16  2  0
 19 20  1  0
 19 18  1  0
 21 20  1  0
 22 21  1  6
 23 22  1  0
 24 22  1  0
 24 26  1  0
 25 24  2  0
M  END
$$$$
