NKM.pdb
     RDKit          3D

 26 25  0  0  1  0  0  0  0  0999 V2000
    8.3667  -12.2218   17.4793 N   0  0  0  0  0  0  0  0  0  0  0  0
    7.9181  -13.5897   17.4170 C   0  0  0  0  0  0  0  0  0  0  0  0
    7.9165  -14.1791   16.3182 O   0  0  0  0  0  0  0  0  0  0  0  0
    7.4867  -14.2019   18.6801 C   0  0  0  0  0  0  0  0  0  0  0  0
    8.6316  -14.7034   19.5266 C   0  0  2  0  0  0  0  0  0  0  0  0
    9.3251  -15.6955   18.7271 N   0  0  0  0  0  0  0  0  0  0  0  0
    8.1176  -15.2478   20.7833 C   0  0  0  0  0  0  0  0  0  0  0  0
    7.4375  -14.5704   21.5874 O   0  0  0  0  0  0  0  0  0  0  0  0
    8.3635  -16.6221   21.1860 N   0  0  0  0  0  0  0  0  0  0  0  0
    7.9085  -17.1198   22.4262 C   0  0  1  0  0  0  0  0  0  0  0  0
    7.7181  -18.5662   22.6239 C   0  0  0  0  0  0  0  0  0  0  0  0
    6.4653  -19.1243   23.1348 C   0  0  0  0  0  0  0  0  0  0  0  0
    5.8106  -20.2306   22.3717 C   0  0  0  0  0  0  0  0  0  0  0  0
    4.4993  -20.6483   23.0549 C   0  0  0  0  0  0  0  0  0  0  0  0
    3.7932  -21.6437   22.3078 N   0  0  0  0  0  0  0  0  0  0  0  0
    8.6423  -16.5056   23.5958 C   0  0  0  0  0  0  0  0  0  0  0  0
    9.8748  -16.3293   23.4191 O   0  0  0  0  0  0  0  0  0  0  0  0
    5.9250  -10.7790   25.5726 C   0  0  0  0  0  0  0  0  0  0  0  0
    6.3942  -12.1791   26.6596 S   0  0  0  0  0  0  0  0  0  0  0  0
    7.4824  -13.3166   25.9018 C   0  0  0  0  0  0  0  0  0  0  0  0
    7.9863  -14.5244   26.5426 C   0  0  0  0  0  0  0  0  0  0  0  0
    8.8091  -15.5510   25.8695 C   0  0  2  0  0  0  0  0  0  0  0  0
    7.9742  -16.1678   24.7808 N   0  0  0  0  0  0  0  0  0  0  0  0
    9.1164  -16.7437   26.7465 C   0  0  0  0  0  0  0  0  0  0  0  0
    8.3622  -17.7739   26.7210 O   0  0  0  0  0  0  0  0  0  0  0  0
   10.1720  -16.7688   27.5742 O   0  0  0  0  0  0  0  0  0  0  0  0
  1  2  1  0
  2  4  1  0
  2  3  2  0
  5  4  1  0
  5  6  1  6
  7  5  1  0
  7  9  1  0
  8  7  2  0
 10 11  1  6
 10  9  1  0
 10 16  1  0
 11 12  1  0
 12 13  1  0
 13 14  1  0
 14 15  1  0
 16 23  1  0
 17 16  2  0
 19 20  1  0
 19 18  1  0
 21 20  1  0
 22 21  1  1
 23 22  1  0
 24 22  1  0
 24 26  1  0
 25 24  2  0
M  END
$$$$
