NKM.pdb
     RDKit          3D

 26 25  0  0  1  0  0  0  0  0999 V2000
   14.2782  -14.5841   18.9870 N   0  0  0  0  0  0  0  0  0  0  0  0
   13.0369  -13.9102   18.7020 C   0  0  0  0  0  0  0  0  0  0  0  0
   13.0255  -12.9862   17.8649 O   0  0  0  0  0  0  0  0  0  0  0  0
   11.8510  -14.3717   19.4347 C   0  0  0  0  0  0  0  0  0  0  0  0
   12.1662  -15.3773   20.5157 C   0  0  2  0  0  0  0  0  0  0  0  0
   12.6938  -16.5483   19.8411 N   0  0  0  0  0  0  0  0  0  0  0  0
   10.9599  -15.6664   21.2909 C   0  0  0  0  0  0  0  0  0  0  0  0
   10.2538  -14.7691   21.8052 O   0  0  0  0  0  0  0  0  0  0  0  0
   10.4962  -17.0245   21.5180 N   0  0  0  0  0  0  0  0  0  0  0  0
    9.2994  -17.2877   22.2190 C   0  0  1  0  0  0  0  0  0  0  0  0
    8.6509  -18.6055   22.1173 C   0  0  0  0  0  0  0  0  0  0  0  0
    7.4277  -18.9304   22.8522 C   0  0  0  0  0  0  0  0  0  0  0  0
    6.7930  -20.2658   22.6311 C   0  0  0  0  0  0  0  0  0  0  0  0
    5.4406  -20.3416   23.3562 C   0  0  0  0  0  0  0  0  0  0  0  0
    4.7105  -21.5245   23.0171 N   0  0  0  0  0  0  0  0  0  0  0  0
    9.3616  -16.8245   23.6561 C   0  0  0  0  0  0  0  0  0  0  0  0
   10.4542  -17.0417   24.2397 O   0  0  0  0  0  0  0  0  0  0  0  0
    6.9704  -10.5537   25.9934 C   0  0  0  0  0  0  0  0  0  0  0  0
    6.3190  -12.0689   26.7947 S   0  0  0  0  0  0  0  0  0  0  0  0
    7.4281  -13.4178   26.7426 C   0  0  0  0  0  0  0  0  0  0  0  0
    7.5290  -14.3571   25.6332 C   0  0  0  0  0  0  0  0  0  0  0  0
    8.5556  -15.4138   25.5186 C   0  0  2  0  0  0  0  0  0  0  0  0
    8.2663  -16.2020   24.2705 N   0  0  0  0  0  0  0  0  0  0  0  0
    8.4497  -16.4725   26.5929 C   0  0  0  0  0  0  0  0  0  0  0  0
    9.0036  -16.2948   27.7298 O   0  0  0  0  0  0  0  0  0  0  0  0
    7.7848  -17.6217   26.4003 O   0  0  0  0  0  0  0  0  0  0  0  0
  1  2  1  0
  2  4  1  0
  2  3  2  0
  5  4  1  0
  5  6  1  6
  7  5  1  0
  7  9  1  0
  8  7  2  0
 10 11  1  1
 10  9  1  0
 10 16  1  0
 11 12  1  0
 12 13  1  0
 13 14  1  0
 14 15  1  0
 16 23  1  0
 17 16  2  0
 19 20  1  0
 19 18  1  0
 21 20  1  0
 22 21  1  1
 23 22  1  0
 24 22  1  0
 24 26  1  0
 25 24  2  0
M  END
$$$$
