NKM.pdb
     RDKit          3D

 26 25  0  0  1  0  0  0  0  0999 V2000
    9.5410  -13.9646   16.2429 N   0  0  0  0  0  0  0  0  0  0  0  0
    8.1438  -13.6941   16.4683 C   0  0  0  0  0  0  0  0  0  0  0  0
    7.4384  -13.3075   15.5155 O   0  0  0  0  0  0  0  0  0  0  0  0
    7.6429  -13.8983   17.8334 C   0  0  0  0  0  0  0  0  0  0  0  0
    8.6874  -14.4336   18.7829 C   0  0  2  0  0  0  0  0  0  0  0  0
    9.4736  -15.3896   18.0263 N   0  0  0  0  0  0  0  0  0  0  0  0
    8.0374  -15.0320   19.9487 C   0  0  0  0  0  0  0  0  0  0  0  0
    7.2633  -14.3915   20.6962 O   0  0  0  0  0  0  0  0  0  0  0  0
    8.2479  -16.4207   20.3208 N   0  0  0  0  0  0  0  0  0  0  0  0
    7.7394  -16.9459   21.5285 C   0  0  1  0  0  0  0  0  0  0  0  0
    7.6017  -18.4005   21.7088 C   0  0  0  0  0  0  0  0  0  0  0  0
    7.1319  -18.9889   22.9638 C   0  0  0  0  0  0  0  0  0  0  0  0
    7.1195  -20.4779   23.0959 C   0  0  0  0  0  0  0  0  0  0  0  0
    6.5312  -20.8892   24.4544 C   0  0  0  0  0  0  0  0  0  0  0  0
    6.6317  -22.2981   24.6832 N   0  0  0  0  0  0  0  0  0  0  0  0
    8.3712  -16.3073   22.7437 C   0  0  0  0  0  0  0  0  0  0  0  0
    9.6251  -16.2188   22.7086 O   0  0  0  0  0  0  0  0  0  0  0  0
    6.7473  -10.6140   28.0362 C   0  0  0  0  0  0  0  0  0  0  0  0
    6.1964  -11.7359   26.6945 S   0  0  0  0  0  0  0  0  0  0  0  0
    7.4207  -12.8766   26.1919 C   0  0  0  0  0  0  0  0  0  0  0  0
    7.2265  -13.8922   25.1652 C   0  0  0  0  0  0  0  0  0  0  0  0
    8.2474  -14.8797   24.7576 C   0  0  2  0  0  0  0  0  0  0  0  0
    7.5932  -15.8562   23.8189 N   0  0  0  0  0  0  0  0  0  0  0  0
    8.6970  -15.7792   25.8867 C   0  0  0  0  0  0  0  0  0  0  0  0
    9.5651  -15.3708   26.7296 O   0  0  0  0  0  0  0  0  0  0  0  0
    8.2144  -17.0209   26.0464 O   0  0  0  0  0  0  0  0  0  0  0  0
  1  2  1  0
  2  4  1  0
  2  3  2  0
  5  4  1  0
  5  6  1  6
  7  5  1  0
  7  9  1  0
  8  7  2  0
 10 11  1  6
 10  9  1  0
 10 16  1  0
 11 12  1  0
 12 13  1  0
 13 14  1  0
 14 15  1  0
 16 23  1  0
 17 16  2  0
 19 20  1  0
 19 18  1  0
 21 20  1  0
 22 21  1  1
 23 22  1  0
 24 22  1  0
 24 26  1  0
 25 24  2  0
M  END
$$$$
