NKM.pdb
     RDKit          3D

 26 25  0  0  1  0  0  0  0  0999 V2000
    9.6706  -18.8265   15.9544 N   0  0  0  0  0  0  0  0  0  0  0  0
    9.8832  -18.8478   17.3793 C   0  0  0  0  0  0  0  0  0  0  0  0
   10.8267  -19.5184   17.8429 O   0  0  0  0  0  0  0  0  0  0  0  0
    8.9525  -18.0606   18.1982 C   0  0  0  0  0  0  0  0  0  0  0  0
    9.2804  -18.0847   19.6716 C   0  0  2  0  0  0  0  0  0  0  0  0
    8.1533  -18.7184   20.3292 N   0  0  0  0  0  0  0  0  0  0  0  0
    9.5213  -16.7229   20.1482 C   0  0  0  0  0  0  0  0  0  0  0  0
   10.6382  -16.1630   20.0636 O   0  0  0  0  0  0  0  0  0  0  0  0
    8.4726  -15.9221   20.7565 N   0  0  0  0  0  0  0  0  0  0  0  0
    8.6864  -14.5720   21.1095 C   0  0  1  0  0  0  0  0  0  0  0  0
    7.7757  -13.5219   20.6245 C   0  0  0  0  0  0  0  0  0  0  0  0
    7.2914  -13.4875   19.2438 C   0  0  0  0  0  0  0  0  0  0  0  0
    8.2912  -13.3896   18.1367 C   0  0  0  0  0  0  0  0  0  0  0  0
    7.5812  -13.3837   16.7741 C   0  0  0  0  0  0  0  0  0  0  0  0
    8.5051  -13.3302   15.6829 N   0  0  0  0  0  0  0  0  0  0  0  0
    8.9724  -14.4020   22.5836 C   0  0  0  0  0  0  0  0  0  0  0  0
    9.2311  -13.2255   22.9445 O   0  0  0  0  0  0  0  0  0  0  0  0
    6.0035  -12.4367   28.3451 C   0  0  0  0  0  0  0  0  0  0  0  0
    6.7611  -12.6827   26.6935 S   0  0  0  0  0  0  0  0  0  0  0  0
    6.3772  -14.2271   25.9726 C   0  0  0  0  0  0  0  0  0  0  0  0
    7.0968  -14.8115   24.8485 C   0  0  0  0  0  0  0  0  0  0  0  0
    8.5207  -15.2058   24.8768 C   0  0  2  0  0  0  0  0  0  0  0  0
    8.9461  -15.4933   23.4629 N   0  0  0  0  0  0  0  0  0  0  0  0
    8.7621  -16.5348   25.5561 C   0  0  0  0  0  0  0  0  0  0  0  0
    8.6494  -17.6243   24.8994 O   0  0  0  0  0  0  0  0  0  0  0  0
    9.0957  -16.6244   26.8526 O   0  0  0  0  0  0  0  0  0  0  0  0
  1  2  1  0
  2  4  1  0
  2  3  2  0
  5  4  1  0
  5  6  1  1
  7  5  1  0
  7  9  1  0
  8  7  2  0
 10 11  1  1
 10  9  1  0
 10 16  1  0
 11 12  1  0
 12 13  1  0
 13 14  1  0
 14 15  1  0
 16 23  1  0
 17 16  2  0
 19 20  1  0
 19 18  1  0
 21 20  1  0
 22 21  1  6
 23 22  1  0
 24 22  1  0
 24 26  1  0
 25 24  2  0
M  END
$$$$
