NKM.pdb
     RDKit          3D

 26 25  0  0  1  0  0  0  0  0999 V2000
   14.9180  -15.5957   19.3832 N   0  0  0  0  0  0  0  0  0  0  0  0
   13.9672  -14.5340   19.1712 C   0  0  0  0  0  0  0  0  0  0  0  0
   14.2461  -13.6195   18.3708 O   0  0  0  0  0  0  0  0  0  0  0  0
   12.7123  -14.6094   19.9300 C   0  0  0  0  0  0  0  0  0  0  0  0
   11.7559  -15.6541   19.4075 C   0  0  2  0  0  0  0  0  0  0  0  0
   11.2436  -15.1442   18.1496 N   0  0  0  0  0  0  0  0  0  0  0  0
   10.7011  -15.8969   20.3913 C   0  0  0  0  0  0  0  0  0  0  0  0
    9.7291  -15.1229   20.5478 O   0  0  0  0  0  0  0  0  0  0  0  0
   10.7101  -17.0616   21.2600 N   0  0  0  0  0  0  0  0  0  0  0  0
    9.6371  -17.3376   22.1348 C   0  0  1  0  0  0  0  0  0  0  0  0
    9.2589  -18.7285   22.4344 C   0  0  0  0  0  0  0  0  0  0  0  0
    8.2213  -19.0603   23.4117 C   0  0  0  0  0  0  0  0  0  0  0  0
    7.8323  -20.4934   23.5841 C   0  0  0  0  0  0  0  0  0  0  0  0
    6.6967  -20.6193   24.6114 C   0  0  0  0  0  0  0  0  0  0  0  0
    6.2662  -21.9736   24.7788 N   0  0  0  0  0  0  0  0  0  0  0  0
    9.6975  -16.5092   23.3973 C   0  0  0  0  0  0  0  0  0  0  0  0
   10.8155  -16.4946   23.9727 O   0  0  0  0  0  0  0  0  0  0  0  0
    6.0853  -10.9105   27.8452 C   0  0  0  0  0  0  0  0  0  0  0  0
    6.0338  -12.0100   26.3787 S   0  0  0  0  0  0  0  0  0  0  0  0
    7.3939  -13.1019   26.2770 C   0  0  0  0  0  0  0  0  0  0  0  0
    7.6163  -14.0387   25.1834 C   0  0  0  0  0  0  0  0  0  0  0  0
    8.7859  -14.9349   25.0705 C   0  0  2  0  0  0  0  0  0  0  0  0
    8.5738  -15.8183   23.8715 N   0  0  0  0  0  0  0  0  0  0  0  0
    8.8800  -15.9431   26.1934 C   0  0  0  0  0  0  0  0  0  0  0  0
    8.1431  -16.9861   26.1867 O   0  0  0  0  0  0  0  0  0  0  0  0
    9.7232  -15.7867   27.2252 O   0  0  0  0  0  0  0  0  0  0  0  0
  1  2  1  0
  2  4  1  0
  2  3  2  0
  5  4  1  0
  5  6  1  6
  7  5  1  0
  7  9  1  0
  8  7  2  0
 10 11  1  1
 10  9  1  0
 10 16  1  0
 11 12  1  0
 12 13  1  0
 13 14  1  0
 14 15  1  0
 16 23  1  0
 17 16  2  0
 19 20  1  0
 19 18  1  0
 21 20  1  0
 22 21  1  1
 23 22  1  0
 24 22  1  0
 24 26  1  0
 25 24  2  0
M  END
$$$$
