NKM.pdb
     RDKit          3D

 26 25  0  0  1  0  0  0  0  0999 V2000
    7.9694  -12.1011   18.2769 N   0  0  0  0  0  0  0  0  0  0  0  0
    7.7783  -13.5269   18.1947 C   0  0  0  0  0  0  0  0  0  0  0  0
    7.7744  -14.0759   17.0751 O   0  0  0  0  0  0  0  0  0  0  0  0
    7.5985  -14.2438   19.4636 C   0  0  0  0  0  0  0  0  0  0  0  0
    8.8632  -14.3438   20.2817 C   0  0  2  0  0  0  0  0  0  0  0  0
    9.8443  -14.9977   19.4364 N   0  0  0  0  0  0  0  0  0  0  0  0
    8.5980  -15.0821   21.5163 C   0  0  0  0  0  0  0  0  0  0  0  0
    7.6778  -14.7720   22.3069 O   0  0  0  0  0  0  0  0  0  0  0  0
    9.3905  -16.2341   21.9112 N   0  0  0  0  0  0  0  0  0  0  0  0
    9.1918  -16.8753   23.1531 C   0  0  1  0  0  0  0  0  0  0  0  0
    9.4991  -18.3065   23.3102 C   0  0  0  0  0  0  0  0  0  0  0  0
    9.2227  -19.2829   22.2557 C   0  0  0  0  0  0  0  0  0  0  0  0
    9.6420  -20.7023   22.4665 C   0  0  0  0  0  0  0  0  0  0  0  0
    9.3515  -21.5378   21.2102 C   0  0  0  0  0  0  0  0  0  0  0  0
    9.7659  -22.8994   21.3582 N   0  0  0  0  0  0  0  0  0  0  0  0
    9.7439  -16.0731   24.3087 C   0  0  0  0  0  0  0  0  0  0  0  0
   10.8889  -15.5877   24.1221 O   0  0  0  0  0  0  0  0  0  0  0  0
    6.0956  -10.9722   25.4750 C   0  0  0  0  0  0  0  0  0  0  0  0
    6.7244  -12.1031   26.7742 S   0  0  0  0  0  0  0  0  0  0  0  0
    8.0176  -13.1432   26.2279 C   0  0  0  0  0  0  0  0  0  0  0  0
    8.7105  -14.1069   27.0731 C   0  0  0  0  0  0  0  0  0  0  0  0
    9.6807  -15.1081   26.5832 C   0  0  2  0  0  0  0  0  0  0  0  0
    9.0130  -15.8994   25.4920 N   0  0  0  0  0  0  0  0  0  0  0  0
   10.0019  -16.1802   27.5999 C   0  0  0  0  0  0  0  0  0  0  0  0
    9.5059  -17.3510   27.4807 O   0  0  0  0  0  0  0  0  0  0  0  0
   10.8035  -15.9509   28.6511 O   0  0  0  0  0  0  0  0  0  0  0  0
  1  2  1  0
  2  4  1  0
  2  3  2  0
  5  4  1  0
  5  6  1  6
  7  5  1  0
  7  9  1  0
  8  7  2  0
 10 11  1  6
 10  9  1  0
 10 16  1  0
 11 12  1  0
 12 13  1  0
 13 14  1  0
 14 15  1  0
 16 23  1  0
 17 16  2  0
 19 20  1  0
 19 18  1  0
 21 20  1  0
 22 21  1  1
 23 22  1  0
 24 22  1  0
 24 26  1  0
 25 24  2  0
M  END
$$$$
