QFP.pdb
     RDKit          3D

 28 29  0  0  1  0  0  0  0  0999 V2000
   26.7520  -20.2298  -21.4101 N   0  0  0  0  0  0  0  0  0  0  0  0
   26.5164  -19.3371  -20.3383 C   0  0  0  0  0  0  0  0  0  0  0  0
   26.7676  -18.1199  -20.4857 O   0  0  0  0  0  0  0  0  0  0  0  0
   25.9788  -19.8146  -19.0460 C   0  0  0  0  0  0  0  0  0  0  0  0
   26.8160  -20.9751  -18.5120 C   0  0  0  0  0  0  0  0  0  0  0  0
   27.7428  -20.4987  -17.4311 C   0  0  2  0  0  0  0  0  0  0  0  0
   29.0144  -21.1667  -17.5936 N   0  0  0  0  0  0  0  0  0  0  0  0
   27.1793  -20.8827  -16.1148 C   0  0  0  0  0  0  0  0  0  0  0  0
   26.6009  -22.0002  -15.9329 O   0  0  0  0  0  0  0  0  0  0  0  0
   27.2571  -20.0259  -14.9970 N   0  0  0  0  0  0  0  0  0  0  0  0
   26.7279  -20.3855  -13.6948 C   0  0  1  0  0  0  0  0  0  0  0  0
   27.3800  -19.5537  -12.6107 C   0  0  0  0  0  0  0  0  0  0  0  0
   26.8529  -19.9893  -11.2722 C   0  0  0  0  0  0  0  0  0  0  0  0
   27.3364  -21.1090  -10.6370 C   0  0  0  0  0  0  0  0  0  0  0  0
   26.7998  -21.4424   -9.4107 C   0  0  0  0  0  0  0  0  0  0  0  0
   25.8021  -20.6829   -8.8211 C   0  0  0  0  0  0  0  0  0  0  0  0
   25.3191  -19.5612   -9.4594 C   0  0  0  0  0  0  0  0  0  0  0  0
   25.8680  -19.2430  -10.6857 C   0  0  0  0  0  0  0  0  0  0  0  0
   25.2537  -20.2986  -13.6923 C   0  0  0  0  0  0  0  0  0  0  0  0
   24.7460  -19.1323  -13.8515 O   0  0  0  0  0  0  0  0  0  0  0  0
   24.3670  -21.3730  -13.5330 N   0  0  0  0  0  0  0  0  0  0  0  0
   24.7323  -22.7693  -13.4286 C   0  0  0  0  0  0  0  0  0  0  0  0
   23.4537  -23.5077  -13.8866 C   0  0  0  0  0  0  0  0  0  0  0  0
   22.4294  -22.6577  -13.1647 C   0  0  0  0  0  0  0  0  0  0  0  0
   22.9309  -21.2631  -13.4566 C   0  0  1  0  0  0  0  0  0  0  0  0
   22.4815  -20.2898  -12.4294 C   0  0  0  0  0  0  0  0  0  0  0  0
   21.3883  -19.7070  -12.4271 O   0  0  0  0  0  0  0  0  0  0  0  0
   23.3645  -20.0194  -11.3945 O   0  0  0  0  0  0  0  0  0  0  0  0
  1  2  1  0
  2  3  2  0
  4  2  1  0
  4  5  1  0
  5  6  1  0
  6  8  1  0
  6  7  1  6
  8  9  2  0
 10 11  1  0
 10  8  1  0
 11 12  1  1
 13 14  2  0
 13 12  1  0
 15 14  1  0
 16 15  2  0
 17 16  1  0
 17 18  2  0
 18 13  1  0
 19 11  1  0
 20 19  2  0
 21 19  1  0
 21 25  1  0
 22 23  1  0
 22 21  1  0
 23 24  1  0
 24 25  1  0
 25 26  1  1
 26 28  1  0
 27 26  2  0
M  END
$$$$
