QFP.pdb
     RDKit          3D

 28 29  0  0  1  0  0  0  0  0999 V2000
   25.6405  -17.0217  -21.3622 N   0  0  0  0  0  0  0  0  0  0  0  0
   24.9381  -16.4609  -20.2699 C   0  0  0  0  0  0  0  0  0  0  0  0
   25.0057  -15.2283  -20.0632 O   0  0  0  0  0  0  0  0  0  0  0  0
   24.1246  -17.3032  -19.3667 C   0  0  0  0  0  0  0  0  0  0  0  0
   24.9161  -18.5307  -18.9196 C   0  0  0  0  0  0  0  0  0  0  0  0
   26.0189  -18.1303  -17.9828 C   0  0  2  0  0  0  0  0  0  0  0  0
   27.2814  -18.2961  -18.6671 N   0  0  0  0  0  0  0  0  0  0  0  0
   26.0021  -19.0366  -16.8096 C   0  0  0  0  0  0  0  0  0  0  0  0
   25.8895  -20.2964  -16.9369 O   0  0  0  0  0  0  0  0  0  0  0  0
   26.1103  -18.5450  -15.4920 N   0  0  0  0  0  0  0  0  0  0  0  0
   26.1026  -19.4117  -14.3284 C   0  0  1  0  0  0  0  0  0  0  0  0
   26.8088  -18.7445  -13.1670 C   0  0  0  0  0  0  0  0  0  0  0  0
   26.8386  -19.6910  -11.9998 C   0  0  0  0  0  0  0  0  0  0  0  0
   27.7570  -20.7117  -11.9231 C   0  0  0  0  0  0  0  0  0  0  0  0
   27.7183  -21.5380  -10.8192 C   0  0  0  0  0  0  0  0  0  0  0  0
   26.7883  -21.3598   -9.8077 C   0  0  0  0  0  0  0  0  0  0  0  0
   25.8690  -20.3363   -9.8867 C   0  0  0  0  0  0  0  0  0  0  0  0
   25.9227  -19.5194  -10.9985 C   0  0  0  0  0  0  0  0  0  0  0  0
   24.7254  -19.8385  -14.0090 C   0  0  0  0  0  0  0  0  0  0  0  0
   23.8476  -18.9111  -13.8954 O   0  0  0  0  0  0  0  0  0  0  0  0
   24.2969  -21.1602  -13.8214 N   0  0  0  0  0  0  0  0  0  0  0  0
   25.1037  -22.3489  -13.9951 C   0  0  0  0  0  0  0  0  0  0  0  0
   24.0576  -23.4522  -14.2749 C   0  0  0  0  0  0  0  0  0  0  0  0
   23.0252  -23.0540  -13.2412 C   0  0  0  0  0  0  0  0  0  0  0  0
   22.9663  -21.5566  -13.4308 C   0  0  1  0  0  0  0  0  0  0  0  0
   22.4954  -20.8642  -12.2048 C   0  0  0  0  0  0  0  0  0  0  0  0
   23.2135  -20.2206  -11.4272 O   0  0  0  0  0  0  0  0  0  0  0  0
   21.1413  -20.9519  -11.9174 O   0  0  0  0  0  0  0  0  0  0  0  0
  1  2  1  0
  2  3  2  0
  4  2  1  0
  4  5  1  0
  5  6  1  0
  6  8  1  0
  6  7  1  6
  8  9  2  0
 10 11  1  0
 10  8  1  0
 11 12  1  1
 13 14  2  0
 13 12  1  0
 15 14  1  0
 16 15  2  0
 17 16  1  0
 17 18  2  0
 18 13  1  0
 19 11  1  0
 20 19  2  0
 21 19  1  0
 21 25  1  0
 22 23  1  0
 22 21  1  0
 23 24  1  0
 24 25  1  0
 25 26  1  1
 26 28  1  0
 27 26  2  0
M  END
$$$$
