QFP.pdb
     RDKit          3D

 28 29  0  0  1  0  0  0  0  0999 V2000
   27.4867  -19.6671  -21.6971 N   0  0  0  0  0  0  0  0  0  0  0  0
   27.2633  -18.3242  -21.3126 C   0  0  0  0  0  0  0  0  0  0  0  0
   27.4849  -17.4051  -22.1327 O   0  0  0  0  0  0  0  0  0  0  0  0
   26.7725  -17.9849  -19.9594 C   0  0  0  0  0  0  0  0  0  0  0  0
   26.5439  -19.2521  -19.1379 C   0  0  0  0  0  0  0  0  0  0  0  0
   27.7261  -19.5231  -18.2530 C   0  0  2  0  0  0  0  0  0  0  0  0
   28.5992  -20.4546  -18.9310 N   0  0  0  0  0  0  0  0  0  0  0  0
   27.2502  -20.1574  -17.0004 C   0  0  0  0  0  0  0  0  0  0  0  0
   26.8764  -21.3720  -16.9637 O   0  0  0  0  0  0  0  0  0  0  0  0
   27.1883  -19.4437  -15.7854 N   0  0  0  0  0  0  0  0  0  0  0  0
   26.7156  -20.0386  -14.5495 C   0  0  1  0  0  0  0  0  0  0  0  0
   27.2860  -19.3023  -13.3557 C   0  0  0  0  0  0  0  0  0  0  0  0
   26.7675  -19.9339  -12.0942 C   0  0  0  0  0  0  0  0  0  0  0  0
   27.2965  -21.1051  -11.6046 C   0  0  0  0  0  0  0  0  0  0  0  0
   26.7647  -21.6211  -10.4411 C   0  0  0  0  0  0  0  0  0  0  0  0
   25.7278  -20.9912   -9.7717 C   0  0  0  0  0  0  0  0  0  0  0  0
   25.1994  -19.8177  -10.2641 C   0  0  0  0  0  0  0  0  0  0  0  0
   25.7440  -19.3162  -11.4295 C   0  0  0  0  0  0  0  0  0  0  0  0
   25.2406  -20.1133  -14.5410 C   0  0  0  0  0  0  0  0  0  0  0  0
   24.6082  -19.0258  -14.7880 O   0  0  0  0  0  0  0  0  0  0  0  0
   24.4770  -21.2619  -14.2892 N   0  0  0  0  0  0  0  0  0  0  0  0
   24.9878  -22.6079  -14.1425 C   0  0  0  0  0  0  0  0  0  0  0  0
   23.7715  -23.4919  -14.5012 C   0  0  0  0  0  0  0  0  0  0  0  0
   22.7004  -22.7144  -13.7656 C   0  0  0  0  0  0  0  0  0  0  0  0
   23.0424  -21.2926  -14.1439 C   0  0  1  0  0  0  0  0  0  0  0  0
   22.5442  -20.3200  -13.1388 C   0  0  0  0  0  0  0  0  0  0  0  0
   23.2085  -19.8585  -12.2005 O   0  0  0  0  0  0  0  0  0  0  0  0
   21.2283  -19.9020  -13.2710 O   0  0  0  0  0  0  0  0  0  0  0  0
  1  2  1  0
  2  3  2  0
  4  2  1  0
  4  5  1  0
  5  6  1  0
  6  8  1  0
  6  7  1  6
  8  9  2  0
 10 11  1  0
 10  8  1  0
 11 12  1  1
 13 14  2  0
 13 12  1  0
 15 14  1  0
 16 15  2  0
 17 16  1  0
 17 18  2  0
 18 13  1  0
 19 11  1  0
 20 19  2  0
 21 19  1  0
 21 25  1  0
 22 23  1  0
 22 21  1  0
 23 24  1  0
 24 25  1  0
 25 26  1  1
 26 28  1  0
 27 26  2  0
M  END
$$$$
