QFP.pdb
     RDKit          3D

 28 29  0  0  1  0  0  0  0  0999 V2000
   25.7598  -20.3042  -21.2439 N   0  0  0  0  0  0  0  0  0  0  0  0
   24.8601  -21.1584  -20.5642 C   0  0  0  0  0  0  0  0  0  0  0  0
   24.4905  -22.2219  -21.1109 O   0  0  0  0  0  0  0  0  0  0  0  0
   24.3472  -20.8189  -19.2193 C   0  0  0  0  0  0  0  0  0  0  0  0
   25.2110  -21.4634  -18.1369 C   0  0  0  0  0  0  0  0  0  0  0  0
   26.0124  -20.4189  -17.4153 C   0  0  2  0  0  0  0  0  0  0  0  0
   27.3406  -20.3886  -17.9852 N   0  0  0  0  0  0  0  0  0  0  0  0
   26.1261  -20.8048  -15.9884 C   0  0  0  0  0  0  0  0  0  0  0  0
   25.9297  -21.9989  -15.5988 O   0  0  0  0  0  0  0  0  0  0  0  0
   26.4585  -19.8647  -14.9907 N   0  0  0  0  0  0  0  0  0  0  0  0
   26.4668  -20.1912  -13.5771 C   0  0  1  0  0  0  0  0  0  0  0  0
   27.3698  -19.2404  -12.8199 C   0  0  0  0  0  0  0  0  0  0  0  0
   27.3850  -19.6277  -11.3677 C   0  0  0  0  0  0  0  0  0  0  0  0
   28.2312  -20.6009  -10.8903 C   0  0  0  0  0  0  0  0  0  0  0  0
   28.1838  -20.8991   -9.5442 C   0  0  0  0  0  0  0  0  0  0  0  0
   27.3153  -20.2472   -8.6836 C   0  0  0  0  0  0  0  0  0  0  0  0
   26.4682  -19.2724   -9.1642 C   0  0  0  0  0  0  0  0  0  0  0  0
   26.5296  -18.9873  -10.5138 C   0  0  0  0  0  0  0  0  0  0  0  0
   25.0890  -20.2367  -13.0474 C   0  0  0  0  0  0  0  0  0  0  0  0
   24.3407  -19.2278  -13.3035 O   0  0  0  0  0  0  0  0  0  0  0  0
   24.5316  -21.2802  -12.2949 N   0  0  0  0  0  0  0  0  0  0  0  0
   25.1816  -22.5288  -11.9596 C   0  0  0  0  0  0  0  0  0  0  0  0
   23.9979  -23.4901  -11.7058 C   0  0  0  0  0  0  0  0  0  0  0  0
   23.1079  -22.5520  -10.9180 C   0  0  0  0  0  0  0  0  0  0  0  0
   23.2025  -21.2849  -11.7348 C   0  0  1  0  0  0  0  0  0  0  0  0
   22.9178  -20.0793  -10.9165 C   0  0  0  0  0  0  0  0  0  0  0  0
   23.7645  -19.2618  -10.5299 O   0  0  0  0  0  0  0  0  0  0  0  0
   21.5945  -19.8612  -10.5626 O   0  0  0  0  0  0  0  0  0  0  0  0
  1  2  1  0
  2  3  2  0
  4  2  1  0
  4  5  1  0
  5  6  1  0
  6  8  1  0
  6  7  1  6
  8  9  2  0
 10 11  1  0
 10  8  1  0
 11 12  1  1
 13 14  2  0
 13 12  1  0
 15 14  1  0
 16 15  2  0
 17 16  1  0
 17 18  2  0
 18 13  1  0
 19 11  1  0
 20 19  2  0
 21 19  1  0
 21 25  1  0
 22 23  1  0
 22 21  1  0
 23 24  1  0
 24 25  1  0
 25 26  1  1
 26 28  1  0
 27 26  2  0
M  END
$$$$
