QFP.pdb
     RDKit          3D

 28 29  0  0  1  0  0  0  0  0999 V2000
   22.2710  -15.4682  -17.2211 N   0  0  0  0  0  0  0  0  0  0  0  0
   22.2143  -16.2020  -18.4292 C   0  0  0  0  0  0  0  0  0  0  0  0
   21.7062  -15.6758  -19.4447 O   0  0  0  0  0  0  0  0  0  0  0  0
   22.7442  -17.5800  -18.5155 C   0  0  0  0  0  0  0  0  0  0  0  0
   24.1562  -17.5767  -19.0981 C   0  0  0  0  0  0  0  0  0  0  0  0
   25.1407  -17.0733  -18.0824 C   0  0  2  0  0  0  0  0  0  0  0  0
   26.3892  -16.7960  -18.7561 N   0  0  0  0  0  0  0  0  0  0  0  0
   25.3790  -18.1383  -17.0789 C   0  0  0  0  0  0  0  0  0  0  0  0
   25.4552  -19.3641  -17.4071 O   0  0  0  0  0  0  0  0  0  0  0  0
   25.5332  -17.8437  -15.7082 N   0  0  0  0  0  0  0  0  0  0  0  0
   25.7759  -18.8668  -14.7086 C   0  0  1  0  0  0  0  0  0  0  0  0
   26.4508  -18.2686  -13.4923 C   0  0  0  0  0  0  0  0  0  0  0  0
   26.7328  -19.3609  -12.4990 C   0  0  0  0  0  0  0  0  0  0  0  0
   25.8920  -19.6050  -11.4384 C   0  0  0  0  0  0  0  0  0  0  0  0
   26.2214  -20.6253  -10.5705 C   0  0  0  0  0  0  0  0  0  0  0  0
   27.3619  -21.3921  -10.7465 C   0  0  0  0  0  0  0  0  0  0  0  0
   28.2030  -21.1457  -11.8099 C   0  0  0  0  0  0  0  0  0  0  0  0
   27.8574  -20.1208  -12.6681 C   0  0  0  0  0  0  0  0  0  0  0  0
   24.5265  -19.5869  -14.3898 C   0  0  0  0  0  0  0  0  0  0  0  0
   23.4796  -18.8696  -14.2079 O   0  0  0  0  0  0  0  0  0  0  0  0
   24.3861  -20.9767  -14.2706 N   0  0  0  0  0  0  0  0  0  0  0  0
   25.4330  -21.9572  -14.4625 C   0  0  0  0  0  0  0  0  0  0  0  0
   24.6551  -23.2435  -14.8234 C   0  0  0  0  0  0  0  0  0  0  0  0
   23.5344  -23.1227  -13.8122 C   0  0  0  0  0  0  0  0  0  0  0  0
   23.1613  -21.6649  -13.9439 C   0  0  1  0  0  0  0  0  0  0  0  0
   22.5209  -21.1464  -12.7090 C   0  0  0  0  0  0  0  0  0  0  0  0
   23.0687  -20.4142  -11.8732 O   0  0  0  0  0  0  0  0  0  0  0  0
   21.2037  -21.5180  -12.4836 O   0  0  0  0  0  0  0  0  0  0  0  0
  1  2  1  0
  2  3  2  0
  4  2  1  0
  4  5  1  0
  5  6  1  0
  6  8  1  0
  6  7  1  6
  8  9  2  0
 10 11  1  0
 10  8  1  0
 11 12  1  1
 13 14  2  0
 13 12  1  0
 15 14  1  0
 16 15  2  0
 17 16  1  0
 17 18  2  0
 18 13  1  0
 19 11  1  0
 20 19  2  0
 21 19  1  0
 21 25  1  0
 22 23  1  0
 22 21  1  0
 23 24  1  0
 24 25  1  0
 25 26  1  1
 26 28  1  0
 27 26  2  0
M  END
$$$$
