QFP.pdb
     RDKit          3D

 28 29  0  0  1  0  0  0  0  0999 V2000
   26.1756  -15.0506  -19.7984 N   0  0  0  0  0  0  0  0  0  0  0  0
   25.6738  -16.2563  -20.3419 C   0  0  0  0  0  0  0  0  0  0  0  0
   26.0964  -16.6533  -21.4511 O   0  0  0  0  0  0  0  0  0  0  0  0
   24.6587  -17.0576  -19.6245 C   0  0  0  0  0  0  0  0  0  0  0  0
   25.2212  -18.4280  -19.2523 C   0  0  0  0  0  0  0  0  0  0  0  0
   26.5024  -18.2773  -18.4841 C   0  0  2  0  0  0  0  0  0  0  0  0
   27.5885  -18.7536  -19.3106 N   0  0  0  0  0  0  0  0  0  0  0  0
   26.4342  -19.1251  -17.2698 C   0  0  0  0  0  0  0  0  0  0  0  0
   26.5062  -20.3928  -17.3320 O   0  0  0  0  0  0  0  0  0  0  0  0
   26.2856  -18.5662  -15.9833 N   0  0  0  0  0  0  0  0  0  0  0  0
   26.1983  -19.3752  -14.7821 C   0  0  1  0  0  0  0  0  0  0  0  0
   26.7384  -18.6130  -13.5905 C   0  0  0  0  0  0  0  0  0  0  0  0
   26.6216  -19.4722  -12.3627 C   0  0  0  0  0  0  0  0  0  0  0  0
   25.6105  -19.2893  -11.4488 C   0  0  0  0  0  0  0  0  0  0  0  0
   25.5731  -20.1190  -10.3474 C   0  0  0  0  0  0  0  0  0  0  0  0
   26.5184  -21.1129  -10.1513 C   0  0  0  0  0  0  0  0  0  0  0  0
   27.5308  -21.2943  -11.0685 C   0  0  0  0  0  0  0  0  0  0  0  0
   27.5522  -20.4548  -12.1644 C   0  0  0  0  0  0  0  0  0  0  0  0
   24.8191  -19.8660  -14.5868 C   0  0  0  0  0  0  0  0  0  0  0  0
   23.8816  -18.9957  -14.6708 O   0  0  0  0  0  0  0  0  0  0  0  0
   24.4483  -21.1916  -14.3205 N   0  0  0  0  0  0  0  0  0  0  0  0
   25.3437  -22.3254  -14.2376 C   0  0  0  0  0  0  0  0  0  0  0  0
   24.4246  -23.5291  -14.5477 C   0  0  0  0  0  0  0  0  0  0  0  0
   23.2193  -23.1110  -13.7320 C   0  0  0  0  0  0  0  0  0  0  0  0
   23.0994  -21.6492  -14.0933 C   0  0  1  0  0  0  0  0  0  0  0  0
   22.3991  -20.8762  -13.0367 C   0  0  0  0  0  0  0  0  0  0  0  0
   22.9396  -20.0794  -12.2572 O   0  0  0  0  0  0  0  0  0  0  0  0
   21.0304  -21.0699  -12.9228 O   0  0  0  0  0  0  0  0  0  0  0  0
  1  2  1  0
  2  3  2  0
  4  2  1  0
  4  5  1  0
  5  6  1  0
  6  8  1  0
  6  7  1  6
  8  9  2  0
 10 11  1  0
 10  8  1  0
 11 12  1  1
 13 14  2  0
 13 12  1  0
 15 14  1  0
 16 15  2  0
 17 16  1  0
 17 18  2  0
 18 13  1  0
 19 11  1  0
 20 19  2  0
 21 19  1  0
 21 25  1  0
 22 23  1  0
 22 21  1  0
 23 24  1  0
 24 25  1  0
 25 26  1  1
 26 28  1  0
 27 26  2  0
M  END
$$$$
