QFP.pdb
     RDKit          3D

 28 29  0  0  1  0  0  0  0  0999 V2000
   24.9977  -17.3270  -17.5033 N   0  0  0  0  0  0  0  0  0  0  0  0
   25.3688  -16.8518  -18.7829 C   0  0  0  0  0  0  0  0  0  0  0  0
   25.0790  -15.6793  -19.1110 O   0  0  0  0  0  0  0  0  0  0  0  0
   26.0931  -17.7142  -19.7415 C   0  0  0  0  0  0  0  0  0  0  0  0
   26.3044  -19.1088  -19.1554 C   0  0  0  0  0  0  0  0  0  0  0  0
   27.5379  -19.1362  -18.3000 C   0  0  2  0  0  0  0  0  0  0  0  0
   28.5618  -19.8789  -18.9997 N   0  0  0  0  0  0  0  0  0  0  0  0
   27.2277  -19.8468  -17.0364 C   0  0  0  0  0  0  0  0  0  0  0  0
   27.0737  -21.1082  -16.9967 O   0  0  0  0  0  0  0  0  0  0  0  0
   27.0877  -19.1576  -15.8137 N   0  0  0  0  0  0  0  0  0  0  0  0
   26.7066  -19.8189  -14.5799 C   0  0  1  0  0  0  0  0  0  0  0  0
   27.2448  -19.0605  -13.3850 C   0  0  0  0  0  0  0  0  0  0  0  0
   26.8833  -19.8014  -12.1282 C   0  0  0  0  0  0  0  0  0  0  0  0
   27.5818  -20.9139  -11.7214 C   0  0  0  0  0  0  0  0  0  0  0  0
   27.1870  -21.5381  -10.5563 C   0  0  0  0  0  0  0  0  0  0  0  0
   26.1201  -21.0718   -9.8052 C   0  0  0  0  0  0  0  0  0  0  0  0
   25.4217  -19.9568  -10.2148 C   0  0  0  0  0  0  0  0  0  0  0  0
   25.8310  -19.3452  -11.3830 C   0  0  0  0  0  0  0  0  0  0  0  0
   25.2450  -20.0251  -14.5323 C   0  0  0  0  0  0  0  0  0  0  0  0
   24.5118  -18.9884  -14.7085 O   0  0  0  0  0  0  0  0  0  0  0  0
   24.5939  -21.2475  -14.3138 N   0  0  0  0  0  0  0  0  0  0  0  0
   25.2296  -22.5431  -14.2077 C   0  0  0  0  0  0  0  0  0  0  0  0
   24.1004  -23.5268  -14.5910 C   0  0  0  0  0  0  0  0  0  0  0  0
   22.9639  -22.8756  -13.8313 C   0  0  0  0  0  0  0  0  0  0  0  0
   23.1691  -21.4173  -14.1676 C   0  0  1  0  0  0  0  0  0  0  0  0
   22.5857  -20.5261  -13.1334 C   0  0  0  0  0  0  0  0  0  0  0  0
   23.2292  -19.9274  -12.2605 O   0  0  0  0  0  0  0  0  0  0  0  0
   21.2090  -20.3579  -13.1563 O   0  0  0  0  0  0  0  0  0  0  0  0
  1  2  1  0
  2  3  2  0
  4  2  1  0
  4  5  1  0
  5  6  1  0
  6  8  1  0
  6  7  1  6
  8  9  2  0
 10 11  1  0
 10  8  1  0
 11 12  1  1
 13 14  2  0
 13 12  1  0
 15 14  1  0
 16 15  2  0
 17 16  1  0
 17 18  2  0
 18 13  1  0
 19 11  1  0
 20 19  2  0
 21 19  1  0
 21 25  1  0
 22 23  1  0
 22 21  1  0
 23 24  1  0
 24 25  1  0
 25 26  1  1
 26 28  1  0
 27 26  2  0
M  END
$$$$
