QFP.pdb
     RDKit          3D

 28 29  0  0  1  0  0  0  0  0999 V2000
   28.9983  -20.0584   -5.7945 N   0  0  0  0  0  0  0  0  0  0  0  0
   28.1580  -18.9270   -5.6729 C   0  0  0  0  0  0  0  0  0  0  0  0
   28.1600  -18.2717   -4.6066 O   0  0  0  0  0  0  0  0  0  0  0  0
   27.2765  -18.5030   -6.7821 C   0  0  0  0  0  0  0  0  0  0  0  0
   27.3703  -19.4854   -7.9479 C   0  0  0  0  0  0  0  0  0  0  0  0
   26.0004  -19.9393   -8.3620 C   0  0  2  0  0  0  0  0  0  0  0  0
   25.5363  -20.9192   -7.4059 N   0  0  0  0  0  0  0  0  0  0  0  0
   26.0940  -20.5916   -9.6900 C   0  0  0  0  0  0  0  0  0  0  0  0
   27.0391  -21.3911   -9.9794 O   0  0  0  0  0  0  0  0  0  0  0  0
   25.1376  -20.3571  -10.6998 N   0  0  0  0  0  0  0  0  0  0  0  0
   25.1813  -21.0186  -11.9903 C   0  0  1  0  0  0  0  0  0  0  0  0
   23.8591  -21.6961  -12.2827 C   0  0  0  0  0  0  0  0  0  0  0  0
   23.9502  -22.4022  -13.6064 C   0  0  0  0  0  0  0  0  0  0  0  0
   23.3799  -21.8788  -14.7431 C   0  0  0  0  0  0  0  0  0  0  0  0
   23.5072  -22.5884  -15.9191 C   0  0  0  0  0  0  0  0  0  0  0  0
   24.1862  -23.7950  -15.9723 C   0  0  0  0  0  0  0  0  0  0  0  0
   24.7568  -24.3177  -14.8320 C   0  0  0  0  0  0  0  0  0  0  0  0
   24.6194  -23.5937  -13.6645 C   0  0  0  0  0  0  0  0  0  0  0  0
   25.5997  -20.0722  -13.0440 C   0  0  0  0  0  0  0  0  0  0  0  0
   24.9279  -18.9846  -13.1401 O   0  0  0  0  0  0  0  0  0  0  0  0
   26.6607  -20.2577  -13.9416 N   0  0  0  0  0  0  0  0  0  0  0  0
   27.5877  -21.3689  -13.9453 C   0  0  0  0  0  0  0  0  0  0  0  0
   28.8322  -20.7927  -14.6586 C   0  0  0  0  0  0  0  0  0  0  0  0
   28.1297  -20.0381  -15.7676 C   0  0  0  0  0  0  0  0  0  0  0  0
   27.0123  -19.3577  -15.0125 C   0  0  1  0  0  0  0  0  0  0  0  0
   25.8637  -19.0387  -15.8975 C   0  0  0  0  0  0  0  0  0  0  0  0
   25.8091  -18.0795  -16.6795 O   0  0  0  0  0  0  0  0  0  0  0  0
   24.7701  -19.8896  -15.8349 O   0  0  0  0  0  0  0  0  0  0  0  0
  1  2  1  0
  2  3  2  0
  4  2  1  0
  4  5  1  0
  5  6  1  0
  6  8  1  0
  6  7  1  1
  8  9  2  0
 10 11  1  0
 10  8  1  0
 11 12  1  6
 13 14  2  0
 13 12  1  0
 15 14  1  0
 16 15  2  0
 17 16  1  0
 17 18  2  0
 18 13  1  0
 19 11  1  0
 20 19  2  0
 21 19  1  0
 21 25  1  0
 22 23  1  0
 22 21  1  0
 23 24  1  0
 24 25  1  0
 25 26  1  6
 26 28  1  0
 27 26  2  0
M  END
$$$$
