QFP.pdb
     RDKit          3D

 28 29  0  0  1  0  0  0  0  0999 V2000
   21.1719  -20.4809  -18.8649 N   0  0  0  0  0  0  0  0  0  0  0  0
   21.0611  -19.7753  -20.0860 C   0  0  0  0  0  0  0  0  0  0  0  0
   20.0735  -19.9803  -20.8269 O   0  0  0  0  0  0  0  0  0  0  0  0
   22.0905  -18.7994  -20.5045 C   0  0  0  0  0  0  0  0  0  0  0  0
   23.1972  -18.7035  -19.4561 C   0  0  0  0  0  0  0  0  0  0  0  0
   22.7300  -17.9064  -18.2727 C   0  0  2  0  0  0  0  0  0  0  0  0
   22.8636  -16.5019  -18.5875 N   0  0  0  0  0  0  0  0  0  0  0  0
   23.6059  -18.2102  -17.1158 C   0  0  0  0  0  0  0  0  0  0  0  0
   24.8594  -18.0011  -17.1504 O   0  0  0  0  0  0  0  0  0  0  0  0
   23.0910  -18.7472  -15.9175 N   0  0  0  0  0  0  0  0  0  0  0  0
   23.9317  -19.0840  -14.7840 C   0  0  1  0  0  0  0  0  0  0  0  0
   23.1502  -18.9674  -13.4924 C   0  0  0  0  0  0  0  0  0  0  0  0
   23.9906  -19.4875  -12.3600 C   0  0  0  0  0  0  0  0  0  0  0  0
   23.7478  -20.7136  -11.7865 C   0  0  0  0  0  0  0  0  0  0  0  0
   24.5640  -21.1189  -10.7509 C   0  0  0  0  0  0  0  0  0  0  0  0
   25.6029  -20.3269  -10.2891 C   0  0  0  0  0  0  0  0  0  0  0  0
   25.8444  -19.0986  -10.8653 C   0  0  0  0  0  0  0  0  0  0  0  0
   25.0175  -18.7096  -11.9003 C   0  0  0  0  0  0  0  0  0  0  0  0
   24.5523  -20.4104  -14.9749 C   0  0  0  0  0  0  0  0  0  0  0  0
   23.7631  -21.3785  -15.2637 O   0  0  0  0  0  0  0  0  0  0  0  0
   25.9199  -20.7011  -14.8695 N   0  0  0  0  0  0  0  0  0  0  0  0
   26.9780  -19.7420  -14.6360 C   0  0  0  0  0  0  0  0  0  0  0  0
   28.2290  -20.4437  -15.2126 C   0  0  0  0  0  0  0  0  0  0  0  0
   27.9721  -21.8386  -14.6821 C   0  0  0  0  0  0  0  0  0  0  0  0
   26.5034  -22.0148  -14.9879 C   0  0  1  0  0  0  0  0  0  0  0  0
   25.8688  -23.0103  -14.0875 C   0  0  0  0  0  0  0  0  0  0  0  0
   25.2672  -22.7434  -13.0380 O   0  0  0  0  0  0  0  0  0  0  0  0
   25.9636  -24.3426  -14.4617 O   0  0  0  0  0  0  0  0  0  0  0  0
  1  2  1  0
  2  3  2  0
  4  2  1  0
  4  5  1  0
  5  6  1  0
  6  8  1  0
  6  7  1  6
  8  9  2  0
 10 11  1  0
 10  8  1  0
 11 12  1  1
 13 14  2  0
 13 12  1  0
 15 14  1  0
 16 15  2  0
 17 16  1  0
 17 18  2  0
 18 13  1  0
 19 11  1  0
 20 19  2  0
 21 19  1  0
 21 25  1  0
 22 23  1  0
 22 21  1  0
 23 24  1  0
 24 25  1  0
 25 26  1  1
 26 28  1  0
 27 26  2  0
M  END
$$$$
