QFP.pdb
     RDKit          3D

 28 29  0  0  1  0  0  0  0  0999 V2000
   22.9457  -22.0432  -13.6752 N   0  0  0  0  0  0  0  0  0  0  0  0
   23.0425  -20.6643  -13.9756 C   0  0  0  0  0  0  0  0  0  0  0  0
   22.4817  -20.2179  -15.0016 O   0  0  0  0  0  0  0  0  0  0  0  0
   23.7940  -19.7391  -13.1002 C   0  0  0  0  0  0  0  0  0  0  0  0
   24.2903  -20.4655  -11.8516 C   0  0  0  0  0  0  0  0  0  0  0  0
   25.7872  -20.3909  -11.7623 C   0  0  2  0  0  0  0  0  0  0  0  0
   26.3472  -21.3777  -12.6580 N   0  0  0  0  0  0  0  0  0  0  0  0
   26.2010  -20.7285  -10.3793 C   0  0  0  0  0  0  0  0  0  0  0  0
   26.3068  -21.9328   -9.9859 O   0  0  0  0  0  0  0  0  0  0  0  0
   26.4982  -19.7286   -9.4299 N   0  0  0  0  0  0  0  0  0  0  0  0
   26.9937  -20.0319   -8.1004 C   0  0  1  0  0  0  0  0  0  0  0  0
   27.8704  -18.9066   -7.5930 C   0  0  0  0  0  0  0  0  0  0  0  0
   28.3920  -19.2654   -6.2298 C   0  0  0  0  0  0  0  0  0  0  0  0
   27.9748  -18.6005   -5.1006 C   0  0  0  0  0  0  0  0  0  0  0  0
   28.5014  -18.9894   -3.8864 C   0  0  0  0  0  0  0  0  0  0  0  0
   29.4247  -20.0179   -3.7884 C   0  0  0  0  0  0  0  0  0  0  0  0
   29.8413  -20.6829   -4.9212 C   0  0  0  0  0  0  0  0  0  0  0  0
   29.3036  -20.2800   -6.1274 C   0  0  0  0  0  0  0  0  0  0  0  0
   25.8756  -20.3578   -7.1923 C   0  0  0  0  0  0  0  0  0  0  0  0
   24.8726  -19.5595   -7.2053 O   0  0  0  0  0  0  0  0  0  0  0  0
   25.8152  -21.4570   -6.3240 N   0  0  0  0  0  0  0  0  0  0  0  0
   26.7904  -22.5221   -6.2307 C   0  0  0  0  0  0  0  0  0  0  0  0
   25.9787  -23.6979   -5.6404 C   0  0  0  0  0  0  0  0  0  0  0  0
   25.1930  -22.9311   -4.5976 C   0  0  0  0  0  0  0  0  0  0  0  0
   24.7562  -21.7146   -5.3792 C   0  0  1  0  0  0  0  0  0  0  0  0
   24.4831  -20.5573   -4.4902 C   0  0  0  0  0  0  0  0  0  0  0  0
   25.2419  -19.5932   -4.3188 O   0  0  0  0  0  0  0  0  0  0  0  0
   23.2791  -20.5674   -3.8016 O   0  0  0  0  0  0  0  0  0  0  0  0
  1  2  1  0
  2  3  2  0
  4  2  1  0
  4  5  1  0
  5  6  1  0
  6  8  1  0
  6  7  1  6
  8  9  2  0
 10 11  1  0
 10  8  1  0
 11 12  1  1
 13 14  2  0
 13 12  1  0
 15 14  1  0
 16 15  2  0
 17 16  1  0
 17 18  2  0
 18 13  1  0
 19 11  1  0
 20 19  2  0
 21 19  1  0
 21 25  1  0
 22 23  1  0
 22 21  1  0
 23 24  1  0
 24 25  1  0
 25 26  1  1
 26 28  1  0
 27 26  2  0
M  END
$$$$
