QFP.pdb
     RDKit          3D

 28 29  0  0  1  0  0  0  0  0999 V2000
   21.2388  -20.8634  -16.2696 N   0  0  0  0  0  0  0  0  0  0  0  0
   19.8311  -20.8165  -16.4013 C   0  0  0  0  0  0  0  0  0  0  0  0
   19.2951  -21.2721  -17.4364 O   0  0  0  0  0  0  0  0  0  0  0  0
   18.9798  -20.2391  -15.3387 C   0  0  0  0  0  0  0  0  0  0  0  0
   19.8400  -19.6445  -14.2254 C   0  0  0  0  0  0  0  0  0  0  0  0
   20.6125  -20.7256  -13.5262 C   0  0  2  0  0  0  0  0  0  0  0  0
   19.9897  -20.9759  -12.2459 N   0  0  0  0  0  0  0  0  0  0  0  0
   21.9949  -20.2467  -13.2865 C   0  0  0  0  0  0  0  0  0  0  0  0
   22.2323  -19.1852  -12.6284 O   0  0  0  0  0  0  0  0  0  0  0  0
   23.1170  -20.9461  -13.7777 N   0  0  0  0  0  0  0  0  0  0  0  0
   24.4794  -20.5036  -13.5474 C   0  0  1  0  0  0  0  0  0  0  0  0
   25.2756  -21.5847  -12.8473 C   0  0  0  0  0  0  0  0  0  0  0  0
   25.5542  -21.1538  -11.4346 C   0  0  0  0  0  0  0  0  0  0  0  0
   26.8387  -21.0090  -10.9654 C   0  0  0  0  0  0  0  0  0  0  0  0
   27.0105  -20.6105   -9.6560 C   0  0  0  0  0  0  0  0  0  0  0  0
   25.9319  -20.3591   -8.8233 C   0  0  0  0  0  0  0  0  0  0  0  0
   24.6456  -20.5048   -9.2956 C   0  0  0  0  0  0  0  0  0  0  0  0
   24.4930  -20.9043  -10.6084 C   0  0  0  0  0  0  0  0  0  0  0  0
   25.0962  -20.0465  -14.8090 C   0  0  0  0  0  0  0  0  0  0  0  0
   24.8189  -20.7221  -15.8627 O   0  0  0  0  0  0  0  0  0  0  0  0
   25.9518  -18.9453  -14.9541 N   0  0  0  0  0  0  0  0  0  0  0  0
   26.3044  -17.9994  -13.9173 C   0  0  0  0  0  0  0  0  0  0  0  0
   26.7110  -16.7363  -14.7103 C   0  0  0  0  0  0  0  0  0  0  0  0
   27.5138  -17.4046  -15.8066 C   0  0  0  0  0  0  0  0  0  0  0  0
   26.6194  -18.5648  -16.1747 C   0  0  1  0  0  0  0  0  0  0  0  0
   27.3869  -19.6805  -16.7836 C   0  0  0  0  0  0  0  0  0  0  0  0
   27.7715  -20.6940  -16.1841 O   0  0  0  0  0  0  0  0  0  0  0  0
   27.6917  -19.5678  -18.1320 O   0  0  0  0  0  0  0  0  0  0  0  0
  1  2  1  0
  2  3  2  0
  4  2  1  0
  4  5  1  0
  5  6  1  0
  6  8  1  0
  6  7  1  1
  8  9  2  0
 10 11  1  0
 10  8  1  0
 11 12  1  6
 13 14  2  0
 13 12  1  0
 15 14  1  0
 16 15  2  0
 17 16  1  0
 17 18  2  0
 18 13  1  0
 19 11  1  0
 20 19  2  0
 21 19  1  0
 21 25  1  0
 22 23  1  0
 22 21  1  0
 23 24  1  0
 24 25  1  0
 25 26  1  1
 26 28  1  0
 27 26  2  0
M  END
$$$$
