WEN.pdb
     RDKit          3D

 32 33  0  0  1  0  0  0  0  0999 V2000
   32.8598  -31.7703  -17.6643 N   0  0  0  0  0  0  0  0  0  0  0  0
   32.2799  -30.7972  -18.5529 C   0  0  1  0  0  0  0  0  0  0  0  0
   32.3368  -31.1862  -19.9979 C   0  0  0  0  0  0  0  0  0  0  0  0
   33.6154  -30.7958  -20.6407 C   0  0  0  0  0  0  0  0  0  0  0  0
   34.8769  -31.3081  -20.3792 C   0  0  0  0  0  0  0  0  0  0  0  0
   35.8050  -30.7073  -21.1232 N   0  0  0  0  0  0  0  0  0  0  0  0
   35.1849  -29.7816  -21.8977 C   0  0  0  0  0  0  0  0  0  0  0  0
   35.7065  -28.9049  -22.8375 C   0  0  0  0  0  0  0  0  0  0  0  0
   34.8478  -28.0568  -23.5012 C   0  0  0  0  0  0  0  0  0  0  0  0
   33.5017  -28.0972  -23.2199 C   0  0  0  0  0  0  0  0  0  0  0  0
   32.9966  -28.9666  -22.2897 C   0  0  0  0  0  0  0  0  0  0  0  0
   33.8219  -29.8324  -21.6019 C   0  0  0  0  0  0  0  0  0  0  0  0
   30.8770  -30.4689  -18.1775 C   0  0  0  0  0  0  0  0  0  0  0  0
   30.2700  -31.2957  -17.4438 O   0  0  0  0  0  0  0  0  0  0  0  0
   30.2377  -29.2690  -18.6226 N   0  0  0  0  0  0  0  0  0  0  0  0
   28.8897  -29.0309  -18.2206 C   0  0  1  0  0  0  0  0  0  0  0  0
   28.8364  -27.5813  -17.6739 C   0  0  0  0  0  0  0  0  0  0  0  0
   27.4210  -27.3698  -17.1491 C   0  0  0  0  0  0  0  0  0  0  0  0
   27.2415  -26.0102  -16.6322 C   0  0  0  0  0  0  0  0  0  0  0  0
   28.1668  -25.1753  -16.6623 O   0  0  0  0  0  0  0  0  0  0  0  0
   27.8654  -29.2274  -19.2432 C   0  0  0  0  0  0  0  0  0  0  0  0
   28.1026  -28.8768  -20.4525 O   0  0  0  0  0  0  0  0  0  0  0  0
   26.0238  -25.6316  -16.0967 O   0  0  0  0  0  0  0  0  0  0  0  0
   24.4650  -33.1283  -18.8245 N   0  0  0  0  0  0  0  0  0  0  0  0
   24.8811  -32.2375  -19.8516 C   0  0  0  0  0  0  0  0  0  0  0  0
   25.5865  -32.7298  -20.7699 O   0  0  0  0  0  0  0  0  0  0  0  0
   24.4607  -30.8242  -19.7646 C   0  0  0  0  0  0  0  0  0  0  0  0
   25.5852  -29.9369  -20.1048 C   0  0  2  0  0  0  0  0  0  0  0  0
   26.5741  -29.7872  -19.0623 N   0  0  0  0  0  0  0  0  0  0  0  0
   25.1301  -28.6447  -20.6521 C   0  0  0  0  0  0  0  0  0  0  0  0
   25.0571  -27.6537  -19.8910 O   0  0  0  0  0  0  0  0  0  0  0  0
   24.7780  -28.4920  -21.9909 O   0  0  0  0  0  0  0  0  0  0  0  0
  2  3  1  0
  2  1  1  1
  3  4  1  0
  4  5  2  0
  5  6  1  0
  7  6  1  0
  8  7  2  0
  9  8  1  0
 10 11  1  0
 10  9  2  0
 11 12  2  0
 12  4  1  0
 12  7  1  0
 13  2  1  0
 13 14  2  0
 15 13  1  0
 16 15  1  0
 16 17  1  6
 18 17  1  0
 19 20  2  0
 19 18  1  0
 21 16  1  0
 21 22  2  0
 23 19  1  0
 25 26  2  0
 25 24  1  0
 27 25  1  0
 28 29  1  0
 28 27  1  1
 29 21  1  0
 30 28  1  0
 31 30  2  0
 32 30  1  0
M  END
$$$$
