WEN.pdb
     RDKit          3D

 32 33  0  0  1  0  0  0  0  0999 V2000
   26.8708  -19.4342  -11.7518 N   0  0  0  0  0  0  0  0  0  0  0  0
   26.5055  -20.8268  -11.7457 C   0  0  1  0  0  0  0  0  0  0  0  0
   25.9533  -21.3027  -10.4375 C   0  0  0  0  0  0  0  0  0  0  0  0
   26.8312  -20.9591   -9.2924 C   0  0  0  0  0  0  0  0  0  0  0  0
   26.4857  -20.2470   -8.1541 C   0  0  0  0  0  0  0  0  0  0  0  0
   27.5317  -20.0996   -7.3416 N   0  0  0  0  0  0  0  0  0  0  0  0
   28.5979  -20.7094   -7.9181 C   0  0  0  0  0  0  0  0  0  0  0  0
   29.9053  -20.8381   -7.4731 C   0  0  0  0  0  0  0  0  0  0  0  0
   30.8083  -21.5208   -8.2578 C   0  0  0  0  0  0  0  0  0  0  0  0
   30.3974  -22.0561   -9.4566 C   0  0  0  0  0  0  0  0  0  0  0  0
   29.1039  -21.9231   -9.8873 C   0  0  0  0  0  0  0  0  0  0  0  0
   28.1679  -21.2465   -9.1324 C   0  0  0  0  0  0  0  0  0  0  0  0
   25.5522  -21.1556  -12.8411 C   0  0  0  0  0  0  0  0  0  0  0  0
   24.7369  -20.2561  -13.1825 O   0  0  0  0  0  0  0  0  0  0  0  0
   25.5550  -22.4326  -13.4861 N   0  0  0  0  0  0  0  0  0  0  0  0
   24.6206  -22.6609  -14.5396 C   0  0  1  0  0  0  0  0  0  0  0  0
   25.1231  -23.9022  -15.3207 C   0  0  0  0  0  0  0  0  0  0  0  0
   24.1399  -24.1190  -16.4652 C   0  0  0  0  0  0  0  0  0  0  0  0
   23.4168  -25.3847  -16.3144 C   0  0  0  0  0  0  0  0  0  0  0  0
   22.1945  -25.4673  -16.5454 O   0  0  0  0  0  0  0  0  0  0  0  0
   23.2269  -22.8402  -14.1407 C   0  0  0  0  0  0  0  0  0  0  0  0
   22.9131  -23.7979  -13.3496 O   0  0  0  0  0  0  0  0  0  0  0  0
   24.0930  -26.5205  -15.9077 O   0  0  0  0  0  0  0  0  0  0  0  0
   21.1874  -20.6228  -11.1266 N   0  0  0  0  0  0  0  0  0  0  0  0
   20.4058  -21.5463  -11.8736 C   0  0  0  0  0  0  0  0  0  0  0  0
   19.9867  -22.5576  -11.2533 O   0  0  0  0  0  0  0  0  0  0  0  0
   20.1489  -21.2535  -13.2984 C   0  0  0  0  0  0  0  0  0  0  0  0
   20.7472  -22.2963  -14.1481 C   0  0  2  0  0  0  0  0  0  0  0  0
   22.1170  -22.0489  -14.5349 N   0  0  0  0  0  0  0  0  0  0  0  0
   19.8837  -22.6471  -15.2917 C   0  0  0  0  0  0  0  0  0  0  0  0
   18.6900  -22.9582  -15.0796 O   0  0  0  0  0  0  0  0  0  0  0  0
   20.3552  -22.6437  -16.6022 O   0  0  0  0  0  0  0  0  0  0  0  0
  2  3  1  0
  2  1  1  1
  3  4  1  0
  4  5  2  0
  5  6  1  0
  7  6  1  0
  8  7  2  0
  9  8  1  0
 10 11  1  0
 10  9  2  0
 11 12  2  0
 12  4  1  0
 12  7  1  0
 13  2  1  0
 13 14  2  0
 15 13  1  0
 16 15  1  0
 16 17  1  1
 18 17  1  0
 19 20  2  0
 19 18  1  0
 21 16  1  0
 21 22  2  0
 23 19  1  0
 25 26  2  0
 25 24  1  0
 27 25  1  0
 28 29  1  0
 28 27  1  6
 29 21  1  0
 30 28  1  0
 31 30  2  0
 32 30  1  0
M  END
$$$$
