WEN.pdb
     RDKit          3D

 32 33  0  0  1  0  0  0  0  0999 V2000
   26.3177  -19.7081  -11.7280 N   0  0  0  0  0  0  0  0  0  0  0  0
   25.4452  -20.7308  -11.2125 C   0  0  1  0  0  0  0  0  0  0  0  0
   25.6802  -21.0573   -9.7700 C   0  0  0  0  0  0  0  0  0  0  0  0
   27.1139  -20.9808   -9.3973 C   0  0  0  0  0  0  0  0  0  0  0  0
   28.1943  -21.4747  -10.1120 C   0  0  0  0  0  0  0  0  0  0  0  0
   29.3400  -21.2535   -9.4681 N   0  0  0  0  0  0  0  0  0  0  0  0
   29.0508  -20.6075   -8.3104 C   0  0  0  0  0  0  0  0  0  0  0  0
   29.8898  -20.1561   -7.3024 C   0  0  0  0  0  0  0  0  0  0  0  0
   29.3359  -19.5146   -6.2167 C   0  0  0  0  0  0  0  0  0  0  0  0
   27.9730  -19.3368   -6.1558 C   0  0  0  0  0  0  0  0  0  0  0  0
   27.1530  -19.7867   -7.1566 C   0  0  0  0  0  0  0  0  0  0  0  0
   27.6667  -20.4347   -8.2611 C   0  0  0  0  0  0  0  0  0  0  0  0
   24.0101  -20.3939  -11.4224 C   0  0  0  0  0  0  0  0  0  0  0  0
   23.6375  -19.2353  -11.0918 O   0  0  0  0  0  0  0  0  0  0  0  0
   23.0871  -21.3359  -11.9769 N   0  0  0  0  0  0  0  0  0  0  0  0
   21.7520  -20.9040  -12.2347 C   0  0  1  0  0  0  0  0  0  0  0  0
   21.8160  -19.9692  -13.4697 C   0  0  0  0  0  0  0  0  0  0  0  0
   20.3892  -19.5002  -13.7303 C   0  0  0  0  0  0  0  0  0  0  0  0
   20.1477  -19.2972  -15.1615 C   0  0  0  0  0  0  0  0  0  0  0  0
   21.0131  -18.7903  -15.9018 O   0  0  0  0  0  0  0  0  0  0  0  0
   20.7607  -21.9562  -12.4434 C   0  0  0  0  0  0  0  0  0  0  0  0
   19.8912  -21.8308  -13.3761 O   0  0  0  0  0  0  0  0  0  0  0  0
   18.9374  -19.6719  -15.7161 O   0  0  0  0  0  0  0  0  0  0  0  0
   18.8636  -23.9607   -7.2146 N   0  0  0  0  0  0  0  0  0  0  0  0
   18.6416  -23.7403   -8.6016 C   0  0  0  0  0  0  0  0  0  0  0  0
   17.4936  -24.0151   -9.0369 O   0  0  0  0  0  0  0  0  0  0  0  0
   19.7575  -23.2139   -9.4136 C   0  0  0  0  0  0  0  0  0  0  0  0
   19.5209  -23.4861  -10.8410 C   0  0  2  0  0  0  0  0  0  0  0  0
   20.6293  -23.1637  -11.7099 N   0  0  0  0  0  0  0  0  0  0  0  0
   18.2415  -22.9221  -11.3117 C   0  0  0  0  0  0  0  0  0  0  0  0
   17.4773  -23.6375  -11.9980 O   0  0  0  0  0  0  0  0  0  0  0  0
   17.8562  -21.6167  -11.0168 O   0  0  0  0  0  0  0  0  0  0  0  0
  2  3  1  0
  2  1  1  1
  3  4  1  0
  4  5  2  0
  5  6  1  0
  7  6  1  0
  8  7  2  0
  9  8  1  0
 10 11  1  0
 10  9  2  0
 11 12  2  0
 12  4  1  0
 12  7  1  0
 13  2  1  0
 13 14  2  0
 15 13  1  0
 16 15  1  0
 16 17  1  6
 18 17  1  0
 19 20  2  0
 19 18  1  0
 21 16  1  0
 21 22  2  0
 23 19  1  0
 25 26  2  0
 25 24  1  0
 27 25  1  0
 28 29  1  0
 28 27  1  1
 29 21  1  0
 30 28  1  0
 31 30  2  0
 32 30  1  0
M  END
$$$$
