WEN.pdb
     RDKit          3D

 32 33  0  0  1  0  0  0  0  0999 V2000
   27.4506  -19.5711  -11.1957 N   0  0  0  0  0  0  0  0  0  0  0  0
   26.8074  -20.8587  -11.1598 C   0  0  1  0  0  0  0  0  0  0  0  0
   26.3349  -21.2622   -9.7972 C   0  0  0  0  0  0  0  0  0  0  0  0
   27.3030  -20.9043   -8.7319 C   0  0  0  0  0  0  0  0  0  0  0  0
   27.0379  -20.2335   -7.5479 C   0  0  0  0  0  0  0  0  0  0  0  0
   28.1497  -20.0567   -6.8346 N   0  0  0  0  0  0  0  0  0  0  0  0
   29.1810  -20.6050   -7.5253 C   0  0  0  0  0  0  0  0  0  0  0  0
   30.5293  -20.6843   -7.2098 C   0  0  0  0  0  0  0  0  0  0  0  0
   31.3814  -21.3082   -8.0939 C   0  0  0  0  0  0  0  0  0  0  0  0
   30.8808  -21.8353   -9.2620 C   0  0  0  0  0  0  0  0  0  0  0  0
   29.5474  -21.7516   -9.5644 C   0  0  0  0  0  0  0  0  0  0  0  0
   28.6599  -21.1345   -8.7069 C   0  0  0  0  0  0  0  0  0  0  0  0
   25.6782  -20.9423  -12.1266 C   0  0  0  0  0  0  0  0  0  0  0  0
   24.9157  -19.9411  -12.2077 O   0  0  0  0  0  0  0  0  0  0  0  0
   25.4609  -22.1028  -12.9347 N   0  0  0  0  0  0  0  0  0  0  0  0
   24.4553  -22.0456  -13.9449 C   0  0  1  0  0  0  0  0  0  0  0  0
   24.7043  -23.2480  -14.8912 C   0  0  0  0  0  0  0  0  0  0  0  0
   25.3823  -22.6852  -16.1350 C   0  0  0  0  0  0  0  0  0  0  0  0
   26.7330  -22.2027  -15.8339 C   0  0  0  0  0  0  0  0  0  0  0  0
   27.5886  -22.9459  -15.3147 O   0  0  0  0  0  0  0  0  0  0  0  0
   23.0706  -22.0419  -13.4799 C   0  0  0  0  0  0  0  0  0  0  0  0
   22.7474  -22.7298  -12.4484 O   0  0  0  0  0  0  0  0  0  0  0  0
   27.0794  -20.8963  -16.1272 O   0  0  0  0  0  0  0  0  0  0  0  0
   18.4765  -19.3309  -11.6385 N   0  0  0  0  0  0  0  0  0  0  0  0
   18.7222  -19.8972  -12.9194 C   0  0  0  0  0  0  0  0  0  0  0  0
   17.7281  -20.3831  -13.5183 O   0  0  0  0  0  0  0  0  0  0  0  0
   20.1035  -19.8727  -13.4419 C   0  0  0  0  0  0  0  0  0  0  0  0
   20.6639  -21.2339  -13.4629 C   0  0  2  0  0  0  0  0  0  0  0  0
   21.9796  -21.3371  -14.0511 N   0  0  0  0  0  0  0  0  0  0  0  0
   19.7131  -22.2202  -14.0102 C   0  0  0  0  0  0  0  0  0  0  0  0
   19.7083  -22.4417  -15.2422 O   0  0  0  0  0  0  0  0  0  0  0  0
   18.8186  -22.9137  -13.1987 O   0  0  0  0  0  0  0  0  0  0  0  0
  2  3  1  0
  2  1  1  1
  3  4  1  0
  4  5  2  0
  5  6  1  0
  7  6  1  0
  8  7  2  0
  9  8  1  0
 10 11  1  0
 10  9  2  0
 11 12  2  0
 12  4  1  0
 12  7  1  0
 13  2  1  0
 13 14  2  0
 15 13  1  0
 16 15  1  0
 16 17  1  6
 18 17  1  0
 19 20  2  0
 19 18  1  0
 21 16  1  0
 21 22  2  0
 23 19  1  0
 25 26  2  0
 25 24  1  0
 27 25  1  0
 28 29  1  0
 28 27  1  6
 29 21  1  0
 30 28  1  0
 31 30  2  0
 32 30  1  0
M  END
$$$$
