WEN.pdb
     RDKit          3D

 32 33  0  0  1  0  0  0  0  0999 V2000
   16.3898  -18.3315    3.5596 N   0  0  0  0  0  0  0  0  0  0  0  0
   16.7307  -19.3905    4.4736 C   0  0  1  0  0  0  0  0  0  0  0  0
   17.7548  -20.3445    3.9409 C   0  0  0  0  0  0  0  0  0  0  0  0
   17.3091  -21.0193    2.6974 C   0  0  0  0  0  0  0  0  0  0  0  0
   17.0437  -20.4293    1.4712 C   0  0  0  0  0  0  0  0  0  0  0  0
   16.6370  -21.3325    0.5796 N   0  0  0  0  0  0  0  0  0  0  0  0
   16.6218  -22.5445    1.1895 C   0  0  0  0  0  0  0  0  0  0  0  0
   16.2796  -23.7935    0.6927 C   0  0  0  0  0  0  0  0  0  0  0  0
   16.3562  -24.8838    1.5308 C   0  0  0  0  0  0  0  0  0  0  0  0
   16.7674  -24.7121    2.8324 C   0  0  0  0  0  0  0  0  0  0  0  0
   17.1030  -23.4742    3.3134 C   0  0  0  0  0  0  0  0  0  0  0  0
   17.0396  -22.3558    2.5078 C   0  0  0  0  0  0  0  0  0  0  0  0
   17.1757  -18.8633    5.7930 C   0  0  0  0  0  0  0  0  0  0  0  0
   18.0954  -18.0005    5.7865 O   0  0  0  0  0  0  0  0  0  0  0  0
   16.5896  -19.3081    7.0200 N   0  0  0  0  0  0  0  0  0  0  0  0
   17.1288  -18.8154    8.2455 C   0  0  1  0  0  0  0  0  0  0  0  0
   15.9575  -18.7639    9.2597 C   0  0  0  0  0  0  0  0  0  0  0  0
   16.4914  -18.0569   10.5001 C   0  0  0  0  0  0  0  0  0  0  0  0
   16.4870  -16.6015   10.3277 C   0  0  0  0  0  0  0  0  0  0  0  0
   17.5299  -15.9756   10.0543 O   0  0  0  0  0  0  0  0  0  0  0  0
   18.2534  -19.5616    8.8038 C   0  0  0  0  0  0  0  0  0  0  0  0
   18.4181  -20.7915    8.4844 O   0  0  0  0  0  0  0  0  0  0  0  0
   15.3067  -15.8944   10.4684 O   0  0  0  0  0  0  0  0  0  0  0  0
   23.4304  -19.6643   11.8248 N   0  0  0  0  0  0  0  0  0  0  0  0
   22.7028  -20.0891   10.6795 C   0  0  0  0  0  0  0  0  0  0  0  0
   23.0143  -21.2100   10.2004 O   0  0  0  0  0  0  0  0  0  0  0  0
   21.6529  -19.1968   10.1471 C   0  0  0  0  0  0  0  0  0  0  0  0
   20.3387  -19.8561   10.2216 C   0  0  2  0  0  0  0  0  0  0  0  0
   19.2403  -19.0757    9.7001 N   0  0  0  0  0  0  0  0  0  0  0  0
   20.0651  -20.4045   11.5635 C   0  0  0  0  0  0  0  0  0  0  0  0
   19.9231  -19.6162   12.5254 O   0  0  0  0  0  0  0  0  0  0  0  0
   19.9598  -21.7738   11.7950 O   0  0  0  0  0  0  0  0  0  0  0  0
  2  3  1  0
  2  1  1  6
  3  4  1  0
  4  5  2  0
  5  6  1  0
  7  6  1  0
  8  7  2  0
  9  8  1  0
 10 11  1  0
 10  9  2  0
 11 12  2  0
 12  4  1  0
 12  7  1  0
 13  2  1  0
 13 14  2  0
 15 13  1  0
 16 15  1  0
 16 17  1  1
 18 17  1  0
 19 20  2  0
 19 18  1  0
 21 16  1  0
 21 22  2  0
 23 19  1  0
 25 26  2  0
 25 24  1  0
 27 25  1  0
 28 29  1  0
 28 27  1  1
 29 21  1  0
 30 28  1  0
 31 30  2  0
 32 30  1  0
M  END
$$$$
