WEN.pdb
     RDKit          3D

 32 33  0  0  1  0  0  0  0  0999 V2000
   28.1236  -20.2973  -11.7402 N   0  0  0  0  0  0  0  0  0  0  0  0
   26.9319  -21.0488  -11.4434 C   0  0  1  0  0  0  0  0  0  0  0  0
   26.7136  -21.2861   -9.9810 C   0  0  0  0  0  0  0  0  0  0  0  0
   27.9708  -21.2009   -9.1985 C   0  0  0  0  0  0  0  0  0  0  0  0
   29.1850  -21.8017   -9.4932 C   0  0  0  0  0  0  0  0  0  0  0  0
   30.0951  -21.5340   -8.5572 N   0  0  0  0  0  0  0  0  0  0  0  0
   29.5099  -20.7492   -7.6176 C   0  0  0  0  0  0  0  0  0  0  0  0
   30.0322  -20.2026   -6.4547 C   0  0  0  0  0  0  0  0  0  0  0  0
   29.2164  -19.4244   -5.6635 C   0  0  0  0  0  0  0  0  0  0  0  0
   27.9112  -19.2076   -6.0407 C   0  0  0  0  0  0  0  0  0  0  0  0
   27.4049  -19.7523   -7.1911 C   0  0  0  0  0  0  0  0  0  0  0  0
   28.1877  -20.5383   -8.0116 C   0  0  0  0  0  0  0  0  0  0  0  0
   25.7183  -20.4220  -12.0359 C   0  0  0  0  0  0  0  0  0  0  0  0
   25.4585  -19.2364  -11.6934 O   0  0  0  0  0  0  0  0  0  0  0  0
   24.8787  -21.1250  -12.9565 N   0  0  0  0  0  0  0  0  0  0  0  0
   23.8909  -20.3855  -13.6725 C   0  0  1  0  0  0  0  0  0  0  0  0
   24.2930  -20.4359  -15.1688 C   0  0  0  0  0  0  0  0  0  0  0  0
   25.5379  -19.5678  -15.3106 C   0  0  0  0  0  0  0  0  0  0  0  0
   25.9477  -19.4481  -16.7126 C   0  0  0  0  0  0  0  0  0  0  0  0
   25.2827  -19.9659  -17.6312 O   0  0  0  0  0  0  0  0  0  0  0  0
   22.5071  -20.8209  -13.5022 C   0  0  0  0  0  0  0  0  0  0  0  0
   22.2586  -21.9073  -12.8699 O   0  0  0  0  0  0  0  0  0  0  0  0
   27.0951  -18.7478  -17.0379 O   0  0  0  0  0  0  0  0  0  0  0  0
   17.6061  -22.6176  -15.4291 N   0  0  0  0  0  0  0  0  0  0  0  0
   18.3183  -22.3420  -14.2298 C   0  0  0  0  0  0  0  0  0  0  0  0
   17.6619  -22.4116  -13.1585 O   0  0  0  0  0  0  0  0  0  0  0  0
   19.7517  -22.0003  -14.3301 C   0  0  0  0  0  0  0  0  0  0  0  0
   19.9914  -20.6491  -13.7969 C   0  0  2  0  0  0  0  0  0  0  0  0
   21.3406  -20.1617  -13.9690 N   0  0  0  0  0  0  0  0  0  0  0  0
   19.5010  -20.5004  -12.4135 C   0  0  0  0  0  0  0  0  0  0  0  0
   18.6401  -19.6267  -12.1640 O   0  0  0  0  0  0  0  0  0  0  0  0
   19.9665  -21.3020  -11.3742 O   0  0  0  0  0  0  0  0  0  0  0  0
  2  3  1  0
  2  1  1  1
  3  4  1  0
  4  5  2  0
  5  6  1  0
  7  6  1  0
  8  7  2  0
  9  8  1  0
 10 11  1  0
 10  9  2  0
 11 12  2  0
 12  4  1  0
 12  7  1  0
 13  2  1  0
 13 14  2  0
 15 13  1  0
 16 15  1  0
 16 17  1  6
 18 17  1  0
 19 20  2  0
 19 18  1  0
 21 16  1  0
 21 22  2  0
 23 19  1  0
 25 26  2  0
 25 24  1  0
 27 25  1  0
 28 29  1  0
 28 27  1  1
 29 21  1  0
 30 28  1  0
 31 30  2  0
 32 30  1  0
M  END
$$$$
