WEN.pdb
     RDKit          3D

 32 33  0  0  1  0  0  0  0  0999 V2000
   34.5800  -29.2521  -17.9294 N   0  0  0  0  0  0  0  0  0  0  0  0
   33.3464  -28.6374  -18.3458 C   0  0  1  0  0  0  0  0  0  0  0  0
   33.4692  -27.8151  -19.5913 C   0  0  0  0  0  0  0  0  0  0  0  0
   34.4280  -28.3961  -20.5625 C   0  0  0  0  0  0  0  0  0  0  0  0
   35.8103  -28.2906  -20.5427 C   0  0  0  0  0  0  0  0  0  0  0  0
   36.3564  -28.9142  -21.5863 N   0  0  0  0  0  0  0  0  0  0  0  0
   35.3523  -29.4496  -22.3255 C   0  0  0  0  0  0  0  0  0  0  0  0
   35.3990  -30.1918  -23.4963 C   0  0  0  0  0  0  0  0  0  0  0  0
   34.2167  -30.6288  -24.0516 C   0  0  0  0  0  0  0  0  0  0  0  0
   33.0242  -30.3223  -23.4378 C   0  0  0  0  0  0  0  0  0  0  0  0
   32.9889  -29.5885  -22.2817 C   0  0  0  0  0  0  0  0  0  0  0  0
   34.1498  -29.1307  -21.6929 C   0  0  0  0  0  0  0  0  0  0  0  0
   32.2559  -29.6375  -18.5115 C   0  0  0  0  0  0  0  0  0  0  0  0
   32.5944  -30.8084  -18.8355 O   0  0  0  0  0  0  0  0  0  0  0  0
   30.8813  -29.2954  -18.3114 N   0  0  0  0  0  0  0  0  0  0  0  0
   29.9030  -30.3273  -18.4273 C   0  0  1  0  0  0  0  0  0  0  0  0
   30.1442  -31.3054  -17.2490 C   0  0  0  0  0  0  0  0  0  0  0  0
   29.1766  -30.8971  -16.1442 C   0  0  0  0  0  0  0  0  0  0  0  0
   28.9093  -32.0114  -15.2307 C   0  0  0  0  0  0  0  0  0  0  0  0
   27.7608  -32.2417  -14.8040 O   0  0  0  0  0  0  0  0  0  0  0  0
   28.5078  -29.8960  -18.4536 C   0  0  0  0  0  0  0  0  0  0  0  0
   28.1600  -28.8383  -17.8194 O   0  0  0  0  0  0  0  0  0  0  0  0
   29.9448  -32.8338  -14.8252 O   0  0  0  0  0  0  0  0  0  0  0  0
   23.2468  -29.4702  -21.4273 N   0  0  0  0  0  0  0  0  0  0  0  0
   24.3230  -29.0820  -20.5831 C   0  0  0  0  0  0  0  0  0  0  0  0
   24.1520  -28.0399  -19.8991 O   0  0  0  0  0  0  0  0  0  0  0  0
   25.5407  -29.9178  -20.5728 C   0  0  0  0  0  0  0  0  0  0  0  0
   26.0863  -30.0057  -19.2082 C   0  0  2  0  0  0  0  0  0  0  0  0
   27.4307  -30.5284  -19.1270 N   0  0  0  0  0  0  0  0  0  0  0  0
   25.1557  -30.6721  -18.2774 C   0  0  0  0  0  0  0  0  0  0  0  0
   25.5236  -31.7161  -17.6931 O   0  0  0  0  0  0  0  0  0  0  0  0
   23.8785  -30.1761  -18.0278 O   0  0  0  0  0  0  0  0  0  0  0  0
  2  3  1  0
  2  1  1  6
  3  4  1  0
  4  5  2  0
  5  6  1  0
  7  6  1  0
  8  7  2  0
  9  8  1  0
 10 11  1  0
 10  9  2  0
 11 12  2  0
 12  4  1  0
 12  7  1  0
 13  2  1  0
 13 14  2  0
 15 13  1  0
 16 15  1  0
 16 17  1  1
 18 17  1  0
 19 20  2  0
 19 18  1  0
 21 16  1  0
 21 22  2  0
 23 19  1  0
 25 26  2  0
 25 24  1  0
 27 25  1  0
 28 29  1  0
 28 27  1  6
 29 21  1  0
 30 28  1  0
 31 30  2  0
 32 30  1  0
M  END
$$$$
