WEN.pdb
     RDKit          3D

 32 33  0  0  1  0  0  0  0  0999 V2000
   20.0638  -11.7535  -15.9487 N   0  0  0  0  0  0  0  0  0  0  0  0
   20.9272  -10.6497  -16.2788 C   0  0  1  0  0  0  0  0  0  0  0  0
   21.3221  -10.5998  -17.7225 C   0  0  0  0  0  0  0  0  0  0  0  0
   22.0092  -11.8374  -18.1659 C   0  0  0  0  0  0  0  0  0  0  0  0
   21.6692  -12.6478  -19.2381 C   0  0  0  0  0  0  0  0  0  0  0  0
   22.4891  -13.6944  -19.3304 N   0  0  0  0  0  0  0  0  0  0  0  0
   23.3941  -13.6064  -18.3232 C   0  0  0  0  0  0  0  0  0  0  0  0
   24.4501  -14.4423  -17.9917 C   0  0  0  0  0  0  0  0  0  0  0  0
   25.2353  -14.1200  -16.9070 C   0  0  0  0  0  0  0  0  0  0  0  0
   24.9576  -12.9847  -16.1813 C   0  0  0  0  0  0  0  0  0  0  0  0
   23.9121  -12.1658  -16.5168 C   0  0  0  0  0  0  0  0  0  0  0  0
   23.1006  -12.4523  -17.5953 C   0  0  0  0  0  0  0  0  0  0  0  0
   20.3373   -9.3434  -15.8756 C   0  0  0  0  0  0  0  0  0  0  0  0
   19.0848   -9.2266  -15.9647 O   0  0  0  0  0  0  0  0  0  0  0  0
   21.1476   -8.2629  -15.4037 N   0  0  0  0  0  0  0  0  0  0  0  0
   20.5058   -7.0372  -15.0558 C   0  0  1  0  0  0  0  0  0  0  0  0
   21.4836   -6.2682  -14.1307 C   0  0  0  0  0  0  0  0  0  0  0  0
   20.8127   -4.9393  -13.8030 C   0  0  0  0  0  0  0  0  0  0  0  0
   21.6308   -4.1408  -12.8861 C   0  0  0  0  0  0  0  0  0  0  0  0
   22.3935   -4.6779  -12.0590 O   0  0  0  0  0  0  0  0  0  0  0  0
   20.0840   -6.1895  -16.1679 C   0  0  0  0  0  0  0  0  0  0  0  0
   20.5548   -6.4025  -17.3404 O   0  0  0  0  0  0  0  0  0  0  0  0
   21.5653   -2.7600  -12.9286 O   0  0  0  0  0  0  0  0  0  0  0  0
   17.8281   -4.6190  -20.3787 N   0  0  0  0  0  0  0  0  0  0  0  0
   17.0730   -4.8782  -19.2022 C   0  0  0  0  0  0  0  0  0  0  0  0
   15.8687   -4.5141  -19.2166 O   0  0  0  0  0  0  0  0  0  0  0  0
   17.7483   -5.5445  -18.0701 C   0  0  0  0  0  0  0  0  0  0  0  0
   18.4753   -4.5554  -17.2574 C   0  0  2  0  0  0  0  0  0  0  0  0
   19.1711   -5.1044  -16.1165 N   0  0  0  0  0  0  0  0  0  0  0  0
   17.6357   -3.3928  -16.9111 C   0  0  0  0  0  0  0  0  0  0  0  0
   17.3692   -2.5496  -17.7970 O   0  0  0  0  0  0  0  0  0  0  0  0
   17.1297   -3.2027  -15.6277 O   0  0  0  0  0  0  0  0  0  0  0  0
  2  3  1  0
  2  1  1  6
  3  4  1  0
  4  5  2  0
  5  6  1  0
  7  6  1  0
  8  7  2  0
  9  8  1  0
 10 11  1  0
 10  9  2  0
 11 12  2  0
 12  4  1  0
 12  7  1  0
 13  2  1  0
 13 14  2  0
 15 13  1  0
 16 15  1  0
 16 17  1  1
 18 17  1  0
 19 20  2  0
 19 18  1  0
 21 16  1  0
 21 22  2  0
 23 19  1  0
 25 26  2  0
 25 24  1  0
 27 25  1  0
 28 29  1  0
 28 27  1  1
 29 21  1  0
 30 28  1  0
 31 30  2  0
 32 30  1  0
M  END
$$$$
