WEN.pdb
     RDKit          3D

 32 33  0  0  1  0  0  0  0  0999 V2000
   28.3636  -22.0827  -12.1525 N   0  0  0  0  0  0  0  0  0  0  0  0
   27.1844  -21.5627  -11.5105 C   0  0  1  0  0  0  0  0  0  0  0  0
   27.4332  -20.3364  -10.6879 C   0  0  0  0  0  0  0  0  0  0  0  0
   28.4469  -20.5599   -9.6283 C   0  0  0  0  0  0  0  0  0  0  0  0
   29.7816  -20.8932   -9.8008 C   0  0  0  0  0  0  0  0  0  0  0  0
   30.3963  -21.0440   -8.6280 N   0  0  0  0  0  0  0  0  0  0  0  0
   29.4871  -20.8147   -7.6471 C   0  0  0  0  0  0  0  0  0  0  0  0
   29.6305  -20.8435   -6.2678 C   0  0  0  0  0  0  0  0  0  0  0  0
   28.5350  -20.5630   -5.4816 C   0  0  0  0  0  0  0  0  0  0  0  0
   27.3314  -20.2626   -6.0765 C   0  0  0  0  0  0  0  0  0  0  0  0
   27.2002  -20.2371   -7.4398 C   0  0  0  0  0  0  0  0  0  0  0  0
   28.2721  -20.5126   -8.2638 C   0  0  0  0  0  0  0  0  0  0  0  0
   26.0918  -21.2979  -12.4867 C   0  0  0  0  0  0  0  0  0  0  0  0
   26.2406  -20.3152  -13.2631 O   0  0  0  0  0  0  0  0  0  0  0  0
   24.9216  -22.1184  -12.5506 N   0  0  0  0  0  0  0  0  0  0  0  0
   23.9100  -21.7821  -13.4987 C   0  0  1  0  0  0  0  0  0  0  0  0
   23.9945  -22.8346  -14.6338 C   0  0  0  0  0  0  0  0  0  0  0  0
   23.7875  -24.1947  -13.9775 C   0  0  0  0  0  0  0  0  0  0  0  0
   23.8831  -25.2799  -14.9578 C   0  0  0  0  0  0  0  0  0  0  0  0
   22.8645  -25.8039  -15.4497 O   0  0  0  0  0  0  0  0  0  0  0  0
   22.5453  -21.6953  -12.9854 C   0  0  0  0  0  0  0  0  0  0  0  0
   22.3280  -21.8627  -11.7338 O   0  0  0  0  0  0  0  0  0  0  0  0
   25.1245  -25.7424  -15.3550 O   0  0  0  0  0  0  0  0  0  0  0  0
   19.9145  -17.5428  -12.1154 N   0  0  0  0  0  0  0  0  0  0  0  0
   20.3293  -17.8550  -13.4391 C   0  0  0  0  0  0  0  0  0  0  0  0
   19.8601  -17.1357  -14.3587 O   0  0  0  0  0  0  0  0  0  0  0  0
   21.2645  -18.9819  -13.6318 C   0  0  0  0  0  0  0  0  0  0  0  0
   20.5373  -20.2610  -13.5819 C   0  0  2  0  0  0  0  0  0  0  0  0
   21.3670  -21.4344  -13.7315 N   0  0  0  0  0  0  0  0  0  0  0  0
   19.3645  -20.2711  -14.4767 C   0  0  0  0  0  0  0  0  0  0  0  0
   19.5434  -20.2207  -15.7145 O   0  0  0  0  0  0  0  0  0  0  0  0
   18.0621  -20.3348  -13.9874 O   0  0  0  0  0  0  0  0  0  0  0  0
  2  3  1  0
  2  1  1  6
  3  4  1  0
  4  5  2  0
  5  6  1  0
  7  6  1  0
  8  7  2  0
  9  8  1  0
 10 11  1  0
 10  9  2  0
 11 12  2  0
 12  4  1  0
 12  7  1  0
 13  2  1  0
 13 14  2  0
 15 13  1  0
 16 15  1  0
 16 17  1  6
 18 17  1  0
 19 20  2  0
 19 18  1  0
 21 16  1  0
 21 22  2  0
 23 19  1  0
 25 26  2  0
 25 24  1  0
 27 25  1  0
 28 29  1  0
 28 27  1  6
 29 21  1  0
 30 28  1  0
 31 30  2  0
 32 30  1  0
M  END
$$$$
