WEN.pdb
     RDKit          3D

 32 33  0  0  1  0  0  0  0  0999 V2000
   18.6029  -16.2654  -17.2584 N   0  0  0  0  0  0  0  0  0  0  0  0
   18.8583  -14.9631  -16.7001 C   0  0  1  0  0  0  0  0  0  0  0  0
   20.1439  -14.8721  -15.9375 C   0  0  0  0  0  0  0  0  0  0  0  0
   20.2136  -15.8498  -14.8241 C   0  0  0  0  0  0  0  0  0  0  0  0
   19.7783  -15.6692  -13.5202 C   0  0  0  0  0  0  0  0  0  0  0  0
   20.0215  -16.7483  -12.7769 N   0  0  0  0  0  0  0  0  0  0  0  0
   20.6238  -17.6727  -13.5668 C   0  0  0  0  0  0  0  0  0  0  0  0
   21.0693  -18.9521  -13.2692 C   0  0  0  0  0  0  0  0  0  0  0  0
   21.6507  -19.7007  -14.2685 C   0  0  0  0  0  0  0  0  0  0  0  0
   21.7761  -19.1676  -15.5306 C   0  0  0  0  0  0  0  0  0  0  0  0
   21.3331  -17.9027  -15.8141 C   0  0  0  0  0  0  0  0  0  0  0  0
   20.7456  -17.1192  -14.8422 C   0  0  0  0  0  0  0  0  0  0  0  0
   18.8148  -13.8960  -17.7375 C   0  0  0  0  0  0  0  0  0  0  0  0
   19.5536  -14.0468  -18.7484 O   0  0  0  0  0  0  0  0  0  0  0  0
   17.9728  -12.7471  -17.6037 N   0  0  0  0  0  0  0  0  0  0  0  0
   17.9339  -11.8076  -18.6766 C   0  0  1  0  0  0  0  0  0  0  0  0
   16.4537  -11.7039  -19.1256 C   0  0  0  0  0  0  0  0  0  0  0  0
   16.4280  -10.7435  -20.3090 C   0  0  0  0  0  0  0  0  0  0  0  0
   15.0571  -10.4911  -20.7613 C   0  0  0  0  0  0  0  0  0  0  0  0
   14.1214  -10.3438  -19.9508 O   0  0  0  0  0  0  0  0  0  0  0  0
   18.4745  -10.4804  -18.3942 C   0  0  0  0  0  0  0  0  0  0  0  0
   18.3755   -9.9948  -17.2126 O   0  0  0  0  0  0  0  0  0  0  0  0
   14.7813  -10.4120  -22.1142 O   0  0  0  0  0  0  0  0  0  0  0  0
   21.7415   -5.6103  -20.5224 N   0  0  0  0  0  0  0  0  0  0  0  0
   21.0865   -6.4468  -19.5775 C   0  0  0  0  0  0  0  0  0  0  0  0
   21.1812   -6.1099  -18.3689 O   0  0  0  0  0  0  0  0  0  0  0  0
   20.3560   -7.6291  -20.0778 C   0  0  0  0  0  0  0  0  0  0  0  0
   19.6958   -8.3287  -18.9634 C   0  0  2  0  0  0  0  0  0  0  0  0
   19.1312   -9.6138  -19.3058 N   0  0  0  0  0  0  0  0  0  0  0  0
   18.7457   -7.4594  -18.2437 C   0  0  0  0  0  0  0  0  0  0  0  0
   17.6280   -7.2246  -18.7561 O   0  0  0  0  0  0  0  0  0  0  0  0
   19.0531   -6.8901  -17.0104 O   0  0  0  0  0  0  0  0  0  0  0  0
  2  3  1  0
  2  1  1  6
  3  4  1  0
  4  5  2  0
  5  6  1  0
  7  6  1  0
  8  7  2  0
  9  8  1  0
 10 11  1  0
 10  9  2  0
 11 12  2  0
 12  4  1  0
 12  7  1  0
 13  2  1  0
 13 14  2  0
 15 13  1  0
 16 15  1  0
 16 17  1  1
 18 17  1  0
 19 20  2  0
 19 18  1  0
 21 16  1  0
 21 22  2  0
 23 19  1  0
 25 26  2  0
 25 24  1  0
 27 25  1  0
 28 29  1  0
 28 27  1  6
 29 21  1  0
 30 28  1  0
 31 30  2  0
 32 30  1  0
M  END
$$$$
