WEN.pdb
     RDKit          3D

 32 33  0  0  1  0  0  0  0  0999 V2000
   27.6729  -19.0288  -11.5576 N   0  0  0  0  0  0  0  0  0  0  0  0
   26.9402  -20.2187  -11.9044 C   0  0  1  0  0  0  0  0  0  0  0  0
   26.6666  -21.1223  -10.7419 C   0  0  0  0  0  0  0  0  0  0  0  0
   27.6980  -21.0109   -9.6817 C   0  0  0  0  0  0  0  0  0  0  0  0
   27.5417  -20.4773   -8.4117 C   0  0  0  0  0  0  0  0  0  0  0  0
   28.6860  -20.5133   -7.7295 N   0  0  0  0  0  0  0  0  0  0  0  0
   29.6309  -21.0712   -8.5275 C   0  0  0  0  0  0  0  0  0  0  0  0
   30.9709  -21.3322   -8.2821 C   0  0  0  0  0  0  0  0  0  0  0  0
   31.7241  -21.9205   -9.2739 C   0  0  0  0  0  0  0  0  0  0  0  0
   31.1358  -22.2342  -10.4774 C   0  0  0  0  0  0  0  0  0  0  0  0
   29.8116  -21.9721  -10.7099 C   0  0  0  0  0  0  0  0  0  0  0  0
   29.0217  -21.3833   -9.7438 C   0  0  0  0  0  0  0  0  0  0  0  0
   25.6643  -19.9012  -12.6031 C   0  0  0  0  0  0  0  0  0  0  0  0
   24.7792  -19.2980  -11.9374 O   0  0  0  0  0  0  0  0  0  0  0  0
   25.4437  -20.2584  -13.9708 N   0  0  0  0  0  0  0  0  0  0  0  0
   24.2319  -19.8358  -14.5939 C   0  0  1  0  0  0  0  0  0  0  0  0
   24.5319  -19.7024  -16.1089 C   0  0  0  0  0  0  0  0  0  0  0  0
   23.2968  -19.0695  -16.7393 C   0  0  0  0  0  0  0  0  0  0  0  0
   22.7435  -19.9191  -17.7975 C   0  0  0  0  0  0  0  0  0  0  0  0
   23.4822  -20.5698  -18.5624 O   0  0  0  0  0  0  0  0  0  0  0  0
   23.0635  -20.6856  -14.3791 C   0  0  0  0  0  0  0  0  0  0  0  0
   23.1685  -21.9545  -14.5231 O   0  0  0  0  0  0  0  0  0  0  0  0
   21.3733  -20.0104  -17.9621 O   0  0  0  0  0  0  0  0  0  0  0  0
   18.5746  -22.8039  -13.4513 N   0  0  0  0  0  0  0  0  0  0  0  0
   18.9175  -22.0121  -12.3213 C   0  0  0  0  0  0  0  0  0  0  0  0
   18.2523  -22.2130  -11.2724 O   0  0  0  0  0  0  0  0  0  0  0  0
   20.0111  -21.0292  -12.4616 C   0  0  0  0  0  0  0  0  0  0  0  0
   20.6393  -21.1525  -13.7873 C   0  0  2  0  0  0  0  0  0  0  0  0
   21.7588  -20.2669  -14.0106 N   0  0  0  0  0  0  0  0  0  0  0  0
   19.6488  -21.1100  -14.8799 C   0  0  0  0  0  0  0  0  0  0  0  0
   18.8072  -22.0318  -14.9740 O   0  0  0  0  0  0  0  0  0  0  0  0
   19.6204  -20.0756  -15.8119 O   0  0  0  0  0  0  0  0  0  0  0  0
  2  3  1  0
  2  1  1  1
  3  4  1  0
  4  5  2  0
  5  6  1  0
  7  6  1  0
  8  7  2  0
  9  8  1  0
 10 11  1  0
 10  9  2  0
 11 12  2  0
 12  4  1  0
 12  7  1  0
 13  2  1  0
 13 14  2  0
 15 13  1  0
 16 15  1  0
 16 17  1  6
 18 17  1  0
 19 20  2  0
 19 18  1  0
 21 16  1  0
 21 22  2  0
 23 19  1  0
 25 26  2  0
 25 24  1  0
 27 25  1  0
 28 29  1  0
 28 27  1  1
 29 21  1  0
 30 28  1  0
 31 30  2  0
 32 30  1  0
M  END
$$$$
