WEN.pdb
     RDKit          3D

 32 33  0  0  1  0  0  0  0  0999 V2000
   25.2195  -10.3843  -18.5123 N   0  0  0  0  0  0  0  0  0  0  0  0
   24.8010  -10.4153  -17.1351 C   0  0  1  0  0  0  0  0  0  0  0  0
   25.8081   -9.8485  -16.1828 C   0  0  0  0  0  0  0  0  0  0  0  0
   27.1018  -10.5728  -16.2276 C   0  0  0  0  0  0  0  0  0  0  0  0
   28.3491  -10.0452  -16.5244 C   0  0  0  0  0  0  0  0  0  0  0  0
   29.2900  -10.9886  -16.4993 N   0  0  0  0  0  0  0  0  0  0  0  0
   28.6930  -12.1660  -16.1854 C   0  0  0  0  0  0  0  0  0  0  0  0
   29.2357  -13.4333  -16.0328 C   0  0  0  0  0  0  0  0  0  0  0  0
   28.4001  -14.4766  -15.7005 C   0  0  0  0  0  0  0  0  0  0  0  0
   27.0556  -14.2412  -15.5284 C   0  0  0  0  0  0  0  0  0  0  0  0
   26.5294  -12.9858  -15.6817 C   0  0  0  0  0  0  0  0  0  0  0  0
   27.3310  -11.9133  -16.0148 C   0  0  0  0  0  0  0  0  0  0  0  0
   23.4893   -9.7389  -16.9380 C   0  0  0  0  0  0  0  0  0  0  0  0
   23.3002   -8.6590  -17.5612 O   0  0  0  0  0  0  0  0  0  0  0  0
   22.4800  -10.2840  -16.0831 N   0  0  0  0  0  0  0  0  0  0  0  0
   21.2233   -9.6131  -16.0059 C   0  0  1  0  0  0  0  0  0  0  0  0
   20.2382  -10.5887  -15.3125 C   0  0  0  0  0  0  0  0  0  0  0  0
   19.8916  -11.6570  -16.3431 C   0  0  0  0  0  0  0  0  0  0  0  0
   19.0058  -12.6775  -15.7760 C   0  0  0  0  0  0  0  0  0  0  0  0
   17.8174  -12.7813  -16.1380 O   0  0  0  0  0  0  0  0  0  0  0  0
   21.2211   -8.3196  -15.3274 C   0  0  0  0  0  0  0  0  0  0  0  0
   21.9827   -8.1352  -14.3136 O   0  0  0  0  0  0  0  0  0  0  0  0
   19.4859  -13.5514  -14.8176 O   0  0  0  0  0  0  0  0  0  0  0  0
   22.2598   -3.6665  -13.4056 N   0  0  0  0  0  0  0  0  0  0  0  0
   21.6721   -3.7847  -14.6949 C   0  0  0  0  0  0  0  0  0  0  0  0
   21.1503   -2.7437  -15.1714 O   0  0  0  0  0  0  0  0  0  0  0  0
   21.7177   -5.0993  -15.3667 C   0  0  0  0  0  0  0  0  0  0  0  0
   20.5342   -5.8969  -15.0053 C   0  0  2  0  0  0  0  0  0  0  0  0
   20.4457   -7.1799  -15.6637 N   0  0  0  0  0  0  0  0  0  0  0  0
   19.2856   -5.1170  -15.1008 C   0  0  0  0  0  0  0  0  0  0  0  0
   18.7152   -5.0155  -16.2104 O   0  0  0  0  0  0  0  0  0  0  0  0
   18.7203   -4.4885  -13.9940 O   0  0  0  0  0  0  0  0  0  0  0  0
  2  3  1  0
  2  1  1  6
  3  4  1  0
  4  5  2  0
  5  6  1  0
  7  6  1  0
  8  7  2  0
  9  8  1  0
 10 11  1  0
 10  9  2  0
 11 12  2  0
 12  4  1  0
 12  7  1  0
 13  2  1  0
 13 14  2  0
 15 13  1  0
 16 15  1  0
 16 17  1  1
 18 17  1  0
 19 20  2  0
 19 18  1  0
 21 16  1  0
 21 22  2  0
 23 19  1  0
 25 26  2  0
 25 24  1  0
 27 25  1  0
 28 29  1  0
 28 27  1  6
 29 21  1  0
 30 28  1  0
 31 30  2  0
 32 30  1  0
M  END
$$$$
