WEN.pdb
     RDKit          3D

 32 33  0  0  1  0  0  0  0  0999 V2000
   24.3823  -19.9864   -9.8756 N   0  0  0  0  0  0  0  0  0  0  0  0
   24.4489  -20.1635  -11.3029 C   0  0  1  0  0  0  0  0  0  0  0  0
   25.2383  -21.3628  -11.7285 C   0  0  0  0  0  0  0  0  0  0  0  0
   26.6633  -21.0417  -11.9865 C   0  0  0  0  0  0  0  0  0  0  0  0
   27.7513  -21.3487  -11.1838 C   0  0  0  0  0  0  0  0  0  0  0  0
   28.8845  -20.8846  -11.7096 N   0  0  0  0  0  0  0  0  0  0  0  0
   28.5792  -20.2581  -12.8739 C   0  0  0  0  0  0  0  0  0  0  0  0
   29.4013  -19.6183  -13.7896 C   0  0  0  0  0  0  0  0  0  0  0  0
   28.8332  -19.0589  -14.9127 C   0  0  0  0  0  0  0  0  0  0  0  0
   27.4732  -19.1461  -15.1007 C   0  0  0  0  0  0  0  0  0  0  0  0
   26.6698  -19.7800  -14.1901 C   0  0  0  0  0  0  0  0  0  0  0  0
   27.1981  -20.3531  -13.0516 C   0  0  0  0  0  0  0  0  0  0  0  0
   23.0948  -20.2103  -11.9203 C   0  0  0  0  0  0  0  0  0  0  0  0
   22.1620  -20.6949  -11.2236 O   0  0  0  0  0  0  0  0  0  0  0  0
   22.8521  -19.7264  -13.2446 N   0  0  0  0  0  0  0  0  0  0  0  0
   21.5216  -19.7902  -13.7554 C   0  0  1  0  0  0  0  0  0  0  0  0
   21.4753  -18.8633  -14.9972 C   0  0  0  0  0  0  0  0  0  0  0  0
   20.0317  -18.8694  -15.4867 C   0  0  0  0  0  0  0  0  0  0  0  0
   19.1424  -18.2006  -14.5329 C   0  0  0  0  0  0  0  0  0  0  0  0
   17.9521  -18.5468  -14.4004 O   0  0  0  0  0  0  0  0  0  0  0  0
   21.0215  -21.1201  -14.0938 C   0  0  0  0  0  0  0  0  0  0  0  0
   21.7998  -21.9626  -14.6653 O   0  0  0  0  0  0  0  0  0  0  0  0
   19.6213  -17.1614  -13.7561 O   0  0  0  0  0  0  0  0  0  0  0  0
   18.7834  -26.0845  -13.2008 N   0  0  0  0  0  0  0  0  0  0  0  0
   18.0285  -24.9540  -13.6177 C   0  0  0  0  0  0  0  0  0  0  0  0
   17.0370  -25.1830  -14.3576 O   0  0  0  0  0  0  0  0  0  0  0  0
   18.4582  -23.6177  -13.1581 C   0  0  0  0  0  0  0  0  0  0  0  0
   19.2790  -22.9639  -14.1907 C   0  0  2  0  0  0  0  0  0  0  0  0
   19.7178  -21.6281  -13.8582 N   0  0  0  0  0  0  0  0  0  0  0  0
   18.6631  -23.0479  -15.5286 C   0  0  0  0  0  0  0  0  0  0  0  0
   17.9184  -22.1189  -15.9148 O   0  0  0  0  0  0  0  0  0  0  0  0
   18.8838  -24.1299  -16.3772 O   0  0  0  0  0  0  0  0  0  0  0  0
  2  3  1  0
  2  1  1  1
  3  4  1  0
  4  5  2  0
  5  6  1  0
  7  6  1  0
  8  7  2  0
  9  8  1  0
 10 11  1  0
 10  9  2  0
 11 12  2  0
 12  4  1  0
 12  7  1  0
 13  2  1  0
 13 14  2  0
 15 13  1  0
 16 15  1  0
 16 17  1  6
 18 17  1  0
 19 20  2  0
 19 18  1  0
 21 16  1  0
 21 22  2  0
 23 19  1  0
 25 26  2  0
 25 24  1  0
 27 25  1  0
 28 29  1  0
 28 27  1  1
 29 21  1  0
 30 28  1  0
 31 30  2  0
 32 30  1  0
M  END
$$$$
