WEN.pdb
     RDKit          3D

 32 33  0  0  1  0  0  0  0  0999 V2000
   26.3167  -20.9809  -12.8182 N   0  0  0  0  0  0  0  0  0  0  0  0
   25.4128  -21.2672  -11.7347 C   0  0  1  0  0  0  0  0  0  0  0  0
   25.7651  -20.5770  -10.4532 C   0  0  0  0  0  0  0  0  0  0  0  0
   27.1495  -20.8735  -10.0110 C   0  0  0  0  0  0  0  0  0  0  0  0
   28.1151  -21.5910  -10.7001 C   0  0  0  0  0  0  0  0  0  0  0  0
   29.2408  -21.6868   -9.9931 N   0  0  0  0  0  0  0  0  0  0  0  0
   29.0525  -21.0361   -8.8174 C   0  0  0  0  0  0  0  0  0  0  0  0
   29.9168  -20.8476   -7.7491 C   0  0  0  0  0  0  0  0  0  0  0  0
   29.4755  -20.1328   -6.6576 C   0  0  0  0  0  0  0  0  0  0  0  0
   28.1968  -19.6250   -6.6505 C   0  0  0  0  0  0  0  0  0  0  0  0
   27.3509  -19.8170   -7.7106 C   0  0  0  0  0  0  0  0  0  0  0  0
   27.7528  -20.5275   -8.8230 C   0  0  0  0  0  0  0  0  0  0  0  0
   24.0004  -20.9639  -12.0951 C   0  0  0  0  0  0  0  0  0  0  0  0
   23.5599  -19.8240  -11.7838 O   0  0  0  0  0  0  0  0  0  0  0  0
   23.1719  -21.9168  -12.7677 N   0  0  0  0  0  0  0  0  0  0  0  0
   21.7842  -21.6214  -12.9169 C   0  0  1  0  0  0  0  0  0  0  0  0
   21.5229  -21.4605  -14.4364 C   0  0  0  0  0  0  0  0  0  0  0  0
   22.1555  -20.1353  -14.8452 C   0  0  0  0  0  0  0  0  0  0  0  0
   21.2189  -19.3125  -15.6157 C   0  0  0  0  0  0  0  0  0  0  0  0
   20.6437  -19.7569  -16.6285 O   0  0  0  0  0  0  0  0  0  0  0  0
   20.8517  -22.5858  -12.3392 C   0  0  0  0  0  0  0  0  0  0  0  0
   21.1067  -23.8390  -12.4191 O   0  0  0  0  0  0  0  0  0  0  0  0
   20.9581  -18.0128  -15.2215 O   0  0  0  0  0  0  0  0  0  0  0  0
   18.2336  -25.4674   -8.7182 N   0  0  0  0  0  0  0  0  0  0  0  0
   17.7002  -24.2045   -9.0953 C   0  0  0  0  0  0  0  0  0  0  0  0
   16.4569  -24.0596   -8.9679 O   0  0  0  0  0  0  0  0  0  0  0  0
   18.6308  -23.1746   -9.6002 C   0  0  0  0  0  0  0  0  0  0  0  0
   18.7746  -23.2905  -11.0608 C   0  0  2  0  0  0  0  0  0  0  0  0
   19.6368  -22.3004  -11.6639 N   0  0  0  0  0  0  0  0  0  0  0  0
   17.4712  -23.4060  -11.7421 C   0  0  0  0  0  0  0  0  0  0  0  0
   16.7983  -24.4511  -11.5945 O   0  0  0  0  0  0  0  0  0  0  0  0
   16.9647  -22.3879  -12.5460 O   0  0  0  0  0  0  0  0  0  0  0  0
  2  3  1  0
  2  1  1  6
  3  4  1  0
  4  5  2  0
  5  6  1  0
  7  6  1  0
  8  7  2  0
  9  8  1  0
 10 11  1  0
 10  9  2  0
 11 12  2  0
 12  4  1  0
 12  7  1  0
 13  2  1  0
 13 14  2  0
 15 13  1  0
 16 15  1  0
 16 17  1  6
 18 17  1  0
 19 20  2  0
 19 18  1  0
 21 16  1  0
 21 22  2  0
 23 19  1  0
 25 26  2  0
 25 24  1  0
 27 25  1  0
 28 29  1  0
 28 27  1  1
 29 21  1  0
 30 28  1  0
 31 30  2  0
 32 30  1  0
M  END
$$$$
