WEN.pdb
     RDKit          3D

 32 33  0  0  1  0  0  0  0  0999 V2000
   25.4598  -22.7146  -13.4931 N   0  0  0  0  0  0  0  0  0  0  0  0
   24.3593  -22.5666  -14.4095 C   0  0  1  0  0  0  0  0  0  0  0  0
   24.0069  -23.8245  -15.1416 C   0  0  0  0  0  0  0  0  0  0  0  0
   25.0609  -24.2374  -16.1002 C   0  0  0  0  0  0  0  0  0  0  0  0
   26.1154  -25.1063  -15.8651 C   0  0  0  0  0  0  0  0  0  0  0  0
   26.8882  -25.2296  -16.9438 N   0  0  0  0  0  0  0  0  0  0  0  0
   26.3677  -24.4469  -17.9225 C   0  0  0  0  0  0  0  0  0  0  0  0
   26.7986  -24.2335  -19.2235 C   0  0  0  0  0  0  0  0  0  0  0  0
   26.0768  -23.3810  -20.0293 C   0  0  0  0  0  0  0  0  0  0  0  0
   24.9528  -22.7642  -19.5304 C   0  0  0  0  0  0  0  0  0  0  0  0
   24.5357  -22.9815  -18.2438 C   0  0  0  0  0  0  0  0  0  0  0  0
   25.2300  -23.8272  -17.4032 C   0  0  0  0  0  0  0  0  0  0  0  0
   23.1472  -22.0215  -13.7382 C   0  0  0  0  0  0  0  0  0  0  0  0
   22.9670  -22.3392  -12.5312 O   0  0  0  0  0  0  0  0  0  0  0  0
   22.2229  -21.1714  -14.4236 N   0  0  0  0  0  0  0  0  0  0  0  0
   21.0817  -20.6979  -13.7103 C   0  0  1  0  0  0  0  0  0  0  0  0
   20.5820  -19.4339  -14.4559 C   0  0  0  0  0  0  0  0  0  0  0  0
   19.4664  -18.8421  -13.6023 C   0  0  0  0  0  0  0  0  0  0  0  0
   18.9828  -17.5761  -14.1600 C   0  0  0  0  0  0  0  0  0  0  0  0
   19.5438  -17.0380  -15.1346 O   0  0  0  0  0  0  0  0  0  0  0  0
   19.9884  -21.6503  -13.5335 C   0  0  0  0  0  0  0  0  0  0  0  0
   19.6954  -22.4609  -14.4815 O   0  0  0  0  0  0  0  0  0  0  0  0
   17.8805  -16.9539  -13.6026 O   0  0  0  0  0  0  0  0  0  0  0  0
   17.3921  -25.8403  -11.2779 N   0  0  0  0  0  0  0  0  0  0  0  0
   17.0541  -24.5098  -10.9076 C   0  0  0  0  0  0  0  0  0  0  0  0
   15.8566  -24.3054  -10.5799 O   0  0  0  0  0  0  0  0  0  0  0  0
   18.1170  -23.4846  -10.9350 C   0  0  0  0  0  0  0  0  0  0  0  0
   18.1328  -22.8026  -12.2396 C   0  0  2  0  0  0  0  0  0  0  0  0
   19.1662  -21.8037  -12.3873 N   0  0  0  0  0  0  0  0  0  0  0  0
   16.7981  -22.3070  -12.6261 C   0  0  0  0  0  0  0  0  0  0  0  0
   16.4550  -21.1531  -12.2833 O   0  0  0  0  0  0  0  0  0  0  0  0
   15.9058  -23.0835  -13.3612 O   0  0  0  0  0  0  0  0  0  0  0  0
  2  3  1  0
  2  1  1  1
  3  4  1  0
  4  5  2  0
  5  6  1  0
  7  6  1  0
  8  7  2  0
  9  8  1  0
 10 11  1  0
 10  9  2  0
 11 12  2  0
 12  4  1  0
 12  7  1  0
 13  2  1  0
 13 14  2  0
 15 13  1  0
 16 15  1  0
 16 17  1  6
 18 17  1  0
 19 20  2  0
 19 18  1  0
 21 16  1  0
 21 22  2  0
 23 19  1  0
 25 26  2  0
 25 24  1  0
 27 25  1  0
 28 29  1  0
 28 27  1  1
 29 21  1  0
 30 28  1  0
 31 30  2  0
 32 30  1  0
M  END
$$$$
