YLL.pdb
     RDKit          3D

 29 29  0  0  1  0  0  0  0  0999 V2000
    7.5205  -14.0754   15.8179 O   0  0  0  0  0  0  0  0  0  0  0  0
    7.9541  -13.9922   17.1391 C   0  0  0  0  0  0  0  0  0  0  0  0
    8.5892  -15.0526   17.7565 C   0  0  0  0  0  0  0  0  0  0  0  0
    9.0170  -14.9663   19.0646 C   0  0  0  0  0  0  0  0  0  0  0  0
    8.8396  -13.8430   19.8139 C   0  0  0  0  0  0  0  0  0  0  0  0
    9.2772  -13.6942   21.2174 C   0  0  0  0  0  0  0  0  0  0  0  0
    8.9954  -14.9866   21.9445 C   0  0  2  0  0  0  0  0  0  0  0  0
    7.5902  -15.3124   21.8018 N   0  0  0  0  0  0  0  0  0  0  0  0
    9.2681  -14.8827   23.3967 C   0  0  0  0  0  0  0  0  0  0  0  0
   10.4143  -14.6052   23.8224 O   0  0  0  0  0  0  0  0  0  0  0  0
    8.2043  -12.7638   19.2173 C   0  0  0  0  0  0  0  0  0  0  0  0
    7.7732  -12.8449   17.9056 C   0  0  0  0  0  0  0  0  0  0  0  0
    5.8835  -12.2274   26.4588 C   0  0  0  0  0  0  0  0  0  0  0  0
    7.0898  -12.8916   25.8855 C   0  0  1  0  0  0  0  0  0  0  0  0
    8.2451  -11.8888   26.0391 C   0  0  0  0  0  0  0  0  0  0  0  0
    7.5313  -14.1439   26.5309 C   0  0  0  0  0  0  0  0  0  0  0  0
    8.4848  -15.0121   25.7985 C   0  0  2  0  0  0  0  0  0  0  0  0
    8.2448  -15.0922   24.3838 N   0  0  0  0  0  0  0  0  0  0  0  0
    8.7365  -16.3362   26.4221 C   0  0  0  0  0  0  0  0  0  0  0  0
    8.7825  -16.4694   27.6920 O   0  0  0  0  0  0  0  0  0  0  0  0
    6.8014  -20.8316   24.5364 C   0  0  0  0  0  0  0  0  0  0  0  0
    7.3446  -20.2313   25.8522 C   0  0  2  0  0  0  0  0  0  0  0  0
    6.4545  -19.0332   26.1075 C   0  0  0  0  0  0  0  0  0  0  0  0
    8.7712  -19.8950   25.5784 C   0  0  0  0  0  0  0  0  0  0  0  0
    9.3364  -18.7386   26.3276 C   0  0  2  0  0  0  0  0  0  0  0  0
    8.9367  -17.5134   25.6648 N   0  0  0  0  0  0  0  0  0  0  0  0
   10.8087  -18.7266   26.4567 C   0  0  0  0  0  0  0  0  0  0  0  0
   11.5184  -19.6660   27.2200 O   0  0  0  0  0  0  0  0  0  0  0  0
   11.5544  -17.8604   25.8855 O   0  0  0  0  0  0  0  0  0  0  0  0
  2  3  2  0
  2  1  1  0
  4  3  1  0
  5  4  2  0
  6  5  1  0
  7  6  1  0
  7  8  1  1
  9  7  1  0
  9 10  2  0
 11  5  1  0
 11 12  2  0
 12  2  1  0
 14 13  1  1
 14 15  1  0
 16 14  1  0
 17 16  1  1
 17 18  1  0
 18  9  1  0
 19 17  1  0
 19 26  1  0
 20 19  2  0
 22 21  1  6
 23 22  1  0
 24 22  1  0
 25 24  1  6
 25 26  1  0
 25 27  1  0
 27 28  1  0
 29 27  2  0
M  END
$$$$
