YLL.pdb
     RDKit          3D

 29 29  0  0  1  0  0  0  0  0999 V2000
    6.4824  -20.6664   27.0237 O   0  0  0  0  0  0  0  0  0  0  0  0
    6.8826  -20.0585   25.8360 C   0  0  0  0  0  0  0  0  0  0  0  0
    5.9785  -19.7822   24.8284 C   0  0  0  0  0  0  0  0  0  0  0  0
    6.3786  -19.1803   23.6541 C   0  0  0  0  0  0  0  0  0  0  0  0
    7.6738  -18.8279   23.4234 C   0  0  0  0  0  0  0  0  0  0  0  0
    8.1586  -18.1810   22.1865 C   0  0  0  0  0  0  0  0  0  0  0  0
    7.7072  -16.7407   22.1931 C   0  0  2  0  0  0  0  0  0  0  0  0
    8.0667  -16.1271   20.9300 N   0  0  0  0  0  0  0  0  0  0  0  0
    8.3680  -15.9520   23.2586 C   0  0  0  0  0  0  0  0  0  0  0  0
    9.5854  -15.6602   23.1883 O   0  0  0  0  0  0  0  0  0  0  0  0
    8.6016  -19.0946   24.4195 C   0  0  0  0  0  0  0  0  0  0  0  0
    8.2057  -19.6981   25.5993 C   0  0  0  0  0  0  0  0  0  0  0  0
    5.6799  -11.8021   26.0222 C   0  0  0  0  0  0  0  0  0  0  0  0
    6.6844  -12.6543   25.3224 C   0  0  1  0  0  0  0  0  0  0  0  0
    7.8295  -11.7154   24.9089 C   0  0  0  0  0  0  0  0  0  0  0  0
    7.2969  -13.7441   26.1077 C   0  0  0  0  0  0  0  0  0  0  0  0
    8.2515  -14.6502   25.4244 C   0  0  2  0  0  0  0  0  0  0  0  0
    7.6568  -15.4845   24.4166 N   0  0  0  0  0  0  0  0  0  0  0  0
    9.1706  -15.3911   26.3255 C   0  0  0  0  0  0  0  0  0  0  0  0
   10.0058  -14.7732   27.0692 O   0  0  0  0  0  0  0  0  0  0  0  0
    9.4360  -20.8801   28.9078 C   0  0  0  0  0  0  0  0  0  0  0  0
   10.2091  -19.5484   28.7822 C   0  0  2  0  0  0  0  0  0  0  0  0
   10.2351  -19.0010   30.1937 C   0  0  0  0  0  0  0  0  0  0  0  0
    9.4308  -18.7247   27.8133 C   0  0  0  0  0  0  0  0  0  0  0  0
   10.0674  -17.4582   27.3567 C   0  0  2  0  0  0  0  0  0  0  0  0
    9.1796  -16.8021   26.4178 N   0  0  0  0  0  0  0  0  0  0  0  0
   11.3855  -17.6110   26.7058 C   0  0  0  0  0  0  0  0  0  0  0  0
   11.5425  -17.7608   25.3196 O   0  0  0  0  0  0  0  0  0  0  0  0
   12.4881  -17.6204   27.3515 O   0  0  0  0  0  0  0  0  0  0  0  0
  2  3  2  0
  2  1  1  0
  4  3  1  0
  5  4  2  0
  6  5  1  0
  7  6  1  0
  7  8  1  6
  9  7  1  0
  9 10  2  0
 11  5  1  0
 11 12  2  0
 12  2  1  0
 14 13  1  1
 14 15  1  0
 16 14  1  0
 17 16  1  1
 17 18  1  0
 18  9  1  0
 19 17  1  0
 19 26  1  0
 20 19  2  0
 22 21  1  1
 23 22  1  0
 24 22  1  0
 25 24  1  6
 25 26  1  0
 25 27  1  0
 27 28  1  0
 29 27  2  0
M  END
$$$$
