YLL.pdb
     RDKit          3D

 29 29  0  0  1  0  0  0  0  0999 V2000
   13.9061  -22.5776   17.8717 O   0  0  0  0  0  0  0  0  0  0  0  0
   13.4570  -21.3407   18.3288 C   0  0  0  0  0  0  0  0  0  0  0  0
   12.4134  -20.6800   17.7095 C   0  0  0  0  0  0  0  0  0  0  0  0
   11.9717  -19.4557   18.1650 C   0  0  0  0  0  0  0  0  0  0  0  0
   12.5329  -18.8352   19.2396 C   0  0  0  0  0  0  0  0  0  0  0  0
   12.1009  -17.5260   19.7712 C   0  0  0  0  0  0  0  0  0  0  0  0
   11.4842  -17.7436   21.1317 C   0  0  2  0  0  0  0  0  0  0  0  0
   10.2835  -18.5420   20.9840 N   0  0  0  0  0  0  0  0  0  0  0  0
   11.0791  -16.4711   21.7725 C   0  0  0  0  0  0  0  0  0  0  0  0
   11.9176  -15.5697   22.0102 O   0  0  0  0  0  0  0  0  0  0  0  0
   13.5827  -19.4778   19.8794 C   0  0  0  0  0  0  0  0  0  0  0  0
   14.0298  -20.7059   19.4267 C   0  0  0  0  0  0  0  0  0  0  0  0
    6.2832  -13.9707   20.5349 C   0  0  0  0  0  0  0  0  0  0  0  0
    7.6850  -14.3015   20.9230 C   0  0  1  0  0  0  0  0  0  0  0  0
    8.5416  -13.0952   20.5050 C   0  0  0  0  0  0  0  0  0  0  0  0
    7.9442  -14.5238   22.3594 C   0  0  0  0  0  0  0  0  0  0  0  0
    9.2965  -14.9763   22.7662 C   0  0  2  0  0  0  0  0  0  0  0  0
    9.7186  -16.2050   22.1517 N   0  0  0  0  0  0  0  0  0  0  0  0
    9.5606  -14.9354   24.2271 C   0  0  0  0  0  0  0  0  0  0  0  0
    9.3497  -13.8739   24.9062 O   0  0  0  0  0  0  0  0  0  0  0  0
   10.6452  -13.7201   28.4513 C   0  0  0  0  0  0  0  0  0  0  0  0
    9.6569  -13.6538   27.2657 C   0  0  2  0  0  0  0  0  0  0  0  0
    8.5240  -12.7886   27.7761 C   0  0  0  0  0  0  0  0  0  0  0  0
    9.2769  -15.0677   26.9833 C   0  0  0  0  0  0  0  0  0  0  0  0
   10.3252  -15.9265   26.3657 C   0  0  2  0  0  0  0  0  0  0  0  0
   10.0523  -16.0483   24.9476 N   0  0  0  0  0  0  0  0  0  0  0  0
   10.4382  -17.2894   26.9260 C   0  0  0  0  0  0  0  0  0  0  0  0
    9.6135  -18.3523   26.5275 O   0  0  0  0  0  0  0  0  0  0  0  0
   11.2942  -17.6104   27.8187 O   0  0  0  0  0  0  0  0  0  0  0  0
  2  3  2  0
  2  1  1  0
  4  3  1  0
  5  4  2  0
  6  5  1  0
  7  6  1  0
  7  8  1  6
  9  7  1  0
  9 10  2  0
 11  5  1  0
 11 12  2  0
 12  2  1  0
 14 13  1  1
 14 15  1  0
 16 14  1  0
 17 16  1  1
 17 18  1  0
 18  9  1  0
 19 17  1  0
 19 26  1  0
 20 19  2  0
 22 21  1  1
 23 22  1  0
 24 22  1  0
 25 24  1  1
 25 26  1  0
 25 27  1  0
 27 28  1  0
 29 27  2  0
M  END
$$$$
