YLL.pdb
     RDKit          3D

 29 29  0  0  1  0  0  0  0  0999 V2000
    9.4532  -20.2672   29.4631 O   0  0  0  0  0  0  0  0  0  0  0  0
    8.5576  -19.7912   28.5082 C   0  0  0  0  0  0  0  0  0  0  0  0
    8.5494  -18.4630   28.1277 C   0  0  0  0  0  0  0  0  0  0  0  0
    7.6613  -17.9957   27.1821 C   0  0  0  0  0  0  0  0  0  0  0  0
    6.7517  -18.8081   26.5761 C   0  0  0  0  0  0  0  0  0  0  0  0
    5.7781  -18.3631   25.5575 C   0  0  0  0  0  0  0  0  0  0  0  0
    6.2038  -18.9139   24.2181 C   0  0  2  0  0  0  0  0  0  0  0  0
    6.8544  -20.1936   24.4185 N   0  0  0  0  0  0  0  0  0  0  0  0
    7.1826  -18.0351   23.5372 C   0  0  0  0  0  0  0  0  0  0  0  0
    8.3735  -18.3933   23.3773 O   0  0  0  0  0  0  0  0  0  0  0  0
    6.7392  -20.1466   26.9405 C   0  0  0  0  0  0  0  0  0  0  0  0
    7.6278  -20.6206   27.8885 C   0  0  0  0  0  0  0  0  0  0  0  0
    7.9792  -13.9188   19.6445 C   0  0  0  0  0  0  0  0  0  0  0  0
    8.0125  -13.6797   21.1164 C   0  0  1  0  0  0  0  0  0  0  0  0
    7.4894  -12.2500   21.3305 C   0  0  0  0  0  0  0  0  0  0  0  0
    7.1774  -14.5630   21.9543 C   0  0  0  0  0  0  0  0  0  0  0  0
    7.7709  -15.8298   22.4465 C   0  0  2  0  0  0  0  0  0  0  0  0
    6.8233  -16.7396   23.0292 N   0  0  0  0  0  0  0  0  0  0  0  0
    9.0033  -15.6726   23.2602 C   0  0  0  0  0  0  0  0  0  0  0  0
   10.0624  -15.1605   22.7616 O   0  0  0  0  0  0  0  0  0  0  0  0
    9.5207  -14.4517   29.0949 C   0  0  0  0  0  0  0  0  0  0  0  0
   10.3752  -14.5560   27.8120 C   0  0  2  0  0  0  0  0  0  0  0  0
   10.8191  -13.1329   27.5463 C   0  0  0  0  0  0  0  0  0  0  0  0
    9.4689  -15.1254   26.7740 C   0  0  0  0  0  0  0  0  0  0  0  0
   10.0974  -15.5000   25.4768 C   0  0  2  0  0  0  0  0  0  0  0  0
    9.0823  -16.0712   24.6146 N   0  0  0  0  0  0  0  0  0  0  0  0
   11.2122  -16.4660   25.5692 C   0  0  0  0  0  0  0  0  0  0  0  0
   11.0223  -17.8327   25.8239 O   0  0  0  0  0  0  0  0  0  0  0  0
   12.4381  -16.1358   25.4260 O   0  0  0  0  0  0  0  0  0  0  0  0
  2  3  2  0
  2  1  1  0
  4  3  1  0
  5  4  2  0
  6  5  1  0
  7  6  1  0
  7  8  1  1
  9  7  1  0
  9 10  2  0
 11  5  1  0
 11 12  2  0
 12  2  1  0
 14 13  1  6
 14 15  1  0
 16 14  1  0
 17 16  1  1
 17 18  1  0
 18  9  1  0
 19 17  1  0
 19 26  1  0
 20 19  2  0
 22 21  1  1
 23 22  1  0
 24 22  1  0
 25 24  1  1
 25 26  1  0
 25 27  1  0
 27 28  1  0
 29 27  2  0
M  END
$$$$
