YLL.pdb
     RDKit          3D

 29 29  0  0  1  0  0  0  0  0999 V2000
    6.3267  -24.1290   28.5982 O   0  0  0  0  0  0  0  0  0  0  0  0
    6.6824  -22.9635   27.9232 C   0  0  0  0  0  0  0  0  0  0  0  0
    6.0481  -21.7625   28.1771 C   0  0  0  0  0  0  0  0  0  0  0  0
    6.4030  -20.6110   27.5068 C   0  0  0  0  0  0  0  0  0  0  0  0
    7.3883  -20.5923   26.5668 C   0  0  0  0  0  0  0  0  0  0  0  0
    7.8104  -19.3898   25.8190 C   0  0  0  0  0  0  0  0  0  0  0  0
    6.7385  -19.0544   24.8107 C   0  0  2  0  0  0  0  0  0  0  0  0
    6.7962  -20.0115   23.7236 N   0  0  0  0  0  0  0  0  0  0  0  0
    6.9316  -17.7126   24.2138 C   0  0  0  0  0  0  0  0  0  0  0  0
    7.5587  -17.5662   23.1380 O   0  0  0  0  0  0  0  0  0  0  0  0
    8.0409  -21.7854   26.2932 C   0  0  0  0  0  0  0  0  0  0  0  0
    7.6889  -22.9435   26.9625 C   0  0  0  0  0  0  0  0  0  0  0  0
    7.1573  -12.1328   24.0950 C   0  0  0  0  0  0  0  0  0  0  0  0
    6.9482  -12.7969   25.4142 C   0  0  1  0  0  0  0  0  0  0  0  0
    6.0001  -11.8837   26.2085 C   0  0  0  0  0  0  0  0  0  0  0  0
    6.3254  -14.1353   25.3955 C   0  0  0  0  0  0  0  0  0  0  0  0
    7.0436  -15.2336   24.7048 C   0  0  2  0  0  0  0  0  0  0  0  0
    6.4162  -16.5206   24.8293 N   0  0  0  0  0  0  0  0  0  0  0  0
    8.5089  -15.2748   24.9433 C   0  0  0  0  0  0  0  0  0  0  0  0
    9.3261  -14.7316   24.1251 O   0  0  0  0  0  0  0  0  0  0  0  0
    9.5300  -13.0374   28.3886 C   0  0  0  0  0  0  0  0  0  0  0  0
    9.7974  -14.5585   28.3492 C   0  0  2  0  0  0  0  0  0  0  0  0
   10.2974  -14.8825   29.7412 C   0  0  0  0  0  0  0  0  0  0  0  0
   10.8043  -14.7589   27.2679 C   0  0  0  0  0  0  0  0  0  0  0  0
   10.5155  -15.8386   26.2835 C   0  0  2  0  0  0  0  0  0  0  0  0
    9.0835  -15.9051   26.0711 N   0  0  0  0  0  0  0  0  0  0  0  0
   10.9816  -17.1873   26.6683 C   0  0  0  0  0  0  0  0  0  0  0  0
   10.1196  -18.2863   26.8024 O   0  0  0  0  0  0  0  0  0  0  0  0
   12.2056  -17.4620   26.9112 O   0  0  0  0  0  0  0  0  0  0  0  0
  2  3  2  0
  2  1  1  0
  4  3  1  0
  5  4  2  0
  6  5  1  0
  7  6  1  0
  7  8  1  6
  9  7  1  0
  9 10  2  0
 11  5  1  0
 11 12  2  0
 12  2  1  0
 14 13  1  6
 14 15  1  0
 16 14  1  0
 17 16  1  1
 17 18  1  0
 18  9  1  0
 19 17  1  0
 19 26  1  0
 20 19  2  0
 22 21  1  1
 23 22  1  0
 24 22  1  0
 25 24  1  1
 25 26  1  0
 25 27  1  0
 27 28  1  0
 29 27  2  0
M  END
$$$$
