YLL.pdb
     RDKit          3D

 29 29  0  0  1  0  0  0  0  0999 V2000
    9.0866  -13.1568   17.0386 O   0  0  0  0  0  0  0  0  0  0  0  0
    8.4476  -13.8210   18.0831 C   0  0  0  0  0  0  0  0  0  0  0  0
    7.9472  -13.1352   19.1732 C   0  0  0  0  0  0  0  0  0  0  0  0
    7.3153  -13.7963   20.2051 C   0  0  0  0  0  0  0  0  0  0  0  0
    7.1503  -15.1482   20.2083 C   0  0  0  0  0  0  0  0  0  0  0  0
    6.4819  -15.9083   21.2847 C   0  0  0  0  0  0  0  0  0  0  0  0
    7.5181  -16.7510   21.9879 C   0  0  2  0  0  0  0  0  0  0  0  0
    6.8464  -17.7547   22.7894 N   0  0  0  0  0  0  0  0  0  0  0  0
    8.3560  -15.9520   22.9118 C   0  0  0  0  0  0  0  0  0  0  0  0
    9.5602  -15.7161   22.6545 O   0  0  0  0  0  0  0  0  0  0  0  0
    7.6440  -15.8603   19.1250 C   0  0  0  0  0  0  0  0  0  0  0  0
    8.2787  -15.2023   18.0872 C   0  0  0  0  0  0  0  0  0  0  0  0
    5.4474  -12.7252   26.3751 C   0  0  0  0  0  0  0  0  0  0  0  0
    6.4520  -13.1654   25.3643 C   0  0  1  0  0  0  0  0  0  0  0  0
    6.7914  -11.9214   24.5270 C   0  0  0  0  0  0  0  0  0  0  0  0
    7.7330  -13.6869   25.8808 C   0  0  0  0  0  0  0  0  0  0  0  0
    8.5760  -14.5016   24.9727 C   0  0  2  0  0  0  0  0  0  0  0  0
    7.8389  -15.4107   24.1386 N   0  0  0  0  0  0  0  0  0  0  0  0
    9.7631  -15.1274   25.6087 C   0  0  0  0  0  0  0  0  0  0  0  0
   10.8902  -14.5262   25.6373 O   0  0  0  0  0  0  0  0  0  0  0  0
   11.5830  -14.5040   28.5281 C   0  0  0  0  0  0  0  0  0  0  0  0
   10.3431  -15.3694   28.8450 C   0  0  2  0  0  0  0  0  0  0  0  0
   10.1763  -15.2421   30.3445 C   0  0  0  0  0  0  0  0  0  0  0  0
   10.6840  -16.7426   28.3747 C   0  0  0  0  0  0  0  0  0  0  0  0
   10.8897  -16.9107   26.9093 C   0  0  2  0  0  0  0  0  0  0  0  0
    9.7232  -16.4049   26.2137 N   0  0  0  0  0  0  0  0  0  0  0  0
   11.1224  -18.2986   26.4578 C   0  0  0  0  0  0  0  0  0  0  0  0
   12.2109  -19.0720   26.8888 O   0  0  0  0  0  0  0  0  0  0  0  0
   10.3531  -18.9064   25.6383 O   0  0  0  0  0  0  0  0  0  0  0  0
  2  3  2  0
  2  1  1  0
  4  3  1  0
  5  4  2  0
  6  5  1  0
  7  6  1  0
  7  8  1  1
  9  7  1  0
  9 10  2  0
 11  5  1  0
 11 12  2  0
 12  2  1  0
 14 13  1  1
 14 15  1  0
 16 14  1  0
 17 16  1  1
 17 18  1  0
 18  9  1  0
 19 17  1  0
 19 26  1  0
 20 19  2  0
 22 21  1  1
 23 22  1  0
 24 22  1  0
 25 24  1  1
 25 26  1  0
 25 27  1  0
 27 28  1  0
 29 27  2  0
M  END
$$$$
