YLL.pdb
     RDKit          3D

 29 29  0  0  1  0  0  0  0  0999 V2000
    7.5896  -13.2538   15.8315 O   0  0  0  0  0  0  0  0  0  0  0  0
    7.5560  -13.7102   17.1472 C   0  0  0  0  0  0  0  0  0  0  0  0
    7.1477  -14.9942   17.4536 C   0  0  0  0  0  0  0  0  0  0  0  0
    7.1159  -15.4422   18.7573 C   0  0  0  0  0  0  0  0  0  0  0  0
    7.4811  -14.6531   19.8055 C   0  0  0  0  0  0  0  0  0  0  0  0
    7.4675  -15.0796   21.2201 C   0  0  0  0  0  0  0  0  0  0  0  0
    8.8907  -15.3298   21.6565 C   0  0  2  0  0  0  0  0  0  0  0  0
    9.4543  -16.3903   20.8448 N   0  0  0  0  0  0  0  0  0  0  0  0
    8.9734  -15.7763   23.0664 C   0  0  0  0  0  0  0  0  0  0  0  0
    9.9610  -16.4266   23.4832 O   0  0  0  0  0  0  0  0  0  0  0  0
    7.8951  -13.3593   19.5247 C   0  0  0  0  0  0  0  0  0  0  0  0
    7.9290  -12.9046   18.2188 C   0  0  0  0  0  0  0  0  0  0  0  0
    5.6669  -11.9047   25.9104 C   0  0  0  0  0  0  0  0  0  0  0  0
    6.8062  -12.6583   25.3113 C   0  0  1  0  0  0  0  0  0  0  0  0
    8.0797  -11.8878   25.6963 C   0  0  0  0  0  0  0  0  0  0  0  0
    7.0008  -14.0481   25.7699 C   0  0  0  0  0  0  0  0  0  0  0  0
    8.1732  -14.7981   25.2577 C   0  0  2  0  0  0  0  0  0  0  0  0
    7.9375  -15.4910   24.0209 N   0  0  0  0  0  0  0  0  0  0  0  0
    8.8771  -15.6304   26.2663 C   0  0  0  0  0  0  0  0  0  0  0  0
    8.2646  -16.0821   27.2926 O   0  0  0  0  0  0  0  0  0  0  0  0
   11.6556  -14.2036   28.7002 C   0  0  0  0  0  0  0  0  0  0  0  0
   10.2306  -14.7986   28.6545 C   0  0  2  0  0  0  0  0  0  0  0  0
    9.6044  -14.3604   29.9617 C   0  0  0  0  0  0  0  0  0  0  0  0
   10.4172  -16.2719   28.5210 C   0  0  0  0  0  0  0  0  0  0  0  0
   10.8755  -16.7655   27.1928 C   0  0  2  0  0  0  0  0  0  0  0  0
   10.2451  -15.9714   26.1573 N   0  0  0  0  0  0  0  0  0  0  0  0
   10.5892  -18.1882   26.9129 C   0  0  0  0  0  0  0  0  0  0  0  0
    9.3048  -18.7446   27.0106 O   0  0  0  0  0  0  0  0  0  0  0  0
   11.4867  -19.0267   26.5607 O   0  0  0  0  0  0  0  0  0  0  0  0
  2  3  2  0
  2  1  1  0
  4  3  1  0
  5  4  2  0
  6  5  1  0
  7  6  1  0
  7  8  1  6
  9  7  1  0
  9 10  2  0
 11  5  1  0
 11 12  2  0
 12  2  1  0
 14 13  1  1
 14 15  1  0
 16 14  1  0
 17 16  1  1
 17 18  1  0
 18  9  1  0
 19 17  1  0
 19 26  1  0
 20 19  2  0
 22 21  1  1
 23 22  1  0
 24 22  1  0
 25 24  1  1
 25 26  1  0
 25 27  1  0
 27 28  1  0
 29 27  2  0
M  END
$$$$
