YLL.pdb
     RDKit          3D

 29 29  0  0  1  0  0  0  0  0999 V2000
    3.7313  -23.8289   24.7238 O   0  0  0  0  0  0  0  0  0  0  0  0
    4.4610  -22.6549   24.5512 C   0  0  0  0  0  0  0  0  0  0  0  0
    3.9948  -21.6283   23.7526 C   0  0  0  0  0  0  0  0  0  0  0  0
    4.7201  -20.4677   23.5843 C   0  0  0  0  0  0  0  0  0  0  0  0
    5.9241  -20.2697   24.1892 C   0  0  0  0  0  0  0  0  0  0  0  0
    6.7432  -19.0483   24.0457 C   0  0  0  0  0  0  0  0  0  0  0  0
    7.0389  -18.8418   22.5800 C   0  0  2  0  0  0  0  0  0  0  0  0
    7.6608  -20.0391   22.0501 N   0  0  0  0  0  0  0  0  0  0  0  0
    7.9872  -17.7270   22.3520 C   0  0  0  0  0  0  0  0  0  0  0  0
    9.2252  -17.9241   22.3277 O   0  0  0  0  0  0  0  0  0  0  0  0
    6.4147  -21.2855   24.9965 C   0  0  0  0  0  0  0  0  0  0  0  0
    5.6913  -22.4517   25.1689 C   0  0  0  0  0  0  0  0  0  0  0  0
    6.4723  -13.1240   19.4408 C   0  0  0  0  0  0  0  0  0  0  0  0
    7.2540  -14.2673   19.9944 C   0  0  1  0  0  0  0  0  0  0  0  0
    8.4232  -14.4976   19.0230 C   0  0  0  0  0  0  0  0  0  0  0  0
    7.8493  -14.0820   21.3327 C   0  0  0  0  0  0  0  0  0  0  0  0
    8.4421  -15.2627   22.0062 C   0  0  2  0  0  0  0  0  0  0  0  0
    7.5435  -16.3752   22.1488 N   0  0  0  0  0  0  0  0  0  0  0  0
    9.2002  -14.9639   23.2478 C   0  0  0  0  0  0  0  0  0  0  0  0
   10.1470  -14.1059   23.2525 O   0  0  0  0  0  0  0  0  0  0  0  0
    6.2012  -12.2649   26.5682 C   0  0  0  0  0  0  0  0  0  0  0  0
    7.5320  -13.0041   26.8316 C   0  0  2  0  0  0  0  0  0  0  0  0
    8.5442  -11.8920   27.0091 C   0  0  0  0  0  0  0  0  0  0  0  0
    7.7574  -13.8602   25.6318 C   0  0  0  0  0  0  0  0  0  0  0  0
    8.8973  -14.8160   25.7028 C   0  0  2  0  0  0  0  0  0  0  0  0
    8.9275  -15.5971   24.4824 N   0  0  0  0  0  0  0  0  0  0  0  0
    8.8657  -15.7553   26.8435 C   0  0  0  0  0  0  0  0  0  0  0  0
    8.6679  -17.1363   26.6933 O   0  0  0  0  0  0  0  0  0  0  0  0
    9.0147  -15.3869   28.0578 O   0  0  0  0  0  0  0  0  0  0  0  0
  2  3  2  0
  2  1  1  0
  4  3  1  0
  5  4  2  0
  6  5  1  0
  7  6  1  0
  7  8  1  1
  9  7  1  0
  9 10  2  0
 11  5  1  0
 11 12  2  0
 12  2  1  0
 14 13  1  6
 14 15  1  0
 16 14  1  0
 17 16  1  1
 17 18  1  0
 18  9  1  0
 19 17  1  0
 19 26  1  0
 20 19  2  0
 22 21  1  6
 23 22  1  0
 24 22  1  0
 25 24  1  6
 25 26  1  0
 25 27  1  0
 27 28  1  0
 29 27  2  0
M  END
$$$$
