YLL.pdb
     RDKit          3D

 29 29  0  0  1  0  0  0  0  0999 V2000
    9.1665  -24.2067   19.8002 O   0  0  0  0  0  0  0  0  0  0  0  0
    9.2744  -22.9886   20.4674 C   0  0  0  0  0  0  0  0  0  0  0  0
    8.4623  -22.6823   21.5425 C   0  0  0  0  0  0  0  0  0  0  0  0
    8.5722  -21.4755   22.2004 C   0  0  0  0  0  0  0  0  0  0  0  0
    9.4776  -20.5273   21.8317 C   0  0  0  0  0  0  0  0  0  0  0  0
    9.6399  -19.2190   22.4993 C   0  0  0  0  0  0  0  0  0  0  0  0
    8.8178  -18.1971   21.7521 C   0  0  2  0  0  0  0  0  0  0  0  0
    9.2847  -18.1255   20.3817 N   0  0  0  0  0  0  0  0  0  0  0  0
    8.9571  -16.8388   22.3261 C   0  0  0  0  0  0  0  0  0  0  0  0
    9.9803  -16.1465   22.1115 O   0  0  0  0  0  0  0  0  0  0  0  0
   10.3051  -20.8102   20.7549 C   0  0  0  0  0  0  0  0  0  0  0  0
   10.1992  -22.0192   20.0914 C   0  0  0  0  0  0  0  0  0  0  0  0
    7.2999  -12.1415   24.8297 C   0  0  0  0  0  0  0  0  0  0  0  0
    7.0879  -13.4257   25.5582 C   0  0  1  0  0  0  0  0  0  0  0  0
    5.7565  -13.2762   26.3124 C   0  0  0  0  0  0  0  0  0  0  0  0
    6.9709  -14.6467   24.7365 C   0  0  0  0  0  0  0  0  0  0  0  0
    8.1731  -15.1204   24.0089 C   0  0  2  0  0  0  0  0  0  0  0  0
    7.9383  -16.2487   23.1502 N   0  0  0  0  0  0  0  0  0  0  0  0
    9.3949  -15.2662   24.8405 C   0  0  0  0  0  0  0  0  0  0  0  0
   10.2795  -14.3451   24.8808 O   0  0  0  0  0  0  0  0  0  0  0  0
    9.1136  -14.3841   29.9278 C   0  0  0  0  0  0  0  0  0  0  0  0
   10.1850  -15.1771   29.1468 C   0  0  2  0  0  0  0  0  0  0  0  0
   11.4056  -14.2817   29.1799 C   0  0  0  0  0  0  0  0  0  0  0  0
    9.6113  -15.3909   27.7872 C   0  0  0  0  0  0  0  0  0  0  0  0
   10.3801  -16.2821   26.8747 C   0  0  2  0  0  0  0  0  0  0  0  0
    9.6528  -16.4120   25.6279 N   0  0  0  0  0  0  0  0  0  0  0  0
   10.6439  -17.6415   27.3914 C   0  0  0  0  0  0  0  0  0  0  0  0
   11.8186  -17.9857   28.0773 O   0  0  0  0  0  0  0  0  0  0  0  0
    9.8254  -18.6132   27.2549 O   0  0  0  0  0  0  0  0  0  0  0  0
  2  3  2  0
  2  1  1  0
  4  3  1  0
  5  4  2  0
  6  5  1  0
  7  6  1  0
  7  8  1  6
  9  7  1  0
  9 10  2  0
 11  5  1  0
 11 12  2  0
 12  2  1  0
 14 13  1  6
 14 15  1  0
 16 14  1  0
 17 16  1  1
 17 18  1  0
 18  9  1  0
 19 17  1  0
 19 26  1  0
 20 19  2  0
 22 21  1  1
 23 22  1  0
 24 22  1  0
 25 24  1  1
 25 26  1  0
 25 27  1  0
 27 28  1  0
 29 27  2  0
M  END
$$$$
