YLL.pdb
     RDKit          3D

 29 29  0  0  1  0  0  0  0  0999 V2000
    8.8807  -24.8302   21.7293 O   0  0  0  0  0  0  0  0  0  0  0  0
    9.0840  -23.4743   21.9755 C   0  0  0  0  0  0  0  0  0  0  0  0
    8.0384  -22.5717   21.9410 C   0  0  0  0  0  0  0  0  0  0  0  0
    8.2436  -21.2303   22.1853 C   0  0  0  0  0  0  0  0  0  0  0  0
    9.4753  -20.7244   22.4714 C   0  0  0  0  0  0  0  0  0  0  0  0
    9.7535  -19.2986   22.7418 C   0  0  0  0  0  0  0  0  0  0  0  0
    9.5613  -18.5238   21.4608 C   0  0  2  0  0  0  0  0  0  0  0  0
   10.5594  -18.9466   20.4985 N   0  0  0  0  0  0  0  0  0  0  0  0
    9.7411  -17.0666   21.6558 C   0  0  0  0  0  0  0  0  0  0  0  0
   10.8842  -16.5520   21.6779 O   0  0  0  0  0  0  0  0  0  0  0  0
   10.5423  -21.6099   22.5121 C   0  0  0  0  0  0  0  0  0  0  0  0
   10.3421  -22.9565   22.2679 C   0  0  0  0  0  0  0  0  0  0  0  0
    6.2425  -13.2573   19.6176 C   0  0  0  0  0  0  0  0  0  0  0  0
    7.4746  -13.9340   20.1164 C   0  0  1  0  0  0  0  0  0  0  0  0
    8.6601  -13.1886   19.4819 C   0  0  0  0  0  0  0  0  0  0  0  0
    7.7000  -13.9178   21.5754 C   0  0  0  0  0  0  0  0  0  0  0  0
    8.7742  -14.7773   22.1289 C   0  0  2  0  0  0  0  0  0  0  0  0
    8.6272  -16.1750   21.8280 N   0  0  0  0  0  0  0  0  0  0  0  0
    9.1150  -14.5208   23.5514 C   0  0  0  0  0  0  0  0  0  0  0  0
    9.6330  -13.4112   23.9161 O   0  0  0  0  0  0  0  0  0  0  0  0
    6.1462  -13.3094   27.5650 C   0  0  0  0  0  0  0  0  0  0  0  0
    7.4837  -13.3406   26.7925 C   0  0  2  0  0  0  0  0  0  0  0  0
    7.1962  -12.5667   25.5232 C   0  0  0  0  0  0  0  0  0  0  0  0
    7.7889  -14.7847   26.5809 C   0  0  0  0  0  0  0  0  0  0  0  0
    9.1053  -15.1012   25.9604 C   0  0  2  0  0  0  0  0  0  0  0  0
    8.8913  -15.4700   24.5754 N   0  0  0  0  0  0  0  0  0  0  0  0
    9.8653  -16.1903   26.6090 C   0  0  0  0  0  0  0  0  0  0  0  0
   10.6903  -15.9889   27.7259 O   0  0  0  0  0  0  0  0  0  0  0  0
    9.8340  -17.4023   26.2055 O   0  0  0  0  0  0  0  0  0  0  0  0
  2  3  2  0
  2  1  1  0
  4  3  1  0
  5  4  2  0
  6  5  1  0
  7  6  1  0
  7  8  1  6
  9  7  1  0
  9 10  2  0
 11  5  1  0
 11 12  2  0
 12  2  1  0
 14 13  1  1
 14 15  1  0
 16 14  1  0
 17 16  1  1
 17 18  1  0
 18  9  1  0
 19 17  1  0
 19 26  1  0
 20 19  2  0
 22 21  1  1
 23 22  1  0
 24 22  1  0
 25 24  1  1
 25 26  1  0
 25 27  1  0
 27 28  1  0
 29 27  2  0
M  END
$$$$
