YLL.pdb
     RDKit          3D

 29 29  0  0  1  0  0  0  0  0999 V2000
    7.4853  -18.4271   27.7390 O   0  0  0  0  0  0  0  0  0  0  0  0
    7.6896  -18.8456   26.4261 C   0  0  0  0  0  0  0  0  0  0  0  0
    8.9550  -18.8888   25.8729 C   0  0  0  0  0  0  0  0  0  0  0  0
    9.1531  -19.3038   24.5729 C   0  0  0  0  0  0  0  0  0  0  0  0
    8.1238  -19.6905   23.7693 C   0  0  0  0  0  0  0  0  0  0  0  0
    8.2768  -20.1442   22.3714 C   0  0  0  0  0  0  0  0  0  0  0  0
    7.7115  -19.0816   21.4604 C   0  0  2  0  0  0  0  0  0  0  0  0
    7.8271  -19.5272   20.0860 N   0  0  0  0  0  0  0  0  0  0  0  0
    8.4538  -17.8040   21.5628 C   0  0  0  0  0  0  0  0  0  0  0  0
    9.6935  -17.7585   21.3810 O   0  0  0  0  0  0  0  0  0  0  0  0
    6.8429  -19.6563   24.3009 C   0  0  0  0  0  0  0  0  0  0  0  0
    6.6385  -19.2409   25.6042 C   0  0  0  0  0  0  0  0  0  0  0  0
    6.8273  -12.8645   19.5406 C   0  0  0  0  0  0  0  0  0  0  0  0
    7.6614  -13.9955   20.0405 C   0  0  1  0  0  0  0  0  0  0  0  0
    9.0812  -13.7513   19.5035 C   0  0  0  0  0  0  0  0  0  0  0  0
    7.7842  -14.1368   21.5050 C   0  0  0  0  0  0  0  0  0  0  0  0
    8.5026  -15.3197   22.0377 C   0  0  2  0  0  0  0  0  0  0  0  0
    7.7997  -16.5623   21.8725 N   0  0  0  0  0  0  0  0  0  0  0  0
    9.0722  -15.1495   23.3986 C   0  0  0  0  0  0  0  0  0  0  0  0
   10.3081  -14.8723   23.5668 O   0  0  0  0  0  0  0  0  0  0  0  0
    7.7098  -11.8648   25.9726 C   0  0  0  0  0  0  0  0  0  0  0  0
    6.9180  -13.1896   25.9041 C   0  0  2  0  0  0  0  0  0  0  0  0
    5.5986  -12.8672   26.5734 C   0  0  0  0  0  0  0  0  0  0  0  0
    7.7515  -14.1908   26.6294 C   0  0  0  0  0  0  0  0  0  0  0  0
    8.8376  -14.8428   25.8464 C   0  0  2  0  0  0  0  0  0  0  0  0
    8.2977  -15.2798   24.5745 N   0  0  0  0  0  0  0  0  0  0  0  0
    9.4736  -16.0085   26.4953 C   0  0  0  0  0  0  0  0  0  0  0  0
    9.5535  -17.2724   25.8911 O   0  0  0  0  0  0  0  0  0  0  0  0
   10.0008  -15.9609   27.6582 O   0  0  0  0  0  0  0  0  0  0  0  0
  2  3  2  0
  2  1  1  0
  4  3  1  0
  5  4  2  0
  6  5  1  0
  7  6  1  0
  7  8  1  6
  9  7  1  0
  9 10  2  0
 11  5  1  0
 11 12  2  0
 12  2  1  0
 14 13  1  1
 14 15  1  0
 16 14  1  0
 17 16  1  1
 17 18  1  0
 18  9  1  0
 19 17  1  0
 19 26  1  0
 20 19  2  0
 22 21  1  1
 23 22  1  0
 24 22  1  0
 25 24  1  1
 25 26  1  0
 25 27  1  0
 27 28  1  0
 29 27  2  0
M  END
$$$$
