YLL.pdb
     RDKit          3D

 29 29  0  0  1  0  0  0  0  0999 V2000
    7.3638  -23.5255   29.4583 O   0  0  0  0  0  0  0  0  0  0  0  0
    7.4571  -22.3494   28.7176 C   0  0  0  0  0  0  0  0  0  0  0  0
    6.3397  -21.5898   28.4290 C   0  0  0  0  0  0  0  0  0  0  0  0
    6.4362  -20.4261   27.6956 C   0  0  0  0  0  0  0  0  0  0  0  0
    7.6257  -19.9645   27.2193 C   0  0  0  0  0  0  0  0  0  0  0  0
    7.7885  -18.7261   26.4299 C   0  0  0  0  0  0  0  0  0  0  0  0
    6.9719  -18.8546   25.1670 C   0  0  2  0  0  0  0  0  0  0  0  0
    7.4582  -19.9864   24.4030 N   0  0  0  0  0  0  0  0  0  0  0  0
    7.0957  -17.6624   24.2968 C   0  0  0  0  0  0  0  0  0  0  0  0
    7.8386  -17.6717   23.2868 O   0  0  0  0  0  0  0  0  0  0  0  0
    8.7632  -20.7090   27.4954 C   0  0  0  0  0  0  0  0  0  0  0  0
    8.6721  -21.8770   28.2306 C   0  0  0  0  0  0  0  0  0  0  0  0
    6.7839  -11.8259   25.5310 C   0  0  0  0  0  0  0  0  0  0  0  0
    6.2783  -13.2084   25.7721 C   0  0  1  0  0  0  0  0  0  0  0  0
    4.9568  -13.0534   26.5424 C   0  0  0  0  0  0  0  0  0  0  0  0
    5.9767  -14.0252   24.5798 C   0  0  0  0  0  0  0  0  0  0  0  0
    6.8935  -15.1414   24.2441 C   0  0  2  0  0  0  0  0  0  0  0  0
    6.3787  -16.4452   24.5609 N   0  0  0  0  0  0  0  0  0  0  0  0
    8.3015  -14.9507   24.6763 C   0  0  0  0  0  0  0  0  0  0  0  0
    9.0090  -13.9916   24.2158 O   0  0  0  0  0  0  0  0  0  0  0  0
   10.5797  -15.1576   30.0551 C   0  0  0  0  0  0  0  0  0  0  0  0
   10.9842  -14.7977   28.6082 C   0  0  2  0  0  0  0  0  0  0  0  0
   11.1434  -13.2921   28.6320 C   0  0  0  0  0  0  0  0  0  0  0  0
    9.8694  -15.2885   27.7482 C   0  0  0  0  0  0  0  0  0  0  0  0
   10.1409  -15.3598   26.2856 C   0  0  2  0  0  0  0  0  0  0  0  0
    8.9379  -15.8018   25.6091 N   0  0  0  0  0  0  0  0  0  0  0  0
   11.2430  -16.2614   25.8896 C   0  0  0  0  0  0  0  0  0  0  0  0
   12.5895  -15.8672   25.8809 O   0  0  0  0  0  0  0  0  0  0  0  0
   11.0597  -17.4714   25.5223 O   0  0  0  0  0  0  0  0  0  0  0  0
  2  3  2  0
  2  1  1  0
  4  3  1  0
  5  4  2  0
  6  5  1  0
  7  6  1  0
  7  8  1  6
  9  7  1  0
  9 10  2  0
 11  5  1  0
 11 12  2  0
 12  2  1  0
 14 13  1  6
 14 15  1  0
 16 14  1  0
 17 16  1  1
 17 18  1  0
 18  9  1  0
 19 17  1  0
 19 26  1  0
 20 19  2  0
 22 21  1  1
 23 22  1  0
 24 22  1  0
 25 24  1  1
 25 26  1  0
 25 27  1  0
 27 28  1  0
 29 27  2  0
M  END
$$$$
