YLL.pdb
     RDKit          3D

 29 29  0  0  1  0  0  0  0  0999 V2000
   10.7486  -23.7796   17.5584 O   0  0  0  0  0  0  0  0  0  0  0  0
   10.8458  -22.4518   17.9681 C   0  0  0  0  0  0  0  0  0  0  0  0
   11.7317  -22.0661   18.9558 C   0  0  0  0  0  0  0  0  0  0  0  0
   11.8251  -20.7506   19.3585 C   0  0  0  0  0  0  0  0  0  0  0  0
   11.0576  -19.7676   18.8114 C   0  0  0  0  0  0  0  0  0  0  0  0
   11.1154  -18.3438   19.2025 C   0  0  0  0  0  0  0  0  0  0  0  0
   10.4232  -18.1867   20.5346 C   0  0  2  0  0  0  0  0  0  0  0  0
    9.0267  -18.5456   20.3868 N   0  0  0  0  0  0  0  0  0  0  0  0
   10.4592  -16.7886   21.0225 C   0  0  0  0  0  0  0  0  0  0  0  0
   11.5468  -16.1841   21.1771 O   0  0  0  0  0  0  0  0  0  0  0  0
   10.1598  -20.1286   17.8174 C   0  0  0  0  0  0  0  0  0  0  0  0
   10.0620  -21.4466   17.4097 C   0  0  0  0  0  0  0  0  0  0  0  0
    6.2766  -13.2628   19.8197 C   0  0  0  0  0  0  0  0  0  0  0  0
    7.6263  -13.8384   20.0877 C   0  0  1  0  0  0  0  0  0  0  0  0
    8.6353  -12.9032   19.4015 C   0  0  0  0  0  0  0  0  0  0  0  0
    8.0396  -13.9383   21.5015 C   0  0  0  0  0  0  0  0  0  0  0  0
    9.2689  -14.7039   21.8205 C   0  0  2  0  0  0  0  0  0  0  0  0
    9.2628  -16.0588   21.3411 N   0  0  0  0  0  0  0  0  0  0  0  0
    9.7372  -14.5855   23.2249 C   0  0  0  0  0  0  0  0  0  0  0  0
   10.3420  -13.5364   23.6325 O   0  0  0  0  0  0  0  0  0  0  0  0
    7.7304  -12.7559   27.5695 C   0  0  0  0  0  0  0  0  0  0  0  0
    8.8383  -13.8228   27.4245 C   0  0  2  0  0  0  0  0  0  0  0  0
   10.0934  -13.1194   27.8963 C   0  0  0  0  0  0  0  0  0  0  0  0
    8.8446  -14.1982   25.9815 C   0  0  0  0  0  0  0  0  0  0  0  0
    9.7422  -15.3207   25.5913 C   0  0  2  0  0  0  0  0  0  0  0  0
    9.5464  -15.6067   24.1842 N   0  0  0  0  0  0  0  0  0  0  0  0
    9.5465  -16.5782   26.3428 C   0  0  0  0  0  0  0  0  0  0  0  0
    9.1262  -17.7734   25.7398 O   0  0  0  0  0  0  0  0  0  0  0  0
    9.7428  -16.6793   27.6013 O   0  0  0  0  0  0  0  0  0  0  0  0
  2  3  2  0
  2  1  1  0
  4  3  1  0
  5  4  2  0
  6  5  1  0
  7  6  1  0
  7  8  1  6
  9  7  1  0
  9 10  2  0
 11  5  1  0
 11 12  2  0
 12  2  1  0
 14 13  1  1
 14 15  1  0
 16 14  1  0
 17 16  1  1
 17 18  1  0
 18  9  1  0
 19 17  1  0
 19 26  1  0
 20 19  2  0
 22 21  1  6
 23 22  1  0
 24 22  1  0
 25 24  1  1
 25 26  1  0
 25 27  1  0
 27 28  1  0
 29 27  2  0
M  END
$$$$
