IIE.pdb
     RDKit          3D

 26 25  0  0  1  0  0  0  0  0999 V2000
    8.7241  -12.5941   27.7519 C   0  0  0  0  0  0  0  0  0  0  0  0
    7.5721  -13.5250   27.5135 C   0  0  0  0  0  0  0  0  0  0  0  0
    6.8031  -13.2835   26.2561 C   0  0  2  0  0  0  0  0  0  0  0  0
    5.6494  -12.3087   26.5223 C   0  0  0  0  0  0  0  0  0  0  0  0
    6.2537  -14.4857   25.5850 C   0  0  2  0  0  0  0  0  0  0  0  0
    5.7143  -15.4407   26.5311 N   0  0  0  0  0  0  0  0  0  0  0  0
    7.1698  -15.1577   24.6202 C   0  0  0  0  0  0  0  0  0  0  0  0
    7.2761  -16.4096   24.7536 O   0  0  0  0  0  0  0  0  0  0  0  0
    7.3279  -12.5292   19.9632 C   0  0  0  0  0  0  0  0  0  0  0  0
    7.1822  -13.7555   20.8762 C   0  0  0  0  0  0  0  0  0  0  0  0
    8.5367  -14.2663   21.2947 C   0  0  2  0  0  0  0  0  0  0  0  0
    9.1984  -14.8276   20.0713 C   0  0  0  0  0  0  0  0  0  0  0  0
    8.5955  -15.0421   22.5329 C   0  0  2  0  0  0  0  0  0  0  0  0
    7.8609  -14.4283   23.6324 N   0  0  0  0  0  0  0  0  0  0  0  0
    9.8649  -15.5539   23.0460 C   0  0  0  0  0  0  0  0  0  0  0  0
   10.5755  -14.7784   23.7445 O   0  0  0  0  0  0  0  0  0  0  0  0
   10.4066  -16.8476   22.8525 N   0  0  0  0  0  0  0  0  0  0  0  0
   11.6899  -17.1597   23.5093 C   0  0  1  0  0  0  0  0  0  0  0  0
   11.5428  -18.5109   24.2118 C   0  0  0  0  0  0  0  0  0  0  0  0
   12.8206  -18.9532   24.8816 C   0  0  0  0  0  0  0  0  0  0  0  0
   12.5292  -20.2638   25.5064 C   0  0  0  0  0  0  0  0  0  0  0  0
   12.8878  -21.3128   24.9435 O   0  0  0  0  0  0  0  0  0  0  0  0
   12.7430  -17.1527   22.4795 C   0  0  0  0  0  0  0  0  0  0  0  0
   12.5462  -17.3662   21.1293 O   0  0  0  0  0  0  0  0  0  0  0  0
   11.8577  -20.3118   26.7094 O   0  0  0  0  0  0  0  0  0  0  0  0
   13.9494  -16.9364   22.8237 O   0  0  0  0  0  0  0  0  0  0  0  0
  2  1  1  0
  3  2  1  0
  3  4  1  1
  5  3  1  0
  5  6  1  1
  7  5  1  0
  8  7  2  0
  9 10  1  0
 10 11  1  0
 11 13  1  0
 11 12  1  6
 13 14  1  1
 14  7  1  0
 15 17  1  0
 15 13  1  0
 16 15  2  0
 18 23  1  0
 18 17  1  0
 18 19  1  6
 19 20  1  0
 20 21  1  0
 21 22  2  0
 23 24  1  0
 25 21  1  0
 26 23  2  0
M  END
$$$$
