IIE.pdb
     RDKit          3D

 26 25  0  0  1  0  0  0  0  0999 V2000
    5.6221  -18.0522   19.1945 C   0  0  0  0  0  0  0  0  0  0  0  0
    5.8670  -16.6069   19.5131 C   0  0  0  0  0  0  0  0  0  0  0  0
    6.7349  -16.3512   20.7015 C   0  0  2  0  0  0  0  0  0  0  0  0
    6.2043  -17.1205   21.9175 C   0  0  0  0  0  0  0  0  0  0  0  0
    6.9119  -14.9310   21.0879 C   0  0  2  0  0  0  0  0  0  0  0  0
    7.3959  -14.1221   19.9882 N   0  0  0  0  0  0  0  0  0  0  0  0
    7.7251  -14.6958   22.3147 C   0  0  0  0  0  0  0  0  0  0  0  0
    8.9774  -14.7112   22.1477 O   0  0  0  0  0  0  0  0  0  0  0  0
    5.9668  -11.2532   26.1604 C   0  0  0  0  0  0  0  0  0  0  0  0
    6.8738  -12.0116   25.1802 C   0  0  0  0  0  0  0  0  0  0  0  0
    7.2382  -13.3640   25.7361 C   0  0  2  0  0  0  0  0  0  0  0  0
    7.8896  -13.1371   27.0680 C   0  0  0  0  0  0  0  0  0  0  0  0
    7.8603  -14.3114   24.8120 C   0  0  2  0  0  0  0  0  0  0  0  0
    7.1191  -14.4724   23.5670 N   0  0  0  0  0  0  0  0  0  0  0  0
    8.3071  -15.6275   25.2643 C   0  0  0  0  0  0  0  0  0  0  0  0
    7.4270  -16.5024   25.4976 O   0  0  0  0  0  0  0  0  0  0  0  0
    9.6412  -16.0523   25.4748 N   0  0  0  0  0  0  0  0  0  0  0  0
    9.8623  -17.4632   25.8437 C   0  0  1  0  0  0  0  0  0  0  0  0
   10.8115  -18.0763   24.8122 C   0  0  0  0  0  0  0  0  0  0  0  0
   12.1563  -17.3922   24.7896 C   0  0  0  0  0  0  0  0  0  0  0  0
   12.9325  -18.0387   23.7068 C   0  0  0  0  0  0  0  0  0  0  0  0
   13.3631  -19.1953   23.8577 O   0  0  0  0  0  0  0  0  0  0  0  0
   10.3962  -17.4976   27.2161 C   0  0  0  0  0  0  0  0  0  0  0  0
   10.6987  -18.6399   27.9308 O   0  0  0  0  0  0  0  0  0  0  0  0
   13.1756  -17.3507   22.5372 O   0  0  0  0  0  0  0  0  0  0  0  0
   10.6091  -16.4024   27.8293 O   0  0  0  0  0  0  0  0  0  0  0  0
  2  1  1  0
  3  2  1  0
  3  4  1  1
  5  3  1  0
  5  6  1  6
  7  5  1  0
  8  7  2  0
  9 10  1  0
 10 11  1  0
 11 13  1  0
 11 12  1  1
 13 14  1  6
 14  7  1  0
 15 17  1  0
 15 13  1  0
 16 15  2  0
 18 23  1  0
 18 17  1  0
 18 19  1  6
 19 20  1  0
 20 21  1  0
 21 22  2  0
 23 24  1  0
 25 21  1  0
 26 23  2  0
M  END
$$$$
