IIE.pdb
     RDKit          3D

 26 25  0  0  1  0  0  0  0  0999 V2000
    6.1662  -18.1333   19.5480 C   0  0  0  0  0  0  0  0  0  0  0  0
    6.2515  -16.6831   19.9223 C   0  0  0  0  0  0  0  0  0  0  0  0
    7.0622  -16.3826   21.1402 C   0  0  2  0  0  0  0  0  0  0  0  0
    6.5341  -17.1840   22.3364 C   0  0  0  0  0  0  0  0  0  0  0  0
    7.1459  -14.9559   21.5338 C   0  0  2  0  0  0  0  0  0  0  0  0
    7.5612  -14.1094   20.4343 N   0  0  0  0  0  0  0  0  0  0  0  0
    7.9545  -14.6725   22.7534 C   0  0  0  0  0  0  0  0  0  0  0  0
    9.2028  -14.5984   22.5726 O   0  0  0  0  0  0  0  0  0  0  0  0
    5.9524  -11.3120   26.5195 C   0  0  0  0  0  0  0  0  0  0  0  0
    6.9516  -11.9997   25.5776 C   0  0  0  0  0  0  0  0  0  0  0  0
    7.3913  -13.3229   26.1490 C   0  0  2  0  0  0  0  0  0  0  0  0
    8.0042  -13.0473   27.4899 C   0  0  0  0  0  0  0  0  0  0  0  0
    8.0878  -14.2345   25.2420 C   0  0  2  0  0  0  0  0  0  0  0  0
    7.3488  -14.5010   24.0140 N   0  0  0  0  0  0  0  0  0  0  0  0
    8.6630  -15.4888   25.7239 C   0  0  0  0  0  0  0  0  0  0  0  0
    7.8711  -16.4271   26.0187 O   0  0  0  0  0  0  0  0  0  0  0  0
   10.0353  -15.7882   25.9017 N   0  0  0  0  0  0  0  0  0  0  0  0
   10.3873  -17.1397   26.3760 C   0  0  1  0  0  0  0  0  0  0  0  0
   11.6310  -17.5978   25.6116 C   0  0  0  0  0  0  0  0  0  0  0  0
   11.4056  -17.6431   24.1202 C   0  0  0  0  0  0  0  0  0  0  0  0
   12.7196  -17.9526   23.5114 C   0  0  0  0  0  0  0  0  0  0  0  0
   13.7202  -18.0966   24.2352 O   0  0  0  0  0  0  0  0  0  0  0  0
   10.5937  -17.0725   27.8329 C   0  0  0  0  0  0  0  0  0  0  0  0
   10.7144  -18.1588   28.6770 O   0  0  0  0  0  0  0  0  0  0  0  0
   12.8250  -18.0760   22.1424 O   0  0  0  0  0  0  0  0  0  0  0  0
   10.6714  -15.9349   28.3992 O   0  0  0  0  0  0  0  0  0  0  0  0
  2  1  1  0
  3  2  1  0
  3  4  1  1
  5  3  1  0
  5  6  1  6
  7  5  1  0
  8  7  2  0
  9 10  1  0
 10 11  1  0
 11 13  1  0
 11 12  1  1
 13 14  1  6
 14  7  1  0
 15 17  1  0
 15 13  1  0
 16 15  2  0
 18 23  1  0
 18 17  1  0
 18 19  1  6
 19 20  1  0
 20 21  1  0
 21 22  2  0
 23 24  1  0
 25 21  1  0
 26 23  2  0
M  END
$$$$
