IIE.pdb
     RDKit          3D

 26 25  0  0  1  0  0  0  0  0999 V2000
   11.4742  -16.4488   30.9144 C   0  0  0  0  0  0  0  0  0  0  0  0
   10.0971  -16.7325   30.3916 C   0  0  0  0  0  0  0  0  0  0  0  0
    9.8946  -16.4570   28.9376 C   0  0  2  0  0  0  0  0  0  0  0  0
   10.2173  -14.9899   28.6287 C   0  0  0  0  0  0  0  0  0  0  0  0
    8.5494  -16.7637   28.3955 C   0  0  2  0  0  0  0  0  0  0  0  0
    8.1608  -18.1368   28.6434 N   0  0  0  0  0  0  0  0  0  0  0  0
    8.3363  -16.4044   26.9648 C   0  0  0  0  0  0  0  0  0  0  0  0
    8.3480  -17.3731   26.1536 O   0  0  0  0  0  0  0  0  0  0  0  0
    5.8310  -11.5795   25.9393 C   0  0  0  0  0  0  0  0  0  0  0  0
    6.0926  -13.0858   25.7926 C   0  0  0  0  0  0  0  0  0  0  0  0
    7.3727  -13.3281   25.0354 C   0  0  2  0  0  0  0  0  0  0  0  0
    7.1848  -12.7746   23.6542 C   0  0  0  0  0  0  0  0  0  0  0  0
    7.9822  -14.6501   25.1760 C   0  0  2  0  0  0  0  0  0  0  0  0
    8.1362  -15.0684   26.5640 N   0  0  0  0  0  0  0  0  0  0  0  0
    9.1951  -15.0062   24.4423 C   0  0  0  0  0  0  0  0  0  0  0  0
   10.3076  -14.7071   24.9593 O   0  0  0  0  0  0  0  0  0  0  0  0
    9.2762  -15.6657   23.1921 N   0  0  0  0  0  0  0  0  0  0  0  0
   10.6040  -16.1241   22.7426 C   0  0  1  0  0  0  0  0  0  0  0  0
   11.0791  -17.2107   23.7093 C   0  0  0  0  0  0  0  0  0  0  0  0
   12.5699  -17.1655   23.9381 C   0  0  0  0  0  0  0  0  0  0  0  0
   12.8925  -18.3250   24.8009 C   0  0  0  0  0  0  0  0  0  0  0  0
   14.0671  -18.5270   25.1549 O   0  0  0  0  0  0  0  0  0  0  0  0
   10.4769  -16.5983   21.3538 C   0  0  0  0  0  0  0  0  0  0  0  0
   11.5238  -16.8013   20.4764 O   0  0  0  0  0  0  0  0  0  0  0  0
   11.8859  -19.1764   25.2039 O   0  0  0  0  0  0  0  0  0  0  0  0
    9.3205  -16.8521   20.8857 O   0  0  0  0  0  0  0  0  0  0  0  0
  2  1  1  0
  3  2  1  0
  3  4  1  1
  5  3  1  0
  5  6  1  6
  7  5  1  0
  8  7  2  0
  9 10  1  0
 10 11  1  0
 11 13  1  0
 11 12  1  6
 13 14  1  1
 14  7  1  0
 15 17  1  0
 15 13  1  0
 16 15  2  0
 18 23  1  0
 18 17  1  0
 18 19  1  1
 19 20  1  0
 20 21  1  0
 21 22  2  0
 23 24  1  0
 25 21  1  0
 26 23  2  0
M  END
$$$$
