IIE.pdb
     RDKit          3D

 26 25  0  0  1  0  0  0  0  0999 V2000
    6.4697  -17.6038   18.8051 C   0  0  0  0  0  0  0  0  0  0  0  0
    6.5054  -16.1855   19.2926 C   0  0  0  0  0  0  0  0  0  0  0  0
    7.2563  -15.9642   20.5646 C   0  0  2  0  0  0  0  0  0  0  0  0
    6.7584  -16.9307   21.6461 C   0  0  0  0  0  0  0  0  0  0  0  0
    7.2188  -14.5881   21.1145 C   0  0  2  0  0  0  0  0  0  0  0  0
    7.6297  -13.5989   20.1395 N   0  0  0  0  0  0  0  0  0  0  0  0
    7.9414  -14.3916   22.4033 C   0  0  0  0  0  0  0  0  0  0  0  0
    9.1931  -14.2479   22.3080 O   0  0  0  0  0  0  0  0  0  0  0  0
    5.6177  -11.4235   26.2828 C   0  0  0  0  0  0  0  0  0  0  0  0
    6.6669  -12.0250   25.3362 C   0  0  0  0  0  0  0  0  0  0  0  0
    7.1395  -13.3599   25.8514 C   0  0  2  0  0  0  0  0  0  0  0  0
    7.6864  -13.1369   27.2300 C   0  0  0  0  0  0  0  0  0  0  0  0
    7.9095  -14.1895   24.9254 C   0  0  2  0  0  0  0  0  0  0  0  0
    7.2565  -14.3697   23.6345 N   0  0  0  0  0  0  0  0  0  0  0  0
    8.4747  -15.4698   25.3469 C   0  0  0  0  0  0  0  0  0  0  0  0
    7.6845  -16.4425   25.5006 O   0  0  0  0  0  0  0  0  0  0  0  0
    9.8358  -15.7599   25.6073 N   0  0  0  0  0  0  0  0  0  0  0  0
   10.1806  -17.1388   26.0012 C   0  0  1  0  0  0  0  0  0  0  0  0
   11.2924  -17.6299   25.0718 C   0  0  0  0  0  0  0  0  0  0  0  0
   12.4639  -16.6799   25.0240 C   0  0  0  0  0  0  0  0  0  0  0  0
   13.4079  -17.2353   24.0274 C   0  0  0  0  0  0  0  0  0  0  0  0
   14.4258  -16.5945   23.7127 O   0  0  0  0  0  0  0  0  0  0  0  0
   10.5754  -17.1227   27.4202 C   0  0  0  0  0  0  0  0  0  0  0  0
   10.5852  -16.0097   28.2376 O   0  0  0  0  0  0  0  0  0  0  0  0
   13.1490  -18.4608   23.4514 O   0  0  0  0  0  0  0  0  0  0  0  0
   10.9464  -18.2064   27.9759 O   0  0  0  0  0  0  0  0  0  0  0  0
  2  1  1  0
  3  2  1  0
  3  4  1  1
  5  3  1  0
  5  6  1  6
  7  5  1  0
  8  7  2  0
  9 10  1  0
 10 11  1  0
 11 13  1  0
 11 12  1  1
 13 14  1  6
 14  7  1  0
 15 17  1  0
 15 13  1  0
 16 15  2  0
 18 23  1  0
 18 17  1  0
 18 19  1  6
 19 20  1  0
 20 21  1  0
 21 22  2  0
 23 24  1  0
 25 21  1  0
 26 23  2  0
M  END
$$$$
