IIE.pdb
     RDKit          3D

 26 25  0  0  1  0  0  0  0  0999 V2000
    6.5842  -11.7721   28.2631 C   0  0  0  0  0  0  0  0  0  0  0  0
    5.9545  -12.7423   27.3079 C   0  0  0  0  0  0  0  0  0  0  0  0
    6.9076  -13.4967   26.4400 C   0  0  2  0  0  0  0  0  0  0  0  0
    7.7628  -12.5206   25.6229 C   0  0  0  0  0  0  0  0  0  0  0  0
    6.3053  -14.4816   25.5101 C   0  0  2  0  0  0  0  0  0  0  0  0
    5.5125  -15.4749   26.2050 N   0  0  0  0  0  0  0  0  0  0  0  0
    7.2530  -15.1317   24.5609 C   0  0  0  0  0  0  0  0  0  0  0  0
    7.4891  -16.3534   24.7801 O   0  0  0  0  0  0  0  0  0  0  0  0
    7.5011  -12.5478   19.7997 C   0  0  0  0  0  0  0  0  0  0  0  0
    7.3072  -13.7496   20.7361 C   0  0  0  0  0  0  0  0  0  0  0  0
    8.6400  -14.2794   21.1984 C   0  0  2  0  0  0  0  0  0  0  0  0
    9.3170  -14.8845   20.0046 C   0  0  0  0  0  0  0  0  0  0  0  0
    8.6530  -15.0259   22.4558 C   0  0  2  0  0  0  0  0  0  0  0  0
    7.8352  -14.4150   23.4966 N   0  0  0  0  0  0  0  0  0  0  0  0
    9.9070  -15.4814   23.0527 C   0  0  0  0  0  0  0  0  0  0  0  0
   10.6115  -14.6326   23.6672 O   0  0  0  0  0  0  0  0  0  0  0  0
   10.4397  -16.7929   23.0277 N   0  0  0  0  0  0  0  0  0  0  0  0
   11.7821  -16.9997   23.6027 C   0  0  1  0  0  0  0  0  0  0  0  0
   11.7400  -18.2723   24.4511 C   0  0  0  0  0  0  0  0  0  0  0  0
   11.0107  -18.0697   25.7565 C   0  0  0  0  0  0  0  0  0  0  0  0
   11.0649  -19.3674   26.4677 C   0  0  0  0  0  0  0  0  0  0  0  0
   12.0597  -20.1026   26.3418 O   0  0  0  0  0  0  0  0  0  0  0  0
   12.7474  -17.0742   22.4926 C   0  0  0  0  0  0  0  0  0  0  0  0
   14.1147  -16.9170   22.6064 O   0  0  0  0  0  0  0  0  0  0  0  0
   10.0079  -19.7538   27.2639 O   0  0  0  0  0  0  0  0  0  0  0  0
   12.3242  -17.2998   21.3132 O   0  0  0  0  0  0  0  0  0  0  0  0
  2  1  1  0
  3  2  1  0
  3  4  1  6
  5  3  1  0
  5  6  1  1
  7  5  1  0
  8  7  2  0
  9 10  1  0
 10 11  1  0
 11 13  1  0
 11 12  1  6
 13 14  1  1
 14  7  1  0
 15 17  1  0
 15 13  1  0
 16 15  2  0
 18 23  1  0
 18 17  1  0
 18 19  1  6
 19 20  1  0
 20 21  1  0
 21 22  2  0
 23 24  1  0
 25 21  1  0
 26 23  2  0
M  END
$$$$
