IIE.pdb
     RDKit          3D

 26 25  0  0  1  0  0  0  0  0999 V2000
    6.6512  -17.2916   18.4603 C   0  0  0  0  0  0  0  0  0  0  0  0
    6.6051  -15.9070   19.0357 C   0  0  0  0  0  0  0  0  0  0  0  0
    7.3089  -15.7322   20.3415 C   0  0  2  0  0  0  0  0  0  0  0  0
    6.7495  -16.7146   21.3778 C   0  0  0  0  0  0  0  0  0  0  0  0
    7.2762  -14.3695   20.9241 C   0  0  2  0  0  0  0  0  0  0  0  0
    7.7439  -13.3653   19.9910 N   0  0  0  0  0  0  0  0  0  0  0  0
    7.9515  -14.2193   22.2444 C   0  0  0  0  0  0  0  0  0  0  0  0
    9.2091  -14.1048   22.2016 O   0  0  0  0  0  0  0  0  0  0  0  0
    5.5406  -11.3154   26.0641 C   0  0  0  0  0  0  0  0  0  0  0  0
    6.6910  -11.8857   25.2215 C   0  0  0  0  0  0  0  0  0  0  0  0
    7.0558  -13.2696   25.6934 C   0  0  2  0  0  0  0  0  0  0  0  0
    7.5374  -13.1450   27.1084 C   0  0  0  0  0  0  0  0  0  0  0  0
    7.8264  -14.1002   24.7689 C   0  0  2  0  0  0  0  0  0  0  0  0
    7.2189  -14.2072   23.4480 N   0  0  0  0  0  0  0  0  0  0  0  0
    8.3188  -15.4179   25.1658 C   0  0  0  0  0  0  0  0  0  0  0  0
    7.4779  -16.3526   25.2816 O   0  0  0  0  0  0  0  0  0  0  0  0
    9.6589  -15.7834   25.4400 N   0  0  0  0  0  0  0  0  0  0  0  0
    9.9231  -17.1811   25.8300 C   0  0  1  0  0  0  0  0  0  0  0  0
   10.9826  -17.7428   24.8798 C   0  0  0  0  0  0  0  0  0  0  0  0
   12.2380  -16.9058   24.8583 C   0  0  0  0  0  0  0  0  0  0  0  0
   13.1068  -17.4882   23.8101 C   0  0  0  0  0  0  0  0  0  0  0  0
   12.8298  -17.3187   22.6099 O   0  0  0  0  0  0  0  0  0  0  0  0
   10.3464  -17.1888   27.2408 C   0  0  0  0  0  0  0  0  0  0  0  0
   10.6030  -18.3167   27.9953 O   0  0  0  0  0  0  0  0  0  0  0  0
   14.2180  -18.2189   24.1733 O   0  0  0  0  0  0  0  0  0  0  0  0
   10.4985  -16.0822   27.8516 O   0  0  0  0  0  0  0  0  0  0  0  0
  2  1  1  0
  3  2  1  0
  3  4  1  1
  5  3  1  0
  5  6  1  6
  7  5  1  0
  8  7  2  0
  9 10  1  0
 10 11  1  0
 11 13  1  0
 11 12  1  1
 13 14  1  6
 14  7  1  0
 15 17  1  0
 15 13  1  0
 16 15  2  0
 18 23  1  0
 18 17  1  0
 18 19  1  6
 19 20  1  0
 20 21  1  0
 21 22  2  0
 23 24  1  0
 25 21  1  0
 26 23  2  0
M  END
$$$$
