IIE.pdb
     RDKit          3D

 26 25  0  0  1  0  0  0  0  0999 V2000
   11.3342  -15.3501   31.1493 C   0  0  0  0  0  0  0  0  0  0  0  0
   10.2877  -16.2249   30.5252 C   0  0  0  0  0  0  0  0  0  0  0  0
   10.1544  -16.1058   29.0422 C   0  0  2  0  0  0  0  0  0  0  0  0
   10.1528  -14.6287   28.6298 C   0  0  0  0  0  0  0  0  0  0  0  0
    8.9700  -16.7610   28.4379 C   0  0  2  0  0  0  0  0  0  0  0  0
    8.9291  -18.1815   28.7182 N   0  0  0  0  0  0  0  0  0  0  0  0
    8.7655  -16.5034   26.9841 C   0  0  0  0  0  0  0  0  0  0  0  0
    8.8649  -17.5150   26.2337 O   0  0  0  0  0  0  0  0  0  0  0  0
    6.1243  -11.9205   26.0559 C   0  0  0  0  0  0  0  0  0  0  0  0
    6.2737  -13.4049   25.6911 C   0  0  0  0  0  0  0  0  0  0  0  0
    7.5366  -13.6300   24.9004 C   0  0  2  0  0  0  0  0  0  0  0  0
    7.2701  -13.1746   23.4964 C   0  0  0  0  0  0  0  0  0  0  0  0
    8.2192  -14.9082   25.0973 C   0  0  2  0  0  0  0  0  0  0  0  0
    8.4806  -15.2114   26.4991 N   0  0  0  0  0  0  0  0  0  0  0  0
    9.4003  -15.2642   24.3132 C   0  0  0  0  0  0  0  0  0  0  0  0
   10.4632  -14.6140   24.5177 O   0  0  0  0  0  0  0  0  0  0  0  0
    9.5006  -16.2776   23.3296 N   0  0  0  0  0  0  0  0  0  0  0  0
   10.7843  -16.4181   22.6171 C   0  0  1  0  0  0  0  0  0  0  0  0
   11.3283  -17.8201   22.8990 C   0  0  0  0  0  0  0  0  0  0  0  0
   11.6444  -18.0318   24.3592 C   0  0  0  0  0  0  0  0  0  0  0  0
   12.1812  -19.4073   24.4722 C   0  0  0  0  0  0  0  0  0  0  0  0
   12.1448  -20.1699   23.4909 O   0  0  0  0  0  0  0  0  0  0  0  0
   10.5418  -16.1667   21.1862 C   0  0  0  0  0  0  0  0  0  0  0  0
   11.5182  -15.9800   20.2276 O   0  0  0  0  0  0  0  0  0  0  0  0
   12.7160  -19.8348   25.6687 O   0  0  0  0  0  0  0  0  0  0  0  0
    9.3441  -16.1082   20.7582 O   0  0  0  0  0  0  0  0  0  0  0  0
  2  1  1  0
  3  2  1  0
  3  4  1  1
  5  3  1  0
  5  6  1  6
  7  5  1  0
  8  7  2  0
  9 10  1  0
 10 11  1  0
 11 13  1  0
 11 12  1  6
 13 14  1  1
 14  7  1  0
 15 17  1  0
 15 13  1  0
 16 15  2  0
 18 23  1  0
 18 17  1  0
 18 19  1  6
 19 20  1  0
 20 21  1  0
 21 22  2  0
 23 24  1  0
 25 21  1  0
 26 23  2  0
M  END
$$$$
