IIE.pdb
     RDKit          3D

 26 25  0  0  1  0  0  0  0  0999 V2000
    6.7604  -16.4193   18.0407 C   0  0  0  0  0  0  0  0  0  0  0  0
    6.7633  -15.1267   18.8020 C   0  0  0  0  0  0  0  0  0  0  0  0
    7.4139  -15.1761   20.1456 C   0  0  2  0  0  0  0  0  0  0  0  0
    6.7510  -16.2529   21.0133 C   0  0  0  0  0  0  0  0  0  0  0  0
    7.4322  -13.9060   20.9098 C   0  0  2  0  0  0  0  0  0  0  0  0
    7.9810  -12.8111   20.1365 N   0  0  0  0  0  0  0  0  0  0  0  0
    8.0709  -13.9750   22.2548 C   0  0  0  0  0  0  0  0  0  0  0  0
    9.3313  -13.8874   22.2630 O   0  0  0  0  0  0  0  0  0  0  0  0
    5.9327  -11.3316   26.4437 C   0  0  0  0  0  0  0  0  0  0  0  0
    6.9269  -11.9549   25.4528 C   0  0  0  0  0  0  0  0  0  0  0  0
    7.1249  -13.4182   25.7533 C   0  0  2  0  0  0  0  0  0  0  0  0
    7.5224  -13.5269   27.1954 C   0  0  0  0  0  0  0  0  0  0  0  0
    7.8710  -14.1991   24.7673 C   0  0  2  0  0  0  0  0  0  0  0  0
    7.3031  -14.1270   23.4266 N   0  0  0  0  0  0  0  0  0  0  0  0
    8.2629  -15.5814   25.0359 C   0  0  0  0  0  0  0  0  0  0  0  0
    7.3487  -16.4476   25.1271 O   0  0  0  0  0  0  0  0  0  0  0  0
    9.5768  -16.0802   25.2075 N   0  0  0  0  0  0  0  0  0  0  0  0
    9.7341  -17.5217   25.4771 C   0  0  1  0  0  0  0  0  0  0  0  0
   10.7472  -18.0802   24.4759 C   0  0  0  0  0  0  0  0  0  0  0  0
   11.8621  -17.1067   24.1817 C   0  0  0  0  0  0  0  0  0  0  0  0
   12.6923  -17.7331   23.1276 C   0  0  0  0  0  0  0  0  0  0  0  0
   12.2685  -17.7971   21.9604 O   0  0  0  0  0  0  0  0  0  0  0  0
   10.1563  -17.6801   26.8794 C   0  0  0  0  0  0  0  0  0  0  0  0
   10.3562  -16.6509   27.7782 O   0  0  0  0  0  0  0  0  0  0  0  0
   13.9311  -18.2453   23.4492 O   0  0  0  0  0  0  0  0  0  0  0  0
   10.3657  -18.8489   27.3386 O   0  0  0  0  0  0  0  0  0  0  0  0
  2  1  1  0
  3  2  1  0
  3  4  1  1
  5  3  1  0
  5  6  1  6
  7  5  1  0
  8  7  2  0
  9 10  1  0
 10 11  1  0
 11 13  1  0
 11 12  1  1
 13 14  1  6
 14  7  1  0
 15 17  1  0
 15 13  1  0
 16 15  2  0
 18 23  1  0
 18 17  1  0
 18 19  1  6
 19 20  1  0
 20 21  1  0
 21 22  2  0
 23 24  1  0
 25 21  1  0
 26 23  2  0
M  END
$$$$
