IIE.pdb
     RDKit          3D

 26 25  0  0  1  0  0  0  0  0999 V2000
    6.0540  -18.0256   18.9907 C   0  0  0  0  0  0  0  0  0  0  0  0
    5.9896  -16.5924   19.4287 C   0  0  0  0  0  0  0  0  0  0  0  0
    6.8924  -16.2276   20.5613 C   0  0  2  0  0  0  0  0  0  0  0  0
    6.6674  -17.1792   21.7427 C   0  0  0  0  0  0  0  0  0  0  0  0
    6.7885  -14.8344   21.0571 C   0  0  2  0  0  0  0  0  0  0  0  0
    6.9691  -13.8629   19.9981 N   0  0  0  0  0  0  0  0  0  0  0  0
    7.6479  -14.5041   22.2293 C   0  0  0  0  0  0  0  0  0  0  0  0
    8.8688  -14.3078   21.9697 O   0  0  0  0  0  0  0  0  0  0  0  0
    5.6500  -11.5500   26.3541 C   0  0  0  0  0  0  0  0  0  0  0  0
    6.6583  -12.0677   25.3178 C   0  0  0  0  0  0  0  0  0  0  0  0
    7.2168  -13.4007   25.7443 C   0  0  2  0  0  0  0  0  0  0  0  0
    7.8870  -13.1988   27.0708 C   0  0  0  0  0  0  0  0  0  0  0  0
    7.9181  -14.1792   24.7241 C   0  0  2  0  0  0  0  0  0  0  0  0
    7.1156  -14.4204   23.5312 N   0  0  0  0  0  0  0  0  0  0  0  0
    8.6292  -15.4094   25.0666 C   0  0  0  0  0  0  0  0  0  0  0  0
    7.9584  -16.4759   25.1501 O   0  0  0  0  0  0  0  0  0  0  0  0
   10.0147  -15.5546   25.3193 N   0  0  0  0  0  0  0  0  0  0  0  0
   10.5476  -16.9230   25.4570 C   0  0  1  0  0  0  0  0  0  0  0  0
   11.8995  -16.9759   24.7425 C   0  0  0  0  0  0  0  0  0  0  0  0
   12.6256  -18.2770   24.9804 C   0  0  0  0  0  0  0  0  0  0  0  0
   13.9121  -18.1729   24.2545 C   0  0  0  0  0  0  0  0  0  0  0  0
   14.1641  -18.9570   23.3231 O   0  0  0  0  0  0  0  0  0  0  0  0
   10.6381  -17.2350   26.8937 C   0  0  0  0  0  0  0  0  0  0  0  0
   10.8516  -18.4893   27.4304 O   0  0  0  0  0  0  0  0  0  0  0  0
   14.8252  -17.2067   24.6196 O   0  0  0  0  0  0  0  0  0  0  0  0
   10.5129  -16.2958   27.7441 O   0  0  0  0  0  0  0  0  0  0  0  0
  2  1  1  0
  3  2  1  0
  3  4  1  1
  5  3  1  0
  5  6  1  6
  7  5  1  0
  8  7  2  0
  9 10  1  0
 10 11  1  0
 11 13  1  0
 11 12  1  1
 13 14  1  6
 14  7  1  0
 15 17  1  0
 15 13  1  0
 16 15  2  0
 18 23  1  0
 18 17  1  0
 18 19  1  1
 19 20  1  0
 20 21  1  0
 21 22  2  0
 23 24  1  0
 25 21  1  0
 26 23  2  0
M  END
$$$$
