IIE.pdb
     RDKit          3D

 26 25  0  0  1  0  0  0  0  0999 V2000
    3.3683  -17.5489   20.3418 C   0  0  0  0  0  0  0  0  0  0  0  0
    4.0909  -18.0161   21.5705 C   0  0  0  0  0  0  0  0  0  0  0  0
    5.0832  -17.0529   22.1351 C   0  0  2  0  0  0  0  0  0  0  0  0
    6.0685  -16.6117   21.0459 C   0  0  0  0  0  0  0  0  0  0  0  0
    5.8609  -17.5265   23.3048 C   0  0  2  0  0  0  0  0  0  0  0  0
    5.0055  -17.9516   24.3936 N   0  0  0  0  0  0  0  0  0  0  0  0
    6.9158  -16.5943   23.7947 C   0  0  0  0  0  0  0  0  0  0  0  0
    7.8230  -16.3140   22.9611 O   0  0  0  0  0  0  0  0  0  0  0  0
    5.7681  -12.1819   26.5410 C   0  0  0  0  0  0  0  0  0  0  0  0
    6.5310  -13.1205   25.5947 C   0  0  0  0  0  0  0  0  0  0  0  0
    7.4105  -14.0601   26.3785 C   0  0  2  0  0  0  0  0  0  0  0  0
    8.3720  -13.2189   27.1642 C   0  0  0  0  0  0  0  0  0  0  0  0
    7.9311  -15.2259   25.6653 C   0  0  2  0  0  0  0  0  0  0  0  0
    6.8851  -16.0711   25.1027 N   0  0  0  0  0  0  0  0  0  0  0  0
    8.9554  -16.0821   26.2604 C   0  0  0  0  0  0  0  0  0  0  0  0
    8.5766  -17.0094   27.0291 O   0  0  0  0  0  0  0  0  0  0  0  0
   10.3561  -15.9978   26.0721 N   0  0  0  0  0  0  0  0  0  0  0  0
   11.1808  -17.1276   26.5399 C   0  0  1  0  0  0  0  0  0  0  0  0
   12.4804  -17.1280   25.7324 C   0  0  0  0  0  0  0  0  0  0  0  0
   13.4831  -18.1265   26.2563 C   0  0  0  0  0  0  0  0  0  0  0  0
   14.6773  -18.0092   25.3886 C   0  0  0  0  0  0  0  0  0  0  0  0
   14.6802  -17.2020   24.4430 O   0  0  0  0  0  0  0  0  0  0  0  0
   11.3975  -16.9654   27.9878 C   0  0  0  0  0  0  0  0  0  0  0  0
   11.7655  -17.9697   28.8614 O   0  0  0  0  0  0  0  0  0  0  0  0
   15.7793  -18.8005   25.6340 O   0  0  0  0  0  0  0  0  0  0  0  0
   11.2410  -15.8178   28.5164 O   0  0  0  0  0  0  0  0  0  0  0  0
  2  1  1  0
  3  2  1  0
  3  4  1  6
  5  3  1  0
  5  6  1  1
  7  5  1  0
  8  7  2  0
  9 10  1  0
 10 11  1  0
 11 13  1  0
 11 12  1  6
 13 14  1  1
 14  7  1  0
 15 17  1  0
 15 13  1  0
 16 15  2  0
 18 23  1  0
 18 17  1  0
 18 19  1  6
 19 20  1  0
 20 21  1  0
 21 22  2  0
 23 24  1  0
 25 21  1  0
 26 23  2  0
M  END
$$$$
