IIE.pdb
     RDKit          3D

 26 25  0  0  1  0  0  0  0  0999 V2000
    6.1743  -18.5333   19.5182 C   0  0  0  0  0  0  0  0  0  0  0  0
    6.2529  -17.0663   19.8216 C   0  0  0  0  0  0  0  0  0  0  0  0
    7.1141  -16.6981   20.9851 C   0  0  2  0  0  0  0  0  0  0  0  0
    6.7255  -17.5302   22.2132 C   0  0  0  0  0  0  0  0  0  0  0  0
    7.1139  -15.2669   21.3711 C   0  0  2  0  0  0  0  0  0  0  0  0
    7.4456  -14.4009   20.2584 N   0  0  0  0  0  0  0  0  0  0  0  0
    7.9322  -14.9247   22.5690 C   0  0  0  0  0  0  0  0  0  0  0  0
    9.1716  -14.7938   22.3612 O   0  0  0  0  0  0  0  0  0  0  0  0
    5.8713  -11.5225   26.1835 C   0  0  0  0  0  0  0  0  0  0  0  0
    6.9307  -12.1968   25.2994 C   0  0  0  0  0  0  0  0  0  0  0  0
    7.3909  -13.4905   25.9201 C   0  0  2  0  0  0  0  0  0  0  0  0
    8.0095  -13.1538   27.2443 C   0  0  0  0  0  0  0  0  0  0  0  0
    8.0926  -14.4291   25.0452 C   0  0  2  0  0  0  0  0  0  0  0  0
    7.3442  -14.7615   23.8391 N   0  0  0  0  0  0  0  0  0  0  0  0
    8.6948  -15.6513   25.5742 C   0  0  0  0  0  0  0  0  0  0  0  0
    7.9281  -16.6151   25.8530 O   0  0  0  0  0  0  0  0  0  0  0  0
   10.0689  -15.8930   25.8151 N   0  0  0  0  0  0  0  0  0  0  0  0
   10.4629  -17.2486   26.2424 C   0  0  1  0  0  0  0  0  0  0  0  0
   11.8555  -17.5345   25.6768 C   0  0  0  0  0  0  0  0  0  0  0  0
   12.3890  -18.8771   26.1125 C   0  0  0  0  0  0  0  0  0  0  0  0
   13.7364  -19.0029   25.5112 C   0  0  0  0  0  0  0  0  0  0  0  0
   13.8771  -18.9107   24.2793 O   0  0  0  0  0  0  0  0  0  0  0  0
   10.4133  -17.2956   27.7138 C   0  0  0  0  0  0  0  0  0  0  0  0
   10.3034  -16.2007   28.5482 O   0  0  0  0  0  0  0  0  0  0  0  0
   14.8279  -19.2252   26.3234 O   0  0  0  0  0  0  0  0  0  0  0  0
   10.4756  -18.4222   28.3035 O   0  0  0  0  0  0  0  0  0  0  0  0
  2  1  1  0
  3  2  1  0
  3  4  1  1
  5  3  1  0
  5  6  1  6
  7  5  1  0
  8  7  2  0
  9 10  1  0
 10 11  1  0
 11 13  1  0
 11 12  1  1
 13 14  1  6
 14  7  1  0
 15 17  1  0
 15 13  1  0
 16 15  2  0
 18 23  1  0
 18 17  1  0
 18 19  1  1
 19 20  1  0
 20 21  1  0
 21 22  2  0
 23 24  1  0
 25 21  1  0
 26 23  2  0
M  END
$$$$
