IIE.pdb
     RDKit          3D

 26 25  0  0  1  0  0  0  0  0999 V2000
    4.9569  -20.6520   22.4117 C   0  0  0  0  0  0  0  0  0  0  0  0
    4.7620  -19.1720   22.2639 C   0  0  0  0  0  0  0  0  0  0  0  0
    5.8579  -18.3230   22.8200 C   0  0  2  0  0  0  0  0  0  0  0  0
    6.1275  -18.7005   24.2817 C   0  0  0  0  0  0  0  0  0  0  0  0
    5.6501  -16.8571   22.7465 C   0  0  2  0  0  0  0  0  0  0  0  0
    5.3354  -16.4167   21.4031 N   0  0  0  0  0  0  0  0  0  0  0  0
    6.7373  -16.0241   23.3345 C   0  0  0  0  0  0  0  0  0  0  0  0
    7.7669  -15.8878   22.6149 O   0  0  0  0  0  0  0  0  0  0  0  0
    5.4666  -11.8133   26.5684 C   0  0  0  0  0  0  0  0  0  0  0  0
    6.2629  -12.5729   25.4971 C   0  0  0  0  0  0  0  0  0  0  0  0
    7.1475  -13.6128   26.1349 C   0  0  2  0  0  0  0  0  0  0  0  0
    8.1178  -12.8894   27.0208 C   0  0  0  0  0  0  0  0  0  0  0  0
    7.6593  -14.6688   25.2622 C   0  0  2  0  0  0  0  0  0  0  0  0
    6.6062  -15.4360   24.6083 N   0  0  0  0  0  0  0  0  0  0  0  0
    8.6964  -15.5920   25.7189 C   0  0  0  0  0  0  0  0  0  0  0  0
    8.3347  -16.6119   26.3694 O   0  0  0  0  0  0  0  0  0  0  0  0
   10.0926  -15.4801   25.5123 N   0  0  0  0  0  0  0  0  0  0  0  0
   10.9267  -16.6605   25.8063 C   0  0  1  0  0  0  0  0  0  0  0  0
   12.1697  -16.5919   24.9169 C   0  0  0  0  0  0  0  0  0  0  0  0
   13.1684  -17.6762   25.2392 C   0  0  0  0  0  0  0  0  0  0  0  0
   14.3144  -17.4698   24.3243 C   0  0  0  0  0  0  0  0  0  0  0  0
   14.1251  -17.4077   23.0971 O   0  0  0  0  0  0  0  0  0  0  0  0
   11.2415  -16.6498   27.2452 C   0  0  0  0  0  0  0  0  0  0  0  0
   11.7025  -17.7286   27.9737 O   0  0  0  0  0  0  0  0  0  0  0  0
   15.5870  -17.3510   24.8409 O   0  0  0  0  0  0  0  0  0  0  0  0
   11.0873  -15.5741   27.9085 O   0  0  0  0  0  0  0  0  0  0  0  0
  2  1  1  0
  3  2  1  0
  3  4  1  1
  5  3  1  0
  5  6  1  6
  7  5  1  0
  8  7  2  0
  9 10  1  0
 10 11  1  0
 11 13  1  0
 11 12  1  6
 13 14  1  1
 14  7  1  0
 15 17  1  0
 15 13  1  0
 16 15  2  0
 18 23  1  0
 18 17  1  0
 18 19  1  6
 19 20  1  0
 20 21  1  0
 21 22  2  0
 23 24  1  0
 25 21  1  0
 26 23  2  0
M  END
$$$$
