IIE.pdb
     RDKit          3D

 26 25  0  0  1  0  0  0  0  0999 V2000
    6.8449  -17.6944   18.8024 C   0  0  0  0  0  0  0  0  0  0  0  0
    6.6809  -16.2711   19.2469 C   0  0  0  0  0  0  0  0  0  0  0  0
    7.3628  -15.9176   20.5280 C   0  0  2  0  0  0  0  0  0  0  0  0
    6.9663  -16.9100   21.6279 C   0  0  0  0  0  0  0  0  0  0  0  0
    7.1322  -14.5432   21.0333 C   0  0  2  0  0  0  0  0  0  0  0  0
    7.4268  -13.5372   20.0337 N   0  0  0  0  0  0  0  0  0  0  0  0
    7.7974  -14.2142   22.3260 C   0  0  0  0  0  0  0  0  0  0  0  0
    8.9893  -13.8049   22.2350 O   0  0  0  0  0  0  0  0  0  0  0  0
    5.5162  -11.3219   26.1288 C   0  0  0  0  0  0  0  0  0  0  0  0
    6.5784  -11.9598   25.2213 C   0  0  0  0  0  0  0  0  0  0  0  0
    6.9871  -13.3087   25.7542 C   0  0  2  0  0  0  0  0  0  0  0  0
    7.4958  -13.1008   27.1498 C   0  0  0  0  0  0  0  0  0  0  0  0
    7.7580  -14.1671   24.8556 C   0  0  2  0  0  0  0  0  0  0  0  0
    7.1249  -14.3561   23.5561 N   0  0  0  0  0  0  0  0  0  0  0  0
    8.2915  -15.4507   25.3075 C   0  0  0  0  0  0  0  0  0  0  0  0
    7.4712  -16.3807   25.5452 O   0  0  0  0  0  0  0  0  0  0  0  0
    9.6513  -15.7873   25.5132 N   0  0  0  0  0  0  0  0  0  0  0  0
    9.9592  -17.1601   25.9560 C   0  0  1  0  0  0  0  0  0  0  0  0
   11.0617  -17.7111   25.0493 C   0  0  0  0  0  0  0  0  0  0  0  0
   12.1474  -16.6976   24.7827 C   0  0  0  0  0  0  0  0  0  0  0  0
   13.1398  -17.3717   23.9145 C   0  0  0  0  0  0  0  0  0  0  0  0
   14.1966  -16.7903   23.6130 O   0  0  0  0  0  0  0  0  0  0  0  0
   10.3489  -17.1050   27.3754 C   0  0  0  0  0  0  0  0  0  0  0  0
   10.6423  -18.1959   28.1698 O   0  0  0  0  0  0  0  0  0  0  0  0
   12.8827  -18.6413   23.4427 O   0  0  0  0  0  0  0  0  0  0  0  0
   10.4322  -15.9745   27.9551 O   0  0  0  0  0  0  0  0  0  0  0  0
  2  1  1  0
  3  2  1  0
  3  4  1  1
  5  3  1  0
  5  6  1  6
  7  5  1  0
  8  7  2  0
  9 10  1  0
 10 11  1  0
 11 13  1  0
 11 12  1  1
 13 14  1  6
 14  7  1  0
 15 17  1  0
 15 13  1  0
 16 15  2  0
 18 23  1  0
 18 17  1  0
 18 19  1  6
 19 20  1  0
 20 21  1  0
 21 22  2  0
 23 24  1  0
 25 21  1  0
 26 23  2  0
M  END
$$$$
