IIE.pdb
     RDKit          3D

 26 25  0  0  1  0  0  0  0  0999 V2000
    6.1612  -18.0951   19.2496 C   0  0  0  0  0  0  0  0  0  0  0  0
    6.3054  -16.6661   19.6828 C   0  0  0  0  0  0  0  0  0  0  0  0
    7.1024  -16.4516   20.9278 C   0  0  2  0  0  0  0  0  0  0  0  0
    6.4924  -17.2474   22.0882 C   0  0  0  0  0  0  0  0  0  0  0  0
    7.2688  -15.0443   21.3627 C   0  0  2  0  0  0  0  0  0  0  0  0
    7.7986  -14.2055   20.3073 N   0  0  0  0  0  0  0  0  0  0  0  0
    8.0338  -14.8490   22.6269 C   0  0  0  0  0  0  0  0  0  0  0  0
    9.2903  -14.8075   22.5009 O   0  0  0  0  0  0  0  0  0  0  0  0
    6.0328  -11.5466   26.4063 C   0  0  0  0  0  0  0  0  0  0  0  0
    7.0391  -12.2568   25.4889 C   0  0  0  0  0  0  0  0  0  0  0  0
    7.3920  -13.6134   26.0420 C   0  0  2  0  0  0  0  0  0  0  0  0
    7.9681  -13.4003   27.4103 C   0  0  0  0  0  0  0  0  0  0  0  0
    8.0756  -14.5371   25.1377 C   0  0  2  0  0  0  0  0  0  0  0  0
    7.3811  -14.7206   23.8691 N   0  0  0  0  0  0  0  0  0  0  0  0
    8.5521  -15.8382   25.6029 C   0  0  0  0  0  0  0  0  0  0  0  0
    7.7067  -16.7683   25.7241 O   0  0  0  0  0  0  0  0  0  0  0  0
    9.8810  -16.1922   25.9395 N   0  0  0  0  0  0  0  0  0  0  0  0
   10.1357  -17.5833   26.3584 C   0  0  1  0  0  0  0  0  0  0  0  0
   11.1875  -18.1734   25.4169 C   0  0  0  0  0  0  0  0  0  0  0  0
   12.4032  -17.2892   25.2857 C   0  0  0  0  0  0  0  0  0  0  0  0
   12.9948  -17.5912   23.9622 C   0  0  0  0  0  0  0  0  0  0  0  0
   13.5061  -16.6796   23.2887 O   0  0  0  0  0  0  0  0  0  0  0  0
   10.5639  -17.5642   27.7676 C   0  0  0  0  0  0  0  0  0  0  0  0
   10.9066  -18.6723   28.5171 O   0  0  0  0  0  0  0  0  0  0  0  0
   12.9717  -18.8837   23.4834 O   0  0  0  0  0  0  0  0  0  0  0  0
   10.6356  -16.4513   28.3819 O   0  0  0  0  0  0  0  0  0  0  0  0
  2  1  1  0
  3  2  1  0
  3  4  1  1
  5  3  1  0
  5  6  1  6
  7  5  1  0
  8  7  2  0
  9 10  1  0
 10 11  1  0
 11 13  1  0
 11 12  1  1
 13 14  1  6
 14  7  1  0
 15 17  1  0
 15 13  1  0
 16 15  2  0
 18 23  1  0
 18 17  1  0
 18 19  1  6
 19 20  1  0
 20 21  1  0
 21 22  2  0
 23 24  1  0
 25 21  1  0
 26 23  2  0
M  END
$$$$
