DYN.pdb
     RDKit          3D

 29 29  0  0  1  0  0  0  0  0999 V2000
    9.2690  -17.9609   20.1836 N   0  0  0  0  0  0  0  0  0  0  0  0
   10.5515  -17.3394   20.3514 C   0  0  1  0  0  0  0  0  0  0  0  0
   11.1452  -16.8312   19.0596 C   0  0  0  0  0  0  0  0  0  0  0  0
   11.1571  -17.9480   18.1006 C   0  0  0  0  0  0  0  0  0  0  0  0
   11.5858  -19.0616   18.4523 O   0  0  0  0  0  0  0  0  0  0  0  0
   10.4411  -16.2740   21.3836 C   0  0  0  0  0  0  0  0  0  0  0  0
   11.4645  -15.5886   21.7179 O   0  0  0  0  0  0  0  0  0  0  0  0
   10.6958  -17.7615   16.8203 O   0  0  0  0  0  0  0  0  0  0  0  0
    6.0846  -11.7218   27.8485 O   0  0  0  0  0  0  0  0  0  0  0  0
    6.5107  -12.4473   26.7271 C   0  0  0  0  0  0  0  0  0  0  0  0
    7.2285  -11.8509   25.7172 C   0  0  0  0  0  0  0  0  0  0  0  0
    7.6287  -12.6144   24.6243 C   0  0  0  0  0  0  0  0  0  0  0  0
    7.3268  -13.9542   24.5224 C   0  0  0  0  0  0  0  0  0  0  0  0
    7.7283  -14.7348   23.3689 C   0  0  0  0  0  0  0  0  0  0  0  0
    9.1773  -15.0059   23.1763 C   0  0  2  0  0  0  0  0  0  0  0  0
    9.2389  -15.9587   22.0416 N   0  0  0  0  0  0  0  0  0  0  0  0
    9.8841  -15.6272   24.3033 C   0  0  0  0  0  0  0  0  0  0  0  0
   10.5733  -14.8879   25.0880 O   0  0  0  0  0  0  0  0  0  0  0  0
    6.6081  -14.5284   25.5449 C   0  0  0  0  0  0  0  0  0  0  0  0
    6.2082  -13.7785   26.6307 C   0  0  0  0  0  0  0  0  0  0  0  0
   11.6882  -18.3240   28.2158 N   0  0  0  0  0  0  0  0  0  0  0  0
   10.4655  -17.6100   28.2551 C   0  0  0  0  0  0  0  0  0  0  0  0
    9.9537  -17.3594   29.3789 O   0  0  0  0  0  0  0  0  0  0  0  0
    9.7664  -17.1484   27.0476 C   0  0  0  0  0  0  0  0  0  0  0  0
   10.5410  -17.5050   25.7908 C   0  0  2  0  0  0  0  0  0  0  0  0
    9.8736  -17.0081   24.6182 N   0  0  0  0  0  0  0  0  0  0  0  0
   10.7623  -18.9641   25.8012 C   0  0  0  0  0  0  0  0  0  0  0  0
   10.0815  -19.6586   25.0062 O   0  0  0  0  0  0  0  0  0  0  0  0
   11.6596  -19.6274   26.6159 O   0  0  0  0  0  0  0  0  0  0  0  0
  2  1  1  6
  3  4  1  0
  3  2  1  0
  4  8  1  0
  5  4  2  0
  6  2  1  0
  7  6  2  0
  9 10  1  0
 10 20  2  0
 10 11  1  0
 11 12  2  0
 12 13  1  0
 13 14  1  0
 15 14  1  1
 15 16  1  0
 15 17  1  0
 16  6  1  0
 17 26  1  0
 18 17  2  0
 19 13  2  0
 20 19  1  0
 22 21  1  0
 22 24  1  0
 23 22  2  0
 25 24  1  1
 25 27  1  0
 26 25  1  0
 27 29  1  0
 28 27  2  0
M  END
$$$$
