DYN.pdb
     RDKit          3D

 29 29  0  0  1  0  0  0  0  0999 V2000
   10.8300  -16.8126   19.7222 N   0  0  0  0  0  0  0  0  0  0  0  0
   10.2143  -17.4963   20.8233 C   0  0  1  0  0  0  0  0  0  0  0  0
   10.8421  -18.8361   21.1239 C   0  0  0  0  0  0  0  0  0  0  0  0
   10.1195  -19.8556   20.3456 C   0  0  0  0  0  0  0  0  0  0  0  0
    9.5376  -20.7853   20.9326 O   0  0  0  0  0  0  0  0  0  0  0  0
   10.2041  -16.5955   22.0070 C   0  0  0  0  0  0  0  0  0  0  0  0
   11.2734  -16.0084   22.3823 O   0  0  0  0  0  0  0  0  0  0  0  0
   10.0876  -19.7808   18.9744 O   0  0  0  0  0  0  0  0  0  0  0  0
    6.1838  -10.9405   27.7030 O   0  0  0  0  0  0  0  0  0  0  0  0
    6.5830  -11.8508   26.7144 C   0  0  0  0  0  0  0  0  0  0  0  0
    7.4735  -11.4948   25.7290 C   0  0  0  0  0  0  0  0  0  0  0  0
    7.8387  -12.4351   24.7697 C   0  0  0  0  0  0  0  0  0  0  0  0
    7.3336  -13.7162   24.7768 C   0  0  0  0  0  0  0  0  0  0  0  0
    7.7025  -14.6807   23.7596 C   0  0  0  0  0  0  0  0  0  0  0  0
    9.0297  -15.3415   23.8691 C   0  0  2  0  0  0  0  0  0  0  0  0
    9.0515  -16.3368   22.7699 N   0  0  0  0  0  0  0  0  0  0  0  0
    9.3005  -16.0670   25.1165 C   0  0  0  0  0  0  0  0  0  0  0  0
    9.3648  -15.4126   26.2143 O   0  0  0  0  0  0  0  0  0  0  0  0
    6.4446  -14.0488   25.7722 C   0  0  0  0  0  0  0  0  0  0  0  0
    6.0782  -13.1227   26.7259 C   0  0  0  0  0  0  0  0  0  0  0  0
    6.9457  -19.9840   25.2485 N   0  0  0  0  0  0  0  0  0  0  0  0
    7.5980  -19.3401   26.3284 C   0  0  0  0  0  0  0  0  0  0  0  0
    6.9051  -18.6449   27.1185 O   0  0  0  0  0  0  0  0  0  0  0  0
    9.0439  -19.4448   26.5702 C   0  0  0  0  0  0  0  0  0  0  0  0
    9.7142  -18.0835   26.5068 C   0  0  2  0  0  0  0  0  0  0  0  0
    9.4999  -17.4650   25.2266 N   0  0  0  0  0  0  0  0  0  0  0  0
   11.1323  -18.2663   26.8723 C   0  0  0  0  0  0  0  0  0  0  0  0
   11.3802  -18.7818   27.9907 O   0  0  0  0  0  0  0  0  0  0  0  0
   12.2098  -17.9157   26.0818 O   0  0  0  0  0  0  0  0  0  0  0  0
  2  1  1  6
  3  4  1  0
  3  2  1  0
  4  8  1  0
  5  4  2  0
  6  2  1  0
  7  6  2  0
  9 10  1  0
 10 20  2  0
 10 11  1  0
 11 12  2  0
 12 13  1  0
 13 14  1  0
 15 14  1  1
 15 16  1  0
 15 17  1  0
 16  6  1  0
 17 26  1  0
 18 17  2  0
 19 13  2  0
 20 19  1  0
 22 21  1  0
 22 24  1  0
 23 22  2  0
 25 24  1  6
 25 27  1  0
 26 25  1  0
 27 29  1  0
 28 27  2  0
M  END
$$$$
