DYN.pdb
     RDKit          3D

 29 29  0  0  1  0  0  0  0  0999 V2000
   10.0235  -18.9646   20.9878 N   0  0  0  0  0  0  0  0  0  0  0  0
   10.9147  -17.8811   20.6861 C   0  0  1  0  0  0  0  0  0  0  0  0
   10.6953  -17.2880   19.3151 C   0  0  0  0  0  0  0  0  0  0  0  0
   11.5821  -17.9917   18.3740 C   0  0  0  0  0  0  0  0  0  0  0  0
   12.2293  -18.9828   18.7565 O   0  0  0  0  0  0  0  0  0  0  0  0
   10.8214  -16.8632   21.7668 C   0  0  0  0  0  0  0  0  0  0  0  0
   11.8300  -16.1392   22.0625 O   0  0  0  0  0  0  0  0  0  0  0  0
   11.6948  -17.5553   17.0765 O   0  0  0  0  0  0  0  0  0  0  0  0
    6.7519  -13.3115   18.1615 O   0  0  0  0  0  0  0  0  0  0  0  0
    7.1247  -13.7004   19.4558 C   0  0  0  0  0  0  0  0  0  0  0  0
    8.0179  -12.9632   20.1970 C   0  0  0  0  0  0  0  0  0  0  0  0
    8.3561  -13.3915   21.4776 C   0  0  0  0  0  0  0  0  0  0  0  0
    7.8218  -14.5353   22.0276 C   0  0  0  0  0  0  0  0  0  0  0  0
    8.1985  -14.9850   23.3531 C   0  0  0  0  0  0  0  0  0  0  0  0
    9.5543  -15.5665   23.5367 C   0  0  2  0  0  0  0  0  0  0  0  0
    9.6517  -16.6358   22.5137 N   0  0  0  0  0  0  0  0  0  0  0  0
    9.8321  -16.1855   24.8388 C   0  0  0  0  0  0  0  0  0  0  0  0
    9.6824  -15.4894   25.9020 O   0  0  0  0  0  0  0  0  0  0  0  0
    6.9307  -15.2559   21.2671 C   0  0  0  0  0  0  0  0  0  0  0  0
    6.5908  -14.8379   19.9978 C   0  0  0  0  0  0  0  0  0  0  0  0
   10.8770  -21.2187   28.0914 N   0  0  0  0  0  0  0  0  0  0  0  0
   10.1618  -20.0310   27.8010 C   0  0  0  0  0  0  0  0  0  0  0  0
    9.6307  -19.4027   28.7554 O   0  0  0  0  0  0  0  0  0  0  0  0
   10.0102  -19.4978   26.4399 C   0  0  0  0  0  0  0  0  0  0  0  0
   10.4509  -18.0465   26.3632 C   0  0  2  0  0  0  0  0  0  0  0  0
   10.2591  -17.5211   25.0387 N   0  0  0  0  0  0  0  0  0  0  0  0
   11.8392  -17.9743   26.8589 C   0  0  0  0  0  0  0  0  0  0  0  0
   12.7570  -17.9149   26.0034 O   0  0  0  0  0  0  0  0  0  0  0  0
   12.2099  -17.9664   28.1898 O   0  0  0  0  0  0  0  0  0  0  0  0
  2  1  1  1
  3  4  1  0
  3  2  1  0
  4  8  1  0
  5  4  2  0
  6  2  1  0
  7  6  2  0
  9 10  1  0
 10 20  2  0
 10 11  1  0
 11 12  2  0
 12 13  1  0
 13 14  1  0
 15 14  1  1
 15 16  1  0
 15 17  1  0
 16  6  1  0
 17 26  1  0
 18 17  2  0
 19 13  2  0
 20 19  1  0
 22 21  1  0
 22 24  1  0
 23 22  2  0
 25 24  1  6
 25 27  1  0
 26 25  1  0
 27 29  1  0
 28 27  2  0
M  END
$$$$
