DYN.pdb
     RDKit          3D

 29 29  0  0  1  0  0  0  0  0999 V2000
   11.2160  -17.7150   19.1283 N   0  0  0  0  0  0  0  0  0  0  0  0
   12.0938  -16.6053   19.3675 C   0  0  1  0  0  0  0  0  0  0  0  0
   12.3306  -15.7533   18.1437 C   0  0  0  0  0  0  0  0  0  0  0  0
   12.8853  -16.6217   17.0923 C   0  0  0  0  0  0  0  0  0  0  0  0
   13.4430  -17.6898   17.4017 O   0  0  0  0  0  0  0  0  0  0  0  0
   11.5739  -15.8166   20.5166 C   0  0  0  0  0  0  0  0  0  0  0  0
   12.2447  -14.8373   20.9854 O   0  0  0  0  0  0  0  0  0  0  0  0
   12.7873  -16.2540   15.7724 O   0  0  0  0  0  0  0  0  0  0  0  0
    7.6227  -12.6001   16.7680 O   0  0  0  0  0  0  0  0  0  0  0  0
    7.8206  -13.1528   18.0411 C   0  0  0  0  0  0  0  0  0  0  0  0
    8.1918  -12.3737   19.1116 C   0  0  0  0  0  0  0  0  0  0  0  0
    8.3760  -12.9700   20.3558 C   0  0  0  0  0  0  0  0  0  0  0  0
    8.1973  -14.3218   20.5489 C   0  0  0  0  0  0  0  0  0  0  0  0
    8.4144  -14.9365   21.8436 C   0  0  0  0  0  0  0  0  0  0  0  0
    9.8112  -15.2485   22.2456 C   0  0  2  0  0  0  0  0  0  0  0  0
   10.3457  -16.0875   21.1457 N   0  0  0  0  0  0  0  0  0  0  0  0
    9.9817  -16.0065   23.4914 C   0  0  0  0  0  0  0  0  0  0  0  0
    9.4336  -15.5720   24.5629 O   0  0  0  0  0  0  0  0  0  0  0  0
    7.8261  -15.0803   19.4633 C   0  0  0  0  0  0  0  0  0  0  0  0
    7.6418  -14.4967   18.2278 C   0  0  0  0  0  0  0  0  0  0  0  0
   10.0742  -20.5895   22.7845 N   0  0  0  0  0  0  0  0  0  0  0  0
    9.9471  -19.9644   24.0491 C   0  0  0  0  0  0  0  0  0  0  0  0
    8.8119  -19.9429   24.5956 O   0  0  0  0  0  0  0  0  0  0  0  0
   11.0761  -19.3402   24.7531 C   0  0  0  0  0  0  0  0  0  0  0  0
   10.8709  -17.8434   24.9076 C   0  0  2  0  0  0  0  0  0  0  0  0
   10.7136  -17.2118   23.6256 N   0  0  0  0  0  0  0  0  0  0  0  0
   11.9877  -17.3206   25.7185 C   0  0  0  0  0  0  0  0  0  0  0  0
   12.7112  -16.4324   25.2031 O   0  0  0  0  0  0  0  0  0  0  0  0
   12.3008  -17.7301   27.0003 O   0  0  0  0  0  0  0  0  0  0  0  0
  2  1  1  6
  3  4  1  0
  3  2  1  0
  4  8  1  0
  5  4  2  0
  6  2  1  0
  7  6  2  0
  9 10  1  0
 10 20  2  0
 10 11  1  0
 11 12  2  0
 12 13  1  0
 13 14  1  0
 15 14  1  6
 15 16  1  0
 15 17  1  0
 16  6  1  0
 17 26  1  0
 18 17  2  0
 19 13  2  0
 20 19  1  0
 22 21  1  0
 22 24  1  0
 23 22  2  0
 25 24  1  6
 25 27  1  0
 26 25  1  0
 27 29  1  0
 28 27  2  0
M  END
$$$$
