DYN.pdb
     RDKit          3D

 29 29  0  0  1  0  0  0  0  0999 V2000
    8.7291  -17.2239   19.4113 N   0  0  0  0  0  0  0  0  0  0  0  0
   10.0127  -17.3582   20.0388 C   0  0  1  0  0  0  0  0  0  0  0  0
   11.1678  -17.0817   19.1067 C   0  0  0  0  0  0  0  0  0  0  0  0
   10.9205  -17.8158   17.8548 C   0  0  0  0  0  0  0  0  0  0  0  0
   10.5023  -18.9867   17.8959 O   0  0  0  0  0  0  0  0  0  0  0  0
   10.0477  -16.5035   21.2557 C   0  0  0  0  0  0  0  0  0  0  0  0
   11.1533  -16.0288   21.6812 O   0  0  0  0  0  0  0  0  0  0  0  0
   11.1506  -17.2096   16.6439 O   0  0  0  0  0  0  0  0  0  0  0  0
    6.3897  -11.7934   28.0129 O   0  0  0  0  0  0  0  0  0  0  0  0
    6.7227  -12.4958   26.8463 C   0  0  0  0  0  0  0  0  0  0  0  0
    7.5518  -11.9519   25.8935 C   0  0  0  0  0  0  0  0  0  0  0  0
    7.8525  -12.6897   24.7520 C   0  0  0  0  0  0  0  0  0  0  0  0
    7.3432  -13.9525   24.5462 C   0  0  0  0  0  0  0  0  0  0  0  0
    7.6439  -14.7029   23.3431 C   0  0  0  0  0  0  0  0  0  0  0  0
    8.9638  -15.3810   23.2518 C   0  0  2  0  0  0  0  0  0  0  0  0
    8.9006  -16.1702   21.9978 N   0  0  0  0  0  0  0  0  0  0  0  0
    9.2984  -16.3140   24.3350 C   0  0  0  0  0  0  0  0  0  0  0  0
    8.6149  -17.3882   24.4629 O   0  0  0  0  0  0  0  0  0  0  0  0
    6.5165  -14.4752   25.5131 C   0  0  0  0  0  0  0  0  0  0  0  0
    6.2141  -13.7504   26.6465 C   0  0  0  0  0  0  0  0  0  0  0  0
   13.1777  -17.3775   23.9957 N   0  0  0  0  0  0  0  0  0  0  0  0
   12.3028  -18.0945   24.8481 C   0  0  0  0  0  0  0  0  0  0  0  0
   11.7707  -19.1495   24.4104 O   0  0  0  0  0  0  0  0  0  0  0  0
   11.9866  -17.6659   26.2179 C   0  0  0  0  0  0  0  0  0  0  0  0
   10.5765  -17.1097   26.3108 C   0  0  2  0  0  0  0  0  0  0  0  0
   10.3394  -16.1368   25.2790 N   0  0  0  0  0  0  0  0  0  0  0  0
   10.3834  -16.6085   27.6854 C   0  0  0  0  0  0  0  0  0  0  0  0
   10.5194  -17.4301   28.6257 O   0  0  0  0  0  0  0  0  0  0  0  0
   10.0653  -15.3065   28.0207 O   0  0  0  0  0  0  0  0  0  0  0  0
  2  1  1  6
  3  4  1  0
  3  2  1  0
  4  8  1  0
  5  4  2  0
  6  2  1  0
  7  6  2  0
  9 10  1  0
 10 20  2  0
 10 11  1  0
 11 12  2  0
 12 13  1  0
 13 14  1  0
 15 14  1  1
 15 16  1  0
 15 17  1  0
 16  6  1  0
 17 26  1  0
 18 17  2  0
 19 13  2  0
 20 19  1  0
 22 21  1  0
 22 24  1  0
 23 22  2  0
 25 24  1  1
 25 27  1  0
 26 25  1  0
 27 29  1  0
 28 27  2  0
M  END
$$$$
