DYN.pdb
     RDKit          3D

 29 29  0  0  1  0  0  0  0  0999 V2000
   10.6034  -17.0978   19.2376 N   0  0  0  0  0  0  0  0  0  0  0  0
    9.8285  -17.5284   20.3660 C   0  0  1  0  0  0  0  0  0  0  0  0
   10.2781  -18.8543   20.9313 C   0  0  0  0  0  0  0  0  0  0  0  0
   10.4804  -19.7783   19.8033 C   0  0  0  0  0  0  0  0  0  0  0  0
   10.4611  -19.3453   18.6372 O   0  0  0  0  0  0  0  0  0  0  0  0
    9.8217  -16.4480   21.3884 C   0  0  0  0  0  0  0  0  0  0  0  0
   10.8742  -15.7614   21.6110 O   0  0  0  0  0  0  0  0  0  0  0  0
   10.6903  -21.1154   20.0373 O   0  0  0  0  0  0  0  0  0  0  0  0
    6.0302  -11.2078   27.6790 O   0  0  0  0  0  0  0  0  0  0  0  0
    6.3634  -12.0694   26.6245 C   0  0  0  0  0  0  0  0  0  0  0  0
    7.0500  -11.6203   25.5210 C   0  0  0  0  0  0  0  0  0  0  0  0
    7.3573  -12.5153   24.5001 C   0  0  0  0  0  0  0  0  0  0  0  0
    6.9935  -13.8421   24.5611 C   0  0  0  0  0  0  0  0  0  0  0  0
    7.2981  -14.7606   23.4819 C   0  0  0  0  0  0  0  0  0  0  0  0
    8.7242  -15.0950   23.2279 C   0  0  2  0  0  0  0  0  0  0  0  0
    8.6902  -16.1192   22.1560 N   0  0  0  0  0  0  0  0  0  0  0  0
    9.4739  -15.6689   24.3524 C   0  0  0  0  0  0  0  0  0  0  0  0
   10.1266  -14.8872   25.1273 O   0  0  0  0  0  0  0  0  0  0  0  0
    6.3076  -14.2677   25.6746 C   0  0  0  0  0  0  0  0  0  0  0  0
    5.9996  -13.3870   26.6899 C   0  0  0  0  0  0  0  0  0  0  0  0
    9.8462  -19.0678   28.9852 N   0  0  0  0  0  0  0  0  0  0  0  0
   10.2638  -19.1979   27.6380 C   0  0  0  0  0  0  0  0  0  0  0  0
   11.3393  -19.8100   27.4005 O   0  0  0  0  0  0  0  0  0  0  0  0
    9.5023  -18.6528   26.5054 C   0  0  0  0  0  0  0  0  0  0  0  0
   10.2382  -17.4968   25.8506 C   0  0  2  0  0  0  0  0  0  0  0  0
    9.5438  -17.0463   24.6750 N   0  0  0  0  0  0  0  0  0  0  0  0
   11.6298  -17.9286   25.6158 C   0  0  0  0  0  0  0  0  0  0  0  0
   11.8952  -18.4469   24.5028 O   0  0  0  0  0  0  0  0  0  0  0  0
   12.6647  -17.8077   26.5230 O   0  0  0  0  0  0  0  0  0  0  0  0
  2  1  1  6
  3  4  1  0
  3  2  1  0
  4  8  1  0
  5  4  2  0
  6  2  1  0
  7  6  2  0
  9 10  1  0
 10 20  2  0
 10 11  1  0
 11 12  2  0
 12 13  1  0
 13 14  1  0
 15 14  1  1
 15 16  1  0
 15 17  1  0
 16  6  1  0
 17 26  1  0
 18 17  2  0
 19 13  2  0
 20 19  1  0
 22 21  1  0
 22 24  1  0
 23 22  2  0
 25 24  1  6
 25 27  1  0
 26 25  1  0
 27 29  1  0
 28 27  2  0
M  END
$$$$
