DYN.pdb
     RDKit          3D

 29 29  0  0  1  0  0  0  0  0999 V2000
    7.5537  -13.7576   17.5235 N   0  0  0  0  0  0  0  0  0  0  0  0
    7.7438  -14.9537   18.2931 C   0  0  1  0  0  0  0  0  0  0  0  0
    8.5806  -15.9939   17.5878 C   0  0  0  0  0  0  0  0  0  0  0  0
    7.7933  -17.2362   17.5242 C   0  0  0  0  0  0  0  0  0  0  0  0
    6.5506  -17.1835   17.5451 O   0  0  0  0  0  0  0  0  0  0  0  0
    8.2957  -14.5888   19.6253 C   0  0  0  0  0  0  0  0  0  0  0  0
    9.4186  -13.9894   19.7183 O   0  0  0  0  0  0  0  0  0  0  0  0
    8.4290  -18.4511   17.4418 O   0  0  0  0  0  0  0  0  0  0  0  0
    7.3355  -12.6369   28.3260 O   0  0  0  0  0  0  0  0  0  0  0  0
    7.2181  -12.9755   26.9707 C   0  0  0  0  0  0  0  0  0  0  0  0
    7.0945  -14.2840   26.5663 C   0  0  0  0  0  0  0  0  0  0  0  0
    6.9809  -14.5687   25.2085 C   0  0  0  0  0  0  0  0  0  0  0  0
    6.9887  -13.5766   24.2534 C   0  0  0  0  0  0  0  0  0  0  0  0
    6.8933  -13.8856   22.8405 C   0  0  0  0  0  0  0  0  0  0  0  0
    8.1182  -14.3566   22.1420 C   0  0  2  0  0  0  0  0  0  0  0  0
    7.6384  -14.8704   20.8362 N   0  0  0  0  0  0  0  0  0  0  0  0
    8.8649  -15.4434   22.7878 C   0  0  0  0  0  0  0  0  0  0  0  0
    8.4113  -16.6377   22.7148 O   0  0  0  0  0  0  0  0  0  0  0  0
    7.1134  -12.2757   24.6822 C   0  0  0  0  0  0  0  0  0  0  0  0
    7.2263  -11.9859   26.0255 C   0  0  0  0  0  0  0  0  0  0  0  0
   12.6862  -18.7489   24.2775 N   0  0  0  0  0  0  0  0  0  0  0  0
   12.8980  -17.4193   24.7172 C   0  0  0  0  0  0  0  0  0  0  0  0
   13.6963  -17.2239   25.6724 O   0  0  0  0  0  0  0  0  0  0  0  0
   12.2308  -16.2579   24.1124 C   0  0  0  0  0  0  0  0  0  0  0  0
   10.7213  -16.4254   24.1144 C   0  0  2  0  0  0  0  0  0  0  0  0
   10.0785  -15.2940   23.5028 N   0  0  0  0  0  0  0  0  0  0  0  0
   10.3033  -16.6938   25.5040 C   0  0  0  0  0  0  0  0  0  0  0  0
   10.0278  -15.7043   26.2271 O   0  0  0  0  0  0  0  0  0  0  0  0
   10.1904  -17.9476   26.0734 O   0  0  0  0  0  0  0  0  0  0  0  0
  2  1  1  6
  3  4  1  0
  3  2  1  0
  4  8  1  0
  5  4  2  0
  6  2  1  0
  7  6  2  0
  9 10  1  0
 10 20  2  0
 10 11  1  0
 11 12  2  0
 12 13  1  0
 13 14  1  0
 15 14  1  1
 15 16  1  0
 15 17  1  0
 16  6  1  0
 17 26  1  0
 18 17  2  0
 19 13  2  0
 20 19  1  0
 22 21  1  0
 22 24  1  0
 23 22  2  0
 25 24  1  1
 25 27  1  0
 26 25  1  0
 27 29  1  0
 28 27  2  0
M  END
$$$$
