DYN.pdb
     RDKit          3D

 29 29  0  0  1  0  0  0  0  0999 V2000
    9.3755  -18.1004   20.8443 N   0  0  0  0  0  0  0  0  0  0  0  0
   10.6539  -17.5843   21.2424 C   0  0  1  0  0  0  0  0  0  0  0  0
   11.4862  -17.0861   20.0854 C   0  0  0  0  0  0  0  0  0  0  0  0
   11.5095  -18.1429   19.0608 C   0  0  0  0  0  0  0  0  0  0  0  0
   11.5015  -19.3385   19.4043 O   0  0  0  0  0  0  0  0  0  0  0  0
   10.4516  -16.5438   22.2860 C   0  0  0  0  0  0  0  0  0  0  0  0
   11.4535  -15.9850   22.8453 O   0  0  0  0  0  0  0  0  0  0  0  0
   11.5399  -17.8101   17.7285 O   0  0  0  0  0  0  0  0  0  0  0  0
    5.7758  -10.7680   27.3129 O   0  0  0  0  0  0  0  0  0  0  0  0
    6.2477  -11.6887   26.3668 C   0  0  0  0  0  0  0  0  0  0  0  0
    5.7477  -12.9679   26.2994 C   0  0  0  0  0  0  0  0  0  0  0  0
    6.2493  -13.8450   25.3419 C   0  0  0  0  0  0  0  0  0  0  0  0
    7.2350  -13.4699   24.4563 C   0  0  0  0  0  0  0  0  0  0  0  0
    7.7669  -14.3982   23.4784 C   0  0  0  0  0  0  0  0  0  0  0  0
    8.9978  -15.1551   23.8278 C   0  0  2  0  0  0  0  0  0  0  0  0
    9.1818  -16.1177   22.7148 N   0  0  0  0  0  0  0  0  0  0  0  0
    8.9585  -15.9333   25.0722 C   0  0  0  0  0  0  0  0  0  0  0  0
    8.8462  -15.3162   26.1876 O   0  0  0  0  0  0  0  0  0  0  0  0
    7.7192  -12.1855   24.5432 C   0  0  0  0  0  0  0  0  0  0  0  0
    7.2272  -11.3111   25.4890 C   0  0  0  0  0  0  0  0  0  0  0  0
    8.9584  -19.6875   28.6862 N   0  0  0  0  0  0  0  0  0  0  0  0
    7.9353  -19.8323   27.7174 C   0  0  0  0  0  0  0  0  0  0  0  0
    7.0144  -20.6635   27.9381 O   0  0  0  0  0  0  0  0  0  0  0  0
    7.8977  -19.0594   26.4680 C   0  0  0  0  0  0  0  0  0  0  0  0
    8.9951  -18.0100   26.4347 C   0  0  2  0  0  0  0  0  0  0  0  0
    9.0311  -17.3451   25.1604 N   0  0  0  0  0  0  0  0  0  0  0  0
   10.2572  -18.6709   26.8199 C   0  0  0  0  0  0  0  0  0  0  0  0
   10.3623  -19.0721   28.0056 O   0  0  0  0  0  0  0  0  0  0  0  0
   11.3330  -18.8841   25.9795 O   0  0  0  0  0  0  0  0  0  0  0  0
  2  1  1  6
  3  4  1  0
  3  2  1  0
  4  8  1  0
  5  4  2  0
  6  2  1  0
  7  6  2  0
  9 10  1  0
 10 20  2  0
 10 11  1  0
 11 12  2  0
 12 13  1  0
 13 14  1  0
 15 14  1  6
 15 16  1  0
 15 17  1  0
 16  6  1  0
 17 26  1  0
 18 17  2  0
 19 13  2  0
 20 19  1  0
 22 21  1  0
 22 24  1  0
 23 22  2  0
 25 24  1  6
 25 27  1  0
 26 25  1  0
 27 29  1  0
 28 27  2  0
M  END
$$$$
