DYN.pdb
     RDKit          3D

 29 29  0  0  1  0  0  0  0  0999 V2000
    9.0033  -17.6972   20.1587 N   0  0  0  0  0  0  0  0  0  0  0  0
   10.3165  -17.2304   20.5004 C   0  0  1  0  0  0  0  0  0  0  0  0
   11.0559  -16.6150   19.3367 C   0  0  0  0  0  0  0  0  0  0  0  0
   11.1887  -17.6451   18.2934 C   0  0  0  0  0  0  0  0  0  0  0  0
   12.3088  -17.9044   17.8183 O   0  0  0  0  0  0  0  0  0  0  0  0
   10.2141  -16.3059   21.6612 C   0  0  0  0  0  0  0  0  0  0  0  0
   11.2393  -15.6654   22.0705 O   0  0  0  0  0  0  0  0  0  0  0  0
   10.0787  -18.3189   17.8455 O   0  0  0  0  0  0  0  0  0  0  0  0
    5.9097  -11.3887   27.8101 O   0  0  0  0  0  0  0  0  0  0  0  0
    6.3000  -12.2052   26.7394 C   0  0  0  0  0  0  0  0  0  0  0  0
    5.8414  -13.4957   26.6172 C   0  0  0  0  0  0  0  0  0  0  0  0
    6.2584  -14.2664   25.5356 C   0  0  0  0  0  0  0  0  0  0  0  0
    7.1197  -13.7747   24.5803 C   0  0  0  0  0  0  0  0  0  0  0  0
    7.5662  -14.5934   23.4705 C   0  0  0  0  0  0  0  0  0  0  0  0
    8.9375  -15.1645   23.5285 C   0  0  2  0  0  0  0  0  0  0  0  0
    9.0178  -16.0811   22.3654 N   0  0  0  0  0  0  0  0  0  0  0  0
    9.2713  -15.9498   24.7233 C   0  0  0  0  0  0  0  0  0  0  0  0
    9.3943  -15.3497   25.8468 O   0  0  0  0  0  0  0  0  0  0  0  0
    7.5648  -12.4813   24.7240 C   0  0  0  0  0  0  0  0  0  0  0  0
    7.1561  -11.7117   25.7927 C   0  0  0  0  0  0  0  0  0  0  0  0
    8.2587  -17.7076   28.2910 N   0  0  0  0  0  0  0  0  0  0  0  0
    8.0471  -18.8527   27.4847 C   0  0  0  0  0  0  0  0  0  0  0  0
    7.1400  -19.6613   27.8183 O   0  0  0  0  0  0  0  0  0  0  0  0
    8.8352  -19.1418   26.2784 C   0  0  0  0  0  0  0  0  0  0  0  0
    9.8170  -18.0225   25.9789 C   0  0  2  0  0  0  0  0  0  0  0  0
    9.4727  -17.3515   24.7548 N   0  0  0  0  0  0  0  0  0  0  0  0
   11.1747  -18.6006   26.0030 C   0  0  0  0  0  0  0  0  0  0  0  0
   11.5665  -19.1137   27.0805 O   0  0  0  0  0  0  0  0  0  0  0  0
   12.0495  -18.6229   24.9339 O   0  0  0  0  0  0  0  0  0  0  0  0
  2  1  1  6
  3  4  1  0
  3  2  1  0
  4  8  1  0
  5  4  2  0
  6  2  1  0
  7  6  2  0
  9 10  1  0
 10 20  2  0
 10 11  1  0
 11 12  2  0
 12 13  1  0
 13 14  1  0
 15 14  1  1
 15 16  1  0
 15 17  1  0
 16  6  1  0
 17 26  1  0
 18 17  2  0
 19 13  2  0
 20 19  1  0
 22 21  1  0
 22 24  1  0
 23 22  2  0
 25 24  1  6
 25 27  1  0
 26 25  1  0
 27 29  1  0
 28 27  2  0
M  END
$$$$
