DYN.pdb
     RDKit          3D

 29 29  0  0  1  0  0  0  0  0999 V2000
   10.1558  -17.5311   19.4619 N   0  0  0  0  0  0  0  0  0  0  0  0
    9.0198  -17.7505   20.3107 C   0  0  1  0  0  0  0  0  0  0  0  0
    8.7538  -19.2100   20.5912 C   0  0  0  0  0  0  0  0  0  0  0  0
    8.3921  -19.8536   19.3176 C   0  0  0  0  0  0  0  0  0  0  0  0
    9.0662  -20.8092   18.8934 O   0  0  0  0  0  0  0  0  0  0  0  0
    9.1857  -16.9539   21.5559 C   0  0  0  0  0  0  0  0  0  0  0  0
   10.2918  -16.9713   22.1925 O   0  0  0  0  0  0  0  0  0  0  0  0
    7.3127  -19.4005   18.5991 O   0  0  0  0  0  0  0  0  0  0  0  0
    6.4819  -11.1647   27.8867 O   0  0  0  0  0  0  0  0  0  0  0  0
    6.6735  -11.9485   26.7402 C   0  0  0  0  0  0  0  0  0  0  0  0
    5.8599  -13.0211   26.4604 C   0  0  0  0  0  0  0  0  0  0  0  0
    6.0913  -13.7685   25.3090 C   0  0  0  0  0  0  0  0  0  0  0  0
    7.1140  -13.4658   24.4378 C   0  0  0  0  0  0  0  0  0  0  0  0
    7.3607  -14.2646   23.2537 C   0  0  0  0  0  0  0  0  0  0  0  0
    8.3473  -15.3727   23.3492 C   0  0  2  0  0  0  0  0  0  0  0  0
    8.1670  -16.1518   22.1003 N   0  0  0  0  0  0  0  0  0  0  0  0
    8.1796  -16.3057   24.4704 C   0  0  0  0  0  0  0  0  0  0  0  0
    7.3035  -17.2340   24.3804 O   0  0  0  0  0  0  0  0  0  0  0  0
    7.9142  -12.3885   24.7390 C   0  0  0  0  0  0  0  0  0  0  0  0
    7.6912  -11.6435   25.8776 C   0  0  0  0  0  0  0  0  0  0  0  0
    9.0492  -19.7358   28.1289 N   0  0  0  0  0  0  0  0  0  0  0  0
    9.3284  -19.8345   26.7438 C   0  0  0  0  0  0  0  0  0  0  0  0
    9.5969  -20.9691   26.2660 O   0  0  0  0  0  0  0  0  0  0  0  0
    9.3198  -18.6766   25.8387 C   0  0  0  0  0  0  0  0  0  0  0  0
    8.9202  -17.4071   26.5702 C   0  0  2  0  0  0  0  0  0  0  0  0
    8.9193  -16.2794   25.6781 N   0  0  0  0  0  0  0  0  0  0  0  0
    9.8097  -17.2661   27.7393 C   0  0  0  0  0  0  0  0  0  0  0  0
   10.8575  -16.5892   27.5914 O   0  0  0  0  0  0  0  0  0  0  0  0
    9.5815  -17.8193   28.9846 O   0  0  0  0  0  0  0  0  0  0  0  0
  2  1  1  6
  3  4  1  0
  3  2  1  0
  4  8  1  0
  5  4  2  0
  6  2  1  0
  7  6  2  0
  9 10  1  0
 10 20  2  0
 10 11  1  0
 11 12  2  0
 12 13  1  0
 13 14  1  0
 15 14  1  1
 15 16  1  0
 15 17  1  0
 16  6  1  0
 17 26  1  0
 18 17  2  0
 19 13  2  0
 20 19  1  0
 22 21  1  0
 22 24  1  0
 23 22  2  0
 25 24  1  6
 25 27  1  0
 26 25  1  0
 27 29  1  0
 28 27  2  0
M  END
$$$$
