RDW.pdb
     RDKit          3D

 34 35  0  0  1  0  0  0  0  0999 V2000
   30.1110  -27.0014  -17.4586 N   0  0  0  0  0  0  0  0  0  0  0  0
   28.8047  -27.1991  -16.9244 C   0  0  0  0  0  0  0  0  0  0  0  0
   28.4621  -28.3640  -16.5186 N   0  0  0  0  0  0  0  0  0  0  0  0
   27.8717  -26.1252  -16.8353 N   0  0  0  0  0  0  0  0  0  0  0  0
   28.1277  -24.8380  -17.4324 C   0  0  0  0  0  0  0  0  0  0  0  0
   29.1872  -24.1178  -16.6252 C   0  0  0  0  0  0  0  0  0  0  0  0
   28.5947  -23.1756  -15.6149 C   0  0  0  0  0  0  0  0  0  0  0  0
   27.5940  -22.2156  -16.2321 C   0  0  2  0  0  0  0  0  0  0  0  0
   28.3539  -21.4492  -17.2091 N   0  0  0  0  0  0  0  0  0  0  0  0
   27.0662  -21.2621  -15.2302 C   0  0  0  0  0  0  0  0  0  0  0  0
   27.6638  -20.2085  -14.8691 O   0  0  0  0  0  0  0  0  0  0  0  0
   27.5125  -28.5709  -16.1709 N   0  0  0  0  0  0  0  0  0  0  0  0
   25.7930  -21.4779  -14.5801 C   0  0  2  0  0  0  0  0  0  0  0  0
   25.2895  -20.5877  -13.5632 C   0  0  0  0  0  0  0  0  0  0  0  0
   23.8349  -20.2776  -13.9544 C   0  0  0  0  0  0  0  0  0  0  0  0
   23.8299  -19.2320  -14.9780 O   0  0  0  0  0  0  0  0  0  0  0  0
   24.4441  -18.1411  -14.9549 C   0  0  0  0  0  0  0  0  0  0  0  0
   25.2342  -21.1770  -12.2235 O   0  0  0  0  0  0  0  0  0  0  0  0
   24.6584  -22.2504  -11.9560 O   0  0  0  0  0  0  0  0  0  0  0  0
   23.0570  -19.4386  -16.1383 N   0  0  0  0  0  0  0  0  0  0  0  0
   25.8760  -20.4788  -11.1706 C   0  0  2  0  0  0  0  0  0  0  0  0
   25.8872  -20.9318   -9.7946 C   0  0  0  0  0  0  0  0  0  0  0  0
   26.7157  -19.9556   -8.9538 C   0  0  0  0  0  0  0  0  0  0  0  0
   26.6954  -20.4132   -7.5428 C   0  0  0  0  0  0  0  0  0  0  0  0
   25.9119  -21.3630   -6.9314 N   0  0  0  0  0  0  0  0  0  0  0  0
   26.1913  -21.4810   -5.6373 C   0  0  0  0  0  0  0  0  0  0  0  0
   27.1843  -20.5861   -5.3909 C   0  0  0  0  0  0  0  0  0  0  0  0
   27.8515  -20.2875   -4.2226 C   0  0  0  0  0  0  0  0  0  0  0  0
   28.8260  -19.3358   -4.2278 C   0  0  0  0  0  0  0  0  0  0  0  0
   29.1773  -18.6504   -5.3646 C   0  0  0  0  0  0  0  0  0  0  0  0
   28.5068  -18.9524   -6.5291 C   0  0  0  0  0  0  0  0  0  0  0  0
   27.5172  -19.9131   -6.5448 C   0  0  0  0  0  0  0  0  0  0  0  0
   24.5133  -20.9382   -9.2577 O   0  0  0  0  0  0  0  0  0  0  0  0
   24.1891  -21.8964   -8.2921 O   0  0  0  0  0  0  0  0  0  0  0  0
  2  4  1  0
  2  1  1  0
  3  2  2  0
  5  4  1  0
  6  5  1  0
  7  8  1  0
  7  6  1  0
  8 10  1  0
  8  9  1  6
 10 11  2  0
 12 13  1  0
 12 10  1  0
 14 15  1  0
 13 14  1  6
 15 19  1  0
 16 15  2  0
 17 18  2  0
 17 13  1  0
 20 17  1  0
 21 20  1  0
 21 22  1  6
 22 23  1  0
 23 24  2  0
 23 31  1  0
 24 25  1  0
 25 26  1  0
 26 27  2  0
 27 28  1  0
 29 28  2  0
 30 29  1  0
 31 30  2  0
 31 26  1  0
 32 21  1  0
 33 32  1  0
 34 32  2  0
M  END
$$$$
