RDW.pdb
     RDKit          3D

 34 35  0  0  1  0  0  0  0  0999 V2000
   27.2944  -22.0352  -20.4309 N   0  0  0  0  0  0  0  0  0  0  0  0
   28.4180  -21.1871  -20.6527 C   0  0  0  0  0  0  0  0  0  0  0  0
   28.7840  -20.9310  -21.8525 N   0  0  0  0  0  0  0  0  0  0  0  0
   29.1431  -20.6204  -19.5643 N   0  0  0  0  0  0  0  0  0  0  0  0
   28.8511  -20.9565  -18.1930 C   0  0  0  0  0  0  0  0  0  0  0  0
   27.5270  -20.3354  -17.8006 C   0  0  0  0  0  0  0  0  0  0  0  0
   27.6631  -19.3766  -16.6509 C   0  0  0  0  0  0  0  0  0  0  0  0
   27.9331  -20.0821  -15.3344 C   0  0  2  0  0  0  0  0  0  0  0  0
   27.7938  -21.5014  -15.6272 N   0  0  0  0  0  0  0  0  0  0  0  0
   26.9183  -19.7357  -14.3138 C   0  0  0  0  0  0  0  0  0  0  0  0
   26.6990  -18.5615  -13.9005 O   0  0  0  0  0  0  0  0  0  0  0  0
   29.5831  -20.3137  -22.0666 N   0  0  0  0  0  0  0  0  0  0  0  0
   26.0840  -20.7474  -13.7049 C   0  0  1  0  0  0  0  0  0  0  0  0
   25.1501  -20.4396  -12.6499 C   0  0  0  0  0  0  0  0  0  0  0  0
   23.8032  -21.0382  -13.0888 C   0  0  0  0  0  0  0  0  0  0  0  0
   22.7890  -20.7151  -12.0848 O   0  0  0  0  0  0  0  0  0  0  0  0
   22.5391  -19.5928  -11.5889 C   0  0  0  0  0  0  0  0  0  0  0  0
   25.4720  -21.0607  -11.3632 O   0  0  0  0  0  0  0  0  0  0  0  0
   25.2050  -22.2438  -11.0727 O   0  0  0  0  0  0  0  0  0  0  0  0
   21.9801  -21.7597  -11.5942 N   0  0  0  0  0  0  0  0  0  0  0  0
   26.1266  -20.2624  -10.3926 C   0  0  2  0  0  0  0  0  0  0  0  0
   26.5912  -20.7670   -9.1166 C   0  0  0  0  0  0  0  0  0  0  0  0
   27.5883  -19.7701   -8.5180 C   0  0  0  0  0  0  0  0  0  0  0  0
   28.1714  -20.3652   -7.2906 C   0  0  0  0  0  0  0  0  0  0  0  0
   28.7448  -21.5985   -7.0910 N   0  0  0  0  0  0  0  0  0  0  0  0
   29.1450  -21.7642   -5.8344 C   0  0  0  0  0  0  0  0  0  0  0  0
   28.8270  -20.6100   -5.1906 C   0  0  0  0  0  0  0  0  0  0  0  0
   29.0142  -20.2358   -3.8776 C   0  0  0  0  0  0  0  0  0  0  0  0
   28.6045  -19.0048   -3.4629 C   0  0  0  0  0  0  0  0  0  0  0  0
   28.0033  -18.1069   -4.3101 C   0  0  0  0  0  0  0  0  0  0  0  0
   27.8181  -18.4862   -5.6210 C   0  0  0  0  0  0  0  0  0  0  0  0
   28.2264  -19.7283   -6.0607 C   0  0  0  0  0  0  0  0  0  0  0  0
   25.4564  -20.8884   -8.1822 O   0  0  0  0  0  0  0  0  0  0  0  0
   25.4786  -21.9332   -7.2528 O   0  0  0  0  0  0  0  0  0  0  0  0
  2  4  1  0
  2  1  1  0
  3  2  2  0
  5  4  1  0
  6  5  1  0
  7  8  1  0
  7  6  1  0
  8 10  1  0
  8  9  1  6
 10 11  2  0
 12 13  1  0
 12 10  1  0
 14 15  1  0
 13 14  1  1
 15 19  1  0
 16 15  2  0
 17 18  2  0
 17 13  1  0
 20 17  1  0
 21 20  1  0
 21 22  1  1
 22 23  1  0
 23 24  2  0
 23 31  1  0
 24 25  1  0
 25 26  1  0
 26 27  2  0
 27 28  1  0
 29 28  2  0
 30 29  1  0
 31 30  2  0
 31 26  1  0
 32 21  1  0
 33 32  1  0
 34 32  2  0
M  END
$$$$
