RDW.pdb
     RDKit          3D

 34 35  0  0  1  0  0  0  0  0999 V2000
   26.1259  -32.1830  -14.5887 N   0  0  0  0  0  0  0  0  0  0  0  0
   26.5151  -33.4396  -14.0406 C   0  0  0  0  0  0  0  0  0  0  0  0
   27.6760  -33.9086  -14.3078 N   0  0  0  0  0  0  0  0  0  0  0  0
   25.6359  -34.1852  -13.2023 N   0  0  0  0  0  0  0  0  0  0  0  0
   24.3234  -33.7033  -12.8498 C   0  0  0  0  0  0  0  0  0  0  0  0
   24.4232  -32.8648  -11.5929 C   0  0  0  0  0  0  0  0  0  0  0  0
   23.1010  -32.7251  -10.8917 C   0  0  0  0  0  0  0  0  0  0  0  0
   22.4610  -34.0669  -10.5851 C   0  0  2  0  0  0  0  0  0  0  0  0
   21.0311  -33.8010  -10.5204 N   0  0  0  0  0  0  0  0  0  0  0  0
   22.8797  -34.5789   -9.2607 C   0  0  0  0  0  0  0  0  0  0  0  0
   22.5221  -34.0738   -8.1586 O   0  0  0  0  0  0  0  0  0  0  0  0
   27.9962  -34.8249  -13.9565 N   0  0  0  0  0  0  0  0  0  0  0  0
   23.7501  -35.7266   -9.1358 C   0  0  2  0  0  0  0  0  0  0  0  0
   24.3677  -36.0892   -7.8840 C   0  0  0  0  0  0  0  0  0  0  0  0
   25.2121  -37.3411   -8.1755 C   0  0  0  0  0  0  0  0  0  0  0  0
   25.6039  -37.9569   -6.9072 O   0  0  0  0  0  0  0  0  0  0  0  0
   25.4608  -37.4858   -5.7559 C   0  0  0  0  0  0  0  0  0  0  0  0
   25.2958  -35.0849   -7.3594 O   0  0  0  0  0  0  0  0  0  0  0  0
   26.2133  -34.5662   -8.0262 O   0  0  0  0  0  0  0  0  0  0  0  0
   26.2159  -39.2259   -6.9433 N   0  0  0  0  0  0  0  0  0  0  0  0
   25.1363  -34.6828   -6.0100 C   0  0  2  0  0  0  0  0  0  0  0  0
   25.8883  -33.6069   -5.3972 C   0  0  0  0  0  0  0  0  0  0  0  0
   25.0914  -32.3049   -5.5240 C   0  0  0  0  0  0  0  0  0  0  0  0
   23.8326  -32.4450   -4.7516 C   0  0  0  0  0  0  0  0  0  0  0  0
   23.6096  -33.0057   -3.5164 N   0  0  0  0  0  0  0  0  0  0  0  0
   22.3288  -32.9457   -3.1662 C   0  0  0  0  0  0  0  0  0  0  0  0
   21.6927  -32.3295   -4.1974 C   0  0  0  0  0  0  0  0  0  0  0  0
   20.3632  -32.0082   -4.3661 C   0  0  0  0  0  0  0  0  0  0  0  0
   19.9613  -31.3803   -5.5060 C   0  0  0  0  0  0  0  0  0  0  0  0
   20.8374  -31.0488   -6.5099 C   0  0  0  0  0  0  0  0  0  0  0  0
   22.1647  -31.3727   -6.3364 C   0  0  0  0  0  0  0  0  0  0  0  0
   22.5919  -32.0083   -5.1891 C   0  0  0  0  0  0  0  0  0  0  0  0
   26.0785  -33.8829   -3.9607 O   0  0  0  0  0  0  0  0  0  0  0  0
   26.9273  -33.0403   -3.2359 O   0  0  0  0  0  0  0  0  0  0  0  0
  2  4  1  0
  2  1  1  0
  3  2  2  0
  5  4  1  0
  6  5  1  0
  7  8  1  0
  7  6  1  0
  8 10  1  0
  8  9  1  1
 10 11  2  0
 12 13  1  0
 12 10  1  0
 14 15  1  0
 13 14  1  6
 15 19  1  0
 16 15  2  0
 17 18  2  0
 17 13  1  0
 20 17  1  0
 21 20  1  0
 21 22  1  6
 22 23  1  0
 23 24  2  0
 23 31  1  0
 24 25  1  0
 25 26  1  0
 26 27  2  0
 27 28  1  0
 29 28  2  0
 30 29  1  0
 31 30  2  0
 31 26  1  0
 32 21  1  0
 33 32  1  0
 34 32  2  0
M  END
$$$$
