RDW.pdb
     RDKit          3D

 34 35  0  0  1  0  0  0  0  0999 V2000
   31.1488  -26.8223  -17.7362 N   0  0  0  0  0  0  0  0  0  0  0  0
   32.5155  -26.4832  -17.5169 C   0  0  0  0  0  0  0  0  0  0  0  0
   33.4337  -27.2419  -17.9862 N   0  0  0  0  0  0  0  0  0  0  0  0
   32.8796  -25.3166  -16.7832 N   0  0  0  0  0  0  0  0  0  0  0  0
   31.8952  -24.3891  -16.2835 C   0  0  0  0  0  0  0  0  0  0  0  0
   31.3236  -23.5995  -17.4422 C   0  0  0  0  0  0  0  0  0  0  0  0
   30.3355  -22.5592  -16.9937 C   0  0  0  0  0  0  0  0  0  0  0  0
   29.2160  -23.1453  -16.1527 C   0  0  2  0  0  0  0  0  0  0  0  0
   28.2295  -23.6226  -17.1110 N   0  0  0  0  0  0  0  0  0  0  0  0
   28.5634  -22.1104  -15.3191 C   0  0  0  0  0  0  0  0  0  0  0  0
   29.1834  -21.3288  -14.5431 O   0  0  0  0  0  0  0  0  0  0  0  0
   34.4375  -27.0291  -17.8739 N   0  0  0  0  0  0  0  0  0  0  0  0
   27.1306  -21.9178  -15.3391 C   0  0  1  0  0  0  0  0  0  0  0  0
   26.4666  -21.0012  -14.4455 C   0  0  0  0  0  0  0  0  0  0  0  0
   25.1338  -20.6403  -15.1226 C   0  0  0  0  0  0  0  0  0  0  0  0
   24.4316  -19.6568  -14.2976 O   0  0  0  0  0  0  0  0  0  0  0  0
   24.9358  -18.7310  -13.6219 C   0  0  0  0  0  0  0  0  0  0  0  0
   26.1196  -21.5769  -13.1442 O   0  0  0  0  0  0  0  0  0  0  0  0
   25.3862  -22.5745  -12.9952 O   0  0  0  0  0  0  0  0  0  0  0  0
   23.0256  -19.7262  -14.2293 N   0  0  0  0  0  0  0  0  0  0  0  0
   26.6529  -20.9567  -11.9870 C   0  0  2  0  0  0  0  0  0  0  0  0
   26.3775  -21.4023  -10.6364 C   0  0  0  0  0  0  0  0  0  0  0  0
   27.6085  -21.1410   -9.7631 C   0  0  0  0  0  0  0  0  0  0  0  0
   27.1685  -20.4682   -8.5164 C   0  0  0  0  0  0  0  0  0  0  0  0
   25.9887  -19.8248   -8.2267 N   0  0  0  0  0  0  0  0  0  0  0  0
   25.9772  -19.3390   -6.9895 C   0  0  0  0  0  0  0  0  0  0  0  0
   27.1803  -19.6716   -6.4512 C   0  0  0  0  0  0  0  0  0  0  0  0
   27.7022  -19.4208   -5.2006 C   0  0  0  0  0  0  0  0  0  0  0  0
   28.9523  -19.8644   -4.8911 C   0  0  0  0  0  0  0  0  0  0  0  0
   29.7269  -20.5612   -5.7854 C   0  0  0  0  0  0  0  0  0  0  0  0
   29.2006  -20.8084   -7.0339 C   0  0  0  0  0  0  0  0  0  0  0  0
   27.9365  -20.3681   -7.3668 C   0  0  0  0  0  0  0  0  0  0  0  0
   25.2521  -20.6322  -10.0741 O   0  0  0  0  0  0  0  0  0  0  0  0
   24.5978  -21.1486   -8.9511 O   0  0  0  0  0  0  0  0  0  0  0  0
  2  4  1  0
  2  1  1  0
  3  2  2  0
  5  4  1  0
  6  5  1  0
  7  8  1  0
  7  6  1  0
  8 10  1  0
  8  9  1  6
 10 11  2  0
 12 13  1  0
 12 10  1  0
 14 15  1  0
 13 14  1  1
 15 19  1  0
 16 15  2  0
 17 18  2  0
 17 13  1  0
 20 17  1  0
 21 20  1  0
 21 22  1  6
 22 23  1  0
 23 24  2  0
 23 31  1  0
 24 25  1  0
 25 26  1  0
 26 27  2  0
 27 28  1  0
 29 28  2  0
 30 29  1  0
 31 30  2  0
 31 26  1  0
 32 21  1  0
 33 32  1  0
 34 32  2  0
M  END
$$$$
