RDW.pdb
     RDKit          3D

 34 35  0  0  1  0  0  0  0  0999 V2000
   23.7488  -24.2991  -14.5300 N   0  0  0  0  0  0  0  0  0  0  0  0
   23.8163  -25.4820  -15.3220 C   0  0  0  0  0  0  0  0  0  0  0  0
   23.6072  -26.6188  -14.7715 N   0  0  0  0  0  0  0  0  0  0  0  0
   24.1143  -25.4237  -16.7146 N   0  0  0  0  0  0  0  0  0  0  0  0
   25.3247  -24.8192  -17.2132 C   0  0  0  0  0  0  0  0  0  0  0  0
   26.5054  -25.6908  -16.8400 C   0  0  0  0  0  0  0  0  0  0  0  0
   27.8025  -25.1607  -17.3841 C   0  0  0  0  0  0  0  0  0  0  0  0
   27.7093  -23.7012  -17.7904 C   0  0  2  0  0  0  0  0  0  0  0  0
   28.8886  -23.4574  -18.6084 N   0  0  0  0  0  0  0  0  0  0  0  0
   27.7882  -22.8038  -16.6156 C   0  0  0  0  0  0  0  0  0  0  0  0
   28.6400  -22.9202  -15.6891 O   0  0  0  0  0  0  0  0  0  0  0  0
   23.6948  -27.5077  -15.2888 N   0  0  0  0  0  0  0  0  0  0  0  0
   26.8699  -21.7000  -16.4457 C   0  0  1  0  0  0  0  0  0  0  0  0
   26.9900  -20.7619  -15.3570 C   0  0  0  0  0  0  0  0  0  0  0  0
   26.3623  -19.4501  -15.8573 C   0  0  0  0  0  0  0  0  0  0  0  0
   27.4143  -18.4432  -16.0004 O   0  0  0  0  0  0  0  0  0  0  0  0
   28.6352  -18.6404  -16.1962 C   0  0  0  0  0  0  0  0  0  0  0  0
   26.2429  -21.1385  -14.1549 O   0  0  0  0  0  0  0  0  0  0  0  0
   25.0839  -21.5988  -14.1687 O   0  0  0  0  0  0  0  0  0  0  0  0
   27.0523  -17.0839  -15.9138 N   0  0  0  0  0  0  0  0  0  0  0  0
   26.8820  -20.9660  -12.9020 C   0  0  2  0  0  0  0  0  0  0  0  0
   26.2575  -21.2735  -11.6315 C   0  0  0  0  0  0  0  0  0  0  0  0
   27.3308  -21.2925  -10.5388 C   0  0  0  0  0  0  0  0  0  0  0  0
   26.6990  -20.9167   -9.2502 C   0  0  0  0  0  0  0  0  0  0  0  0
   25.3906  -21.0223   -8.8418 N   0  0  0  0  0  0  0  0  0  0  0  0
   25.2162  -20.5647   -7.6061 C   0  0  0  0  0  0  0  0  0  0  0  0
   26.4414  -20.1475   -7.1907 C   0  0  0  0  0  0  0  0  0  0  0  0
   26.8398  -19.5886   -5.9956 C   0  0  0  0  0  0  0  0  0  0  0  0
   28.1460  -19.2487   -5.8132 C   0  0  0  0  0  0  0  0  0  0  0  0
   29.0977  -19.4417   -6.7840 C   0  0  0  0  0  0  0  0  0  0  0  0
   28.6940  -19.9999   -7.9766 C   0  0  0  0  0  0  0  0  0  0  0  0
   27.3759  -20.3514   -8.1808 C   0  0  0  0  0  0  0  0  0  0  0  0
   25.2792  -20.2247  -11.2868 O   0  0  0  0  0  0  0  0  0  0  0  0
   24.1983  -20.5758  -10.4718 O   0  0  0  0  0  0  0  0  0  0  0  0
  2  4  1  0
  2  1  1  0
  3  2  2  0
  5  4  1  0
  6  5  1  0
  7  8  1  0
  7  6  1  0
  8 10  1  0
  8  9  1  6
 10 11  2  0
 12 13  1  0
 12 10  1  0
 14 15  1  0
 13 14  1  1
 15 19  1  0
 16 15  2  0
 17 18  2  0
 17 13  1  0
 20 17  1  0
 21 20  1  0
 21 22  1  6
 22 23  1  0
 23 24  2  0
 23 31  1  0
 24 25  1  0
 25 26  1  0
 26 27  2  0
 27 28  1  0
 29 28  2  0
 30 29  1  0
 31 30  2  0
 31 26  1  0
 32 21  1  0
 33 32  1  0
 34 32  2  0
M  END
$$$$
