RDW.pdb
     RDKit          3D

 34 35  0  0  1  0  0  0  0  0999 V2000
   33.6607  -24.7502  -13.8908 N   0  0  0  0  0  0  0  0  0  0  0  0
   33.9869  -25.4041  -15.1143 C   0  0  0  0  0  0  0  0  0  0  0  0
   35.2168  -25.5731  -15.4273 N   0  0  0  0  0  0  0  0  0  0  0  0
   32.9702  -25.8716  -15.9970 N   0  0  0  0  0  0  0  0  0  0  0  0
   31.6429  -25.3082  -16.0017 C   0  0  0  0  0  0  0  0  0  0  0  0
   31.7365  -23.8190  -16.2591 C   0  0  0  0  0  0  0  0  0  0  0  0
   30.6895  -23.0421  -15.5107 C   0  0  0  0  0  0  0  0  0  0  0  0
   29.3339  -23.0880  -16.1920 C   0  0  2  0  0  0  0  0  0  0  0  0
   29.5996  -22.7815  -17.5902 N   0  0  0  0  0  0  0  0  0  0  0  0
   28.4276  -22.0401  -15.6703 C   0  0  0  0  0  0  0  0  0  0  0  0
   28.6177  -20.7993  -15.8174 O   0  0  0  0  0  0  0  0  0  0  0  0
   35.5058  -26.0894  -16.2731 N   0  0  0  0  0  0  0  0  0  0  0  0
   27.2275  -22.3765  -14.9375 C   0  0  1  0  0  0  0  0  0  0  0  0
   26.4463  -21.3813  -14.2452 C   0  0  0  0  0  0  0  0  0  0  0  0
   25.0918  -21.3258  -14.9715 C   0  0  0  0  0  0  0  0  0  0  0  0
   24.2609  -20.2936  -14.3510 O   0  0  0  0  0  0  0  0  0  0  0  0
   24.5732  -19.1039  -14.1167 C   0  0  0  0  0  0  0  0  0  0  0  0
   26.1475  -21.7158  -12.8510 O   0  0  0  0  0  0  0  0  0  0  0  0
   25.5960  -22.7744  -12.4896 O   0  0  0  0  0  0  0  0  0  0  0  0
   22.9523  -20.6386  -13.9574 N   0  0  0  0  0  0  0  0  0  0  0  0
   26.5092  -20.7737  -11.8562 C   0  0  2  0  0  0  0  0  0  0  0  0
   26.2517  -20.9577  -10.4426 C   0  0  0  0  0  0  0  0  0  0  0  0
   27.1675  -20.0265   -9.6424 C   0  0  0  0  0  0  0  0  0  0  0  0
   26.8543  -20.1811   -8.2006 C   0  0  0  0  0  0  0  0  0  0  0  0
   25.6657  -20.4859   -7.5807 N   0  0  0  0  0  0  0  0  0  0  0  0
   25.7899  -20.5255   -6.2579 C   0  0  0  0  0  0  0  0  0  0  0  0
   27.0937  -20.2397   -6.0009 C   0  0  0  0  0  0  0  0  0  0  0  0
   27.7712  -20.1460   -4.8044 C   0  0  0  0  0  0  0  0  0  0  0  0
   29.0990  -19.8424   -4.8042 C   0  0  0  0  0  0  0  0  0  0  0  0
   29.8023  -19.6219   -5.9627 C   0  0  0  0  0  0  0  0  0  0  0  0
   29.1202  -19.7162   -7.1554 C   0  0  0  0  0  0  0  0  0  0  0  0
   27.7755  -20.0231   -7.1770 C   0  0  0  0  0  0  0  0  0  0  0  0
   24.8558  -20.5929  -10.1357 O   0  0  0  0  0  0  0  0  0  0  0  0
   24.1851  -21.3274   -9.1525 O   0  0  0  0  0  0  0  0  0  0  0  0
  2  4  1  0
  2  1  1  0
  3  2  2  0
  5  4  1  0
  6  5  1  0
  7  8  1  0
  7  6  1  0
  8 10  1  0
  8  9  1  6
 10 11  2  0
 12 13  1  0
 12 10  1  0
 14 15  1  0
 13 14  1  1
 15 19  1  0
 16 15  2  0
 17 18  2  0
 17 13  1  0
 20 17  1  0
 21 20  1  0
 21 22  1  6
 22 23  1  0
 23 24  2  0
 23 31  1  0
 24 25  1  0
 25 26  1  0
 26 27  2  0
 27 28  1  0
 29 28  2  0
 30 29  1  0
 31 30  2  0
 31 26  1  0
 32 21  1  0
 33 32  1  0
 34 32  2  0
M  END
$$$$
