RDW.pdb
     RDKit          3D

 34 35  0  0  1  0  0  0  0  0999 V2000
   30.5601  -26.7638  -16.7741 N   0  0  0  0  0  0  0  0  0  0  0  0
   31.4156  -26.1441  -17.7308 C   0  0  0  0  0  0  0  0  0  0  0  0
   31.9340  -26.8534  -18.6620 N   0  0  0  0  0  0  0  0  0  0  0  0
   31.7067  -24.7501  -17.6693 N   0  0  0  0  0  0  0  0  0  0  0  0
   31.0202  -23.8646  -16.7617 C   0  0  0  0  0  0  0  0  0  0  0  0
   30.1383  -22.9249  -17.5566 C   0  0  0  0  0  0  0  0  0  0  0  0
   29.3621  -21.9862  -16.6757 C   0  0  0  0  0  0  0  0  0  0  0  0
   28.5399  -22.7168  -15.6297 C   0  0  2  0  0  0  0  0  0  0  0  0
   27.6174  -23.5519  -16.3853 N   0  0  0  0  0  0  0  0  0  0  0  0
   27.7306  -21.7774  -14.8208 C   0  0  0  0  0  0  0  0  0  0  0  0
   28.1942  -20.7473  -14.2538 O   0  0  0  0  0  0  0  0  0  0  0  0
   32.5807  -26.4583  -19.3628 N   0  0  0  0  0  0  0  0  0  0  0  0
   26.3131  -21.9806  -14.6213 C   0  0  1  0  0  0  0  0  0  0  0  0
   25.5052  -21.0600  -13.8600 C   0  0  0  0  0  0  0  0  0  0  0  0
   24.1688  -20.9473  -14.6127 C   0  0  0  0  0  0  0  0  0  0  0  0
   24.4050  -20.3119  -15.9094 O   0  0  0  0  0  0  0  0  0  0  0  0
   24.8314  -19.1542  -16.1235 C   0  0  0  0  0  0  0  0  0  0  0  0
   25.1750  -21.5250  -12.5110 O   0  0  0  0  0  0  0  0  0  0  0  0
   24.9378  -22.7146  -12.2210 O   0  0  0  0  0  0  0  0  0  0  0  0
   24.1331  -21.0553  -17.0754 N   0  0  0  0  0  0  0  0  0  0  0  0
   25.1226  -20.5583  -11.4762 C   0  0  1  0  0  0  0  0  0  0  0  0
   24.7709  -20.8662  -10.1050 C   0  0  0  0  0  0  0  0  0  0  0  0
   25.3786  -19.8047   -9.1829 C   0  0  0  0  0  0  0  0  0  0  0  0
   26.7388  -20.2458   -8.7877 C   0  0  0  0  0  0  0  0  0  0  0  0
   27.6272  -21.0678   -9.4395 N   0  0  0  0  0  0  0  0  0  0  0  0
   28.7520  -21.2312   -8.7506 C   0  0  0  0  0  0  0  0  0  0  0  0
   28.6000  -20.4977   -7.6163 C   0  0  0  0  0  0  0  0  0  0  0  0
   29.4537  -20.3075   -6.5513 C   0  0  0  0  0  0  0  0  0  0  0  0
   29.0698  -19.5130   -5.5138 C   0  0  0  0  0  0  0  0  0  0  0  0
   27.8497  -18.8839   -5.4827 C   0  0  0  0  0  0  0  0  0  0  0  0
   27.0002  -19.0780   -6.5492 C   0  0  0  0  0  0  0  0  0  0  0  0
   27.3705  -19.8785   -7.6098 C   0  0  0  0  0  0  0  0  0  0  0  0
   23.3056  -20.8226   -9.9413 O   0  0  0  0  0  0  0  0  0  0  0  0
   22.5298  -20.4764  -11.0522 O   0  0  0  0  0  0  0  0  0  0  0  0
  2  4  1  0
  2  1  1  0
  3  2  2  0
  5  4  1  0
  6  5  1  0
  7  8  1  0
  7  6  1  0
  8 10  1  0
  8  9  1  6
 10 11  2  0
 12 13  1  0
 12 10  1  0
 14 15  1  0
 13 14  1  1
 15 19  1  0
 16 15  2  0
 17 18  2  0
 17 13  1  0
 20 17  1  0
 21 20  1  0
 21 22  1  1
 22 23  1  0
 23 24  2  0
 23 31  1  0
 24 25  1  0
 25 26  1  0
 26 27  2  0
 27 28  1  0
 29 28  2  0
 30 29  1  0
 31 30  2  0
 31 26  1  0
 32 21  1  0
 33 32  1  0
 34 32  2  0
M  END
$$$$
