RDW.pdb
     RDKit          3D

 34 35  0  0  1  0  0  0  0  0999 V2000
   31.2941  -24.8736  -16.0623 N   0  0  0  0  0  0  0  0  0  0  0  0
   30.1729  -24.9597  -16.9376 C   0  0  0  0  0  0  0  0  0  0  0  0
   30.1768  -25.8268  -17.8795 N   0  0  0  0  0  0  0  0  0  0  0  0
   29.0481  -24.0974  -16.7858 N   0  0  0  0  0  0  0  0  0  0  0  0
   28.9300  -23.1821  -15.6780 C   0  0  0  0  0  0  0  0  0  0  0  0
   29.3107  -21.7913  -16.1401 C   0  0  0  0  0  0  0  0  0  0  0  0
   28.5607  -20.7178  -15.4021 C   0  0  0  0  0  0  0  0  0  0  0  0
   27.0640  -20.9688  -15.3739 C   0  0  2  0  0  0  0  0  0  0  0  0
   26.5232  -20.1709  -16.4649 N   0  0  0  0  0  0  0  0  0  0  0  0
   26.4541  -20.4779  -14.1175 C   0  0  0  0  0  0  0  0  0  0  0  0
   26.7640  -19.3888  -13.5560 O   0  0  0  0  0  0  0  0  0  0  0  0
   29.3867  -25.9345  -18.5348 N   0  0  0  0  0  0  0  0  0  0  0  0
   25.4310  -21.2332  -13.4295 C   0  0  2  0  0  0  0  0  0  0  0  0
   24.7879  -20.7438  -12.2351 C   0  0  0  0  0  0  0  0  0  0  0  0
   23.3262  -21.2147  -12.3180 C   0  0  0  0  0  0  0  0  0  0  0  0
   22.5333  -20.1888  -12.9961 O   0  0  0  0  0  0  0  0  0  0  0  0
   22.8116  -18.9751  -13.1280 C   0  0  0  0  0  0  0  0  0  0  0  0
   25.3257  -21.3017  -10.9922 O   0  0  0  0  0  0  0  0  0  0  0  0
   25.3454  -22.5196  -10.7245 O   0  0  0  0  0  0  0  0  0  0  0  0
   21.3091  -20.5706  -13.5807 N   0  0  0  0  0  0  0  0  0  0  0  0
   25.8541  -20.3960  -10.0390 C   0  0  2  0  0  0  0  0  0  0  0  0
   26.4144  -20.8036   -8.7667 C   0  0  0  0  0  0  0  0  0  0  0  0
   27.0823  -19.5946   -8.1046 C   0  0  0  0  0  0  0  0  0  0  0  0
   27.7732  -20.0523   -6.8742 C   0  0  0  0  0  0  0  0  0  0  0  0
   28.3678  -21.2586   -6.5894 N   0  0  0  0  0  0  0  0  0  0  0  0
   28.8769  -21.2854   -5.3619 C   0  0  0  0  0  0  0  0  0  0  0  0
   28.6106  -20.0652   -4.8253 C   0  0  0  0  0  0  0  0  0  0  0  0
   28.9098  -19.5483   -3.5833 C   0  0  0  0  0  0  0  0  0  0  0  0
   28.5318  -18.2769   -3.2740 C   0  0  0  0  0  0  0  0  0  0  0  0
   27.8546  -17.4758   -4.1600 C   0  0  0  0  0  0  0  0  0  0  0  0
   27.5576  -17.9976   -5.3994 C   0  0  0  0  0  0  0  0  0  0  0  0
   27.9321  -19.2828   -5.7322 C   0  0  0  0  0  0  0  0  0  0  0  0
   25.3391  -21.2726   -7.8726 O   0  0  0  0  0  0  0  0  0  0  0  0
   25.5735  -22.4196   -7.1074 O   0  0  0  0  0  0  0  0  0  0  0  0
  2  4  1  0
  2  1  1  0
  3  2  2  0
  5  4  1  0
  6  5  1  0
  7  8  1  0
  7  6  1  0
  8 10  1  0
  8  9  1  6
 10 11  2  0
 12 13  1  0
 12 10  1  0
 14 15  1  0
 13 14  1  6
 15 19  1  0
 16 15  2  0
 17 18  2  0
 17 13  1  0
 20 17  1  0
 21 20  1  0
 21 22  1  6
 22 23  1  0
 23 24  2  0
 23 31  1  0
 24 25  1  0
 25 26  1  0
 26 27  2  0
 27 28  1  0
 29 28  2  0
 30 29  1  0
 31 30  2  0
 31 26  1  0
 32 21  1  0
 33 32  1  0
 34 32  2  0
M  END
$$$$
