RDW.pdb
     RDKit          3D

 34 35  0  0  1  0  0  0  0  0999 V2000
   30.6676  -26.7856  -16.8021 N   0  0  0  0  0  0  0  0  0  0  0  0
   29.6155  -27.6381  -17.2460 C   0  0  0  0  0  0  0  0  0  0  0  0
   29.9001  -28.7959  -17.7124 N   0  0  0  0  0  0  0  0  0  0  0  0
   28.2526  -27.2256  -17.1826 N   0  0  0  0  0  0  0  0  0  0  0  0
   27.8687  -25.9277  -16.6854 C   0  0  0  0  0  0  0  0  0  0  0  0
   29.1143  -25.1070  -16.4254 C   0  0  0  0  0  0  0  0  0  0  0  0
   28.7984  -23.7523  -15.8559 C   0  0  0  0  0  0  0  0  0  0  0  0
   27.6609  -23.0645  -16.5886 C   0  0  2  0  0  0  0  0  0  0  0  0
   28.2922  -22.3549  -17.6919 N   0  0  0  0  0  0  0  0  0  0  0  0
   26.9941  -22.0566  -15.7335 C   0  0  0  0  0  0  0  0  0  0  0  0
   27.4919  -20.9321  -15.4416 O   0  0  0  0  0  0  0  0  0  0  0  0
   29.1746  -29.4547  -18.0368 N   0  0  0  0  0  0  0  0  0  0  0  0
   25.6891  -22.2978  -15.1598 C   0  0  2  0  0  0  0  0  0  0  0  0
   25.0264  -21.3270  -14.3243 C   0  0  0  0  0  0  0  0  0  0  0  0
   23.5921  -21.2103  -14.8667 C   0  0  0  0  0  0  0  0  0  0  0  0
   22.8589  -20.2289  -14.0664 O   0  0  0  0  0  0  0  0  0  0  0  0
   23.3321  -19.2628  -13.4257 C   0  0  0  0  0  0  0  0  0  0  0  0
   24.9000  -21.7289  -12.9215 O   0  0  0  0  0  0  0  0  0  0  0  0
   24.1583  -22.6488  -12.5229 O   0  0  0  0  0  0  0  0  0  0  0  0
   21.4574  -20.3509  -13.9819 N   0  0  0  0  0  0  0  0  0  0  0  0
   25.6701  -21.0242  -11.9632 C   0  0  2  0  0  0  0  0  0  0  0  0
   25.5159  -21.1851  -10.5318 C   0  0  0  0  0  0  0  0  0  0  0  0
   26.8015  -20.7270   -9.8361 C   0  0  0  0  0  0  0  0  0  0  0  0
   26.5205  -20.5578   -8.3894 C   0  0  0  0  0  0  0  0  0  0  0  0
   25.3640  -20.7801   -7.6802 N   0  0  0  0  0  0  0  0  0  0  0  0
   25.5101  -20.5007   -6.3890 C   0  0  0  0  0  0  0  0  0  0  0  0
   26.7959  -20.0841   -6.2447 C   0  0  0  0  0  0  0  0  0  0  0  0
   27.4834  -19.6714   -5.1239 C   0  0  0  0  0  0  0  0  0  0  0  0
   28.7881  -19.2962   -5.2341 C   0  0  0  0  0  0  0  0  0  0  0  0
   29.4581  -19.3114   -6.4326 C   0  0  0  0  0  0  0  0  0  0  0  0
   28.7660  -19.7241   -7.5495 C   0  0  0  0  0  0  0  0  0  0  0  0
   27.4444  -20.1085   -7.4588 C   0  0  0  0  0  0  0  0  0  0  0  0
   24.4119  -20.3350  -10.0478 O   0  0  0  0  0  0  0  0  0  0  0  0
   24.4209  -18.9816  -10.4002 O   0  0  0  0  0  0  0  0  0  0  0  0
  2  4  1  0
  2  1  1  0
  3  2  2  0
  5  4  1  0
  6  5  1  0
  7  8  1  0
  7  6  1  0
  8 10  1  0
  8  9  1  6
 10 11  2  0
 12 13  1  0
 12 10  1  0
 14 15  1  0
 13 14  1  6
 15 19  1  0
 16 15  2  0
 17 18  2  0
 17 13  1  0
 20 17  1  0
 21 20  1  0
 21 22  1  6
 22 23  1  0
 23 24  2  0
 23 31  1  0
 24 25  1  0
 25 26  1  0
 26 27  2  0
 27 28  1  0
 29 28  2  0
 30 29  1  0
 31 30  2  0
 31 26  1  0
 32 21  1  0
 33 32  1  0
 34 32  2  0
M  END
$$$$
