RDW.pdb
     RDKit          3D

 34 35  0  0  1  0  0  0  0  0999 V2000
   28.7559  -23.5657  -16.2990 N   0  0  0  0  0  0  0  0  0  0  0  0
   28.6645  -24.1811  -17.5811 C   0  0  0  0  0  0  0  0  0  0  0  0
   28.0342  -25.2889  -17.7023 N   0  0  0  0  0  0  0  0  0  0  0  0
   29.2631  -23.5879  -18.7306 N   0  0  0  0  0  0  0  0  0  0  0  0
   29.2641  -22.1617  -18.9426 C   0  0  0  0  0  0  0  0  0  0  0  0
   29.8179  -21.4769  -17.7108 C   0  0  0  0  0  0  0  0  0  0  0  0
   29.2763  -20.0855  -17.5374 C   0  0  0  0  0  0  0  0  0  0  0  0
   27.8139  -19.9778  -17.9297 C   0  0  2  0  0  0  0  0  0  0  0  0
   27.7484  -18.8522  -18.8506 N   0  0  0  0  0  0  0  0  0  0  0  0
   26.9611  -19.6509  -16.7646 C   0  0  0  0  0  0  0  0  0  0  0  0
   27.3626  -19.0200  -15.7456 O   0  0  0  0  0  0  0  0  0  0  0  0
   28.0198  -25.8227  -18.5856 N   0  0  0  0  0  0  0  0  0  0  0  0
   25.5699  -20.0413  -16.7141 C   0  0  2  0  0  0  0  0  0  0  0  0
   24.7314  -19.7496  -15.5776 C   0  0  0  0  0  0  0  0  0  0  0  0
   23.4671  -19.0824  -16.1444 C   0  0  0  0  0  0  0  0  0  0  0  0
   23.8173  -17.7577  -16.6578 O   0  0  0  0  0  0  0  0  0  0  0  0
   24.2617  -16.7830  -16.0095 C   0  0  0  0  0  0  0  0  0  0  0  0
   24.2746  -20.9350  -14.8487 O   0  0  0  0  0  0  0  0  0  0  0  0
   24.0621  -22.0429  -15.3805 O   0  0  0  0  0  0  0  0  0  0  0  0
   23.6490  -17.5106  -18.0351 N   0  0  0  0  0  0  0  0  0  0  0  0
   24.0621  -20.8081  -13.4534 C   0  0  1  0  0  0  0  0  0  0  0  0
   23.5484  -21.8743  -12.6179 C   0  0  0  0  0  0  0  0  0  0  0  0
   24.7076  -22.4976  -11.8342 C   0  0  0  0  0  0  0  0  0  0  0  0
   25.4019  -21.4225  -11.0839 C   0  0  0  0  0  0  0  0  0  0  0  0
   25.0764  -20.8240   -9.8899 N   0  0  0  0  0  0  0  0  0  0  0  0
   25.9533  -19.8854   -9.5480 C   0  0  0  0  0  0  0  0  0  0  0  0
   26.8797  -19.8661  -10.5425 C   0  0  0  0  0  0  0  0  0  0  0  0
   28.0068  -19.0892  -10.7019 C   0  0  0  0  0  0  0  0  0  0  0  0
   28.7918  -19.2587  -11.8020 C   0  0  0  0  0  0  0  0  0  0  0  0
   28.5038  -20.1844  -12.7743 C   0  0  0  0  0  0  0  0  0  0  0  0
   27.3760  -20.9577  -12.6103 C   0  0  0  0  0  0  0  0  0  0  0  0
   26.5682  -20.8017  -11.5031 C   0  0  0  0  0  0  0  0  0  0  0  0
   22.5854  -21.3278  -11.6434 O   0  0  0  0  0  0  0  0  0  0  0  0
   21.8100  -22.2302  -10.9082 O   0  0  0  0  0  0  0  0  0  0  0  0
  2  4  1  0
  2  1  1  0
  3  2  2  0
  5  4  1  0
  6  5  1  0
  7  8  1  0
  7  6  1  0
  8 10  1  0
  8  9  1  6
 10 11  2  0
 12 13  1  0
 12 10  1  0
 14 15  1  0
 13 14  1  1
 15 19  1  0
 16 15  2  0
 17 18  2  0
 17 13  1  0
 20 17  1  0
 21 20  1  0
 21 22  1  6
 22 23  1  0
 23 24  2  0
 23 31  1  0
 24 25  1  0
 25 26  1  0
 26 27  2  0
 27 28  1  0
 29 28  2  0
 30 29  1  0
 31 30  2  0
 31 26  1  0
 32 21  1  0
 33 32  1  0
 34 32  2  0
M  END
$$$$
