RDW.pdb
     RDKit          3D

 34 35  0  0  1  0  0  0  0  0999 V2000
   32.0084  -24.8905  -14.8380 N   0  0  0  0  0  0  0  0  0  0  0  0
   31.7734  -25.2835  -16.1876 C   0  0  0  0  0  0  0  0  0  0  0  0
   32.6120  -26.0544  -16.7720 N   0  0  0  0  0  0  0  0  0  0  0  0
   30.6239  -24.8330  -16.8997 N   0  0  0  0  0  0  0  0  0  0  0  0
   30.0898  -23.5047  -16.7283 C   0  0  0  0  0  0  0  0  0  0  0  0
   30.6195  -22.9194  -15.4361 C   0  0  0  0  0  0  0  0  0  0  0  0
   29.7412  -21.8223  -14.9025 C   0  0  0  0  0  0  0  0  0  0  0  0
   28.4039  -21.7491  -15.6167 C   0  0  2  0  0  0  0  0  0  0  0  0
   28.6371  -20.9001  -16.7761 N   0  0  0  0  0  0  0  0  0  0  0  0
   27.3763  -21.0889  -14.7801 C   0  0  0  0  0  0  0  0  0  0  0  0
   27.3090  -19.8410  -14.5910 O   0  0  0  0  0  0  0  0  0  0  0  0
   32.4742  -26.3893  -17.7386 N   0  0  0  0  0  0  0  0  0  0  0  0
   26.3491  -21.8503  -14.1050 C   0  0  2  0  0  0  0  0  0  0  0  0
   25.3530  -21.2246  -13.2707 C   0  0  0  0  0  0  0  0  0  0  0  0
   23.9919  -21.6182  -13.8687 C   0  0  0  0  0  0  0  0  0  0  0  0
   22.9575  -20.7452  -13.3130 O   0  0  0  0  0  0  0  0  0  0  0  0
   23.1172  -19.6377  -12.7511 C   0  0  0  0  0  0  0  0  0  0  0  0
   25.3433  -21.7027  -11.8863 O   0  0  0  0  0  0  0  0  0  0  0  0
   25.3136  -22.9070  -11.5637 O   0  0  0  0  0  0  0  0  0  0  0  0
   21.6145  -21.1636  -13.4003 N   0  0  0  0  0  0  0  0  0  0  0  0
   25.3684  -20.7317  -10.8546 C   0  0  2  0  0  0  0  0  0  0  0  0
   25.3427  -21.0569   -9.4432 C   0  0  0  0  0  0  0  0  0  0  0  0
   26.0021  -19.9201   -8.6563 C   0  0  0  0  0  0  0  0  0  0  0  0
   27.4422  -20.2349   -8.4897 C   0  0  0  0  0  0  0  0  0  0  0  0
   28.3327  -20.7997   -9.3716 N   0  0  0  0  0  0  0  0  0  0  0  0
   29.5449  -20.9281   -8.8417 C   0  0  0  0  0  0  0  0  0  0  0  0
   29.4496  -20.4347   -7.5787 C   0  0  0  0  0  0  0  0  0  0  0  0
   30.3999  -20.3218   -6.5870 C   0  0  0  0  0  0  0  0  0  0  0  0
   30.0572  -19.7835   -5.3837 C   0  0  0  0  0  0  0  0  0  0  0  0
   28.7858  -19.3418   -5.1120 C   0  0  0  0  0  0  0  0  0  0  0  0
   27.8400  -19.4576   -6.1063 C   0  0  0  0  0  0  0  0  0  0  0  0
   28.1671  -19.9996   -7.3319 C   0  0  0  0  0  0  0  0  0  0  0  0
   23.9468  -21.1765   -8.9816 O   0  0  0  0  0  0  0  0  0  0  0  0
   23.7158  -21.7497   -7.7271 O   0  0  0  0  0  0  0  0  0  0  0  0
  2  4  1  0
  2  1  1  0
  3  2  2  0
  5  4  1  0
  6  5  1  0
  7  8  1  0
  7  6  1  0
  8 10  1  0
  8  9  1  6
 10 11  2  0
 12 13  1  0
 12 10  1  0
 14 15  1  0
 13 14  1  6
 15 19  1  0
 16 15  2  0
 17 18  2  0
 17 13  1  0
 20 17  1  0
 21 20  1  0
 21 22  1  6
 22 23  1  0
 23 24  2  0
 23 31  1  0
 24 25  1  0
 25 26  1  0
 26 27  2  0
 27 28  1  0
 29 28  2  0
 30 29  1  0
 31 30  2  0
 31 26  1  0
 32 21  1  0
 33 32  1  0
 34 32  2  0
M  END
$$$$
