RDW.pdb
     RDKit          3D

 34 35  0  0  1  0  0  0  0  0999 V2000
   26.0176  -25.1420  -15.6282 N   0  0  0  0  0  0  0  0  0  0  0  0
   26.7887  -25.3965  -16.7993 C   0  0  0  0  0  0  0  0  0  0  0  0
   27.0886  -26.6034  -17.1034 N   0  0  0  0  0  0  0  0  0  0  0  0
   27.2343  -24.3330  -17.6371 N   0  0  0  0  0  0  0  0  0  0  0  0
   26.3171  -23.3958  -18.2365 C   0  0  0  0  0  0  0  0  0  0  0  0
   26.6401  -22.0007  -17.7442 C   0  0  0  0  0  0  0  0  0  0  0  0
   25.4102  -21.1513  -17.5843 C   0  0  0  0  0  0  0  0  0  0  0  0
   24.4910  -21.2266  -18.7898 C   0  0  2  0  0  0  0  0  0  0  0  0
   25.0302  -20.2652  -19.7407 N   0  0  0  0  0  0  0  0  0  0  0  0
   23.1153  -20.7962  -18.4521 C   0  0  0  0  0  0  0  0  0  0  0  0
   22.8381  -19.9225  -17.5818 O   0  0  0  0  0  0  0  0  0  0  0  0
   27.7321  -26.8349  -17.8766 N   0  0  0  0  0  0  0  0  0  0  0  0
   21.9627  -21.3621  -19.1168 C   0  0  2  0  0  0  0  0  0  0  0  0
   20.6164  -20.9535  -18.8001 C   0  0  0  0  0  0  0  0  0  0  0  0
   19.6990  -21.7540  -19.7395 C   0  0  0  0  0  0  0  0  0  0  0  0
   18.3266  -21.2683  -19.5924 O   0  0  0  0  0  0  0  0  0  0  0  0
   17.9560  -20.1016  -19.3290 C   0  0  0  0  0  0  0  0  0  0  0  0
   20.1933  -21.2850  -17.4376 O   0  0  0  0  0  0  0  0  0  0  0  0
   20.5690  -22.2994  -16.8171 O   0  0  0  0  0  0  0  0  0  0  0  0
   17.2723  -22.1888  -19.7584 N   0  0  0  0  0  0  0  0  0  0  0  0
   19.3012  -20.3941  -16.7906 C   0  0  2  0  0  0  0  0  0  0  0  0
   18.8772  -20.5400  -15.4131 C   0  0  0  0  0  0  0  0  0  0  0  0
   19.8751  -19.8165  -14.5037 C   0  0  0  0  0  0  0  0  0  0  0  0
   19.8958  -18.3802  -14.8743 C   0  0  0  0  0  0  0  0  0  0  0  0
   18.8748  -17.4603  -14.9099 N   0  0  0  0  0  0  0  0  0  0  0  0
   19.2961  -16.2638  -15.3068 C   0  0  0  0  0  0  0  0  0  0  0  0
   20.6286  -16.3998  -15.5381 C   0  0  0  0  0  0  0  0  0  0  0  0
   21.5621  -15.4803  -15.9652 C   0  0  0  0  0  0  0  0  0  0  0  0
   22.8598  -15.8620  -16.1245 C   0  0  0  0  0  0  0  0  0  0  0  0
   23.2844  -17.1436  -15.8742 C   0  0  0  0  0  0  0  0  0  0  0  0
   22.3473  -18.0585  -15.4483 C   0  0  0  0  0  0  0  0  0  0  0  0
   21.0282  -17.6917  -15.2804 C   0  0  0  0  0  0  0  0  0  0  0  0
   17.5561  -19.9111  -15.2260 O   0  0  0  0  0  0  0  0  0  0  0  0
   16.8561  -20.1896  -14.0477 O   0  0  0  0  0  0  0  0  0  0  0  0
  2  4  1  0
  2  1  1  0
  3  2  2  0
  5  4  1  0
  6  5  1  0
  7  8  1  0
  7  6  1  0
  8 10  1  0
  8  9  1  6
 10 11  2  0
 12 13  1  0
 12 10  1  0
 14 15  1  0
 13 14  1  6
 15 19  1  0
 16 15  2  0
 17 18  2  0
 17 13  1  0
 20 17  1  0
 21 20  1  0
 21 22  1  6
 22 23  1  0
 23 24  2  0
 23 31  1  0
 24 25  1  0
 25 26  1  0
 26 27  2  0
 27 28  1  0
 29 28  2  0
 30 29  1  0
 31 30  2  0
 31 26  1  0
 32 21  1  0
 33 32  1  0
 34 32  2  0
M  END
$$$$
