RDW.pdb
     RDKit          3D

 34 35  0  0  1  0  0  0  0  0999 V2000
   29.2235  -30.3316  -16.9030 N   0  0  0  0  0  0  0  0  0  0  0  0
   27.8869  -29.8403  -16.8485 C   0  0  0  0  0  0  0  0  0  0  0  0
   26.9764  -30.5570  -16.3040 N   0  0  0  0  0  0  0  0  0  0  0  0
   27.5440  -28.5674  -17.3906 N   0  0  0  0  0  0  0  0  0  0  0  0
   28.5025  -27.7528  -18.0952 C   0  0  0  0  0  0  0  0  0  0  0  0
   29.2050  -26.8456  -17.1070 C   0  0  0  0  0  0  0  0  0  0  0  0
   28.2607  -25.8834  -16.4422 C   0  0  0  0  0  0  0  0  0  0  0  0
   27.8700  -24.7314  -17.3501 C   0  0  2  0  0  0  0  0  0  0  0  0
   29.1047  -24.3295  -18.0084 N   0  0  0  0  0  0  0  0  0  0  0  0
   27.3799  -23.5698  -16.5742 C   0  0  0  0  0  0  0  0  0  0  0  0
   28.1314  -22.7171  -16.0213 O   0  0  0  0  0  0  0  0  0  0  0  0
   25.9794  -30.2903  -16.3208 N   0  0  0  0  0  0  0  0  0  0  0  0
   25.9665  -23.3247  -16.3934 C   0  0  2  0  0  0  0  0  0  0  0  0
   25.4710  -22.1515  -15.7167 C   0  0  0  0  0  0  0  0  0  0  0  0
   24.0180  -21.9730  -16.1878 C   0  0  0  0  0  0  0  0  0  0  0  0
   23.9800  -22.0377  -17.6491 O   0  0  0  0  0  0  0  0  0  0  0  0
   24.5036  -21.2404  -18.4603 C   0  0  0  0  0  0  0  0  0  0  0  0
   25.4139  -22.2787  -14.2588 O   0  0  0  0  0  0  0  0  0  0  0  0
   25.2348  -23.3570  -13.6584 O   0  0  0  0  0  0  0  0  0  0  0  0
   23.2839  -23.1050  -18.2513 N   0  0  0  0  0  0  0  0  0  0  0  0
   25.5717  -21.0997  -13.4887 C   0  0  1  0  0  0  0  0  0  0  0  0
   25.6284  -21.0860  -12.0412 C   0  0  0  0  0  0  0  0  0  0  0  0
   26.7326  -20.1234  -11.5934 C   0  0  0  0  0  0  0  0  0  0  0  0
   26.5822  -19.8768  -10.1384 C   0  0  0  0  0  0  0  0  0  0  0  0
   25.4692  -19.5301   -9.4096 N   0  0  0  0  0  0  0  0  0  0  0  0
   25.7443  -19.3897   -8.1168 C   0  0  0  0  0  0  0  0  0  0  0  0
   27.0724  -19.6510   -7.9917 C   0  0  0  0  0  0  0  0  0  0  0  0
   27.8841  -19.6516   -6.8780 C   0  0  0  0  0  0  0  0  0  0  0  0
   29.2063  -19.9517   -7.0083 C   0  0  0  0  0  0  0  0  0  0  0  0
   29.7740  -20.2582   -8.2204 C   0  0  0  0  0  0  0  0  0  0  0  0
   28.9583  -20.2556   -9.3301 C   0  0  0  0  0  0  0  0  0  0  0  0
   27.6167  -19.9547   -9.2191 C   0  0  0  0  0  0  0  0  0  0  0  0
   24.3499  -20.5941  -11.4940 O   0  0  0  0  0  0  0  0  0  0  0  0
   23.5729  -19.7509  -12.2947 O   0  0  0  0  0  0  0  0  0  0  0  0
  2  4  1  0
  2  1  1  0
  3  2  2  0
  5  4  1  0
  6  5  1  0
  7  8  1  0
  7  6  1  0
  8 10  1  0
  8  9  1  1
 10 11  2  0
 12 13  1  0
 12 10  1  0
 14 15  1  0
 13 14  1  6
 15 19  1  0
 16 15  2  0
 17 18  2  0
 17 13  1  0
 20 17  1  0
 21 20  1  0
 21 22  1  1
 22 23  1  0
 23 24  2  0
 23 31  1  0
 24 25  1  0
 25 26  1  0
 26 27  2  0
 27 28  1  0
 29 28  2  0
 30 29  1  0
 31 30  2  0
 31 26  1  0
 32 21  1  0
 33 32  1  0
 34 32  2  0
M  END
$$$$
