RDW.pdb
     RDKit          3D

 34 35  0  0  1  0  0  0  0  0999 V2000
   29.8859  -24.6290  -20.8482 N   0  0  0  0  0  0  0  0  0  0  0  0
   31.2253  -24.1676  -20.6931 C   0  0  0  0  0  0  0  0  0  0  0  0
   32.0674  -24.3549  -21.6391 N   0  0  0  0  0  0  0  0  0  0  0  0
   31.6458  -23.5034  -19.5041 N   0  0  0  0  0  0  0  0  0  0  0  0
   30.7777  -23.3565  -18.3622 C   0  0  0  0  0  0  0  0  0  0  0  0
   29.7402  -22.2947  -18.6604 C   0  0  0  0  0  0  0  0  0  0  0  0
   29.5028  -21.3819  -17.4899 C   0  0  0  0  0  0  0  0  0  0  0  0
   28.7768  -22.0743  -16.3507 C   0  0  2  0  0  0  0  0  0  0  0  0
   28.0335  -23.1587  -16.9759 N   0  0  0  0  0  0  0  0  0  0  0  0
   27.7944  -21.1743  -15.7055 C   0  0  0  0  0  0  0  0  0  0  0  0
   27.5699  -19.9865  -16.0749 O   0  0  0  0  0  0  0  0  0  0  0  0
   33.0604  -24.0853  -21.5565 N   0  0  0  0  0  0  0  0  0  0  0  0
   27.0009  -21.6076  -14.5772 C   0  0  1  0  0  0  0  0  0  0  0  0
   25.9649  -20.7833  -14.0054 C   0  0  0  0  0  0  0  0  0  0  0  0
   24.8302  -20.7489  -15.0429 C   0  0  0  0  0  0  0  0  0  0  0  0
   23.7241  -19.9513  -14.5124 O   0  0  0  0  0  0  0  0  0  0  0  0
   22.6902  -20.3678  -13.9419 C   0  0  0  0  0  0  0  0  0  0  0  0
   25.3775  -21.3234  -12.7772 O   0  0  0  0  0  0  0  0  0  0  0  0
   24.9572  -22.4916  -12.6592 O   0  0  0  0  0  0  0  0  0  0  0  0
   23.7927  -18.5492  -14.6386 N   0  0  0  0  0  0  0  0  0  0  0  0
   25.2833  -20.4596  -11.6578 C   0  0  2  0  0  0  0  0  0  0  0  0
   24.8957  -20.8993  -10.3330 C   0  0  0  0  0  0  0  0  0  0  0  0
   25.5479  -19.9843   -9.2920 C   0  0  0  0  0  0  0  0  0  0  0  0
   26.9470  -20.4305   -9.0819 C   0  0  0  0  0  0  0  0  0  0  0  0
   27.7213  -21.2937   -9.8204 N   0  0  0  0  0  0  0  0  0  0  0  0
   28.9338  -21.4465   -9.2977 C   0  0  0  0  0  0  0  0  0  0  0  0
   28.9580  -20.6635   -8.1868 C   0  0  0  0  0  0  0  0  0  0  0  0
   29.9614  -20.4427   -7.2682 C   0  0  0  0  0  0  0  0  0  0  0  0
   29.7427  -19.5991   -6.2215 C   0  0  0  0  0  0  0  0  0  0  0  0
   28.5469  -18.9493   -6.0392 C   0  0  0  0  0  0  0  0  0  0  0  0
   27.5475  -19.1741   -6.9597 C   0  0  0  0  0  0  0  0  0  0  0  0
   27.7492  -20.0244   -8.0270 C   0  0  0  0  0  0  0  0  0  0  0  0
   23.4329  -20.7917  -10.1770 O   0  0  0  0  0  0  0  0  0  0  0  0
   22.8443  -21.3954   -9.0612 O   0  0  0  0  0  0  0  0  0  0  0  0
  2  4  1  0
  2  1  1  0
  3  2  2  0
  5  4  1  0
  6  5  1  0
  7  8  1  0
  7  6  1  0
  8 10  1  0
  8  9  1  6
 10 11  2  0
 12 13  1  0
 12 10  1  0
 14 15  1  0
 13 14  1  6
 15 19  1  0
 16 15  2  0
 17 18  2  0
 17 13  1  0
 20 17  1  0
 21 20  1  0
 21 22  1  6
 22 23  1  0
 23 24  2  0
 23 31  1  0
 24 25  1  0
 25 26  1  0
 26 27  2  0
 27 28  1  0
 29 28  2  0
 30 29  1  0
 31 30  2  0
 31 26  1  0
 32 21  1  0
 33 32  1  0
 34 32  2  0
M  END
$$$$
