IPP.pdb
     RDKit          3D

 23 24  0  0  1  0  0  0  0  0999 V2000
   21.8226  -14.7065  -17.0307 C   0  0  0  0  0  0  0  0  0  0  0  0
   22.9263  -15.5905  -17.5525 C   0  0  0  0  0  0  0  0  0  0  0  0
   23.4192  -16.5988  -16.5552 C   0  0  2  0  0  0  0  0  0  0  0  0
   24.0882  -15.7922  -15.4378 C   0  0  0  0  0  0  0  0  0  0  0  0
   24.4282  -17.5976  -17.1124 C   0  0  2  0  0  0  0  0  0  0  0  0
   23.6199  -18.2674  -18.1981 N   0  0  0  0  0  0  0  0  0  0  0  0
   24.8545  -18.6212  -16.1611 C   0  0  0  0  0  0  0  0  0  0  0  0
   24.0426  -19.5993  -15.9605 O   0  0  0  0  0  0  0  0  0  0  0  0
   26.0547  -18.6946  -15.4180 N   0  0  0  0  0  0  0  0  0  0  0  0
   27.0851  -17.7037  -15.3559 C   0  0  0  0  0  0  0  0  0  0  0  0
   28.3762  -18.4654  -15.2892 C   0  0  0  0  0  0  0  0  0  0  0  0
   27.9768  -19.8511  -14.8765 C   0  0  0  0  0  0  0  0  0  0  0  0
   26.5124  -19.7810  -14.5329 C   0  0  1  0  0  0  0  0  0  0  0  0
   26.2128  -19.4640  -13.1461 C   0  0  0  0  0  0  0  0  0  0  0  0
   26.0361  -18.2383  -12.8454 O   0  0  0  0  0  0  0  0  0  0  0  0
   26.0913  -20.3716  -12.0644 N   0  0  0  0  0  0  0  0  0  0  0  0
   26.4449  -21.7633  -12.1111 C   0  0  0  0  0  0  0  0  0  0  0  0
   25.3949  -22.4357  -11.2691 C   0  0  0  0  0  0  0  0  0  0  0  0
   24.8468  -21.3612  -10.3543 C   0  0  0  0  0  0  0  0  0  0  0  0
   25.6158  -20.1154  -10.7193 C   0  0  1  0  0  0  0  0  0  0  0  0
   26.7526  -19.9751   -9.7579 C   0  0  0  0  0  0  0  0  0  0  0  0
   28.0326  -20.3757  -10.0950 O   0  0  0  0  0  0  0  0  0  0  0  0
   26.5174  -19.4865   -8.6468 O   0  0  0  0  0  0  0  0  0  0  0  0
  1  2  1  0
  3  4  1  1
  3  2  1  0
  5  3  1  0
  5  6  1  6
  7  8  2  0
  7  5  1  0
  9  7  1  0
 10  9  1  0
 11 10  1  0
 12 11  1  0
 12 13  1  0
 13 14  1  1
 13  9  1  0
 14 15  2  0
 16 17  1  0
 16 14  1  0
 18 17  1  0
 19 20  1  0
 19 18  1  0
 20 16  1  0
 20 21  1  1
 21 22  1  0
 23 21  2  0
M  END
$$$$
