IPP.pdb
     RDKit          3D

 23 24  0  0  1  0  0  0  0  0999 V2000
   22.4368  -20.0756  -12.9358 C   0  0  0  0  0  0  0  0  0  0  0  0
   23.8987  -20.4120  -13.0833 C   0  0  0  0  0  0  0  0  0  0  0  0
   24.5908  -20.6948  -11.7813 C   0  0  2  0  0  0  0  0  0  0  0  0
   24.8917  -19.3274  -11.1597 C   0  0  0  0  0  0  0  0  0  0  0  0
   25.8963  -21.4719  -11.9154 C   0  0  2  0  0  0  0  0  0  0  0  0
   25.4048  -22.7943  -12.4544 N   0  0  0  0  0  0  0  0  0  0  0  0
   26.5851  -21.7199  -10.6512 C   0  0  0  0  0  0  0  0  0  0  0  0
   26.0294  -22.5529   -9.8428 O   0  0  0  0  0  0  0  0  0  0  0  0
   27.7988  -21.1688  -10.1810 N   0  0  0  0  0  0  0  0  0  0  0  0
   28.6259  -20.2174  -10.8579 C   0  0  0  0  0  0  0  0  0  0  0  0
   30.0385  -20.6037  -10.5313 C   0  0  0  0  0  0  0  0  0  0  0  0
   29.9190  -21.4939   -9.3299 C   0  0  0  0  0  0  0  0  0  0  0  0
   28.4781  -21.4245   -8.8980 C   0  0  1  0  0  0  0  0  0  0  0  0
   28.1648  -20.3755   -7.9414 C   0  0  0  0  0  0  0  0  0  0  0  0
   27.4964  -19.3747   -8.3606 O   0  0  0  0  0  0  0  0  0  0  0  0
   28.5203  -20.3289   -6.5704 N   0  0  0  0  0  0  0  0  0  0  0  0
   29.3974  -21.2579   -5.9132 C   0  0  0  0  0  0  0  0  0  0  0  0
   28.7902  -21.4305   -4.5475 C   0  0  0  0  0  0  0  0  0  0  0  0
   27.9448  -20.1970   -4.3112 C   0  0  0  0  0  0  0  0  0  0  0  0
   28.1103  -19.3708   -5.5629 C   0  0  1  0  0  0  0  0  0  0  0  0
   29.1795  -18.3565   -5.3097 C   0  0  0  0  0  0  0  0  0  0  0  0
   30.4369  -18.4820   -5.8715 O   0  0  0  0  0  0  0  0  0  0  0  0
   28.9079  -17.3949   -4.5815 O   0  0  0  0  0  0  0  0  0  0  0  0
  1  2  1  0
  3  4  1  6
  3  2  1  0
  5  3  1  0
  5  6  1  1
  7  8  2  0
  7  5  1  0
  9  7  1  0
 10  9  1  0
 11 10  1  0
 12 11  1  0
 12 13  1  0
 13 14  1  1
 13  9  1  0
 14 15  2  0
 16 17  1  0
 16 14  1  0
 18 17  1  0
 19 20  1  0
 19 18  1  0
 20 16  1  0
 20 21  1  1
 21 22  1  0
 23 21  2  0
M  END
$$$$
