IPP.pdb
     RDKit          3D

 23 24  0  0  1  0  0  0  0  0999 V2000
   23.0418  -19.3871  -10.8858 C   0  0  0  0  0  0  0  0  0  0  0  0
   23.9009  -20.6073  -11.0986 C   0  0  0  0  0  0  0  0  0  0  0  0
   25.1461  -20.3416  -11.8942 C   0  0  2  0  0  0  0  0  0  0  0  0
   24.6778  -20.0555  -13.3245 C   0  0  0  0  0  0  0  0  0  0  0  0
   26.1364  -21.5011  -11.9239 C   0  0  2  0  0  0  0  0  0  0  0  0
   25.2411  -22.6510  -12.3202 N   0  0  0  0  0  0  0  0  0  0  0  0
   26.7395  -21.8147  -10.6307 C   0  0  0  0  0  0  0  0  0  0  0  0
   26.0955  -22.6334   -9.8748 O   0  0  0  0  0  0  0  0  0  0  0  0
   27.9531  -21.3419  -10.0816 N   0  0  0  0  0  0  0  0  0  0  0  0
   28.8858  -20.4534  -10.7045 C   0  0  0  0  0  0  0  0  0  0  0  0
   30.2442  -20.9305  -10.2817 C   0  0  0  0  0  0  0  0  0  0  0  0
   29.9847  -21.8007   -9.0878 C   0  0  0  0  0  0  0  0  0  0  0  0
   28.5259  -21.6318   -8.7546 C   0  0  1  0  0  0  0  0  0  0  0  0
   28.2201  -20.5563   -7.8254 C   0  0  0  0  0  0  0  0  0  0  0  0
   27.6086  -19.5364   -8.2834 O   0  0  0  0  0  0  0  0  0  0  0  0
   28.5263  -20.5026   -6.4428 N   0  0  0  0  0  0  0  0  0  0  0  0
   29.3209  -21.4682   -5.7352 C   0  0  0  0  0  0  0  0  0  0  0  0
   28.6538  -21.5761   -4.3910 C   0  0  0  0  0  0  0  0  0  0  0  0
   27.8758  -20.2900   -4.2102 C   0  0  0  0  0  0  0  0  0  0  0  0
   28.1373  -19.5012   -5.4696 C   0  0  1  0  0  0  0  0  0  0  0  0
   29.2554  -18.5471   -5.1941 C   0  0  0  0  0  0  0  0  0  0  0  0
   29.1119  -17.5147   -4.2853 O   0  0  0  0  0  0  0  0  0  0  0  0
   30.3196  -18.7073   -5.8029 O   0  0  0  0  0  0  0  0  0  0  0  0
  1  2  1  0
  3  4  1  6
  3  2  1  0
  5  3  1  0
  5  6  1  1
  7  8  2  0
  7  5  1  0
  9  7  1  0
 10  9  1  0
 11 10  1  0
 12 11  1  0
 12 13  1  0
 13 14  1  1
 13  9  1  0
 14 15  2  0
 16 17  1  0
 16 14  1  0
 18 17  1  0
 19 20  1  0
 19 18  1  0
 20 16  1  0
 20 21  1  1
 21 22  1  0
 23 21  2  0
M  END
$$$$
