IPP.pdb
     RDKit          3D

 23 24  0  0  1  0  0  0  0  0999 V2000
   22.8758  -19.7041  -13.3830 C   0  0  0  0  0  0  0  0  0  0  0  0
   24.1245  -20.5484  -13.3922 C   0  0  0  0  0  0  0  0  0  0  0  0
   24.7842  -20.6709  -12.0491 C   0  0  2  0  0  0  0  0  0  0  0  0
   25.2341  -19.2562  -11.6713 C   0  0  0  0  0  0  0  0  0  0  0  0
   25.9966  -21.5959  -12.0227 C   0  0  2  0  0  0  0  0  0  0  0  0
   25.3799  -22.9114  -12.4350 N   0  0  0  0  0  0  0  0  0  0  0  0
   26.5989  -21.7660  -10.7026 C   0  0  0  0  0  0  0  0  0  0  0  0
   25.9416  -22.4751   -9.8534 O   0  0  0  0  0  0  0  0  0  0  0  0
   27.8245  -21.2569  -10.2162 N   0  0  0  0  0  0  0  0  0  0  0  0
   28.7109  -20.3635  -10.8971 C   0  0  0  0  0  0  0  0  0  0  0  0
   30.0958  -20.8037  -10.5234 C   0  0  0  0  0  0  0  0  0  0  0  0
   29.9059  -21.6529   -9.3016 C   0  0  0  0  0  0  0  0  0  0  0  0
   28.4594  -21.5063   -8.9094 C   0  0  1  0  0  0  0  0  0  0  0  0
   28.1708  -20.4173   -7.9905 C   0  0  0  0  0  0  0  0  0  0  0  0
   27.5446  -19.4072   -8.4502 O   0  0  0  0  0  0  0  0  0  0  0  0
   28.5089  -20.3404   -6.6164 N   0  0  0  0  0  0  0  0  0  0  0  0
   29.3349  -21.2843   -5.9156 C   0  0  0  0  0  0  0  0  0  0  0  0
   28.7017  -21.3842   -4.5545 C   0  0  0  0  0  0  0  0  0  0  0  0
   27.9085  -20.1078   -4.3719 C   0  0  0  0  0  0  0  0  0  0  0  0
   28.1277  -19.3321   -5.6474 C   0  0  1  0  0  0  0  0  0  0  0  0
   29.2371  -18.3575   -5.4113 C   0  0  0  0  0  0  0  0  0  0  0  0
   29.1201  -17.3487   -4.4726 O   0  0  0  0  0  0  0  0  0  0  0  0
   30.2697  -18.4788   -6.0804 O   0  0  0  0  0  0  0  0  0  0  0  0
  1  2  1  0
  3  4  1  6
  3  2  1  0
  5  3  1  0
  5  6  1  1
  7  8  2  0
  7  5  1  0
  9  7  1  0
 10  9  1  0
 11 10  1  0
 12 11  1  0
 12 13  1  0
 13 14  1  1
 13  9  1  0
 14 15  2  0
 16 17  1  0
 16 14  1  0
 18 17  1  0
 19 20  1  0
 19 18  1  0
 20 16  1  0
 20 21  1  1
 21 22  1  0
 23 21  2  0
M  END
$$$$
