IPP.pdb
     RDKit          3D

 23 24  0  0  1  0  0  0  0  0999 V2000
   19.2747  -22.7537  -14.9042 C   0  0  0  0  0  0  0  0  0  0  0  0
   20.2402  -22.6911  -13.7483 C   0  0  0  0  0  0  0  0  0  0  0  0
   21.2828  -21.6197  -13.8858 C   0  0  2  0  0  0  0  0  0  0  0  0
   22.2166  -22.0835  -15.0082 C   0  0  0  0  0  0  0  0  0  0  0  0
   22.1096  -21.3773  -12.6272 C   0  0  2  0  0  0  0  0  0  0  0  0
   21.0674  -20.8228  -11.6853 N   0  0  0  0  0  0  0  0  0  0  0  0
   23.1659  -20.3798  -12.7802 C   0  0  0  0  0  0  0  0  0  0  0  0
   22.8168  -19.1458  -12.6734 O   0  0  0  0  0  0  0  0  0  0  0  0
   24.5428  -20.5793  -13.0300 N   0  0  0  0  0  0  0  0  0  0  0  0
   25.2062  -21.8334  -13.2160 C   0  0  0  0  0  0  0  0  0  0  0  0
   26.5486  -21.6825  -12.5628 C   0  0  0  0  0  0  0  0  0  0  0  0
   26.7371  -20.2009  -12.4238 C   0  0  0  0  0  0  0  0  0  0  0  0
   25.5988  -19.5609  -13.1737 C   0  0  1  0  0  0  0  0  0  0  0  0
   25.8534  -19.2907  -14.5794 C   0  0  0  0  0  0  0  0  0  0  0  0
   25.4557  -20.1542  -15.4280 O   0  0  0  0  0  0  0  0  0  0  0  0
   26.5044  -18.1600  -15.1326 N   0  0  0  0  0  0  0  0  0  0  0  0
   27.3549  -17.2592  -14.4049 C   0  0  0  0  0  0  0  0  0  0  0  0
   27.0437  -15.9089  -14.9911 C   0  0  0  0  0  0  0  0  0  0  0  0
   26.4660  -16.1767  -16.3646 C   0  0  0  0  0  0  0  0  0  0  0  0
   26.4745  -17.6795  -16.4999 C   0  0  1  0  0  0  0  0  0  0  0  0
   27.7130  -18.0703  -17.2411 C   0  0  0  0  0  0  0  0  0  0  0  0
   27.8636  -17.7907  -18.5870 O   0  0  0  0  0  0  0  0  0  0  0  0
   28.6060  -18.6525  -16.6147 O   0  0  0  0  0  0  0  0  0  0  0  0
  1  2  1  0
  3  4  1  6
  3  2  1  0
  5  3  1  0
  5  6  1  1
  7  8  2  0
  7  5  1  0
  9  7  1  0
 10  9  1  0
 11 10  1  0
 12 11  1  0
 12 13  1  0
 13 14  1  6
 13  9  1  0
 14 15  2  0
 16 17  1  0
 16 14  1  0
 18 17  1  0
 19 20  1  0
 19 18  1  0
 20 16  1  0
 20 21  1  6
 21 22  1  0
 23 21  2  0
M  END
$$$$
