IPP.pdb
     RDKit          3D

 23 24  0  0  1  0  0  0  0  0999 V2000
   19.3977  -18.3454  -17.4230 C   0  0  0  0  0  0  0  0  0  0  0  0
   20.8071  -17.9174  -17.7432 C   0  0  0  0  0  0  0  0  0  0  0  0
   21.8433  -18.5121  -16.8340 C   0  0  2  0  0  0  0  0  0  0  0  0
   21.7302  -17.7478  -15.5113 C   0  0  0  0  0  0  0  0  0  0  0  0
   23.2750  -18.3972  -17.3472 C   0  0  2  0  0  0  0  0  0  0  0  0
   23.2042  -19.2081  -18.6194 N   0  0  0  0  0  0  0  0  0  0  0  0
   24.2803  -18.9999  -16.4752 C   0  0  0  0  0  0  0  0  0  0  0  0
   24.4590  -20.2693  -16.5886 O   0  0  0  0  0  0  0  0  0  0  0  0
   25.1028  -18.3769  -15.5092 N   0  0  0  0  0  0  0  0  0  0  0  0
   25.1092  -16.9901  -15.1565 C   0  0  0  0  0  0  0  0  0  0  0  0
   26.5448  -16.6473  -14.8867 C   0  0  0  0  0  0  0  0  0  0  0  0
   27.2172  -17.9718  -14.6781 C   0  0  0  0  0  0  0  0  0  0  0  0
   26.1171  -18.9993  -14.6392 C   0  0  1  0  0  0  0  0  0  0  0  0
   25.5602  -19.2656  -13.3229 C   0  0  0  0  0  0  0  0  0  0  0  0
   24.4330  -18.7418  -13.0417 O   0  0  0  0  0  0  0  0  0  0  0  0
   26.1307  -20.0531  -12.2921 N   0  0  0  0  0  0  0  0  0  0  0  0
   27.5145  -20.4313  -12.2122 C   0  0  0  0  0  0  0  0  0  0  0  0
   27.4796  -21.8318  -11.6637 C   0  0  0  0  0  0  0  0  0  0  0  0
   26.1506  -21.9646  -10.9510 C   0  0  0  0  0  0  0  0  0  0  0  0
   25.4832  -20.6229  -11.1270 C   0  0  1  0  0  0  0  0  0  0  0  0
   25.7522  -19.8081   -9.9023 C   0  0  0  0  0  0  0  0  0  0  0  0
   26.7534  -18.8545   -9.8789 O   0  0  0  0  0  0  0  0  0  0  0  0
   25.0502  -20.0092   -8.9045 O   0  0  0  0  0  0  0  0  0  0  0  0
  1  2  1  0
  3  4  1  1
  3  2  1  0
  5  3  1  0
  5  6  1  6
  7  8  2  0
  7  5  1  0
  9  7  1  0
 10  9  1  0
 11 10  1  0
 12 11  1  0
 12 13  1  0
 13 14  1  1
 13  9  1  0
 14 15  2  0
 16 17  1  0
 16 14  1  0
 18 17  1  0
 19 20  1  0
 19 18  1  0
 20 16  1  0
 20 21  1  1
 21 22  1  0
 23 21  2  0
M  END
$$$$
