IPP.pdb
     RDKit          3D

 23 24  0  0  1  0  0  0  0  0999 V2000
   22.8886  -15.6046  -16.8443 C   0  0  0  0  0  0  0  0  0  0  0  0
   24.2134  -16.3214  -16.9034 C   0  0  0  0  0  0  0  0  0  0  0  0
   24.5229  -17.1269  -15.6748 C   0  0  2  0  0  0  0  0  0  0  0  0
   25.5890  -16.3354  -14.9108 C   0  0  0  0  0  0  0  0  0  0  0  0
   25.0577  -18.5274  -15.9557 C   0  0  2  0  0  0  0  0  0  0  0  0
   23.9452  -19.1113  -16.7938 N   0  0  0  0  0  0  0  0  0  0  0  0
   25.2224  -19.3615  -14.7676 C   0  0  0  0  0  0  0  0  0  0  0  0
   24.1678  -19.9493  -14.3221 O   0  0  0  0  0  0  0  0  0  0  0  0
   26.3964  -19.6233  -14.0252 N   0  0  0  0  0  0  0  0  0  0  0  0
   27.6802  -19.0199  -14.2129 C   0  0  0  0  0  0  0  0  0  0  0  0
   28.6810  -20.1064  -13.9492 C   0  0  0  0  0  0  0  0  0  0  0  0
   27.9129  -21.1541  -13.1993 C   0  0  0  0  0  0  0  0  0  0  0  0
   26.5689  -20.5489  -12.8910 C   0  0  1  0  0  0  0  0  0  0  0  0
   26.4851  -19.8274  -11.6317 C   0  0  0  0  0  0  0  0  0  0  0  0
   26.6739  -18.5675  -11.6594 O   0  0  0  0  0  0  0  0  0  0  0  0
   26.2138  -20.3663  -10.3494 N   0  0  0  0  0  0  0  0  0  0  0  0
   26.0655  -21.7650  -10.0564 C   0  0  0  0  0  0  0  0  0  0  0  0
   24.9764  -21.8078   -9.0192 C   0  0  0  0  0  0  0  0  0  0  0  0
   24.9558  -20.4341   -8.3832 C   0  0  0  0  0  0  0  0  0  0  0  0
   26.0431  -19.6649   -9.0923 C   0  0  1  0  0  0  0  0  0  0  0  0
   27.2811  -19.7369   -8.2567 C   0  0  0  0  0  0  0  0  0  0  0  0
   27.4597  -18.9088   -7.1637 O   0  0  0  0  0  0  0  0  0  0  0  0
   28.1463  -20.5630   -8.5694 O   0  0  0  0  0  0  0  0  0  0  0  0
  1  2  1  0
  3  4  1  6
  3  2  1  0
  5  3  1  0
  5  6  1  6
  7  8  2  0
  7  5  1  0
  9  7  1  0
 10  9  1  0
 11 10  1  0
 12 11  1  0
 12 13  1  0
 13 14  1  1
 13  9  1  0
 14 15  2  0
 16 17  1  0
 16 14  1  0
 18 17  1  0
 19 20  1  0
 19 18  1  0
 20 16  1  0
 20 21  1  1
 21 22  1  0
 23 21  2  0
M  END
$$$$
