IPP.pdb
     RDKit          3D

 23 24  0  0  1  0  0  0  0  0999 V2000
   23.1396  -19.3854  -10.9883 C   0  0  0  0  0  0  0  0  0  0  0  0
   23.9988  -20.6109  -11.1668 C   0  0  0  0  0  0  0  0  0  0  0  0
   25.2689  -20.3564  -11.9259 C   0  0  2  0  0  0  0  0  0  0  0  0
   24.8431  -20.0366  -13.3623 C   0  0  0  0  0  0  0  0  0  0  0  0
   26.2370  -21.5346  -11.9509 C   0  0  2  0  0  0  0  0  0  0  0  0
   25.3118  -22.6764  -12.2994 N   0  0  0  0  0  0  0  0  0  0  0  0
   26.8643  -21.8295  -10.6649 C   0  0  0  0  0  0  0  0  0  0  0  0
   26.2457  -22.6540   -9.8944 O   0  0  0  0  0  0  0  0  0  0  0  0
   28.0776  -21.3325  -10.1368 N   0  0  0  0  0  0  0  0  0  0  0  0
   28.9873  -20.4348  -10.7803 C   0  0  0  0  0  0  0  0  0  0  0  0
   30.3588  -20.8864  -10.3724 C   0  0  0  0  0  0  0  0  0  0  0  0
   30.1299  -21.7501   -9.1676 C   0  0  0  0  0  0  0  0  0  0  0  0
   28.6733  -21.6015   -8.8155 C   0  0  1  0  0  0  0  0  0  0  0  0
   28.3631  -20.5229   -7.8914 C   0  0  0  0  0  0  0  0  0  0  0  0
   27.8122  -19.4772   -8.3680 O   0  0  0  0  0  0  0  0  0  0  0  0
   28.6045  -20.4917   -6.4953 N   0  0  0  0  0  0  0  0  0  0  0  0
   29.3295  -21.4910   -5.7606 C   0  0  0  0  0  0  0  0  0  0  0  0
   28.5954  -21.5862   -4.4508 C   0  0  0  0  0  0  0  0  0  0  0  0
   27.8558  -20.2745   -4.2942 C   0  0  0  0  0  0  0  0  0  0  0  0
   28.2051  -19.4851   -5.5317 C   0  0  1  0  0  0  0  0  0  0  0  0
   29.3417  -18.5741   -5.1939 C   0  0  0  0  0  0  0  0  0  0  0  0
   30.6349  -18.8603   -5.5915 O   0  0  0  0  0  0  0  0  0  0  0  0
   29.0935  -17.5501   -4.5470 O   0  0  0  0  0  0  0  0  0  0  0  0
  1  2  1  0
  3  4  1  6
  3  2  1  0
  5  3  1  0
  5  6  1  1
  7  8  2  0
  7  5  1  0
  9  7  1  0
 10  9  1  0
 11 10  1  0
 12 11  1  0
 12 13  1  0
 13 14  1  1
 13  9  1  0
 14 15  2  0
 16 17  1  0
 16 14  1  0
 18 17  1  0
 19 20  1  0
 19 18  1  0
 20 16  1  0
 20 21  1  1
 21 22  1  0
 23 21  2  0
M  END
$$$$
