IPP.pdb
     RDKit          3D

 23 24  0  0  1  0  0  0  0  0999 V2000
   14.7056  -10.4470  -17.7515 C   0  0  0  0  0  0  0  0  0  0  0  0
   16.1149  -10.8257  -17.3737 C   0  0  0  0  0  0  0  0  0  0  0  0
   16.6688  -10.0340  -16.2246 C   0  0  2  0  0  0  0  0  0  0  0  0
   16.9681   -8.6385  -16.7813 C   0  0  0  0  0  0  0  0  0  0  0  0
   17.9468  -10.6067  -15.6206 C   0  0  2  0  0  0  0  0  0  0  0  0
   17.4631  -11.9405  -15.1030 N   0  0  0  0  0  0  0  0  0  0  0  0
   18.4781   -9.8434  -14.4938 C   0  0  0  0  0  0  0  0  0  0  0  0
   17.8379   -9.9326  -13.3809 O   0  0  0  0  0  0  0  0  0  0  0  0
   19.6175   -9.0082  -14.4486 N   0  0  0  0  0  0  0  0  0  0  0  0
   20.5053   -8.7120  -15.5310 C   0  0  0  0  0  0  0  0  0  0  0  0
   21.8741   -8.6308  -14.9217 C   0  0  0  0  0  0  0  0  0  0  0  0
   21.6245   -8.4545  -13.4531 C   0  0  0  0  0  0  0  0  0  0  0  0
   20.1411   -8.2439  -13.3020 C   0  0  1  0  0  0  0  0  0  0  0  0
   19.6984   -6.8608  -13.3711 C   0  0  0  0  0  0  0  0  0  0  0  0
   19.3185   -6.4184  -14.5042 O   0  0  0  0  0  0  0  0  0  0  0  0
   19.6371   -5.9244  -12.3092 N   0  0  0  0  0  0  0  0  0  0  0  0
   20.1063   -6.1611  -10.9720 C   0  0  0  0  0  0  0  0  0  0  0  0
   19.1037   -5.4527  -10.1021 C   0  0  0  0  0  0  0  0  0  0  0  0
   18.4544   -4.4080  -10.9846 C   0  0  0  0  0  0  0  0  0  0  0  0
   19.1222   -4.5696  -12.3281 C   0  0  1  0  0  0  0  0  0  0  0  0
   20.2290   -3.5681  -12.4181 C   0  0  0  0  0  0  0  0  0  0  0  0
   21.5541   -3.9500  -12.3145 O   0  0  0  0  0  0  0  0  0  0  0  0
   19.9269   -2.3816  -12.5905 O   0  0  0  0  0  0  0  0  0  0  0  0
  1  2  1  0
  3  4  1  6
  3  2  1  0
  5  3  1  0
  5  6  1  1
  7  8  2  0
  7  5  1  0
  9  7  1  0
 10  9  1  0
 11 10  1  0
 12 11  1  0
 12 13  1  0
 13 14  1  6
 13  9  1  0
 14 15  2  0
 16 17  1  0
 16 14  1  0
 18 17  1  0
 19 20  1  0
 19 18  1  0
 20 16  1  0
 20 21  1  1
 21 22  1  0
 23 21  2  0
M  END
$$$$
