IPP.pdb
     RDKit          3D

 23 24  0  0  1  0  0  0  0  0999 V2000
   23.8561  -19.3798  -13.4333 C   0  0  0  0  0  0  0  0  0  0  0  0
   25.0914  -20.2408  -13.3643 C   0  0  0  0  0  0  0  0  0  0  0  0
   25.6492  -20.3920  -11.9786 C   0  0  2  0  0  0  0  0  0  0  0  0
   26.4004  -19.0899  -11.6836 C   0  0  0  0  0  0  0  0  0  0  0  0
   26.6109  -21.5636  -11.8089 C   0  0  2  0  0  0  0  0  0  0  0  0
   25.7210  -22.7348  -12.1515 N   0  0  0  0  0  0  0  0  0  0  0  0
   27.1059  -21.7474  -10.4467 C   0  0  0  0  0  0  0  0  0  0  0  0
   26.3099  -22.3211   -9.6140 O   0  0  0  0  0  0  0  0  0  0  0  0
   28.3582  -21.3819   -9.9028 N   0  0  0  0  0  0  0  0  0  0  0  0
   29.4070  -20.6726  -10.5695 C   0  0  0  0  0  0  0  0  0  0  0  0
   30.6863  -21.2749  -10.0676 C   0  0  0  0  0  0  0  0  0  0  0  0
   30.2966  -21.9996   -8.8134 C   0  0  0  0  0  0  0  0  0  0  0  0
   28.8643  -21.6239   -8.5396 C   0  0  1  0  0  0  0  0  0  0  0  0
   28.6777  -20.4424   -7.7133 C   0  0  0  0  0  0  0  0  0  0  0  0
   28.3559  -19.3572   -8.2988 O   0  0  0  0  0  0  0  0  0  0  0  0
   28.8135  -20.3483   -6.3058 N   0  0  0  0  0  0  0  0  0  0  0  0
   29.2905  -21.3996   -5.4505 C   0  0  0  0  0  0  0  0  0  0  0  0
   28.4534  -21.2675   -4.2073 C   0  0  0  0  0  0  0  0  0  0  0  0
   27.9499  -19.8398   -4.1967 C   0  0  0  0  0  0  0  0  0  0  0  0
   28.5278  -19.2182   -5.4442 C   0  0  1  0  0  0  0  0  0  0  0  0
   29.7797  -18.4944   -5.0632 C   0  0  0  0  0  0  0  0  0  0  0  0
   29.7397  -17.3422   -4.2994 O   0  0  0  0  0  0  0  0  0  0  0  0
   30.8592  -18.9568   -5.4498 O   0  0  0  0  0  0  0  0  0  0  0  0
  1  2  1  0
  3  4  1  6
  3  2  1  0
  5  3  1  0
  5  6  1  1
  7  8  2  0
  7  5  1  0
  9  7  1  0
 10  9  1  0
 11 10  1  0
 12 11  1  0
 12 13  1  0
 13 14  1  1
 13  9  1  0
 14 15  2  0
 16 17  1  0
 16 14  1  0
 18 17  1  0
 19 20  1  0
 19 18  1  0
 20 16  1  0
 20 21  1  1
 21 22  1  0
 23 21  2  0
M  END
$$$$
