IPP.pdb
     RDKit          3D

 23 24  0  0  1  0  0  0  0  0999 V2000
   20.1147  -16.2249  -17.3376 C   0  0  0  0  0  0  0  0  0  0  0  0
   21.4682  -16.6228  -17.8685 C   0  0  0  0  0  0  0  0  0  0  0  0
   22.2731  -17.4570  -16.9143 C   0  0  2  0  0  0  0  0  0  0  0  0
   22.5325  -16.5676  -15.6943 C   0  0  0  0  0  0  0  0  0  0  0  0
   23.6116  -17.9354  -17.4674 C   0  0  2  0  0  0  0  0  0  0  0  0
   23.1696  -18.7565  -18.6553 N   0  0  0  0  0  0  0  0  0  0  0  0
   24.3635  -18.8036  -16.5645 C   0  0  0  0  0  0  0  0  0  0  0  0
   24.0224  -20.0442  -16.5367 O   0  0  0  0  0  0  0  0  0  0  0  0
   25.4342  -18.4713  -15.7037 N   0  0  0  0  0  0  0  0  0  0  0  0
   25.9789  -17.1673  -15.4790 C   0  0  0  0  0  0  0  0  0  0  0  0
   27.4571  -17.3681  -15.3174 C   0  0  0  0  0  0  0  0  0  0  0  0
   27.6104  -18.8314  -15.0254 C   0  0  0  0  0  0  0  0  0  0  0  0
   26.2169  -19.3695  -14.8356 C   0  0  1  0  0  0  0  0  0  0  0  0
   25.7118  -19.3233  -13.4730 C   0  0  0  0  0  0  0  0  0  0  0  0
   24.9934  -18.3238  -13.1433 O   0  0  0  0  0  0  0  0  0  0  0  0
   25.9265  -20.2744  -12.4446 N   0  0  0  0  0  0  0  0  0  0  0  0
   26.8884  -21.3405  -12.4940 C   0  0  0  0  0  0  0  0  0  0  0  0
   26.1979  -22.4878  -11.8081 C   0  0  0  0  0  0  0  0  0  0  0  0
   25.1320  -21.8656  -10.9315 C   0  0  0  0  0  0  0  0  0  0  0  0
   25.2647  -20.3799  -11.1593 C   0  0  1  0  0  0  0  0  0  0  0  0
   26.1124  -19.8177  -10.0632 C   0  0  0  0  0  0  0  0  0  0  0  0
   25.5913  -19.5708   -8.8062 O   0  0  0  0  0  0  0  0  0  0  0  0
   27.3001  -19.5792  -10.3108 O   0  0  0  0  0  0  0  0  0  0  0  0
  1  2  1  0
  3  4  1  1
  3  2  1  0
  5  3  1  0
  5  6  1  6
  7  8  2  0
  7  5  1  0
  9  7  1  0
 10  9  1  0
 11 10  1  0
 12 11  1  0
 12 13  1  0
 13 14  1  1
 13  9  1  0
 14 15  2  0
 16 17  1  0
 16 14  1  0
 18 17  1  0
 19 20  1  0
 19 18  1  0
 20 16  1  0
 20 21  1  1
 21 22  1  0
 23 21  2  0
M  END
$$$$
