IPP.pdb
     RDKit          3D

 23 24  0  0  1  0  0  0  0  0999 V2000
   22.9296  -19.6072  -13.4347 C   0  0  0  0  0  0  0  0  0  0  0  0
   24.1274  -20.5215  -13.3960 C   0  0  0  0  0  0  0  0  0  0  0  0
   24.7381  -20.6644  -12.0319 C   0  0  2  0  0  0  0  0  0  0  0  0
   25.2635  -19.2746  -11.6590 C   0  0  0  0  0  0  0  0  0  0  0  0
   25.8895  -21.6618  -11.9564 C   0  0  2  0  0  0  0  0  0  0  0  0
   25.2003  -22.9467  -12.3500 N   0  0  0  0  0  0  0  0  0  0  0  0
   26.4530  -21.8351  -10.6197 C   0  0  0  0  0  0  0  0  0  0  0  0
   25.7300  -22.4688   -9.7643 O   0  0  0  0  0  0  0  0  0  0  0  0
   27.7031  -21.4014  -10.1227 N   0  0  0  0  0  0  0  0  0  0  0  0
   28.6638  -20.5935  -10.8095 C   0  0  0  0  0  0  0  0  0  0  0  0
   30.0064  -21.1209  -10.3962 C   0  0  0  0  0  0  0  0  0  0  0  0
   29.7336  -21.9193   -9.1560 C   0  0  0  0  0  0  0  0  0  0  0  0
   28.2946  -21.6584   -8.7971 C   0  0  1  0  0  0  0  0  0  0  0  0
   28.0687  -20.5259   -7.9139 C   0  0  0  0  0  0  0  0  0  0  0  0
   27.5206  -19.4889   -8.4120 O   0  0  0  0  0  0  0  0  0  0  0  0
   28.3912  -20.4325   -6.5371 N   0  0  0  0  0  0  0  0  0  0  0  0
   29.1294  -21.4158   -5.7938 C   0  0  0  0  0  0  0  0  0  0  0  0
   28.4700  -21.4227   -4.4415 C   0  0  0  0  0  0  0  0  0  0  0  0
   27.7776  -20.0828   -4.3114 C   0  0  0  0  0  0  0  0  0  0  0  0
   28.0765  -19.3673   -5.6058 C   0  0  1  0  0  0  0  0  0  0  0  0
   29.2558  -18.4760   -5.3801 C   0  0  0  0  0  0  0  0  0  0  0  0
   29.2431  -17.5016   -4.3988 O   0  0  0  0  0  0  0  0  0  0  0  0
   30.2504  -18.6349   -6.0972 O   0  0  0  0  0  0  0  0  0  0  0  0
  1  2  1  0
  3  4  1  6
  3  2  1  0
  5  3  1  0
  5  6  1  1
  7  8  2  0
  7  5  1  0
  9  7  1  0
 10  9  1  0
 11 10  1  0
 12 11  1  0
 12 13  1  0
 13 14  1  1
 13  9  1  0
 14 15  2  0
 16 17  1  0
 16 14  1  0
 18 17  1  0
 19 20  1  0
 19 18  1  0
 20 16  1  0
 20 21  1  1
 21 22  1  0
 23 21  2  0
M  END
$$$$
