IPP.pdb
     RDKit          3D

 23 24  0  0  1  0  0  0  0  0999 V2000
   24.6801  -18.9792  -14.0076 C   0  0  0  0  0  0  0  0  0  0  0  0
   25.4521  -20.2382  -13.7059 C   0  0  0  0  0  0  0  0  0  0  0  0
   25.9345  -20.3290  -12.2871 C   0  0  2  0  0  0  0  0  0  0  0  0
   26.8879  -19.1462  -12.0908 C   0  0  0  0  0  0  0  0  0  0  0  0
   26.6765  -21.6191  -11.9533 C   0  0  2  0  0  0  0  0  0  0  0  0
   25.6256  -22.6588  -12.2626 N   0  0  0  0  0  0  0  0  0  0  0  0
   27.0544  -21.7535  -10.5485 C   0  0  0  0  0  0  0  0  0  0  0  0
   26.1427  -22.1692   -9.7410 O   0  0  0  0  0  0  0  0  0  0  0  0
   28.3018  -21.4907   -9.9380 N   0  0  0  0  0  0  0  0  0  0  0  0
   29.4412  -20.8768  -10.5483 C   0  0  0  0  0  0  0  0  0  0  0  0
   30.6361  -21.5811   -9.9759 C   0  0  0  0  0  0  0  0  0  0  0  0
   30.1193  -22.2616   -8.7431 C   0  0  0  0  0  0  0  0  0  0  0  0
   28.7111  -21.7649   -8.5487 C   0  0  1  0  0  0  0  0  0  0  0  0
   28.5804  -20.5660   -7.7366 C   0  0  0  0  0  0  0  0  0  0  0  0
   28.3137  -19.4733   -8.3357 O   0  0  0  0  0  0  0  0  0  0  0  0
   28.7170  -20.4623   -6.3299 N   0  0  0  0  0  0  0  0  0  0  0  0
   29.1174  -21.5320   -5.4584 C   0  0  0  0  0  0  0  0  0  0  0  0
   28.2866  -21.3259   -4.2211 C   0  0  0  0  0  0  0  0  0  0  0  0
   27.8822  -19.8671   -4.2319 C   0  0  0  0  0  0  0  0  0  0  0  0
   28.5061  -19.3035   -5.4848 C   0  0  1  0  0  0  0  0  0  0  0  0
   29.8032  -18.6621   -5.1076 C   0  0  0  0  0  0  0  0  0  0  0  0
   29.8416  -17.4157   -4.5098 O   0  0  0  0  0  0  0  0  0  0  0  0
   30.8477  -19.2799   -5.3439 O   0  0  0  0  0  0  0  0  0  0  0  0
  1  2  1  0
  3  4  1  6
  3  2  1  0
  5  3  1  0
  5  6  1  1
  7  8  2  0
  7  5  1  0
  9  7  1  0
 10  9  1  0
 11 10  1  0
 12 11  1  0
 12 13  1  0
 13 14  1  1
 13  9  1  0
 14 15  2  0
 16 17  1  0
 16 14  1  0
 18 17  1  0
 19 20  1  0
 19 18  1  0
 20 16  1  0
 20 21  1  1
 21 22  1  0
 23 21  2  0
M  END
$$$$
