EIM.pdb
     RDKit          3D

 26 25  0  0  1  0  0  0  0  0999 V2000
   28.3626  -21.6273  -15.7044 N   0  0  0  0  0  0  0  0  0  0  0  0
   27.5807  -20.5447  -15.1090 C   0  0  1  0  0  0  0  0  0  0  0  0
   27.0802  -19.7004  -16.2274 C   0  0  0  0  0  0  0  0  0  0  0  0
   28.1046  -18.9415  -16.9968 C   0  0  0  0  0  0  0  0  0  0  0  0
   27.5496  -18.1637  -18.1230 C   0  0  0  0  0  0  0  0  0  0  0  0
   26.3327  -18.2045  -18.3927 O   0  0  0  0  0  0  0  0  0  0  0  0
   26.5205  -21.0919  -14.2240 C   0  0  0  0  0  0  0  0  0  0  0  0
   25.9428  -22.1835  -14.4391 O   0  0  0  0  0  0  0  0  0  0  0  0
   28.3562  -17.3660  -18.9148 O   0  0  0  0  0  0  0  0  0  0  0  0
   26.9655  -20.9361   -8.8701 C   0  0  0  0  0  0  0  0  0  0  0  0
   26.6185  -21.3585  -10.2789 C   0  0  0  0  0  0  0  0  0  0  0  0
   25.3824  -20.6440  -10.7211 C   0  0  2  0  0  0  0  0  0  0  0  0
   24.2013  -21.1273   -9.9092 C   0  0  0  0  0  0  0  0  0  0  0  0
   25.0606  -20.9137  -12.1724 C   0  0  2  0  0  0  0  0  0  0  0  0
   26.0879  -20.3872  -13.0480 N   0  0  0  0  0  0  0  0  0  0  0  0
   23.7501  -20.3142  -12.5857 C   0  0  0  0  0  0  0  0  0  0  0  0
   23.5209  -19.0897  -12.4024 O   0  0  0  0  0  0  0  0  0  0  0  0
   20.9202  -22.0214  -18.0721 C   0  0  0  0  0  0  0  0  0  0  0  0
   19.4139  -21.7449  -17.1195 S   0  0  0  0  0  0  0  0  0  0  0  0
   19.7788  -20.7729  -15.5906 C   0  0  0  0  0  0  0  0  0  0  0  0
   21.0596  -21.3033  -14.9996 C   0  0  0  0  0  0  0  0  0  0  0  0
   21.4825  -20.6242  -13.7232 C   0  0  2  0  0  0  0  0  0  0  0  0
   22.7308  -21.0604  -13.1847 N   0  0  0  0  0  0  0  0  0  0  0  0
   20.4700  -20.9085  -12.7073 C   0  0  0  0  0  0  0  0  0  0  0  0
   20.5470  -21.9641  -12.0378 O   0  0  0  0  0  0  0  0  0  0  0  0
   19.4309  -20.0450  -12.4657 O   0  0  0  0  0  0  0  0  0  0  0  0
  2  1  1  6
  3  2  1  0
  4  3  1  0
  5  6  2  0
  5  4  1  0
  7  2  1  0
  7  8  2  0
  9  5  1  0
 10 11  1  0
 11 12  1  0
 12 14  1  0
 12 13  1  1
 14 15  1  6
 15  7  1  0
 16 14  1  0
 17 16  2  0
 19 18  1  0
 19 20  1  0
 20 21  1  0
 22 21  1  6
 22 24  1  0
 22 23  1  0
 23 16  1  0
 24 26  1  0
 25 24  2  0
M  END
$$$$
