EIM.pdb
     RDKit          3D

 26 25  0  0  1  0  0  0  0  0999 V2000
   26.7842  -18.4967  -16.1718 N   0  0  0  0  0  0  0  0  0  0  0  0
   27.0178  -19.5535  -15.1887 C   0  0  1  0  0  0  0  0  0  0  0  0
   28.4595  -19.5007  -14.8242 C   0  0  0  0  0  0  0  0  0  0  0  0
   29.4238  -19.9673  -15.8585 C   0  0  0  0  0  0  0  0  0  0  0  0
   29.0184  -21.2183  -16.5309 C   0  0  0  0  0  0  0  0  0  0  0  0
   28.6539  -21.2164  -17.7236 O   0  0  0  0  0  0  0  0  0  0  0  0
   26.0839  -19.4154  -14.0418 C   0  0  0  0  0  0  0  0  0  0  0  0
   25.7979  -18.3127  -13.5185 O   0  0  0  0  0  0  0  0  0  0  0  0
   29.0285  -22.4307  -15.8647 O   0  0  0  0  0  0  0  0  0  0  0  0
   22.2463  -18.8844  -13.4542 C   0  0  0  0  0  0  0  0  0  0  0  0
   22.5187  -20.3190  -13.8428 C   0  0  0  0  0  0  0  0  0  0  0  0
   23.1656  -21.0293  -12.6978 C   0  0  2  0  0  0  0  0  0  0  0  0
   22.2963  -20.9004  -11.4668 C   0  0  0  0  0  0  0  0  0  0  0  0
   24.5118  -20.4373  -12.3516 C   0  0  2  0  0  0  0  0  0  0  0  0
   25.4427  -20.5606  -13.4550 N   0  0  0  0  0  0  0  0  0  0  0  0
   25.1292  -21.0906  -11.1517 C   0  0  0  0  0  0  0  0  0  0  0  0
   25.2513  -22.3426  -11.0972 O   0  0  0  0  0  0  0  0  0  0  0  0
   29.8696  -18.8900   -6.9456 C   0  0  0  0  0  0  0  0  0  0  0  0
   28.4192  -19.0804   -5.8907 S   0  0  0  0  0  0  0  0  0  0  0  0
   27.2452  -20.3118   -6.6126 C   0  0  0  0  0  0  0  0  0  0  0  0
   26.9628  -19.9030   -8.0353 C   0  0  0  0  0  0  0  0  0  0  0  0
   26.0420  -20.8356   -8.7782 C   0  0  2  0  0  0  0  0  0  0  0  0
   25.5949  -20.3663  -10.0503 N   0  0  0  0  0  0  0  0  0  0  0  0
   24.8442  -21.0275   -7.9618 C   0  0  0  0  0  0  0  0  0  0  0  0
   24.8931  -21.7799   -6.9618 O   0  0  0  0  0  0  0  0  0  0  0  0
   23.6602  -20.4020   -8.2631 O   0  0  0  0  0  0  0  0  0  0  0  0
  2  1  1  6
  3  2  1  0
  4  3  1  0
  5  6  2  0
  5  4  1  0
  7  2  1  0
  7  8  2  0
  9  5  1  0
 10 11  1  0
 11 12  1  0
 12 14  1  0
 12 13  1  1
 14 15  1  6
 15  7  1  0
 16 14  1  0
 17 16  2  0
 19 18  1  0
 19 20  1  0
 20 21  1  0
 22 21  1  1
 22 24  1  0
 22 23  1  0
 23 16  1  0
 24 26  1  0
 25 24  2  0
M  END
$$$$
