EIM.pdb
     RDKit          3D

 26 25  0  0  1  0  0  0  0  0999 V2000
   26.2376  -21.2486  -11.7300 N   0  0  0  0  0  0  0  0  0  0  0  0
   25.5455  -20.6633  -10.5828 C   0  0  1  0  0  0  0  0  0  0  0  0
   24.1115  -21.0442  -10.6963 C   0  0  0  0  0  0  0  0  0  0  0  0
   23.4336  -20.7055  -11.9780 C   0  0  0  0  0  0  0  0  0  0  0  0
   22.6233  -19.4722  -11.9166 C   0  0  0  0  0  0  0  0  0  0  0  0
   21.5725  -19.4278  -11.2463 O   0  0  0  0  0  0  0  0  0  0  0  0
   26.1971  -21.0765   -9.3134 C   0  0  0  0  0  0  0  0  0  0  0  0
   26.2758  -22.2705   -8.9392 O   0  0  0  0  0  0  0  0  0  0  0  0
   22.9993  -18.3280  -12.5972 O   0  0  0  0  0  0  0  0  0  0  0  0
   30.2051  -18.8625   -5.1485 C   0  0  0  0  0  0  0  0  0  0  0  0
   29.2349  -19.9446   -5.5625 C   0  0  0  0  0  0  0  0  0  0  0  0
   28.4631  -19.4882   -6.7584 C   0  0  2  0  0  0  0  0  0  0  0  0
   27.7211  -18.2131   -6.4248 C   0  0  0  0  0  0  0  0  0  0  0  0
   27.4279  -20.5025   -7.1855 C   0  0  2  0  0  0  0  0  0  0  0  0
   26.7857  -20.1122   -8.4243 N   0  0  0  0  0  0  0  0  0  0  0  0
   26.3589  -20.6944   -6.1520 C   0  0  0  0  0  0  0  0  0  0  0  0
   25.2675  -20.0725   -6.2378 O   0  0  0  0  0  0  0  0  0  0  0  0
   22.6830  -25.9894   -1.6971 C   0  0  0  0  0  0  0  0  0  0  0  0
   23.8662  -25.5034   -2.9687 S   0  0  0  0  0  0  0  0  0  0  0  0
   24.2432  -23.6979   -2.8523 C   0  0  0  0  0  0  0  0  0  0  0  0
   25.2353  -23.3615   -3.9356 C   0  0  0  0  0  0  0  0  0  0  0  0
   25.5684  -21.8960   -4.0394 C   0  0  2  0  0  0  0  0  0  0  0  0
   26.5068  -21.5544   -5.0596 N   0  0  0  0  0  0  0  0  0  0  0  0
   26.1648  -21.4808   -2.7706 C   0  0  0  0  0  0  0  0  0  0  0  0
   27.3682  -21.7406   -2.5402 O   0  0  0  0  0  0  0  0  0  0  0  0
   25.4379  -20.8102   -1.8190 O   0  0  0  0  0  0  0  0  0  0  0  0
  2  1  1  6
  3  2  1  0
  4  3  1  0
  5  6  2  0
  5  4  1  0
  7  2  1  0
  7  8  2  0
  9  5  1  0
 10 11  1  0
 11 12  1  0
 12 14  1  0
 12 13  1  1
 14 15  1  6
 15  7  1  0
 16 14  1  0
 17 16  2  0
 19 18  1  0
 19 20  1  0
 20 21  1  0
 22 21  1  1
 22 24  1  0
 22 23  1  0
 23 16  1  0
 24 26  1  0
 25 24  2  0
M  END
$$$$
