EIM.pdb
     RDKit          3D

 26 25  0  0  1  0  0  0  0  0999 V2000
   16.0731  -10.5084  -16.1428 N   0  0  0  0  0  0  0  0  0  0  0  0
   17.1992   -9.9086  -16.8569 C   0  0  1  0  0  0  0  0  0  0  0  0
   16.6338   -8.9161  -17.8104 C   0  0  0  0  0  0  0  0  0  0  0  0
   16.0077   -9.4634  -19.0456 C   0  0  0  0  0  0  0  0  0  0  0  0
   16.9369  -10.2388  -19.8922 C   0  0  0  0  0  0  0  0  0  0  0  0
   17.9289   -9.6966  -20.4190 O   0  0  0  0  0  0  0  0  0  0  0  0
   18.1885   -9.3523  -15.8985 C   0  0  0  0  0  0  0  0  0  0  0  0
   17.8786   -8.9321  -14.7587 O   0  0  0  0  0  0  0  0  0  0  0  0
   16.7409  -11.5875  -20.1297 O   0  0  0  0  0  0  0  0  0  0  0  0
   23.5254  -10.5775  -13.6358 C   0  0  0  0  0  0  0  0  0  0  0  0
   22.6074   -9.4270  -13.9781 C   0  0  0  0  0  0  0  0  0  0  0  0
   21.5551   -9.8978  -14.9295 C   0  0  2  0  0  0  0  0  0  0  0  0
   22.2031  -10.3333  -16.2250 C   0  0  0  0  0  0  0  0  0  0  0  0
   20.5720   -8.8035  -15.2737 C   0  0  2  0  0  0  0  0  0  0  0  0
   19.5845   -9.2621  -16.2297 N   0  0  0  0  0  0  0  0  0  0  0  0
   21.2452   -7.5941  -15.8497 C   0  0  0  0  0  0  0  0  0  0  0  0
   21.9410   -7.6866  -16.8950 O   0  0  0  0  0  0  0  0  0  0  0  0
   20.2455   -0.6073  -18.7526 C   0  0  0  0  0  0  0  0  0  0  0  0
   19.7249   -2.2040  -18.0951 S   0  0  0  0  0  0  0  0  0  0  0  0
   21.0604   -2.9481  -17.0567 C   0  0  0  0  0  0  0  0  0  0  0  0
   20.6136   -4.3279  -16.6471 C   0  0  0  0  0  0  0  0  0  0  0  0
   21.5937   -5.0634  -15.7710 C   0  0  2  0  0  0  0  0  0  0  0  0
   21.1422   -6.3238  -15.2750 N   0  0  0  0  0  0  0  0  0  0  0  0
   21.8631   -4.2290  -14.6009 C   0  0  0  0  0  0  0  0  0  0  0  0
   21.2379   -4.4390  -13.5361 O   0  0  0  0  0  0  0  0  0  0  0  0
   22.7878   -3.2155  -14.6373 O   0  0  0  0  0  0  0  0  0  0  0  0
  2  1  1  1
  3  2  1  0
  4  3  1  0
  5  6  2  0
  5  4  1  0
  7  2  1  0
  7  8  2  0
  9  5  1  0
 10 11  1  0
 11 12  1  0
 12 14  1  0
 12 13  1  6
 14 15  1  6
 15  7  1  0
 16 14  1  0
 17 16  2  0
 19 18  1  0
 19 20  1  0
 20 21  1  0
 22 21  1  6
 22 24  1  0
 22 23  1  0
 23 16  1  0
 24 26  1  0
 25 24  2  0
M  END
$$$$
