EIM.pdb
     RDKit          3D

 26 25  0  0  1  0  0  0  0  0999 V2000
   22.2488  -21.0506  -15.6637 N   0  0  0  0  0  0  0  0  0  0  0  0
   22.8274  -20.1358  -14.6808 C   0  0  1  0  0  0  0  0  0  0  0  0
   21.7617  -19.8285  -13.6888 C   0  0  0  0  0  0  0  0  0  0  0  0
   20.6253  -18.9960  -14.1711 C   0  0  0  0  0  0  0  0  0  0  0  0
   19.4076  -19.7716  -14.4824 C   0  0  0  0  0  0  0  0  0  0  0  0
   19.0008  -20.6638  -13.7117 O   0  0  0  0  0  0  0  0  0  0  0  0
   24.0675  -20.7106  -14.0991 C   0  0  0  0  0  0  0  0  0  0  0  0
   24.2387  -21.9406  -13.9269 O   0  0  0  0  0  0  0  0  0  0  0  0
   18.6785  -19.5371  -15.6345 O   0  0  0  0  0  0  0  0  0  0  0  0
   28.9077  -19.1078  -15.5521 C   0  0  0  0  0  0  0  0  0  0  0  0
   27.7132  -19.8965  -15.0679 C   0  0  0  0  0  0  0  0  0  0  0  0
   27.6033  -19.7694  -13.5827 C   0  0  2  0  0  0  0  0  0  0  0  0
   28.7708  -20.4732  -12.9273 C   0  0  0  0  0  0  0  0  0  0  0  0
   26.3445  -20.4133  -13.0505 C   0  0  2  0  0  0  0  0  0  0  0  0
   25.1630  -19.8733  -13.6922 N   0  0  0  0  0  0  0  0  0  0  0  0
   26.1918  -20.2272  -11.5707 C   0  0  0  0  0  0  0  0  0  0  0  0
   25.7713  -19.1362  -11.1035 O   0  0  0  0  0  0  0  0  0  0  0  0
   29.6941  -19.2525   -6.6388 C   0  0  0  0  0  0  0  0  0  0  0  0
   27.9704  -18.8794   -6.2615 S   0  0  0  0  0  0  0  0  0  0  0  0
   26.8510  -20.1491   -7.0034 C   0  0  0  0  0  0  0  0  0  0  0  0
   27.1845  -20.2604   -8.4688 C   0  0  0  0  0  0  0  0  0  0  0  0
   26.3277  -21.2396   -9.2280 C   0  0  2  0  0  0  0  0  0  0  0  0
   26.4990  -21.2291  -10.6454 N   0  0  0  0  0  0  0  0  0  0  0  0
   24.9280  -20.8998   -8.9764 C   0  0  0  0  0  0  0  0  0  0  0  0
   24.3140  -20.1714   -9.7895 O   0  0  0  0  0  0  0  0  0  0  0  0
   24.2641  -21.3597   -7.8666 O   0  0  0  0  0  0  0  0  0  0  0  0
  2  1  1  6
  3  2  1  0
  4  3  1  0
  5  6  2  0
  5  4  1  0
  7  2  1  0
  7  8  2  0
  9  5  1  0
 10 11  1  0
 11 12  1  0
 12 14  1  0
 12 13  1  1
 14 15  1  6
 15  7  1  0
 16 14  1  0
 17 16  2  0
 19 18  1  0
 19 20  1  0
 20 21  1  0
 22 21  1  1
 22 24  1  0
 22 23  1  0
 23 16  1  0
 24 26  1  0
 25 24  2  0
M  END
$$$$
