EIM.pdb
     RDKit          3D

 26 25  0  0  1  0  0  0  0  0999 V2000
   26.7859  -19.2343  -16.6453 N   0  0  0  0  0  0  0  0  0  0  0  0
   27.1563  -20.0409  -15.4834 C   0  0  1  0  0  0  0  0  0  0  0  0
   28.6125  -19.8368  -15.2555 C   0  0  0  0  0  0  0  0  0  0  0  0
   29.5330  -20.4437  -16.2562 C   0  0  0  0  0  0  0  0  0  0  0  0
   29.0827  -21.7562  -16.7621 C   0  0  0  0  0  0  0  0  0  0  0  0
   28.6896  -21.8899  -17.9382 O   0  0  0  0  0  0  0  0  0  0  0  0
   26.2949  -19.7072  -14.3201 C   0  0  0  0  0  0  0  0  0  0  0  0
   26.1507  -18.5401  -13.8853 O   0  0  0  0  0  0  0  0  0  0  0  0
   29.0809  -22.8785  -15.9533 O   0  0  0  0  0  0  0  0  0  0  0  0
   21.2978  -20.5688  -14.3409 C   0  0  0  0  0  0  0  0  0  0  0  0
   22.6903  -20.0695  -14.0327 C   0  0  0  0  0  0  0  0  0  0  0  0
   23.2388  -20.8196  -12.8619 C   0  0  2  0  0  0  0  0  0  0  0  0
   22.3969  -20.5330  -11.6385 C   0  0  0  0  0  0  0  0  0  0  0  0
   24.6527  -20.4011  -12.5329 C   0  0  2  0  0  0  0  0  0  0  0  0
   25.5637  -20.7228  -13.6126 N   0  0  0  0  0  0  0  0  0  0  0  0
   25.1648  -21.0572  -11.2859 C   0  0  0  0  0  0  0  0  0  0  0  0
   25.3436  -22.3030  -11.2460 O   0  0  0  0  0  0  0  0  0  0  0  0
   28.6919  -17.9798   -6.8923 C   0  0  0  0  0  0  0  0  0  0  0  0
   27.8626  -19.0524   -5.7029 S   0  0  0  0  0  0  0  0  0  0  0  0
   26.8716  -20.3472   -6.5731 C   0  0  0  0  0  0  0  0  0  0  0  0
   26.6243  -19.8718   -7.9816 C   0  0  0  0  0  0  0  0  0  0  0  0
   25.8201  -20.8251   -8.8265 C   0  0  2  0  0  0  0  0  0  0  0  0
   25.4673  -20.3425  -10.1231 N   0  0  0  0  0  0  0  0  0  0  0  0
   24.5642  -21.0938   -8.1275 C   0  0  0  0  0  0  0  0  0  0  0  0
   23.5408  -20.4346   -8.4221 O   0  0  0  0  0  0  0  0  0  0  0  0
   24.4753  -22.0543   -7.1512 O   0  0  0  0  0  0  0  0  0  0  0  0
  2  1  1  6
  3  2  1  0
  4  3  1  0
  5  6  2  0
  5  4  1  0
  7  2  1  0
  7  8  2  0
  9  5  1  0
 10 11  1  0
 11 12  1  0
 12 14  1  0
 12 13  1  1
 14 15  1  6
 15  7  1  0
 16 14  1  0
 17 16  2  0
 19 18  1  0
 19 20  1  0
 20 21  1  0
 22 21  1  1
 22 24  1  0
 22 23  1  0
 23 16  1  0
 24 26  1  0
 25 24  2  0
M  END
$$$$
