EIM.pdb
     RDKit          3D

 26 25  0  0  1  0  0  0  0  0999 V2000
   21.0707  -20.5367  -10.2919 N   0  0  0  0  0  0  0  0  0  0  0  0
   21.4065  -20.9831  -11.6432 C   0  0  1  0  0  0  0  0  0  0  0  0
   20.1909  -20.7953  -12.4805 C   0  0  0  0  0  0  0  0  0  0  0  0
   19.0243  -21.6642  -12.1623 C   0  0  0  0  0  0  0  0  0  0  0  0
   19.2268  -23.0854  -12.5095 C   0  0  0  0  0  0  0  0  0  0  0  0
   20.2962  -23.4752  -13.0191 O   0  0  0  0  0  0  0  0  0  0  0  0
   22.6158  -20.2781  -12.1405 C   0  0  0  0  0  0  0  0  0  0  0  0
   22.7763  -19.0386  -12.0431 O   0  0  0  0  0  0  0  0  0  0  0  0
   18.2420  -24.0302  -12.2827 O   0  0  0  0  0  0  0  0  0  0  0  0
   27.3548  -21.6503  -10.5725 C   0  0  0  0  0  0  0  0  0  0  0  0
   26.1229  -20.9530  -11.1012 C   0  0  0  0  0  0  0  0  0  0  0  0
   26.1300  -20.9976  -12.5952 C   0  0  2  0  0  0  0  0  0  0  0  0
   27.3402  -20.2556  -13.1174 C   0  0  0  0  0  0  0  0  0  0  0  0
   24.9121  -20.3283  -13.1878 C   0  0  2  0  0  0  0  0  0  0  0  0
   23.6916  -20.9906  -12.7743 N   0  0  0  0  0  0  0  0  0  0  0  0
   24.9438  -20.3130  -14.6867 C   0  0  0  0  0  0  0  0  0  0  0  0
   24.7443  -21.3699  -15.3414 O   0  0  0  0  0  0  0  0  0  0  0  0
   23.0818  -15.7353  -20.8560 C   0  0  0  0  0  0  0  0  0  0  0  0
   23.2827  -15.9983  -19.0830 S   0  0  0  0  0  0  0  0  0  0  0  0
   24.2784  -17.5212  -18.7586 C   0  0  0  0  0  0  0  0  0  0  0  0
   24.3240  -17.7353  -17.2676 C   0  0  0  0  0  0  0  0  0  0  0  0
   25.1146  -18.9434  -16.8377 C   0  0  2  0  0  0  0  0  0  0  0  0
   25.1899  -19.1531  -15.4275 N   0  0  0  0  0  0  0  0  0  0  0  0
   26.4890  -18.7696  -17.3057 C   0  0  0  0  0  0  0  0  0  0  0  0
   27.3095  -18.1473  -16.5928 O   0  0  0  0  0  0  0  0  0  0  0  0
   26.9074  -19.2727  -18.5121 O   0  0  0  0  0  0  0  0  0  0  0  0
  2  1  1  1
  3  2  1  0
  4  3  1  0
  5  6  2  0
  5  4  1  0
  7  2  1  0
  7  8  2  0
  9  5  1  0
 10 11  1  0
 11 12  1  0
 12 14  1  0
 12 13  1  6
 14 15  1  6
 15  7  1  0
 16 14  1  0
 17 16  2  0
 19 18  1  0
 19 20  1  0
 20 21  1  0
 22 21  1  1
 22 24  1  0
 22 23  1  0
 23 16  1  0
 24 26  1  0
 25 24  2  0
M  END
$$$$
