EIM.pdb
     RDKit          3D

 26 25  0  0  1  0  0  0  0  0999 V2000
   27.9383  -19.5118  -16.9939 N   0  0  0  0  0  0  0  0  0  0  0  0
   27.5035  -20.5879  -16.1046 C   0  0  1  0  0  0  0  0  0  0  0  0
   28.7290  -21.2891  -15.6349 C   0  0  0  0  0  0  0  0  0  0  0  0
   29.3013  -22.3131  -16.5519 C   0  0  0  0  0  0  0  0  0  0  0  0
   28.4101  -23.4669  -16.7882 C   0  0  0  0  0  0  0  0  0  0  0  0
   27.2925  -23.5372  -16.2393 O   0  0  0  0  0  0  0  0  0  0  0  0
   26.6423  -20.0524  -15.0192 C   0  0  0  0  0  0  0  0  0  0  0  0
   26.7629  -18.8937  -14.5558 O   0  0  0  0  0  0  0  0  0  0  0  0
   28.7817  -24.5057  -17.6228 O   0  0  0  0  0  0  0  0  0  0  0  0
   21.5304  -19.6996  -15.3878 C   0  0  0  0  0  0  0  0  0  0  0  0
   22.9793  -19.5336  -14.9922 C   0  0  0  0  0  0  0  0  0  0  0  0
   23.2756  -20.4061  -13.8154 C   0  0  2  0  0  0  0  0  0  0  0  0
   22.4489  -19.9560  -12.6314 C   0  0  0  0  0  0  0  0  0  0  0  0
   24.7255  -20.3224  -13.3988 C   0  0  2  0  0  0  0  0  0  0  0  0
   25.6015  -20.8476  -14.4264 N   0  0  0  0  0  0  0  0  0  0  0  0
   24.9978  -21.0753  -12.1312 C   0  0  0  0  0  0  0  0  0  0  0  0
   24.4559  -22.1925  -11.9220 O   0  0  0  0  0  0  0  0  0  0  0  0
   29.5981  -19.4190   -7.1575 C   0  0  0  0  0  0  0  0  0  0  0  0
   27.9053  -19.2325   -6.5637 S   0  0  0  0  0  0  0  0  0  0  0  0
   26.7766  -20.4112   -7.4312 C   0  0  0  0  0  0  0  0  0  0  0  0
   26.7417  -20.0304   -8.8889 C   0  0  0  0  0  0  0  0  0  0  0  0
   25.9269  -20.9568   -9.7533 C   0  0  2  0  0  0  0  0  0  0  0  0
   25.8486  -20.5938  -11.1319 N   0  0  0  0  0  0  0  0  0  0  0  0
   24.5559  -20.9545   -9.2448 C   0  0  0  0  0  0  0  0  0  0  0  0
   23.7383  -20.1107   -9.6785 O   0  0  0  0  0  0  0  0  0  0  0  0
   24.1376  -21.8571   -8.2993 O   0  0  0  0  0  0  0  0  0  0  0  0
  2  1  1  6
  3  2  1  0
  4  3  1  0
  5  6  2  0
  5  4  1  0
  7  2  1  0
  7  8  2  0
  9  5  1  0
 10 11  1  0
 11 12  1  0
 12 14  1  0
 12 13  1  1
 14 15  1  6
 15  7  1  0
 16 14  1  0
 17 16  2  0
 19 18  1  0
 19 20  1  0
 20 21  1  0
 22 21  1  1
 22 24  1  0
 22 23  1  0
 23 16  1  0
 24 26  1  0
 25 24  2  0
M  END
$$$$
