EIM.pdb
     RDKit          3D

 26 25  0  0  1  0  0  0  0  0999 V2000
   16.6347  -13.6103  -18.2428 N   0  0  0  0  0  0  0  0  0  0  0  0
   16.4552  -12.7009  -17.1121 C   0  0  1  0  0  0  0  0  0  0  0  0
   16.7144  -13.4853  -15.8745 C   0  0  0  0  0  0  0  0  0  0  0  0
   15.7567  -14.5846  -15.5719 C   0  0  0  0  0  0  0  0  0  0  0  0
   16.1262  -15.3891  -14.3897 C   0  0  0  0  0  0  0  0  0  0  0  0
   15.3639  -15.4716  -13.4062 O   0  0  0  0  0  0  0  0  0  0  0  0
   17.3086  -11.4954  -17.2711 C   0  0  0  0  0  0  0  0  0  0  0  0
   18.2957  -11.4503  -18.0426 O   0  0  0  0  0  0  0  0  0  0  0  0
   17.3254  -16.0765  -14.3318 O   0  0  0  0  0  0  0  0  0  0  0  0
   14.8801   -6.9448  -17.4376 C   0  0  0  0  0  0  0  0  0  0  0  0
   16.1232   -7.7109  -17.8265 C   0  0  0  0  0  0  0  0  0  0  0  0
   17.0159   -7.8460  -16.6354 C   0  0  2  0  0  0  0  0  0  0  0  0
   17.9710   -6.6743  -16.5840 C   0  0  0  0  0  0  0  0  0  0  0  0
   17.8575   -9.0992  -16.6974 C   0  0  2  0  0  0  0  0  0  0  0  0
   17.0465  -10.2887  -16.5348 N   0  0  0  0  0  0  0  0  0  0  0  0
   18.9246   -9.1207  -15.6445 C   0  0  0  0  0  0  0  0  0  0  0  0
   18.6179   -9.1452  -14.4235 O   0  0  0  0  0  0  0  0  0  0  0  0
   26.7998  -10.3037  -14.6356 C   0  0  0  0  0  0  0  0  0  0  0  0
   25.3069  -10.3811  -15.6447 S   0  0  0  0  0  0  0  0  0  0  0  0
   23.8786   -9.6165  -14.7554 C   0  0  0  0  0  0  0  0  0  0  0  0
   22.6540   -9.7825  -15.6178 C   0  0  0  0  0  0  0  0  0  0  0  0
   21.4151   -9.1228  -15.0706 C   0  0  2  0  0  0  0  0  0  0  0  0
   20.2892   -9.1158  -15.9485 N   0  0  0  0  0  0  0  0  0  0  0  0
   21.7365   -7.7230  -14.7963 C   0  0  0  0  0  0  0  0  0  0  0  0
   21.7161   -6.8904  -15.7317 O   0  0  0  0  0  0  0  0  0  0  0  0
   22.0621   -7.2934  -13.5341 O   0  0  0  0  0  0  0  0  0  0  0  0
  2  1  1  6
  3  2  1  0
  4  3  1  0
  5  6  2  0
  5  4  1  0
  7  2  1  0
  7  8  2  0
  9  5  1  0
 10 11  1  0
 11 12  1  0
 12 14  1  0
 12 13  1  6
 14 15  1  1
 15  7  1  0
 16 14  1  0
 17 16  2  0
 19 18  1  0
 19 20  1  0
 20 21  1  0
 22 21  1  6
 22 24  1  0
 22 23  1  0
 23 16  1  0
 24 26  1  0
 25 24  2  0
M  END
$$$$
