EIM.pdb
     RDKit          3D

 26 25  0  0  1  0  0  0  0  0999 V2000
   27.4313  -19.8241  -17.4957 N   0  0  0  0  0  0  0  0  0  0  0  0
   27.4082  -20.7407  -16.3567 C   0  0  1  0  0  0  0  0  0  0  0  0
   28.8230  -21.0028  -15.9776 C   0  0  0  0  0  0  0  0  0  0  0  0
   29.6245  -21.8226  -16.9277 C   0  0  0  0  0  0  0  0  0  0  0  0
   28.9730  -23.0886  -17.3199 C   0  0  0  0  0  0  0  0  0  0  0  0
   28.5240  -23.8723  -16.4599 O   0  0  0  0  0  0  0  0  0  0  0  0
   26.5655  -20.1932  -15.2629 C   0  0  0  0  0  0  0  0  0  0  0  0
   26.6112  -18.9955  -14.8951 O   0  0  0  0  0  0  0  0  0  0  0  0
   28.8383  -23.4485  -18.6489 O   0  0  0  0  0  0  0  0  0  0  0  0
   21.4981  -19.9556  -15.4581 C   0  0  0  0  0  0  0  0  0  0  0  0
   22.9549  -19.7638  -15.1055 C   0  0  0  0  0  0  0  0  0  0  0  0
   23.2992  -20.6241  -13.9327 C   0  0  2  0  0  0  0  0  0  0  0  0
   22.4698  -20.2067  -12.7388 C   0  0  0  0  0  0  0  0  0  0  0  0
   24.7496  -20.4838  -13.5335 C   0  0  2  0  0  0  0  0  0  0  0  0
   25.6316  -21.0214  -14.5496 N   0  0  0  0  0  0  0  0  0  0  0  0
   25.0544  -21.1813  -12.2418 C   0  0  0  0  0  0  0  0  0  0  0  0
   24.8336  -22.4143  -12.1133 O   0  0  0  0  0  0  0  0  0  0  0  0
   29.3202  -19.6080   -7.1154 C   0  0  0  0  0  0  0  0  0  0  0  0
   27.6408  -19.3638   -6.5047 S   0  0  0  0  0  0  0  0  0  0  0  0
   26.4518  -20.4455   -7.4167 C   0  0  0  0  0  0  0  0  0  0  0  0
   26.5249  -20.0843   -8.8779 C   0  0  0  0  0  0  0  0  0  0  0  0
   25.6868  -20.9566   -9.7758 C   0  0  2  0  0  0  0  0  0  0  0  0
   25.5889  -20.5206  -11.1318 N   0  0  0  0  0  0  0  0  0  0  0  0
   24.3247  -20.9694   -9.2443 C   0  0  0  0  0  0  0  0  0  0  0  0
   23.5047  -20.1037   -9.6275 O   0  0  0  0  0  0  0  0  0  0  0  0
   23.9173  -21.9097   -8.3313 O   0  0  0  0  0  0  0  0  0  0  0  0
  2  1  1  6
  3  2  1  0
  4  3  1  0
  5  6  2  0
  5  4  1  0
  7  2  1  0
  7  8  2  0
  9  5  1  0
 10 11  1  0
 11 12  1  0
 12 14  1  0
 12 13  1  1
 14 15  1  6
 15  7  1  0
 16 14  1  0
 17 16  2  0
 19 18  1  0
 19 20  1  0
 20 21  1  0
 22 21  1  1
 22 24  1  0
 22 23  1  0
 23 16  1  0
 24 26  1  0
 25 24  2  0
M  END
$$$$
