EIM.pdb
     RDKit          3D

 26 25  0  0  1  0  0  0  0  0999 V2000
   27.6382  -22.5548  -16.0602 N   0  0  0  0  0  0  0  0  0  0  0  0
   26.8903  -21.3362  -15.7544 C   0  0  1  0  0  0  0  0  0  0  0  0
   26.3254  -20.8363  -17.0370 C   0  0  0  0  0  0  0  0  0  0  0  0
   27.3035  -20.3518  -18.0498 C   0  0  0  0  0  0  0  0  0  0  0  0
   28.0114  -19.1179  -17.6528 C   0  0  0  0  0  0  0  0  0  0  0  0
   27.4112  -18.1933  -17.0696 O   0  0  0  0  0  0  0  0  0  0  0  0
   25.8834  -21.5940  -14.6931 C   0  0  0  0  0  0  0  0  0  0  0  0
   25.0631  -22.5409  -14.7408 O   0  0  0  0  0  0  0  0  0  0  0  0
   29.3592  -18.9448  -17.9127 O   0  0  0  0  0  0  0  0  0  0  0  0
   27.1091  -20.7395   -9.4435 C   0  0  0  0  0  0  0  0  0  0  0  0
   26.5640  -21.3173  -10.7290 C   0  0  0  0  0  0  0  0  0  0  0  0
   25.3398  -20.5611  -11.1334 C   0  0  2  0  0  0  0  0  0  0  0  0
   24.2362  -20.8118  -10.1299 C   0  0  0  0  0  0  0  0  0  0  0  0
   24.8199  -21.0034  -12.4812 C   0  0  2  0  0  0  0  0  0  0  0  0
   25.7900  -20.7562  -13.5286 N   0  0  0  0  0  0  0  0  0  0  0  0
   23.5470  -20.3061  -12.8570 C   0  0  0  0  0  0  0  0  0  0  0  0
   23.5486  -19.0781  -13.1352 O   0  0  0  0  0  0  0  0  0  0  0  0
   21.3587  -20.6726  -17.9340 C   0  0  0  0  0  0  0  0  0  0  0  0
   19.6549  -20.5348  -17.3587 S   0  0  0  0  0  0  0  0  0  0  0  0
   19.6027  -20.2984  -15.5265 C   0  0  0  0  0  0  0  0  0  0  0  0
   20.9445  -20.6993  -14.9697 C   0  0  0  0  0  0  0  0  0  0  0  0
   21.0775  -20.5192  -13.4800 C   0  0  2  0  0  0  0  0  0  0  0  0
   22.3139  -20.9620  -12.9200 N   0  0  0  0  0  0  0  0  0  0  0  0
   20.0254  -21.3056  -12.8376 C   0  0  0  0  0  0  0  0  0  0  0  0
   20.2321  -22.5118  -12.5711 O   0  0  0  0  0  0  0  0  0  0  0  0
   18.8098  -20.7551  -12.5166 O   0  0  0  0  0  0  0  0  0  0  0  0
  2  1  1  6
  3  2  1  0
  4  3  1  0
  5  6  2  0
  5  4  1  0
  7  2  1  0
  7  8  2  0
  9  5  1  0
 10 11  1  0
 11 12  1  0
 12 14  1  0
 12 13  1  1
 14 15  1  6
 15  7  1  0
 16 14  1  0
 17 16  2  0
 19 18  1  0
 19 20  1  0
 20 21  1  0
 22 21  1  6
 22 24  1  0
 22 23  1  0
 23 16  1  0
 24 26  1  0
 25 24  2  0
M  END
$$$$
