YVE.pdb
     RDKit          3D

 29 29  0  0  1  0  0  0  0  0999 V2000
   10.4301  -14.2388   31.2435 O   0  0  0  0  0  0  0  0  0  0  0  0
   10.2171  -14.5736   29.9058 C   0  0  0  0  0  0  0  0  0  0  0  0
    9.6925  -13.6287   29.0238 C   0  0  0  0  0  0  0  0  0  0  0  0
    9.4779  -13.9538   27.6933 C   0  0  0  0  0  0  0  0  0  0  0  0
    9.7673  -15.1995   27.1928 C   0  0  0  0  0  0  0  0  0  0  0  0
    9.5363  -15.5465   25.7639 C   0  0  0  0  0  0  0  0  0  0  0  0
    8.0465  -15.7496   25.4759 C   0  0  2  0  0  0  0  0  0  0  0  0
    7.6761  -16.9541   26.1901 N   0  0  0  0  0  0  0  0  0  0  0  0
    7.9553  -15.9678   24.0058 C   0  0  0  0  0  0  0  0  0  0  0  0
    8.0692  -17.1592   23.5948 O   0  0  0  0  0  0  0  0  0  0  0  0
   10.2892  -16.1422   28.0668 C   0  0  0  0  0  0  0  0  0  0  0  0
   10.5018  -15.8130   29.3948 C   0  0  0  0  0  0  0  0  0  0  0  0
    8.1867  -12.8215   21.0798 C   0  0  0  0  0  0  0  0  0  0  0  0
    7.3663  -14.0408   20.8763 C   0  0  1  0  0  0  0  0  0  0  0  0
    7.3229  -14.3343   19.3772 C   0  0  0  0  0  0  0  0  0  0  0  0
    7.8256  -15.2355   21.6534 C   0  0  2  0  0  0  0  0  0  0  0  0
    7.7510  -14.9050   23.0949 N   0  0  0  0  0  0  0  0  0  0  0  0
    9.2029  -15.6037   21.3224 C   0  0  0  0  0  0  0  0  0  0  0  0
   10.1965  -15.1617   22.0009 O   0  0  0  0  0  0  0  0  0  0  0  0
    9.5150  -16.4627   20.2559 N   0  0  0  0  0  0  0  0  0  0  0  0
   10.8817  -17.0292   20.1386 C   0  0  1  0  0  0  0  0  0  0  0  0
   10.9160  -18.3547   20.8460 C   0  0  0  0  0  0  0  0  0  0  0  0
   12.2613  -18.9971   20.6976 C   0  0  0  0  0  0  0  0  0  0  0  0
   12.2284  -20.3041   21.4079 C   0  0  0  0  0  0  0  0  0  0  0  0
   11.2561  -20.7329   22.0614 O   0  0  0  0  0  0  0  0  0  0  0  0
   11.1638  -17.1667   18.7120 C   0  0  0  0  0  0  0  0  0  0  0  0
   10.2485  -17.2985   17.8763 O   0  0  0  0  0  0  0  0  0  0  0  0
   13.3583  -21.1390   21.3584 O   0  0  0  0  0  0  0  0  0  0  0  0
   12.4556  -17.1557   18.2208 O   0  0  0  0  0  0  0  0  0  0  0  0
  2  1  1  0
  2 12  2  0
  3  2  1  0
  4  3  2  0
  4  5  1  0
  5 11  2  0
  6  5  1  0
  6  7  1  0
  7  8  1  1
  9  7  1  0
  9 17  1  0
 10  9  2  0
 11 12  1  0
 14 13  1  6
 14 15  1  0
 16 17  1  1
 16 14  1  0
 18 16  1  0
 19 18  2  0
 20 18  1  0
 21 20  1  0
 21 22  1  1
 23 22  1  0
 23 24  1  0
 24 25  2  0
 26 21  1  0
 27 26  2  0
 28 24  1  0
 29 26  1  0
M  END
$$$$
