YVE.pdb
     RDKit          3D

 29 29  0  0  1  0  0  0  0  0999 V2000
    6.3392  -10.5685   26.2020 O   0  0  0  0  0  0  0  0  0  0  0  0
    6.4932  -11.9497   26.3271 C   0  0  0  0  0  0  0  0  0  0  0  0
    5.3726  -12.7676   26.4730 C   0  0  0  0  0  0  0  0  0  0  0  0
    5.5174  -14.1407   26.5979 C   0  0  0  0  0  0  0  0  0  0  0  0
    6.7498  -14.7466   26.5838 C   0  0  0  0  0  0  0  0  0  0  0  0
    6.9032  -16.2210   26.7179 C   0  0  0  0  0  0  0  0  0  0  0  0
    6.3105  -16.9528   25.5108 C   0  0  2  0  0  0  0  0  0  0  0  0
    6.2474  -18.3472   25.8978 N   0  0  0  0  0  0  0  0  0  0  0  0
    7.2964  -16.7623   24.4113 C   0  0  0  0  0  0  0  0  0  0  0  0
    8.3043  -17.5275   24.4060 O   0  0  0  0  0  0  0  0  0  0  0  0
    7.8669  -13.9366   26.4388 C   0  0  0  0  0  0  0  0  0  0  0  0
    7.7173  -12.5658   26.3145 C   0  0  0  0  0  0  0  0  0  0  0  0
    7.7030  -13.3622   21.8839 C   0  0  0  0  0  0  0  0  0  0  0  0
    7.6965  -14.7309   21.3115 C   0  0  1  0  0  0  0  0  0  0  0  0
    8.6040  -14.7316   20.0821 C   0  0  0  0  0  0  0  0  0  0  0  0
    8.0827  -15.8094   22.2758 C   0  0  2  0  0  0  0  0  0  0  0  0
    7.1312  -15.7770   23.4099 N   0  0  0  0  0  0  0  0  0  0  0  0
    9.4397  -15.6193   22.7903 C   0  0  0  0  0  0  0  0  0  0  0  0
    9.6807  -14.8279   23.7694 O   0  0  0  0  0  0  0  0  0  0  0  0
   10.5482  -16.2932   22.2522 N   0  0  0  0  0  0  0  0  0  0  0  0
   11.8740  -16.1778   22.9091 C   0  0  1  0  0  0  0  0  0  0  0  0
   12.0130  -17.2886   23.9118 C   0  0  0  0  0  0  0  0  0  0  0  0
   13.3477  -17.9559   23.7780 C   0  0  0  0  0  0  0  0  0  0  0  0
   13.3745  -19.1213   24.7026 C   0  0  0  0  0  0  0  0  0  0  0  0
   13.4816  -19.0415   25.9429 O   0  0  0  0  0  0  0  0  0  0  0  0
   12.8804  -16.2683   21.8542 C   0  0  0  0  0  0  0  0  0  0  0  0
   12.5929  -16.6771   20.7124 O   0  0  0  0  0  0  0  0  0  0  0  0
   13.2740  -20.4191   24.1717 O   0  0  0  0  0  0  0  0  0  0  0  0
   14.1961  -15.9044   22.0700 O   0  0  0  0  0  0  0  0  0  0  0  0
  2  1  1  0
  2 12  2  0
  3  2  1  0
  4  3  2  0
  4  5  1  0
  5 11  2  0
  6  5  1  0
  6  7  1  0
  7  8  1  1
  9  7  1  0
  9 17  1  0
 10  9  2  0
 11 12  1  0
 14 13  1  1
 14 15  1  0
 16 17  1  1
 16 14  1  0
 18 16  1  0
 19 18  2  0
 20 18  1  0
 21 20  1  0
 21 22  1  1
 23 22  1  0
 23 24  1  0
 24 25  2  0
 26 21  1  0
 27 26  2  0
 28 24  1  0
 29 26  1  0
M  END
$$$$
