YVE.pdb
     RDKit          3D

 29 29  0  0  1  0  0  0  0  0999 V2000
    8.3083  -23.5099   14.6832 O   0  0  0  0  0  0  0  0  0  0  0  0
    8.6631  -22.4755   15.5500 C   0  0  0  0  0  0  0  0  0  0  0  0
    7.7097  -21.9218   16.4047 C   0  0  0  0  0  0  0  0  0  0  0  0
    8.0545  -20.8939   17.2687 C   0  0  0  0  0  0  0  0  0  0  0  0
    9.3284  -20.3835   17.3206 C   0  0  0  0  0  0  0  0  0  0  0  0
    9.6966  -19.2798   18.2490 C   0  0  0  0  0  0  0  0  0  0  0  0
    9.1865  -17.9303   17.7369 C   0  0  2  0  0  0  0  0  0  0  0  0
    9.9920  -17.6306   16.5709 N   0  0  0  0  0  0  0  0  0  0  0  0
    9.4724  -16.9603   18.8298 C   0  0  0  0  0  0  0  0  0  0  0  0
   10.6810  -16.6246   18.9969 O   0  0  0  0  0  0  0  0  0  0  0  0
   10.2796  -20.9314   16.4721 C   0  0  0  0  0  0  0  0  0  0  0  0
    9.9306  -21.9579   15.6109 C   0  0  0  0  0  0  0  0  0  0  0  0
    7.8432  -13.7990   22.2817 C   0  0  0  0  0  0  0  0  0  0  0  0
    7.6179  -14.7278   21.1469 C   0  0  1  0  0  0  0  0  0  0  0  0
    6.9005  -13.9548   20.0410 C   0  0  0  0  0  0  0  0  0  0  0  0
    8.8572  -15.3927   20.6328 C   0  0  2  0  0  0  0  0  0  0  0  0
    8.4534  -16.4276   19.6536 N   0  0  0  0  0  0  0  0  0  0  0  0
    9.6194  -16.0294   21.7079 C   0  0  0  0  0  0  0  0  0  0  0  0
    9.2046  -17.0976   22.2820 O   0  0  0  0  0  0  0  0  0  0  0  0
   10.8445  -15.5170   22.1651 N   0  0  0  0  0  0  0  0  0  0  0  0
   11.6529  -16.2922   23.1388 C   0  0  1  0  0  0  0  0  0  0  0  0
   13.0640  -15.7757   23.1127 C   0  0  0  0  0  0  0  0  0  0  0  0
   13.8839  -16.4269   24.1842 C   0  0  0  0  0  0  0  0  0  0  0  0
   15.2490  -15.8365   24.1424 C   0  0  0  0  0  0  0  0  0  0  0  0
   15.9867  -15.6821   25.1364 O   0  0  0  0  0  0  0  0  0  0  0  0
   11.0312  -16.1099   24.4480 C   0  0  0  0  0  0  0  0  0  0  0  0
   10.3986  -15.0738   24.7306 O   0  0  0  0  0  0  0  0  0  0  0  0
   15.7741  -15.4121   22.9093 O   0  0  0  0  0  0  0  0  0  0  0  0
   11.1127  -17.0753   25.4335 O   0  0  0  0  0  0  0  0  0  0  0  0
  2  1  1  0
  2 12  2  0
  3  2  1  0
  4  3  2  0
  4  5  1  0
  5 11  2  0
  6  5  1  0
  6  7  1  0
  7  8  1  6
  9  7  1  0
  9 17  1  0
 10  9  2  0
 11 12  1  0
 14 13  1  1
 14 15  1  0
 16 17  1  6
 16 14  1  0
 18 16  1  0
 19 18  2  0
 20 18  1  0
 21 20  1  0
 21 22  1  1
 23 22  1  0
 23 24  1  0
 24 25  2  0
 26 21  1  0
 27 26  2  0
 28 24  1  0
 29 26  1  0
M  END
$$$$
