YVE.pdb
     RDKit          3D

 29 29  0  0  1  0  0  0  0  0999 V2000
    7.3703  -13.8632   15.3441 O   0  0  0  0  0  0  0  0  0  0  0  0
    7.3571  -14.0823   16.7221 C   0  0  0  0  0  0  0  0  0  0  0  0
    8.3899  -14.8000   17.3256 C   0  0  0  0  0  0  0  0  0  0  0  0
    8.3839  -15.0218   18.6941 C   0  0  0  0  0  0  0  0  0  0  0  0
    7.3779  -14.5528   19.5028 C   0  0  0  0  0  0  0  0  0  0  0  0
    7.3733  -14.7919   20.9720 C   0  0  0  0  0  0  0  0  0  0  0  0
    8.5635  -14.1077   21.6494 C   0  0  2  0  0  0  0  0  0  0  0  0
    9.7405  -14.7556   21.1081 N   0  0  0  0  0  0  0  0  0  0  0  0
    8.4216  -14.4144   23.0995 C   0  0  0  0  0  0  0  0  0  0  0  0
    9.2067  -15.2819   23.5816 O   0  0  0  0  0  0  0  0  0  0  0  0
    6.3488  -13.8385   18.9065 C   0  0  0  0  0  0  0  0  0  0  0  0
    6.3590  -13.6194   17.5393 C   0  0  0  0  0  0  0  0  0  0  0  0
    6.8302  -12.7575   27.4937 C   0  0  0  0  0  0  0  0  0  0  0  0
    6.6692  -12.9174   26.0275 C   0  0  1  0  0  0  0  0  0  0  0  0
    6.5746  -11.5231   25.4093 C   0  0  0  0  0  0  0  0  0  0  0  0
    7.7381  -13.7347   25.3705 C   0  0  2  0  0  0  0  0  0  0  0  0
    7.4596  -13.7760   23.9168 N   0  0  0  0  0  0  0  0  0  0  0  0
    7.7704  -15.1042   25.8859 C   0  0  0  0  0  0  0  0  0  0  0  0
    6.9431  -15.9939   25.4772 O   0  0  0  0  0  0  0  0  0  0  0  0
    8.7070  -15.5240   26.8446 N   0  0  0  0  0  0  0  0  0  0  0  0
    9.2016  -16.9232   26.8317 C   0  0  1  0  0  0  0  0  0  0  0  0
   10.2358  -17.0585   25.7498 C   0  0  0  0  0  0  0  0  0  0  0  0
   10.8217  -18.4374   25.7498 C   0  0  0  0  0  0  0  0  0  0  0  0
   11.7879  -18.5272   24.6218 C   0  0  0  0  0  0  0  0  0  0  0  0
   11.7270  -19.3651   23.6997 O   0  0  0  0  0  0  0  0  0  0  0  0
    9.7607  -17.1886   28.1549 C   0  0  0  0  0  0  0  0  0  0  0  0
   10.0127  -18.3485   28.5354 O   0  0  0  0  0  0  0  0  0  0  0  0
   12.8574  -17.6167   24.5621 O   0  0  0  0  0  0  0  0  0  0  0  0
   10.0383  -16.1692   29.0458 O   0  0  0  0  0  0  0  0  0  0  0  0
  2  1  1  0
  2 12  2  0
  3  2  1  0
  4  3  2  0
  4  5  1  0
  5 11  2  0
  6  5  1  0
  6  7  1  0
  7  8  1  6
  9  7  1  0
  9 17  1  0
 10  9  2  0
 11 12  1  0
 14 13  1  1
 14 15  1  0
 16 17  1  6
 16 14  1  0
 18 16  1  0
 19 18  2  0
 20 18  1  0
 21 20  1  0
 21 22  1  6
 23 22  1  0
 23 24  1  0
 24 25  2  0
 26 21  1  0
 27 26  2  0
 28 24  1  0
 29 26  1  0
M  END
$$$$
