YVE.pdb
     RDKit          3D

 29 29  0  0  1  0  0  0  0  0999 V2000
   10.3570  -14.3541   31.1080 O   0  0  0  0  0  0  0  0  0  0  0  0
   10.1887  -14.6617   29.7574 C   0  0  0  0  0  0  0  0  0  0  0  0
    9.6750  -13.7052   28.8815 C   0  0  0  0  0  0  0  0  0  0  0  0
    9.5048  -14.0032   27.5383 C   0  0  0  0  0  0  0  0  0  0  0  0
    9.8288  -15.2326   27.0190 C   0  0  0  0  0  0  0  0  0  0  0  0
    9.6454  -15.5506   25.5765 C   0  0  0  0  0  0  0  0  0  0  0  0
    8.1615  -15.6028   25.2040 C   0  0  2  0  0  0  0  0  0  0  0  0
    7.6397  -16.7830   25.8620 N   0  0  0  0  0  0  0  0  0  0  0  0
    8.1320  -15.7759   23.7254 C   0  0  0  0  0  0  0  0  0  0  0  0
    8.0337  -16.9595   23.2885 O   0  0  0  0  0  0  0  0  0  0  0  0
   10.3401  -16.1867   27.8869 C   0  0  0  0  0  0  0  0  0  0  0  0
   10.5083  -15.8846   29.2276 C   0  0  0  0  0  0  0  0  0  0  0  0
    7.7147  -13.9227   19.1730 C   0  0  0  0  0  0  0  0  0  0  0  0
    7.8392  -13.7473   20.6409 C   0  0  1  0  0  0  0  0  0  0  0  0
    6.5294  -13.1528   21.1569 C   0  0  0  0  0  0  0  0  0  0  0  0
    8.2045  -14.9933   21.3868 C   0  0  2  0  0  0  0  0  0  0  0  0
    8.2093  -14.6802   22.8341 N   0  0  0  0  0  0  0  0  0  0  0  0
    9.5278  -15.4883   21.0047 C   0  0  0  0  0  0  0  0  0  0  0  0
   10.5844  -15.1352   21.6387 O   0  0  0  0  0  0  0  0  0  0  0  0
    9.7166  -16.3786   19.9350 N   0  0  0  0  0  0  0  0  0  0  0  0
   10.9849  -17.1410   19.8227 C   0  0  1  0  0  0  0  0  0  0  0  0
   11.1067  -18.0512   21.0123 C   0  0  0  0  0  0  0  0  0  0  0  0
   12.4112  -17.8293   21.7149 C   0  0  0  0  0  0  0  0  0  0  0  0
   12.3820  -18.5922   22.9919 C   0  0  0  0  0  0  0  0  0  0  0  0
   12.3760  -19.8369   23.0756 O   0  0  0  0  0  0  0  0  0  0  0  0
   10.9216  -17.8892   18.5697 C   0  0  0  0  0  0  0  0  0  0  0  0
    9.9010  -18.5246   18.2408 O   0  0  0  0  0  0  0  0  0  0  0  0
   12.3592  -17.8894   24.2092 O   0  0  0  0  0  0  0  0  0  0  0  0
   11.9867  -17.9273   17.6898 O   0  0  0  0  0  0  0  0  0  0  0  0
  2  1  1  0
  2 12  2  0
  3  2  1  0
  4  3  2  0
  4  5  1  0
  5 11  2  0
  6  5  1  0
  6  7  1  0
  7  8  1  1
  9  7  1  0
  9 17  1  0
 10  9  2  0
 11 12  1  0
 14 13  1  6
 14 15  1  0
 16 17  1  1
 16 14  1  0
 18 16  1  0
 19 18  2  0
 20 18  1  0
 21 20  1  0
 21 22  1  1
 23 22  1  0
 23 24  1  0
 24 25  2  0
 26 21  1  0
 27 26  2  0
 28 24  1  0
 29 26  1  0
M  END
$$$$
