YVE.pdb
     RDKit          3D

 29 29  0  0  1  0  0  0  0  0999 V2000
    7.3761  -14.4498   15.4196 O   0  0  0  0  0  0  0  0  0  0  0  0
    7.6702  -14.2545   16.7695 C   0  0  0  0  0  0  0  0  0  0  0  0
    8.2836  -15.2688   17.5050 C   0  0  0  0  0  0  0  0  0  0  0  0
    8.5790  -15.0825   18.8466 C   0  0  0  0  0  0  0  0  0  0  0  0
    8.2859  -13.9108   19.5003 C   0  0  0  0  0  0  0  0  0  0  0  0
    8.6039  -13.7126   20.9408 C   0  0  0  0  0  0  0  0  0  0  0  0
    8.2557  -14.9566   21.7623 C   0  0  2  0  0  0  0  0  0  0  0  0
    6.8232  -15.1213   21.6249 N   0  0  0  0  0  0  0  0  0  0  0  0
    8.6072  -14.6121   23.1677 C   0  0  0  0  0  0  0  0  0  0  0  0
    9.8287  -14.3944   23.4164 O   0  0  0  0  0  0  0  0  0  0  0  0
    7.6758  -12.8995   18.7723 C   0  0  0  0  0  0  0  0  0  0  0  0
    7.3827  -13.0901   17.4326 C   0  0  0  0  0  0  0  0  0  0  0  0
    7.5096  -12.8929   27.5855 C   0  0  0  0  0  0  0  0  0  0  0  0
    7.0984  -13.3899   26.2494 C   0  0  1  0  0  0  0  0  0  0  0  0
    6.7027  -12.1833   25.3994 C   0  0  0  0  0  0  0  0  0  0  0  0
    8.1245  -14.2326   25.5572 C   0  0  2  0  0  0  0  0  0  0  0  0
    7.6345  -14.5273   24.1912 N   0  0  0  0  0  0  0  0  0  0  0  0
    8.3562  -15.4953   26.2601 C   0  0  0  0  0  0  0  0  0  0  0  0
    7.3953  -16.3011   26.5252 O   0  0  0  0  0  0  0  0  0  0  0  0
    9.6354  -15.9000   26.6752 N   0  0  0  0  0  0  0  0  0  0  0  0
    9.8128  -17.2069   27.3556 C   0  0  1  0  0  0  0  0  0  0  0  0
   10.8887  -17.9782   26.6441 C   0  0  0  0  0  0  0  0  0  0  0  0
   12.2070  -17.2764   26.7626 C   0  0  0  0  0  0  0  0  0  0  0  0
   13.0868  -17.7606   25.6647 C   0  0  0  0  0  0  0  0  0  0  0  0
   13.2754  -18.9612   25.3831 O   0  0  0  0  0  0  0  0  0  0  0  0
   10.1757  -16.9191   28.7410 C   0  0  0  0  0  0  0  0  0  0  0  0
   10.4292  -15.7594   29.1210 O   0  0  0  0  0  0  0  0  0  0  0  0
   13.7684  -16.8231   24.8694 O   0  0  0  0  0  0  0  0  0  0  0  0
   10.2538  -17.9157   29.6953 O   0  0  0  0  0  0  0  0  0  0  0  0
  2  1  1  0
  2 12  2  0
  3  2  1  0
  4  3  2  0
  4  5  1  0
  5 11  2  0
  6  5  1  0
  6  7  1  0
  7  8  1  1
  9  7  1  0
  9 17  1  0
 10  9  2  0
 11 12  1  0
 14 13  1  1
 14 15  1  0
 16 17  1  6
 16 14  1  0
 18 16  1  0
 19 18  2  0
 20 18  1  0
 21 20  1  0
 21 22  1  6
 23 22  1  0
 23 24  1  0
 24 25  2  0
 26 21  1  0
 27 26  2  0
 28 24  1  0
 29 26  1  0
M  END
$$$$
