YVE.pdb
     RDKit          3D

 29 29  0  0  1  0  0  0  0  0999 V2000
   10.5217  -14.2806   31.1638 O   0  0  0  0  0  0  0  0  0  0  0  0
   10.3120  -14.5625   29.8134 C   0  0  0  0  0  0  0  0  0  0  0  0
   10.6065  -15.8297   29.3100 C   0  0  0  0  0  0  0  0  0  0  0  0
   10.4009  -16.1176   27.9696 C   0  0  0  0  0  0  0  0  0  0  0  0
    9.9066  -15.1837   27.0924 C   0  0  0  0  0  0  0  0  0  0  0  0
    9.6864  -15.4947   25.6535 C   0  0  0  0  0  0  0  0  0  0  0  0
    8.1942  -15.5160   25.3123 C   0  0  2  0  0  0  0  0  0  0  0  0
    7.6496  -16.6480   26.0335 N   0  0  0  0  0  0  0  0  0  0  0  0
    8.1289  -15.7547   23.8439 C   0  0  0  0  0  0  0  0  0  0  0  0
    7.9826  -16.9528   23.4637 O   0  0  0  0  0  0  0  0  0  0  0  0
    9.6123  -13.9221   27.5890 C   0  0  0  0  0  0  0  0  0  0  0  0
    9.8193  -13.6392   28.9285 C   0  0  0  0  0  0  0  0  0  0  0  0
    7.8864  -14.1388   19.1879 C   0  0  0  0  0  0  0  0  0  0  0  0
    7.8674  -13.9080   20.6533 C   0  0  1  0  0  0  0  0  0  0  0  0
    6.4671  -13.4315   21.0368 C   0  0  0  0  0  0  0  0  0  0  0  0
    8.2861  -15.0887   21.4736 C   0  0  2  0  0  0  0  0  0  0  0  0
    8.2241  -14.7036   22.9021 N   0  0  0  0  0  0  0  0  0  0  0  0
    9.6498  -15.5157   21.1568 C   0  0  0  0  0  0  0  0  0  0  0  0
   10.6648  -15.0230   21.7649 O   0  0  0  0  0  0  0  0  0  0  0  0
    9.9247  -16.4884   20.1818 N   0  0  0  0  0  0  0  0  0  0  0  0
   11.2476  -17.1609   20.1608 C   0  0  1  0  0  0  0  0  0  0  0  0
   11.2054  -18.3359   21.0968 C   0  0  0  0  0  0  0  0  0  0  0  0
   12.4582  -19.1491   20.9791 C   0  0  0  0  0  0  0  0  0  0  0  0
   12.3567  -20.2911   21.9275 C   0  0  0  0  0  0  0  0  0  0  0  0
   11.6934  -21.3275   21.7227 O   0  0  0  0  0  0  0  0  0  0  0  0
   11.4930  -17.5731   18.7811 C   0  0  0  0  0  0  0  0  0  0  0  0
   10.5555  -17.8302   18.0010 O   0  0  0  0  0  0  0  0  0  0  0  0
   13.0461  -20.2284   23.1511 O   0  0  0  0  0  0  0  0  0  0  0  0
   12.7730  -17.6962   18.2747 O   0  0  0  0  0  0  0  0  0  0  0  0
  2  1  1  0
  2 12  2  0
  3  2  1  0
  4  3  2  0
  4  5  1  0
  5 11  2  0
  6  5  1  0
  6  7  1  0
  7  8  1  1
  9  7  1  0
  9 17  1  0
 10  9  2  0
 11 12  1  0
 14 13  1  6
 14 15  1  0
 16 17  1  1
 16 14  1  0
 18 16  1  0
 19 18  2  0
 20 18  1  0
 21 20  1  0
 21 22  1  1
 23 22  1  0
 23 24  1  0
 24 25  2  0
 26 21  1  0
 27 26  2  0
 28 24  1  0
 29 26  1  0
M  END
$$$$
