YVE.pdb
     RDKit          3D

 29 29  0  0  1  0  0  0  0  0999 V2000
    5.2055  -23.7107   28.5469 O   0  0  0  0  0  0  0  0  0  0  0  0
    5.7117  -22.6290   27.8252 C   0  0  0  0  0  0  0  0  0  0  0  0
    5.5964  -21.3348   28.3328 C   0  0  0  0  0  0  0  0  0  0  0  0
    6.0967  -20.2550   27.6218 C   0  0  0  0  0  0  0  0  0  0  0  0
    6.7175  -20.4088   26.4065 C   0  0  0  0  0  0  0  0  0  0  0  0
    7.2542  -19.2481   25.6446 C   0  0  0  0  0  0  0  0  0  0  0  0
    6.1238  -18.3682   25.1045 C   0  0  2  0  0  0  0  0  0  0  0  0
    5.6464  -19.0409   23.9139 N   0  0  0  0  0  0  0  0  0  0  0  0
    6.7678  -17.0739   24.7478 C   0  0  0  0  0  0  0  0  0  0  0  0
    7.3669  -17.0193   23.6344 O   0  0  0  0  0  0  0  0  0  0  0  0
    6.8343  -21.6944   25.8981 C   0  0  0  0  0  0  0  0  0  0  0  0
    6.3330  -22.7698   26.6119 C   0  0  0  0  0  0  0  0  0  0  0  0
    8.5081  -12.7032   26.3168 C   0  0  0  0  0  0  0  0  0  0  0  0
    7.4665  -13.7595   26.2943 C   0  0  1  0  0  0  0  0  0  0  0  0
    6.1521  -13.1154   25.8554 C   0  0  0  0  0  0  0  0  0  0  0  0
    7.8033  -14.9461   25.4453 C   0  0  2  0  0  0  0  0  0  0  0  0
    6.7227  -15.9465   25.6009 N   0  0  0  0  0  0  0  0  0  0  0  0
    9.0738  -15.5556   25.8411 C   0  0  0  0  0  0  0  0  0  0  0  0
    9.2102  -16.1487   26.9692 O   0  0  0  0  0  0  0  0  0  0  0  0
   10.2073  -15.5346   25.0121 N   0  0  0  0  0  0  0  0  0  0  0  0
   11.3505  -16.4362   25.2998 C   0  0  1  0  0  0  0  0  0  0  0  0
   12.1575  -16.6067   24.0435 C   0  0  0  0  0  0  0  0  0  0  0  0
   13.2881  -15.6244   24.0056 C   0  0  0  0  0  0  0  0  0  0  0  0
   14.0343  -15.8300   22.7348 C   0  0  0  0  0  0  0  0  0  0  0  0
   14.4593  -16.9311   22.3311 O   0  0  0  0  0  0  0  0  0  0  0  0
   12.1287  -15.8092   26.3652 C   0  0  0  0  0  0  0  0  0  0  0  0
   13.0264  -16.4291   26.9681 O   0  0  0  0  0  0  0  0  0  0  0  0
   14.2951  -14.7239   21.9072 O   0  0  0  0  0  0  0  0  0  0  0  0
   11.9092  -14.5013   26.7541 O   0  0  0  0  0  0  0  0  0  0  0  0
  2  1  1  0
  2 12  2  0
  3  2  1  0
  4  3  2  0
  4  5  1  0
  5 11  2  0
  6  5  1  0
  6  7  1  0
  7  8  1  6
  9  7  1  0
  9 17  1  0
 10  9  2  0
 11 12  1  0
 14 13  1  6
 14 15  1  0
 16 17  1  1
 16 14  1  0
 18 16  1  0
 19 18  2  0
 20 18  1  0
 21 20  1  0
 21 22  1  6
 23 22  1  0
 23 24  1  0
 24 25  2  0
 26 21  1  0
 27 26  2  0
 28 24  1  0
 29 26  1  0
M  END
$$$$
