YVE.pdb
     RDKit          3D

 29 29  0  0  1  0  0  0  0  0999 V2000
    8.8047  -22.8441   30.5199 O   0  0  0  0  0  0  0  0  0  0  0  0
    8.5129  -21.7195   29.7472 C   0  0  0  0  0  0  0  0  0  0  0  0
    9.4691  -21.2065   28.8705 C   0  0  0  0  0  0  0  0  0  0  0  0
    9.1867  -20.0895   28.0995 C   0  0  0  0  0  0  0  0  0  0  0  0
    7.9736  -19.4490   28.1635 C   0  0  0  0  0  0  0  0  0  0  0  0
    7.6723  -18.2498   27.3348 C   0  0  0  0  0  0  0  0  0  0  0  0
    6.5115  -18.5171   26.3732 C   0  0  2  0  0  0  0  0  0  0  0  0
    6.6791  -19.8884   25.9378 N   0  0  0  0  0  0  0  0  0  0  0  0
    6.7195  -17.5807   25.2342 C   0  0  0  0  0  0  0  0  0  0  0  0
    7.0064  -18.0950   24.1141 O   0  0  0  0  0  0  0  0  0  0  0  0
    7.0198  -19.9560   29.0343 C   0  0  0  0  0  0  0  0  0  0  0  0
    7.3064  -21.0718   29.8023 C   0  0  0  0  0  0  0  0  0  0  0  0
    7.2758  -13.3954   25.8892 C   0  0  0  0  0  0  0  0  0  0  0  0
    6.8396  -13.9174   24.5707 C   0  0  1  0  0  0  0  0  0  0  0  0
    7.3987  -12.9931   23.4899 C   0  0  0  0  0  0  0  0  0  0  0  0
    7.2111  -15.3451   24.3139 C   0  0  2  0  0  0  0  0  0  0  0  0
    6.6059  -16.1781   25.3781 N   0  0  0  0  0  0  0  0  0  0  0  0
    8.6615  -15.5409   24.3262 C   0  0  0  0  0  0  0  0  0  0  0  0
    9.2921  -15.8129   25.4085 O   0  0  0  0  0  0  0  0  0  0  0  0
    9.4413  -15.4514   23.1616 N   0  0  0  0  0  0  0  0  0  0  0  0
   10.5878  -16.3735   22.9668 C   0  0  1  0  0  0  0  0  0  0  0  0
   10.9617  -16.3764   21.5112 C   0  0  0  0  0  0  0  0  0  0  0  0
   12.1875  -17.2071   21.2833 C   0  0  0  0  0  0  0  0  0  0  0  0
   12.4621  -17.2312   19.8211 C   0  0  0  0  0  0  0  0  0  0  0  0
   13.4202  -17.8263   19.2882 O   0  0  0  0  0  0  0  0  0  0  0  0
   11.6767  -15.8812   23.8070 C   0  0  0  0  0  0  0  0  0  0  0  0
   12.6079  -16.6261   24.1699 O   0  0  0  0  0  0  0  0  0  0  0  0
   11.5983  -16.5437   18.9507 O   0  0  0  0  0  0  0  0  0  0  0  0
   11.7279  -14.5690   24.2377 O   0  0  0  0  0  0  0  0  0  0  0  0
  2  1  1  0
  2 12  2  0
  3  2  1  0
  4  3  2  0
  4  5  1  0
  5 11  2  0
  6  5  1  0
  6  7  1  0
  7  8  1  6
  9  7  1  0
  9 17  1  0
 10  9  2  0
 11 12  1  0
 14 13  1  1
 14 15  1  0
 16 17  1  1
 16 14  1  0
 18 16  1  0
 19 18  2  0
 20 18  1  0
 21 20  1  0
 21 22  1  6
 23 22  1  0
 23 24  1  0
 24 25  2  0
 26 21  1  0
 27 26  2  0
 28 24  1  0
 29 26  1  0
M  END
$$$$
