YVE.pdb
     RDKit          3D

 29 29  0  0  1  0  0  0  0  0999 V2000
    7.6985  -22.3226   30.3558 O   0  0  0  0  0  0  0  0  0  0  0  0
    7.5442  -21.6546   29.1406 C   0  0  0  0  0  0  0  0  0  0  0  0
    7.7907  -20.2839   29.0602 C   0  0  0  0  0  0  0  0  0  0  0  0
    7.6396  -19.6130   27.8565 C   0  0  0  0  0  0  0  0  0  0  0  0
    7.2470  -20.2571   26.7089 C   0  0  0  0  0  0  0  0  0  0  0  0
    7.0854  -19.5351   25.4173 C   0  0  0  0  0  0  0  0  0  0  0  0
    5.8467  -18.6356   25.4355 C   0  0  2  0  0  0  0  0  0  0  0  0
    4.9000  -19.2644   24.5374 N   0  0  0  0  0  0  0  0  0  0  0  0
    6.2997  -17.3295   24.8824 C   0  0  0  0  0  0  0  0  0  0  0  0
    6.4381  -17.2556   23.6267 O   0  0  0  0  0  0  0  0  0  0  0  0
    7.0007  -21.6204   26.7845 C   0  0  0  0  0  0  0  0  0  0  0  0
    7.1530  -22.2862   27.9889 C   0  0  0  0  0  0  0  0  0  0  0  0
    7.8477  -12.6703   25.5526 C   0  0  0  0  0  0  0  0  0  0  0  0
    7.0983  -13.8753   25.9857 C   0  0  1  0  0  0  0  0  0  0  0  0
    5.6365  -13.4756   26.1819 C   0  0  0  0  0  0  0  0  0  0  0  0
    7.2244  -15.0496   25.0651 C   0  0  2  0  0  0  0  0  0  0  0  0
    6.5680  -16.2116   25.7065 N   0  0  0  0  0  0  0  0  0  0  0  0
    8.6241  -15.3840   24.7979 C   0  0  0  0  0  0  0  0  0  0  0  0
    9.3729  -15.9039   25.6989 O   0  0  0  0  0  0  0  0  0  0  0  0
    9.2229  -15.1648   23.5466 N   0  0  0  0  0  0  0  0  0  0  0  0
   10.5460  -15.7656   23.2447 C   0  0  1  0  0  0  0  0  0  0  0  0
   10.9054  -15.4483   21.8204 C   0  0  0  0  0  0  0  0  0  0  0  0
   12.3185  -15.8529   21.5304 C   0  0  0  0  0  0  0  0  0  0  0  0
   12.2842  -17.1224   20.7553 C   0  0  0  0  0  0  0  0  0  0  0  0
   11.2832  -17.5597   20.1527 O   0  0  0  0  0  0  0  0  0  0  0  0
   11.5002  -15.1880   24.1880 C   0  0  0  0  0  0  0  0  0  0  0  0
   11.4491  -13.9859   24.5131 O   0  0  0  0  0  0  0  0  0  0  0  0
   13.4470  -17.9086   20.6769 O   0  0  0  0  0  0  0  0  0  0  0  0
   12.5022  -15.9449   24.7653 O   0  0  0  0  0  0  0  0  0  0  0  0
  2  1  1  0
  2 12  2  0
  3  2  1  0
  4  3  2  0
  4  5  1  0
  5 11  2  0
  6  5  1  0
  6  7  1  0
  7  8  1  6
  9  7  1  0
  9 17  1  0
 10  9  2  0
 11 12  1  0
 14 13  1  6
 14 15  1  0
 16 17  1  1
 16 14  1  0
 18 16  1  0
 19 18  2  0
 20 18  1  0
 21 20  1  0
 21 22  1  6
 23 22  1  0
 23 24  1  0
 24 25  2  0
 26 21  1  0
 27 26  2  0
 28 24  1  0
 29 26  1  0
M  END
$$$$
