SEW.pdb
     RDKit          3D

 30 31  0  0  1  0  0  0  0  0999 V2000
    6.7134  -16.4680   19.2927 O   0  0  0  0  0  0  0  0  0  0  0  0
    6.3138  -15.4468   20.1612 C   0  0  0  0  0  0  0  0  0  0  0  0
    7.4928  -14.8180   20.8244 C   0  0  2  0  0  0  0  0  0  0  0  0
    8.4283  -14.4429   19.7651 N   0  0  0  0  0  0  0  0  0  0  0  0
    8.1197  -15.7572   21.7718 C   0  0  0  0  0  0  0  0  0  0  0  0
    7.3223  -16.3850   22.5590 O   0  0  0  0  0  0  0  0  0  0  0  0
    9.5269  -15.9488   21.7908 N   0  0  0  0  0  0  0  0  0  0  0  0
   10.1220  -16.9319   22.6205 C   0  0  1  0  0  0  0  0  0  0  0  0
   11.2284  -17.7453   22.1087 C   0  0  0  0  0  0  0  0  0  0  0  0
   11.1368  -18.2433   20.7119 C   0  0  0  0  0  0  0  0  0  0  0  0
   12.2333  -19.0465   20.2056 C   0  0  0  0  0  0  0  0  0  0  0  0
   13.4228  -18.6068   20.2870 O   0  0  0  0  0  0  0  0  0  0  0  0
   10.2864  -16.3958   24.0017 C   0  0  0  0  0  0  0  0  0  0  0  0
   10.9453  -15.3539   24.2272 O   0  0  0  0  0  0  0  0  0  0  0  0
   12.0544  -20.2859   19.6259 O   0  0  0  0  0  0  0  0  0  0  0  0
    9.7280  -16.9984   25.1563 N   0  0  0  0  0  0  0  0  0  0  0  0
    9.9223  -16.5125   26.5064 C   0  0  1  0  0  0  0  0  0  0  0  0
    8.6589  -16.4630   27.2956 C   0  0  0  0  0  0  0  0  0  0  0  0
    7.6681  -15.6278   26.5747 C   0  0  0  0  0  0  0  0  0  0  0  0
    6.6047  -16.0139   25.7591 C   0  0  0  0  0  0  0  0  0  0  0  0
    5.9529  -14.9542   25.2916 N   0  0  0  0  0  0  0  0  0  0  0  0
    6.5382  -13.8473   25.7628 C   0  0  0  0  0  0  0  0  0  0  0  0
    6.2740  -12.5014   25.5948 C   0  0  0  0  0  0  0  0  0  0  0  0
    7.0583  -11.5708   26.2107 C   0  0  0  0  0  0  0  0  0  0  0  0
    8.1070  -11.9656   26.9953 C   0  0  0  0  0  0  0  0  0  0  0  0
    8.3991  -13.3001   27.1848 C   0  0  0  0  0  0  0  0  0  0  0  0
    7.5986  -14.2288   26.5569 C   0  0  0  0  0  0  0  0  0  0  0  0
   10.8850  -17.3926   27.1796 C   0  0  0  0  0  0  0  0  0  0  0  0
   11.2882  -18.4301   26.6187 O   0  0  0  0  0  0  0  0  0  0  0  0
   11.3485  -17.0766   28.4364 O   0  0  0  0  0  0  0  0  0  0  0  0
  1  2  1  0
  3  2  1  0
  3  5  1  0
  3  4  1  6
  5  6  2  0
  7  5  1  0
  7  8  1  0
  8  9  1  6
  9 10  1  0
 10 11  1  0
 11 12  2  0
 11 15  1  0
 13  8  1  0
 13 14  2  0
 16 13  1  0
 17 16  1  0
 17 18  1  1
 19 18  1  0
 19 27  1  0
 20 21  1  0
 20 19  2  0
 21 22  1  0
 22 23  1  0
 22 27  2  0
 23 24  2  0
 24 25  1  0
 26 25  2  0
 27 26  1  0
 28 17  1  0
 29 28  2  0
 30 28  1  0
M  END
$$$$
