SEW.pdb
     RDKit          3D

 30 31  0  0  1  0  0  0  0  0999 V2000
    6.1466  -14.6920   22.1514 O   0  0  0  0  0  0  0  0  0  0  0  0
    7.1179  -14.3590   21.2014 C   0  0  0  0  0  0  0  0  0  0  0  0
    7.6660  -15.5822   20.5467 C   0  0  2  0  0  0  0  0  0  0  0  0
    6.5371  -16.2790   19.9317 N   0  0  0  0  0  0  0  0  0  0  0  0
    8.3411  -16.4434   21.5342 C   0  0  0  0  0  0  0  0  0  0  0  0
    7.6701  -17.4531   21.9585 O   0  0  0  0  0  0  0  0  0  0  0  0
    9.6622  -16.1600   21.9720 N   0  0  0  0  0  0  0  0  0  0  0  0
   10.3556  -17.0472   22.8328 C   0  0  1  0  0  0  0  0  0  0  0  0
   11.5413  -17.7578   22.3459 C   0  0  0  0  0  0  0  0  0  0  0  0
   12.8227  -17.0087   22.2809 C   0  0  0  0  0  0  0  0  0  0  0  0
   13.4961  -16.9279   20.9989 C   0  0  0  0  0  0  0  0  0  0  0  0
   13.0021  -16.2085   20.0750 O   0  0  0  0  0  0  0  0  0  0  0  0
   10.4619  -16.4506   24.1948 C   0  0  0  0  0  0  0  0  0  0  0  0
   11.2087  -15.4711   24.4257 O   0  0  0  0  0  0  0  0  0  0  0  0
   14.6658  -17.6040   20.7183 O   0  0  0  0  0  0  0  0  0  0  0  0
    9.7476  -16.9230   25.3238 N   0  0  0  0  0  0  0  0  0  0  0  0
   10.0073  -16.5089   26.6867 C   0  0  1  0  0  0  0  0  0  0  0  0
    8.7639  -16.3314   27.4891 C   0  0  0  0  0  0  0  0  0  0  0  0
    7.7799  -15.5565   26.6954 C   0  0  0  0  0  0  0  0  0  0  0  0
    6.7305  -16.0070   25.8947 C   0  0  0  0  0  0  0  0  0  0  0  0
    6.0805  -14.9879   25.3422 N   0  0  0  0  0  0  0  0  0  0  0  0
    6.6535  -13.8463   25.7403 C   0  0  0  0  0  0  0  0  0  0  0  0
    6.3853  -12.5177   25.4712 C   0  0  0  0  0  0  0  0  0  0  0  0
    7.1558  -11.5403   26.0291 C   0  0  0  0  0  0  0  0  0  0  0  0
    8.1947  -11.8710   26.8553 C   0  0  0  0  0  0  0  0  0  0  0  0
    8.4905  -13.1865   27.1454 C   0  0  0  0  0  0  0  0  0  0  0  0
    7.7039  -14.1630   26.5750 C   0  0  0  0  0  0  0  0  0  0  0  0
   10.8590  -17.5214   27.3224 C   0  0  0  0  0  0  0  0  0  0  0  0
   11.1535  -18.5683   26.7135 O   0  0  0  0  0  0  0  0  0  0  0  0
   11.3378  -17.3201   28.5969 O   0  0  0  0  0  0  0  0  0  0  0  0
  1  2  1  0
  3  2  1  0
  3  5  1  0
  3  4  1  1
  5  6  2  0
  7  5  1  0
  7  8  1  0
  8  9  1  6
  9 10  1  0
 10 11  1  0
 11 12  2  0
 11 15  1  0
 13  8  1  0
 13 14  2  0
 16 13  1  0
 17 16  1  0
 17 18  1  1
 19 18  1  0
 19 27  1  0
 20 21  1  0
 20 19  2  0
 21 22  1  0
 22 23  1  0
 22 27  2  0
 23 24  2  0
 24 25  1  0
 26 25  2  0
 27 26  1  0
 28 17  1  0
 29 28  2  0
 30 28  1  0
M  END
$$$$
