SEW.pdb
     RDKit          3D

 30 31  0  0  1  0  0  0  0  0999 V2000
    8.3204  -12.8745   21.1326 O   0  0  0  0  0  0  0  0  0  0  0  0
    8.3166  -13.5108   19.8869 C   0  0  0  0  0  0  0  0  0  0  0  0
    7.6457  -14.8407   19.9685 C   0  0  2  0  0  0  0  0  0  0  0  0
    6.2329  -14.5891   20.2491 N   0  0  0  0  0  0  0  0  0  0  0  0
    8.2535  -15.6666   21.0273 C   0  0  0  0  0  0  0  0  0  0  0  0
    7.5346  -15.8675   22.0725 O   0  0  0  0  0  0  0  0  0  0  0  0
    9.5582  -16.2072   20.8767 N   0  0  0  0  0  0  0  0  0  0  0  0
   10.1051  -17.0842   21.8467 C   0  0  1  0  0  0  0  0  0  0  0  0
   11.1018  -18.0819   21.4481 C   0  0  0  0  0  0  0  0  0  0  0  0
   10.7113  -19.0832   20.4223 C   0  0  0  0  0  0  0  0  0  0  0  0
   11.3546  -20.3824   20.4641 C   0  0  0  0  0  0  0  0  0  0  0  0
   10.6700  -21.4291   20.2390 O   0  0  0  0  0  0  0  0  0  0  0  0
   10.3944  -16.3332   23.1015 C   0  0  0  0  0  0  0  0  0  0  0  0
   11.1767  -15.3543   23.1149 O   0  0  0  0  0  0  0  0  0  0  0  0
   12.6956  -20.5506   20.7430 O   0  0  0  0  0  0  0  0  0  0  0  0
    9.8268  -16.6482   24.3611 N   0  0  0  0  0  0  0  0  0  0  0  0
   10.3402  -16.1751   25.6297 C   0  0  1  0  0  0  0  0  0  0  0  0
    9.8839  -14.7966   25.9658 C   0  0  0  0  0  0  0  0  0  0  0  0
    8.4066  -14.7333   25.8552 C   0  0  0  0  0  0  0  0  0  0  0  0
    7.4821  -15.7642   25.6880 C   0  0  0  0  0  0  0  0  0  0  0  0
    6.2428  -15.2882   25.6261 N   0  0  0  0  0  0  0  0  0  0  0  0
    6.2875  -13.9564   25.7461 C   0  0  0  0  0  0  0  0  0  0  0  0
    5.3090  -12.9807   25.7484 C   0  0  0  0  0  0  0  0  0  0  0  0
    5.6548  -11.6690   25.8905 C   0  0  0  0  0  0  0  0  0  0  0  0
    6.9688  -11.3153   26.0308 C   0  0  0  0  0  0  0  0  0  0  0  0
    7.9710  -12.2629   26.0329 C   0  0  0  0  0  0  0  0  0  0  0  0
    7.6070  -13.5836   25.8888 C   0  0  0  0  0  0  0  0  0  0  0  0
    9.9040  -17.1039   26.6793 C   0  0  0  0  0  0  0  0  0  0  0  0
    9.1521  -18.0586   26.4022 O   0  0  0  0  0  0  0  0  0  0  0  0
   10.3235  -16.9253   27.9779 O   0  0  0  0  0  0  0  0  0  0  0  0
  1  2  1  0
  3  2  1  0
  3  5  1  0
  3  4  1  1
  5  6  2  0
  7  5  1  0
  7  8  1  0
  8  9  1  6
  9 10  1  0
 10 11  1  0
 11 12  2  0
 11 15  1  0
 13  8  1  0
 13 14  2  0
 16 13  1  0
 17 16  1  0
 17 18  1  1
 19 18  1  0
 19 27  1  0
 20 21  1  0
 20 19  2  0
 21 22  1  0
 22 23  1  0
 22 27  2  0
 23 24  2  0
 24 25  1  0
 26 25  2  0
 27 26  1  0
 28 17  1  0
 29 28  2  0
 30 28  1  0
M  END
$$$$
