SEW.pdb
     RDKit          3D

 30 31  0  0  1  0  0  0  0  0999 V2000
    7.4318  -13.7834   21.9852 O   0  0  0  0  0  0  0  0  0  0  0  0
    6.6826  -14.7316   21.2806 C   0  0  0  0  0  0  0  0  0  0  0  0
    7.5708  -15.7400   20.6329 C   0  0  2  0  0  0  0  0  0  0  0  0
    6.7079  -16.6421   19.8717 N   0  0  0  0  0  0  0  0  0  0  0  0
    8.3431  -16.4810   21.6464 C   0  0  0  0  0  0  0  0  0  0  0  0
    7.7420  -17.4677   22.2075 O   0  0  0  0  0  0  0  0  0  0  0  0
    9.6780  -16.1139   21.9634 N   0  0  0  0  0  0  0  0  0  0  0  0
   10.4285  -16.8359   22.9249 C   0  0  1  0  0  0  0  0  0  0  0  0
   11.7871  -17.2821   22.6043 C   0  0  0  0  0  0  0  0  0  0  0  0
   12.8714  -16.2664   22.6078 C   0  0  0  0  0  0  0  0  0  0  0  0
   14.1906  -16.6818   22.1712 C   0  0  0  0  0  0  0  0  0  0  0  0
   14.3786  -17.8816   21.7968 O   0  0  0  0  0  0  0  0  0  0  0  0
   10.2384  -16.2302   24.2736 C   0  0  0  0  0  0  0  0  0  0  0  0
   10.4619  -15.0153   24.4848 O   0  0  0  0  0  0  0  0  0  0  0  0
   15.2768  -15.8313   22.1410 O   0  0  0  0  0  0  0  0  0  0  0  0
    9.7992  -16.9524   25.4109 N   0  0  0  0  0  0  0  0  0  0  0  0
    9.8537  -16.4511   26.7682 C   0  0  1  0  0  0  0  0  0  0  0  0
    8.5246  -16.4486   27.4427 C   0  0  0  0  0  0  0  0  0  0  0  0
    7.5515  -15.7169   26.5962 C   0  0  0  0  0  0  0  0  0  0  0  0
    6.6075  -16.2109   25.6962 C   0  0  0  0  0  0  0  0  0  0  0  0
    5.9283  -15.2210   25.1260 N   0  0  0  0  0  0  0  0  0  0  0  0
    6.3787  -14.0572   25.6085 C   0  0  0  0  0  0  0  0  0  0  0  0
    6.0325  -12.7421   25.3628 C   0  0  0  0  0  0  0  0  0  0  0  0
    6.6788  -11.7339   26.0155 C   0  0  0  0  0  0  0  0  0  0  0  0
    7.6700  -12.0202   26.9138 C   0  0  0  0  0  0  0  0  0  0  0  0
    8.0408  -13.3210   27.1832 C   0  0  0  0  0  0  0  0  0  0  0  0
    7.3795  -14.3290   26.5168 C   0  0  0  0  0  0  0  0  0  0  0  0
   10.7879  -17.2870   27.5318 C   0  0  0  0  0  0  0  0  0  0  0  0
   11.0108  -17.0447   28.7340 O   0  0  0  0  0  0  0  0  0  0  0  0
   11.4241  -18.3450   26.9234 O   0  0  0  0  0  0  0  0  0  0  0  0
  1  2  1  0
  3  2  1  0
  3  5  1  0
  3  4  1  1
  5  6  2  0
  7  5  1  0
  7  8  1  0
  8  9  1  6
  9 10  1  0
 10 11  1  0
 11 12  2  0
 11 15  1  0
 13  8  1  0
 13 14  2  0
 16 13  1  0
 17 16  1  0
 17 18  1  1
 19 18  1  0
 19 27  1  0
 20 21  1  0
 20 19  2  0
 21 22  1  0
 22 23  1  0
 22 27  2  0
 23 24  2  0
 24 25  1  0
 26 25  2  0
 27 26  1  0
 28 17  1  0
 29 28  2  0
 30 28  1  0
M  END
$$$$
