SEW.pdb
     RDKit          3D

 30 31  0  0  1  0  0  0  0  0999 V2000
    6.0849  -16.7879   22.4110 O   0  0  0  0  0  0  0  0  0  0  0  0
    6.5042  -15.8371   21.4745 C   0  0  0  0  0  0  0  0  0  0  0  0
    7.5559  -16.3984   20.5778 C   0  0  2  0  0  0  0  0  0  0  0  0
    6.8995  -17.3747   19.7095 N   0  0  0  0  0  0  0  0  0  0  0  0
    8.6282  -17.0321   21.3658 C   0  0  0  0  0  0  0  0  0  0  0  0
    8.5473  -18.3057   21.5121 O   0  0  0  0  0  0  0  0  0  0  0  0
    9.6866  -16.2614   21.9162 N   0  0  0  0  0  0  0  0  0  0  0  0
   10.7546  -16.8764   22.6163 C   0  0  1  0  0  0  0  0  0  0  0  0
   12.0836  -16.9473   22.0029 C   0  0  0  0  0  0  0  0  0  0  0  0
   12.6365  -15.7086   21.3969 C   0  0  0  0  0  0  0  0  0  0  0  0
   13.5693  -15.8510   20.2955 C   0  0  0  0  0  0  0  0  0  0  0  0
   14.7496  -16.2640   20.5223 O   0  0  0  0  0  0  0  0  0  0  0  0
   10.7153  -16.4760   24.0517 C   0  0  0  0  0  0  0  0  0  0  0  0
   11.5529  -15.6778   24.5335 O   0  0  0  0  0  0  0  0  0  0  0  0
   13.2423  -15.5548   18.9881 O   0  0  0  0  0  0  0  0  0  0  0  0
    9.7535  -16.9479   24.9791 N   0  0  0  0  0  0  0  0  0  0  0  0
    9.7682  -16.6474   26.3955 C   0  0  1  0  0  0  0  0  0  0  0  0
    8.4077  -16.6405   27.0042 C   0  0  0  0  0  0  0  0  0  0  0  0
    7.5159  -15.7796   26.1905 C   0  0  0  0  0  0  0  0  0  0  0  0
    6.5909  -16.1338   25.2086 C   0  0  0  0  0  0  0  0  0  0  0  0
    5.9926  -15.0585   24.7066 N   0  0  0  0  0  0  0  0  0  0  0  0
    6.4802  -13.9717   25.3158 C   0  0  0  0  0  0  0  0  0  0  0  0
    6.2159  -12.6220   25.1814 C   0  0  0  0  0  0  0  0  0  0  0  0
    6.8828  -11.7168   25.9534 C   0  0  0  0  0  0  0  0  0  0  0  0
    7.8138  -12.1407   26.8616 C   0  0  0  0  0  0  0  0  0  0  0  0
    8.1024  -13.4798   27.0220 C   0  0  0  0  0  0  0  0  0  0  0  0
    7.4211  -14.3827   26.2357 C   0  0  0  0  0  0  0  0  0  0  0  0
   10.6010  -17.6497   27.0713 C   0  0  0  0  0  0  0  0  0  0  0  0
   11.0860  -18.6014   26.4290 O   0  0  0  0  0  0  0  0  0  0  0  0
   10.8511  -17.5440   28.4205 O   0  0  0  0  0  0  0  0  0  0  0  0
  1  2  1  0
  3  2  1  0
  3  5  1  0
  3  4  1  6
  5  6  2  0
  7  5  1  0
  7  8  1  0
  8  9  1  6
  9 10  1  0
 10 11  1  0
 11 12  2  0
 11 15  1  0
 13  8  1  0
 13 14  2  0
 16 13  1  0
 17 16  1  0
 17 18  1  1
 19 18  1  0
 19 27  1  0
 20 21  1  0
 20 19  2  0
 21 22  1  0
 22 23  1  0
 22 27  2  0
 23 24  2  0
 24 25  1  0
 26 25  2  0
 27 26  1  0
 28 17  1  0
 29 28  2  0
 30 28  1  0
M  END
$$$$
