SEW.pdb
     RDKit          3D

 30 31  0  0  1  0  0  0  0  0999 V2000
    6.9348  -19.2905   24.0416 O   0  0  0  0  0  0  0  0  0  0  0  0
    6.8174  -20.1090   22.9133 C   0  0  0  0  0  0  0  0  0  0  0  0
    6.7614  -19.2936   21.6654 C   0  0  2  0  0  0  0  0  0  0  0  0
    6.7302  -20.2315   20.5441 N   0  0  0  0  0  0  0  0  0  0  0  0
    7.9313  -18.4017   21.5731 C   0  0  0  0  0  0  0  0  0  0  0  0
    9.0613  -18.9702   21.3499 O   0  0  0  0  0  0  0  0  0  0  0  0
    7.7939  -16.9955   21.7171 N   0  0  0  0  0  0  0  0  0  0  0  0
    8.9242  -16.1409   21.6832 C   0  0  1  0  0  0  0  0  0  0  0  0
    9.0701  -15.1675   20.5975 C   0  0  0  0  0  0  0  0  0  0  0  0
    7.9141  -14.2844   20.2957 C   0  0  0  0  0  0  0  0  0  0  0  0
    7.8942  -13.6091   19.0122 C   0  0  0  0  0  0  0  0  0  0  0  0
    7.3923  -14.1954   18.0026 O   0  0  0  0  0  0  0  0  0  0  0  0
    9.2221  -15.6418   23.0559 C   0  0  0  0  0  0  0  0  0  0  0  0
    8.9847  -14.4573   23.3894 O   0  0  0  0  0  0  0  0  0  0  0  0
    8.4022  -12.3406   18.8203 O   0  0  0  0  0  0  0  0  0  0  0  0
    9.7859  -16.4387   24.0830 N   0  0  0  0  0  0  0  0  0  0  0  0
   10.1250  -15.9501   25.4031 C   0  0  1  0  0  0  0  0  0  0  0  0
    9.1137  -16.3125   26.4364 C   0  0  0  0  0  0  0  0  0  0  0  0
    7.8749  -15.5332   26.1981 C   0  0  0  0  0  0  0  0  0  0  0  0
    6.6219  -15.9653   25.7639 C   0  0  0  0  0  0  0  0  0  0  0  0
    5.7728  -14.9473   25.6689 N   0  0  0  0  0  0  0  0  0  0  0  0
    6.4066  -13.8243   26.0258 C   0  0  0  0  0  0  0  0  0  0  0  0
    6.0046  -12.5047   26.1068 C   0  0  0  0  0  0  0  0  0  0  0  0
    6.8876  -11.5468   26.5105 C   0  0  0  0  0  0  0  0  0  0  0  0
    8.1717  -11.8882   26.8359 C   0  0  0  0  0  0  0  0  0  0  0  0
    8.6065  -13.1953   26.7666 C   0  0  0  0  0  0  0  0  0  0  0  0
    7.7039  -14.1520   26.3574 C   0  0  0  0  0  0  0  0  0  0  0  0
   11.4300  -16.5064   25.7801 C   0  0  0  0  0  0  0  0  0  0  0  0
   11.9315  -16.2387   26.8893 O   0  0  0  0  0  0  0  0  0  0  0  0
   12.1085  -17.3280   24.9091 O   0  0  0  0  0  0  0  0  0  0  0  0
  1  2  1  0
  3  2  1  0
  3  5  1  0
  3  4  1  6
  5  6  2  0
  7  5  1  0
  7  8  1  0
  8  9  1  6
  9 10  1  0
 10 11  1  0
 11 12  2  0
 11 15  1  0
 13  8  1  0
 13 14  2  0
 16 13  1  0
 17 16  1  0
 17 18  1  1
 19 18  1  0
 19 27  1  0
 20 21  1  0
 20 19  2  0
 21 22  1  0
 22 23  1  0
 22 27  2  0
 23 24  2  0
 24 25  1  0
 26 25  2  0
 27 26  1  0
 28 17  1  0
 29 28  2  0
 30 28  1  0
M  END
$$$$
