SEW.pdb
     RDKit          3D

 30 31  0  0  1  0  0  0  0  0999 V2000
    7.4265  -19.4986   24.9977 O   0  0  0  0  0  0  0  0  0  0  0  0
    7.4236  -20.6189   24.1600 C   0  0  0  0  0  0  0  0  0  0  0  0
    7.6458  -20.2236   22.7388 C   0  0  2  0  0  0  0  0  0  0  0  0
    7.7722  -21.4591   21.9672 N   0  0  0  0  0  0  0  0  0  0  0  0
    8.8599  -19.3974   22.6119 C   0  0  0  0  0  0  0  0  0  0  0  0
    9.9759  -20.0320   22.5727 O   0  0  0  0  0  0  0  0  0  0  0  0
    8.7778  -17.9819   22.5302 N   0  0  0  0  0  0  0  0  0  0  0  0
    9.9452  -17.1839   22.4329 C   0  0  1  0  0  0  0  0  0  0  0  0
   10.0629  -16.1918   21.3607 C   0  0  0  0  0  0  0  0  0  0  0  0
   11.2996  -15.3702   21.3067 C   0  0  0  0  0  0  0  0  0  0  0  0
   12.3197  -15.7435   20.3457 C   0  0  0  0  0  0  0  0  0  0  0  0
   12.0014  -16.4398   19.3313 O   0  0  0  0  0  0  0  0  0  0  0  0
   10.3656  -16.7351   23.7908 C   0  0  0  0  0  0  0  0  0  0  0  0
   11.4238  -16.0878   23.9696 O   0  0  0  0  0  0  0  0  0  0  0  0
   13.6448  -15.3805   20.4740 O   0  0  0  0  0  0  0  0  0  0  0  0
    9.6278  -16.9917   24.9730 N   0  0  0  0  0  0  0  0  0  0  0  0
   10.0244  -16.5533   26.2948 C   0  0  1  0  0  0  0  0  0  0  0  0
    8.8707  -16.3816   27.2227 C   0  0  0  0  0  0  0  0  0  0  0  0
    7.8044  -15.6140   26.5353 C   0  0  0  0  0  0  0  0  0  0  0  0
    6.6814  -16.0723   25.8466 C   0  0  0  0  0  0  0  0  0  0  0  0
    5.9704  -15.0581   25.3650 N   0  0  0  0  0  0  0  0  0  0  0  0
    6.5728  -13.9122   25.7028 C   0  0  0  0  0  0  0  0  0  0  0  0
    6.2684  -12.5856   25.4640 C   0  0  0  0  0  0  0  0  0  0  0  0
    7.0851  -11.6025   25.9404 C   0  0  0  0  0  0  0  0  0  0  0  0
    8.2061  -11.9255   26.6548 C   0  0  0  0  0  0  0  0  0  0  0  0
    8.5399  -13.2388   26.9117 C   0  0  0  0  0  0  0  0  0  0  0  0
    7.7060  -14.2211   26.4246 C   0  0  0  0  0  0  0  0  0  0  0  0
   10.9549  -17.5437   26.8497 C   0  0  0  0  0  0  0  0  0  0  0  0
   11.2204  -18.5827   26.2146 O   0  0  0  0  0  0  0  0  0  0  0  0
   11.5403  -17.3301   28.0769 O   0  0  0  0  0  0  0  0  0  0  0  0
  1  2  1  0
  3  2  1  0
  3  5  1  0
  3  4  1  6
  5  6  2  0
  7  5  1  0
  7  8  1  0
  8  9  1  6
  9 10  1  0
 10 11  1  0
 11 12  2  0
 11 15  1  0
 13  8  1  0
 13 14  2  0
 16 13  1  0
 17 16  1  0
 17 18  1  1
 19 18  1  0
 19 27  1  0
 20 21  1  0
 20 19  2  0
 21 22  1  0
 22 23  1  0
 22 27  2  0
 23 24  2  0
 24 25  1  0
 26 25  2  0
 27 26  1  0
 28 17  1  0
 29 28  2  0
 30 28  1  0
M  END
$$$$
