SEW.pdb
     RDKit          3D

 30 31  0  0  1  0  0  0  0  0999 V2000
    6.0645  -15.8748   22.0881 O   0  0  0  0  0  0  0  0  0  0  0  0
    6.7594  -15.1156   21.1407 C   0  0  0  0  0  0  0  0  0  0  0  0
    7.6021  -15.9873   20.2717 C   0  0  2  0  0  0  0  0  0  0  0  0
    6.6895  -16.8268   19.4968 N   0  0  0  0  0  0  0  0  0  0  0  0
    8.5116  -16.8123   21.0871 C   0  0  0  0  0  0  0  0  0  0  0  0
    8.1394  -18.0225   21.3027 O   0  0  0  0  0  0  0  0  0  0  0  0
    9.7299  -16.2822   21.5891 N   0  0  0  0  0  0  0  0  0  0  0  0
   10.6316  -17.0890   22.3273 C   0  0  1  0  0  0  0  0  0  0  0  0
   11.8208  -17.6405   21.6720 C   0  0  0  0  0  0  0  0  0  0  0  0
   12.8490  -16.6870   21.1809 C   0  0  0  0  0  0  0  0  0  0  0  0
   14.0213  -17.2333   20.5246 C   0  0  0  0  0  0  0  0  0  0  0  0
   13.9356  -17.6404   19.3239 O   0  0  0  0  0  0  0  0  0  0  0  0
   10.8416  -16.5033   23.6820 C   0  0  0  0  0  0  0  0  0  0  0  0
   11.7277  -15.6430   23.8948 O   0  0  0  0  0  0  0  0  0  0  0  0
   15.2499  -17.3409   21.1437 O   0  0  0  0  0  0  0  0  0  0  0  0
   10.0795  -16.8555   24.8234 N   0  0  0  0  0  0  0  0  0  0  0  0
   10.4879  -16.6006   26.1890 C   0  0  1  0  0  0  0  0  0  0  0  0
   10.0862  -15.2501   26.6753 C   0  0  0  0  0  0  0  0  0  0  0  0
    8.6588  -15.0201   26.3461 C   0  0  0  0  0  0  0  0  0  0  0  0
    7.6751  -15.9330   25.9666 C   0  0  0  0  0  0  0  0  0  0  0  0
    6.5147  -15.3219   25.7512 N   0  0  0  0  0  0  0  0  0  0  0  0
    6.6716  -14.0117   25.9718 C   0  0  0  0  0  0  0  0  0  0  0  0
    5.8067  -12.9366   25.8952 C   0  0  0  0  0  0  0  0  0  0  0  0
    6.2540  -11.6804   26.1819 C   0  0  0  0  0  0  0  0  0  0  0  0
    7.5575  -11.4805   26.5455 C   0  0  0  0  0  0  0  0  0  0  0  0
    8.4476  -12.5305   26.6321 C   0  0  0  0  0  0  0  0  0  0  0  0
    7.9821  -13.7936   26.3399 C   0  0  0  0  0  0  0  0  0  0  0  0
    9.8891  -17.6281   27.0494 C   0  0  0  0  0  0  0  0  0  0  0  0
    9.9438  -17.5202   28.2899 O   0  0  0  0  0  0  0  0  0  0  0  0
    9.2627  -18.7184   26.4899 O   0  0  0  0  0  0  0  0  0  0  0  0
  1  2  1  0
  3  2  1  0
  3  5  1  0
  3  4  1  1
  5  6  2  0
  7  5  1  0
  7  8  1  0
  8  9  1  6
  9 10  1  0
 10 11  1  0
 11 12  2  0
 11 15  1  0
 13  8  1  0
 13 14  2  0
 16 13  1  0
 17 16  1  0
 17 18  1  1
 19 18  1  0
 19 27  1  0
 20 21  1  0
 20 19  2  0
 21 22  1  0
 22 23  1  0
 22 27  2  0
 23 24  2  0
 24 25  1  0
 26 25  2  0
 27 26  1  0
 28 17  1  0
 29 28  2  0
 30 28  1  0
M  END
$$$$
