SEW.pdb
     RDKit          3D

 30 31  0  0  1  0  0  0  0  0999 V2000
    6.3302  -15.2578   22.1726 O   0  0  0  0  0  0  0  0  0  0  0  0
    6.8028  -15.1574   20.8598 C   0  0  0  0  0  0  0  0  0  0  0  0
    7.6150  -16.3533   20.4917 C   0  0  2  0  0  0  0  0  0  0  0  0
    6.6751  -17.4402   20.2209 N   0  0  0  0  0  0  0  0  0  0  0  0
    8.5358  -16.7141   21.5846 C   0  0  0  0  0  0  0  0  0  0  0  0
    8.2499  -17.7827   22.2374 O   0  0  0  0  0  0  0  0  0  0  0  0
    9.6739  -15.9165   21.8773 N   0  0  0  0  0  0  0  0  0  0  0  0
   10.6820  -16.3738   22.7624 C   0  0  1  0  0  0  0  0  0  0  0  0
   12.0916  -16.2824   22.3719 C   0  0  0  0  0  0  0  0  0  0  0  0
   13.1025  -16.9019   23.2672 C   0  0  0  0  0  0  0  0  0  0  0  0
   14.4957  -16.8260   22.8710 C   0  0  0  0  0  0  0  0  0  0  0  0
   14.9832  -17.7249   22.1165 O   0  0  0  0  0  0  0  0  0  0  0  0
   10.3593  -15.9552   24.1562 C   0  0  0  0  0  0  0  0  0  0  0  0
   10.5404  -14.7781   24.5464 O   0  0  0  0  0  0  0  0  0  0  0  0
   15.3406  -15.8136   23.2775 O   0  0  0  0  0  0  0  0  0  0  0  0
    9.8320  -16.8257   25.1422 N   0  0  0  0  0  0  0  0  0  0  0  0
    9.8701  -16.5657   26.5661 C   0  0  1  0  0  0  0  0  0  0  0  0
    8.5235  -16.6124   27.2035 C   0  0  0  0  0  0  0  0  0  0  0  0
    7.6121  -15.6922   26.4815 C   0  0  0  0  0  0  0  0  0  0  0  0
    6.6340  -15.9753   25.5284 C   0  0  0  0  0  0  0  0  0  0  0  0
    6.0353  -14.8634   25.1145 N   0  0  0  0  0  0  0  0  0  0  0  0
    6.5743  -13.8206   25.7564 C   0  0  0  0  0  0  0  0  0  0  0  0
    6.3323  -12.4609   25.7074 C   0  0  0  0  0  0  0  0  0  0  0  0
    7.0542  -11.6115   26.4933 C   0  0  0  0  0  0  0  0  0  0  0  0
    8.0184  -12.1014   27.3310 C   0  0  0  0  0  0  0  0  0  0  0  0
    8.2860  -13.4523   27.4052 C   0  0  0  0  0  0  0  0  0  0  0  0
    7.5491  -14.2984   26.6060 C   0  0  0  0  0  0  0  0  0  0  0  0
   10.7432  -17.5645   27.1944 C   0  0  0  0  0  0  0  0  0  0  0  0
   11.2519  -18.4745   26.5113 O   0  0  0  0  0  0  0  0  0  0  0  0
   11.0053  -17.5017   28.5441 O   0  0  0  0  0  0  0  0  0  0  0  0
  1  2  1  0
  3  2  1  0
  3  5  1  0
  3  4  1  1
  5  6  2  0
  7  5  1  0
  7  8  1  0
  8  9  1  6
  9 10  1  0
 10 11  1  0
 11 12  2  0
 11 15  1  0
 13  8  1  0
 13 14  2  0
 16 13  1  0
 17 16  1  0
 17 18  1  1
 19 18  1  0
 19 27  1  0
 20 21  1  0
 20 19  2  0
 21 22  1  0
 22 23  1  0
 22 27  2  0
 23 24  2  0
 24 25  1  0
 26 25  2  0
 27 26  1  0
 28 17  1  0
 29 28  2  0
 30 28  1  0
M  END
$$$$
