SEW.pdb
     RDKit          3D

 30 31  0  0  1  0  0  0  0  0999 V2000
    5.8986  -15.4537   22.2252 O   0  0  0  0  0  0  0  0  0  0  0  0
    6.6313  -14.9244   21.1576 C   0  0  0  0  0  0  0  0  0  0  0  0
    7.3984  -15.9932   20.4544 C   0  0  2  0  0  0  0  0  0  0  0  0
    6.4198  -16.9377   19.9175 N   0  0  0  0  0  0  0  0  0  0  0  0
    8.3246  -16.6662   21.3828 C   0  0  0  0  0  0  0  0  0  0  0  0
    7.9896  -17.8470   21.7611 O   0  0  0  0  0  0  0  0  0  0  0  0
    9.5188  -16.0307   21.8155 N   0  0  0  0  0  0  0  0  0  0  0  0
   10.4834  -16.7282   22.5849 C   0  0  1  0  0  0  0  0  0  0  0  0
   11.8189  -16.9719   22.0328 C   0  0  0  0  0  0  0  0  0  0  0  0
   12.7397  -17.8485   22.8017 C   0  0  0  0  0  0  0  0  0  0  0  0
   14.1005  -17.9899   22.3203 C   0  0  0  0  0  0  0  0  0  0  0  0
   15.0677  -17.9100   23.1408 O   0  0  0  0  0  0  0  0  0  0  0  0
   10.4338  -16.2633   24.0003 C   0  0  0  0  0  0  0  0  0  0  0  0
   10.9009  -15.1520   24.3428 O   0  0  0  0  0  0  0  0  0  0  0  0
   14.4116  -18.2083   20.9938 O   0  0  0  0  0  0  0  0  0  0  0  0
    9.8692  -17.0145   25.0609 N   0  0  0  0  0  0  0  0  0  0  0  0
    9.9627  -16.6513   26.4594 C   0  0  1  0  0  0  0  0  0  0  0  0
    8.6430  -16.6551   27.1523 C   0  0  0  0  0  0  0  0  0  0  0  0
    7.7199  -15.7357   26.4442 C   0  0  0  0  0  0  0  0  0  0  0  0
    6.6522  -16.0267   25.5954 C   0  0  0  0  0  0  0  0  0  0  0  0
    6.0756  -14.9132   25.1550 N   0  0  0  0  0  0  0  0  0  0  0  0
    6.7171  -13.8616   25.6772 C   0  0  0  0  0  0  0  0  0  0  0  0
    6.5386  -12.4969   25.5537 C   0  0  0  0  0  0  0  0  0  0  0  0
    7.3649  -11.6386   26.2177 C   0  0  0  0  0  0  0  0  0  0  0  0
    8.3712  -12.1245   27.0066 C   0  0  0  0  0  0  0  0  0  0  0  0
    8.5779  -13.4804   27.1526 C   0  0  0  0  0  0  0  0  0  0  0  0
    7.7357  -14.3354   26.4763 C   0  0  0  0  0  0  0  0  0  0  0  0
   10.8659  -17.5992   27.1231 C   0  0  0  0  0  0  0  0  0  0  0  0
   11.3626  -18.5474   26.4847 O   0  0  0  0  0  0  0  0  0  0  0  0
   11.1698  -17.4458   28.4566 O   0  0  0  0  0  0  0  0  0  0  0  0
  1  2  1  0
  3  2  1  0
  3  5  1  0
  3  4  1  1
  5  6  2  0
  7  5  1  0
  7  8  1  0
  8  9  1  6
  9 10  1  0
 10 11  1  0
 11 12  2  0
 11 15  1  0
 13  8  1  0
 13 14  2  0
 16 13  1  0
 17 16  1  0
 17 18  1  1
 19 18  1  0
 19 27  1  0
 20 21  1  0
 20 19  2  0
 21 22  1  0
 22 23  1  0
 22 27  2  0
 23 24  2  0
 24 25  1  0
 26 25  2  0
 27 26  1  0
 28 17  1  0
 29 28  2  0
 30 28  1  0
M  END
$$$$
