SEW.pdb
     RDKit          3D

 30 31  0  0  1  0  0  0  0  0999 V2000
    6.0898  -14.8203   22.3832 O   0  0  0  0  0  0  0  0  0  0  0  0
    6.6627  -14.5408   21.1380 C   0  0  0  0  0  0  0  0  0  0  0  0
    7.2038  -15.7804   20.5088 C   0  0  2  0  0  0  0  0  0  0  0  0
    6.0592  -16.6355   20.1978 N   0  0  0  0  0  0  0  0  0  0  0  0
    8.1377  -16.4631   21.4223 C   0  0  0  0  0  0  0  0  0  0  0  0
    7.7239  -17.5650   21.9366 O   0  0  0  0  0  0  0  0  0  0  0  0
    9.4211  -15.9209   21.6979 N   0  0  0  0  0  0  0  0  0  0  0  0
   10.3864  -16.6568   22.4298 C   0  0  1  0  0  0  0  0  0  0  0  0
   11.7015  -16.9225   21.8402 C   0  0  0  0  0  0  0  0  0  0  0  0
   12.6540  -17.7598   22.6143 C   0  0  0  0  0  0  0  0  0  0  0  0
   13.9993  -17.9125   22.0944 C   0  0  0  0  0  0  0  0  0  0  0  0
   14.8934  -17.0661   22.4093 O   0  0  0  0  0  0  0  0  0  0  0  0
   10.3830  -16.2184   23.8546 C   0  0  0  0  0  0  0  0  0  0  0  0
   10.8578  -15.1118   24.2019 O   0  0  0  0  0  0  0  0  0  0  0  0
   14.3710  -18.9447   21.2574 O   0  0  0  0  0  0  0  0  0  0  0  0
    9.8568  -16.9913   24.9193 N   0  0  0  0  0  0  0  0  0  0  0  0
    9.9311  -16.6159   26.3158 C   0  0  1  0  0  0  0  0  0  0  0  0
    8.6150  -16.6931   27.0112 C   0  0  0  0  0  0  0  0  0  0  0  0
    7.6387  -15.8330   26.3001 C   0  0  0  0  0  0  0  0  0  0  0  0
    6.5842  -16.1908   25.4603 C   0  0  0  0  0  0  0  0  0  0  0  0
    5.9444  -15.1152   25.0131 N   0  0  0  0  0  0  0  0  0  0  0  0
    6.5295  -14.0247   25.5218 C   0  0  0  0  0  0  0  0  0  0  0  0
    6.2749  -12.6733   25.3867 C   0  0  0  0  0  0  0  0  0  0  0  0
    7.0559  -11.7642   26.0379 C   0  0  0  0  0  0  0  0  0  0  0  0
    8.0918  -12.1861   26.8253 C   0  0  0  0  0  0  0  0  0  0  0  0
    8.3741  -13.5270   26.9826 C   0  0  0  0  0  0  0  0  0  0  0  0
    7.5770  -14.4337   26.3192 C   0  0  0  0  0  0  0  0  0  0  0  0
   10.8893  -17.5058   26.9826 C   0  0  0  0  0  0  0  0  0  0  0  0
   11.1498  -17.3568   28.1923 O   0  0  0  0  0  0  0  0  0  0  0  0
   11.5066  -18.5115   26.2743 O   0  0  0  0  0  0  0  0  0  0  0  0
  1  2  1  0
  3  2  1  0
  3  5  1  0
  3  4  1  1
  5  6  2  0
  7  5  1  0
  7  8  1  0
  8  9  1  6
  9 10  1  0
 10 11  1  0
 11 12  2  0
 11 15  1  0
 13  8  1  0
 13 14  2  0
 16 13  1  0
 17 16  1  0
 17 18  1  1
 19 18  1  0
 19 27  1  0
 20 21  1  0
 20 19  2  0
 21 22  1  0
 22 23  1  0
 22 27  2  0
 23 24  2  0
 24 25  1  0
 26 25  2  0
 27 26  1  0
 28 17  1  0
 29 28  2  0
 30 28  1  0
M  END
$$$$
