KKP.pdb
     RDKit          3D

 26 26  0  0  1  0  0  0  0  0999 V2000
    6.7367  -17.2607   20.0878 N   0  0  0  0  0  0  0  0  0  0  0  0
    7.3698  -16.1116   20.7026 C   0  0  1  0  0  0  0  0  0  0  0  0
    6.9942  -14.8391   19.9452 C   0  0  0  0  0  0  0  0  0  0  0  0
    8.1344  -14.5436   19.0178 C   0  0  0  0  0  0  0  0  0  0  0  0
    7.8886  -13.3663   18.1311 C   0  0  0  0  0  0  0  0  0  0  0  0
    8.9704  -13.0222   17.1670 C   0  0  0  0  0  0  0  0  0  0  0  0
    8.6184  -11.9280   16.3257 N   0  0  0  0  0  0  0  0  0  0  0  0
    6.9693  -16.0162   22.1458 C   0  0  0  0  0  0  0  0  0  0  0  0
    5.8477  -15.5588   22.4834 O   0  0  0  0  0  0  0  0  0  0  0  0
    7.8211  -16.4302   23.1893 N   0  0  0  0  0  0  0  0  0  0  0  0
    7.3544  -16.4708   24.6190 C   0  0  1  0  0  0  0  0  0  0  0  0
    7.6983  -17.8579   25.1264 C   0  0  0  0  0  0  0  0  0  0  0  0
    7.4821  -18.0104   26.5799 C   0  0  0  0  0  0  0  0  0  0  0  0
    7.8704  -19.3855   27.0953 C   0  0  0  0  0  0  0  0  0  0  0  0
    7.6410  -19.4569   28.6082 C   0  0  0  0  0  0  0  0  0  0  0  0
    7.9656  -20.7606   29.1144 N   0  0  0  0  0  0  0  0  0  0  0  0
    8.2716  -15.5066   25.2615 C   0  0  0  0  0  0  0  0  0  0  0  0
    9.4719  -15.4837   24.7742 O   0  0  0  0  0  0  0  0  0  0  0  0
    8.0566  -14.6028   26.3129 N   0  0  0  0  0  0  0  0  0  0  0  0
    6.7328  -14.5571   26.9928 C   0  0  0  0  0  0  0  0  0  0  0  0
    6.6035  -13.1706   27.5547 C   0  0  0  0  0  0  0  0  0  0  0  0
    7.8533  -12.4516   27.1217 C   0  0  0  0  0  0  0  0  0  0  0  0
    8.8211  -13.6360   27.0242 C   0  0  1  0  0  0  0  0  0  0  0  0
    9.0617  -14.0674   28.4526 C   0  0  0  0  0  0  0  0  0  0  0  0
    8.4847  -15.0827   28.9037 O   0  0  0  0  0  0  0  0  0  0  0  0
    9.9047  -13.3858   29.3114 O   0  0  0  0  0  0  0  0  0  0  0  0
  2  8  1  0
  2  1  1  6
  3  4  1  0
  3  2  1  0
  5  6  1  0
  5  4  1  0
  7  6  1  0
  8  9  2  0
 10 11  1  0
 10  8  1  0
 11 12  1  1
 13 12  1  0
 14 13  1  0
 15 14  1  0
 16 15  1  0
 17 11  1  0
 18 17  2  0
 19 17  1  0
 20 19  1  0
 21 20  1  0
 21 22  1  0
 22 23  1  0
 23 19  1  0
 23 24  1  1
 25 24  2  0
 26 24  1  0
M  END
$$$$
