KKP.pdb
     RDKit          3D

 26 26  0  0  1  0  0  0  0  0999 V2000
    6.0719  -16.9109   20.0345 N   0  0  0  0  0  0  0  0  0  0  0  0
    6.9999  -16.1260   20.8230 C   0  0  1  0  0  0  0  0  0  0  0  0
    6.9510  -14.6628   20.3864 C   0  0  0  0  0  0  0  0  0  0  0  0
    7.7279  -14.5742   19.1073 C   0  0  0  0  0  0  0  0  0  0  0  0
    7.7247  -13.2070   18.5042 C   0  0  0  0  0  0  0  0  0  0  0  0
    8.3328  -13.0753   17.1511 C   0  0  0  0  0  0  0  0  0  0  0  0
    8.1617  -11.7710   16.6049 N   0  0  0  0  0  0  0  0  0  0  0  0
    6.6767  -16.2625   22.2822 C   0  0  0  0  0  0  0  0  0  0  0  0
    5.4912  -16.2002   22.6970 O   0  0  0  0  0  0  0  0  0  0  0  0
    7.6752  -16.4659   23.2556 N   0  0  0  0  0  0  0  0  0  0  0  0
    7.3437  -16.5430   24.7211 C   0  0  1  0  0  0  0  0  0  0  0  0
    7.7911  -17.9193   25.1738 C   0  0  0  0  0  0  0  0  0  0  0  0
    7.6991  -18.1035   26.6368 C   0  0  0  0  0  0  0  0  0  0  0  0
    8.2671  -19.4327   27.1032 C   0  0  0  0  0  0  0  0  0  0  0  0
    8.0860  -19.5721   28.6180 C   0  0  0  0  0  0  0  0  0  0  0  0
    8.4982  -20.8726   29.0655 N   0  0  0  0  0  0  0  0  0  0  0  0
    8.2742  -15.5470   25.2919 C   0  0  0  0  0  0  0  0  0  0  0  0
    9.4518  -15.5245   24.7520 O   0  0  0  0  0  0  0  0  0  0  0  0
    8.0924  -14.6126   26.3227 N   0  0  0  0  0  0  0  0  0  0  0  0
    6.7923  -14.5494   27.0458 C   0  0  0  0  0  0  0  0  0  0  0  0
    6.6779  -13.1471   27.5702 C   0  0  0  0  0  0  0  0  0  0  0  0
    7.9098  -12.4386   27.0734 C   0  0  0  0  0  0  0  0  0  0  0  0
    8.8775  -13.6232   26.9782 C   0  0  1  0  0  0  0  0  0  0  0  0
    9.1682  -14.0112   28.4097 C   0  0  0  0  0  0  0  0  0  0  0  0
    9.8460  -13.2506   29.1373 O   0  0  0  0  0  0  0  0  0  0  0  0
    8.7165  -15.1896   28.9753 O   0  0  0  0  0  0  0  0  0  0  0  0
  2  8  1  0
  2  1  1  6
  3  4  1  0
  3  2  1  0
  5  6  1  0
  5  4  1  0
  7  6  1  0
  8  9  2  0
 10 11  1  0
 10  8  1  0
 11 12  1  1
 13 12  1  0
 14 13  1  0
 15 14  1  0
 16 15  1  0
 17 11  1  0
 18 17  2  0
 19 17  1  0
 20 19  1  0
 21 20  1  0
 21 22  1  0
 22 23  1  0
 23 19  1  0
 23 24  1  1
 25 24  2  0
 26 24  1  0
M  END
$$$$
