KKP.pdb
     RDKit          3D

 26 26  0  0  1  0  0  0  0  0999 V2000
    7.1278  -20.7632   18.0750 N   0  0  0  0  0  0  0  0  0  0  0  0
    7.1294  -20.4888   19.4976 C   0  0  1  0  0  0  0  0  0  0  0  0
    7.7711  -21.6505   20.2543 C   0  0  0  0  0  0  0  0  0  0  0  0
    6.8368  -22.8150   20.1181 C   0  0  0  0  0  0  0  0  0  0  0  0
    7.3382  -24.0586   20.7774 C   0  0  0  0  0  0  0  0  0  0  0  0
    6.4761  -25.2675   20.6606 C   0  0  0  0  0  0  0  0  0  0  0  0
    7.1016  -26.4323   21.1905 N   0  0  0  0  0  0  0  0  0  0  0  0
    7.8539  -19.2034   19.7714 C   0  0  0  0  0  0  0  0  0  0  0  0
    9.0719  -19.0676   19.4899 O   0  0  0  0  0  0  0  0  0  0  0  0
    7.2135  -18.0909   20.3529 N   0  0  0  0  0  0  0  0  0  0  0  0
    7.9443  -16.7984   20.5958 C   0  0  1  0  0  0  0  0  0  0  0  0
    6.8708  -15.7605   20.8605 C   0  0  0  0  0  0  0  0  0  0  0  0
    7.4170  -14.4008   21.0488 C   0  0  0  0  0  0  0  0  0  0  0  0
    7.8358  -13.7451   19.7443 C   0  0  0  0  0  0  0  0  0  0  0  0
    8.4401  -12.3660   20.0268 C   0  0  0  0  0  0  0  0  0  0  0  0
    8.8266  -11.7165   18.8061 N   0  0  0  0  0  0  0  0  0  0  0  0
    8.6353  -17.0795   21.8714 C   0  0  0  0  0  0  0  0  0  0  0  0
    8.0476  -17.9470   22.6335 O   0  0  0  0  0  0  0  0  0  0  0  0
    9.8312  -16.5654   22.3951 N   0  0  0  0  0  0  0  0  0  0  0  0
   10.4357  -15.3415   21.8005 C   0  0  0  0  0  0  0  0  0  0  0  0
   11.9059  -15.4208   22.0951 C   0  0  0  0  0  0  0  0  0  0  0  0
   12.0946  -16.7321   22.8101 C   0  0  0  0  0  0  0  0  0  0  0  0
   10.7164  -16.8789   23.4643 C   0  0  1  0  0  0  0  0  0  0  0  0
   10.6757  -15.8189   24.5408 C   0  0  0  0  0  0  0  0  0  0  0  0
   10.0613  -14.7471   24.3387 O   0  0  0  0  0  0  0  0  0  0  0  0
   11.2957  -15.9701   25.7678 O   0  0  0  0  0  0  0  0  0  0  0  0
  2  8  1  0
  2  1  1  6
  3  4  1  0
  3  2  1  0
  5  6  1  0
  5  4  1  0
  7  6  1  0
  8  9  2  0
 10 11  1  0
 10  8  1  0
 11 12  1  1
 13 12  1  0
 14 13  1  0
 15 14  1  0
 16 15  1  0
 17 11  1  0
 18 17  2  0
 19 17  1  0
 20 19  1  0
 21 20  1  0
 21 22  1  0
 22 23  1  0
 23 19  1  0
 23 24  1  1
 25 24  2  0
 26 24  1  0
M  END
$$$$
