KKP.pdb
     RDKit          3D

 26 26  0  0  1  0  0  0  0  0999 V2000
    8.6499  -15.3948   20.0779 N   0  0  0  0  0  0  0  0  0  0  0  0
    8.2738  -14.1439   20.7045 C   0  0  1  0  0  0  0  0  0  0  0  0
    7.2503  -13.4113   19.8386 C   0  0  0  0  0  0  0  0  0  0  0  0
    7.9923  -12.9065   18.6378 C   0  0  0  0  0  0  0  0  0  0  0  0
    7.6873  -13.6671   17.3884 C   0  0  0  0  0  0  0  0  0  0  0  0
    8.3359  -13.1814   16.1387 C   0  0  0  0  0  0  0  0  0  0  0  0
    7.8511  -13.8537   14.9803 N   0  0  0  0  0  0  0  0  0  0  0  0
    7.7287  -14.4019   22.0788 C   0  0  0  0  0  0  0  0  0  0  0  0
    7.2733  -13.4677   22.7866 O   0  0  0  0  0  0  0  0  0  0  0  0
    7.6987  -15.6927   22.6434 N   0  0  0  0  0  0  0  0  0  0  0  0
    7.1853  -15.9320   24.0372 C   0  0  1  0  0  0  0  0  0  0  0  0
    7.2396  -17.4331   24.2452 C   0  0  0  0  0  0  0  0  0  0  0  0
    7.0336  -17.8280   25.6539 C   0  0  0  0  0  0  0  0  0  0  0  0
    7.2070  -19.3197   25.8821 C   0  0  0  0  0  0  0  0  0  0  0  0
    7.0581  -19.6377   27.3732 C   0  0  0  0  0  0  0  0  0  0  0  0
    7.1360  -21.0523   27.6054 N   0  0  0  0  0  0  0  0  0  0  0  0
    8.2482  -15.3160   24.8584 C   0  0  0  0  0  0  0  0  0  0  0  0
    9.4575  -15.6297   24.5147 O   0  0  0  0  0  0  0  0  0  0  0  0
    8.1662  -14.4388   25.9503 N   0  0  0  0  0  0  0  0  0  0  0  0
    6.8343  -13.9986   26.4498 C   0  0  0  0  0  0  0  0  0  0  0  0
    7.0594  -12.6710   27.1142 C   0  0  0  0  0  0  0  0  0  0  0  0
    8.5225  -12.3753   26.9187 C   0  0  0  0  0  0  0  0  0  0  0  0
    9.0744  -13.8030   26.8424 C   0  0  1  0  0  0  0  0  0  0  0  0
    8.9436  -14.3520   28.2445 C   0  0  0  0  0  0  0  0  0  0  0  0
    8.0256  -15.1589   28.5158 O   0  0  0  0  0  0  0  0  0  0  0  0
    9.8025  -14.0037   29.2709 O   0  0  0  0  0  0  0  0  0  0  0  0
  2  8  1  0
  2  1  1  6
  3  4  1  0
  3  2  1  0
  5  6  1  0
  5  4  1  0
  7  6  1  0
  8  9  2  0
 10 11  1  0
 10  8  1  0
 11 12  1  1
 13 12  1  0
 14 13  1  0
 15 14  1  0
 16 15  1  0
 17 11  1  0
 18 17  2  0
 19 17  1  0
 20 19  1  0
 21 20  1  0
 21 22  1  0
 22 23  1  0
 23 19  1  0
 23 24  1  1
 25 24  2  0
 26 24  1  0
M  END
$$$$
