KKP.pdb
     RDKit          3D

 26 26  0  0  1  0  0  0  0  0999 V2000
    9.1424  -16.1040   19.8628 N   0  0  0  0  0  0  0  0  0  0  0  0
    8.6518  -14.8219   20.3257 C   0  0  1  0  0  0  0  0  0  0  0  0
    7.7826  -14.1740   19.2492 C   0  0  0  0  0  0  0  0  0  0  0  0
    8.5544  -14.2651   17.9672 C   0  0  0  0  0  0  0  0  0  0  0  0
    7.8078  -13.7361   16.7859 C   0  0  0  0  0  0  0  0  0  0  0  0
    8.5108  -13.7939   15.4742 C   0  0  0  0  0  0  0  0  0  0  0  0
    7.6699  -13.4072   14.3915 N   0  0  0  0  0  0  0  0  0  0  0  0
    7.8839  -14.9971   21.6031 C   0  0  0  0  0  0  0  0  0  0  0  0
    6.8008  -14.3903   21.8024 O   0  0  0  0  0  0  0  0  0  0  0  0
    8.3319  -15.8431   22.6372 N   0  0  0  0  0  0  0  0  0  0  0  0
    7.5808  -15.9681   23.9349 C   0  0  1  0  0  0  0  0  0  0  0  0
    7.5945  -17.4449   24.2793 C   0  0  0  0  0  0  0  0  0  0  0  0
    7.1565  -17.7183   25.6635 C   0  0  0  0  0  0  0  0  0  0  0  0
    7.2803  -19.1833   26.0452 C   0  0  0  0  0  0  0  0  0  0  0  0
    6.6727  -19.4115   27.4328 C   0  0  0  0  0  0  0  0  0  0  0  0
    6.6600  -20.8088   27.7628 N   0  0  0  0  0  0  0  0  0  0  0  0
    8.4841  -15.2696   24.8729 C   0  0  0  0  0  0  0  0  0  0  0  0
    9.7473  -15.4818   24.6777 O   0  0  0  0  0  0  0  0  0  0  0  0
    8.2008  -14.4058   25.9416 N   0  0  0  0  0  0  0  0  0  0  0  0
    6.7867  -14.1260   26.3144 C   0  0  0  0  0  0  0  0  0  0  0  0
    6.7923  -12.7795   26.9788 C   0  0  0  0  0  0  0  0  0  0  0  0
    8.2217  -12.3122   26.9107 C   0  0  0  0  0  0  0  0  0  0  0  0
    8.9433  -13.6643   26.9026 C   0  0  1  0  0  0  0  0  0  0  0  0
    8.7526  -14.2215   28.2945 C   0  0  0  0  0  0  0  0  0  0  0  0
    7.9033  -15.1188   28.4968 O   0  0  0  0  0  0  0  0  0  0  0  0
    9.4817  -13.7843   29.3853 O   0  0  0  0  0  0  0  0  0  0  0  0
  2  8  1  0
  2  1  1  6
  3  4  1  0
  3  2  1  0
  5  6  1  0
  5  4  1  0
  7  6  1  0
  8  9  2  0
 10 11  1  0
 10  8  1  0
 11 12  1  1
 13 12  1  0
 14 13  1  0
 15 14  1  0
 16 15  1  0
 17 11  1  0
 18 17  2  0
 19 17  1  0
 20 19  1  0
 21 20  1  0
 21 22  1  0
 22 23  1  0
 23 19  1  0
 23 24  1  1
 25 24  2  0
 26 24  1  0
M  END
$$$$
