KKP.pdb
     RDKit          3D

 26 26  0  0  1  0  0  0  0  0999 V2000
    4.1377  -19.9763   18.9075 N   0  0  0  0  0  0  0  0  0  0  0  0
    5.4778  -20.0987   19.4443 C   0  0  1  0  0  0  0  0  0  0  0  0
    6.5059  -19.7358   18.3741 C   0  0  0  0  0  0  0  0  0  0  0  0
    6.0672  -20.4185   17.1136 C   0  0  0  0  0  0  0  0  0  0  0  0
    7.0495  -20.2885   15.9952 C   0  0  0  0  0  0  0  0  0  0  0  0
    6.6182  -20.8068   14.6672 C   0  0  0  0  0  0  0  0  0  0  0  0
    7.6610  -20.7496   13.6987 N   0  0  0  0  0  0  0  0  0  0  0  0
    5.6283  -19.2225   20.6533 C   0  0  0  0  0  0  0  0  0  0  0  0
    5.1033  -18.0810   20.7020 O   0  0  0  0  0  0  0  0  0  0  0  0
    6.3592  -19.6289   21.7876 N   0  0  0  0  0  0  0  0  0  0  0  0
    6.5192  -18.7325   22.9854 C   0  0  1  0  0  0  0  0  0  0  0  0
    6.8555  -19.6495   24.1454 C   0  0  0  0  0  0  0  0  0  0  0  0
    7.2299  -18.9151   25.3714 C   0  0  0  0  0  0  0  0  0  0  0  0
    7.6607  -19.8323   26.5029 C   0  0  0  0  0  0  0  0  0  0  0  0
    8.0787  -18.9977   27.7175 C   0  0  0  0  0  0  0  0  0  0  0  0
    8.4115  -19.8427   28.8295 N   0  0  0  0  0  0  0  0  0  0  0  0
    7.7370  -17.9740   22.6319 C   0  0  0  0  0  0  0  0  0  0  0  0
    8.5389  -18.5760   21.8113 O   0  0  0  0  0  0  0  0  0  0  0  0
    8.1695  -16.7013   23.0342 N   0  0  0  0  0  0  0  0  0  0  0  0
    7.4719  -15.9979   24.1458 C   0  0  0  0  0  0  0  0  0  0  0  0
    7.6993  -14.5317   23.9154 C   0  0  0  0  0  0  0  0  0  0  0  0
    8.4839  -14.4511   22.6331 C   0  0  0  0  0  0  0  0  0  0  0  0
    9.2118  -15.7989   22.6817 C   0  0  1  0  0  0  0  0  0  0  0  0
   10.2216  -15.6618   23.7979 C   0  0  0  0  0  0  0  0  0  0  0  0
    9.9641  -16.1232   24.9329 O   0  0  0  0  0  0  0  0  0  0  0  0
   11.4451  -15.0389   23.6318 O   0  0  0  0  0  0  0  0  0  0  0  0
  2  8  1  0
  2  1  1  6
  3  4  1  0
  3  2  1  0
  5  6  1  0
  5  4  1  0
  7  6  1  0
  8  9  2  0
 10 11  1  0
 10  8  1  0
 11 12  1  1
 13 12  1  0
 14 13  1  0
 15 14  1  0
 16 15  1  0
 17 11  1  0
 18 17  2  0
 19 17  1  0
 20 19  1  0
 21 20  1  0
 21 22  1  0
 22 23  1  0
 23 19  1  0
 23 24  1  1
 25 24  2  0
 26 24  1  0
M  END
$$$$
