KKP.pdb
     RDKit          3D

 26 26  0  0  1  0  0  0  0  0999 V2000
    4.9932  -18.7971   21.2516 N   0  0  0  0  0  0  0  0  0  0  0  0
    6.1096  -17.9392   21.5930 C   0  0  1  0  0  0  0  0  0  0  0  0
    6.1638  -16.7461   20.6402 C   0  0  0  0  0  0  0  0  0  0  0  0
    7.1272  -17.1139   19.5521 C   0  0  0  0  0  0  0  0  0  0  0  0
    8.4198  -16.3680   19.6265 C   0  0  0  0  0  0  0  0  0  0  0  0
    9.3478  -16.5283   18.4726 C   0  0  0  0  0  0  0  0  0  0  0  0
   10.4510  -15.6295   18.5359 N   0  0  0  0  0  0  0  0  0  0  0  0
    5.9900  -17.4841   23.0180 C   0  0  0  0  0  0  0  0  0  0  0  0
    4.9490  -16.9168   23.4372 O   0  0  0  0  0  0  0  0  0  0  0  0
    7.0284  -17.6665   23.9531 N   0  0  0  0  0  0  0  0  0  0  0  0
    6.9834  -17.0301   25.3157 C   0  0  1  0  0  0  0  0  0  0  0  0
    7.9295  -17.8398   26.1810 C   0  0  0  0  0  0  0  0  0  0  0  0
    7.2790  -19.0075   26.8103 C   0  0  0  0  0  0  0  0  0  0  0  0
    8.2298  -19.8239   27.6685 C   0  0  0  0  0  0  0  0  0  0  0  0
    7.5239  -21.0891   28.1662 C   0  0  0  0  0  0  0  0  0  0  0  0
    8.4348  -21.9344   28.8853 N   0  0  0  0  0  0  0  0  0  0  0  0
    7.6099  -15.7175   25.0545 C   0  0  0  0  0  0  0  0  0  0  0  0
    8.3406  -15.6618   23.9860 O   0  0  0  0  0  0  0  0  0  0  0  0
    7.5403  -14.5133   25.7713 N   0  0  0  0  0  0  0  0  0  0  0  0
    6.6713  -14.4166   26.9765 C   0  0  0  0  0  0  0  0  0  0  0  0
    6.3140  -12.9647   27.1139 C   0  0  0  0  0  0  0  0  0  0  0  0
    6.9582  -12.2867   25.9341 C   0  0  0  0  0  0  0  0  0  0  0  0
    8.1459  -13.2275   25.7030 C   0  0  1  0  0  0  0  0  0  0  0  0
    9.0700  -12.9916   26.8754 C   0  0  0  0  0  0  0  0  0  0  0  0
    9.7568  -11.9462   26.9285 O   0  0  0  0  0  0  0  0  0  0  0  0
    9.2035  -13.8889   27.9193 O   0  0  0  0  0  0  0  0  0  0  0  0
  2  8  1  0
  2  1  1  6
  3  4  1  0
  3  2  1  0
  5  6  1  0
  5  4  1  0
  7  6  1  0
  8  9  2  0
 10 11  1  0
 10  8  1  0
 11 12  1  1
 13 12  1  0
 14 13  1  0
 15 14  1  0
 16 15  1  0
 17 11  1  0
 18 17  2  0
 19 17  1  0
 20 19  1  0
 21 20  1  0
 21 22  1  0
 22 23  1  0
 23 19  1  0
 23 24  1  1
 25 24  2  0
 26 24  1  0
M  END
$$$$
