KKP.pdb
     RDKit          3D

 26 26  0  0  1  0  0  0  0  0999 V2000
    7.3446  -15.8138   19.7305 N   0  0  0  0  0  0  0  0  0  0  0  0
    8.0380  -14.8284   20.5349 C   0  0  1  0  0  0  0  0  0  0  0  0
    7.7953  -13.4287   19.9728 C   0  0  0  0  0  0  0  0  0  0  0  0
    8.5826  -13.3388   18.7002 C   0  0  0  0  0  0  0  0  0  0  0  0
    7.8150  -13.7757   17.4950 C   0  0  0  0  0  0  0  0  0  0  0  0
    8.5201  -13.6807   16.1866 C   0  0  0  0  0  0  0  0  0  0  0  0
    7.7227  -14.1550   15.1058 N   0  0  0  0  0  0  0  0  0  0  0  0
    7.5845  -14.9204   21.9625 C   0  0  0  0  0  0  0  0  0  0  0  0
    6.5252  -14.3634   22.3484 O   0  0  0  0  0  0  0  0  0  0  0  0
    8.3149  -15.6292   22.9372 N   0  0  0  0  0  0  0  0  0  0  0  0
    7.8154  -15.7699   24.3494 C   0  0  1  0  0  0  0  0  0  0  0  0
    7.4615  -17.2348   24.5181 C   0  0  0  0  0  0  0  0  0  0  0  0
    6.5628  -17.7368   23.4584 C   0  0  0  0  0  0  0  0  0  0  0  0
    6.2821  -19.2250   23.5759 C   0  0  0  0  0  0  0  0  0  0  0  0
    5.4145  -19.6842   22.3999 C   0  0  0  0  0  0  0  0  0  0  0  0
    5.1988  -21.1029   22.4461 N   0  0  0  0  0  0  0  0  0  0  0  0
    9.0413  -15.5010   25.1294 C   0  0  0  0  0  0  0  0  0  0  0  0
   10.1412  -15.9097   24.5800 O   0  0  0  0  0  0  0  0  0  0  0  0
    9.2144  -14.8684   26.3698 N   0  0  0  0  0  0  0  0  0  0  0  0
    8.0372  -14.3023   27.0845 C   0  0  0  0  0  0  0  0  0  0  0  0
    8.5720  -13.2055   27.9593 C   0  0  0  0  0  0  0  0  0  0  0  0
   10.0476  -13.1513   27.6660 C   0  0  0  0  0  0  0  0  0  0  0  0
   10.2920  -14.6094   27.2622 C   0  0  1  0  0  0  0  0  0  0  0  0
   10.1498  -15.4021   28.5412 C   0  0  0  0  0  0  0  0  0  0  0  0
    9.1154  -16.0770   28.7456 O   0  0  0  0  0  0  0  0  0  0  0  0
   11.1227  -15.4238   29.5238 O   0  0  0  0  0  0  0  0  0  0  0  0
  2  8  1  0
  2  1  1  6
  3  4  1  0
  3  2  1  0
  5  6  1  0
  5  4  1  0
  7  6  1  0
  8  9  2  0
 10 11  1  0
 10  8  1  0
 11 12  1  6
 13 12  1  0
 14 13  1  0
 15 14  1  0
 16 15  1  0
 17 11  1  0
 18 17  2  0
 19 17  1  0
 20 19  1  0
 21 20  1  0
 21 22  1  0
 22 23  1  0
 23 19  1  0
 23 24  1  1
 25 24  2  0
 26 24  1  0
M  END
$$$$
