KKP.pdb
     RDKit          3D

 26 26  0  0  1  0  0  0  0  0999 V2000
   11.2718  -16.4680   20.3851 N   0  0  0  0  0  0  0  0  0  0  0  0
   10.2932  -16.9695   21.3285 C   0  0  1  0  0  0  0  0  0  0  0  0
   10.6812  -18.3737   21.7888 C   0  0  0  0  0  0  0  0  0  0  0  0
    9.5805  -19.2876   21.3407 C   0  0  0  0  0  0  0  0  0  0  0  0
    9.7947  -19.8487   19.9725 C   0  0  0  0  0  0  0  0  0  0  0  0
    8.7418  -20.7679   19.4580 C   0  0  0  0  0  0  0  0  0  0  0  0
    9.0263  -21.2353   18.1430 N   0  0  0  0  0  0  0  0  0  0  0  0
   10.1795  -16.0335   22.4960 C   0  0  0  0  0  0  0  0  0  0  0  0
   11.1808  -15.4122   22.9350 O   0  0  0  0  0  0  0  0  0  0  0  0
    8.9559  -15.8033   23.1561 N   0  0  0  0  0  0  0  0  0  0  0  0
    8.8602  -14.8803   24.3404 C   0  0  1  0  0  0  0  0  0  0  0  0
    7.3798  -14.6221   24.5441 C   0  0  0  0  0  0  0  0  0  0  0  0
    7.0811  -13.9647   25.8330 C   0  0  0  0  0  0  0  0  0  0  0  0
    6.2652  -12.6934   25.6742 C   0  0  0  0  0  0  0  0  0  0  0  0
    6.0314  -12.0517   27.0454 C   0  0  0  0  0  0  0  0  0  0  0  0
    5.2169  -10.8752   26.9280 N   0  0  0  0  0  0  0  0  0  0  0  0
    9.3295  -15.7512   25.4382 C   0  0  0  0  0  0  0  0  0  0  0  0
    9.3604  -17.0161   25.1593 O   0  0  0  0  0  0  0  0  0  0  0  0
    9.7550  -15.4345   26.7371 N   0  0  0  0  0  0  0  0  0  0  0  0
    9.1379  -14.2893   27.4614 C   0  0  0  0  0  0  0  0  0  0  0  0
   10.1657  -13.8236   28.4520 C   0  0  0  0  0  0  0  0  0  0  0  0
   11.3671  -14.6993   28.2149 C   0  0  0  0  0  0  0  0  0  0  0  0
   10.6761  -15.9608   27.6856 C   0  0  1  0  0  0  0  0  0  0  0  0
    9.9603  -16.5491   28.8797 C   0  0  0  0  0  0  0  0  0  0  0  0
   10.6200  -16.9938   29.8462 O   0  0  0  0  0  0  0  0  0  0  0  0
    8.5822  -16.6263   28.9665 O   0  0  0  0  0  0  0  0  0  0  0  0
  2  8  1  0
  2  1  1  6
  3  4  1  0
  3  2  1  0
  5  6  1  0
  5  4  1  0
  7  6  1  0
  8  9  2  0
 10 11  1  0
 10  8  1  0
 11 12  1  1
 13 12  1  0
 14 13  1  0
 15 14  1  0
 16 15  1  0
 17 11  1  0
 18 17  2  0
 19 17  1  0
 20 19  1  0
 21 20  1  0
 21 22  1  0
 22 23  1  0
 23 19  1  0
 23 24  1  1
 25 24  2  0
 26 24  1  0
M  END
$$$$
