KKP.pdb
     RDKit          3D

 26 26  0  0  1  0  0  0  0  0999 V2000
   12.7108  -17.9444   18.8071 N   0  0  0  0  0  0  0  0  0  0  0  0
   11.4102  -18.3271   19.3182 C   0  0  1  0  0  0  0  0  0  0  0  0
   11.4472  -19.7710   19.8158 C   0  0  0  0  0  0  0  0  0  0  0  0
   11.6285  -20.6344   18.6038 C   0  0  0  0  0  0  0  0  0  0  0  0
   11.6611  -22.0955   18.9152 C   0  0  0  0  0  0  0  0  0  0  0  0
   11.9158  -23.0141   17.7708 C   0  0  0  0  0  0  0  0  0  0  0  0
   11.9654  -24.3796   18.1730 N   0  0  0  0  0  0  0  0  0  0  0  0
   10.9942  -17.3910   20.4149 C   0  0  0  0  0  0  0  0  0  0  0  0
   11.7981  -17.0444   21.3175 O   0  0  0  0  0  0  0  0  0  0  0  0
    9.6927  -16.8559   20.4906 N   0  0  0  0  0  0  0  0  0  0  0  0
    9.3001  -15.8872   21.5727 C   0  0  1  0  0  0  0  0  0  0  0  0
    8.0772  -15.1582   21.0505 C   0  0  0  0  0  0  0  0  0  0  0  0
    8.3626  -14.3339   19.8581 C   0  0  0  0  0  0  0  0  0  0  0  0
    7.1052  -13.8876   19.1321 C   0  0  0  0  0  0  0  0  0  0  0  0
    7.4839  -13.0953   17.8769 C   0  0  0  0  0  0  0  0  0  0  0  0
    6.3111  -12.6741   17.1639 N   0  0  0  0  0  0  0  0  0  0  0  0
    8.8648  -16.8007   22.6496 C   0  0  0  0  0  0  0  0  0  0  0  0
    8.7270  -18.0393   22.2953 O   0  0  0  0  0  0  0  0  0  0  0  0
    8.5801  -16.5501   24.0005 N   0  0  0  0  0  0  0  0  0  0  0  0
    8.2420  -15.1694   24.4436 C   0  0  0  0  0  0  0  0  0  0  0  0
    8.6192  -15.0964   25.8951 C   0  0  0  0  0  0  0  0  0  0  0  0
    9.2163  -16.4408   26.2155 C   0  0  0  0  0  0  0  0  0  0  0  0
    8.4716  -17.3117   25.1977 C   0  0  1  0  0  0  0  0  0  0  0  0
    7.0438  -17.3612   25.6907 C   0  0  0  0  0  0  0  0  0  0  0  0
    6.7669  -17.9853   26.7400 O   0  0  0  0  0  0  0  0  0  0  0  0
    5.9990  -16.7405   25.0305 O   0  0  0  0  0  0  0  0  0  0  0  0
  2  8  1  0
  2  1  1  1
  3  4  1  0
  3  2  1  0
  5  6  1  0
  5  4  1  0
  7  6  1  0
  8  9  2  0
 10 11  1  0
 10  8  1  0
 11 12  1  6
 13 12  1  0
 14 13  1  0
 15 14  1  0
 16 15  1  0
 17 11  1  0
 18 17  2  0
 19 17  1  0
 20 19  1  0
 21 20  1  0
 21 22  1  0
 22 23  1  0
 23 19  1  0
 23 24  1  1
 25 24  2  0
 26 24  1  0
M  END
$$$$
