KKP.pdb
     RDKit          3D

 26 26  0  0  1  0  0  0  0  0999 V2000
    5.9941  -15.5744   19.6907 N   0  0  0  0  0  0  0  0  0  0  0  0
    7.0456  -15.0843   20.5585 C   0  0  1  0  0  0  0  0  0  0  0  0
    7.2737  -13.5935   20.3146 C   0  0  0  0  0  0  0  0  0  0  0  0
    7.4362  -13.4244   18.8339 C   0  0  0  0  0  0  0  0  0  0  0  0
    8.8328  -13.6627   18.3590 C   0  0  0  0  0  0  0  0  0  0  0  0
    9.0758  -13.4995   16.8987 C   0  0  0  0  0  0  0  0  0  0  0  0
   10.3708  -13.9488   16.5115 N   0  0  0  0  0  0  0  0  0  0  0  0
    6.6909  -15.3462   21.9929 C   0  0  0  0  0  0  0  0  0  0  0  0
    5.5336  -15.1222   22.4308 O   0  0  0  0  0  0  0  0  0  0  0  0
    7.6271  -15.8524   22.9166 N   0  0  0  0  0  0  0  0  0  0  0  0
    7.2581  -16.1112   24.3520 C   0  0  1  0  0  0  0  0  0  0  0  0
    7.4962  -17.5915   24.5791 C   0  0  0  0  0  0  0  0  0  0  0  0
    7.3267  -17.9929   25.9908 C   0  0  0  0  0  0  0  0  0  0  0  0
    7.6514  -19.4568   26.2332 C   0  0  0  0  0  0  0  0  0  0  0  0
    7.5402  -19.7729   27.7280 C   0  0  0  0  0  0  0  0  0  0  0  0
    7.9705  -21.1151   28.0010 N   0  0  0  0  0  0  0  0  0  0  0  0
    8.3086  -15.3615   25.0717 C   0  0  0  0  0  0  0  0  0  0  0  0
    9.4898  -15.4293   24.5434 O   0  0  0  0  0  0  0  0  0  0  0  0
    8.2389  -14.5797   26.2347 N   0  0  0  0  0  0  0  0  0  0  0  0
    6.9799  -14.5418   27.0287 C   0  0  0  0  0  0  0  0  0  0  0  0
    6.9879  -13.2277   27.7551 C   0  0  0  0  0  0  0  0  0  0  0  0
    8.2433  -12.5330   27.2996 C   0  0  0  0  0  0  0  0  0  0  0  0
    9.1201  -13.7494   26.9824 C   0  0  1  0  0  0  0  0  0  0  0  0
    9.4460  -14.3617   28.3252 C   0  0  0  0  0  0  0  0  0  0  0  0
   10.2240  -13.7712   29.1083 O   0  0  0  0  0  0  0  0  0  0  0  0
    8.9200  -15.5689   28.7480 O   0  0  0  0  0  0  0  0  0  0  0  0
  2  8  1  0
  2  1  1  6
  3  4  1  0
  3  2  1  0
  5  6  1  0
  5  4  1  0
  7  6  1  0
  8  9  2  0
 10 11  1  0
 10  8  1  0
 11 12  1  1
 13 12  1  0
 14 13  1  0
 15 14  1  0
 16 15  1  0
 17 11  1  0
 18 17  2  0
 19 17  1  0
 20 19  1  0
 21 20  1  0
 21 22  1  0
 22 23  1  0
 23 19  1  0
 23 24  1  1
 25 24  2  0
 26 24  1  0
M  END
$$$$
