KKP.pdb
     RDKit          3D

 26 26  0  0  1  0  0  0  0  0999 V2000
    6.0258  -15.6638   20.4419 N   0  0  0  0  0  0  0  0  0  0  0  0
    7.2981  -15.5062   21.1168 C   0  0  1  0  0  0  0  0  0  0  0  0
    7.9255  -14.1638   20.7450 C   0  0  0  0  0  0  0  0  0  0  0  0
    7.3590  -13.7845   19.4098 C   0  0  0  0  0  0  0  0  0  0  0  0
    8.4040  -13.4690   18.3894 C   0  0  0  0  0  0  0  0  0  0  0  0
    7.9183  -13.1263   17.0238 C   0  0  0  0  0  0  0  0  0  0  0  0
    8.9837  -12.9909   16.0881 N   0  0  0  0  0  0  0  0  0  0  0  0
    7.1089  -15.6184   22.6013 C   0  0  0  0  0  0  0  0  0  0  0  0
    6.2427  -14.9334   23.2027 O   0  0  0  0  0  0  0  0  0  0  0  0
    7.8847  -16.4890   23.3925 N   0  0  0  0  0  0  0  0  0  0  0  0
    7.6330  -16.6496   24.8671 C   0  0  1  0  0  0  0  0  0  0  0  0
    7.6986  -18.1403   25.1373 C   0  0  0  0  0  0  0  0  0  0  0  0
    7.6184  -18.4699   26.5752 C   0  0  0  0  0  0  0  0  0  0  0  0
    7.7575  -19.9572   26.8504 C   0  0  0  0  0  0  0  0  0  0  0  0
    7.7790  -20.2059   28.3618 C   0  0  0  0  0  0  0  0  0  0  0  0
    7.6318  -21.6041   28.6529 N   0  0  0  0  0  0  0  0  0  0  0  0
    8.8398  -16.0245   25.4472 C   0  0  0  0  0  0  0  0  0  0  0  0
    9.9391  -16.2502   24.7997 O   0  0  0  0  0  0  0  0  0  0  0  0
    8.9936  -15.2181   26.5850 N   0  0  0  0  0  0  0  0  0  0  0  0
    7.7994  -14.8254   27.3830 C   0  0  0  0  0  0  0  0  0  0  0  0
    8.1632  -13.5394   28.0672 C   0  0  0  0  0  0  0  0  0  0  0  0
    9.5517  -13.2149   27.5844 C   0  0  0  0  0  0  0  0  0  0  0  0
   10.0721  -14.6285   27.3022 C   0  0  1  0  0  0  0  0  0  0  0  0
   10.2417  -15.2654   28.6623 C   0  0  0  0  0  0  0  0  0  0  0  0
    9.3966  -16.0920   29.0743 O   0  0  0  0  0  0  0  0  0  0  0  0
   11.3048  -14.9784   29.4990 O   0  0  0  0  0  0  0  0  0  0  0  0
  2  8  1  0
  2  1  1  6
  3  4  1  0
  3  2  1  0
  5  6  1  0
  5  4  1  0
  7  6  1  0
  8  9  2  0
 10 11  1  0
 10  8  1  0
 11 12  1  6
 13 12  1  0
 14 13  1  0
 15 14  1  0
 16 15  1  0
 17 11  1  0
 18 17  2  0
 19 17  1  0
 20 19  1  0
 21 20  1  0
 21 22  1  0
 22 23  1  0
 23 19  1  0
 23 24  1  1
 25 24  2  0
 26 24  1  0
M  END
$$$$
