KKP.pdb
     RDKit          3D

 26 26  0  0  1  0  0  0  0  0999 V2000
    9.1374  -15.9660   20.1715 N   0  0  0  0  0  0  0  0  0  0  0  0
    8.8735  -14.6030   20.5858 C   0  0  1  0  0  0  0  0  0  0  0  0
    8.0491  -13.8821   19.5205 C   0  0  0  0  0  0  0  0  0  0  0  0
    8.3864  -14.5295   18.2111 C   0  0  0  0  0  0  0  0  0  0  0  0
    7.7432  -13.8651   17.0374 C   0  0  0  0  0  0  0  0  0  0  0  0
    7.9081  -14.5383   15.7191 C   0  0  0  0  0  0  0  0  0  0  0  0
    7.3569  -13.7765   14.6492 N   0  0  0  0  0  0  0  0  0  0  0  0
    8.1654  -14.5968   21.9089 C   0  0  0  0  0  0  0  0  0  0  0  0
    7.7297  -13.5297   22.4114 O   0  0  0  0  0  0  0  0  0  0  0  0
    7.9532  -15.7757   22.6513 N   0  0  0  0  0  0  0  0  0  0  0  0
    7.2388  -15.7560   23.9752 C   0  0  1  0  0  0  0  0  0  0  0  0
    7.0631  -17.2092   24.3714 C   0  0  0  0  0  0  0  0  0  0  0  0
    6.1851  -17.9566   23.4477 C   0  0  0  0  0  0  0  0  0  0  0  0
    6.1467  -19.4462   23.7426 C   0  0  0  0  0  0  0  0  0  0  0  0
    5.2750  -20.1589   22.7039 C   0  0  0  0  0  0  0  0  0  0  0  0
    5.2918  -21.5797   22.9095 N   0  0  0  0  0  0  0  0  0  0  0  0
    8.2617  -15.1596   24.8593 C   0  0  0  0  0  0  0  0  0  0  0  0
    9.4877  -15.4314   24.5401 O   0  0  0  0  0  0  0  0  0  0  0  0
    8.1264  -14.3390   25.9893 N   0  0  0  0  0  0  0  0  0  0  0  0
    6.7704  -13.9459   26.4624 C   0  0  0  0  0  0  0  0  0  0  0  0
    6.9484  -12.6493   27.1985 C   0  0  0  0  0  0  0  0  0  0  0  0
    8.4117  -12.3202   27.0692 C   0  0  0  0  0  0  0  0  0  0  0  0
    8.9918  -13.7332   26.9427 C   0  0  1  0  0  0  0  0  0  0  0  0
    8.8229  -14.3530   28.3108 C   0  0  0  0  0  0  0  0  0  0  0  0
    7.9079  -15.1835   28.5112 O   0  0  0  0  0  0  0  0  0  0  0  0
    9.6429  -14.0457   29.3812 O   0  0  0  0  0  0  0  0  0  0  0  0
  2  8  1  0
  2  1  1  6
  3  4  1  0
  3  2  1  0
  5  6  1  0
  5  4  1  0
  7  6  1  0
  8  9  2  0
 10 11  1  0
 10  8  1  0
 11 12  1  1
 13 12  1  0
 14 13  1  0
 15 14  1  0
 16 15  1  0
 17 11  1  0
 18 17  2  0
 19 17  1  0
 20 19  1  0
 21 20  1  0
 21 22  1  0
 22 23  1  0
 23 19  1  0
 23 24  1  1
 25 24  2  0
 26 24  1  0
M  END
$$$$
