NWI.pdb
     RDKit          3D

 31 32  0  0  1  0  0  0  0  0999 V2000
   25.5443  -21.6626  -20.8021 N   0  0  0  0  0  0  0  0  0  0  0  0
   24.8984  -22.2607  -19.6985 C   0  0  0  0  0  0  0  0  0  0  0  0
   24.1296  -23.2201  -19.9055 O   0  0  0  0  0  0  0  0  0  0  0  0
   25.1279  -21.7658  -18.3521 C   0  0  0  0  0  0  0  0  0  0  0  0
   26.0970  -20.5827  -18.3106 C   0  0  2  0  0  0  0  0  0  0  0  0
   27.3608  -21.0875  -18.7926 N   0  0  0  0  0  0  0  0  0  0  0  0
   26.2286  -20.2058  -16.8780 C   0  0  0  0  0  0  0  0  0  0  0  0
   27.1740  -20.7083  -16.1808 O   0  0  0  0  0  0  0  0  0  0  0  0
   25.3587  -19.3113  -16.2268 N   0  0  0  0  0  0  0  0  0  0  0  0
   25.6213  -18.7721  -14.8680 C   0  0  1  0  0  0  0  0  0  0  0  0
   25.4423  -17.3252  -14.7981 C   0  0  0  0  0  0  0  0  0  0  0  0
   26.2551  -16.4650  -15.6633 C   0  0  0  0  0  0  0  0  0  0  0  0
   25.8687  -15.1985  -16.1335 C   0  0  0  0  0  0  0  0  0  0  0  0
   26.8664  -14.6877  -16.8497 N   0  0  0  0  0  0  0  0  0  0  0  0
   27.9109  -15.5391  -16.8932 C   0  0  0  0  0  0  0  0  0  0  0  0
   29.1480  -15.5079  -17.4965 C   0  0  0  0  0  0  0  0  0  0  0  0
   30.0002  -16.5651  -17.3711 C   0  0  0  0  0  0  0  0  0  0  0  0
   29.6452  -17.6763  -16.6451 C   0  0  0  0  0  0  0  0  0  0  0  0
   28.4172  -17.6855  -16.0559 C   0  0  0  0  0  0  0  0  0  0  0  0
   27.5112  -16.6495  -16.1438 C   0  0  0  0  0  0  0  0  0  0  0  0
   25.0775  -19.6973  -13.8958 C   0  0  0  0  0  0  0  0  0  0  0  0
   24.2592  -20.6310  -14.3062 O   0  0  0  0  0  0  0  0  0  0  0  0
   27.4392  -21.7392   -9.2198 C   0  0  0  0  0  0  0  0  0  0  0  0
   26.6429  -21.6184  -10.4957 C   0  0  0  0  0  0  0  0  0  0  0  0
   25.3332  -20.9269  -10.3603 C   0  0  2  0  0  0  0  0  0  0  0  0
   24.4455  -21.8138   -9.4803 C   0  0  0  0  0  0  0  0  0  0  0  0
   24.5746  -20.6670  -11.6101 C   0  0  2  0  0  0  0  0  0  0  0  0
   25.3044  -19.7670  -12.5000 N   0  0  0  0  0  0  0  0  0  0  0  0
   23.1523  -20.3628  -11.4694 C   0  0  0  0  0  0  0  0  0  0  0  0
   22.1944  -21.4026  -11.4135 O   0  0  0  0  0  0  0  0  0  0  0  0
   22.7492  -19.1854  -11.3972 O   0  0  0  0  0  0  0  0  0  0  0  0
  2  3  2  0
  2  1  1  0
  4  2  1  0
  5  6  1  1
  5  4  1  0
  7  5  1  0
  8  7  2  0
  9  7  1  0
 10  9  1  0
 10 11  1  6
 11 12  1  0
 12 13  2  0
 13 14  1  0
 15 16  2  0
 15 14  1  0
 17 16  1  0
 18 19  1  0
 18 17  2  0
 19 20  2  0
 20 12  1  0
 20 15  1  0
 21 22  2  0
 21 10  1  0
 23 24  1  0
 24 25  1  0
 25 27  1  0
 25 26  1  1
 27 29  1  0
 27 28  1  1
 28 21  1  0
 29 30  1  0
 31 29  2  0
M  END
$$$$
