NWI.pdb
     RDKit          3D

 31 32  0  0  1  0  0  0  0  0999 V2000
   29.8215  -19.6994  -17.1084 N   0  0  0  0  0  0  0  0  0  0  0  0
   28.4805  -19.2934  -16.9363 C   0  0  0  0  0  0  0  0  0  0  0  0
   28.0299  -18.3951  -17.6742 O   0  0  0  0  0  0  0  0  0  0  0  0
   27.6469  -19.9120  -15.9200 C   0  0  0  0  0  0  0  0  0  0  0  0
   28.3891  -20.9758  -15.1088 C   0  0  2  0  0  0  0  0  0  0  0  0
   28.4077  -22.1617  -15.9321 N   0  0  0  0  0  0  0  0  0  0  0  0
   27.5608  -21.2262  -13.8992 C   0  0  0  0  0  0  0  0  0  0  0  0
   26.4245  -21.7969  -14.0233 O   0  0  0  0  0  0  0  0  0  0  0  0
   27.9576  -20.8662  -12.5977 N   0  0  0  0  0  0  0  0  0  0  0  0
   27.1222  -21.1236  -11.3969 C   0  0  1  0  0  0  0  0  0  0  0  0
   27.8769  -20.9932  -10.1543 C   0  0  0  0  0  0  0  0  0  0  0  0
   27.1503  -20.7703   -8.9006 C   0  0  0  0  0  0  0  0  0  0  0  0
   25.7619  -20.9120   -8.7370 C   0  0  0  0  0  0  0  0  0  0  0  0
   25.4572  -20.6780   -7.4636 N   0  0  0  0  0  0  0  0  0  0  0  0
   26.5637  -20.3836   -6.7517 C   0  0  0  0  0  0  0  0  0  0  0  0
   26.7964  -20.0529   -5.4357 C   0  0  0  0  0  0  0  0  0  0  0  0
   28.0627  -19.7789   -5.0100 C   0  0  0  0  0  0  0  0  0  0  0  0
   29.1259  -19.8269   -5.8788 C   0  0  0  0  0  0  0  0  0  0  0  0
   28.8730  -20.1572   -7.1759 C   0  0  0  0  0  0  0  0  0  0  0  0
   27.6175  -20.4457   -7.6681 C   0  0  0  0  0  0  0  0  0  0  0  0
   25.8182  -20.5317  -11.6114 C   0  0  0  0  0  0  0  0  0  0  0  0
   25.7436  -19.2514  -11.8663 O   0  0  0  0  0  0  0  0  0  0  0  0
   21.8797  -18.9227  -15.1415 C   0  0  0  0  0  0  0  0  0  0  0  0
   21.9589  -19.2852  -13.6789 C   0  0  0  0  0  0  0  0  0  0  0  0
   23.1416  -20.1001  -13.2928 C   0  0  2  0  0  0  0  0  0  0  0  0
   23.0277  -21.4369  -14.0340 C   0  0  0  0  0  0  0  0  0  0  0  0
   23.2988  -20.4211  -11.8516 C   0  0  2  0  0  0  0  0  0  0  0  0
   24.5422  -21.1451  -11.5985 N   0  0  0  0  0  0  0  0  0  0  0  0
   22.1287  -20.9615  -11.1629 C   0  0  0  0  0  0  0  0  0  0  0  0
   21.0389  -20.1240  -10.8269 O   0  0  0  0  0  0  0  0  0  0  0  0
   22.0626  -22.1674  -10.8542 O   0  0  0  0  0  0  0  0  0  0  0  0
  2  3  2  0
  2  1  1  0
  4  2  1  0
  5  6  1  6
  5  4  1  0
  7  5  1  0
  8  7  2  0
  9  7  1  0
 10  9  1  0
 10 11  1  1
 11 12  1  0
 12 13  2  0
 13 14  1  0
 15 16  2  0
 15 14  1  0
 17 16  1  0
 18 19  1  0
 18 17  2  0
 19 20  2  0
 20 12  1  0
 20 15  1  0
 21 22  2  0
 21 10  1  0
 23 24  1  0
 24 25  1  0
 25 27  1  0
 25 26  1  6
 27 29  1  0
 27 28  1  6
 28 21  1  0
 29 30  1  0
 31 29  2  0
M  END
$$$$
