NWI.pdb
     RDKit          3D

 31 32  0  0  1  0  0  0  0  0999 V2000
   29.3530  -20.6475  -19.1405 N   0  0  0  0  0  0  0  0  0  0  0  0
   28.0116  -21.0870  -19.1467 C   0  0  0  0  0  0  0  0  0  0  0  0
   27.3063  -20.8361  -20.1437 O   0  0  0  0  0  0  0  0  0  0  0  0
   27.4687  -21.8159  -18.0133 C   0  0  0  0  0  0  0  0  0  0  0  0
   28.4683  -21.9581  -16.8639 C   0  0  2  0  0  0  0  0  0  0  0  0
   29.0869  -23.2516  -17.0333 N   0  0  0  0  0  0  0  0  0  0  0  0
   27.6636  -21.9544  -15.6131 C   0  0  0  0  0  0  0  0  0  0  0  0
   26.7675  -22.8485  -15.4403 O   0  0  0  0  0  0  0  0  0  0  0  0
   27.8298  -21.0076  -14.5851 N   0  0  0  0  0  0  0  0  0  0  0  0
   27.0841  -21.0671  -13.3020 C   0  0  1  0  0  0  0  0  0  0  0  0
   27.8114  -20.4366  -12.2046 C   0  0  0  0  0  0  0  0  0  0  0  0
   27.1340  -20.2463  -10.9185 C   0  0  0  0  0  0  0  0  0  0  0  0
   25.7834  -19.8910  -10.7633 C   0  0  0  0  0  0  0  0  0  0  0  0
   25.4998  -19.8530   -9.4644 N   0  0  0  0  0  0  0  0  0  0  0  0
   26.5853  -20.1622   -8.7269 C   0  0  0  0  0  0  0  0  0  0  0  0
   26.8327  -20.2477   -7.3753 C   0  0  0  0  0  0  0  0  0  0  0  0
   28.0784  -20.5709   -6.9242 C   0  0  0  0  0  0  0  0  0  0  0  0
   29.1061  -20.8164   -7.8024 C   0  0  0  0  0  0  0  0  0  0  0  0
   28.8388  -20.7273   -9.1351 C   0  0  0  0  0  0  0  0  0  0  0  0
   27.6023  -20.4063   -9.6544 C   0  0  0  0  0  0  0  0  0  0  0  0
   25.6818  -20.8327  -13.5765 C   0  0  0  0  0  0  0  0  0  0  0  0
   25.3415  -19.7522  -14.2296 O   0  0  0  0  0  0  0  0  0  0  0  0
   22.7162  -22.6653  -17.0954 C   0  0  0  0  0  0  0  0  0  0  0  0
   23.2783  -21.8174  -15.9811 C   0  0  0  0  0  0  0  0  0  0  0  0
   22.6122  -21.9847  -14.6619 C   0  0  2  0  0  0  0  0  0  0  0  0
   21.1626  -21.5151  -14.8276 C   0  0  0  0  0  0  0  0  0  0  0  0
   23.1801  -21.2272  -13.5180 C   0  0  2  0  0  0  0  0  0  0  0  0
   24.5582  -21.6275  -13.2442 N   0  0  0  0  0  0  0  0  0  0  0  0
   22.3383  -21.0916  -12.3313 C   0  0  0  0  0  0  0  0  0  0  0  0
   21.4540  -19.9956  -12.1956 O   0  0  0  0  0  0  0  0  0  0  0  0
   22.3793  -21.9333  -11.4126 O   0  0  0  0  0  0  0  0  0  0  0  0
  2  3  2  0
  2  1  1  0
  4  2  1  0
  5  6  1  6
  5  4  1  0
  7  5  1  0
  8  7  2  0
  9  7  1  0
 10  9  1  0
 10 11  1  1
 11 12  1  0
 12 13  2  0
 13 14  1  0
 15 16  2  0
 15 14  1  0
 17 16  1  0
 18 19  1  0
 18 17  2  0
 19 20  2  0
 20 12  1  0
 20 15  1  0
 21 22  2  0
 21 10  1  0
 23 24  1  0
 24 25  1  0
 25 27  1  0
 25 26  1  6
 27 29  1  0
 27 28  1  1
 28 21  1  0
 29 30  1  0
 31 29  2  0
M  END
$$$$
