NWI.pdb
     RDKit          3D

 31 32  0  0  1  0  0  0  0  0999 V2000
   28.6810  -17.9873  -15.8885 N   0  0  0  0  0  0  0  0  0  0  0  0
   27.3617  -18.4323  -16.1211 C   0  0  0  0  0  0  0  0  0  0  0  0
   26.6487  -17.7931  -16.9194 O   0  0  0  0  0  0  0  0  0  0  0  0
   26.8501  -19.6107  -15.4427 C   0  0  0  0  0  0  0  0  0  0  0  0
   27.8865  -20.2679  -14.5292 C   0  0  2  0  0  0  0  0  0  0  0  0
   28.3074  -21.4710  -15.2073 N   0  0  0  0  0  0  0  0  0  0  0  0
   27.1660  -20.6303  -13.2797 C   0  0  0  0  0  0  0  0  0  0  0  0
   26.1658  -21.4229  -13.3389 O   0  0  0  0  0  0  0  0  0  0  0  0
   27.5235  -20.1447  -12.0079 N   0  0  0  0  0  0  0  0  0  0  0  0
   26.7951  -20.5131  -10.7671 C   0  0  1  0  0  0  0  0  0  0  0  0
   27.5667  -20.2267   -9.5616 C   0  0  0  0  0  0  0  0  0  0  0  0
   26.9523  -20.4604   -8.2512 C   0  0  0  0  0  0  0  0  0  0  0  0
   25.7424  -21.1424   -8.0379 C   0  0  0  0  0  0  0  0  0  0  0  0
   25.5152  -21.2068   -6.7290 N   0  0  0  0  0  0  0  0  0  0  0  0
   26.5050  -20.6043   -6.0398 C   0  0  0  0  0  0  0  0  0  0  0  0
   26.7422  -20.3799   -4.7023 C   0  0  0  0  0  0  0  0  0  0  0  0
   27.8554  -19.6986   -4.3071 C   0  0  0  0  0  0  0  0  0  0  0  0
   28.7579  -19.2249   -5.2284 C   0  0  0  0  0  0  0  0  0  0  0  0
   28.5041  -19.4591   -6.5460 C   0  0  0  0  0  0  0  0  0  0  0  0
   27.3989  -20.1412   -7.0097 C   0  0  0  0  0  0  0  0  0  0  0  0
   25.4010  -20.1579  -10.9325 C   0  0  0  0  0  0  0  0  0  0  0  0
   25.1040  -18.9499  -11.3356 O   0  0  0  0  0  0  0  0  0  0  0  0
   21.0376  -20.5551  -14.4886 C   0  0  0  0  0  0  0  0  0  0  0  0
   21.2726  -20.3220  -13.0165 C   0  0  0  0  0  0  0  0  0  0  0  0
   22.5922  -20.7808  -12.5067 C   0  0  2  0  0  0  0  0  0  0  0  0
   22.6390  -22.3023  -12.6859 C   0  0  0  0  0  0  0  0  0  0  0  0
   22.8963  -20.5078  -11.0791 C   0  0  2  0  0  0  0  0  0  0  0  0
   24.2442  -20.9478  -10.7269 N   0  0  0  0  0  0  0  0  0  0  0  0
   21.8666  -20.8606  -10.1042 C   0  0  0  0  0  0  0  0  0  0  0  0
   22.1160  -21.8401   -9.1141 O   0  0  0  0  0  0  0  0  0  0  0  0
   20.7476  -20.3115  -10.1215 O   0  0  0  0  0  0  0  0  0  0  0  0
  2  3  2  0
  2  1  1  0
  4  2  1  0
  5  6  1  6
  5  4  1  0
  7  5  1  0
  8  7  2  0
  9  7  1  0
 10  9  1  0
 10 11  1  1
 11 12  1  0
 12 13  2  0
 13 14  1  0
 15 16  2  0
 15 14  1  0
 17 16  1  0
 18 19  1  0
 18 17  2  0
 19 20  2  0
 20 12  1  0
 20 15  1  0
 21 22  2  0
 21 10  1  0
 23 24  1  0
 24 25  1  0
 25 27  1  0
 25 26  1  1
 27 29  1  0
 27 28  1  1
 28 21  1  0
 29 30  1  0
 31 29  2  0
M  END
$$$$
