NWI.pdb
     RDKit          3D

 31 32  0  0  1  0  0  0  0  0999 V2000
   29.2013  -21.2247  -18.3363 N   0  0  0  0  0  0  0  0  0  0  0  0
   27.8189  -21.5101  -18.3536 C   0  0  0  0  0  0  0  0  0  0  0  0
   27.2244  -21.5143  -19.4494 O   0  0  0  0  0  0  0  0  0  0  0  0
   27.1084  -21.7926  -17.1183 C   0  0  0  0  0  0  0  0  0  0  0  0
   27.9927  -21.6507  -15.8779 C   0  0  2  0  0  0  0  0  0  0  0  0
   28.8086  -22.8410  -15.8336 N   0  0  0  0  0  0  0  0  0  0  0  0
   27.0703  -21.6394  -14.7113 C   0  0  0  0  0  0  0  0  0  0  0  0
   26.3502  -22.6668  -14.4702 O   0  0  0  0  0  0  0  0  0  0  0  0
   26.9368  -20.5445  -13.8370 N   0  0  0  0  0  0  0  0  0  0  0  0
   26.0252  -20.5520  -12.6645 C   0  0  1  0  0  0  0  0  0  0  0  0
   26.5565  -19.7877  -11.5401 C   0  0  0  0  0  0  0  0  0  0  0  0
   27.6557  -20.3528  -10.7516 C   0  0  0  0  0  0  0  0  0  0  0  0
   28.8007  -20.9659  -11.2878 C   0  0  0  0  0  0  0  0  0  0  0  0
   29.6036  -21.3171  -10.2872 N   0  0  0  0  0  0  0  0  0  0  0  0
   29.0660  -20.9770   -9.0985 C   0  0  0  0  0  0  0  0  0  0  0  0
   29.4643  -21.1258   -7.7891 C   0  0  0  0  0  0  0  0  0  0  0  0
   28.6667  -20.6857   -6.7743 C   0  0  0  0  0  0  0  0  0  0  0  0
   27.4571  -20.0884   -7.0348 C   0  0  0  0  0  0  0  0  0  0  0  0
   27.0833  -19.9503   -8.3373 C   0  0  0  0  0  0  0  0  0  0  0  0
   27.8437  -20.3729   -9.4074 C   0  0  0  0  0  0  0  0  0  0  0  0
   24.6634  -20.4365  -13.1430 C   0  0  0  0  0  0  0  0  0  0  0  0
   24.3059  -19.3418  -13.7625 O   0  0  0  0  0  0  0  0  0  0  0  0
   22.5225  -22.6651  -17.0810 C   0  0  0  0  0  0  0  0  0  0  0  0
   22.8664  -21.7983  -15.8947 C   0  0  0  0  0  0  0  0  0  0  0  0
   21.9315  -21.9037  -14.7428 C   0  0  2  0  0  0  0  0  0  0  0  0
   20.5561  -21.4415  -15.2366 C   0  0  0  0  0  0  0  0  0  0  0  0
   22.2492  -21.0939  -13.5393 C   0  0  2  0  0  0  0  0  0  0  0  0
   23.5998  -21.3668  -13.0538 N   0  0  0  0  0  0  0  0  0  0  0  0
   21.2282  -21.0313  -12.4958 C   0  0  0  0  0  0  0  0  0  0  0  0
   20.2300  -20.0290  -12.5227 O   0  0  0  0  0  0  0  0  0  0  0  0
   21.2123  -21.8543  -11.5597 O   0  0  0  0  0  0  0  0  0  0  0  0
  2  3  2  0
  2  1  1  0
  4  2  1  0
  5  6  1  1
  5  4  1  0
  7  5  1  0
  8  7  2  0
  9  7  1  0
 10  9  1  0
 10 11  1  1
 11 12  1  0
 12 13  2  0
 13 14  1  0
 15 16  2  0
 15 14  1  0
 17 16  1  0
 18 19  1  0
 18 17  2  0
 19 20  2  0
 20 12  1  0
 20 15  1  0
 21 22  2  0
 21 10  1  0
 23 24  1  0
 24 25  1  0
 25 27  1  0
 25 26  1  6
 27 29  1  0
 27 28  1  1
 28 21  1  0
 29 30  1  0
 31 29  2  0
M  END
$$$$
