NWI.pdb
     RDKit          3D

 31 32  0  0  1  0  0  0  0  0999 V2000
   27.8338  -19.5119  -17.5204 N   0  0  0  0  0  0  0  0  0  0  0  0
   28.0164  -19.0628  -16.1946 C   0  0  0  0  0  0  0  0  0  0  0  0
   28.8359  -18.1475  -15.9824 O   0  0  0  0  0  0  0  0  0  0  0  0
   27.2631  -19.6573  -15.1038 C   0  0  0  0  0  0  0  0  0  0  0  0
   28.0285  -20.7747  -14.3924 C   0  0  2  0  0  0  0  0  0  0  0  0
   27.9209  -21.9349  -15.2450 N   0  0  0  0  0  0  0  0  0  0  0  0
   27.3028  -21.0274  -13.1190 C   0  0  0  0  0  0  0  0  0  0  0  0
   26.1808  -21.6377  -13.1462 O   0  0  0  0  0  0  0  0  0  0  0  0
   27.7839  -20.6278  -11.8581 N   0  0  0  0  0  0  0  0  0  0  0  0
   27.0281  -20.8445  -10.5980 C   0  0  1  0  0  0  0  0  0  0  0  0
   27.8524  -20.6388   -9.4111 C   0  0  0  0  0  0  0  0  0  0  0  0
   27.2087  -20.6088   -8.0942 C   0  0  0  0  0  0  0  0  0  0  0  0
   25.9215  -21.0978   -7.8145 C   0  0  0  0  0  0  0  0  0  0  0  0
   25.6832  -20.9502   -6.5143 N   0  0  0  0  0  0  0  0  0  0  0  0
   26.7389  -20.3858   -5.8941 C   0  0  0  0  0  0  0  0  0  0  0  0
   26.9978  -20.0083   -4.5957 C   0  0  0  0  0  0  0  0  0  0  0  0
   28.1870  -19.4229   -4.2747 C   0  0  0  0  0  0  0  0  0  0  0  0
   29.1454  -19.1989   -5.2333 C   0  0  0  0  0  0  0  0  0  0  0  0
   28.8687  -19.5811   -6.5110 C   0  0  0  0  0  0  0  0  0  0  0  0
   27.6877  -20.1778   -6.8994 C   0  0  0  0  0  0  0  0  0  0  0  0
   25.7000  -20.2909  -10.7602 C   0  0  0  0  0  0  0  0  0  0  0  0
   25.5781  -19.0803  -11.2393 O   0  0  0  0  0  0  0  0  0  0  0  0
   21.8321  -19.3002  -14.3894 C   0  0  0  0  0  0  0  0  0  0  0  0
   21.8915  -19.4121  -12.8859 C   0  0  0  0  0  0  0  0  0  0  0  0
   23.0930  -20.1064  -12.3508 C   0  0  2  0  0  0  0  0  0  0  0  0
   23.1141  -21.5089  -12.9686 C   0  0  0  0  0  0  0  0  0  0  0  0
   23.1695  -20.2853  -10.8786 C   0  0  2  0  0  0  0  0  0  0  0  0
   24.4431  -20.8787  -10.4786 N   0  0  0  0  0  0  0  0  0  0  0  0
   21.9975  -20.8581  -10.2202 C   0  0  0  0  0  0  0  0  0  0  0  0
   20.7352  -20.2264  -10.3168 O   0  0  0  0  0  0  0  0  0  0  0  0
   22.0805  -21.9115   -9.5589 O   0  0  0  0  0  0  0  0  0  0  0  0
  2  3  2  0
  2  1  1  0
  4  2  1  0
  5  6  1  6
  5  4  1  0
  7  5  1  0
  8  7  2  0
  9  7  1  0
 10  9  1  0
 10 11  1  1
 11 12  1  0
 12 13  2  0
 13 14  1  0
 15 16  2  0
 15 14  1  0
 17 16  1  0
 18 19  1  0
 18 17  2  0
 19 20  2  0
 20 12  1  0
 20 15  1  0
 21 22  2  0
 21 10  1  0
 23 24  1  0
 24 25  1  0
 25 27  1  0
 25 26  1  6
 27 29  1  0
 27 28  1  6
 28 21  1  0
 29 30  1  0
 31 29  2  0
M  END
$$$$
