NWI.pdb
     RDKit          3D

 31 32  0  0  1  0  0  0  0  0999 V2000
   21.3509  -23.8789  -15.9865 N   0  0  0  0  0  0  0  0  0  0  0  0
   22.0073  -22.7707  -15.4086 C   0  0  0  0  0  0  0  0  0  0  0  0
   21.5693  -21.6278  -15.6458 O   0  0  0  0  0  0  0  0  0  0  0  0
   23.1679  -22.9627  -14.5562 C   0  0  0  0  0  0  0  0  0  0  0  0
   24.3845  -22.1582  -15.0180 C   0  0  2  0  0  0  0  0  0  0  0  0
   24.9418  -22.8861  -16.1334 N   0  0  0  0  0  0  0  0  0  0  0  0
   25.3472  -22.1766  -13.8845 C   0  0  0  0  0  0  0  0  0  0  0  0
   25.8658  -23.2855  -13.5191 O   0  0  0  0  0  0  0  0  0  0  0  0
   25.7314  -21.0248  -13.1727 N   0  0  0  0  0  0  0  0  0  0  0  0
   26.7751  -21.0373  -12.1161 C   0  0  1  0  0  0  0  0  0  0  0  0
   27.9622  -20.2775  -12.4960 C   0  0  0  0  0  0  0  0  0  0  0  0
   29.2382  -20.9823  -12.6526 C   0  0  0  0  0  0  0  0  0  0  0  0
   29.7837  -21.3997  -13.8784 C   0  0  0  0  0  0  0  0  0  0  0  0
   30.9671  -21.9615  -13.6484 N   0  0  0  0  0  0  0  0  0  0  0  0
   31.2561  -21.9499  -12.3315 C   0  0  0  0  0  0  0  0  0  0  0  0
   32.3138  -22.4078  -11.5786 C   0  0  0  0  0  0  0  0  0  0  0  0
   32.3042  -22.2651  -10.2224 C   0  0  0  0  0  0  0  0  0  0  0  0
   31.2464  -21.6655   -9.5827 C   0  0  0  0  0  0  0  0  0  0  0  0
   30.2112  -21.2189  -10.3470 C   0  0  0  0  0  0  0  0  0  0  0  0
   30.1610  -21.3320  -11.7205 C   0  0  0  0  0  0  0  0  0  0  0  0
   26.1237  -20.9199  -10.8282 C   0  0  0  0  0  0  0  0  0  0  0  0
   24.8677  -20.5583  -10.7901 O   0  0  0  0  0  0  0  0  0  0  0  0
   27.1471  -19.6842   -4.8339 C   0  0  0  0  0  0  0  0  0  0  0  0
   26.2154  -20.2553   -5.8743 C   0  0  0  0  0  0  0  0  0  0  0  0
   26.7644  -20.3044   -7.2556 C   0  0  2  0  0  0  0  0  0  0  0  0
   27.0425  -18.8582   -7.6804 C   0  0  0  0  0  0  0  0  0  0  0  0
   25.8994  -20.9006   -8.3050 C   0  0  2  0  0  0  0  0  0  0  0  0
   26.6480  -21.1530   -9.5339 N   0  0  0  0  0  0  0  0  0  0  0  0
   24.5871  -20.2900   -8.5061 C   0  0  0  0  0  0  0  0  0  0  0  0
   24.4075  -19.2660   -9.4658 O   0  0  0  0  0  0  0  0  0  0  0  0
   23.5984  -20.6530   -7.8394 O   0  0  0  0  0  0  0  0  0  0  0  0
  2  3  2  0
  2  1  1  0
  4  2  1  0
  5  6  1  6
  5  4  1  0
  7  5  1  0
  8  7  2  0
  9  7  1  0
 10  9  1  0
 10 11  1  6
 11 12  1  0
 12 13  2  0
 13 14  1  0
 15 16  2  0
 15 14  1  0
 17 16  1  0
 18 19  1  0
 18 17  2  0
 19 20  2  0
 20 12  1  0
 20 15  1  0
 21 22  2  0
 21 10  1  0
 23 24  1  0
 24 25  1  0
 25 27  1  0
 25 26  1  6
 27 29  1  0
 27 28  1  6
 28 21  1  0
 29 30  1  0
 31 29  2  0
M  END
$$$$
