NWI.pdb
     RDKit          3D

 31 32  0  0  1  0  0  0  0  0999 V2000
   28.1014  -19.1639  -17.7138 N   0  0  0  0  0  0  0  0  0  0  0  0
   28.3602  -18.8845  -16.3545 C   0  0  0  0  0  0  0  0  0  0  0  0
   29.2296  -18.0358  -16.0750 O   0  0  0  0  0  0  0  0  0  0  0  0
   27.6264  -19.5735  -15.3069 C   0  0  0  0  0  0  0  0  0  0  0  0
   28.4655  -20.6346  -14.5925 C   0  0  2  0  0  0  0  0  0  0  0  0
   28.4918  -21.7789  -15.4724 N   0  0  0  0  0  0  0  0  0  0  0  0
   27.7237  -20.9819  -13.3511 C   0  0  0  0  0  0  0  0  0  0  0  0
   26.6128  -21.6069  -13.4375 O   0  0  0  0  0  0  0  0  0  0  0  0
   28.1773  -20.6583  -12.0587 N   0  0  0  0  0  0  0  0  0  0  0  0
   27.3864  -20.9317  -10.8316 C   0  0  1  0  0  0  0  0  0  0  0  0
   28.1259  -20.6236   -9.6114 C   0  0  0  0  0  0  0  0  0  0  0  0
   27.3827  -20.3796   -8.3714 C   0  0  0  0  0  0  0  0  0  0  0  0
   25.9892  -20.2220   -8.2842 C   0  0  0  0  0  0  0  0  0  0  0  0
   25.6578  -20.0642   -7.0058 N   0  0  0  0  0  0  0  0  0  0  0  0
   26.7512  -20.1048   -6.2181 C   0  0  0  0  0  0  0  0  0  0  0  0
   26.9613  -19.9789   -4.8633 C   0  0  0  0  0  0  0  0  0  0  0  0
   28.2252  -20.0444   -4.3552 C   0  0  0  0  0  0  0  0  0  0  0  0
   29.3083  -20.2364   -5.1784 C   0  0  0  0  0  0  0  0  0  0  0  0
   29.0774  -20.3595   -6.5151 C   0  0  0  0  0  0  0  0  0  0  0  0
   27.8254  -20.3033   -7.0904 C   0  0  0  0  0  0  0  0  0  0  0  0
   26.0183  -20.5203  -11.0680 C   0  0  0  0  0  0  0  0  0  0  0  0
   25.7967  -19.3310  -11.5644 O   0  0  0  0  0  0  0  0  0  0  0  0
   23.4670  -20.4573  -15.0034 C   0  0  0  0  0  0  0  0  0  0  0  0
   23.8642  -20.1623  -13.5780 C   0  0  0  0  0  0  0  0  0  0  0  0
   23.1008  -20.9077  -12.5420 C   0  0  2  0  0  0  0  0  0  0  0  0
   21.6347  -20.4790  -12.6686 C   0  0  0  0  0  0  0  0  0  0  0  0
   23.4912  -20.6870  -11.1264 C   0  0  2  0  0  0  0  0  0  0  0  0
   24.8163  -21.2349  -10.8466 N   0  0  0  0  0  0  0  0  0  0  0  0
   22.4840  -20.9800  -10.1091 C   0  0  0  0  0  0  0  0  0  0  0  0
   22.7057  -21.9915   -9.1449 O   0  0  0  0  0  0  0  0  0  0  0  0
   21.4089  -20.3505  -10.0665 O   0  0  0  0  0  0  0  0  0  0  0  0
  2  3  2  0
  2  1  1  0
  4  2  1  0
  5  6  1  6
  5  4  1  0
  7  5  1  0
  8  7  2  0
  9  7  1  0
 10  9  1  0
 10 11  1  1
 11 12  1  0
 12 13  2  0
 13 14  1  0
 15 16  2  0
 15 14  1  0
 17 16  1  0
 18 19  1  0
 18 17  2  0
 19 20  2  0
 20 12  1  0
 20 15  1  0
 21 22  2  0
 21 10  1  0
 23 24  1  0
 24 25  1  0
 25 27  1  0
 25 26  1  1
 27 29  1  0
 27 28  1  1
 28 21  1  0
 29 30  1  0
 31 29  2  0
M  END
$$$$
