NWI.pdb
     RDKit          3D

 31 32  0  0  1  0  0  0  0  0999 V2000
   23.2399  -22.6544   -8.2837 N   0  0  0  0  0  0  0  0  0  0  0  0
   22.5446  -21.4919   -8.6810 C   0  0  0  0  0  0  0  0  0  0  0  0
   21.4322  -21.2579   -8.1689 O   0  0  0  0  0  0  0  0  0  0  0  0
   23.1170  -20.5900   -9.6657 C   0  0  0  0  0  0  0  0  0  0  0  0
   24.4987  -21.0359  -10.1480 C   0  0  2  0  0  0  0  0  0  0  0  0
   25.4448  -20.4848   -9.2069 N   0  0  0  0  0  0  0  0  0  0  0  0
   24.6971  -20.4011  -11.4783 C   0  0  0  0  0  0  0  0  0  0  0  0
   24.5222  -19.1420  -11.6056 O   0  0  0  0  0  0  0  0  0  0  0  0
   25.0732  -21.1150  -12.6315 N   0  0  0  0  0  0  0  0  0  0  0  0
   25.4545  -20.4523  -13.9049 C   0  0  1  0  0  0  0  0  0  0  0  0
   26.8577  -20.6653  -14.2460 C   0  0  0  0  0  0  0  0  0  0  0  0
   27.8948  -20.0903  -13.3840 C   0  0  0  0  0  0  0  0  0  0  0  0
   28.2083  -18.7231  -13.3019 C   0  0  0  0  0  0  0  0  0  0  0  0
   29.1622  -18.5592  -12.3895 N   0  0  0  0  0  0  0  0  0  0  0  0
   29.5155  -19.7417  -11.8469 C   0  0  0  0  0  0  0  0  0  0  0  0
   30.4392  -20.1237  -10.9001 C   0  0  0  0  0  0  0  0  0  0  0  0
   30.5817  -21.4394  -10.5711 C   0  0  0  0  0  0  0  0  0  0  0  0
   29.8120  -22.4054  -11.1730 C   0  0  0  0  0  0  0  0  0  0  0  0
   28.9039  -22.0052  -12.1060 C   0  0  0  0  0  0  0  0  0  0  0  0
   28.7110  -20.6924  -12.4818 C   0  0  0  0  0  0  0  0  0  0  0  0
   24.3655  -20.6096  -14.8463 C   0  0  0  0  0  0  0  0  0  0  0  0
   23.6957  -21.7326  -14.8504 O   0  0  0  0  0  0  0  0  0  0  0  0
   20.0877  -17.5942  -18.2217 C   0  0  0  0  0  0  0  0  0  0  0  0
   20.8004  -18.8834  -17.8950 C   0  0  0  0  0  0  0  0  0  0  0  0
   22.0432  -18.7327  -17.0921 C   0  0  2  0  0  0  0  0  0  0  0  0
   23.0353  -17.9343  -17.9450 C   0  0  0  0  0  0  0  0  0  0  0  0
   22.7372  -19.9797  -16.6819 C   0  0  2  0  0  0  0  0  0  0  0  0
   23.8740  -19.6955  -15.8093 N   0  0  0  0  0  0  0  0  0  0  0  0
   23.0045  -20.9630  -17.7292 C   0  0  0  0  0  0  0  0  0  0  0  0
   22.0371  -21.9389  -18.0662 O   0  0  0  0  0  0  0  0  0  0  0  0
   24.0869  -20.9677  -18.3476 O   0  0  0  0  0  0  0  0  0  0  0  0
  2  3  2  0
  2  1  1  0
  4  2  1  0
  5  6  1  1
  5  4  1  0
  7  5  1  0
  8  7  2  0
  9  7  1  0
 10  9  1  0
 10 11  1  6
 11 12  1  0
 12 13  2  0
 13 14  1  0
 15 16  2  0
 15 14  1  0
 17 16  1  0
 18 19  1  0
 18 17  2  0
 19 20  2  0
 20 12  1  0
 20 15  1  0
 21 22  2  0
 21 10  1  0
 23 24  1  0
 24 25  1  0
 25 27  1  0
 25 26  1  6
 27 29  1  0
 27 28  1  6
 28 21  1  0
 29 30  1  0
 31 29  2  0
M  END
$$$$
