NWI.pdb
     RDKit          3D

 31 32  0  0  1  0  0  0  0  0999 V2000
   21.6676  -38.8950  -14.1453 N   0  0  0  0  0  0  0  0  0  0  0  0
   22.2710  -38.8342  -12.8705 C   0  0  0  0  0  0  0  0  0  0  0  0
   22.3649  -39.8839  -12.2045 O   0  0  0  0  0  0  0  0  0  0  0  0
   22.7705  -37.5733  -12.3500 C   0  0  0  0  0  0  0  0  0  0  0  0
   22.5588  -36.4057  -13.3157 C   0  0  2  0  0  0  0  0  0  0  0  0
   23.5872  -36.5308  -14.3214 N   0  0  0  0  0  0  0  0  0  0  0  0
   22.7885  -35.1675  -12.5245 C   0  0  0  0  0  0  0  0  0  0  0  0
   23.9841  -34.8102  -12.2504 O   0  0  0  0  0  0  0  0  0  0  0  0
   21.7497  -34.3464  -12.0474 N   0  0  0  0  0  0  0  0  0  0  0  0
   21.9924  -33.0579  -11.3497 C   0  0  1  0  0  0  0  0  0  0  0  0
   20.8991  -32.1087  -11.5353 C   0  0  0  0  0  0  0  0  0  0  0  0
   21.0457  -30.7447  -11.0184 C   0  0  0  0  0  0  0  0  0  0  0  0
   22.2164  -29.9721  -11.1019 C   0  0  0  0  0  0  0  0  0  0  0  0
   21.9750  -28.7751  -10.5746 N   0  0  0  0  0  0  0  0  0  0  0  0
   20.7029  -28.6918  -10.1356 C   0  0  0  0  0  0  0  0  0  0  0  0
   19.9675  -27.7101   -9.5105 C   0  0  0  0  0  0  0  0  0  0  0  0
   18.6702  -27.9420   -9.1599 C   0  0  0  0  0  0  0  0  0  0  0  0
   18.0733  -29.1517   -9.4211 C   0  0  0  0  0  0  0  0  0  0  0  0
   18.8190  -30.1081  -10.0411 C   0  0  0  0  0  0  0  0  0  0  0  0
   20.1333  -29.9360  -10.4215 C   0  0  0  0  0  0  0  0  0  0  0  0
   22.6031  -33.3400  -10.0674 C   0  0  0  0  0  0  0  0  0  0  0  0
   22.2357  -34.4147   -9.4193 O   0  0  0  0  0  0  0  0  0  0  0  0
   27.9350  -33.4649   -7.1263 C   0  0  0  0  0  0  0  0  0  0  0  0
   26.4326  -33.4725   -6.9873 C   0  0  0  0  0  0  0  0  0  0  0  0
   25.6835  -33.0489   -8.2003 C   0  0  2  0  0  0  0  0  0  0  0  0
   26.0891  -31.6007   -8.4961 C   0  0  0  0  0  0  0  0  0  0  0  0
   24.2009  -33.0710   -8.1201 C   0  0  2  0  0  0  0  0  0  0  0  0
   23.5921  -32.6095   -9.3654 N   0  0  0  0  0  0  0  0  0  0  0  0
   23.5959  -32.5242   -6.9075 C   0  0  0  0  0  0  0  0  0  0  0  0
   23.7262  -33.1973   -5.6698 O   0  0  0  0  0  0  0  0  0  0  0  0
   22.9517  -31.4573   -6.9334 O   0  0  0  0  0  0  0  0  0  0  0  0
  2  3  2  0
  2  1  1  0
  4  2  1  0
  5  6  1  6
  5  4  1  0
  7  5  1  0
  8  7  2  0
  9  7  1  0
 10  9  1  0
 10 11  1  1
 11 12  1  0
 12 13  2  0
 13 14  1  0
 15 16  2  0
 15 14  1  0
 17 16  1  0
 18 19  1  0
 18 17  2  0
 19 20  2  0
 20 12  1  0
 20 15  1  0
 21 22  2  0
 21 10  1  0
 23 24  1  0
 24 25  1  0
 25 27  1  0
 25 26  1  1
 27 29  1  0
 27 28  1  6
 28 21  1  0
 29 30  1  0
 31 29  2  0
M  END
$$$$
