NWI.pdb
     RDKit          3D

 31 32  0  0  1  0  0  0  0  0999 V2000
   29.7090  -18.6460  -16.3906 N   0  0  0  0  0  0  0  0  0  0  0  0
   28.3128  -18.8295  -16.4890 C   0  0  0  0  0  0  0  0  0  0  0  0
   27.6992  -18.2557  -17.4102 O   0  0  0  0  0  0  0  0  0  0  0  0
   27.6101  -19.6702  -15.5351 C   0  0  0  0  0  0  0  0  0  0  0  0
   28.5478  -20.3391  -14.5282 C   0  0  2  0  0  0  0  0  0  0  0  0
   29.0702  -21.5112  -15.1899 N   0  0  0  0  0  0  0  0  0  0  0  0
   27.6956  -20.7560  -13.3828 C   0  0  0  0  0  0  0  0  0  0  0  0
   26.5594  -21.2946  -13.6090 O   0  0  0  0  0  0  0  0  0  0  0  0
   28.0691  -20.5910  -12.0360 N   0  0  0  0  0  0  0  0  0  0  0  0
   27.2088  -21.0109  -10.9004 C   0  0  1  0  0  0  0  0  0  0  0  0
   27.9207  -20.9963   -9.6262 C   0  0  0  0  0  0  0  0  0  0  0  0
   27.1598  -20.8025   -8.3882 C   0  0  0  0  0  0  0  0  0  0  0  0
   25.7815  -21.0348   -8.2440 C   0  0  0  0  0  0  0  0  0  0  0  0
   25.4404  -20.8011   -6.9798 N   0  0  0  0  0  0  0  0  0  0  0  0
   26.5124  -20.4210   -6.2559 C   0  0  0  0  0  0  0  0  0  0  0  0
   26.7002  -20.0538   -4.9424 C   0  0  0  0  0  0  0  0  0  0  0  0
   27.9379  -19.6880   -4.5017 C   0  0  0  0  0  0  0  0  0  0  0  0
   29.0164  -19.6783   -5.3528 C   0  0  0  0  0  0  0  0  0  0  0  0
   28.8082  -20.0462   -6.6477 C   0  0  0  0  0  0  0  0  0  0  0  0
   27.5834  -20.4269   -7.1544 C   0  0  0  0  0  0  0  0  0  0  0  0
   25.8903  -20.4434  -11.0912 C   0  0  0  0  0  0  0  0  0  0  0  0
   25.7829  -19.1543  -11.2827 O   0  0  0  0  0  0  0  0  0  0  0  0
   21.5208  -19.6982  -14.7196 C   0  0  0  0  0  0  0  0  0  0  0  0
   21.8137  -19.6703  -13.2397 C   0  0  0  0  0  0  0  0  0  0  0  0
   23.0591  -20.3715  -12.8285 C   0  0  2  0  0  0  0  0  0  0  0  0
   22.9205  -21.8318  -13.2732 C   0  0  0  0  0  0  0  0  0  0  0  0
   23.3738  -20.3934  -11.3775 C   0  0  2  0  0  0  0  0  0  0  0  0
   24.6309  -21.0898  -11.1144 N   0  0  0  0  0  0  0  0  0  0  0  0
   22.2833  -20.7418  -10.4694 C   0  0  0  0  0  0  0  0  0  0  0  0
   21.2759  -19.7988  -10.1566 O   0  0  0  0  0  0  0  0  0  0  0  0
   22.2145  -21.8724   -9.9488 O   0  0  0  0  0  0  0  0  0  0  0  0
  2  3  2  0
  2  1  1  0
  4  2  1  0
  5  6  1  6
  5  4  1  0
  7  5  1  0
  8  7  2  0
  9  7  1  0
 10  9  1  0
 10 11  1  1
 11 12  1  0
 12 13  2  0
 13 14  1  0
 15 16  2  0
 15 14  1  0
 17 16  1  0
 18 19  1  0
 18 17  2  0
 19 20  2  0
 20 12  1  0
 20 15  1  0
 21 22  2  0
 21 10  1  0
 23 24  1  0
 24 25  1  0
 25 27  1  0
 25 26  1  1
 27 29  1  0
 27 28  1  6
 28 21  1  0
 29 30  1  0
 31 29  2  0
M  END
$$$$
