NWI.pdb
     RDKit          3D

 31 32  0  0  1  0  0  0  0  0999 V2000
   27.6027  -23.9900  -19.6994 N   0  0  0  0  0  0  0  0  0  0  0  0
   27.6163  -22.7980  -18.9433 C   0  0  0  0  0  0  0  0  0  0  0  0
   28.1470  -21.7840  -19.4377 O   0  0  0  0  0  0  0  0  0  0  0  0
   27.0230  -22.7583  -17.6177 C   0  0  0  0  0  0  0  0  0  0  0  0
   27.8698  -21.9779  -16.6105 C   0  0  2  0  0  0  0  0  0  0  0  0
   29.0799  -22.7445  -16.4307 N   0  0  0  0  0  0  0  0  0  0  0  0
   27.0968  -21.9681  -15.3399 C   0  0  0  0  0  0  0  0  0  0  0  0
   25.9358  -22.5003  -15.3071 O   0  0  0  0  0  0  0  0  0  0  0  0
   27.5732  -21.3968  -14.1451 N   0  0  0  0  0  0  0  0  0  0  0  0
   26.8106  -21.4323  -12.8711 C   0  0  1  0  0  0  0  0  0  0  0  0
   27.6109  -20.9991  -11.7298 C   0  0  0  0  0  0  0  0  0  0  0  0
   26.9419  -20.7251  -10.4545 C   0  0  0  0  0  0  0  0  0  0  0  0
   25.5723  -20.4485  -10.3054 C   0  0  0  0  0  0  0  0  0  0  0  0
   25.3069  -20.2976   -9.0109 N   0  0  0  0  0  0  0  0  0  0  0  0
   26.4227  -20.4556   -8.2707 C   0  0  0  0  0  0  0  0  0  0  0  0
   26.6964  -20.3860   -6.9232 C   0  0  0  0  0  0  0  0  0  0  0  0
   27.9685  -20.5761   -6.4700 C   0  0  0  0  0  0  0  0  0  0  0  0
   28.9971  -20.8395   -7.3420 C   0  0  0  0  0  0  0  0  0  0  0  0
   28.7036  -20.9050   -8.6705 C   0  0  0  0  0  0  0  0  0  0  0  0
   27.4398  -20.7233   -9.1916 C   0  0  0  0  0  0  0  0  0  0  0  0
   25.4639  -20.9679  -13.1310 C   0  0  0  0  0  0  0  0  0  0  0  0
   25.3004  -19.8070  -13.7103 O   0  0  0  0  0  0  0  0  0  0  0  0
   20.8598  -20.7332  -16.3908 C   0  0  0  0  0  0  0  0  0  0  0  0
   21.2236  -20.5519  -14.9377 C   0  0  0  0  0  0  0  0  0  0  0  0
   22.5261  -21.1451  -14.5335 C   0  0  2  0  0  0  0  0  0  0  0  0
   22.4348  -22.6522  -14.7970 C   0  0  0  0  0  0  0  0  0  0  0  0
   22.9307  -20.9819  -13.1140 C   0  0  2  0  0  0  0  0  0  0  0  0
   24.2282  -21.6011  -12.8543 N   0  0  0  0  0  0  0  0  0  0  0  0
   21.9131  -21.2528  -12.1009 C   0  0  0  0  0  0  0  0  0  0  0  0
   20.7947  -20.3985  -11.9555 O   0  0  0  0  0  0  0  0  0  0  0  0
   22.0053  -22.2376  -11.3422 O   0  0  0  0  0  0  0  0  0  0  0  0
  2  3  2  0
  2  1  1  0
  4  2  1  0
  5  6  1  1
  5  4  1  0
  7  5  1  0
  8  7  2  0
  9  7  1  0
 10  9  1  0
 10 11  1  1
 11 12  1  0
 12 13  2  0
 13 14  1  0
 15 16  2  0
 15 14  1  0
 17 16  1  0
 18 19  1  0
 18 17  2  0
 19 20  2  0
 20 12  1  0
 20 15  1  0
 21 22  2  0
 21 10  1  0
 23 24  1  0
 24 25  1  0
 25 27  1  0
 25 26  1  1
 27 29  1  0
 27 28  1  1
 28 21  1  0
 29 30  1  0
 31 29  2  0
M  END
$$$$
