NWI.pdb
     RDKit          3D

 31 32  0  0  1  0  0  0  0  0999 V2000
   23.1186  -19.9617  -15.6945 N   0  0  0  0  0  0  0  0  0  0  0  0
   23.4025  -19.3320  -14.4634 C   0  0  0  0  0  0  0  0  0  0  0  0
   23.7678  -18.1400  -14.4734 O   0  0  0  0  0  0  0  0  0  0  0  0
   23.2702  -20.0612  -13.2138 C   0  0  0  0  0  0  0  0  0  0  0  0
   24.5829  -20.1453  -12.4327 C   0  0  2  0  0  0  0  0  0  0  0  0
   25.4431  -21.0193  -13.1947 N   0  0  0  0  0  0  0  0  0  0  0  0
   24.2506  -20.7879  -11.1332 C   0  0  0  0  0  0  0  0  0  0  0  0
   23.9068  -22.0182  -11.1109 O   0  0  0  0  0  0  0  0  0  0  0  0
   24.2911  -20.1121   -9.8993 N   0  0  0  0  0  0  0  0  0  0  0  0
   24.0958  -20.7959   -8.5954 C   0  0  1  0  0  0  0  0  0  0  0  0
   24.9746  -20.2725   -7.5541 C   0  0  0  0  0  0  0  0  0  0  0  0
   26.4246  -20.4324   -7.7000 C   0  0  0  0  0  0  0  0  0  0  0  0
   27.0667  -20.9769   -8.8250 C   0  0  0  0  0  0  0  0  0  0  0  0
   28.3816  -20.9241   -8.6318 N   0  0  0  0  0  0  0  0  0  0  0  0
   28.6691  -20.3738   -7.4350 C   0  0  0  0  0  0  0  0  0  0  0  0
   29.8383  -20.1109   -6.7574 C   0  0  0  0  0  0  0  0  0  0  0  0
   29.8008  -19.5515   -5.5142 C   0  0  0  0  0  0  0  0  0  0  0  0
   28.6039  -19.2403   -4.9155 C   0  0  0  0  0  0  0  0  0  0  0  0
   27.4596  -19.5079   -5.6042 C   0  0  0  0  0  0  0  0  0  0  0  0
   27.4301  -20.0708   -6.8628 C   0  0  0  0  0  0  0  0  0  0  0  0
   22.6790  -21.0295   -8.4091 C   0  0  0  0  0  0  0  0  0  0  0  0
   21.8320  -20.1322   -8.8419 O   0  0  0  0  0  0  0  0  0  0  0  0
   17.7667  -22.9093  -10.2278 C   0  0  0  0  0  0  0  0  0  0  0  0
   18.4119  -22.6326   -8.8921 C   0  0  0  0  0  0  0  0  0  0  0  0
   19.8986  -22.5987   -8.9034 C   0  0  2  0  0  0  0  0  0  0  0  0
   20.3779  -24.0138   -9.2455 C   0  0  0  0  0  0  0  0  0  0  0  0
   20.5746  -22.2112   -7.6392 C   0  0  2  0  0  0  0  0  0  0  0  0
   22.0233  -22.1326   -7.8110 N   0  0  0  0  0  0  0  0  0  0  0  0
   20.1420  -22.8937   -6.4218 C   0  0  0  0  0  0  0  0  0  0  0  0
   21.0818  -23.5398   -5.5843 O   0  0  0  0  0  0  0  0  0  0  0  0
   18.9400  -22.9251   -6.0930 O   0  0  0  0  0  0  0  0  0  0  0  0
  2  3  2  0
  2  1  1  0
  4  2  1  0
  5  6  1  6
  5  4  1  0
  7  5  1  0
  8  7  2  0
  9  7  1  0
 10  9  1  0
 10 11  1  1
 11 12  1  0
 12 13  2  0
 13 14  1  0
 15 16  2  0
 15 14  1  0
 17 16  1  0
 18 19  1  0
 18 17  2  0
 19 20  2  0
 20 12  1  0
 20 15  1  0
 21 22  2  0
 21 10  1  0
 23 24  1  0
 24 25  1  0
 25 27  1  0
 25 26  1  1
 27 29  1  0
 27 28  1  6
 28 21  1  0
 29 30  1  0
 31 29  2  0
M  END
$$$$
