LPE.pdb
     RDKit          3D

 25 25  0  0  1  0  0  0  0  0999 V2000
    6.5505  -11.4164   25.8232 C   0  0  0  0  0  0  0  0  0  0  0  0
    6.6214  -12.9059   25.9445 C   0  0  2  0  0  0  0  0  0  0  0  0
    5.7772  -13.4370   27.0809 C   0  0  0  0  0  0  0  0  0  0  0  0
    8.0480  -13.4076   25.9914 C   0  0  0  0  0  0  0  0  0  0  0  0
    8.0011  -14.8865   25.6534 C   0  0  2  0  0  0  0  0  0  0  0  0
    9.3875  -15.3295   25.5745 N   0  0  0  0  0  0  0  0  0  0  0  0
    7.3402  -15.1479   24.3654 C   0  0  0  0  0  0  0  0  0  0  0  0
    6.2457  -15.7983   24.3489 O   0  0  0  0  0  0  0  0  0  0  0  0
    7.9071  -14.6850   23.1455 N   0  0  0  0  0  0  0  0  0  0  0  0
    8.2004  -13.3090   22.8315 C   0  0  0  0  0  0  0  0  0  0  0  0
    7.9157  -13.2255   21.3265 C   0  0  0  0  0  0  0  0  0  0  0  0
    7.8734  -14.6395   20.8409 C   0  0  0  0  0  0  0  0  0  0  0  0
    8.3096  -15.4655   21.9958 C   0  0  1  0  0  0  0  0  0  0  0  0
    9.7718  -15.6940   22.0834 C   0  0  0  0  0  0  0  0  0  0  0  0
   10.4857  -14.8595   22.6666 O   0  0  0  0  0  0  0  0  0  0  0  0
   10.3221  -16.8430   21.5100 N   0  0  0  0  0  0  0  0  0  0  0  0
   11.3695  -17.5815   22.2321 C   0  0  1  0  0  0  0  0  0  0  0  0
   10.7869  -17.8001   23.6026 C   0  0  0  0  0  0  0  0  0  0  0  0
   11.5328  -18.6774   24.5376 C   0  0  0  0  0  0  0  0  0  0  0  0
   10.9265  -18.7270   25.8673 C   0  0  0  0  0  0  0  0  0  0  0  0
    9.7869  -19.2796   25.9977 O   0  0  0  0  0  0  0  0  0  0  0  0
   11.8144  -18.7817   21.5722 C   0  0  0  0  0  0  0  0  0  0  0  0
   13.0413  -18.8920   21.2280 O   0  0  0  0  0  0  0  0  0  0  0  0
   11.5400  -18.2017   26.9714 O   0  0  0  0  0  0  0  0  0  0  0  0
   11.0203  -19.8819   21.2657 O   0  0  0  0  0  0  0  0  0  0  0  0
  2  1  1  1
  3  2  1  0
  4  2  1  0
  4  5  1  0
  5  6  1  6
  7  5  1  0
  7  8  2  0
  9  7  1  0
 10  9  1  0
 11 12  1  0
 11 10  1  0
 12 13  1  0
 13  9  1  0
 13 14  1  6
 14 16  1  0
 15 14  2  0
 17 16  1  0
 17 22  1  0
 17 18  1  1
 19 18  1  0
 20 19  1  0
 21 20  2  0
 22 23  2  0
 22 25  1  0
 24 20  1  0
M  END
$$$$
