LPE.pdb
     RDKit          3D

 25 25  0  0  1  0  0  0  0  0999 V2000
    8.4099  -13.2464   27.0205 C   0  0  0  0  0  0  0  0  0  0  0  0
    7.3261  -13.8377   26.1753 C   0  0  2  0  0  0  0  0  0  0  0  0
    6.1690  -12.8872   25.9660 C   0  0  0  0  0  0  0  0  0  0  0  0
    6.8852  -15.1944   26.6793 C   0  0  0  0  0  0  0  0  0  0  0  0
    6.2500  -15.9112   25.5019 C   0  0  2  0  0  0  0  0  0  0  0  0
    5.6192  -17.1070   26.0465 N   0  0  0  0  0  0  0  0  0  0  0  0
    7.2379  -16.3099   24.4874 C   0  0  0  0  0  0  0  0  0  0  0  0
    7.7508  -17.4740   24.5428 O   0  0  0  0  0  0  0  0  0  0  0  0
    7.6243  -15.4145   23.4516 N   0  0  0  0  0  0  0  0  0  0  0  0
    7.1992  -14.0421   23.3342 C   0  0  0  0  0  0  0  0  0  0  0  0
    7.0935  -13.8374   21.8176 C   0  0  0  0  0  0  0  0  0  0  0  0
    7.8461  -14.9729   21.2000 C   0  0  0  0  0  0  0  0  0  0  0  0
    8.5055  -15.6708   22.3332 C   0  0  1  0  0  0  0  0  0  0  0  0
    9.8529  -15.1603   22.6822 C   0  0  0  0  0  0  0  0  0  0  0  0
    9.9555  -14.1555   23.4075 O   0  0  0  0  0  0  0  0  0  0  0  0
   10.9838  -15.8172   22.1909 N   0  0  0  0  0  0  0  0  0  0  0  0
   12.0928  -16.1304   23.1051 C   0  0  1  0  0  0  0  0  0  0  0  0
   11.4292  -16.8245   24.2641 C   0  0  0  0  0  0  0  0  0  0  0  0
   12.3028  -17.4759   25.2704 C   0  0  0  0  0  0  0  0  0  0  0  0
   11.5439  -18.1231   26.3396 C   0  0  0  0  0  0  0  0  0  0  0  0
   10.9485  -19.2199   26.0872 O   0  0  0  0  0  0  0  0  0  0  0  0
   13.1709  -16.8704   22.5016 C   0  0  0  0  0  0  0  0  0  0  0  0
   14.3774  -16.4904   22.6907 O   0  0  0  0  0  0  0  0  0  0  0  0
   11.4523  -17.5919   27.5969 O   0  0  0  0  0  0  0  0  0  0  0  0
   13.0332  -18.0063   21.7105 O   0  0  0  0  0  0  0  0  0  0  0  0
  2  1  1  1
  3  2  1  0
  4  2  1  0
  4  5  1  0
  5  6  1  1
  7  5  1  0
  7  8  2  0
  9  7  1  0
 10  9  1  0
 11 12  1  0
 11 10  1  0
 12 13  1  0
 13  9  1  0
 13 14  1  1
 14 16  1  0
 15 14  2  0
 17 16  1  0
 17 22  1  0
 17 18  1  1
 19 18  1  0
 20 19  1  0
 21 20  2  0
 22 23  2  0
 22 25  1  0
 24 20  1  0
M  END
$$$$
