LPE.pdb
     RDKit          3D

 25 25  0  0  1  0  0  0  0  0999 V2000
    7.7880  -12.6364   26.8392 C   0  0  0  0  0  0  0  0  0  0  0  0
    6.7789  -13.3821   26.0243 C   0  0  2  0  0  0  0  0  0  0  0  0
    5.5275  -12.5732   25.7673 C   0  0  0  0  0  0  0  0  0  0  0  0
    6.4834  -14.7517   26.5952 C   0  0  0  0  0  0  0  0  0  0  0  0
    6.1055  -15.6397   25.4238 C   0  0  2  0  0  0  0  0  0  0  0  0
    5.4648  -16.8170   25.9965 N   0  0  0  0  0  0  0  0  0  0  0  0
    7.2758  -16.0643   24.6401 C   0  0  0  0  0  0  0  0  0  0  0  0
    7.9563  -17.0665   25.0321 O   0  0  0  0  0  0  0  0  0  0  0  0
    7.6536  -15.3714   23.4564 N   0  0  0  0  0  0  0  0  0  0  0  0
    7.1667  -14.0744   23.0581 C   0  0  0  0  0  0  0  0  0  0  0  0
    7.1031  -14.1792   21.5291 C   0  0  0  0  0  0  0  0  0  0  0  0
    7.9305  -15.3717   21.1678 C   0  0  0  0  0  0  0  0  0  0  0  0
    8.5839  -15.7952   22.4327 C   0  0  1  0  0  0  0  0  0  0  0  0
    9.8922  -15.1535   22.7053 C   0  0  0  0  0  0  0  0  0  0  0  0
    9.9211  -13.9987   23.1655 O   0  0  0  0  0  0  0  0  0  0  0  0
   11.0698  -15.8573   22.4411 N   0  0  0  0  0  0  0  0  0  0  0  0
   12.0808  -15.9993   23.4999 C   0  0  1  0  0  0  0  0  0  0  0  0
   11.3315  -16.6332   24.6411 C   0  0  0  0  0  0  0  0  0  0  0  0
   11.4252  -18.1055   24.7951 C   0  0  0  0  0  0  0  0  0  0  0  0
   11.7232  -18.5098   26.1683 C   0  0  0  0  0  0  0  0  0  0  0  0
   11.9911  -17.6070   27.0253 O   0  0  0  0  0  0  0  0  0  0  0  0
   13.2691  -16.7067   23.0975 C   0  0  0  0  0  0  0  0  0  0  0  0
   13.1971  -17.5747   22.1609 O   0  0  0  0  0  0  0  0  0  0  0  0
   11.7240  -19.8199   26.5617 O   0  0  0  0  0  0  0  0  0  0  0  0
   14.5398  -16.5314   23.6356 O   0  0  0  0  0  0  0  0  0  0  0  0
  2  1  1  1
  3  2  1  0
  4  2  1  0
  4  5  1  0
  5  6  1  1
  7  5  1  0
  7  8  2  0
  9  7  1  0
 10  9  1  0
 11 12  1  0
 11 10  1  0
 12 13  1  0
 13  9  1  0
 13 14  1  1
 14 16  1  0
 15 14  2  0
 17 16  1  0
 17 22  1  0
 17 18  1  1
 19 18  1  0
 20 19  1  0
 21 20  2  0
 22 23  2  0
 22 25  1  0
 24 20  1  0
M  END
$$$$
