LPE.pdb
     RDKit          3D

 25 25  0  0  1  0  0  0  0  0999 V2000
    5.7809  -13.6080   26.5398 C   0  0  0  0  0  0  0  0  0  0  0  0
    7.1012  -13.3345   25.8915 C   0  0  2  0  0  0  0  0  0  0  0  0
    7.3736  -11.8560   25.7292 C   0  0  0  0  0  0  0  0  0  0  0  0
    7.2748  -14.1064   24.6018 C   0  0  0  0  0  0  0  0  0  0  0  0
    8.7306  -13.9595   24.1987 C   0  0  2  0  0  0  0  0  0  0  0  0
    8.7971  -14.3033   22.7838 N   0  0  0  0  0  0  0  0  0  0  0  0
    9.6162  -14.8600   24.9531 C   0  0  0  0  0  0  0  0  0  0  0  0
   10.3021  -15.7285   24.3235 O   0  0  0  0  0  0  0  0  0  0  0  0
    9.7138  -14.7718   26.3696 N   0  0  0  0  0  0  0  0  0  0  0  0
    8.7774  -14.0918   27.2292 C   0  0  0  0  0  0  0  0  0  0  0  0
    9.6701  -13.5282   28.3421 C   0  0  0  0  0  0  0  0  0  0  0  0
   10.9663  -14.2672   28.2380 C   0  0  0  0  0  0  0  0  0  0  0  0
   10.7319  -15.3333   27.2306 C   0  0  1  0  0  0  0  0  0  0  0  0
   10.2169  -16.6100   27.7806 C   0  0  0  0  0  0  0  0  0  0  0  0
    9.0300  -16.6830   28.1440 O   0  0  0  0  0  0  0  0  0  0  0  0
   11.0736  -17.7090   27.8804 N   0  0  0  0  0  0  0  0  0  0  0  0
   10.5121  -19.0425   28.1453 C   0  0  1  0  0  0  0  0  0  0  0  0
   11.1731  -19.9292   27.1244 C   0  0  0  0  0  0  0  0  0  0  0  0
   11.1611  -19.4816   25.7103 C   0  0  0  0  0  0  0  0  0  0  0  0
   11.8260  -20.4273   24.8151 C   0  0  0  0  0  0  0  0  0  0  0  0
   12.2537  -21.5256   25.2969 O   0  0  0  0  0  0  0  0  0  0  0  0
   10.6539  -19.4885   29.5073 C   0  0  0  0  0  0  0  0  0  0  0  0
   11.4525  -18.8696   30.2915 O   0  0  0  0  0  0  0  0  0  0  0  0
   12.0033  -20.1729   23.4828 O   0  0  0  0  0  0  0  0  0  0  0  0
    9.9796  -20.5589   30.0857 O   0  0  0  0  0  0  0  0  0  0  0  0
  2  1  1  6
  3  2  1  0
  4  2  1  0
  4  5  1  0
  5  6  1  6
  7  5  1  0
  7  8  2  0
  9  7  1  0
 10  9  1  0
 11 12  1  0
 11 10  1  0
 12 13  1  0
 13  9  1  0
 13 14  1  1
 14 16  1  0
 15 14  2  0
 17 16  1  0
 17 22  1  0
 17 18  1  6
 19 18  1  0
 20 19  1  0
 21 20  2  0
 22 23  2  0
 22 25  1  0
 24 20  1  0
M  END
$$$$
