LPE.pdb
     RDKit          3D

 25 25  0  0  1  0  0  0  0  0999 V2000
    5.6192  -12.5531   26.2409 C   0  0  0  0  0  0  0  0  0  0  0  0
    6.7291  -13.2676   26.9452 C   0  0  2  0  0  0  0  0  0  0  0  0
    7.5352  -12.3516   27.8382 C   0  0  0  0  0  0  0  0  0  0  0  0
    7.5925  -14.0628   25.9907 C   0  0  0  0  0  0  0  0  0  0  0  0
    6.6841  -15.0816   25.3271 C   0  0  2  0  0  0  0  0  0  0  0  0
    6.2295  -15.9722   26.3877 N   0  0  0  0  0  0  0  0  0  0  0  0
    7.3819  -15.8734   24.3023 C   0  0  0  0  0  0  0  0  0  0  0  0
    7.5945  -17.1113   24.5110 O   0  0  0  0  0  0  0  0  0  0  0  0
    7.8193  -15.2748   23.0881 N   0  0  0  0  0  0  0  0  0  0  0  0
    7.5179  -13.9300   22.6656 C   0  0  0  0  0  0  0  0  0  0  0  0
    7.3891  -14.0625   21.1428 C   0  0  0  0  0  0  0  0  0  0  0  0
    8.0176  -15.3740   20.7935 C   0  0  0  0  0  0  0  0  0  0  0  0
    8.6420  -15.8587   22.0511 C   0  0  1  0  0  0  0  0  0  0  0  0
   10.0395  -15.4132   22.2667 C   0  0  0  0  0  0  0  0  0  0  0  0
   10.2528  -14.3149   22.8093 O   0  0  0  0  0  0  0  0  0  0  0  0
   11.0923  -16.2352   21.8572 N   0  0  0  0  0  0  0  0  0  0  0  0
   12.2024  -16.5048   22.7839 C   0  0  1  0  0  0  0  0  0  0  0  0
   11.5400  -17.1434   23.9751 C   0  0  0  0  0  0  0  0  0  0  0  0
   12.4129  -17.6350   25.0689 C   0  0  0  0  0  0  0  0  0  0  0  0
   11.6535  -18.1874   26.1897 C   0  0  0  0  0  0  0  0  0  0  0  0
   10.3818  -18.1447   26.1446 O   0  0  0  0  0  0  0  0  0  0  0  0
   13.2799  -17.2725   22.2149 C   0  0  0  0  0  0  0  0  0  0  0  0
   13.0128  -18.3201   21.5315 O   0  0  0  0  0  0  0  0  0  0  0  0
   12.2609  -18.7462   27.2806 O   0  0  0  0  0  0  0  0  0  0  0  0
   14.6346  -16.9775   22.3270 O   0  0  0  0  0  0  0  0  0  0  0  0
  2  1  1  6
  3  2  1  0
  4  2  1  0
  4  5  1  0
  5  6  1  1
  7  5  1  0
  7  8  2  0
  9  7  1  0
 10  9  1  0
 11 12  1  0
 11 10  1  0
 12 13  1  0
 13  9  1  0
 13 14  1  1
 14 16  1  0
 15 14  2  0
 17 16  1  0
 17 22  1  0
 17 18  1  1
 19 18  1  0
 20 19  1  0
 21 20  2  0
 22 23  2  0
 22 25  1  0
 24 20  1  0
M  END
$$$$
