LPE.pdb
     RDKit          3D

 25 25  0  0  1  0  0  0  0  0999 V2000
    5.3409  -12.4622   26.1546 C   0  0  0  0  0  0  0  0  0  0  0  0
    6.4956  -13.0538   26.8997 C   0  0  2  0  0  0  0  0  0  0  0  0
    7.2521  -12.0255   27.7101 C   0  0  0  0  0  0  0  0  0  0  0  0
    7.3981  -13.8693   26.0001 C   0  0  0  0  0  0  0  0  0  0  0  0
    6.5315  -14.9472   25.3752 C   0  0  2  0  0  0  0  0  0  0  0  0
    6.1194  -15.8208   26.4668 N   0  0  0  0  0  0  0  0  0  0  0  0
    7.2586  -15.7421   24.3733 C   0  0  0  0  0  0  0  0  0  0  0  0
    7.4740  -16.9770   24.5966 O   0  0  0  0  0  0  0  0  0  0  0  0
    7.7211  -15.1499   23.1654 N   0  0  0  0  0  0  0  0  0  0  0  0
    7.5238  -13.7742   22.7824 C   0  0  0  0  0  0  0  0  0  0  0  0
    7.3560  -13.8558   21.2598 C   0  0  0  0  0  0  0  0  0  0  0  0
    7.8674  -15.2048   20.8654 C   0  0  0  0  0  0  0  0  0  0  0  0
    8.4732  -15.7718   22.0974 C   0  0  1  0  0  0  0  0  0  0  0  0
    9.9064  -15.4483   22.2946 C   0  0  0  0  0  0  0  0  0  0  0  0
   10.2193  -14.4171   22.9152 O   0  0  0  0  0  0  0  0  0  0  0  0
   10.8806  -16.3076   21.7805 N   0  0  0  0  0  0  0  0  0  0  0  0
   12.0225  -16.6938   22.6236 C   0  0  1  0  0  0  0  0  0  0  0  0
   11.3905  -17.3635   23.8142 C   0  0  0  0  0  0  0  0  0  0  0  0
   12.2906  -18.0041   24.8040 C   0  0  0  0  0  0  0  0  0  0  0  0
   11.5631  -18.5948   25.9265 C   0  0  0  0  0  0  0  0  0  0  0  0
   12.2278  -19.1539   26.8574 O   0  0  0  0  0  0  0  0  0  0  0  0
   13.0189  -17.4859   21.9500 C   0  0  0  0  0  0  0  0  0  0  0  0
   12.6732  -18.2283   20.9676 O   0  0  0  0  0  0  0  0  0  0  0  0
   10.1980  -18.5670   26.0097 O   0  0  0  0  0  0  0  0  0  0  0  0
   14.3740  -17.5228   22.2619 O   0  0  0  0  0  0  0  0  0  0  0  0
  2  1  1  6
  3  2  1  0
  4  2  1  0
  4  5  1  0
  5  6  1  1
  7  5  1  0
  7  8  2  0
  9  7  1  0
 10  9  1  0
 11 12  1  0
 11 10  1  0
 12 13  1  0
 13  9  1  0
 13 14  1  1
 14 16  1  0
 15 14  2  0
 17 16  1  0
 17 22  1  0
 17 18  1  1
 19 18  1  0
 20 19  1  0
 21 20  2  0
 22 23  2  0
 22 25  1  0
 24 20  1  0
M  END
$$$$
