LPE.pdb
     RDKit          3D

 25 25  0  0  1  0  0  0  0  0999 V2000
    5.5261  -12.3903   25.9281 C   0  0  0  0  0  0  0  0  0  0  0  0
    6.6193  -13.1231   26.6398 C   0  0  2  0  0  0  0  0  0  0  0  0
    7.4181  -12.2256   27.5578 C   0  0  0  0  0  0  0  0  0  0  0  0
    7.4916  -13.9118   25.6881 C   0  0  0  0  0  0  0  0  0  0  0  0
    6.6449  -15.0606   25.1714 C   0  0  2  0  0  0  0  0  0  0  0  0
    6.2805  -15.8538   26.3387 N   0  0  0  0  0  0  0  0  0  0  0  0
    7.3749  -15.9136   24.2209 C   0  0  0  0  0  0  0  0  0  0  0  0
    7.5633  -17.1405   24.5045 O   0  0  0  0  0  0  0  0  0  0  0  0
    7.8700  -15.3860   22.9960 N   0  0  0  0  0  0  0  0  0  0  0  0
    7.6784  -14.0346   22.5323 C   0  0  0  0  0  0  0  0  0  0  0  0
    7.5552  -14.2007   21.0123 C   0  0  0  0  0  0  0  0  0  0  0  0
    8.0833  -15.5665   20.7077 C   0  0  0  0  0  0  0  0  0  0  0  0
    8.6553  -16.0615   21.9861 C   0  0  1  0  0  0  0  0  0  0  0  0
   10.0809  -15.7195   22.2064 C   0  0  0  0  0  0  0  0  0  0  0  0
   10.3704  -14.7272   22.8976 O   0  0  0  0  0  0  0  0  0  0  0  0
   11.0742  -16.5183   21.6344 N   0  0  0  0  0  0  0  0  0  0  0  0
   12.2241  -16.9379   22.4500 C   0  0  1  0  0  0  0  0  0  0  0  0
   11.6027  -17.6343   23.6309 C   0  0  0  0  0  0  0  0  0  0  0  0
   12.5136  -18.2244   24.6419 C   0  0  0  0  0  0  0  0  0  0  0  0
   11.7947  -18.8266   25.7637 C   0  0  0  0  0  0  0  0  0  0  0  0
   11.4813  -18.0896   26.7535 O   0  0  0  0  0  0  0  0  0  0  0  0
   13.2033  -17.7204   21.7407 C   0  0  0  0  0  0  0  0  0  0  0  0
   14.4196  -17.3263   21.7085 O   0  0  0  0  0  0  0  0  0  0  0  0
   11.4489  -20.1499   25.7855 O   0  0  0  0  0  0  0  0  0  0  0  0
   12.9573  -18.9127   21.0677 O   0  0  0  0  0  0  0  0  0  0  0  0
  2  1  1  6
  3  2  1  0
  4  2  1  0
  4  5  1  0
  5  6  1  1
  7  5  1  0
  7  8  2  0
  9  7  1  0
 10  9  1  0
 11 12  1  0
 11 10  1  0
 12 13  1  0
 13  9  1  0
 13 14  1  1
 14 16  1  0
 15 14  2  0
 17 16  1  0
 17 22  1  0
 17 18  1  1
 19 18  1  0
 20 19  1  0
 21 20  2  0
 22 23  2  0
 22 25  1  0
 24 20  1  0
M  END
$$$$
