LPE.pdb
     RDKit          3D

 25 25  0  0  1  0  0  0  0  0999 V2000
    5.3504  -12.5026   26.1342 C   0  0  0  0  0  0  0  0  0  0  0  0
    6.5665  -13.1475   26.7205 C   0  0  2  0  0  0  0  0  0  0  0  0
    7.3875  -12.1894   27.5538 C   0  0  0  0  0  0  0  0  0  0  0  0
    7.3903  -13.8684   25.6761 C   0  0  0  0  0  0  0  0  0  0  0  0
    6.5748  -15.0682   25.2300 C   0  0  2  0  0  0  0  0  0  0  0  0
    6.3521  -15.8746   26.4236 N   0  0  0  0  0  0  0  0  0  0  0  0
    7.2764  -15.8823   24.2254 C   0  0  0  0  0  0  0  0  0  0  0  0
    7.4490  -17.1249   24.4425 O   0  0  0  0  0  0  0  0  0  0  0  0
    7.7613  -15.2999   23.0215 N   0  0  0  0  0  0  0  0  0  0  0  0
    7.5950  -13.9207   22.6364 C   0  0  0  0  0  0  0  0  0  0  0  0
    7.4392  -13.9996   21.1124 C   0  0  0  0  0  0  0  0  0  0  0  0
    7.9271  -15.3587   20.7229 C   0  0  0  0  0  0  0  0  0  0  0  0
    8.5104  -15.9372   21.9604 C   0  0  1  0  0  0  0  0  0  0  0  0
    9.9480  -15.6421   22.1704 C   0  0  0  0  0  0  0  0  0  0  0  0
   10.2749  -14.6563   22.8541 O   0  0  0  0  0  0  0  0  0  0  0  0
   10.9104  -16.4770   21.5971 N   0  0  0  0  0  0  0  0  0  0  0  0
   12.0736  -16.8946   22.3948 C   0  0  1  0  0  0  0  0  0  0  0  0
   11.4713  -17.5653   23.6001 C   0  0  0  0  0  0  0  0  0  0  0  0
   12.3950  -18.2132   24.5630 C   0  0  0  0  0  0  0  0  0  0  0  0
   11.6944  -18.8185   25.6946 C   0  0  0  0  0  0  0  0  0  0  0  0
   12.3496  -19.0593   26.7595 O   0  0  0  0  0  0  0  0  0  0  0  0
   13.0297  -17.6982   21.6777 C   0  0  0  0  0  0  0  0  0  0  0  0
   12.6142  -18.6080   20.8806 O   0  0  0  0  0  0  0  0  0  0  0  0
   10.3641  -19.1337   25.6480 O   0  0  0  0  0  0  0  0  0  0  0  0
   14.4133  -17.5780   21.7569 O   0  0  0  0  0  0  0  0  0  0  0  0
  2  1  1  6
  3  2  1  0
  4  2  1  0
  4  5  1  0
  5  6  1  1
  7  5  1  0
  7  8  2  0
  9  7  1  0
 10  9  1  0
 11 12  1  0
 11 10  1  0
 12 13  1  0
 13  9  1  0
 13 14  1  1
 14 16  1  0
 15 14  2  0
 17 16  1  0
 17 22  1  0
 17 18  1  1
 19 18  1  0
 20 19  1  0
 21 20  2  0
 22 23  2  0
 22 25  1  0
 24 20  1  0
M  END
$$$$
