LPE.pdb
     RDKit          3D

 25 25  0  0  1  0  0  0  0  0999 V2000
    8.9442  -14.9441   29.3308 C   0  0  0  0  0  0  0  0  0  0  0  0
    9.1325  -15.0430   27.8498 C   0  0  2  0  0  0  0  0  0  0  0  0
   10.4542  -14.4682   27.3926 C   0  0  0  0  0  0  0  0  0  0  0  0
    7.9541  -14.4806   27.0856 C   0  0  0  0  0  0  0  0  0  0  0  0
    7.1192  -15.6663   26.6378 C   0  0  2  0  0  0  0  0  0  0  0  0
    7.1844  -16.6409   27.7198 N   0  0  0  0  0  0  0  0  0  0  0  0
    7.6342  -16.2828   25.4055 C   0  0  0  0  0  0  0  0  0  0  0  0
    7.5896  -17.5489   25.2781 O   0  0  0  0  0  0  0  0  0  0  0  0
    8.1784  -15.4850   24.3610 N   0  0  0  0  0  0  0  0  0  0  0  0
    8.2047  -14.0438   24.3399 C   0  0  0  0  0  0  0  0  0  0  0  0
    8.0153  -13.7124   22.8541 C   0  0  0  0  0  0  0  0  0  0  0  0
    8.2980  -14.9813   22.1146 C   0  0  0  0  0  0  0  0  0  0  0  0
    8.8121  -15.9273   23.1379 C   0  0  1  0  0  0  0  0  0  0  0  0
   10.2802  -15.8908   23.3407 C   0  0  0  0  0  0  0  0  0  0  0  0
   10.7737  -15.0126   24.0698 O   0  0  0  0  0  0  0  0  0  0  0  0
   11.0837  -16.8438   22.7100 N   0  0  0  0  0  0  0  0  0  0  0  0
   12.4244  -17.1279   23.2444 C   0  0  1  0  0  0  0  0  0  0  0  0
   12.4609  -18.6275   23.3680 C   0  0  0  0  0  0  0  0  0  0  0  0
   13.7012  -19.2465   23.8959 C   0  0  0  0  0  0  0  0  0  0  0  0
   13.6294  -20.7064   23.9335 C   0  0  0  0  0  0  0  0  0  0  0  0
   12.5516  -21.2738   23.5626 O   0  0  0  0  0  0  0  0  0  0  0  0
   13.5037  -16.5640   22.4754 C   0  0  0  0  0  0  0  0  0  0  0  0
   13.3226  -16.3011   21.2369 O   0  0  0  0  0  0  0  0  0  0  0  0
   14.6770  -21.4801   24.3521 O   0  0  0  0  0  0  0  0  0  0  0  0
   14.7703  -16.2540   22.9596 O   0  0  0  0  0  0  0  0  0  0  0  0
  2  1  1  1
  3  2  1  0
  4  2  1  0
  4  5  1  0
  5  6  1  1
  7  5  1  0
  7  8  2  0
  9  7  1  0
 10  9  1  0
 11 12  1  0
 11 10  1  0
 12 13  1  0
 13  9  1  0
 13 14  1  1
 14 16  1  0
 15 14  2  0
 17 16  1  0
 17 22  1  0
 17 18  1  6
 19 18  1  0
 20 19  1  0
 21 20  2  0
 22 23  2  0
 22 25  1  0
 24 20  1  0
M  END
$$$$
