LPE.pdb
     RDKit          3D

 25 25  0  0  1  0  0  0  0  0999 V2000
    8.1347  -12.3747   26.8773 C   0  0  0  0  0  0  0  0  0  0  0  0
    7.1225  -13.1860   26.1319 C   0  0  2  0  0  0  0  0  0  0  0  0
    5.7374  -12.5822   26.1898 C   0  0  0  0  0  0  0  0  0  0  0  0
    7.1436  -14.6421   26.5422 C   0  0  0  0  0  0  0  0  0  0  0  0
    6.3407  -15.3999   25.5008 C   0  0  2  0  0  0  0  0  0  0  0  0
    5.5744  -16.4032   26.2294 N   0  0  0  0  0  0  0  0  0  0  0  0
    7.1968  -16.0747   24.5129 C   0  0  0  0  0  0  0  0  0  0  0  0
    7.4952  -17.3007   24.6831 O   0  0  0  0  0  0  0  0  0  0  0  0
    7.6921  -15.3766   23.3766 N   0  0  0  0  0  0  0  0  0  0  0  0
    7.4253  -13.9946   23.0653 C   0  0  0  0  0  0  0  0  0  0  0  0
    7.3589  -13.9879   21.5328 C   0  0  0  0  0  0  0  0  0  0  0  0
    7.9852  -15.2726   21.0924 C   0  0  0  0  0  0  0  0  0  0  0  0
    8.5503  -15.8781   22.3254 C   0  0  1  0  0  0  0  0  0  0  0  0
    9.9429  -15.4762   22.6369 C   0  0  0  0  0  0  0  0  0  0  0  0
   10.1543  -14.3752   23.1748 O   0  0  0  0  0  0  0  0  0  0  0  0
   10.9934  -16.3416   22.3216 N   0  0  0  0  0  0  0  0  0  0  0  0
   12.2192  -16.3178   23.1343 C   0  0  1  0  0  0  0  0  0  0  0  0
   11.7422  -16.6256   24.5283 C   0  0  0  0  0  0  0  0  0  0  0  0
   11.0695  -17.9278   24.7556 C   0  0  0  0  0  0  0  0  0  0  0  0
   11.3338  -18.4729   26.0864 C   0  0  0  0  0  0  0  0  0  0  0  0
   12.1503  -17.8584   26.8460 O   0  0  0  0  0  0  0  0  0  0  0  0
   13.2677  -17.1815   22.6558 C   0  0  0  0  0  0  0  0  0  0  0  0
   12.9832  -18.1203   21.8351 O   0  0  0  0  0  0  0  0  0  0  0  0
   10.7359  -19.6162   26.5410 O   0  0  0  0  0  0  0  0  0  0  0  0
   14.6128  -17.0927   22.9989 O   0  0  0  0  0  0  0  0  0  0  0  0
  2  1  1  1
  3  2  1  0
  4  2  1  0
  4  5  1  0
  5  6  1  1
  7  5  1  0
  7  8  2  0
  9  7  1  0
 10  9  1  0
 11 12  1  0
 11 10  1  0
 12 13  1  0
 13  9  1  0
 13 14  1  1
 14 16  1  0
 15 14  2  0
 17 16  1  0
 17 22  1  0
 17 18  1  1
 19 18  1  0
 20 19  1  0
 21 20  2  0
 22 23  2  0
 22 25  1  0
 24 20  1  0
M  END
$$$$
