LPE.pdb
     RDKit          3D

 25 25  0  0  1  0  0  0  0  0999 V2000
    6.7951  -11.1026   25.9687 C   0  0  0  0  0  0  0  0  0  0  0  0
    6.7702  -12.5677   25.6666 C   0  0  2  0  0  0  0  0  0  0  0  0
    5.9378  -13.3509   26.6567 C   0  0  0  0  0  0  0  0  0  0  0  0
    8.1604  -13.1382   25.4906 C   0  0  0  0  0  0  0  0  0  0  0  0
    7.9886  -14.6067   25.1477 C   0  0  2  0  0  0  0  0  0  0  0  0
    9.3334  -15.1530   25.0152 N   0  0  0  0  0  0  0  0  0  0  0  0
    7.2627  -14.8075   23.8840 C   0  0  0  0  0  0  0  0  0  0  0  0
    6.1812  -15.4794   23.8883 O   0  0  0  0  0  0  0  0  0  0  0  0
    7.7530  -14.2629   22.6647 N   0  0  0  0  0  0  0  0  0  0  0  0
    8.5822  -13.0893   22.5495 C   0  0  0  0  0  0  0  0  0  0  0  0
    8.1064  -12.4525   21.2376 C   0  0  0  0  0  0  0  0  0  0  0  0
    7.3375  -13.5179   20.5230 C   0  0  0  0  0  0  0  0  0  0  0  0
    7.5441  -14.7542   21.3201 C   0  0  1  0  0  0  0  0  0  0  0  0
    8.7298  -15.5558   20.9334 C   0  0  0  0  0  0  0  0  0  0  0  0
    9.6523  -15.0138   20.2999 O   0  0  0  0  0  0  0  0  0  0  0  0
    8.7903  -16.9058   21.2879 N   0  0  0  0  0  0  0  0  0  0  0  0
   10.0362  -17.6563   21.0683 C   0  0  1  0  0  0  0  0  0  0  0  0
   10.7103  -17.6518   22.4141 C   0  0  0  0  0  0  0  0  0  0  0  0
   11.9339  -18.4744   22.5758 C   0  0  0  0  0  0  0  0  0  0  0  0
   12.9514  -17.8148   23.3930 C   0  0  0  0  0  0  0  0  0  0  0  0
   12.5742  -17.0036   24.2990 O   0  0  0  0  0  0  0  0  0  0  0  0
    9.8501  -18.9648   20.4963 C   0  0  0  0  0  0  0  0  0  0  0  0
   10.8705  -19.6357   20.1163 O   0  0  0  0  0  0  0  0  0  0  0  0
   14.2893  -18.0390   23.2175 O   0  0  0  0  0  0  0  0  0  0  0  0
    8.6288  -19.6055   20.3149 O   0  0  0  0  0  0  0  0  0  0  0  0
  2  1  1  1
  3  2  1  0
  4  2  1  0
  4  5  1  0
  5  6  1  6
  7  5  1  0
  7  8  2  0
  9  7  1  0
 10  9  1  0
 11 12  1  0
 11 10  1  0
 12 13  1  0
 13  9  1  0
 13 14  1  6
 14 16  1  0
 15 14  2  0
 17 16  1  0
 17 22  1  0
 17 18  1  1
 19 18  1  0
 20 19  1  0
 21 20  2  0
 22 23  2  0
 22 25  1  0
 24 20  1  0
M  END
$$$$
