LPE.pdb
     RDKit          3D

 25 25  0  0  1  0  0  0  0  0999 V2000
    9.4245  -13.8899   28.1693 C   0  0  0  0  0  0  0  0  0  0  0  0
    8.5211  -13.6279   27.0057 C   0  0  2  0  0  0  0  0  0  0  0  0
    8.3796  -12.1538   26.7006 C   0  0  0  0  0  0  0  0  0  0  0  0
    7.1868  -14.3262   27.1503 C   0  0  0  0  0  0  0  0  0  0  0  0
    6.4446  -14.1230   25.8421 C   0  0  2  0  0  0  0  0  0  0  0  0
    5.0249  -14.1740   26.1682 N   0  0  0  0  0  0  0  0  0  0  0  0
    6.7479  -15.1711   24.8553 C   0  0  0  0  0  0  0  0  0  0  0  0
    6.2111  -16.3186   24.9824 O   0  0  0  0  0  0  0  0  0  0  0  0
    7.6293  -14.9182   23.7676 N   0  0  0  0  0  0  0  0  0  0  0  0
    8.4328  -13.7326   23.6038 C   0  0  0  0  0  0  0  0  0  0  0  0
    8.4412  -13.5232   22.0842 C   0  0  0  0  0  0  0  0  0  0  0  0
    7.9843  -14.8184   21.4920 C   0  0  0  0  0  0  0  0  0  0  0  0
    7.9116  -15.7684   22.6316 C   0  0  1  0  0  0  0  0  0  0  0  0
    9.1664  -16.5071   22.9100 C   0  0  0  0  0  0  0  0  0  0  0  0
    9.7792  -17.0443   21.9708 O   0  0  0  0  0  0  0  0  0  0  0  0
    9.6390  -16.5864   24.2223 N   0  0  0  0  0  0  0  0  0  0  0  0
   10.9184  -17.2606   24.4911 C   0  0  1  0  0  0  0  0  0  0  0  0
   11.9184  -16.4931   23.6687 C   0  0  0  0  0  0  0  0  0  0  0  0
   13.3571  -16.6899   23.9714 C   0  0  0  0  0  0  0  0  0  0  0  0
   14.1961  -16.6380   22.7750 C   0  0  0  0  0  0  0  0  0  0  0  0
   13.9375  -15.7636   21.8863 O   0  0  0  0  0  0  0  0  0  0  0  0
   11.2510  -17.3715   25.8879 C   0  0  0  0  0  0  0  0  0  0  0  0
   10.7037  -16.5789   26.7293 O   0  0  0  0  0  0  0  0  0  0  0  0
   15.2450  -17.4938   22.5791 O   0  0  0  0  0  0  0  0  0  0  0  0
   12.1334  -18.2932   26.4419 O   0  0  0  0  0  0  0  0  0  0  0  0
  2  1  1  1
  3  2  1  0
  4  2  1  0
  4  5  1  0
  5  6  1  1
  7  5  1  0
  7  8  2  0
  9  7  1  0
 10  9  1  0
 11 12  1  0
 11 10  1  0
 12 13  1  0
 13  9  1  0
 13 14  1  1
 14 16  1  0
 15 14  2  0
 17 16  1  0
 17 22  1  0
 17 18  1  6
 19 18  1  0
 20 19  1  0
 21 20  2  0
 22 23  2  0
 22 25  1  0
 24 20  1  0
M  END
$$$$
