TDF.pdb
     RDKit          3D

 27 27  0  0  1  0  0  0  0  0999 V2000
    7.9733  -13.4900   21.7118 C   0  0  0  0  0  0  0  0  0  0  0  0
    6.8342  -14.4540   21.6241 C   0  0  1  0  0  0  0  0  0  0  0  0
    5.8018  -13.9197   20.8636 O   0  0  0  0  0  0  0  0  0  0  0  0
    7.2674  -15.8129   21.0956 C   0  0  2  0  0  0  0  0  0  0  0  0
    6.1142  -16.6405   20.8037 N   0  0  0  0  0  0  0  0  0  0  0  0
    8.2024  -16.4746   22.0254 C   0  0  0  0  0  0  0  0  0  0  0  0
    7.7637  -17.3424   22.8207 O   0  0  0  0  0  0  0  0  0  0  0  0
    9.5907  -16.1977   22.0898 N   0  0  0  0  0  0  0  0  0  0  0  0
   10.5260  -16.8702   22.9768 C   0  0  1  0  0  0  0  0  0  0  0  0
   11.9279  -16.8179   22.4058 C   0  0  0  0  0  0  0  0  0  0  0  0
   12.2473  -18.0391   21.6347 C   0  0  0  0  0  0  0  0  0  0  0  0
   11.6426  -18.3063   20.5417 O   0  0  0  0  0  0  0  0  0  0  0  0
   10.5453  -16.2992   24.3234 C   0  0  0  0  0  0  0  0  0  0  0  0
   11.4009  -15.4458   24.6298 O   0  0  0  0  0  0  0  0  0  0  0  0
   13.2118  -18.8960   22.1086 O   0  0  0  0  0  0  0  0  0  0  0  0
    9.5733  -16.7394   25.2601 N   0  0  0  0  0  0  0  0  0  0  0  0
    9.6467  -16.3841   26.6651 C   0  0  1  0  0  0  0  0  0  0  0  0
    8.2789  -15.9826   27.1359 C   0  0  0  0  0  0  0  0  0  0  0  0
    7.8700  -14.6506   26.6496 C   0  0  0  0  0  0  0  0  0  0  0  0
    6.8157  -14.4762   25.7817 C   0  0  0  0  0  0  0  0  0  0  0  0
    6.4236  -13.2401   25.3193 C   0  0  0  0  0  0  0  0  0  0  0  0
    7.1416  -12.1367   25.7654 C   0  0  0  0  0  0  0  0  0  0  0  0
    8.1856  -12.3025   26.6237 C   0  0  0  0  0  0  0  0  0  0  0  0
    8.5569  -13.5415   27.0696 C   0  0  0  0  0  0  0  0  0  0  0  0
   10.1627  -17.4857   27.4934 C   0  0  0  0  0  0  0  0  0  0  0  0
   10.3570  -18.6271   27.0087 O   0  0  0  0  0  0  0  0  0  0  0  0
   10.4518  -17.2986   28.8352 O   0  0  0  0  0  0  0  0  0  0  0  0
  2  1  1  6
  2  3  1  0
  4  2  1  0
  4  5  1  1
  6  7  2  0
  6  4  1  0
  8  6  1  0
  9 10  1  6
  9  8  1  0
 11 15  1  0
 11 10  1  0
 12 11  2  0
 13  9  1  0
 14 13  2  0
 16 13  1  0
 17 16  1  0
 18 19  1  0
 17 18  1  1
 19 20  2  0
 20 21  1  0
 22 21  2  0
 23 22  1  0
 24 19  1  0
 24 23  2  0
 25 27  1  0
 25 17  1  0
 26 25  2  0
M  END
$$$$
