TDF.pdb
     RDKit          3D

 27 27  0  0  1  0  0  0  0  0999 V2000
    7.0281  -12.6274   18.8958 C   0  0  0  0  0  0  0  0  0  0  0  0
    7.1538  -13.7768   19.8432 C   0  0  1  0  0  0  0  0  0  0  0  0
    7.1925  -14.9788   19.1479 O   0  0  0  0  0  0  0  0  0  0  0  0
    8.3513  -13.6326   20.7700 C   0  0  2  0  0  0  0  0  0  0  0  0
    9.5752  -13.4904   20.0073 N   0  0  0  0  0  0  0  0  0  0  0  0
    8.4232  -14.7521   21.7282 C   0  0  0  0  0  0  0  0  0  0  0  0
    7.4735  -14.9338   22.5303 O   0  0  0  0  0  0  0  0  0  0  0  0
    9.5088  -15.6589   21.8133 N   0  0  0  0  0  0  0  0  0  0  0  0
    9.5775  -16.7796   22.7369 C   0  0  1  0  0  0  0  0  0  0  0  0
   10.6914  -17.7256   22.3392 C   0  0  0  0  0  0  0  0  0  0  0  0
   10.5256  -18.2085   20.9510 C   0  0  0  0  0  0  0  0  0  0  0  0
    9.4239  -18.7219   20.5582 O   0  0  0  0  0  0  0  0  0  0  0  0
    9.7868  -16.3634   24.1235 C   0  0  0  0  0  0  0  0  0  0  0  0
   10.8192  -15.7412   24.4418 O   0  0  0  0  0  0  0  0  0  0  0  0
   11.5790  -18.0998   20.0748 O   0  0  0  0  0  0  0  0  0  0  0  0
    8.7923  -16.6842   25.0848 N   0  0  0  0  0  0  0  0  0  0  0  0
    8.9596  -16.3760   26.4929 C   0  0  1  0  0  0  0  0  0  0  0  0
    7.6495  -15.8907   27.0422 C   0  0  0  0  0  0  0  0  0  0  0  0
    7.3563  -14.4903   26.6806 C   0  0  0  0  0  0  0  0  0  0  0  0
    6.1683  -14.1150   26.0951 C   0  0  0  0  0  0  0  0  0  0  0  0
    5.8814  -12.8130   25.7519 C   0  0  0  0  0  0  0  0  0  0  0  0
    6.8525  -11.8554   26.0204 C   0  0  0  0  0  0  0  0  0  0  0  0
    8.0299  -12.2201   26.5991 C   0  0  0  0  0  0  0  0  0  0  0  0
    8.2923  -13.5211   26.9313 C   0  0  0  0  0  0  0  0  0  0  0  0
    9.4328  -17.5356   27.2658 C   0  0  0  0  0  0  0  0  0  0  0  0
    9.7446  -17.4258   28.4767 O   0  0  0  0  0  0  0  0  0  0  0  0
    9.5489  -18.7865   26.6822 O   0  0  0  0  0  0  0  0  0  0  0  0
  2  1  1  6
  2  3  1  0
  4  2  1  0
  4  5  1  6
  6  7  2  0
  6  4  1  0
  8  6  1  0
  9 10  1  6
  9  8  1  0
 11 15  1  0
 11 10  1  0
 12 11  2  0
 13  9  1  0
 14 13  2  0
 16 13  1  0
 17 16  1  0
 18 19  1  0
 17 18  1  1
 19 20  2  0
 20 21  1  0
 22 21  2  0
 23 22  1  0
 24 19  1  0
 24 23  2  0
 25 27  1  0
 25 17  1  0
 26 25  2  0
M  END
$$$$
