TDF.pdb
     RDKit          3D

 27 27  0  0  1  0  0  0  0  0999 V2000
    6.9546  -12.7174   18.9728 C   0  0  0  0  0  0  0  0  0  0  0  0
    7.2417  -13.9457   19.7747 C   0  0  1  0  0  0  0  0  0  0  0  0
    7.6157  -14.9937   18.9431 O   0  0  0  0  0  0  0  0  0  0  0  0
    8.2810  -13.6982   20.8575 C   0  0  2  0  0  0  0  0  0  0  0  0
    9.5373  -13.2725   20.2741 N   0  0  0  0  0  0  0  0  0  0  0  0
    8.4451  -14.8829   21.7214 C   0  0  0  0  0  0  0  0  0  0  0  0
    7.4538  -15.3186   22.3583 O   0  0  0  0  0  0  0  0  0  0  0  0
    9.6660  -15.5823   21.8902 N   0  0  0  0  0  0  0  0  0  0  0  0
    9.8601  -16.6944   22.8064 C   0  0  1  0  0  0  0  0  0  0  0  0
   11.1152  -17.4625   22.4478 C   0  0  0  0  0  0  0  0  0  0  0  0
   11.0541  -17.9911   21.0677 C   0  0  0  0  0  0  0  0  0  0  0  0
   10.0712  -18.7082   20.6788 O   0  0  0  0  0  0  0  0  0  0  0  0
    9.9503  -16.2722   24.2040 C   0  0  0  0  0  0  0  0  0  0  0  0
   10.8392  -15.4743   24.5613 O   0  0  0  0  0  0  0  0  0  0  0  0
   12.0758  -17.7020   20.1950 O   0  0  0  0  0  0  0  0  0  0  0  0
    9.0080  -16.7909   25.1308 N   0  0  0  0  0  0  0  0  0  0  0  0
    9.0865  -16.4967   26.5496 C   0  0  1  0  0  0  0  0  0  0  0  0
    7.7543  -15.9826   27.0128 C   0  0  0  0  0  0  0  0  0  0  0  0
    7.5474  -14.5551   26.7009 C   0  0  0  0  0  0  0  0  0  0  0  0
    6.4162  -14.0978   26.0634 C   0  0  0  0  0  0  0  0  0  0  0  0
    6.2100  -12.7696   25.7656 C   0  0  0  0  0  0  0  0  0  0  0  0
    7.2045  -11.8724   26.1371 C   0  0  0  0  0  0  0  0  0  0  0  0
    8.3260  -12.3182   26.7678 C   0  0  0  0  0  0  0  0  0  0  0  0
    8.5085  -13.6437   27.0532 C   0  0  0  0  0  0  0  0  0  0  0  0
    9.4774  -17.6731   27.3428 C   0  0  0  0  0  0  0  0  0  0  0  0
    9.3996  -18.8322   26.8676 O   0  0  0  0  0  0  0  0  0  0  0  0
    9.9450  -17.5393   28.6399 O   0  0  0  0  0  0  0  0  0  0  0  0
  2  1  1  6
  2  3  1  0
  4  2  1  0
  4  5  1  6
  6  7  2  0
  6  4  1  0
  8  6  1  0
  9 10  1  6
  9  8  1  0
 11 15  1  0
 11 10  1  0
 12 11  2  0
 13  9  1  0
 14 13  2  0
 16 13  1  0
 17 16  1  0
 18 19  1  0
 17 18  1  1
 19 20  2  0
 20 21  1  0
 22 21  2  0
 23 22  1  0
 24 19  1  0
 24 23  2  0
 25 27  1  0
 25 17  1  0
 26 25  2  0
M  END
$$$$
