TDF.pdb
     RDKit          3D

 27 27  0  0  1  0  0  0  0  0999 V2000
    8.7495  -14.8715   15.0152 C   0  0  0  0  0  0  0  0  0  0  0  0
    8.8502  -15.5955   16.3191 C   0  0  1  0  0  0  0  0  0  0  0  0
    7.6274  -15.5842   16.9781 O   0  0  0  0  0  0  0  0  0  0  0  0
    9.3785  -17.0123   16.1533 C   0  0  2  0  0  0  0  0  0  0  0  0
    8.5474  -17.7647   15.2351 N   0  0  0  0  0  0  0  0  0  0  0  0
    9.5142  -17.6880   17.4577 C   0  0  0  0  0  0  0  0  0  0  0  0
    9.2266  -18.9075   17.5486 O   0  0  0  0  0  0  0  0  0  0  0  0
    9.9551  -17.0492   18.6433 N   0  0  0  0  0  0  0  0  0  0  0  0
   10.3125  -17.7425   19.8703 C   0  0  1  0  0  0  0  0  0  0  0  0
   11.4859  -18.6699   19.6316 C   0  0  0  0  0  0  0  0  0  0  0  0
   11.8123  -19.4568   20.8407 C   0  0  0  0  0  0  0  0  0  0  0  0
   12.9994  -19.4804   21.3120 O   0  0  0  0  0  0  0  0  0  0  0  0
   10.6490  -16.8302   20.9631 C   0  0  0  0  0  0  0  0  0  0  0  0
   11.7468  -16.2393   20.9703 O   0  0  0  0  0  0  0  0  0  0  0  0
   10.8167  -20.1722   21.4620 O   0  0  0  0  0  0  0  0  0  0  0  0
    9.7010  -16.6391   22.0026 N   0  0  0  0  0  0  0  0  0  0  0  0
    9.9044  -15.6611   23.0552 C   0  0  1  0  0  0  0  0  0  0  0  0
    8.6147  -14.9308   23.2945 C   0  0  0  0  0  0  0  0  0  0  0  0
    8.0047  -14.4165   22.0530 C   0  0  0  0  0  0  0  0  0  0  0  0
    6.9588  -15.0566   21.4274 C   0  0  0  0  0  0  0  0  0  0  0  0
    6.3805  -14.5890   20.2688 C   0  0  0  0  0  0  0  0  0  0  0  0
    6.8953  -13.4160   19.7291 C   0  0  0  0  0  0  0  0  0  0  0  0
    7.9300  -12.7782   20.3430 C   0  0  0  0  0  0  0  0  0  0  0  0
    8.4886  -13.2625   21.4941 C   0  0  0  0  0  0  0  0  0  0  0  0
   10.3756  -16.2770   24.3060 C   0  0  0  0  0  0  0  0  0  0  0  0
   10.3068  -17.5174   24.4857 O   0  0  0  0  0  0  0  0  0  0  0  0
   10.9115  -15.5077   25.3258 O   0  0  0  0  0  0  0  0  0  0  0  0
  2  1  1  6
  2  3  1  0
  4  2  1  0
  4  5  1  6
  6  7  2  0
  6  4  1  0
  8  6  1  0
  9 10  1  6
  9  8  1  0
 11 15  1  0
 11 10  1  0
 12 11  2  0
 13  9  1  0
 14 13  2  0
 16 13  1  0
 17 16  1  0
 18 19  1  0
 17 18  1  1
 19 20  2  0
 20 21  1  0
 22 21  2  0
 23 22  1  0
 24 19  1  0
 24 23  2  0
 25 27  1  0
 25 17  1  0
 26 25  2  0
M  END
$$$$
