TDF.pdb
     RDKit          3D

 27 27  0  0  1  0  0  0  0  0999 V2000
    9.2382  -13.0320   21.0533 C   0  0  0  0  0  0  0  0  0  0  0  0
    7.8178  -13.2187   20.6269 C   0  0  1  0  0  0  0  0  0  0  0  0
    7.5489  -12.4703   19.4879 O   0  0  0  0  0  0  0  0  0  0  0  0
    7.4637  -14.6842   20.4247 C   0  0  2  0  0  0  0  0  0  0  0  0
    6.0778  -14.8261   20.0258 N   0  0  0  0  0  0  0  0  0  0  0  0
    7.7782  -15.4805   21.6262 C   0  0  0  0  0  0  0  0  0  0  0  0
    6.8773  -15.6875   22.4769 O   0  0  0  0  0  0  0  0  0  0  0  0
    9.0503  -16.0425   21.8985 N   0  0  0  0  0  0  0  0  0  0  0  0
    9.3422  -16.9183   23.0216 C   0  0  1  0  0  0  0  0  0  0  0  0
   10.4023  -17.9310   22.6414 C   0  0  0  0  0  0  0  0  0  0  0  0
   10.5894  -18.9467   23.7003 C   0  0  0  0  0  0  0  0  0  0  0  0
   11.7202  -19.5135   23.8785 O   0  0  0  0  0  0  0  0  0  0  0  0
    9.7906  -16.1918   24.2094 C   0  0  0  0  0  0  0  0  0  0  0  0
   10.7961  -15.4570   24.1519 O   0  0  0  0  0  0  0  0  0  0  0  0
    9.5242  -19.2811   24.5019 O   0  0  0  0  0  0  0  0  0  0  0  0
    9.0565  -16.3454   25.4150 N   0  0  0  0  0  0  0  0  0  0  0  0
    9.4566  -15.6876   26.6451 C   0  0  1  0  0  0  0  0  0  0  0  0
    8.2378  -15.1114   27.3055 C   0  0  0  0  0  0  0  0  0  0  0  0
    7.7381  -13.8964   26.6331 C   0  0  0  0  0  0  0  0  0  0  0  0
    6.4951  -13.8401   26.0440 C   0  0  0  0  0  0  0  0  0  0  0  0
    6.0162  -12.7142   25.4129 C   0  0  0  0  0  0  0  0  0  0  0  0
    6.8457  -11.5991   25.3847 C   0  0  0  0  0  0  0  0  0  0  0  0
    8.0764  -11.6484   25.9652 C   0  0  0  0  0  0  0  0  0  0  0  0
    8.5307  -12.7793   26.5869 C   0  0  0  0  0  0  0  0  0  0  0  0
   10.1464  -16.6026   27.5686 C   0  0  0  0  0  0  0  0  0  0  0  0
   10.5577  -16.2086   28.6871 O   0  0  0  0  0  0  0  0  0  0  0  0
   10.3637  -17.9291   27.2337 O   0  0  0  0  0  0  0  0  0  0  0  0
  2  1  1  6
  2  3  1  0
  4  2  1  0
  4  5  1  1
  6  7  2  0
  6  4  1  0
  8  6  1  0
  9 10  1  6
  9  8  1  0
 11 15  1  0
 11 10  1  0
 12 11  2  0
 13  9  1  0
 14 13  2  0
 16 13  1  0
 17 16  1  0
 18 19  1  0
 17 18  1  1
 19 20  2  0
 20 21  1  0
 22 21  2  0
 23 22  1  0
 24 19  1  0
 24 23  2  0
 25 27  1  0
 25 17  1  0
 26 25  2  0
M  END
$$$$
