TDF.pdb
     RDKit          3D

 27 27  0  0  1  0  0  0  0  0999 V2000
    7.8107  -12.2050   19.5805 C   0  0  0  0  0  0  0  0  0  0  0  0
    8.1855  -13.2164   20.6154 C   0  0  1  0  0  0  0  0  0  0  0  0
    7.4451  -13.0241   21.7749 O   0  0  0  0  0  0  0  0  0  0  0  0
    8.0541  -14.6425   20.1028 C   0  0  2  0  0  0  0  0  0  0  0  0
    6.7199  -14.8817   19.5901 N   0  0  0  0  0  0  0  0  0  0  0  0
    8.4317  -15.6204   21.1410 C   0  0  0  0  0  0  0  0  0  0  0  0
    7.5319  -16.2861   21.7115 O   0  0  0  0  0  0  0  0  0  0  0  0
    9.7645  -15.8706   21.5521 N   0  0  0  0  0  0  0  0  0  0  0  0
   10.1494  -16.8573   22.5481 C   0  0  1  0  0  0  0  0  0  0  0  0
   11.5713  -17.3220   22.3107 C   0  0  0  0  0  0  0  0  0  0  0  0
   11.6835  -18.1181   21.0691 C   0  0  0  0  0  0  0  0  0  0  0  0
   10.7739  -18.9503   20.7345 O   0  0  0  0  0  0  0  0  0  0  0  0
   10.0411  -16.3563   23.9181 C   0  0  0  0  0  0  0  0  0  0  0  0
   10.7752  -15.4257   24.3048 O   0  0  0  0  0  0  0  0  0  0  0  0
   12.7876  -17.9545   20.2673 O   0  0  0  0  0  0  0  0  0  0  0  0
    9.0874  -16.9528   24.7844 N   0  0  0  0  0  0  0  0  0  0  0  0
    9.0064  -16.6053   26.1910 C   0  0  1  0  0  0  0  0  0  0  0  0
    7.6025  -16.1757   26.5044 C   0  0  0  0  0  0  0  0  0  0  0  0
    7.3848  -14.7294   26.3074 C   0  0  0  0  0  0  0  0  0  0  0  0
    6.5262  -14.2385   25.3498 C   0  0  0  0  0  0  0  0  0  0  0  0
    6.3138  -12.8924   25.1543 C   0  0  0  0  0  0  0  0  0  0  0  0
    7.0102  -12.0125   25.9747 C   0  0  0  0  0  0  0  0  0  0  0  0
    7.8612  -12.4917   26.9235 C   0  0  0  0  0  0  0  0  0  0  0  0
    8.0560  -13.8344   27.0991 C   0  0  0  0  0  0  0  0  0  0  0  0
    9.4001  -17.7216   27.0654 C   0  0  0  0  0  0  0  0  0  0  0  0
    9.4870  -17.5735   28.3088 O   0  0  0  0  0  0  0  0  0  0  0  0
    9.6869  -18.9728   26.5447 O   0  0  0  0  0  0  0  0  0  0  0  0
  2  1  1  6
  2  3  1  0
  4  2  1  0
  4  5  1  1
  6  7  2  0
  6  4  1  0
  8  6  1  0
  9 10  1  6
  9  8  1  0
 11 15  1  0
 11 10  1  0
 12 11  2  0
 13  9  1  0
 14 13  2  0
 16 13  1  0
 17 16  1  0
 18 19  1  0
 17 18  1  1
 19 20  2  0
 20 21  1  0
 22 21  2  0
 23 22  1  0
 24 19  1  0
 24 23  2  0
 25 27  1  0
 25 17  1  0
 26 25  2  0
M  END
$$$$
