TDF.pdb
     RDKit          3D

 27 27  0  0  1  0  0  0  0  0999 V2000
    7.9717  -12.7799   20.5922 C   0  0  0  0  0  0  0  0  0  0  0  0
    7.7876  -13.2440   19.1832 C   0  0  1  0  0  0  0  0  0  0  0  0
    7.8346  -12.1678   18.3061 O   0  0  0  0  0  0  0  0  0  0  0  0
    8.7890  -14.3211   18.7948 C   0  0  2  0  0  0  0  0  0  0  0  0
    8.5932  -14.7302   17.4185 N   0  0  0  0  0  0  0  0  0  0  0  0
    8.7320  -15.4643   19.7255 C   0  0  0  0  0  0  0  0  0  0  0  0
    8.3570  -16.5844   19.2976 O   0  0  0  0  0  0  0  0  0  0  0  0
    9.0766  -15.3916   21.0982 N   0  0  0  0  0  0  0  0  0  0  0  0
    8.9252  -16.4836   22.0460 C   0  0  1  0  0  0  0  0  0  0  0  0
    9.7935  -17.6576   21.6439 C   0  0  0  0  0  0  0  0  0  0  0  0
   11.1866  -17.2379   21.3772 C   0  0  0  0  0  0  0  0  0  0  0  0
   11.5441  -16.0183   21.5048 O   0  0  0  0  0  0  0  0  0  0  0  0
    9.2602  -16.0989   23.4169 C   0  0  0  0  0  0  0  0  0  0  0  0
   10.2802  -15.4193   23.6454 O   0  0  0  0  0  0  0  0  0  0  0  0
   12.1060  -18.1816   20.9857 O   0  0  0  0  0  0  0  0  0  0  0  0
    8.4008  -16.5164   24.4672 N   0  0  0  0  0  0  0  0  0  0  0  0
    8.5986  -16.0826   25.8378 C   0  0  1  0  0  0  0  0  0  0  0  0
    7.2917  -15.5828   26.3817 C   0  0  0  0  0  0  0  0  0  0  0  0
    7.1812  -14.1114   26.3548 C   0  0  0  0  0  0  0  0  0  0  0  0
    5.9900  -13.4676   26.1066 C   0  0  0  0  0  0  0  0  0  0  0  0
    5.8722  -12.0962   26.0778 C   0  0  0  0  0  0  0  0  0  0  0  0
    7.0232  -11.3535   26.3135 C   0  0  0  0  0  0  0  0  0  0  0  0
    8.2048  -11.9843   26.5593 C   0  0  0  0  0  0  0  0  0  0  0  0
    8.2971  -13.3491   26.5828 C   0  0  0  0  0  0  0  0  0  0  0  0
    9.1235  -17.1586   26.6937 C   0  0  0  0  0  0  0  0  0  0  0  0
    9.4415  -16.9417   27.8884 O   0  0  0  0  0  0  0  0  0  0  0  0
    9.2830  -18.4463   26.2088 O   0  0  0  0  0  0  0  0  0  0  0  0
  2  1  1  1
  2  3  1  0
  4  2  1  0
  4  5  1  6
  6  7  2  0
  6  4  1  0
  8  6  1  0
  9 10  1  6
  9  8  1  0
 11 15  1  0
 11 10  1  0
 12 11  2  0
 13  9  1  0
 14 13  2  0
 16 13  1  0
 17 16  1  0
 18 19  1  0
 17 18  1  1
 19 20  2  0
 20 21  1  0
 22 21  2  0
 23 22  1  0
 24 19  1  0
 24 23  2  0
 25 27  1  0
 25 17  1  0
 26 25  2  0
M  END
$$$$
