TDF.pdb
     RDKit          3D

 27 27  0  0  1  0  0  0  0  0999 V2000
    8.7553  -12.5340   20.8424 C   0  0  0  0  0  0  0  0  0  0  0  0
    7.8456  -13.1552   19.8320 C   0  0  1  0  0  0  0  0  0  0  0  0
    7.6442  -12.2920   18.7624 O   0  0  0  0  0  0  0  0  0  0  0  0
    8.3454  -14.5132   19.3630 C   0  0  2  0  0  0  0  0  0  0  0  0
    7.4791  -15.0501   18.3329 N   0  0  0  0  0  0  0  0  0  0  0  0
    8.5020  -15.4453   20.4959 C   0  0  0  0  0  0  0  0  0  0  0  0
    7.4902  -16.0403   20.9438 O   0  0  0  0  0  0  0  0  0  0  0  0
    9.7372  -15.7259   21.1312 N   0  0  0  0  0  0  0  0  0  0  0  0
    9.9119  -16.6881   22.2071 C   0  0  1  0  0  0  0  0  0  0  0  0
   11.2056  -17.4548   22.0265 C   0  0  0  0  0  0  0  0  0  0  0  0
   11.1647  -18.3156   20.8243 C   0  0  0  0  0  0  0  0  0  0  0  0
   11.8225  -18.0115   19.7724 O   0  0  0  0  0  0  0  0  0  0  0  0
    9.9140  -16.0676   23.5317 C   0  0  0  0  0  0  0  0  0  0  0  0
   10.7044  -15.1377   23.7867 O   0  0  0  0  0  0  0  0  0  0  0  0
   10.4040  -19.4601   20.8469 O   0  0  0  0  0  0  0  0  0  0  0  0
    9.0012  -16.5489   24.5070 N   0  0  0  0  0  0  0  0  0  0  0  0
    9.0814  -16.1437   25.8980 C   0  0  1  0  0  0  0  0  0  0  0  0
    7.7040  -15.7937   26.3815 C   0  0  0  0  0  0  0  0  0  0  0  0
    7.3874  -14.3601   26.2312 C   0  0  0  0  0  0  0  0  0  0  0  0
    7.3638  -13.7367   25.0040 C   0  0  0  0  0  0  0  0  0  0  0  0
    7.0709  -12.4005   24.8487 C   0  0  0  0  0  0  0  0  0  0  0  0
    6.7900  -11.6728   25.9991 C   0  0  0  0  0  0  0  0  0  0  0  0
    6.8120  -12.2833   27.2161 C   0  0  0  0  0  0  0  0  0  0  0  0
    7.1060  -13.6132   27.3453 C   0  0  0  0  0  0  0  0  0  0  0  0
    9.6654  -17.1906   26.7517 C   0  0  0  0  0  0  0  0  0  0  0  0
    9.9087  -16.9791   27.9648 O   0  0  0  0  0  0  0  0  0  0  0  0
    9.9650  -18.4443   26.2443 O   0  0  0  0  0  0  0  0  0  0  0  0
  2  1  1  1
  2  3  1  0
  4  2  1  0
  4  5  1  6
  6  7  2  0
  6  4  1  0
  8  6  1  0
  9 10  1  6
  9  8  1  0
 11 15  1  0
 11 10  1  0
 12 11  2  0
 13  9  1  0
 14 13  2  0
 16 13  1  0
 17 16  1  0
 18 19  1  0
 17 18  1  1
 19 20  2  0
 20 21  1  0
 22 21  2  0
 23 22  1  0
 24 19  1  0
 24 23  2  0
 25 27  1  0
 25 17  1  0
 26 25  2  0
M  END
$$$$
