TDF.pdb
     RDKit          3D

 27 27  0  0  1  0  0  0  0  0999 V2000
    9.5543  -12.7233   20.4487 C   0  0  0  0  0  0  0  0  0  0  0  0
    8.1960  -12.9034   19.8511 C   0  0  1  0  0  0  0  0  0  0  0  0
    8.0557  -12.1163   18.7151 O   0  0  0  0  0  0  0  0  0  0  0  0
    7.8835  -14.3628   19.5574 C   0  0  2  0  0  0  0  0  0  0  0  0
    6.5628  -14.4970   18.9763 N   0  0  0  0  0  0  0  0  0  0  0  0
    8.0450  -15.1970   20.7635 C   0  0  0  0  0  0  0  0  0  0  0  0
    7.0984  -15.2745   21.5858 O   0  0  0  0  0  0  0  0  0  0  0  0
    9.2153  -15.9345   21.0707 N   0  0  0  0  0  0  0  0  0  0  0  0
    9.3420  -16.8525   22.1910 C   0  0  1  0  0  0  0  0  0  0  0  0
   10.4416  -17.8603   21.9277 C   0  0  0  0  0  0  0  0  0  0  0  0
   10.1340  -18.7074   20.7548 C   0  0  0  0  0  0  0  0  0  0  0  0
    9.1883  -19.5654   20.7904 O   0  0  0  0  0  0  0  0  0  0  0  0
    9.6201  -16.1729   23.4560 C   0  0  0  0  0  0  0  0  0  0  0  0
   10.5496  -15.3455   23.5315 O   0  0  0  0  0  0  0  0  0  0  0  0
   10.8825  -18.5634   19.6111 O   0  0  0  0  0  0  0  0  0  0  0  0
    8.8109  -16.4788   24.5819 N   0  0  0  0  0  0  0  0  0  0  0  0
    9.1333  -15.9955   25.9116 C   0  0  1  0  0  0  0  0  0  0  0  0
    7.8578  -15.6549   26.6264 C   0  0  0  0  0  0  0  0  0  0  0  0
    7.4137  -14.2686   26.3836 C   0  0  0  0  0  0  0  0  0  0  0  0
    8.1576  -13.1786   26.7756 C   0  0  0  0  0  0  0  0  0  0  0  0
    7.7556  -11.8802   26.5564 C   0  0  0  0  0  0  0  0  0  0  0  0
    6.5407  -11.6910   25.9080 C   0  0  0  0  0  0  0  0  0  0  0  0
    5.8001  -12.7650   25.5180 C   0  0  0  0  0  0  0  0  0  0  0  0
    6.2205  -14.0466   25.7470 C   0  0  0  0  0  0  0  0  0  0  0  0
    9.9023  -16.9784   26.6916 C   0  0  0  0  0  0  0  0  0  0  0  0
   10.0295  -18.1637   26.2984 O   0  0  0  0  0  0  0  0  0  0  0  0
   10.5117  -16.6273   27.8850 O   0  0  0  0  0  0  0  0  0  0  0  0
  2  1  1  6
  2  3  1  0
  4  2  1  0
  4  5  1  1
  6  7  2  0
  6  4  1  0
  8  6  1  0
  9 10  1  6
  9  8  1  0
 11 15  1  0
 11 10  1  0
 12 11  2  0
 13  9  1  0
 14 13  2  0
 16 13  1  0
 17 16  1  0
 18 19  1  0
 17 18  1  1
 19 20  2  0
 20 21  1  0
 22 21  2  0
 23 22  1  0
 24 19  1  0
 24 23  2  0
 25 27  1  0
 25 17  1  0
 26 25  2  0
M  END
$$$$
