TDF.pdb
     RDKit          3D

 27 27  0  0  1  0  0  0  0  0999 V2000
    8.3839  -12.7334   18.5072 C   0  0  0  0  0  0  0  0  0  0  0  0
    8.4845  -13.5775   19.7368 C   0  0  1  0  0  0  0  0  0  0  0  0
    8.3703  -12.7923   20.8771 O   0  0  0  0  0  0  0  0  0  0  0  0
    7.4729  -14.7134   19.7414 C   0  0  2  0  0  0  0  0  0  0  0  0
    6.1358  -14.2097   19.4994 N   0  0  0  0  0  0  0  0  0  0  0  0
    7.5524  -15.4947   20.9903 C   0  0  0  0  0  0  0  0  0  0  0  0
    6.6492  -15.3633   21.8535 O   0  0  0  0  0  0  0  0  0  0  0  0
    8.5959  -16.4035   21.2959 N   0  0  0  0  0  0  0  0  0  0  0  0
    8.6360  -17.2460   22.4801 C   0  0  1  0  0  0  0  0  0  0  0  0
    9.5590  -18.4263   22.2589 C   0  0  0  0  0  0  0  0  0  0  0  0
   10.8776  -17.9969   21.7443 C   0  0  0  0  0  0  0  0  0  0  0  0
   11.8071  -17.6267   22.5385 O   0  0  0  0  0  0  0  0  0  0  0  0
    9.0714  -16.5265   23.6770 C   0  0  0  0  0  0  0  0  0  0  0  0
    9.8800  -15.5824   23.5809 O   0  0  0  0  0  0  0  0  0  0  0  0
   11.0990  -17.9987   20.3879 O   0  0  0  0  0  0  0  0  0  0  0  0
    8.5529  -16.9292   24.9359 N   0  0  0  0  0  0  0  0  0  0  0  0
    8.9902  -16.3164   26.1765 C   0  0  1  0  0  0  0  0  0  0  0  0
    7.7957  -15.7417   26.8810 C   0  0  0  0  0  0  0  0  0  0  0  0
    7.5688  -14.3185   26.5634 C   0  0  0  0  0  0  0  0  0  0  0  0
    8.5512  -13.3658   26.7127 C   0  0  0  0  0  0  0  0  0  0  0  0
    8.3538  -12.0349   26.4210 C   0  0  0  0  0  0  0  0  0  0  0  0
    7.0970  -11.6649   25.9565 C   0  0  0  0  0  0  0  0  0  0  0  0
    6.1208  -12.6023   25.8069 C   0  0  0  0  0  0  0  0  0  0  0  0
    6.3409  -13.9197   26.1035 C   0  0  0  0  0  0  0  0  0  0  0  0
    9.6846  -17.2704   27.0560 C   0  0  0  0  0  0  0  0  0  0  0  0
    9.7124  -18.4970   26.7907 O   0  0  0  0  0  0  0  0  0  0  0  0
   10.3312  -16.8456   28.2051 O   0  0  0  0  0  0  0  0  0  0  0  0
  2  1  1  6
  2  3  1  0
  4  2  1  0
  4  5  1  1
  6  7  2  0
  6  4  1  0
  8  6  1  0
  9 10  1  6
  9  8  1  0
 11 15  1  0
 11 10  1  0
 12 11  2  0
 13  9  1  0
 14 13  2  0
 16 13  1  0
 17 16  1  0
 18 19  1  0
 17 18  1  1
 19 20  2  0
 20 21  1  0
 22 21  2  0
 23 22  1  0
 24 19  1  0
 24 23  2  0
 25 27  1  0
 25 17  1  0
 26 25  2  0
M  END
$$$$
