TDF.pdb
     RDKit          3D

 27 27  0  0  1  0  0  0  0  0999 V2000
    7.6278  -12.0496   19.9837 C   0  0  0  0  0  0  0  0  0  0  0  0
    8.0092  -13.3449   20.6250 C   0  0  1  0  0  0  0  0  0  0  0  0
    6.8867  -13.9846   21.1355 O   0  0  0  0  0  0  0  0  0  0  0  0
    8.7829  -14.2513   19.6797 C   0  0  2  0  0  0  0  0  0  0  0  0
    8.0964  -14.3718   18.4091 N   0  0  0  0  0  0  0  0  0  0  0  0
    9.0440  -15.5666   20.2947 C   0  0  0  0  0  0  0  0  0  0  0  0
    8.8364  -16.6084   19.6240 O   0  0  0  0  0  0  0  0  0  0  0  0
    9.5227  -15.7467   21.6162 N   0  0  0  0  0  0  0  0  0  0  0  0
   10.2352  -16.9252   22.0824 C   0  0  1  0  0  0  0  0  0  0  0  0
   11.3835  -17.2523   21.1505 C   0  0  0  0  0  0  0  0  0  0  0  0
   12.1552  -18.4208   21.6271 C   0  0  0  0  0  0  0  0  0  0  0  0
   11.5987  -19.5601   21.7827 O   0  0  0  0  0  0  0  0  0  0  0  0
   10.7595  -16.7745   23.4396 C   0  0  0  0  0  0  0  0  0  0  0  0
   11.4790  -17.6636   23.9356 O   0  0  0  0  0  0  0  0  0  0  0  0
   13.4927  -18.2706   21.9054 O   0  0  0  0  0  0  0  0  0  0  0  0
   10.4296  -15.6006   24.1670 N   0  0  0  0  0  0  0  0  0  0  0  0
    9.5437  -15.6343   25.3158 C   0  0  1  0  0  0  0  0  0  0  0  0
    8.1422  -15.3553   24.8559 C   0  0  0  0  0  0  0  0  0  0  0  0
    7.6154  -14.0717   25.3586 C   0  0  0  0  0  0  0  0  0  0  0  0
    7.7363  -12.8984   24.6487 C   0  0  0  0  0  0  0  0  0  0  0  0
    7.2506  -11.6938   25.1053 C   0  0  0  0  0  0  0  0  0  0  0  0
    6.6139  -11.6917   26.3410 C   0  0  0  0  0  0  0  0  0  0  0  0
    6.4913  -12.8488   27.0483 C   0  0  0  0  0  0  0  0  0  0  0  0
    6.9824  -14.0343   26.5736 C   0  0  0  0  0  0  0  0  0  0  0  0
    9.5958  -16.9237   26.0234 C   0  0  0  0  0  0  0  0  0  0  0  0
    9.7333  -16.9757   27.2699 O   0  0  0  0  0  0  0  0  0  0  0  0
    9.4939  -18.1224   25.3365 O   0  0  0  0  0  0  0  0  0  0  0  0
  2  1  1  6
  2  3  1  0
  4  2  1  0
  4  5  1  6
  6  7  2  0
  6  4  1  0
  8  6  1  0
  9 10  1  6
  9  8  1  0
 11 15  1  0
 11 10  1  0
 12 11  2  0
 13  9  1  0
 14 13  2  0
 16 13  1  0
 17 16  1  0
 18 19  1  0
 17 18  1  6
 19 20  2  0
 20 21  1  0
 22 21  2  0
 23 22  1  0
 24 19  1  0
 24 23  2  0
 25 27  1  0
 25 17  1  0
 26 25  2  0
M  END
$$$$
