TDF.pdb
     RDKit          3D

 27 27  0  0  1  0  0  0  0  0999 V2000
    7.8927  -12.4360   19.8165 C   0  0  0  0  0  0  0  0  0  0  0  0
    8.3319  -13.3344   20.9276 C   0  0  1  0  0  0  0  0  0  0  0  0
    7.8855  -12.8500   22.1507 O   0  0  0  0  0  0  0  0  0  0  0  0
    7.8985  -14.7761   20.7098 C   0  0  2  0  0  0  0  0  0  0  0  0
    6.4677  -14.8538   20.4937 N   0  0  0  0  0  0  0  0  0  0  0  0
    8.3380  -15.6400   21.8220 C   0  0  0  0  0  0  0  0  0  0  0  0
    7.4826  -16.0831   22.6283 O   0  0  0  0  0  0  0  0  0  0  0  0
    9.6844  -16.0161   22.0540 N   0  0  0  0  0  0  0  0  0  0  0  0
   10.1278  -16.8620   23.1503 C   0  0  1  0  0  0  0  0  0  0  0  0
   11.4588  -17.5040   22.8184 C   0  0  0  0  0  0  0  0  0  0  0  0
   11.3357  -18.4652   21.7008 C   0  0  0  0  0  0  0  0  0  0  0  0
   11.7080  -18.1542   20.5191 O   0  0  0  0  0  0  0  0  0  0  0  0
   10.2579  -16.1361   24.4136 C   0  0  0  0  0  0  0  0  0  0  0  0
   10.9842  -15.1252   24.4833 O   0  0  0  0  0  0  0  0  0  0  0  0
   10.8110  -19.7117   21.9455 O   0  0  0  0  0  0  0  0  0  0  0  0
    9.5419  -16.6101   25.5443 N   0  0  0  0  0  0  0  0  0  0  0  0
    9.6813  -15.9969   26.8521 C   0  0  1  0  0  0  0  0  0  0  0  0
    8.3156  -15.6668   27.3810 C   0  0  0  0  0  0  0  0  0  0  0  0
    7.7254  -14.4719   26.7471 C   0  0  0  0  0  0  0  0  0  0  0  0
    6.6870  -14.5538   25.8470 C   0  0  0  0  0  0  0  0  0  0  0  0
    6.1272  -13.4481   25.2475 C   0  0  0  0  0  0  0  0  0  0  0  0
    6.6532  -12.2065   25.5849 C   0  0  0  0  0  0  0  0  0  0  0  0
    7.6805  -12.1187   26.4744 C   0  0  0  0  0  0  0  0  0  0  0  0
    8.2207  -13.2323   27.0574 C   0  0  0  0  0  0  0  0  0  0  0  0
   10.3947  -16.8648   27.8026 C   0  0  0  0  0  0  0  0  0  0  0  0
   10.6718  -18.0546   27.5141 O   0  0  0  0  0  0  0  0  0  0  0  0
   10.7847  -16.3967   29.0466 O   0  0  0  0  0  0  0  0  0  0  0  0
  2  1  1  6
  2  3  1  0
  4  2  1  0
  4  5  1  1
  6  7  2  0
  6  4  1  0
  8  6  1  0
  9 10  1  6
  9  8  1  0
 11 15  1  0
 11 10  1  0
 12 11  2  0
 13  9  1  0
 14 13  2  0
 16 13  1  0
 17 16  1  0
 18 19  1  0
 17 18  1  1
 19 20  2  0
 20 21  1  0
 22 21  2  0
 23 22  1  0
 24 19  1  0
 24 23  2  0
 25 27  1  0
 25 17  1  0
 26 25  2  0
M  END
$$$$
