TDF.pdb
     RDKit          3D

 27 27  0  0  1  0  0  0  0  0999 V2000
    9.6074  -14.1909   16.9672 C   0  0  0  0  0  0  0  0  0  0  0  0
    9.4053  -14.4957   18.4166 C   0  0  1  0  0  0  0  0  0  0  0  0
   10.3263  -13.8037   19.1927 O   0  0  0  0  0  0  0  0  0  0  0  0
    7.9796  -14.2220   18.8706 C   0  0  2  0  0  0  0  0  0  0  0  0
    7.6516  -12.8195   18.7112 N   0  0  0  0  0  0  0  0  0  0  0  0
    7.7602  -14.6881   20.2530 C   0  0  0  0  0  0  0  0  0  0  0  0
    7.7035  -13.8444   21.1821 O   0  0  0  0  0  0  0  0  0  0  0  0
    7.6050  -16.0482   20.6195 N   0  0  0  0  0  0  0  0  0  0  0  0
    7.4457  -16.5219   21.9848 C   0  0  1  0  0  0  0  0  0  0  0  0
    7.1658  -18.0103   21.9993 C   0  0  0  0  0  0  0  0  0  0  0  0
    6.1710  -18.3869   20.9715 C   0  0  0  0  0  0  0  0  0  0  0  0
    4.9503  -18.0240   21.0706 O   0  0  0  0  0  0  0  0  0  0  0  0
    8.6162  -16.2554   22.8207 C   0  0  0  0  0  0  0  0  0  0  0  0
    9.7638  -16.4260   22.3644 O   0  0  0  0  0  0  0  0  0  0  0  0
    6.5741  -19.1402   19.8949 O   0  0  0  0  0  0  0  0  0  0  0  0
    8.4103  -15.8023   24.1505 N   0  0  0  0  0  0  0  0  0  0  0  0
    9.5183  -15.4919   25.0347 C   0  0  1  0  0  0  0  0  0  0  0  0
    9.5509  -14.0095   25.2694 C   0  0  0  0  0  0  0  0  0  0  0  0
    8.3071  -13.4943   25.8741 C   0  0  0  0  0  0  0  0  0  0  0  0
    8.1721  -13.3060   27.2311 C   0  0  0  0  0  0  0  0  0  0  0  0
    7.0180  -12.8269   27.8091 C   0  0  0  0  0  0  0  0  0  0  0  0
    5.9582  -12.5279   26.9608 C   0  0  0  0  0  0  0  0  0  0  0  0
    6.0853  -12.7121   25.6177 C   0  0  0  0  0  0  0  0  0  0  0  0
    7.2427  -13.1898   25.0663 C   0  0  0  0  0  0  0  0  0  0  0  0
    9.4243  -16.2046   26.3189 C   0  0  0  0  0  0  0  0  0  0  0  0
   10.3011  -16.0636   27.2059 O   0  0  0  0  0  0  0  0  0  0  0  0
    8.3643  -17.0540   26.5909 O   0  0  0  0  0  0  0  0  0  0  0  0
  2  1  1  6
  2  3  1  0
  4  2  1  0
  4  5  1  1
  6  7  2  0
  6  4  1  0
  8  6  1  0
  9 10  1  6
  9  8  1  0
 11 15  1  0
 11 10  1  0
 12 11  2  0
 13  9  1  0
 14 13  2  0
 16 13  1  0
 17 16  1  0
 18 19  1  0
 17 18  1  1
 19 20  2  0
 20 21  1  0
 22 21  2  0
 23 22  1  0
 24 19  1  0
 24 23  2  0
 25 27  1  0
 25 17  1  0
 26 25  2  0
M  END
$$$$
