KCD.pdb
     RDKit          3D

 24 23  0  0  1  0  0  0  0  0999 V2000
   23.8152  -13.3131  -18.5471 N   0  0  0  0  0  0  0  0  0  0  0  0
   23.6789  -11.9330  -18.8840 C   0  0  1  0  0  0  0  0  0  0  0  0
   22.5110  -11.7181  -19.7769 C   0  0  0  0  0  0  0  0  0  0  0  0
   22.1617  -12.9232  -20.5677 C   0  0  0  0  0  0  0  0  0  0  0  0
   20.9836  -12.8230  -21.4765 C   0  0  0  0  0  0  0  0  0  0  0  0
   20.6546  -14.0997  -22.2139 C   0  0  0  0  0  0  0  0  0  0  0  0
   19.4923  -13.8353  -23.0455 N   0  0  0  0  0  0  0  0  0  0  0  0
   23.6750  -11.0423  -17.6960 C   0  0  0  0  0  0  0  0  0  0  0  0
   22.7322  -11.1186  -16.8687 O   0  0  0  0  0  0  0  0  0  0  0  0
   24.7116  -10.1016  -17.4663 N   0  0  0  0  0  0  0  0  0  0  0  0
   24.7153   -9.2767  -16.2622 C   0  0  1  0  0  0  0  0  0  0  0  0
   26.0964   -9.0858  -15.7101 C   0  0  0  0  0  0  0  0  0  0  0  0
   26.5820  -10.6528  -14.9262 S   0  0  0  0  0  0  0  0  0  0  0  0
   24.0219   -7.9829  -16.5074 C   0  0  0  0  0  0  0  0  0  0  0  0
   24.3411   -7.2744  -17.4941 O   0  0  0  0  0  0  0  0  0  0  0  0
   22.9917   -7.4983  -15.6603 N   0  0  0  0  0  0  0  0  0  0  0  0
   22.2261   -6.2764  -15.9539 C   0  0  1  0  0  0  0  0  0  0  0  0
   20.8743   -6.5154  -15.3219 C   0  0  0  0  0  0  0  0  0  0  0  0
   19.9253   -5.4062  -15.4974 C   0  0  0  0  0  0  0  0  0  0  0  0
   20.2570   -4.4037  -16.1831 O   0  0  0  0  0  0  0  0  0  0  0  0
   22.8990   -5.1086  -15.3598 C   0  0  0  0  0  0  0  0  0  0  0  0
   22.8313   -3.8375  -15.8799 O   0  0  0  0  0  0  0  0  0  0  0  0
   18.6752   -5.4197  -14.9324 O   0  0  0  0  0  0  0  0  0  0  0  0
   23.5937   -5.2473  -14.3009 O   0  0  0  0  0  0  0  0  0  0  0  0
  2  8  1  0
  2  1  1  1
  3  2  1  0
  4  3  1  0
  5  6  1  0
  5  4  1  0
  7  6  1  0
  8  9  2  0
 10  8  1  0
 10 11  1  0
 11 12  1  6
 12 13  1  0
 14 15  2  0
 14 11  1  0
 16 14  1  0
 17 16  1  0
 17 18  1  1
 19 18  1  0
 19 20  2  0
 21 22  1  0
 21 17  1  0
 23 19  1  0
 24 21  2  0
M  END
$$$$
