KCD.pdb
     RDKit          3D

 24 23  0  0  1  0  0  0  0  0999 V2000
   24.4527  -13.2591  -18.8158 N   0  0  0  0  0  0  0  0  0  0  0  0
   23.3032  -13.0553  -17.9949 C   0  0  1  0  0  0  0  0  0  0  0  0
   22.9725  -14.2862  -17.2312 C   0  0  0  0  0  0  0  0  0  0  0  0
   22.8273  -15.4803  -18.0987 C   0  0  0  0  0  0  0  0  0  0  0  0
   21.4403  -15.9122  -18.4356 C   0  0  0  0  0  0  0  0  0  0  0  0
   21.3658  -17.0894  -19.3794 C   0  0  0  0  0  0  0  0  0  0  0  0
   19.9639  -17.3062  -19.6954 N   0  0  0  0  0  0  0  0  0  0  0  0
   23.4085  -11.8484  -17.1366 C   0  0  0  0  0  0  0  0  0  0  0  0
   22.4879  -11.5859  -16.3225 O   0  0  0  0  0  0  0  0  0  0  0  0
   24.5256  -10.9772  -17.2094 N   0  0  0  0  0  0  0  0  0  0  0  0
   24.5637   -9.7477  -16.4238 C   0  0  1  0  0  0  0  0  0  0  0  0
   25.9275   -9.1242  -16.4124 C   0  0  0  0  0  0  0  0  0  0  0  0
   26.9893  -10.1756  -15.3764 S   0  0  0  0  0  0  0  0  0  0  0  0
   23.5129   -8.7977  -16.8801 C   0  0  0  0  0  0  0  0  0  0  0  0
   23.4281   -8.4881  -18.0943 O   0  0  0  0  0  0  0  0  0  0  0  0
   22.5782   -8.2101  -15.9886 N   0  0  0  0  0  0  0  0  0  0  0  0
   21.5843   -7.2134  -16.4177 C   0  0  1  0  0  0  0  0  0  0  0  0
   20.2699   -7.9593  -16.4044 C   0  0  0  0  0  0  0  0  0  0  0  0
   19.0971   -7.1129  -16.6688 C   0  0  0  0  0  0  0  0  0  0  0  0
   18.1788   -7.0333  -15.8112 O   0  0  0  0  0  0  0  0  0  0  0  0
   21.5703   -6.0817  -15.4751 C   0  0  0  0  0  0  0  0  0  0  0  0
   22.2457   -6.0726  -14.2774 O   0  0  0  0  0  0  0  0  0  0  0  0
   18.9609   -6.3982  -17.8320 O   0  0  0  0  0  0  0  0  0  0  0  0
   20.9033   -5.0325  -15.7533 O   0  0  0  0  0  0  0  0  0  0  0  0
  2  8  1  0
  2  1  1  1
  3  2  1  0
  4  3  1  0
  5  6  1  0
  5  4  1  0
  7  6  1  0
  8  9  2  0
 10  8  1  0
 10 11  1  0
 11 12  1  6
 12 13  1  0
 14 15  2  0
 14 11  1  0
 16 14  1  0
 17 16  1  0
 17 18  1  1
 19 18  1  0
 19 20  2  0
 21 22  1  0
 21 17  1  0
 23 19  1  0
 24 21  2  0
M  END
$$$$
