KCD.pdb
     RDKit          3D

 24 23  0  0  1  0  0  0  0  0999 V2000
   22.4049  -11.7800  -17.6750 N   0  0  0  0  0  0  0  0  0  0  0  0
   22.2255  -10.5085  -18.2979 C   0  0  1  0  0  0  0  0  0  0  0  0
   21.7174  -10.6650  -19.6853 C   0  0  0  0  0  0  0  0  0  0  0  0
   22.6372  -11.4422  -20.5509 C   0  0  0  0  0  0  0  0  0  0  0  0
   22.1386  -12.7458  -21.0763 C   0  0  0  0  0  0  0  0  0  0  0  0
   23.0665  -13.4168  -22.0616 C   0  0  0  0  0  0  0  0  0  0  0  0
   22.3570  -14.5542  -22.6230 N   0  0  0  0  0  0  0  0  0  0  0  0
   21.4122   -9.5714  -17.4824 C   0  0  0  0  0  0  0  0  0  0  0  0
   20.2640   -9.2455  -17.8755 O   0  0  0  0  0  0  0  0  0  0  0  0
   21.8970   -9.0298  -16.2641 N   0  0  0  0  0  0  0  0  0  0  0  0
   21.0809   -8.1057  -15.4830 C   0  0  1  0  0  0  0  0  0  0  0  0
   21.2857   -8.2770  -14.0073 C   0  0  0  0  0  0  0  0  0  0  0  0
   20.1419   -9.5777  -13.4543 S   0  0  0  0  0  0  0  0  0  0  0  0
   21.3045   -6.7022  -15.9245 C   0  0  0  0  0  0  0  0  0  0  0  0
   22.4701   -6.2381  -15.9813 O   0  0  0  0  0  0  0  0  0  0  0  0
   20.2390   -5.8411  -16.2943 N   0  0  0  0  0  0  0  0  0  0  0  0
   20.4534   -4.4641  -16.7670 C   0  0  1  0  0  0  0  0  0  0  0  0
   19.9461   -4.4691  -18.1906 C   0  0  0  0  0  0  0  0  0  0  0  0
   19.9695   -3.1505  -18.8405 C   0  0  0  0  0  0  0  0  0  0  0  0
   19.1101   -2.8715  -19.7172 O   0  0  0  0  0  0  0  0  0  0  0  0
   19.6928   -3.5223  -15.9281 C   0  0  0  0  0  0  0  0  0  0  0  0
   19.8307   -2.1556  -15.9908 O   0  0  0  0  0  0  0  0  0  0  0  0
   20.9069   -2.1993  -18.5264 O   0  0  0  0  0  0  0  0  0  0  0  0
   18.8483   -3.9647  -15.0829 O   0  0  0  0  0  0  0  0  0  0  0  0
  2  8  1  0
  2  1  1  1
  3  2  1  0
  4  3  1  0
  5  6  1  0
  5  4  1  0
  7  6  1  0
  8  9  2  0
 10  8  1  0
 10 11  1  0
 11 12  1  1
 12 13  1  0
 14 15  2  0
 14 11  1  0
 16 14  1  0
 17 16  1  0
 17 18  1  6
 19 18  1  0
 19 20  2  0
 21 22  1  0
 21 17  1  0
 23 19  1  0
 24 21  2  0
M  END
$$$$
