KCD.pdb
     RDKit          3D

 24 23  0  0  1  0  0  0  0  0999 V2000
   17.4676  -10.5243  -13.2297 N   0  0  0  0  0  0  0  0  0  0  0  0
   18.0881   -9.7038  -14.2190 C   0  0  1  0  0  0  0  0  0  0  0  0
   17.1333   -9.3736  -15.3085 C   0  0  0  0  0  0  0  0  0  0  0  0
   16.5594  -10.5783  -15.9556 C   0  0  0  0  0  0  0  0  0  0  0  0
   17.2965  -11.1395  -17.1243 C   0  0  0  0  0  0  0  0  0  0  0  0
   16.5881  -12.2780  -17.8199 C   0  0  0  0  0  0  0  0  0  0  0  0
   17.4275  -12.7010  -18.9284 N   0  0  0  0  0  0  0  0  0  0  0  0
   18.7547   -8.5069  -13.6467 C   0  0  0  0  0  0  0  0  0  0  0  0
   18.2494   -7.9354  -12.6481 O   0  0  0  0  0  0  0  0  0  0  0  0
   19.9536   -7.9864  -14.1980 N   0  0  0  0  0  0  0  0  0  0  0  0
   20.5423   -6.7578  -13.6743 C   0  0  1  0  0  0  0  0  0  0  0  0
   22.0093   -6.9042  -13.4001 C   0  0  0  0  0  0  0  0  0  0  0  0
   22.6040   -5.2977  -12.7905 S   0  0  0  0  0  0  0  0  0  0  0  0
   20.2483   -5.6078  -14.5721 C   0  0  0  0  0  0  0  0  0  0  0  0
   20.5712   -5.6570  -15.7848 O   0  0  0  0  0  0  0  0  0  0  0  0
   19.6043   -4.4291  -14.1141 N   0  0  0  0  0  0  0  0  0  0  0  0
   19.3255   -3.2804  -14.9904 C   0  0  1  0  0  0  0  0  0  0  0  0
   18.2089   -2.5361  -14.2954 C   0  0  0  0  0  0  0  0  0  0  0  0
   17.6349   -1.4387  -15.0881 C   0  0  0  0  0  0  0  0  0  0  0  0
   18.0210   -1.2562  -16.2725 O   0  0  0  0  0  0  0  0  0  0  0  0
   20.5311   -2.4441  -15.1191 C   0  0  0  0  0  0  0  0  0  0  0  0
   20.9636   -1.8991  -16.3051 O   0  0  0  0  0  0  0  0  0  0  0  0
   16.6834   -0.5916  -14.5790 O   0  0  0  0  0  0  0  0  0  0  0  0
   21.2397   -2.1899  -14.0913 O   0  0  0  0  0  0  0  0  0  0  0  0
  2  8  1  0
  2  1  1  1
  3  2  1  0
  4  3  1  0
  5  6  1  0
  5  4  1  0
  7  6  1  0
  8  9  2  0
 10  8  1  0
 10 11  1  0
 11 12  1  6
 12 13  1  0
 14 15  2  0
 14 11  1  0
 16 14  1  0
 17 16  1  0
 17 18  1  1
 19 18  1  0
 19 20  2  0
 21 22  1  0
 21 17  1  0
 23 19  1  0
 24 21  2  0
M  END
$$$$
