KCD.pdb
     RDKit          3D

 24 23  0  0  1  0  0  0  0  0999 V2000
   25.6297  -23.0828  -14.6301 N   0  0  0  0  0  0  0  0  0  0  0  0
   24.3624  -23.3951  -15.2073 C   0  0  1  0  0  0  0  0  0  0  0  0
   24.3548  -24.7769  -15.7534 C   0  0  0  0  0  0  0  0  0  0  0  0
   25.2061  -24.9241  -16.9589 C   0  0  0  0  0  0  0  0  0  0  0  0
   26.6077  -25.3884  -16.7498 C   0  0  0  0  0  0  0  0  0  0  0  0
   27.4450  -25.4292  -18.0064 C   0  0  0  0  0  0  0  0  0  0  0  0
   28.7794  -25.8627  -17.6269 N   0  0  0  0  0  0  0  0  0  0  0  0
   23.2246  -23.1244  -14.2927 C   0  0  0  0  0  0  0  0  0  0  0  0
   23.2321  -23.6121  -13.1346 O   0  0  0  0  0  0  0  0  0  0  0  0
   22.1218  -22.3259  -14.6909 N   0  0  0  0  0  0  0  0  0  0  0  0
   21.0084  -22.0853  -13.7783 C   0  0  1  0  0  0  0  0  0  0  0  0
   20.4489  -20.7012  -13.9193 C   0  0  0  0  0  0  0  0  0  0  0  0
   21.6871  -19.5511  -13.2485 S   0  0  0  0  0  0  0  0  0  0  0  0
   19.9642  -23.1344  -13.9325 C   0  0  0  0  0  0  0  0  0  0  0  0
   19.5439  -23.4415  -15.0755 O   0  0  0  0  0  0  0  0  0  0  0  0
   19.4063  -23.8226  -12.8239 N   0  0  0  0  0  0  0  0  0  0  0  0
   18.4699  -24.9479  -12.9725 C   0  0  1  0  0  0  0  0  0  0  0  0
   18.3090  -25.4940  -11.5725 C   0  0  0  0  0  0  0  0  0  0  0  0
   17.5054  -26.7230  -11.4965 C   0  0  0  0  0  0  0  0  0  0  0  0
   16.2493  -26.6459  -11.4573 O   0  0  0  0  0  0  0  0  0  0  0  0
   17.1875  -24.4648  -13.5123 C   0  0  0  0  0  0  0  0  0  0  0  0
   16.3858  -25.1971  -14.3559 O   0  0  0  0  0  0  0  0  0  0  0  0
   18.0793  -27.9686  -11.4633 O   0  0  0  0  0  0  0  0  0  0  0  0
   16.7647  -23.3041  -13.2004 O   0  0  0  0  0  0  0  0  0  0  0  0
  2  8  1  0
  2  1  1  1
  3  2  1  0
  4  3  1  0
  5  6  1  0
  5  4  1  0
  7  6  1  0
  8  9  2  0
 10  8  1  0
 10 11  1  0
 11 12  1  6
 12 13  1  0
 14 15  2  0
 14 11  1  0
 16 14  1  0
 17 16  1  0
 17 18  1  1
 19 18  1  0
 19 20  2  0
 21 22  1  0
 21 17  1  0
 23 19  1  0
 24 21  2  0
M  END
$$$$
