KCD.pdb
     RDKit          3D

 24 23  0  0  1  0  0  0  0  0999 V2000
   19.4423  -12.4376  -15.5864 N   0  0  0  0  0  0  0  0  0  0  0  0
   18.9551  -11.1006  -15.6945 C   0  0  1  0  0  0  0  0  0  0  0  0
   17.5822  -11.0811  -16.2623 C   0  0  0  0  0  0  0  0  0  0  0  0
   16.9728  -12.4308  -16.3415 C   0  0  0  0  0  0  0  0  0  0  0  0
   15.6054  -12.5949  -15.7694 C   0  0  0  0  0  0  0  0  0  0  0  0
   14.5694  -13.0750  -16.7584 C   0  0  0  0  0  0  0  0  0  0  0  0
   13.3134  -13.2142  -16.0404 N   0  0  0  0  0  0  0  0  0  0  0  0
   19.0720  -10.3352  -14.4276 C   0  0  0  0  0  0  0  0  0  0  0  0
   18.6294  -10.8319  -13.3616 O   0  0  0  0  0  0  0  0  0  0  0  0
   19.6729   -9.0509  -14.3855 N   0  0  0  0  0  0  0  0  0  0  0  0
   19.8731   -8.3637  -13.1135 C   0  0  1  0  0  0  0  0  0  0  0  0
   21.1040   -7.5072  -13.1195 C   0  0  0  0  0  0  0  0  0  0  0  0
   20.9186   -6.3112  -14.4765 S   0  0  0  0  0  0  0  0  0  0  0  0
   18.6554   -7.5988  -12.7301 C   0  0  0  0  0  0  0  0  0  0  0  0
   17.8889   -7.1490  -13.6174 O   0  0  0  0  0  0  0  0  0  0  0  0
   18.3088   -7.3467  -11.3773 N   0  0  0  0  0  0  0  0  0  0  0  0
   17.1454   -6.5331  -10.9901 C   0  0  1  0  0  0  0  0  0  0  0  0
   16.8961   -6.8930   -9.5436 C   0  0  0  0  0  0  0  0  0  0  0  0
   15.7636   -6.1800   -8.9345 C   0  0  0  0  0  0  0  0  0  0  0  0
   14.8686   -5.6865   -9.6698 O   0  0  0  0  0  0  0  0  0  0  0  0
   17.4615   -5.1026  -11.1419 C   0  0  0  0  0  0  0  0  0  0  0  0
   16.5271   -4.1374  -11.4355 O   0  0  0  0  0  0  0  0  0  0  0  0
   15.6438   -6.0267   -7.5765 O   0  0  0  0  0  0  0  0  0  0  0  0
   18.6617   -4.6994  -10.9997 O   0  0  0  0  0  0  0  0  0  0  0  0
  2  8  1  0
  2  1  1  1
  3  2  1  0
  4  3  1  0
  5  6  1  0
  5  4  1  0
  7  6  1  0
  8  9  2  0
 10  8  1  0
 10 11  1  0
 11 12  1  6
 12 13  1  0
 14 15  2  0
 14 11  1  0
 16 14  1  0
 17 16  1  0
 17 18  1  1
 19 18  1  0
 19 20  2  0
 21 22  1  0
 21 17  1  0
 23 19  1  0
 24 21  2  0
M  END
$$$$
