KCD.pdb
     RDKit          3D

 24 23  0  0  1  0  0  0  0  0999 V2000
   18.5660  -12.0210  -15.7989 N   0  0  0  0  0  0  0  0  0  0  0  0
   19.2874  -11.1343  -16.6535 C   0  0  1  0  0  0  0  0  0  0  0  0
   18.3687  -10.4352  -17.5889 C   0  0  0  0  0  0  0  0  0  0  0  0
   17.1715  -11.2414  -17.9298 C   0  0  0  0  0  0  0  0  0  0  0  0
   17.2620  -12.1196  -19.1317 C   0  0  0  0  0  0  0  0  0  0  0  0
   15.9820  -12.8472  -19.4699 C   0  0  0  0  0  0  0  0  0  0  0  0
   16.2573  -13.7057  -20.6100 N   0  0  0  0  0  0  0  0  0  0  0  0
   20.1777  -10.2071  -15.9104 C   0  0  0  0  0  0  0  0  0  0  0  0
   19.6985   -9.4861  -14.9996 O   0  0  0  0  0  0  0  0  0  0  0  0
   21.5630  -10.1111  -16.2007 N   0  0  0  0  0  0  0  0  0  0  0  0
   22.4242   -9.2159  -15.4344 C   0  0  1  0  0  0  0  0  0  0  0  0
   23.8473   -9.6877  -15.4031 C   0  0  0  0  0  0  0  0  0  0  0  0
   23.9818  -10.8974  -14.0523 S   0  0  0  0  0  0  0  0  0  0  0  0
   22.3042   -7.8174  -15.9291 C   0  0  0  0  0  0  0  0  0  0  0  0
   22.4591   -7.5657  -17.1497 O   0  0  0  0  0  0  0  0  0  0  0  0
   22.0157   -6.7270  -15.0680 N   0  0  0  0  0  0  0  0  0  0  0  0
   21.8304   -5.3516  -15.5570 C   0  0  1  0  0  0  0  0  0  0  0  0
   20.6617   -4.8204  -14.7595 C   0  0  0  0  0  0  0  0  0  0  0  0
   20.3063   -3.4280  -15.0709 C   0  0  0  0  0  0  0  0  0  0  0  0
   19.7325   -3.1586  -16.1586 O   0  0  0  0  0  0  0  0  0  0  0  0
   23.0509   -4.5642  -15.3125 C   0  0  0  0  0  0  0  0  0  0  0  0
   23.4319   -3.4838  -16.0730 O   0  0  0  0  0  0  0  0  0  0  0  0
   20.5824   -2.3953  -14.2109 O   0  0  0  0  0  0  0  0  0  0  0  0
   23.8233   -4.8741  -14.3478 O   0  0  0  0  0  0  0  0  0  0  0  0
  2  8  1  0
  2  1  1  1
  3  2  1  0
  4  3  1  0
  5  6  1  0
  5  4  1  0
  7  6  1  0
  8  9  2  0
 10  8  1  0
 10 11  1  0
 11 12  1  6
 12 13  1  0
 14 15  2  0
 14 11  1  0
 16 14  1  0
 17 16  1  0
 17 18  1  1
 19 18  1  0
 19 20  2  0
 21 22  1  0
 21 17  1  0
 23 19  1  0
 24 21  2  0
M  END
$$$$
