KCD.pdb
     RDKit          3D

 24 23  0  0  1  0  0  0  0  0999 V2000
   16.5916  -10.9013  -10.5824 N   0  0  0  0  0  0  0  0  0  0  0  0
   16.6577   -9.9139  -11.6107 C   0  0  1  0  0  0  0  0  0  0  0  0
   15.5154   -8.9688  -11.5122 C   0  0  0  0  0  0  0  0  0  0  0  0
   14.1993   -9.6425  -11.6288 C   0  0  0  0  0  0  0  0  0  0  0  0
   13.3674   -9.3093  -12.8207 C   0  0  0  0  0  0  0  0  0  0  0  0
   11.9834   -9.9145  -12.8039 C   0  0  0  0  0  0  0  0  0  0  0  0
   11.3131   -9.5030  -14.0261 N   0  0  0  0  0  0  0  0  0  0  0  0
   17.9743   -9.2307  -11.6768 C   0  0  0  0  0  0  0  0  0  0  0  0
   18.4386   -8.6813  -10.6464 O   0  0  0  0  0  0  0  0  0  0  0  0
   18.7283   -9.1800  -12.8773 N   0  0  0  0  0  0  0  0  0  0  0  0
   20.0311   -8.5229  -12.9113 C   0  0  1  0  0  0  0  0  0  0  0  0
   21.1297   -9.4626  -13.3099 C   0  0  0  0  0  0  0  0  0  0  0  0
   22.6816   -8.5156  -13.2833 S   0  0  0  0  0  0  0  0  0  0  0  0
   19.9872   -7.3091  -13.7713 C   0  0  0  0  0  0  0  0  0  0  0  0
   19.5736   -7.3902  -14.9544 O   0  0  0  0  0  0  0  0  0  0  0  0
   20.3994   -6.0325  -13.3088 N   0  0  0  0  0  0  0  0  0  0  0  0
   20.4322   -4.8427  -14.1741 C   0  0  1  0  0  0  0  0  0  0  0  0
   19.5404   -3.8420  -13.4760 C   0  0  0  0  0  0  0  0  0  0  0  0
   19.4616   -2.5369  -14.1485 C   0  0  0  0  0  0  0  0  0  0  0  0
   19.9090   -1.5103  -13.5732 O   0  0  0  0  0  0  0  0  0  0  0  0
   21.8134   -4.3444  -14.2887 C   0  0  0  0  0  0  0  0  0  0  0  0
   22.8548   -4.7834  -13.5053 O   0  0  0  0  0  0  0  0  0  0  0  0
   18.9088   -2.3915  -15.3957 O   0  0  0  0  0  0  0  0  0  0  0  0
   22.0968   -3.4535  -15.1542 O   0  0  0  0  0  0  0  0  0  0  0  0
  2  8  1  0
  2  1  1  1
  3  2  1  0
  4  3  1  0
  5  6  1  0
  5  4  1  0
  7  6  1  0
  8  9  2  0
 10  8  1  0
 10 11  1  0
 11 12  1  6
 12 13  1  0
 14 15  2  0
 14 11  1  0
 16 14  1  0
 17 16  1  0
 17 18  1  1
 19 18  1  0
 19 20  2  0
 21 22  1  0
 21 17  1  0
 23 19  1  0
 24 21  2  0
M  END
$$$$
