KCD.pdb
     RDKit          3D

 24 23  0  0  1  0  0  0  0  0999 V2000
   18.7316  -26.1561  -12.5706 N   0  0  0  0  0  0  0  0  0  0  0  0
   17.8219  -25.6054  -11.6188 C   0  0  1  0  0  0  0  0  0  0  0  0
   16.4734  -26.2127  -11.7616 C   0  0  0  0  0  0  0  0  0  0  0  0
   15.8549  -25.9375  -13.0811 C   0  0  0  0  0  0  0  0  0  0  0  0
   14.9738  -24.7386  -13.1831 C   0  0  0  0  0  0  0  0  0  0  0  0
   14.2344  -24.6181  -14.4949 C   0  0  0  0  0  0  0  0  0  0  0  0
   13.4142  -23.4203  -14.4240 N   0  0  0  0  0  0  0  0  0  0  0  0
   18.3373  -25.6529  -10.2272 C   0  0  0  0  0  0  0  0  0  0  0  0
   19.0083  -26.6460   -9.8495 O   0  0  0  0  0  0  0  0  0  0  0  0
   18.0927  -24.6027   -9.3055 N   0  0  0  0  0  0  0  0  0  0  0  0
   18.6105  -24.6721   -7.9427 C   0  0  1  0  0  0  0  0  0  0  0  0
   19.2321  -23.3792   -7.5059 C   0  0  0  0  0  0  0  0  0  0  0  0
   19.0504  -22.2049   -8.8821 S   0  0  0  0  0  0  0  0  0  0  0  0
   17.5562  -25.1377   -7.0011 C   0  0  0  0  0  0  0  0  0  0  0  0
   16.3470  -24.8977   -7.2411 O   0  0  0  0  0  0  0  0  0  0  0  0
   17.8573  -25.8579   -5.8161 N   0  0  0  0  0  0  0  0  0  0  0  0
   16.8373  -26.2101   -4.8156 C   0  0  1  0  0  0  0  0  0  0  0  0
   17.6087  -26.9033   -3.7162 C   0  0  0  0  0  0  0  0  0  0  0  0
   16.7744  -27.3641   -2.5966 C   0  0  0  0  0  0  0  0  0  0  0  0
   17.2132  -27.2883   -1.4190 O   0  0  0  0  0  0  0  0  0  0  0  0
   16.1769  -24.9895   -4.3223 C   0  0  0  0  0  0  0  0  0  0  0  0
   16.6777  -23.7212   -4.4995 O   0  0  0  0  0  0  0  0  0  0  0  0
   15.5193  -27.8838   -2.7882 O   0  0  0  0  0  0  0  0  0  0  0  0
   15.0746  -25.0761   -3.6893 O   0  0  0  0  0  0  0  0  0  0  0  0
  2  8  1  0
  2  1  1  6
  3  2  1  0
  4  3  1  0
  5  6  1  0
  5  4  1  0
  7  6  1  0
  8  9  2  0
 10  8  1  0
 10 11  1  0
 11 12  1  1
 12 13  1  0
 14 15  2  0
 14 11  1  0
 16 14  1  0
 17 16  1  0
 17 18  1  1
 19 18  1  0
 19 20  2  0
 21 22  1  0
 21 17  1  0
 23 19  1  0
 24 21  2  0
M  END
$$$$
