KCD.pdb
     RDKit          3D

 24 23  0  0  1  0  0  0  0  0999 V2000
   21.4618  -22.5099  -13.0648 N   0  0  0  0  0  0  0  0  0  0  0  0
   21.5603  -21.0862  -13.0715 C   0  0  1  0  0  0  0  0  0  0  0  0
   20.5446  -20.4803  -12.1721 C   0  0  0  0  0  0  0  0  0  0  0  0
   19.2001  -21.0856  -12.3319 C   0  0  0  0  0  0  0  0  0  0  0  0
   18.4818  -20.8197  -13.6115 C   0  0  0  0  0  0  0  0  0  0  0  0
   17.1630  -21.5437  -13.7481 C   0  0  0  0  0  0  0  0  0  0  0  0
   16.5758  -21.1435  -15.0160 N   0  0  0  0  0  0  0  0  0  0  0  0
   22.9373  -20.5977  -12.8072 C   0  0  0  0  0  0  0  0  0  0  0  0
   23.1635  -19.3617  -12.7946 O   0  0  0  0  0  0  0  0  0  0  0  0
   24.0121  -21.4918  -12.5668 N   0  0  0  0  0  0  0  0  0  0  0  0
   25.3939  -21.0655  -12.7646 C   0  0  1  0  0  0  0  0  0  0  0  0
   26.3154  -21.6293  -11.7245 C   0  0  0  0  0  0  0  0  0  0  0  0
   27.9590  -20.9087  -12.0167 S   0  0  0  0  0  0  0  0  0  0  0  0
   25.8481  -21.3742  -14.1477 C   0  0  0  0  0  0  0  0  0  0  0  0
   25.5252  -22.4606  -14.6889 O   0  0  0  0  0  0  0  0  0  0  0  0
   26.6477  -20.4789  -14.9046 N   0  0  0  0  0  0  0  0  0  0  0  0
   26.5257  -20.3395  -16.3644 C   0  0  1  0  0  0  0  0  0  0  0  0
   25.0968  -19.8993  -16.5847 C   0  0  0  0  0  0  0  0  0  0  0  0
   24.7496  -19.6721  -17.9953 C   0  0  0  0  0  0  0  0  0  0  0  0
   25.2721  -20.3879  -18.8896 O   0  0  0  0  0  0  0  0  0  0  0  0
   27.4809  -19.3305  -16.8529 C   0  0  0  0  0  0  0  0  0  0  0  0
   27.6239  -18.0790  -16.3013 O   0  0  0  0  0  0  0  0  0  0  0  0
   23.8680  -18.6943  -18.3809 O   0  0  0  0  0  0  0  0  0  0  0  0
   28.2356  -19.5985  -17.8438 O   0  0  0  0  0  0  0  0  0  0  0  0
  2  8  1  0
  2  1  1  1
  3  2  1  0
  4  3  1  0
  5  6  1  0
  5  4  1  0
  7  6  1  0
  8  9  2  0
 10  8  1  0
 10 11  1  0
 11 12  1  1
 12 13  1  0
 14 15  2  0
 14 11  1  0
 16 14  1  0
 17 16  1  0
 17 18  1  1
 19 18  1  0
 19 20  2  0
 21 22  1  0
 21 17  1  0
 23 19  1  0
 24 21  2  0
M  END
$$$$
