KCD.pdb
     RDKit          3D

 24 23  0  0  1  0  0  0  0  0999 V2000
   19.7742  -11.3760  -18.3200 N   0  0  0  0  0  0  0  0  0  0  0  0
   18.7598  -10.6610  -17.6153 C   0  0  1  0  0  0  0  0  0  0  0  0
   17.6380  -11.5614  -17.2432 C   0  0  0  0  0  0  0  0  0  0  0  0
   17.9020  -12.9806  -17.5831 C   0  0  0  0  0  0  0  0  0  0  0  0
   16.9353  -13.6524  -18.4987 C   0  0  0  0  0  0  0  0  0  0  0  0
   17.2579  -15.0983  -18.7938 C   0  0  0  0  0  0  0  0  0  0  0  0
   16.0844  -15.8849  -18.4522 N   0  0  0  0  0  0  0  0  0  0  0  0
   19.2884   -9.8840  -16.4659 C   0  0  0  0  0  0  0  0  0  0  0  0
   18.4897   -9.2721  -15.7130 O   0  0  0  0  0  0  0  0  0  0  0  0
   20.6782   -9.8118  -16.1910 N   0  0  0  0  0  0  0  0  0  0  0  0
   21.1721   -9.0585  -15.0425 C   0  0  1  0  0  0  0  0  0  0  0  0
   22.4023   -9.6753  -14.4467 C   0  0  0  0  0  0  0  0  0  0  0  0
   22.7602   -8.7778  -12.9064 S   0  0  0  0  0  0  0  0  0  0  0  0
   21.3741   -7.6275  -15.3978 C   0  0  0  0  0  0  0  0  0  0  0  0
   22.0589   -7.3191  -16.4044 O   0  0  0  0  0  0  0  0  0  0  0  0
   20.8165   -6.5677  -14.6366 N   0  0  0  0  0  0  0  0  0  0  0  0
   21.0225   -5.1499  -14.9723 C   0  0  1  0  0  0  0  0  0  0  0  0
   19.6474   -4.5319  -14.8663 C   0  0  0  0  0  0  0  0  0  0  0  0
   19.6203   -3.0827  -15.1135 C   0  0  0  0  0  0  0  0  0  0  0  0
   20.5142   -2.5542  -15.8253 O   0  0  0  0  0  0  0  0  0  0  0  0
   21.9618   -4.5398  -14.0158 C   0  0  0  0  0  0  0  0  0  0  0  0
   22.6565   -3.3781  -14.2578 O   0  0  0  0  0  0  0  0  0  0  0  0
   18.6462   -2.2716  -14.5887 O   0  0  0  0  0  0  0  0  0  0  0  0
   22.1676   -5.0941  -12.8873 O   0  0  0  0  0  0  0  0  0  0  0  0
  2  8  1  0
  2  1  1  1
  3  2  1  0
  4  3  1  0
  5  6  1  0
  5  4  1  0
  7  6  1  0
  8  9  2  0
 10  8  1  0
 10 11  1  0
 11 12  1  6
 12 13  1  0
 14 15  2  0
 14 11  1  0
 16 14  1  0
 17 16  1  0
 17 18  1  1
 19 18  1  0
 19 20  2  0
 21 22  1  0
 21 17  1  0
 23 19  1  0
 24 21  2  0
M  END
$$$$
