KCD.pdb
     RDKit          3D

 24 23  0  0  1  0  0  0  0  0999 V2000
   21.1179  -13.3180  -18.6734 N   0  0  0  0  0  0  0  0  0  0  0  0
   21.5119  -11.9743  -18.9495 C   0  0  1  0  0  0  0  0  0  0  0  0
   21.5474  -11.7226  -20.4134 C   0  0  0  0  0  0  0  0  0  0  0  0
   21.9280  -12.9241  -21.1949 C   0  0  0  0  0  0  0  0  0  0  0  0
   23.3351  -13.0012  -21.6829 C   0  0  0  0  0  0  0  0  0  0  0  0
   23.4905  -13.6522  -23.0372 C   0  0  0  0  0  0  0  0  0  0  0  0
   22.1908  -13.6212  -23.6871 N   0  0  0  0  0  0  0  0  0  0  0  0
   20.7113  -10.9694  -18.2053 C   0  0  0  0  0  0  0  0  0  0  0  0
   19.9968  -10.1540  -18.8406 O   0  0  0  0  0  0  0  0  0  0  0  0
   20.7297  -10.9027  -16.7884 N   0  0  0  0  0  0  0  0  0  0  0  0
   19.8737   -9.9593  -16.0761 C   0  0  1  0  0  0  0  0  0  0  0  0
   19.4642  -10.4720  -14.7277 C   0  0  0  0  0  0  0  0  0  0  0  0
   18.3680  -11.8959  -15.0055 S   0  0  0  0  0  0  0  0  0  0  0  0
   20.5161   -8.6191  -15.9987 C   0  0  0  0  0  0  0  0  0  0  0  0
   21.7427   -8.5223  -15.7468 O   0  0  0  0  0  0  0  0  0  0  0  0
   19.7931   -7.4150  -16.2013 N   0  0  0  0  0  0  0  0  0  0  0  0
   20.4452   -6.0995  -16.2984 C   0  0  1  0  0  0  0  0  0  0  0  0
   19.5985   -5.3289  -17.2849 C   0  0  0  0  0  0  0  0  0  0  0  0
   20.0299   -3.9380  -17.4879 C   0  0  0  0  0  0  0  0  0  0  0  0
   19.1769   -3.0120  -17.4764 O   0  0  0  0  0  0  0  0  0  0  0  0
   20.4591   -5.4483  -14.9774 C   0  0  0  0  0  0  0  0  0  0  0  0
   21.1809   -4.3140  -14.6888 O   0  0  0  0  0  0  0  0  0  0  0  0
   21.3446   -3.6052  -17.6954 O   0  0  0  0  0  0  0  0  0  0  0  0
   19.7735   -5.9377  -14.0215 O   0  0  0  0  0  0  0  0  0  0  0  0
  2  8  1  0
  2  1  1  6
  3  2  1  0
  4  3  1  0
  5  6  1  0
  5  4  1  0
  7  6  1  0
  8  9  2  0
 10  8  1  0
 10 11  1  0
 11 12  1  1
 12 13  1  0
 14 15  2  0
 14 11  1  0
 16 14  1  0
 17 16  1  0
 17 18  1  6
 19 18  1  0
 19 20  2  0
 21 22  1  0
 21 17  1  0
 23 19  1  0
 24 21  2  0
M  END
$$$$
