KCD.pdb
     RDKit          3D

 24 23  0  0  1  0  0  0  0  0999 V2000
   18.8615  -12.8066  -16.2291 N   0  0  0  0  0  0  0  0  0  0  0  0
   18.8794  -11.4303  -16.6064 C   0  0  1  0  0  0  0  0  0  0  0  0
   17.5419  -10.9944  -17.0845 C   0  0  0  0  0  0  0  0  0  0  0  0
   16.5286  -12.0756  -17.0244 C   0  0  0  0  0  0  0  0  0  0  0  0
   15.1770  -11.7732  -17.5772 C   0  0  0  0  0  0  0  0  0  0  0  0
   14.2440  -12.9602  -17.6270 C   0  0  0  0  0  0  0  0  0  0  0  0
   12.9745  -12.4943  -18.1597 N   0  0  0  0  0  0  0  0  0  0  0  0
   19.4375  -10.5459  -15.5524 C   0  0  0  0  0  0  0  0  0  0  0  0
   18.8541  -10.4617  -14.4426 O   0  0  0  0  0  0  0  0  0  0  0  0
   20.6181   -9.7882  -15.7632 N   0  0  0  0  0  0  0  0  0  0  0  0
   21.0931   -8.8518  -14.7494 C   0  0  1  0  0  0  0  0  0  0  0  0
   22.4238   -9.2530  -14.1863 C   0  0  0  0  0  0  0  0  0  0  0  0
   22.8204   -8.0770  -12.8575 S   0  0  0  0  0  0  0  0  0  0  0  0
   21.1006   -7.4609  -15.2786 C   0  0  0  0  0  0  0  0  0  0  0  0
   21.6203   -7.2146  -16.3951 O   0  0  0  0  0  0  0  0  0  0  0  0
   20.5346   -6.3718  -14.5663 N   0  0  0  0  0  0  0  0  0  0  0  0
   20.5183   -4.9973  -15.0913 C   0  0  1  0  0  0  0  0  0  0  0  0
   19.1268   -4.4921  -14.7870 C   0  0  0  0  0  0  0  0  0  0  0  0
   18.8697   -3.1227  -15.2566 C   0  0  0  0  0  0  0  0  0  0  0  0
   19.3439   -2.7415  -16.3588 O   0  0  0  0  0  0  0  0  0  0  0  0
   21.5448   -4.1890  -14.4114 C   0  0  0  0  0  0  0  0  0  0  0  0
   22.2108   -3.1406  -15.0014 O   0  0  0  0  0  0  0  0  0  0  0  0
   18.1246   -2.2301  -14.5284 O   0  0  0  0  0  0  0  0  0  0  0  0
   21.8600   -4.4482  -13.2044 O   0  0  0  0  0  0  0  0  0  0  0  0
  2  8  1  0
  2  1  1  1
  3  2  1  0
  4  3  1  0
  5  6  1  0
  5  4  1  0
  7  6  1  0
  8  9  2  0
 10  8  1  0
 10 11  1  0
 11 12  1  6
 12 13  1  0
 14 15  2  0
 14 11  1  0
 16 14  1  0
 17 16  1  0
 17 18  1  1
 19 18  1  0
 19 20  2  0
 21 22  1  0
 21 17  1  0
 23 19  1  0
 24 21  2  0
M  END
$$$$
