KCD.pdb
     RDKit          3D

 24 23  0  0  1  0  0  0  0  0999 V2000
   28.5787  -22.6811  -15.9078 N   0  0  0  0  0  0  0  0  0  0  0  0
   27.9121  -21.4834  -15.5101 C   0  0  1  0  0  0  0  0  0  0  0  0
   27.4238  -20.7305  -16.6943 C   0  0  0  0  0  0  0  0  0  0  0  0
   27.4815  -21.5248  -17.9454 C   0  0  0  0  0  0  0  0  0  0  0  0
   26.3380  -22.4409  -18.2233 C   0  0  0  0  0  0  0  0  0  0  0  0
   25.5223  -22.0687  -19.4390 C   0  0  0  0  0  0  0  0  0  0  0  0
   24.4861  -23.0761  -19.5934 N   0  0  0  0  0  0  0  0  0  0  0  0
   26.8563  -21.7163  -14.4925 C   0  0  0  0  0  0  0  0  0  0  0  0
   26.0059  -22.6224  -14.6795 O   0  0  0  0  0  0  0  0  0  0  0  0
   26.7793  -20.9406  -13.3074 N   0  0  0  0  0  0  0  0  0  0  0  0
   25.7196  -21.1750  -12.3314 C   0  0  1  0  0  0  0  0  0  0  0  0
   26.0826  -20.6674  -10.9678 C   0  0  0  0  0  0  0  0  0  0  0  0
   24.6731  -21.0154   -9.8732 S   0  0  0  0  0  0  0  0  0  0  0  0
   24.4260  -20.6198  -12.8141 C   0  0  0  0  0  0  0  0  0  0  0  0
   24.3186  -19.3921  -13.0560 O   0  0  0  0  0  0  0  0  0  0  0  0
   23.2791  -21.4297  -13.0202 N   0  0  0  0  0  0  0  0  0  0  0  0
   21.9861  -20.8840  -13.4625 C   0  0  1  0  0  0  0  0  0  0  0  0
   21.3018  -22.0423  -14.1511 C   0  0  0  0  0  0  0  0  0  0  0  0
   19.9880  -21.7099  -14.7215 C   0  0  0  0  0  0  0  0  0  0  0  0
   19.5778  -20.5199  -14.6919 O   0  0  0  0  0  0  0  0  0  0  0  0
   21.2141  -20.4181  -12.2979 C   0  0  0  0  0  0  0  0  0  0  0  0
   21.2676  -21.0073  -11.0566 O   0  0  0  0  0  0  0  0  0  0  0  0
   19.1785  -22.6602  -15.2905 O   0  0  0  0  0  0  0  0  0  0  0  0
   20.4404  -19.4122  -12.4107 O   0  0  0  0  0  0  0  0  0  0  0  0
  2  8  1  0
  2  1  1  6
  3  2  1  0
  4  3  1  0
  5  6  1  0
  5  4  1  0
  7  6  1  0
  8  9  2  0
 10  8  1  0
 10 11  1  0
 11 12  1  1
 12 13  1  0
 14 15  2  0
 14 11  1  0
 16 14  1  0
 17 16  1  0
 17 18  1  1
 19 18  1  0
 19 20  2  0
 21 22  1  0
 21 17  1  0
 23 19  1  0
 24 21  2  0
M  END
$$$$
