KCD.pdb
     RDKit          3D

 24 23  0  0  1  0  0  0  0  0999 V2000
   21.9271  -13.1957  -19.3426 N   0  0  0  0  0  0  0  0  0  0  0  0
   22.6444  -12.3129  -18.4807 C   0  0  1  0  0  0  0  0  0  0  0  0
   23.7863  -11.6860  -19.1954 C   0  0  0  0  0  0  0  0  0  0  0  0
   24.8948  -12.6365  -19.4545 C   0  0  0  0  0  0  0  0  0  0  0  0
   24.6888  -13.6443  -20.5343 C   0  0  0  0  0  0  0  0  0  0  0  0
   25.9044  -14.4873  -20.8405 C   0  0  0  0  0  0  0  0  0  0  0  0
   25.5071  -15.4848  -21.8201 N   0  0  0  0  0  0  0  0  0  0  0  0
   21.7687  -11.3241  -17.8023 C   0  0  0  0  0  0  0  0  0  0  0  0
   20.9108  -10.6957  -18.4717 O   0  0  0  0  0  0  0  0  0  0  0  0
   21.8733  -11.0667  -16.4112 N   0  0  0  0  0  0  0  0  0  0  0  0
   20.9695  -10.1249  -15.7582 C   0  0  1  0  0  0  0  0  0  0  0  0
   20.3936  -10.6790  -14.4893 C   0  0  0  0  0  0  0  0  0  0  0  0
   19.3434   -9.3829  -13.7660 S   0  0  0  0  0  0  0  0  0  0  0  0
   21.6380   -8.8119  -15.5481 C   0  0  0  0  0  0  0  0  0  0  0  0
   22.7899   -8.7643  -15.0497 O   0  0  0  0  0  0  0  0  0  0  0  0
   21.0230   -7.5803  -15.8923 N   0  0  0  0  0  0  0  0  0  0  0  0
   21.6653   -6.2763  -15.6633 C   0  0  1  0  0  0  0  0  0  0  0  0
   21.9233   -5.7325  -17.0496 C   0  0  0  0  0  0  0  0  0  0  0  0
   22.9897   -4.7220  -17.1088 C   0  0  0  0  0  0  0  0  0  0  0  0
   23.5321   -4.3240  -16.0445 O   0  0  0  0  0  0  0  0  0  0  0  0
   20.7605   -5.3991  -14.9010 C   0  0  0  0  0  0  0  0  0  0  0  0
   21.1888   -4.4471  -14.0060 O   0  0  0  0  0  0  0  0  0  0  0  0
   23.4211   -4.1858  -18.2956 O   0  0  0  0  0  0  0  0  0  0  0  0
   19.4998   -5.5006  -15.0546 O   0  0  0  0  0  0  0  0  0  0  0  0
  2  8  1  0
  2  1  1  6
  3  2  1  0
  4  3  1  0
  5  6  1  0
  5  4  1  0
  7  6  1  0
  8  9  2  0
 10  8  1  0
 10 11  1  0
 11 12  1  1
 12 13  1  0
 14 15  2  0
 14 11  1  0
 16 14  1  0
 17 16  1  0
 17 18  1  6
 19 18  1  0
 19 20  2  0
 21 22  1  0
 21 17  1  0
 23 19  1  0
 24 21  2  0
M  END
$$$$
