KCD.pdb
     RDKit          3D

 24 23  0  0  1  0  0  0  0  0999 V2000
   19.3879  -13.0952  -18.0688 N   0  0  0  0  0  0  0  0  0  0  0  0
   19.7575  -11.7229  -18.1991 C   0  0  1  0  0  0  0  0  0  0  0  0
   18.6687  -10.9391  -18.8375 C   0  0  0  0  0  0  0  0  0  0  0  0
   18.3067  -11.4468  -20.1831 C   0  0  0  0  0  0  0  0  0  0  0  0
   18.7741  -10.6555  -21.3576 C   0  0  0  0  0  0  0  0  0  0  0  0
   18.2253  -11.1255  -22.6842 C   0  0  0  0  0  0  0  0  0  0  0  0
   16.7994  -10.8441  -22.6900 N   0  0  0  0  0  0  0  0  0  0  0  0
   20.2350  -11.1263  -16.9261 C   0  0  0  0  0  0  0  0  0  0  0  0
   19.5304  -11.2315  -15.8909 O   0  0  0  0  0  0  0  0  0  0  0  0
   21.4717  -10.4363  -16.8440 N   0  0  0  0  0  0  0  0  0  0  0  0
   21.8796   -9.7837  -15.6038 C   0  0  1  0  0  0  0  0  0  0  0  0
   23.2210  -10.2568  -15.1289 C   0  0  0  0  0  0  0  0  0  0  0  0
   23.5542   -9.4244  -13.5471 S   0  0  0  0  0  0  0  0  0  0  0  0
   21.8203   -8.3032  -15.7429 C   0  0  0  0  0  0  0  0  0  0  0  0
   22.3160   -7.7452  -16.7530 O   0  0  0  0  0  0  0  0  0  0  0  0
   21.2157   -7.4699  -14.7663 N   0  0  0  0  0  0  0  0  0  0  0  0
   21.1876   -6.0028  -14.8761 C   0  0  1  0  0  0  0  0  0  0  0  0
   19.7186   -5.6490  -14.8483 C   0  0  0  0  0  0  0  0  0  0  0  0
   19.4479   -4.2052  -14.9121 C   0  0  0  0  0  0  0  0  0  0  0  0
   20.2347   -3.4499  -15.5409 O   0  0  0  0  0  0  0  0  0  0  0  0
   21.9075   -5.4014  -13.7406 C   0  0  0  0  0  0  0  0  0  0  0  0
   22.6292   -4.2338  -13.8215 O   0  0  0  0  0  0  0  0  0  0  0  0
   18.3569   -3.6402  -14.3015 O   0  0  0  0  0  0  0  0  0  0  0  0
   21.8821   -5.9696  -12.6005 O   0  0  0  0  0  0  0  0  0  0  0  0
  2  8  1  0
  2  1  1  1
  3  2  1  0
  4  3  1  0
  5  6  1  0
  5  4  1  0
  7  6  1  0
  8  9  2  0
 10  8  1  0
 10 11  1  0
 11 12  1  6
 12 13  1  0
 14 15  2  0
 14 11  1  0
 16 14  1  0
 17 16  1  0
 17 18  1  1
 19 18  1  0
 19 20  2  0
 21 22  1  0
 21 17  1  0
 23 19  1  0
 24 21  2  0
M  END
$$$$
