TQQ.pdb
     RDKit          3D

 26 25  0  0  1  0  0  0  0  0999 V2000
   24.1909  -13.1167  -15.3566 C   0  0  0  0  0  0  0  0  0  0  0  0
   23.5078  -11.7983  -15.5355 C   0  0  1  0  0  0  0  0  0  0  0  0
   24.1500  -11.0558  -16.5168 O   0  0  0  0  0  0  0  0  0  0  0  0
   22.0385  -12.0134  -15.8953 C   0  0  2  0  0  0  0  0  0  0  0  0
   21.9033  -12.6158  -17.1866 N   0  0  0  0  0  0  0  0  0  0  0  0
   21.3147  -10.6872  -15.8372 C   0  0  0  0  0  0  0  0  0  0  0  0
   21.1289  -10.1047  -16.9306 O   0  0  0  0  0  0  0  0  0  0  0  0
   17.6437   -8.9725  -11.0424 N   0  0  0  0  0  0  0  0  0  0  0  0
   17.1163   -9.6490  -12.1807 C   0  0  0  0  0  0  0  0  0  0  0  0
   15.9748  -10.1614  -12.0539 O   0  0  0  0  0  0  0  0  0  0  0  0
   17.9061   -9.7330  -13.4619 C   0  0  0  0  0  0  0  0  0  0  0  0
   19.2136   -9.0874  -13.2012 C   0  0  0  0  0  0  0  0  0  0  0  0
   20.1625   -9.0134  -14.3641 C   0  0  2  0  0  0  0  0  0  0  0  0
   20.9117  -10.2189  -14.5697 N   0  0  0  0  0  0  0  0  0  0  0  0
   21.0724   -7.8682  -14.1552 C   0  0  0  0  0  0  0  0  0  0  0  0
   22.0995   -7.9766  -13.3928 O   0  0  0  0  0  0  0  0  0  0  0  0
   21.1489   -2.3399  -17.4333 N   0  0  0  0  0  0  0  0  0  0  0  0
   22.1093   -2.1403  -16.4039 C   0  0  0  0  0  0  0  0  0  0  0  0
   22.7291   -1.0220  -16.3469 O   0  0  0  0  0  0  0  0  0  0  0  0
   22.3994   -3.1853  -15.4021 C   0  0  0  0  0  0  0  0  0  0  0  0
   21.6067   -4.4349  -15.5212 C   0  0  0  0  0  0  0  0  0  0  0  0
   21.8084   -5.4841  -14.4968 C   0  0  2  0  0  0  0  0  0  0  0  0
   20.8814   -6.6074  -14.7633 N   0  0  0  0  0  0  0  0  0  0  0  0
   21.6988   -5.0308  -13.1181 C   0  0  0  0  0  0  0  0  0  0  0  0
   20.5002   -5.0078  -12.3747 O   0  0  0  0  0  0  0  0  0  0  0  0
   22.6954   -4.5960  -12.4514 O   0  0  0  0  0  0  0  0  0  0  0  0
  2  1  1  6
  2  3  1  0
  4  5  1  6
  4  2  1  0
  6  4  1  0
  7  6  2  0
  9  8  1  0
  9 11  1  0
 10  9  2  0
 12 11  1  0
 13 12  1  1
 13 14  1  0
 14  6  1  0
 15 13  1  0
 15 16  2  0
 17 18  1  0
 18 19  2  0
 20 21  1  0
 20 18  1  0
 22 21  1  6
 22 23  1  0
 23 15  1  0
 24 22  1  0
 25 24  1  0
 26 24  2  0
M  END
$$$$
