TQQ.pdb
     RDKit          3D

 26 25  0  0  1  0  0  0  0  0999 V2000
   24.9674  -13.8876  -14.9377 C   0  0  0  0  0  0  0  0  0  0  0  0
   24.8285  -14.9493  -15.9818 C   0  0  1  0  0  0  0  0  0  0  0  0
   25.2158  -16.1793  -15.4682 O   0  0  0  0  0  0  0  0  0  0  0  0
   23.3872  -15.0036  -16.4861 C   0  0  2  0  0  0  0  0  0  0  0  0
   23.1948  -16.0962  -17.3904 N   0  0  0  0  0  0  0  0  0  0  0  0
   23.0428  -13.6871  -17.1452 C   0  0  0  0  0  0  0  0  0  0  0  0
   23.6791  -13.4008  -18.1857 O   0  0  0  0  0  0  0  0  0  0  0  0
   19.8276  -14.4743  -18.1320 N   0  0  0  0  0  0  0  0  0  0  0  0
   20.1447  -13.7834  -19.3377 C   0  0  0  0  0  0  0  0  0  0  0  0
   20.1095  -14.4565  -20.3996 O   0  0  0  0  0  0  0  0  0  0  0  0
   20.5013  -12.3191  -19.3161 C   0  0  0  0  0  0  0  0  0  0  0  0
   20.3030  -11.8512  -17.9246 C   0  0  0  0  0  0  0  0  0  0  0  0
   21.5460  -11.6729  -17.0993 C   0  0  2  0  0  0  0  0  0  0  0  0
   22.0434  -12.8969  -16.5411 N   0  0  0  0  0  0  0  0  0  0  0  0
   21.2627  -10.6942  -16.0294 C   0  0  0  0  0  0  0  0  0  0  0  0
   20.7439  -11.0697  -14.9169 O   0  0  0  0  0  0  0  0  0  0  0  0
   23.0866   -4.5900  -15.8008 N   0  0  0  0  0  0  0  0  0  0  0  0
   22.4431   -4.7886  -14.5484 C   0  0  0  0  0  0  0  0  0  0  0  0
   22.3190   -3.7929  -13.7539 O   0  0  0  0  0  0  0  0  0  0  0  0
   21.9126   -6.1078  -14.1508 C   0  0  0  0  0  0  0  0  0  0  0  0
   22.1160   -7.2086  -15.1260 C   0  0  0  0  0  0  0  0  0  0  0  0
   21.2011   -8.3704  -15.0607 C   0  0  2  0  0  0  0  0  0  0  0  0
   21.5353   -9.3134  -16.1521 N   0  0  0  0  0  0  0  0  0  0  0  0
   19.7833   -8.0416  -15.0687 C   0  0  0  0  0  0  0  0  0  0  0  0
   19.0191   -7.7600  -13.9170 O   0  0  0  0  0  0  0  0  0  0  0  0
   19.0914   -7.9887  -16.1389 O   0  0  0  0  0  0  0  0  0  0  0  0
  2  1  1  1
  2  3  1  0
  4  5  1  6
  4  2  1  0
  6  4  1  0
  7  6  2  0
  9  8  1  0
  9 11  1  0
 10  9  2  0
 12 11  1  0
 13 12  1  1
 13 14  1  0
 14  6  1  0
 15 13  1  0
 15 16  2  0
 17 18  1  0
 18 19  2  0
 20 21  1  0
 20 18  1  0
 22 21  1  6
 22 23  1  0
 23 15  1  0
 24 22  1  0
 25 24  1  0
 26 24  2  0
M  END
$$$$
