TQQ.pdb
     RDKit          3D

 26 25  0  0  1  0  0  0  0  0999 V2000
   13.8798   -8.6609  -15.2449 C   0  0  0  0  0  0  0  0  0  0  0  0
   13.6690   -9.7962  -14.2944 C   0  0  1  0  0  0  0  0  0  0  0  0
   12.3257  -10.1436  -14.2543 O   0  0  0  0  0  0  0  0  0  0  0  0
   14.5248  -10.9924  -14.7080 C   0  0  2  0  0  0  0  0  0  0  0  0
   14.2626  -12.1294  -13.8789 N   0  0  0  0  0  0  0  0  0  0  0  0
   15.9843  -10.6022  -14.6476 C   0  0  0  0  0  0  0  0  0  0  0  0
   16.4770  -10.4605  -13.5045 O   0  0  0  0  0  0  0  0  0  0  0  0
   18.0024  -14.3362  -16.2772 N   0  0  0  0  0  0  0  0  0  0  0  0
   18.0304  -13.1665  -17.0910 C   0  0  0  0  0  0  0  0  0  0  0  0
   17.0273  -12.9636  -17.8221 O   0  0  0  0  0  0  0  0  0  0  0  0
   19.2143  -12.2340  -17.0602 C   0  0  0  0  0  0  0  0  0  0  0  0
   18.6805  -10.8602  -17.2088 C   0  0  0  0  0  0  0  0  0  0  0  0
   18.0828  -10.2419  -15.9765 C   0  0  2  0  0  0  0  0  0  0  0  0
   16.6651  -10.4314  -15.8705 N   0  0  0  0  0  0  0  0  0  0  0  0
   18.4143   -8.8021  -15.9658 C   0  0  0  0  0  0  0  0  0  0  0  0
   17.6741   -7.9537  -16.5823 O   0  0  0  0  0  0  0  0  0  0  0  0
   22.7509   -5.8801  -12.2317 N   0  0  0  0  0  0  0  0  0  0  0  0
   22.2570   -4.8376  -13.0631 C   0  0  0  0  0  0  0  0  0  0  0  0
   22.7093   -3.6515  -12.8995 O   0  0  0  0  0  0  0  0  0  0  0  0
   21.2460   -5.0935  -14.1081 C   0  0  0  0  0  0  0  0  0  0  0  0
   20.7949   -6.5016  -14.2422 C   0  0  0  0  0  0  0  0  0  0  0  0
   19.8219   -6.8190  -15.3115 C   0  0  2  0  0  0  0  0  0  0  0  0
   19.5387   -8.2721  -15.2945 N   0  0  0  0  0  0  0  0  0  0  0  0
   20.2020   -6.3754  -16.6445 C   0  0  0  0  0  0  0  0  0  0  0  0
   20.9953   -7.1208  -17.5416 O   0  0  0  0  0  0  0  0  0  0  0  0
   19.8527   -5.2462  -17.1238 O   0  0  0  0  0  0  0  0  0  0  0  0
  2  1  1  6
  2  3  1  0
  4  5  1  1
  4  2  1  0
  6  4  1  0
  7  6  2  0
  9  8  1  0
  9 11  1  0
 10  9  2  0
 12 11  1  0
 13 12  1  6
 13 14  1  0
 14  6  1  0
 15 13  1  0
 15 16  2  0
 17 18  1  0
 18 19  2  0
 20 21  1  0
 20 18  1  0
 22 21  1  1
 22 23  1  0
 23 15  1  0
 24 22  1  0
 25 24  1  0
 26 24  2  0
M  END
$$$$
