TQQ.pdb
     RDKit          3D

 26 25  0  0  1  0  0  0  0  0999 V2000
   26.9970  -19.6061  -16.5468 C   0  0  0  0  0  0  0  0  0  0  0  0
   27.4921  -20.9131  -17.0790 C   0  0  1  0  0  0  0  0  0  0  0  0
   28.6715  -20.7260  -17.7864 O   0  0  0  0  0  0  0  0  0  0  0  0
   27.7003  -21.9013  -15.9324 C   0  0  2  0  0  0  0  0  0  0  0  0
   28.1911  -23.1572  -16.4125 N   0  0  0  0  0  0  0  0  0  0  0  0
   26.3966  -22.0777  -15.1873 C   0  0  0  0  0  0  0  0  0  0  0  0
   25.5448  -22.8245  -15.7222 O   0  0  0  0  0  0  0  0  0  0  0  0
   26.0089  -20.3632   -9.2218 N   0  0  0  0  0  0  0  0  0  0  0  0
   24.6682  -20.8057   -9.4168 C   0  0  0  0  0  0  0  0  0  0  0  0
   23.9473  -20.8914   -8.3898 O   0  0  0  0  0  0  0  0  0  0  0  0
   24.1621  -21.1482  -10.7947 C   0  0  0  0  0  0  0  0  0  0  0  0
   25.3249  -21.0686  -11.7092 C   0  0  0  0  0  0  0  0  0  0  0  0
   25.0827  -21.4892  -13.1313 C   0  0  2  0  0  0  0  0  0  0  0  0
   26.2472  -21.3942  -13.9630 N   0  0  0  0  0  0  0  0  0  0  0  0
   23.9849  -20.6685  -13.6830 C   0  0  0  0  0  0  0  0  0  0  0  0
   24.1459  -19.4123  -13.8924 O   0  0  0  0  0  0  0  0  0  0  0  0
   20.8577  -23.4442  -17.2577 N   0  0  0  0  0  0  0  0  0  0  0  0
   19.8284  -23.1086  -16.3358 C   0  0  0  0  0  0  0  0  0  0  0  0
   18.8440  -23.9134  -16.1904 O   0  0  0  0  0  0  0  0  0  0  0  0
   19.8743  -21.8638  -15.5431 C   0  0  0  0  0  0  0  0  0  0  0  0
   21.0639  -21.0021  -15.7584 C   0  0  0  0  0  0  0  0  0  0  0  0
   21.6559  -20.3306  -14.5797 C   0  0  2  0  0  0  0  0  0  0  0  0
   22.7150  -21.1942  -14.0099 N   0  0  0  0  0  0  0  0  0  0  0  0
   20.7037  -19.9257  -13.5561 C   0  0  0  0  0  0  0  0  0  0  0  0
   19.7283  -18.9202  -13.7214 O   0  0  0  0  0  0  0  0  0  0  0  0
   20.6743  -20.4482  -12.3930 O   0  0  0  0  0  0  0  0  0  0  0  0
  2  1  1  1
  2  3  1  0
  4  5  1  6
  4  2  1  0
  6  4  1  0
  7  6  2  0
  9  8  1  0
  9 11  1  0
 10  9  2  0
 12 11  1  0
 13 12  1  1
 13 14  1  0
 14  6  1  0
 15 13  1  0
 15 16  2  0
 17 18  1  0
 18 19  2  0
 20 21  1  0
 20 18  1  0
 22 21  1  6
 22 23  1  0
 23 15  1  0
 24 22  1  0
 25 24  1  0
 26 24  2  0
M  END
$$$$
