TQQ.pdb
     RDKit          3D

 26 25  0  0  1  0  0  0  0  0999 V2000
   25.1103  -19.5231  -14.9015 C   0  0  0  0  0  0  0  0  0  0  0  0
   24.6281  -20.8250  -15.4576 C   0  0  1  0  0  0  0  0  0  0  0  0
   25.5886  -21.3719  -16.2973 O   0  0  0  0  0  0  0  0  0  0  0  0
   24.2921  -21.7888  -14.3205 C   0  0  2  0  0  0  0  0  0  0  0  0
   23.9163  -23.0747  -14.8243 N   0  0  0  0  0  0  0  0  0  0  0  0
   23.1881  -21.1934  -13.4762 C   0  0  0  0  0  0  0  0  0  0  0  0
   23.5118  -20.2483  -12.7203 O   0  0  0  0  0  0  0  0  0  0  0  0
   19.7673  -19.0825  -16.3491 N   0  0  0  0  0  0  0  0  0  0  0  0
   20.2718  -18.2671  -15.2945 C   0  0  0  0  0  0  0  0  0  0  0  0
   20.5977  -17.0907  -15.5974 O   0  0  0  0  0  0  0  0  0  0  0  0
   20.3991  -18.8098  -13.8940 C   0  0  0  0  0  0  0  0  0  0  0  0
   19.9908  -20.2328  -13.9481 C   0  0  0  0  0  0  0  0  0  0  0  0
   20.7191  -21.1693  -13.0258 C   0  0  2  0  0  0  0  0  0  0  0  0
   21.8970  -21.7450  -13.6072 N   0  0  0  0  0  0  0  0  0  0  0  0
   19.7827  -22.2290  -12.5979 C   0  0  0  0  0  0  0  0  0  0  0  0
   19.6688  -23.3156  -13.2718 O   0  0  0  0  0  0  0  0  0  0  0  0
   19.0751  -24.0820   -6.7972 N   0  0  0  0  0  0  0  0  0  0  0  0
   17.7615  -24.3278   -7.2831 C   0  0  0  0  0  0  0  0  0  0  0  0
   16.8820  -24.7901   -6.4764 O   0  0  0  0  0  0  0  0  0  0  0  0
   17.3913  -24.0563   -8.6863 C   0  0  0  0  0  0  0  0  0  0  0  0
   18.4775  -23.5349   -9.5536 C   0  0  0  0  0  0  0  0  0  0  0  0
   18.1634  -23.2734  -10.9763 C   0  0  2  0  0  0  0  0  0  0  0  0
   18.9687  -22.1240  -11.4479 N   0  0  0  0  0  0  0  0  0  0  0  0
   16.7515  -23.0797  -11.2719 C   0  0  0  0  0  0  0  0  0  0  0  0
   15.8207  -24.1233  -11.4568 O   0  0  0  0  0  0  0  0  0  0  0  0
   16.2240  -21.9259  -11.4027 O   0  0  0  0  0  0  0  0  0  0  0  0
  2  1  1  1
  2  3  1  0
  4  5  1  6
  4  2  1  0
  6  4  1  0
  7  6  2  0
  9  8  1  0
  9 11  1  0
 10  9  2  0
 12 11  1  0
 13 12  1  6
 13 14  1  0
 14  6  1  0
 15 13  1  0
 15 16  2  0
 17 18  1  0
 18 19  2  0
 20 21  1  0
 20 18  1  0
 22 21  1  1
 22 23  1  0
 23 15  1  0
 24 22  1  0
 25 24  1  0
 26 24  2  0
M  END
$$$$
