TQQ.pdb
     RDKit          3D

 26 25  0  0  1  0  0  0  0  0999 V2000
   26.3793  -12.8584  -15.1869 C   0  0  0  0  0  0  0  0  0  0  0  0
   25.4714  -11.7843  -15.6957 C   0  0  1  0  0  0  0  0  0  0  0  0
   26.1439  -10.9803  -16.6056 O   0  0  0  0  0  0  0  0  0  0  0  0
   24.2313  -12.4057  -16.3365 C   0  0  2  0  0  0  0  0  0  0  0  0
   24.5733  -13.1601  -17.5038 N   0  0  0  0  0  0  0  0  0  0  0  0
   23.2435  -11.3104  -16.6689 C   0  0  0  0  0  0  0  0  0  0  0  0
   23.2863  -10.8557  -17.8355 O   0  0  0  0  0  0  0  0  0  0  0  0
   17.6362  -11.3136  -14.4485 N   0  0  0  0  0  0  0  0  0  0  0  0
   17.9798  -11.7540  -15.7598 C   0  0  0  0  0  0  0  0  0  0  0  0
   17.1661  -12.5277  -16.3265 O   0  0  0  0  0  0  0  0  0  0  0  0
   19.2600  -11.3014  -16.4142 C   0  0  0  0  0  0  0  0  0  0  0  0
   19.9588  -10.4375  -15.4345 C   0  0  0  0  0  0  0  0  0  0  0  0
   21.3152   -9.9340  -15.8402 C   0  0  2  0  0  0  0  0  0  0  0  0
   22.3634  -10.8941  -15.6490 N   0  0  0  0  0  0  0  0  0  0  0  0
   21.6022   -8.6975  -15.0842 C   0  0  0  0  0  0  0  0  0  0  0  0
   22.0581   -8.7520  -13.8855 O   0  0  0  0  0  0  0  0  0  0  0  0
   22.2090   -1.3155  -15.8063 N   0  0  0  0  0  0  0  0  0  0  0  0
   22.5438   -2.6556  -16.1440 C   0  0  0  0  0  0  0  0  0  0  0  0
   23.0002   -2.9012  -17.3141 O   0  0  0  0  0  0  0  0  0  0  0  0
   22.3840   -3.7608  -15.1781 C   0  0  0  0  0  0  0  0  0  0  0  0
   22.0691   -5.0896  -15.7603 C   0  0  0  0  0  0  0  0  0  0  0  0
   21.7516   -6.1964  -14.8301 C   0  0  2  0  0  0  0  0  0  0  0  0
   21.4007   -7.4030  -15.6131 N   0  0  0  0  0  0  0  0  0  0  0  0
   20.7263   -5.8976  -13.8413 C   0  0  0  0  0  0  0  0  0  0  0  0
   20.9807   -5.3805  -12.5538 O   0  0  0  0  0  0  0  0  0  0  0  0
   19.4835   -6.0910  -14.0531 O   0  0  0  0  0  0  0  0  0  0  0  0
  2  1  1  6
  2  3  1  0
  4  5  1  6
  4  2  1  0
  6  4  1  0
  7  6  2  0
  9  8  1  0
  9 11  1  0
 10  9  2  0
 12 11  1  0
 13 12  1  1
 13 14  1  0
 14  6  1  0
 15 13  1  0
 15 16  2  0
 17 18  1  0
 18 19  2  0
 20 21  1  0
 20 18  1  0
 22 21  1  6
 22 23  1  0
 23 15  1  0
 24 22  1  0
 25 24  1  0
 26 24  2  0
M  END
$$$$
