TQQ.pdb
     RDKit          3D

 26 25  0  0  1  0  0  0  0  0999 V2000
   24.8190  -13.4313  -14.8158 C   0  0  0  0  0  0  0  0  0  0  0  0
   24.8999  -14.1827  -16.1064 C   0  0  1  0  0  0  0  0  0  0  0  0
   25.7327  -15.2845  -15.9673 O   0  0  0  0  0  0  0  0  0  0  0  0
   23.5030  -14.6136  -16.5509 C   0  0  2  0  0  0  0  0  0  0  0  0
   23.5635  -15.4623  -17.7019 N   0  0  0  0  0  0  0  0  0  0  0  0
   22.6695  -13.3829  -16.8279 C   0  0  0  0  0  0  0  0  0  0  0  0
   23.0870  -12.6171  -17.7272 O   0  0  0  0  0  0  0  0  0  0  0  0
   16.7703  -13.2652  -14.9802 N   0  0  0  0  0  0  0  0  0  0  0  0
   16.8577  -11.9304  -15.4723 C   0  0  0  0  0  0  0  0  0  0  0  0
   15.8000  -11.2502  -15.4496 O   0  0  0  0  0  0  0  0  0  0  0  0
   18.1636  -11.3833  -15.9892 C   0  0  0  0  0  0  0  0  0  0  0  0
   19.1792  -12.4436  -15.7923 C   0  0  0  0  0  0  0  0  0  0  0  0
   20.5708  -12.1275  -16.2631 C   0  0  2  0  0  0  0  0  0  0  0  0
   21.5018  -13.1993  -16.0591 N   0  0  0  0  0  0  0  0  0  0  0  0
   21.0322  -10.9038  -15.5757 C   0  0  0  0  0  0  0  0  0  0  0  0
   21.5250  -10.9623  -14.3918 O   0  0  0  0  0  0  0  0  0  0  0  0
   23.2596   -3.8414  -16.6192 N   0  0  0  0  0  0  0  0  0  0  0  0
   22.9818   -5.2010  -16.9295 C   0  0  0  0  0  0  0  0  0  0  0  0
   23.1899   -5.6165  -18.1220 O   0  0  0  0  0  0  0  0  0  0  0  0
   22.4687   -6.1386  -15.9110 C   0  0  0  0  0  0  0  0  0  0  0  0
   21.9394   -7.4271  -16.4246 C   0  0  0  0  0  0  0  0  0  0  0  0
   21.4760   -8.4286  -15.4382 C   0  0  2  0  0  0  0  0  0  0  0  0
   20.9654   -9.6180  -16.1572 N   0  0  0  0  0  0  0  0  0  0  0  0
   20.5006   -7.9412  -14.4742 C   0  0  0  0  0  0  0  0  0  0  0  0
   19.1120   -8.1781  -14.5489 O   0  0  0  0  0  0  0  0  0  0  0  0
   20.8216   -7.2338  -13.4625 O   0  0  0  0  0  0  0  0  0  0  0  0
  2  1  1  1
  2  3  1  0
  4  5  1  6
  4  2  1  0
  6  4  1  0
  7  6  2  0
  9  8  1  0
  9 11  1  0
 10  9  2  0
 12 11  1  0
 13 12  1  1
 13 14  1  0
 14  6  1  0
 15 13  1  0
 15 16  2  0
 17 18  1  0
 18 19  2  0
 20 21  1  0
 20 18  1  0
 22 21  1  6
 22 23  1  0
 23 15  1  0
 24 22  1  0
 25 24  1  0
 26 24  2  0
M  END
$$$$
