TQQ.pdb
     RDKit          3D

 26 25  0  0  1  0  0  0  0  0999 V2000
   27.6744  -11.2322  -14.8911 C   0  0  0  0  0  0  0  0  0  0  0  0
   26.6806  -10.4869  -15.7239 C   0  0  1  0  0  0  0  0  0  0  0  0
   27.2833  -10.0179  -16.8830 O   0  0  0  0  0  0  0  0  0  0  0  0
   25.4945  -11.3901  -16.0587 C   0  0  2  0  0  0  0  0  0  0  0  0
   25.8985  -12.4970  -16.8712 N   0  0  0  0  0  0  0  0  0  0  0  0
   24.4276  -10.5713  -16.7495 C   0  0  0  0  0  0  0  0  0  0  0  0
   24.4507  -10.5676  -18.0021 O   0  0  0  0  0  0  0  0  0  0  0  0
   18.5826  -10.6000  -16.8025 N   0  0  0  0  0  0  0  0  0  0  0  0
   19.2791  -11.0289  -15.6353 C   0  0  0  0  0  0  0  0  0  0  0  0
   18.6279  -11.7220  -14.8123 O   0  0  0  0  0  0  0  0  0  0  0  0
   20.7241  -10.6577  -15.4199 C   0  0  0  0  0  0  0  0  0  0  0  0
   21.1332   -9.8385  -16.5843 C   0  0  0  0  0  0  0  0  0  0  0  0
   22.4268   -9.0864  -16.4469 C   0  0  2  0  0  0  0  0  0  0  0  0
   23.5025   -9.8855  -15.9358 N   0  0  0  0  0  0  0  0  0  0  0  0
   22.1973   -7.9124  -15.5797 C   0  0  0  0  0  0  0  0  0  0  0  0
   22.1291   -8.0418  -14.3044 O   0  0  0  0  0  0  0  0  0  0  0  0
   23.2466   -1.9067  -17.3160 N   0  0  0  0  0  0  0  0  0  0  0  0
   21.9192   -2.3788  -17.5089 C   0  0  0  0  0  0  0  0  0  0  0  0
   21.1523   -1.7499  -18.3178 O   0  0  0  0  0  0  0  0  0  0  0  0
   21.4128   -3.5746  -16.8065 C   0  0  0  0  0  0  0  0  0  0  0  0
   22.3578   -4.2187  -15.8598 C   0  0  0  0  0  0  0  0  0  0  0  0
   21.9116   -5.4454  -15.1619 C   0  0  2  0  0  0  0  0  0  0  0  0
   22.0411   -6.6002  -16.0794 N   0  0  0  0  0  0  0  0  0  0  0  0
   20.5753   -5.3791  -14.5892 C   0  0  0  0  0  0  0  0  0  0  0  0
   19.4510   -6.0638  -15.0962 O   0  0  0  0  0  0  0  0  0  0  0  0
   20.2961   -4.6735  -13.5640 O   0  0  0  0  0  0  0  0  0  0  0  0
  2  1  1  6
  2  3  1  0
  4  5  1  6
  4  2  1  0
  6  4  1  0
  7  6  2  0
  9  8  1  0
  9 11  1  0
 10  9  2  0
 12 11  1  0
 13 12  1  1
 13 14  1  0
 14  6  1  0
 15 13  1  0
 15 16  2  0
 17 18  1  0
 18 19  2  0
 20 21  1  0
 20 18  1  0
 22 21  1  6
 22 23  1  0
 23 15  1  0
 24 22  1  0
 25 24  1  0
 26 24  2  0
M  END
$$$$
