TQQ.pdb
     RDKit          3D

 26 25  0  0  1  0  0  0  0  0999 V2000
   27.1958  -10.3317  -15.2374 C   0  0  0  0  0  0  0  0  0  0  0  0
   27.6307  -11.3626  -16.2299 C   0  0  1  0  0  0  0  0  0  0  0  0
   28.8359  -11.9275  -15.8362 O   0  0  0  0  0  0  0  0  0  0  0  0
   26.5533  -12.4359  -16.3776 C   0  0  2  0  0  0  0  0  0  0  0  0
   27.0240  -13.5397  -17.1578 N   0  0  0  0  0  0  0  0  0  0  0  0
   25.3210  -11.8188  -16.9993 C   0  0  0  0  0  0  0  0  0  0  0  0
   25.2929  -11.7688  -18.2508 O   0  0  0  0  0  0  0  0  0  0  0  0
   19.8521  -12.6622  -14.7329 N   0  0  0  0  0  0  0  0  0  0  0  0
   19.4998  -11.5694  -15.5773 C   0  0  0  0  0  0  0  0  0  0  0  0
   18.2722  -11.3263  -15.7029 O   0  0  0  0  0  0  0  0  0  0  0  0
   20.5632  -10.7599  -16.2745 C   0  0  0  0  0  0  0  0  0  0  0  0
   21.8666  -11.3618  -15.9096 C   0  0  0  0  0  0  0  0  0  0  0  0
   23.0801  -10.7724  -16.5715 C   0  0  2  0  0  0  0  0  0  0  0  0
   24.3138  -11.3544  -16.1286 N   0  0  0  0  0  0  0  0  0  0  0  0
   23.0820   -9.3139  -16.3349 C   0  0  0  0  0  0  0  0  0  0  0  0
   23.4317   -8.8342  -15.1969 O   0  0  0  0  0  0  0  0  0  0  0  0
   23.9049   -4.7500  -20.6165 N   0  0  0  0  0  0  0  0  0  0  0  0
   23.5325   -4.0205  -19.4542 C   0  0  0  0  0  0  0  0  0  0  0  0
   23.5387   -2.7415  -19.5004 O   0  0  0  0  0  0  0  0  0  0  0  0
   23.1349   -4.7020  -18.2063 C   0  0  0  0  0  0  0  0  0  0  0  0
   23.0440   -6.1821  -18.2771 C   0  0  0  0  0  0  0  0  0  0  0  0
   22.7366   -6.9182  -17.0302 C   0  0  2  0  0  0  0  0  0  0  0  0
   22.7090   -8.3703  -17.3180 N   0  0  0  0  0  0  0  0  0  0  0  0
   21.5225   -6.4968  -16.3472 C   0  0  0  0  0  0  0  0  0  0  0  0
   21.4651   -5.4864  -15.3645 O   0  0  0  0  0  0  0  0  0  0  0  0
   20.3827   -7.0222  -16.5746 O   0  0  0  0  0  0  0  0  0  0  0  0
  2  1  1  1
  2  3  1  0
  4  5  1  6
  4  2  1  0
  6  4  1  0
  7  6  2  0
  9  8  1  0
  9 11  1  0
 10  9  2  0
 12 11  1  0
 13 12  1  1
 13 14  1  0
 14  6  1  0
 15 13  1  0
 15 16  2  0
 17 18  1  0
 18 19  2  0
 20 21  1  0
 20 18  1  0
 22 21  1  6
 22 23  1  0
 23 15  1  0
 24 22  1  0
 25 24  1  0
 26 24  2  0
M  END
$$$$
