TQQ.pdb
     RDKit          3D

 26 25  0  0  1  0  0  0  0  0999 V2000
   17.6951  -10.6848  -18.4532 C   0  0  0  0  0  0  0  0  0  0  0  0
   18.6694  -10.3272  -17.3763 C   0  0  1  0  0  0  0  0  0  0  0  0
   18.1289   -9.3557  -16.5452 O   0  0  0  0  0  0  0  0  0  0  0  0
   19.0481  -11.5730  -16.5768 C   0  0  2  0  0  0  0  0  0  0  0  0
   17.8935  -12.1864  -15.9943 N   0  0  0  0  0  0  0  0  0  0  0  0
   20.0544  -11.1930  -15.5143 C   0  0  0  0  0  0  0  0  0  0  0  0
   19.6320  -11.1501  -14.3356 O   0  0  0  0  0  0  0  0  0  0  0  0
   26.1234  -10.8333  -16.9331 N   0  0  0  0  0  0  0  0  0  0  0  0
   26.1653  -10.2324  -15.6414 C   0  0  0  0  0  0  0  0  0  0  0  0
   27.2929   -9.8569  -15.2300 O   0  0  0  0  0  0  0  0  0  0  0  0
   24.9075  -10.0659  -14.8275 C   0  0  0  0  0  0  0  0  0  0  0  0
   23.7879  -10.5529  -15.6664 C   0  0  0  0  0  0  0  0  0  0  0  0
   22.4188  -10.4906  -15.0500 C   0  0  2  0  0  0  0  0  0  0  0  0
   21.3732  -10.9207  -15.9324 N   0  0  0  0  0  0  0  0  0  0  0  0
   22.1728   -9.1076  -14.5919 C   0  0  0  0  0  0  0  0  0  0  0  0
   22.9188   -8.5706  -13.6960 O   0  0  0  0  0  0  0  0  0  0  0  0
   24.3338   -4.6447  -16.4174 N   0  0  0  0  0  0  0  0  0  0  0  0
   23.3718   -3.9606  -15.6246 C   0  0  0  0  0  0  0  0  0  0  0  0
   23.5044   -2.7005  -15.4447 O   0  0  0  0  0  0  0  0  0  0  0  0
   22.2275   -4.6667  -15.0148 C   0  0  0  0  0  0  0  0  0  0  0  0
   22.1765   -6.1332  -15.2399 C   0  0  0  0  0  0  0  0  0  0  0  0
   21.0116   -6.8760  -14.7086 C   0  0  2  0  0  0  0  0  0  0  0  0
   21.1274   -8.3008  -15.0941 N   0  0  0  0  0  0  0  0  0  0  0  0
   19.7123   -6.3367  -15.0819 C   0  0  0  0  0  0  0  0  0  0  0  0
   19.1626   -5.1429  -14.5696 O   0  0  0  0  0  0  0  0  0  0  0  0
   18.9368   -6.9138  -15.9140 O   0  0  0  0  0  0  0  0  0  0  0  0
  2  1  1  6
  2  3  1  0
  4  5  1  1
  4  2  1  0
  6  4  1  0
  7  6  2  0
  9  8  1  0
  9 11  1  0
 10  9  2  0
 12 11  1  0
 13 12  1  6
 13 14  1  0
 14  6  1  0
 15 13  1  0
 15 16  2  0
 17 18  1  0
 18 19  2  0
 20 21  1  0
 20 18  1  0
 22 21  1  6
 22 23  1  0
 23 15  1  0
 24 22  1  0
 25 24  1  0
 26 24  2  0
M  END
$$$$
