TQQ.pdb
     RDKit          3D

 26 25  0  0  1  0  0  0  0  0999 V2000
   26.5290  -21.6553  -17.3062 C   0  0  0  0  0  0  0  0  0  0  0  0
   26.4613  -23.1472  -17.3869 C   0  0  1  0  0  0  0  0  0  0  0  0
   27.4548  -23.6265  -18.2296 O   0  0  0  0  0  0  0  0  0  0  0  0
   26.5965  -23.7546  -15.9915 C   0  0  2  0  0  0  0  0  0  0  0  0
   26.5694  -25.1848  -16.0433 N   0  0  0  0  0  0  0  0  0  0  0  0
   25.4890  -23.2229  -15.1101 C   0  0  0  0  0  0  0  0  0  0  0  0
   24.3910  -23.8231  -15.1706 O   0  0  0  0  0  0  0  0  0  0  0  0
   25.4543  -21.8181   -9.9371 N   0  0  0  0  0  0  0  0  0  0  0  0
   24.5489  -20.7349  -10.1327 C   0  0  0  0  0  0  0  0  0  0  0  0
   23.7636  -20.4777   -9.1846 O   0  0  0  0  0  0  0  0  0  0  0  0
   24.5511  -19.9512  -11.4203 C   0  0  0  0  0  0  0  0  0  0  0  0
   25.4742  -20.6500  -12.3445 C   0  0  0  0  0  0  0  0  0  0  0  0
   24.8353  -21.4991  -13.4070 C   0  0  2  0  0  0  0  0  0  0  0  0
   25.7794  -22.1060  -14.2998 N   0  0  0  0  0  0  0  0  0  0  0  0
   23.8744  -20.6658  -14.1588 C   0  0  0  0  0  0  0  0  0  0  0  0
   24.2490  -19.5703  -14.7131 O   0  0  0  0  0  0  0  0  0  0  0  0
   20.3764  -21.8826  -18.7806 N   0  0  0  0  0  0  0  0  0  0  0  0
   21.7436  -21.5559  -18.5662 C   0  0  0  0  0  0  0  0  0  0  0  0
   22.5912  -21.8119  -19.4902 O   0  0  0  0  0  0  0  0  0  0  0  0
   22.2018  -20.9255  -17.3121 C   0  0  0  0  0  0  0  0  0  0  0  0
   21.1555  -20.6896  -16.2856 C   0  0  0  0  0  0  0  0  0  0  0  0
   21.5707  -20.0897  -14.9977 C   0  0  2  0  0  0  0  0  0  0  0  0
   22.5124  -21.0068  -14.3163 N   0  0  0  0  0  0  0  0  0  0  0  0
   20.4795  -19.7081  -14.1135 C   0  0  0  0  0  0  0  0  0  0  0  0
   20.3048  -20.1929  -12.8004 O   0  0  0  0  0  0  0  0  0  0  0  0
   19.5613  -18.8933  -14.4595 O   0  0  0  0  0  0  0  0  0  0  0  0
  2  1  1  1
  2  3  1  0
  4  5  1  6
  4  2  1  0
  6  4  1  0
  7  6  2  0
  9  8  1  0
  9 11  1  0
 10  9  2  0
 12 11  1  0
 13 12  1  1
 13 14  1  0
 14  6  1  0
 15 13  1  0
 15 16  2  0
 17 18  1  0
 18 19  2  0
 20 21  1  0
 20 18  1  0
 22 21  1  6
 22 23  1  0
 23 15  1  0
 24 22  1  0
 25 24  1  0
 26 24  2  0
M  END
$$$$
