TQQ.pdb
     RDKit          3D

 26 25  0  0  1  0  0  0  0  0999 V2000
   27.1843  -14.7133  -15.7400 C   0  0  0  0  0  0  0  0  0  0  0  0
   26.5087  -16.0227  -15.4836 C   0  0  1  0  0  0  0  0  0  0  0  0
   25.3863  -16.1482  -16.2904 O   0  0  0  0  0  0  0  0  0  0  0  0
   27.4835  -17.1731  -15.7308 C   0  0  2  0  0  0  0  0  0  0  0  0
   27.8880  -17.2247  -17.1028 N   0  0  0  0  0  0  0  0  0  0  0  0
   26.8352  -18.4717  -15.3074 C   0  0  0  0  0  0  0  0  0  0  0  0
   26.2795  -19.1384  -16.2108 O   0  0  0  0  0  0  0  0  0  0  0  0
   25.8650  -19.9408   -9.6479 N   0  0  0  0  0  0  0  0  0  0  0  0
   25.8163  -21.2895  -10.1063 C   0  0  0  0  0  0  0  0  0  0  0  0
   25.3398  -22.1390   -9.3106 O   0  0  0  0  0  0  0  0  0  0  0  0
   26.3169  -21.6553  -11.4802 C   0  0  0  0  0  0  0  0  0  0  0  0
   26.8740  -20.4185  -12.0755 C   0  0  0  0  0  0  0  0  0  0  0  0
   26.2734  -19.9796  -13.3812 C   0  0  2  0  0  0  0  0  0  0  0  0
   26.9083  -18.8231  -13.9437 N   0  0  0  0  0  0  0  0  0  0  0  0
   24.8321  -19.7290  -13.1741 C   0  0  0  0  0  0  0  0  0  0  0  0
   24.4310  -18.6793  -12.5537 O   0  0  0  0  0  0  0  0  0  0  0  0
   21.4341  -16.9990  -16.0998 N   0  0  0  0  0  0  0  0  0  0  0  0
   21.3601  -18.3355  -16.5795 C   0  0  0  0  0  0  0  0  0  0  0  0
   21.1066  -18.5330  -17.8184 O   0  0  0  0  0  0  0  0  0  0  0  0
   21.5750  -19.4918  -15.6870 C   0  0  0  0  0  0  0  0  0  0  0  0
   21.9996  -19.1704  -14.3012 C   0  0  0  0  0  0  0  0  0  0  0  0
   22.3897  -20.2923  -13.4180 C   0  0  2  0  0  0  0  0  0  0  0  0
   23.8213  -20.6034  -13.6320 N   0  0  0  0  0  0  0  0  0  0  0  0
   21.5701  -21.4888  -13.5401 C   0  0  0  0  0  0  0  0  0  0  0  0
   20.2217  -21.5815  -13.1364 O   0  0  0  0  0  0  0  0  0  0  0  0
   22.0117  -22.5836  -14.0232 O   0  0  0  0  0  0  0  0  0  0  0  0
  2  1  1  6
  2  3  1  0
  4  5  1  6
  4  2  1  0
  6  4  1  0
  7  6  2  0
  9  8  1  0
  9 11  1  0
 10  9  2  0
 12 11  1  0
 13 12  1  1
 13 14  1  0
 14  6  1  0
 15 13  1  0
 15 16  2  0
 17 18  1  0
 18 19  2  0
 20 21  1  0
 20 18  1  0
 22 21  1  6
 22 23  1  0
 23 15  1  0
 24 22  1  0
 25 24  1  0
 26 24  2  0
M  END
$$$$
