TQQ.pdb
     RDKit          3D

 26 25  0  0  1  0  0  0  0  0999 V2000
   23.3364  -11.1523  -14.8678 C   0  0  0  0  0  0  0  0  0  0  0  0
   23.7798  -11.3197  -16.2863 C   0  0  1  0  0  0  0  0  0  0  0  0
   24.9346  -12.0880  -16.3393 O   0  0  0  0  0  0  0  0  0  0  0  0
   22.6655  -11.9611  -17.1119 C   0  0  2  0  0  0  0  0  0  0  0  0
   23.1054  -12.2473  -18.4435 N   0  0  0  0  0  0  0  0  0  0  0  0
   21.4652  -11.0417  -17.1232 C   0  0  0  0  0  0  0  0  0  0  0  0
   21.5411  -10.0341  -17.8637 O   0  0  0  0  0  0  0  0  0  0  0  0
   15.9960  -13.1796  -15.1967 N   0  0  0  0  0  0  0  0  0  0  0  0
   15.6267  -11.8158  -15.3841 C   0  0  0  0  0  0  0  0  0  0  0  0
   14.4112  -11.5336  -15.2261 O   0  0  0  0  0  0  0  0  0  0  0  0
   16.6589  -10.7813  -15.7532 C   0  0  0  0  0  0  0  0  0  0  0  0
   17.9528  -11.4924  -15.8736 C   0  0  0  0  0  0  0  0  0  0  0  0
   19.1375  -10.6559  -16.2673 C   0  0  2  0  0  0  0  0  0  0  0  0
   20.3690  -11.3899  -16.3075 N   0  0  0  0  0  0  0  0  0  0  0  0
   19.2428   -9.5201  -15.3283 C   0  0  0  0  0  0  0  0  0  0  0  0
   20.0350   -9.5737  -14.3196 O   0  0  0  0  0  0  0  0  0  0  0  0
   22.8909   -5.9119  -15.3906 N   0  0  0  0  0  0  0  0  0  0  0  0
   22.1235   -5.1965  -14.4309 C   0  0  0  0  0  0  0  0  0  0  0  0
   22.6516   -4.1878  -13.8466 O   0  0  0  0  0  0  0  0  0  0  0  0
   20.7378   -5.5854  -14.1015 C   0  0  0  0  0  0  0  0  0  0  0  0
   20.2462   -6.8330  -14.7387 C   0  0  0  0  0  0  0  0  0  0  0  0
   18.8008   -7.1375  -14.6424 C   0  0  2  0  0  0  0  0  0  0  0  0
   18.4992   -8.3273  -15.4705 N   0  0  0  0  0  0  0  0  0  0  0  0
   17.9132   -6.0321  -14.9715 C   0  0  0  0  0  0  0  0  0  0  0  0
   17.5840   -4.9792  -14.0923 O   0  0  0  0  0  0  0  0  0  0  0  0
   17.3353   -5.9221  -16.1032 O   0  0  0  0  0  0  0  0  0  0  0  0
  2  1  1  1
  2  3  1  0
  4  5  1  6
  4  2  1  0
  6  4  1  0
  7  6  2  0
  9  8  1  0
  9 11  1  0
 10  9  2  0
 12 11  1  0
 13 12  1  1
 13 14  1  0
 14  6  1  0
 15 13  1  0
 15 16  2  0
 17 18  1  0
 18 19  2  0
 20 21  1  0
 20 18  1  0
 22 21  1  6
 22 23  1  0
 23 15  1  0
 24 22  1  0
 25 24  1  0
 26 24  2  0
M  END
$$$$
