TQQ.pdb
     RDKit          3D

 26 25  0  0  1  0  0  0  0  0999 V2000
   26.5415  -10.2326  -14.8663 C   0  0  0  0  0  0  0  0  0  0  0  0
   27.0919  -10.2123  -16.2568 C   0  0  1  0  0  0  0  0  0  0  0  0
   28.4019  -10.6711  -16.2597 O   0  0  0  0  0  0  0  0  0  0  0  0
   26.2192  -11.0626  -17.1787 C   0  0  2  0  0  0  0  0  0  0  0  0
   26.8163  -11.2060  -18.4716 N   0  0  0  0  0  0  0  0  0  0  0  0
   24.8478  -10.4343  -17.2815 C   0  0  0  0  0  0  0  0  0  0  0  0
   24.7169   -9.5150  -18.1225 O   0  0  0  0  0  0  0  0  0  0  0  0
   19.2725  -13.3770  -15.9048 N   0  0  0  0  0  0  0  0  0  0  0  0
   19.2781  -12.1024  -15.2669 C   0  0  0  0  0  0  0  0  0  0  0  0
   18.5829  -11.9898  -14.2249 O   0  0  0  0  0  0  0  0  0  0  0  0
   20.0848  -10.9612  -15.8318 C   0  0  0  0  0  0  0  0  0  0  0  0
   21.4927  -11.4188  -15.8863 C   0  0  0  0  0  0  0  0  0  0  0  0
   22.4943  -10.4283  -16.4095 C   0  0  2  0  0  0  0  0  0  0  0  0
   23.8380  -10.9293  -16.4310 N   0  0  0  0  0  0  0  0  0  0  0  0
   22.4129   -9.2013  -15.5905 C   0  0  0  0  0  0  0  0  0  0  0  0
   23.1352   -9.0656  -14.5381 O   0  0  0  0  0  0  0  0  0  0  0  0
   24.2094   -3.9351  -16.8399 N   0  0  0  0  0  0  0  0  0  0  0  0
   23.5189   -3.6195  -15.6376 C   0  0  0  0  0  0  0  0  0  0  0  0
   23.7044   -2.4717  -15.1029 O   0  0  0  0  0  0  0  0  0  0  0  0
   22.5936   -4.5781  -15.0014 C   0  0  0  0  0  0  0  0  0  0  0  0
   22.4572   -5.8929  -15.6773 C   0  0  0  0  0  0  0  0  0  0  0  0
   21.5499   -6.8931  -15.0712 C   0  0  2  0  0  0  0  0  0  0  0  0
   21.5574   -8.1202  -15.8995 N   0  0  0  0  0  0  0  0  0  0  0  0
   20.1906   -6.4303  -14.8335 C   0  0  0  0  0  0  0  0  0  0  0  0
   19.7746   -5.7192  -13.6885 O   0  0  0  0  0  0  0  0  0  0  0  0
   19.2350   -6.6408  -15.6517 O   0  0  0  0  0  0  0  0  0  0  0  0
  2  1  1  1
  2  3  1  0
  4  5  1  6
  4  2  1  0
  6  4  1  0
  7  6  2  0
  9  8  1  0
  9 11  1  0
 10  9  2  0
 12 11  1  0
 13 12  1  1
 13 14  1  0
 14  6  1  0
 15 13  1  0
 15 16  2  0
 17 18  1  0
 18 19  2  0
 20 21  1  0
 20 18  1  0
 22 21  1  6
 22 23  1  0
 23 15  1  0
 24 22  1  0
 25 24  1  0
 26 24  2  0
M  END
$$$$
