MWW.pdb
     RDKit          3D

 37 40  0  0  1  0  0  0  0  0999 V2000
   21.7094  -19.9912  -20.2668 C   0  0  0  0  0  0  0  0  0  0  0  0
   22.3147  -20.7690  -18.7451 S   0  0  0  0  0  0  0  0  0  0  0  0
   24.1335  -20.8196  -18.7559 C   0  0  0  0  0  0  0  0  0  0  0  0
   24.6152  -21.4729  -17.4687 C   0  0  0  0  0  0  0  0  0  0  0  0
   24.7350  -20.3870  -16.4337 C   0  0  2  0  0  0  0  0  0  0  0  0
   25.3647  -19.2091  -16.9409 N   0  0  0  0  0  0  0  0  0  0  0  0
   25.3867  -20.8850  -15.1832 C   0  0  0  0  0  0  0  0  0  0  0  0
   25.1710  -22.0375  -14.7505 O   0  0  0  0  0  0  0  0  0  0  0  0
   26.2797  -20.0803  -14.4261 N   0  0  0  0  0  0  0  0  0  0  0  0
   26.8994  -20.5229  -13.1782 C   0  0  1  0  0  0  0  0  0  0  0  0
   28.1009  -19.6181  -13.0035 C   0  0  0  0  0  0  0  0  0  0  0  0
   29.0501  -20.1996  -12.0204 C   0  0  0  0  0  0  0  0  0  0  0  0
   30.0252  -21.1384  -12.2764 C   0  0  0  0  0  0  0  0  0  0  0  0
   30.6859  -21.4247  -11.1387 N   0  0  0  0  0  0  0  0  0  0  0  0
   30.1598  -20.6854  -10.1281 C   0  0  0  0  0  0  0  0  0  0  0  0
   30.4694  -20.6039   -8.7878 C   0  0  0  0  0  0  0  0  0  0  0  0
   29.7628  -19.7571   -7.9804 C   0  0  0  0  0  0  0  0  0  0  0  0
   28.7448  -18.9903   -8.5124 C   0  0  0  0  0  0  0  0  0  0  0  0
   28.4210  -19.0583   -9.8494 C   0  0  0  0  0  0  0  0  0  0  0  0
   29.1451  -19.9211  -10.6592 C   0  0  0  0  0  0  0  0  0  0  0  0
   26.0005  -20.5761  -12.0500 C   0  0  0  0  0  0  0  0  0  0  0  0
   25.0169  -19.7962  -11.9604 O   0  0  0  0  0  0  0  0  0  0  0  0
   26.2042  -21.5110  -11.0123 N   0  0  0  0  0  0  0  0  0  0  0  0
   25.3447  -21.4601   -9.8117 C   0  0  1  0  0  0  0  0  0  0  0  0
   26.1479  -22.1010   -8.7139 C   0  0  0  0  0  0  0  0  0  0  0  0
   25.8787  -21.6169   -7.3499 C   0  0  0  0  0  0  0  0  0  0  0  0
   24.6402  -21.5112   -6.7120 C   0  0  0  0  0  0  0  0  0  0  0  0
   24.8331  -20.9963   -5.4924 N   0  0  0  0  0  0  0  0  0  0  0  0
   26.1350  -20.7540   -5.2831 C   0  0  0  0  0  0  0  0  0  0  0  0
   26.8512  -20.2508   -4.2114 C   0  0  0  0  0  0  0  0  0  0  0  0
   28.2134  -20.1485   -4.3272 C   0  0  0  0  0  0  0  0  0  0  0  0
   28.8920  -20.5249   -5.4618 C   0  0  0  0  0  0  0  0  0  0  0  0
   28.1791  -21.0226   -6.5226 C   0  0  0  0  0  0  0  0  0  0  0  0
   26.8092  -21.1397   -6.4443 C   0  0  0  0  0  0  0  0  0  0  0  0
   24.8458  -20.1220   -9.5636 C   0  0  0  0  0  0  0  0  0  0  0  0
   25.5784  -19.1004   -9.7937 O   0  0  0  0  0  0  0  0  0  0  0  0
   23.5814  -19.8494   -9.0807 O   0  0  0  0  0  0  0  0  0  0  0  0
  1  2  1  0
  3  2  1  0
  4  3  1  0
  5  4  1  0
  5  6  1  6
  7  5  1  0
  8  7  2  0
  9  7  1  0
 10 21  1  0
 10  9  1  0
 10 11  1  1
 12 13  2  0
 12 11  1  0
 14 13  1  0
 15 20  2  0
 15 14  1  0
 16 15  1  0
 17 18  1  0
 17 16  2  0
 18 19  2  0
 19 20  1  0
 20 12  1  0
 21 22  2  0
 23 24  1  0
 23 21  1  0
 24 25  1  1
 25 26  1  0
 26 27  2  0
 27 28  1  0
 29 30  2  0
 29 28  1  0
 31 30  1  0
 32 31  2  0
 33 32  1  0
 33 34  2  0
 34 26  1  0
 34 29  1  0
 35 37  1  0
 35 24  1  0
 36 35  2  0
M  END
$$$$
