MWW.pdb
     RDKit          3D

 37 40  0  0  1  0  0  0  0  0999 V2000
   31.8422  -25.0565  -15.0196 C   0  0  0  0  0  0  0  0  0  0  0  0
   31.0324  -25.3774  -16.6096 S   0  0  0  0  0  0  0  0  0  0  0  0
   31.5108  -24.1033  -17.8172 C   0  0  0  0  0  0  0  0  0  0  0  0
   30.9075  -22.7721  -17.3929 C   0  0  0  0  0  0  0  0  0  0  0  0
   29.4460  -22.8094  -17.7498 C   0  0  2  0  0  0  0  0  0  0  0  0
   29.2120  -22.5781  -19.1400 N   0  0  0  0  0  0  0  0  0  0  0  0
   28.6413  -21.8974  -16.8796 C   0  0  0  0  0  0  0  0  0  0  0  0
   29.1310  -20.8506  -16.4040 O   0  0  0  0  0  0  0  0  0  0  0  0
   27.2868  -22.1706  -16.5498 N   0  0  0  0  0  0  0  0  0  0  0  0
   26.4839  -21.3161  -15.6767 C   0  0  1  0  0  0  0  0  0  0  0  0
   25.1161  -21.2806  -16.3253 C   0  0  0  0  0  0  0  0  0  0  0  0
   24.2229  -20.3400  -15.6021 C   0  0  0  0  0  0  0  0  0  0  0  0
   24.4747  -19.0131  -15.3305 C   0  0  0  0  0  0  0  0  0  0  0  0
   23.4359  -18.4857  -14.6554 N   0  0  0  0  0  0  0  0  0  0  0  0
   22.4954  -19.4488  -14.4753 C   0  0  0  0  0  0  0  0  0  0  0  0
   21.2640  -19.4305  -13.8570 C   0  0  0  0  0  0  0  0  0  0  0  0
   20.5079  -20.5686  -13.8214 C   0  0  0  0  0  0  0  0  0  0  0  0
   20.9823  -21.7272  -14.4042 C   0  0  0  0  0  0  0  0  0  0  0  0
   22.2104  -21.7647  -15.0266 C   0  0  0  0  0  0  0  0  0  0  0  0
   22.9690  -20.6036  -15.0567 C   0  0  0  0  0  0  0  0  0  0  0  0
   26.4953  -21.7032  -14.2861 C   0  0  0  0  0  0  0  0  0  0  0  0
   26.3011  -22.8968  -13.9381 O   0  0  0  0  0  0  0  0  0  0  0  0
   26.7262  -20.7453  -13.2754 N   0  0  0  0  0  0  0  0  0  0  0  0
   26.4416  -21.0933  -11.8681 C   0  0  1  0  0  0  0  0  0  0  0  0
   27.3551  -20.2268  -11.0461 C   0  0  0  0  0  0  0  0  0  0  0  0
   27.0560  -20.1566   -9.6064 C   0  0  0  0  0  0  0  0  0  0  0  0
   25.8335  -19.8491   -9.0038 C   0  0  0  0  0  0  0  0  0  0  0  0
   25.9989  -19.8625   -7.6763 N   0  0  0  0  0  0  0  0  0  0  0  0
   27.2670  -20.1636   -7.3619 C   0  0  0  0  0  0  0  0  0  0  0  0
   27.9415  -20.3177   -6.1637 C   0  0  0  0  0  0  0  0  0  0  0  0
   29.2696  -20.6559   -6.2012 C   0  0  0  0  0  0  0  0  0  0  0  0
   29.9536  -20.8468   -7.3782 C   0  0  0  0  0  0  0  0  0  0  0  0
   29.2823  -20.6925   -8.5643 C   0  0  0  0  0  0  0  0  0  0  0  0
   27.9478  -20.3524   -8.5671 C   0  0  0  0  0  0  0  0  0  0  0  0
   25.0247  -21.0187  -11.5715 C   0  0  0  0  0  0  0  0  0  0  0  0
   24.3407  -19.9943  -11.9126 O   0  0  0  0  0  0  0  0  0  0  0  0
   24.3205  -22.0142  -10.9240 O   0  0  0  0  0  0  0  0  0  0  0  0
  1  2  1  0
  3  2  1  0
  4  3  1  0
  5  4  1  0
  5  6  1  6
  7  5  1  0
  8  7  2  0
  9  7  1  0
 10 21  1  0
 10  9  1  0
 10 11  1  6
 12 13  2  0
 12 11  1  0
 14 13  1  0
 15 20  2  0
 15 14  1  0
 16 15  1  0
 17 18  1  0
 17 16  2  0
 18 19  2  0
 19 20  1  0
 20 12  1  0
 21 22  2  0
 23 24  1  0
 23 21  1  0
 24 25  1  1
 25 26  1  0
 26 27  2  0
 27 28  1  0
 29 30  2  0
 29 28  1  0
 31 30  1  0
 32 31  2  0
 33 32  1  0
 33 34  2  0
 34 26  1  0
 34 29  1  0
 35 37  1  0
 35 24  1  0
 36 35  2  0
M  END
$$$$
