MWW.pdb
     RDKit          3D

 37 40  0  0  1  0  0  0  0  0999 V2000
   27.0830  -20.1670  -19.0752 C   0  0  0  0  0  0  0  0  0  0  0  0
   27.9535  -18.8636  -18.1641 S   0  0  0  0  0  0  0  0  0  0  0  0
   28.8910  -19.5915  -16.7850 C   0  0  0  0  0  0  0  0  0  0  0  0
   27.9301  -19.9020  -15.6465 C   0  0  0  0  0  0  0  0  0  0  0  0
   28.3355  -21.2314  -15.0693 C   0  0  2  0  0  0  0  0  0  0  0  0
   28.3459  -22.2756  -16.0443 N   0  0  0  0  0  0  0  0  0  0  0  0
   27.5174  -21.5848  -13.8683 C   0  0  0  0  0  0  0  0  0  0  0  0
   26.4256  -22.1831  -13.9766 O   0  0  0  0  0  0  0  0  0  0  0  0
   27.9352  -21.2616  -12.5495 N   0  0  0  0  0  0  0  0  0  0  0  0
   27.0865  -21.4354  -11.3720 C   0  0  1  0  0  0  0  0  0  0  0  0
   28.0371  -21.3489  -10.1966 C   0  0  0  0  0  0  0  0  0  0  0  0
   27.3150  -20.9067   -8.9764 C   0  0  0  0  0  0  0  0  0  0  0  0
   25.9511  -20.9094   -8.7829 C   0  0  0  0  0  0  0  0  0  0  0  0
   25.6686  -20.4353   -7.5547 N   0  0  0  0  0  0  0  0  0  0  0  0
   26.8314  -20.1172   -6.9292 C   0  0  0  0  0  0  0  0  0  0  0  0
   27.0942  -19.6024   -5.6783 C   0  0  0  0  0  0  0  0  0  0  0  0
   28.3872  -19.3750   -5.2982 C   0  0  0  0  0  0  0  0  0  0  0  0
   29.4200  -19.6622   -6.1690 C   0  0  0  0  0  0  0  0  0  0  0  0
   29.1768  -20.1772   -7.4231 C   0  0  0  0  0  0  0  0  0  0  0  0
   27.8605  -20.4039   -7.7979 C   0  0  0  0  0  0  0  0  0  0  0  0
   25.9540  -20.5422  -11.3140 C   0  0  0  0  0  0  0  0  0  0  0  0
   26.1053  -19.2929  -11.3252 O   0  0  0  0  0  0  0  0  0  0  0  0
   24.6396  -21.0520  -11.2430 N   0  0  0  0  0  0  0  0  0  0  0  0
   23.5542  -20.3617  -11.9697 C   0  0  1  0  0  0  0  0  0  0  0  0
   24.1402  -19.9792  -13.3006 C   0  0  0  0  0  0  0  0  0  0  0  0
   23.2318  -19.2909  -14.2324 C   0  0  0  0  0  0  0  0  0  0  0  0
   22.5470  -18.0909  -14.0249 C   0  0  0  0  0  0  0  0  0  0  0  0
   21.8044  -17.8328  -15.1074 N   0  0  0  0  0  0  0  0  0  0  0  0
   21.9587  -18.7970  -16.0261 C   0  0  0  0  0  0  0  0  0  0  0  0
   21.4415  -18.9980  -17.2936 C   0  0  0  0  0  0  0  0  0  0  0  0
   21.8332  -20.1128  -17.9891 C   0  0  0  0  0  0  0  0  0  0  0  0
   22.7158  -21.0342  -17.4777 C   0  0  0  0  0  0  0  0  0  0  0  0
   23.2261  -20.8324  -16.2206 C   0  0  0  0  0  0  0  0  0  0  0  0
   22.8557  -19.7247  -15.4909 C   0  0  0  0  0  0  0  0  0  0  0  0
   22.3364  -21.1478  -11.9911 C   0  0  0  0  0  0  0  0  0  0  0  0
   21.1998  -20.5843  -12.1460 O   0  0  0  0  0  0  0  0  0  0  0  0
   22.3048  -22.5214  -11.8562 O   0  0  0  0  0  0  0  0  0  0  0  0
  1  2  1  0
  3  2  1  0
  4  3  1  0
  5  4  1  0
  5  6  1  6
  7  5  1  0
  8  7  2  0
  9  7  1  0
 10 21  1  0
 10  9  1  0
 10 11  1  1
 12 13  2  0
 12 11  1  0
 14 13  1  0
 15 20  2  0
 15 14  1  0
 16 15  1  0
 17 18  1  0
 17 16  2  0
 18 19  2  0
 19 20  1  0
 20 12  1  0
 21 22  2  0
 23 24  1  0
 23 21  1  0
 24 25  1  6
 25 26  1  0
 26 27  2  0
 27 28  1  0
 29 30  2  0
 29 28  1  0
 31 30  1  0
 32 31  2  0
 33 32  1  0
 33 34  2  0
 34 26  1  0
 34 29  1  0
 35 37  1  0
 35 24  1  0
 36 35  2  0
M  END
$$$$
