MWW.pdb
     RDKit          3D

 37 40  0  0  1  0  0  0  0  0999 V2000
   32.6475  -24.6676  -19.7436 C   0  0  0  0  0  0  0  0  0  0  0  0
   31.5716  -23.6225  -18.7253 S   0  0  0  0  0  0  0  0  0  0  0  0
   30.8415  -22.3047  -19.7456 C   0  0  0  0  0  0  0  0  0  0  0  0
   30.0396  -21.3741  -18.8473 C   0  0  0  0  0  0  0  0  0  0  0  0
   29.1769  -22.2368  -17.9662 C   0  0  2  0  0  0  0  0  0  0  0  0
   28.1267  -22.8841  -18.6867 N   0  0  0  0  0  0  0  0  0  0  0  0
   28.6690  -21.4810  -16.7798 C   0  0  0  0  0  0  0  0  0  0  0  0
   29.4371  -20.8117  -16.0560 O   0  0  0  0  0  0  0  0  0  0  0  0
   27.2960  -21.4835  -16.4153 N   0  0  0  0  0  0  0  0  0  0  0  0
   26.7565  -20.6949  -15.3089 C   0  0  1  0  0  0  0  0  0  0  0  0
   25.6462  -19.8726  -15.9283 C   0  0  0  0  0  0  0  0  0  0  0  0
   26.2084  -18.8460  -16.8424 C   0  0  0  0  0  0  0  0  0  0  0  0
   26.2528  -18.9071  -18.2179 C   0  0  0  0  0  0  0  0  0  0  0  0
   26.8376  -17.7944  -18.7004 N   0  0  0  0  0  0  0  0  0  0  0  0
   27.1829  -16.9936  -17.6592 C   0  0  0  0  0  0  0  0  0  0  0  0
   27.7982  -15.7616  -17.6084 C   0  0  0  0  0  0  0  0  0  0  0  0
   28.0288  -15.1700  -16.3981 C   0  0  0  0  0  0  0  0  0  0  0  0
   27.6444  -15.8097  -15.2361 C   0  0  0  0  0  0  0  0  0  0  0  0
   27.0282  -17.0411  -15.2671 C   0  0  0  0  0  0  0  0  0  0  0  0
   26.7991  -17.6320  -16.5011 C   0  0  0  0  0  0  0  0  0  0  0  0
   26.3759  -21.4697  -14.1520 C   0  0  0  0  0  0  0  0  0  0  0  0
   25.7533  -22.5570  -14.2692 O   0  0  0  0  0  0  0  0  0  0  0  0
   26.6954  -21.0235  -12.8514 N   0  0  0  0  0  0  0  0  0  0  0  0
   26.2045  -21.7834  -11.6834 C   0  0  1  0  0  0  0  0  0  0  0  0
   27.2852  -21.6674  -10.6443 C   0  0  0  0  0  0  0  0  0  0  0  0
   26.9221  -20.9476   -9.4126 C   0  0  0  0  0  0  0  0  0  0  0  0
   25.6779  -20.4084   -9.0758 C   0  0  0  0  0  0  0  0  0  0  0  0
   25.7826  -19.8104   -7.8836 N   0  0  0  0  0  0  0  0  0  0  0  0
   27.0309  -19.9232   -7.4073 C   0  0  0  0  0  0  0  0  0  0  0  0
   27.6482  -19.5052   -6.2416 C   0  0  0  0  0  0  0  0  0  0  0  0
   28.9717  -19.8118   -6.0579 C   0  0  0  0  0  0  0  0  0  0  0  0
   29.7057  -20.5153   -6.9832 C   0  0  0  0  0  0  0  0  0  0  0  0
   29.0911  -20.9275   -8.1380 C   0  0  0  0  0  0  0  0  0  0  0  0
   27.7630  -20.6377   -8.3587 C   0  0  0  0  0  0  0  0  0  0  0  0
   24.8719  -21.3679  -11.2927 C   0  0  0  0  0  0  0  0  0  0  0  0
   24.4242  -20.2179  -11.6251 O   0  0  0  0  0  0  0  0  0  0  0  0
   24.0048  -22.1537  -10.5599 O   0  0  0  0  0  0  0  0  0  0  0  0
  1  2  1  0
  3  2  1  0
  4  3  1  0
  5  4  1  0
  5  6  1  6
  7  5  1  0
  8  7  2  0
  9  7  1  0
 10 21  1  0
 10  9  1  0
 10 11  1  6
 12 13  2  0
 12 11  1  0
 14 13  1  0
 15 20  2  0
 15 14  1  0
 16 15  1  0
 17 18  1  0
 17 16  2  0
 18 19  2  0
 19 20  1  0
 20 12  1  0
 21 22  2  0
 23 24  1  0
 23 21  1  0
 24 25  1  1
 25 26  1  0
 26 27  2  0
 27 28  1  0
 29 30  2  0
 29 28  1  0
 31 30  1  0
 32 31  2  0
 33 32  1  0
 33 34  2  0
 34 26  1  0
 34 29  1  0
 35 37  1  0
 35 24  1  0
 36 35  2  0
M  END
$$$$
