MWW.pdb
     RDKit          3D

 37 40  0  0  1  0  0  0  0  0999 V2000
   32.7325  -23.8234  -18.4765 C   0  0  0  0  0  0  0  0  0  0  0  0
   31.4621  -25.1165  -18.5038 S   0  0  0  0  0  0  0  0  0  0  0  0
   30.0139  -24.5429  -19.4440 C   0  0  0  0  0  0  0  0  0  0  0  0
   29.4803  -23.2721  -18.7988 C   0  0  0  0  0  0  0  0  0  0  0  0
   28.6724  -23.6854  -17.5982 C   0  0  2  0  0  0  0  0  0  0  0  0
   27.5224  -24.4579  -17.9470 N   0  0  0  0  0  0  0  0  0  0  0  0
   28.3285  -22.5143  -16.7340 C   0  0  0  0  0  0  0  0  0  0  0  0
   29.1911  -21.6723  -16.4041 O   0  0  0  0  0  0  0  0  0  0  0  0
   27.0121  -22.2982  -16.2456 N   0  0  0  0  0  0  0  0  0  0  0  0
   26.6435  -21.1613  -15.4038 C   0  0  1  0  0  0  0  0  0  0  0  0
   25.6292  -20.3900  -16.2217 C   0  0  0  0  0  0  0  0  0  0  0  0
   25.4529  -19.0211  -15.6732 C   0  0  0  0  0  0  0  0  0  0  0  0
   24.3339  -18.5286  -15.0384 C   0  0  0  0  0  0  0  0  0  0  0  0
   24.5438  -17.2468  -14.6834 N   0  0  0  0  0  0  0  0  0  0  0  0
   25.7917  -16.8818  -15.0760 C   0  0  0  0  0  0  0  0  0  0  0  0
   26.4863  -15.6977  -14.9558 C   0  0  0  0  0  0  0  0  0  0  0  0
   27.7567  -15.6053  -15.4515 C   0  0  0  0  0  0  0  0  0  0  0  0
   28.3347  -16.6973  -16.0684 C   0  0  0  0  0  0  0  0  0  0  0  0
   27.6561  -17.8889  -16.1978 C   0  0  0  0  0  0  0  0  0  0  0  0
   26.3673  -17.9711  -15.6909 C   0  0  0  0  0  0  0  0  0  0  0  0
   26.2166  -21.5172  -14.0716 C   0  0  0  0  0  0  0  0  0  0  0  0
   25.3381  -22.3975  -13.8798 O   0  0  0  0  0  0  0  0  0  0  0  0
   26.7784  -20.8818  -12.9432 N   0  0  0  0  0  0  0  0  0  0  0  0
   26.2295  -21.1684  -11.6018 C   0  0  1  0  0  0  0  0  0  0  0  0
   27.2206  -20.5911  -10.6293 C   0  0  0  0  0  0  0  0  0  0  0  0
   26.8161  -20.5990   -9.2139 C   0  0  0  0  0  0  0  0  0  0  0  0
   25.5650  -20.9293   -8.6868 C   0  0  0  0  0  0  0  0  0  0  0  0
   25.6098  -20.7764   -7.3585 N   0  0  0  0  0  0  0  0  0  0  0  0
   26.8250  -20.3623   -6.9720 C   0  0  0  0  0  0  0  0  0  0  0  0
   27.3878  -20.0753   -5.7410 C   0  0  0  0  0  0  0  0  0  0  0  0
   28.7008  -19.6831   -5.6991 C   0  0  0  0  0  0  0  0  0  0  0  0
   29.4760  -19.5646   -6.8281 C   0  0  0  0  0  0  0  0  0  0  0  0
   28.9150  -19.8491   -8.0469 C   0  0  0  0  0  0  0  0  0  0  0  0
   27.5986  -20.2453   -8.1293 C   0  0  0  0  0  0  0  0  0  0  0  0
   24.8548  -20.7260  -11.4772 C   0  0  0  0  0  0  0  0  0  0  0  0
   24.5029  -19.5686  -11.8897 O   0  0  0  0  0  0  0  0  0  0  0  0
   23.8466  -21.4925  -10.9275 O   0  0  0  0  0  0  0  0  0  0  0  0
  1  2  1  0
  3  2  1  0
  4  3  1  0
  5  4  1  0
  5  6  1  6
  7  5  1  0
  8  7  2  0
  9  7  1  0
 10 21  1  0
 10  9  1  0
 10 11  1  6
 12 13  2  0
 12 11  1  0
 14 13  1  0
 15 20  2  0
 15 14  1  0
 16 15  1  0
 17 18  1  0
 17 16  2  0
 18 19  2  0
 19 20  1  0
 20 12  1  0
 21 22  2  0
 23 24  1  0
 23 21  1  0
 24 25  1  1
 25 26  1  0
 26 27  2  0
 27 28  1  0
 29 30  2  0
 29 28  1  0
 31 30  1  0
 32 31  2  0
 33 32  1  0
 33 34  2  0
 34 26  1  0
 34 29  1  0
 35 37  1  0
 35 24  1  0
 36 35  2  0
M  END
$$$$
