MWW.pdb
     RDKit          3D

 37 40  0  0  1  0  0  0  0  0999 V2000
   29.2845  -14.9354  -16.6742 C   0  0  0  0  0  0  0  0  0  0  0  0
   29.3371  -16.3809  -17.7672 S   0  0  0  0  0  0  0  0  0  0  0  0
   27.6818  -17.1266  -17.8889 C   0  0  0  0  0  0  0  0  0  0  0  0
   27.0686  -17.1929  -16.4977 C   0  0  0  0  0  0  0  0  0  0  0  0
   27.7121  -18.3486  -15.7800 C   0  0  2  0  0  0  0  0  0  0  0  0
   27.8491  -19.5045  -16.6083 N   0  0  0  0  0  0  0  0  0  0  0  0
   27.0184  -18.6536  -14.4906 C   0  0  0  0  0  0  0  0  0  0  0  0
   26.6975  -17.7466  -13.6929 O   0  0  0  0  0  0  0  0  0  0  0  0
   26.6894  -19.9812  -14.1069 N   0  0  0  0  0  0  0  0  0  0  0  0
   25.9232  -20.3040  -12.9045 C   0  0  1  0  0  0  0  0  0  0  0  0
   24.7328  -21.0931  -13.4073 C   0  0  0  0  0  0  0  0  0  0  0  0
   23.6402  -20.1768  -13.8223 C   0  0  0  0  0  0  0  0  0  0  0  0
   23.4584  -19.6290  -15.0731 C   0  0  0  0  0  0  0  0  0  0  0  0
   22.3623  -18.8469  -15.0683 N   0  0  0  0  0  0  0  0  0  0  0  0
   21.8131  -18.8692  -13.8263 C   0  0  0  0  0  0  0  0  0  0  0  0
   20.7005  -18.2501  -13.2993 C   0  0  0  0  0  0  0  0  0  0  0  0
   20.3708  -18.4527  -11.9884 C   0  0  0  0  0  0  0  0  0  0  0  0
   21.1536  -19.2750  -11.2022 C   0  0  0  0  0  0  0  0  0  0  0  0
   22.2692  -19.9021  -11.7113 C   0  0  0  0  0  0  0  0  0  0  0  0
   22.5941  -19.6892  -13.0431 C   0  0  0  0  0  0  0  0  0  0  0  0
   26.6888  -20.9437  -11.8612 C   0  0  0  0  0  0  0  0  0  0  0  0
   27.4255  -21.9344  -12.1047 O   0  0  0  0  0  0  0  0  0  0  0  0
   26.6293  -20.4700  -10.5328 N   0  0  0  0  0  0  0  0  0  0  0  0
   26.8091  -21.4200   -9.4158 C   0  0  1  0  0  0  0  0  0  0  0  0
   28.1416  -21.0794   -8.8079 C   0  0  0  0  0  0  0  0  0  0  0  0
   28.1275  -20.0483   -7.7573 C   0  0  0  0  0  0  0  0  0  0  0  0
   27.4940  -18.8035   -7.7933 C   0  0  0  0  0  0  0  0  0  0  0  0
   27.7556  -18.1604   -6.6498 N   0  0  0  0  0  0  0  0  0  0  0  0
   28.5295  -18.9110   -5.8528 C   0  0  0  0  0  0  0  0  0  0  0  0
   29.0602  -18.7250   -4.5885 C   0  0  0  0  0  0  0  0  0  0  0  0
   29.8145  -19.7313   -4.0428 C   0  0  0  0  0  0  0  0  0  0  0  0
   30.0628  -20.9126   -4.7004 C   0  0  0  0  0  0  0  0  0  0  0  0
   29.5359  -21.0937   -5.9537 C   0  0  0  0  0  0  0  0  0  0  0  0
   28.7736  -20.1052   -6.5354 C   0  0  0  0  0  0  0  0  0  0  0  0
   25.6650  -21.4268   -8.5258 C   0  0  0  0  0  0  0  0  0  0  0  0
   24.6419  -20.7022   -8.7743 O   0  0  0  0  0  0  0  0  0  0  0  0
   25.5859  -22.1930   -7.3800 O   0  0  0  0  0  0  0  0  0  0  0  0
  1  2  1  0
  3  2  1  0
  4  3  1  0
  5  4  1  0
  5  6  1  6
  7  5  1  0
  8  7  2  0
  9  7  1  0
 10 21  1  0
 10  9  1  0
 10 11  1  6
 12 13  2  0
 12 11  1  0
 14 13  1  0
 15 20  2  0
 15 14  1  0
 16 15  1  0
 17 18  1  0
 17 16  2  0
 18 19  2  0
 19 20  1  0
 20 12  1  0
 21 22  2  0
 23 24  1  0
 23 21  1  0
 24 25  1  1
 25 26  1  0
 26 27  2  0
 27 28  1  0
 29 30  2  0
 29 28  1  0
 31 30  1  0
 32 31  2  0
 33 32  1  0
 33 34  2  0
 34 26  1  0
 34 29  1  0
 35 37  1  0
 35 24  1  0
 36 35  2  0
M  END
$$$$
