MWW.pdb
     RDKit          3D

 37 40  0  0  1  0  0  0  0  0999 V2000
   29.6375  -16.7120  -18.0090 C   0  0  0  0  0  0  0  0  0  0  0  0
   28.3971  -17.3935  -16.8759 S   0  0  0  0  0  0  0  0  0  0  0  0
   28.9398  -19.0206  -16.2687 C   0  0  0  0  0  0  0  0  0  0  0  0
   27.9354  -19.5224  -15.2414 C   0  0  0  0  0  0  0  0  0  0  0  0
   28.4683  -20.8176  -14.6906 C   0  0  2  0  0  0  0  0  0  0  0  0
   28.5775  -21.8365  -15.6860 N   0  0  0  0  0  0  0  0  0  0  0  0
   27.6905  -21.2718  -13.4967 C   0  0  0  0  0  0  0  0  0  0  0  0
   26.6439  -21.9440  -13.6180 O   0  0  0  0  0  0  0  0  0  0  0  0
   28.0974  -20.9658  -12.1705 N   0  0  0  0  0  0  0  0  0  0  0  0
   27.2578  -21.2018  -10.9973 C   0  0  1  0  0  0  0  0  0  0  0  0
   28.1567  -20.9062   -9.8152 C   0  0  0  0  0  0  0  0  0  0  0  0
   27.3484  -20.7058   -8.5856 C   0  0  0  0  0  0  0  0  0  0  0  0
   26.0145  -21.0082   -8.4213 C   0  0  0  0  0  0  0  0  0  0  0  0
   25.6289  -20.6847   -7.1724 N   0  0  0  0  0  0  0  0  0  0  0  0
   26.6934  -20.1699   -6.5042 C   0  0  0  0  0  0  0  0  0  0  0  0
   26.8320  -19.6933   -5.2187 C   0  0  0  0  0  0  0  0  0  0  0  0
   28.0448  -19.2238   -4.7983 C   0  0  0  0  0  0  0  0  0  0  0  0
   29.1215  -19.2302   -5.6632 C   0  0  0  0  0  0  0  0  0  0  0  0
   29.0021  -19.7026   -6.9515 C   0  0  0  0  0  0  0  0  0  0  0  0
   27.7664  -20.1767   -7.3671 C   0  0  0  0  0  0  0  0  0  0  0  0
   26.0019  -20.4903  -11.0078 C   0  0  0  0  0  0  0  0  0  0  0  0
   25.9604  -19.2357  -10.9191 O   0  0  0  0  0  0  0  0  0  0  0  0
   24.7807  -21.1896  -11.1189 N   0  0  0  0  0  0  0  0  0  0  0  0
   23.5661  -20.4642  -11.5447 C   0  0  1  0  0  0  0  0  0  0  0  0
   23.9427  -19.7617  -12.8198 C   0  0  0  0  0  0  0  0  0  0  0  0
   22.8354  -19.1454  -13.5688 C   0  0  0  0  0  0  0  0  0  0  0  0
   21.9934  -18.1124  -13.1493 C   0  0  0  0  0  0  0  0  0  0  0  0
   21.1012  -17.8720  -14.1167 N   0  0  0  0  0  0  0  0  0  0  0  0
   21.3044  -18.6897  -15.1596 C   0  0  0  0  0  0  0  0  0  0  0  0
   20.6864  -18.8395  -16.3886 C   0  0  0  0  0  0  0  0  0  0  0  0
   21.1720  -19.7873  -17.2520 C   0  0  0  0  0  0  0  0  0  0  0  0
   22.2442  -20.5909  -16.9450 C   0  0  0  0  0  0  0  0  0  0  0  0
   22.8540  -20.4405  -15.7257 C   0  0  0  0  0  0  0  0  0  0  0  0
   22.3944  -19.4995  -14.8313 C   0  0  0  0  0  0  0  0  0  0  0  0
   22.4085  -21.3352  -11.5933 C   0  0  0  0  0  0  0  0  0  0  0  0
   21.2477  -20.8936  -11.2921 O   0  0  0  0  0  0  0  0  0  0  0  0
   22.4611  -22.6650  -11.9608 O   0  0  0  0  0  0  0  0  0  0  0  0
  1  2  1  0
  3  2  1  0
  4  3  1  0
  5  4  1  0
  5  6  1  6
  7  5  1  0
  8  7  2  0
  9  7  1  0
 10 21  1  0
 10  9  1  0
 10 11  1  1
 12 13  2  0
 12 11  1  0
 14 13  1  0
 15 20  2  0
 15 14  1  0
 16 15  1  0
 17 18  1  0
 17 16  2  0
 18 19  2  0
 19 20  1  0
 20 12  1  0
 21 22  2  0
 23 24  1  0
 23 21  1  0
 24 25  1  6
 25 26  1  0
 26 27  2  0
 27 28  1  0
 29 30  2  0
 29 28  1  0
 31 30  1  0
 32 31  2  0
 33 32  1  0
 33 34  2  0
 34 26  1  0
 34 29  1  0
 35 37  1  0
 35 24  1  0
 36 35  2  0
M  END
$$$$
