MWW.pdb
     RDKit          3D

 37 40  0  0  1  0  0  0  0  0999 V2000
   19.9972  -23.4198    3.6507 C   0  0  0  0  0  0  0  0  0  0  0  0
   18.2663  -23.7331    3.2120 S   0  0  0  0  0  0  0  0  0  0  0  0
   17.7098  -22.5175    1.9778 C   0  0  0  0  0  0  0  0  0  0  0  0
   17.6314  -21.1480    2.6367 C   0  0  0  0  0  0  0  0  0  0  0  0
   16.2005  -20.9316    3.0496 C   0  0  2  0  0  0  0  0  0  0  0  0
   15.3029  -20.9128    1.9383 N   0  0  0  0  0  0  0  0  0  0  0  0
   16.0529  -19.7235    3.9187 C   0  0  0  0  0  0  0  0  0  0  0  0
   16.1069  -18.5687    3.4439 O   0  0  0  0  0  0  0  0  0  0  0  0
   15.8446  -19.8236    5.3203 N   0  0  0  0  0  0  0  0  0  0  0  0
   15.6975  -18.6624    6.1962 C   0  0  1  0  0  0  0  0  0  0  0  0
   14.7366  -19.1143    7.2757 C   0  0  0  0  0  0  0  0  0  0  0  0
   13.3319  -18.9406    6.8263 C   0  0  0  0  0  0  0  0  0  0  0  0
   12.9135  -18.4185    5.6221 C   0  0  0  0  0  0  0  0  0  0  0  0
   11.5678  -18.4171    5.5739 N   0  0  0  0  0  0  0  0  0  0  0  0
   11.0869  -18.9332    6.7345 C   0  0  0  0  0  0  0  0  0  0  0  0
    9.8026  -19.1498    7.1846 C   0  0  0  0  0  0  0  0  0  0  0  0
    9.6023  -19.6957    8.4216 C   0  0  0  0  0  0  0  0  0  0  0  0
   10.6865  -20.0259    9.2107 C   0  0  0  0  0  0  0  0  0  0  0  0
   11.9772  -19.8168    8.7778 C   0  0  0  0  0  0  0  0  0  0  0  0
   12.1684  -19.2623    7.5206 C   0  0  0  0  0  0  0  0  0  0  0  0
   16.9435  -18.1115    6.6733 C   0  0  0  0  0  0  0  0  0  0  0  0
   18.0102  -18.7781    6.6353 O   0  0  0  0  0  0  0  0  0  0  0  0
   16.9962  -16.8021    7.1978 N   0  0  0  0  0  0  0  0  0  0  0  0
   18.2101  -16.3555    7.9117 C   0  0  1  0  0  0  0  0  0  0  0  0
   18.0066  -14.8889    8.1740 C   0  0  0  0  0  0  0  0  0  0  0  0
   18.2078  -13.9932    7.0233 C   0  0  0  0  0  0  0  0  0  0  0  0
   17.3560  -13.8027    5.9323 C   0  0  0  0  0  0  0  0  0  0  0  0
   17.9261  -12.9280    5.0958 N   0  0  0  0  0  0  0  0  0  0  0  0
   19.1127  -12.5245    5.5719 C   0  0  0  0  0  0  0  0  0  0  0  0
   20.0732  -11.6400    5.1141 C   0  0  0  0  0  0  0  0  0  0  0  0
   21.1937  -11.4402    5.8783 C   0  0  0  0  0  0  0  0  0  0  0  0
   21.3986  -12.0819    7.0766 C   0  0  0  0  0  0  0  0  0  0  0  0
   20.4451  -12.9586    7.5273 C   0  0  0  0  0  0  0  0  0  0  0  0
   19.3063  -13.1862    6.7870 C   0  0  0  0  0  0  0  0  0  0  0  0
   18.4980  -17.1930    9.0593 C   0  0  0  0  0  0  0  0  0  0  0  0
   17.5631  -17.8360    9.6476 O   0  0  0  0  0  0  0  0  0  0  0  0
   19.7611  -17.3639    9.5897 O   0  0  0  0  0  0  0  0  0  0  0  0
  1  2  1  0
  3  2  1  0
  4  3  1  0
  5  4  1  0
  5  6  1  6
  7  5  1  0
  8  7  2  0
  9  7  1  0
 10 21  1  0
 10  9  1  0
 10 11  1  1
 12 13  2  0
 12 11  1  0
 14 13  1  0
 15 20  2  0
 15 14  1  0
 16 15  1  0
 17 18  1  0
 17 16  2  0
 18 19  2  0
 19 20  1  0
 20 12  1  0
 21 22  2  0
 23 24  1  0
 23 21  1  0
 24 25  1  1
 25 26  1  0
 26 27  2  0
 27 28  1  0
 29 30  2  0
 29 28  1  0
 31 30  1  0
 32 31  2  0
 33 32  1  0
 33 34  2  0
 34 26  1  0
 34 29  1  0
 35 37  1  0
 35 24  1  0
 36 35  2  0
M  END
$$$$
