MWW.pdb
     RDKit          3D

 37 40  0  0  1  0  0  0  0  0999 V2000
   18.5342  -25.5318  -10.1557 C   0  0  0  0  0  0  0  0  0  0  0  0
   18.8392  -27.1933   -9.4974 S   0  0  0  0  0  0  0  0  0  0  0  0
   20.0919  -28.0405  -10.5092 C   0  0  0  0  0  0  0  0  0  0  0  0
   20.3012  -29.4441   -9.9594 C   0  0  0  0  0  0  0  0  0  0  0  0
   21.2640  -30.1455  -10.8791 C   0  0  2  0  0  0  0  0  0  0  0  0
   20.6372  -30.6297  -12.0681 N   0  0  0  0  0  0  0  0  0  0  0  0
   22.0301  -31.2139  -10.1662 C   0  0  0  0  0  0  0  0  0  0  0  0
   21.6181  -32.3930  -10.1235 O   0  0  0  0  0  0  0  0  0  0  0  0
   23.2586  -30.9472   -9.5046 N   0  0  0  0  0  0  0  0  0  0  0  0
   23.9844  -31.9470   -8.7229 C   0  0  1  0  0  0  0  0  0  0  0  0
   25.3744  -31.3701   -8.5565 C   0  0  0  0  0  0  0  0  0  0  0  0
   26.3078  -32.4048   -8.0429 C   0  0  0  0  0  0  0  0  0  0  0  0
   27.0292  -33.3060   -8.7946 C   0  0  0  0  0  0  0  0  0  0  0  0
   27.7632  -34.0877   -7.9801 N   0  0  0  0  0  0  0  0  0  0  0  0
   27.5369  -33.7153   -6.6937 C   0  0  0  0  0  0  0  0  0  0  0  0
   28.0318  -34.1866   -5.4971 C   0  0  0  0  0  0  0  0  0  0  0  0
   27.6253  -33.6142   -4.3245 C   0  0  0  0  0  0  0  0  0  0  0  0
   26.7227  -32.5692   -4.3466 C   0  0  0  0  0  0  0  0  0  0  0  0
   26.2172  -32.0847   -5.5327 C   0  0  0  0  0  0  0  0  0  0  0  0
   26.6371  -32.6733   -6.7167 C   0  0  0  0  0  0  0  0  0  0  0  0
   23.3300  -32.3380   -7.4971 C   0  0  0  0  0  0  0  0  0  0  0  0
   22.8360  -31.4823   -6.7178 O   0  0  0  0  0  0  0  0  0  0  0  0
   23.2275  -33.6999   -7.1401 N   0  0  0  0  0  0  0  0  0  0  0  0
   22.6175  -34.0658   -5.8453 C   0  0  1  0  0  0  0  0  0  0  0  0
   22.0335  -35.4366   -6.0482 C   0  0  0  0  0  0  0  0  0  0  0  0
   21.2485  -35.9766   -4.9261 C   0  0  0  0  0  0  0  0  0  0  0  0
   20.2750  -35.3170   -4.1715 C   0  0  0  0  0  0  0  0  0  0  0  0
   19.8287  -36.1545   -3.2285 N   0  0  0  0  0  0  0  0  0  0  0  0
   20.4526  -37.3380   -3.3151 C   0  0  0  0  0  0  0  0  0  0  0  0
   20.3537  -38.5223   -2.6064 C   0  0  0  0  0  0  0  0  0  0  0  0
   21.1491  -39.5747   -2.9797 C   0  0  0  0  0  0  0  0  0  0  0  0
   22.0372  -39.4987   -4.0262 C   0  0  0  0  0  0  0  0  0  0  0  0
   22.1335  -38.3232   -4.7262 C   0  0  0  0  0  0  0  0  0  0  0  0
   21.3514  -37.2437   -4.3804 C   0  0  0  0  0  0  0  0  0  0  0  0
   23.5500  -33.9064   -4.7470 C   0  0  0  0  0  0  0  0  0  0  0  0
   23.1889  -33.3326   -3.6636 O   0  0  0  0  0  0  0  0  0  0  0  0
   24.8571  -34.3500   -4.7769 O   0  0  0  0  0  0  0  0  0  0  0  0
  1  2  1  0
  3  2  1  0
  4  3  1  0
  5  4  1  0
  5  6  1  6
  7  5  1  0
  8  7  2  0
  9  7  1  0
 10 21  1  0
 10  9  1  0
 10 11  1  1
 12 13  2  0
 12 11  1  0
 14 13  1  0
 15 20  2  0
 15 14  1  0
 16 15  1  0
 17 18  1  0
 17 16  2  0
 18 19  2  0
 19 20  1  0
 20 12  1  0
 21 22  2  0
 23 24  1  0
 23 21  1  0
 24 25  1  6
 25 26  1  0
 26 27  2  0
 27 28  1  0
 29 30  2  0
 29 28  1  0
 31 30  1  0
 32 31  2  0
 33 32  1  0
 33 34  2  0
 34 26  1  0
 34 29  1  0
 35 37  1  0
 35 24  1  0
 36 35  2  0
M  END
$$$$
