MWW.pdb
     RDKit          3D

 37 40  0  0  1  0  0  0  0  0999 V2000
   27.5332  -22.0908   -3.9661 C   0  0  0  0  0  0  0  0  0  0  0  0
   28.2173  -20.4126   -3.9174 S   0  0  0  0  0  0  0  0  0  0  0  0
   28.6897  -19.8869   -5.5940 C   0  0  0  0  0  0  0  0  0  0  0  0
   27.4900  -20.0480   -6.5164 C   0  0  0  0  0  0  0  0  0  0  0  0
   27.9167  -19.5982   -7.8877 C   0  0  2  0  0  0  0  0  0  0  0  0
   28.5571  -18.3212   -7.8746 N   0  0  0  0  0  0  0  0  0  0  0  0
   26.7860  -19.6558   -8.8648 C   0  0  0  0  0  0  0  0  0  0  0  0
   26.0087  -18.6895   -9.0196 O   0  0  0  0  0  0  0  0  0  0  0  0
   26.5372  -20.8039   -9.6635 N   0  0  0  0  0  0  0  0  0  0  0  0
   25.4791  -20.8691  -10.6702 C   0  0  1  0  0  0  0  0  0  0  0  0
   26.0512  -21.7330  -11.7742 C   0  0  0  0  0  0  0  0  0  0  0  0
   27.2581  -21.0956  -12.3596 C   0  0  0  0  0  0  0  0  0  0  0  0
   28.5699  -21.3861  -12.0551 C   0  0  0  0  0  0  0  0  0  0  0  0
   29.3867  -20.6024  -12.7843 N   0  0  0  0  0  0  0  0  0  0  0  0
   28.6310  -19.7933  -13.5710 C   0  0  0  0  0  0  0  0  0  0  0  0
   28.9692  -18.8227  -14.4889 C   0  0  0  0  0  0  0  0  0  0  0  0
   27.9841  -18.1473  -15.1534 C   0  0  0  0  0  0  0  0  0  0  0  0
   26.6587  -18.4417  -14.9010 C   0  0  0  0  0  0  0  0  0  0  0  0
   26.3014  -19.4084  -13.9873 C   0  0  0  0  0  0  0  0  0  0  0  0
   27.3097  -20.0874  -13.3189 C   0  0  0  0  0  0  0  0  0  0  0  0
   24.1954  -21.2907  -10.1621 C   0  0  0  0  0  0  0  0  0  0  0  0
   23.9152  -21.2017   -8.9385 O   0  0  0  0  0  0  0  0  0  0  0  0
   23.2159  -21.8168  -11.0318 N   0  0  0  0  0  0  0  0  0  0  0  0
   22.0868  -20.9623  -11.4535 C   0  0  1  0  0  0  0  0  0  0  0  0
   22.7096  -19.6831  -11.9401 C   0  0  0  0  0  0  0  0  0  0  0  0
   21.7739  -18.6410  -12.3935 C   0  0  0  0  0  0  0  0  0  0  0  0
   20.6283  -18.1809  -11.7393 C   0  0  0  0  0  0  0  0  0  0  0  0
   20.0454  -17.2522  -12.5057 N   0  0  0  0  0  0  0  0  0  0  0  0
   20.7424  -17.0681  -13.6361 C   0  0  0  0  0  0  0  0  0  0  0  0
   20.5834  -16.2352  -14.7296 C   0  0  0  0  0  0  0  0  0  0  0  0
   21.5162  -16.2899  -15.7328 C   0  0  0  0  0  0  0  0  0  0  0  0
   22.5985  -17.1366  -15.6942 C   0  0  0  0  0  0  0  0  0  0  0  0
   22.7528  -17.9614  -14.6093 C   0  0  0  0  0  0  0  0  0  0  0  0
   21.8360  -17.9357  -13.5820 C   0  0  0  0  0  0  0  0  0  0  0  0
   21.2038  -21.6527  -12.3726 C   0  0  0  0  0  0  0  0  0  0  0  0
   21.6787  -22.3667  -13.3202 O   0  0  0  0  0  0  0  0  0  0  0  0
   19.8259  -21.6025  -12.3001 O   0  0  0  0  0  0  0  0  0  0  0  0
  1  2  1  0
  3  2  1  0
  4  3  1  0
  5  4  1  0
  5  6  1  1
  7  5  1  0
  8  7  2  0
  9  7  1  0
 10 21  1  0
 10  9  1  0
 10 11  1  6
 12 13  2  0
 12 11  1  0
 14 13  1  0
 15 20  2  0
 15 14  1  0
 16 15  1  0
 17 18  1  0
 17 16  2  0
 18 19  2  0
 19 20  1  0
 20 12  1  0
 21 22  2  0
 23 24  1  0
 23 21  1  0
 24 25  1  6
 25 26  1  0
 26 27  2  0
 27 28  1  0
 29 30  2  0
 29 28  1  0
 31 30  1  0
 32 31  2  0
 33 32  1  0
 33 34  2  0
 34 26  1  0
 34 29  1  0
 35 37  1  0
 35 24  1  0
 36 35  2  0
M  END
$$$$
