QWK.pdb
     RDKit          3D

 33 34  0  0  1  0  0  0  0  0999 V2000
   29.3489  -25.3659  -16.7431 N   0  0  0  0  0  0  0  0  0  0  0  0
   29.6774  -24.2220  -17.5479 C   0  0  0  0  0  0  0  0  0  0  0  0
   29.7726  -24.3488  -18.7762 O   0  0  0  0  0  0  0  0  0  0  0  0
   29.8917  -22.9441  -16.8720 C   0  0  0  0  0  0  0  0  0  0  0  0
   29.0704  -22.8058  -15.6428 C   0  0  0  0  0  0  0  0  0  0  0  0
   27.8013  -22.0426  -15.8083 C   0  0  2  0  0  0  0  0  0  0  0  0
   27.9566  -20.6647  -16.1891 N   0  0  0  0  0  0  0  0  0  0  0  0
   27.0216  -22.0553  -14.5220 C   0  0  0  0  0  0  0  0  0  0  0  0
   26.6672  -23.1405  -14.0045 O   0  0  0  0  0  0  0  0  0  0  0  0
   26.6771  -20.8386  -13.8776 N   0  0  0  0  0  0  0  0  0  0  0  0
   25.8999  -20.7606  -12.6686 C   0  0  1  0  0  0  0  0  0  0  0  0
   26.4352  -19.8237  -11.6395 C   0  0  0  0  0  0  0  0  0  0  0  0
   27.5082  -20.3601  -10.7823 C   0  0  0  0  0  0  0  0  0  0  0  0
   28.6684  -20.9985  -11.2010 C   0  0  0  0  0  0  0  0  0  0  0  0
   29.3842  -21.3575  -10.1294 N   0  0  0  0  0  0  0  0  0  0  0  0
   28.7320  -20.9748   -9.0084 C   0  0  0  0  0  0  0  0  0  0  0  0
   29.0141  -21.0830   -7.6625 C   0  0  0  0  0  0  0  0  0  0  0  0
   28.1489  -20.5801   -6.7156 C   0  0  0  0  0  0  0  0  0  0  0  0
   26.9874  -19.9600   -7.0812 C   0  0  0  0  0  0  0  0  0  0  0  0
   26.7148  -19.8574   -8.4330 C   0  0  0  0  0  0  0  0  0  0  0  0
   27.5667  -20.3547   -9.4064 C   0  0  0  0  0  0  0  0  0  0  0  0
   24.4687  -20.5428  -13.0051 C   0  0  0  0  0  0  0  0  0  0  0  0
   24.1414  -19.6175  -13.8064 O   0  0  0  0  0  0  0  0  0  0  0  0
   23.4047  -21.3193  -12.4815 N   0  0  0  0  0  0  0  0  0  0  0  0
   22.0424  -21.0621  -12.8677 C   0  0  1  0  0  0  0  0  0  0  0  0
   21.3274  -22.4129  -12.9623 C   0  0  0  0  0  0  0  0  0  0  0  0
   19.8626  -22.2053  -12.7738 C   0  0  0  0  0  0  0  0  0  0  0  0
   19.0303  -23.4304  -12.7398 C   0  0  0  0  0  0  0  0  0  0  0  0
   17.5645  -23.1950  -12.6493 C   0  0  0  0  0  0  0  0  0  0  0  0
   16.7898  -24.4061  -12.5633 N   0  0  0  0  0  0  0  0  0  0  0  0
   21.4125  -20.2080  -11.8332 C   0  0  0  0  0  0  0  0  0  0  0  0
   21.8739  -20.1659  -10.6572 O   0  0  0  0  0  0  0  0  0  0  0  0
   20.3016  -19.4242  -12.1033 O   0  0  0  0  0  0  0  0  0  0  0  0
  2  3  2  0
  2  1  1  0
  4  2  1  0
  5  4  1  0
  5  6  1  0
  6  7  1  1
  8  9  2  0
  8  6  1  0
 10  8  1  0
 11 12  1  1
 11 10  1  0
 13 12  1  0
 13 14  2  0
 15 14  1  0
 16 15  1  0
 17 16  2  0
 18 17  1  0
 19 18  2  0
 19 20  1  0
 20 21  2  0
 21 16  1  0
 21 13  1  0
 22 11  1  0
 23 22  2  0
 24 22  1  0
 25 24  1  0
 25 26  1  1
 27 26  1  0
 28 29  1  0
 28 27  1  0
 30 29  1  0
 31 25  1  0
 31 33  1  0
 32 31  2  0
M  END
$$$$
