QWK.pdb
     RDKit          3D

 33 34  0  0  1  0  0  0  0  0999 V2000
   16.3868  -26.3597   -4.4388 N   0  0  0  0  0  0  0  0  0  0  0  0
   16.7417  -24.9735   -4.5691 C   0  0  0  0  0  0  0  0  0  0  0  0
   17.8645  -24.6699   -4.9944 O   0  0  0  0  0  0  0  0  0  0  0  0
   15.7505  -23.9708   -4.1847 C   0  0  0  0  0  0  0  0  0  0  0  0
   14.5027  -24.5775   -3.6564 C   0  0  0  0  0  0  0  0  0  0  0  0
   13.4565  -23.6075   -3.2257 C   0  0  2  0  0  0  0  0  0  0  0  0
   13.5540  -22.2971   -3.8097 N   0  0  0  0  0  0  0  0  0  0  0  0
   13.5065  -23.4256   -1.7333 C   0  0  0  0  0  0  0  0  0  0  0  0
   13.0239  -22.3980   -1.2020 O   0  0  0  0  0  0  0  0  0  0  0  0
   14.1005  -24.4153   -0.9075 N   0  0  0  0  0  0  0  0  0  0  0  0
   14.0560  -24.3953    0.5310 C   0  0  1  0  0  0  0  0  0  0  0  0
   14.4862  -25.6626    1.1884 C   0  0  0  0  0  0  0  0  0  0  0  0
   14.2077  -25.7605    2.6330 C   0  0  0  0  0  0  0  0  0  0  0  0
   13.6344  -24.7855    3.4389 C   0  0  0  0  0  0  0  0  0  0  0  0
   13.5638  -25.2391    4.6955 N   0  0  0  0  0  0  0  0  0  0  0  0
   14.0742  -26.4902    4.7477 C   0  0  0  0  0  0  0  0  0  0  0  0
   14.2375  -27.4068    5.7655 C   0  0  0  0  0  0  0  0  0  0  0  0
   14.7939  -28.6434    5.5213 C   0  0  0  0  0  0  0  0  0  0  0  0
   15.1997  -28.9978    4.2655 C   0  0  0  0  0  0  0  0  0  0  0  0
   15.0315  -28.0709    3.2532 C   0  0  0  0  0  0  0  0  0  0  0  0
   14.4756  -26.8203    3.4707 C   0  0  0  0  0  0  0  0  0  0  0  0
   14.7470  -23.1810    1.0378 C   0  0  0  0  0  0  0  0  0  0  0  0
   15.8645  -22.8389    0.5481 O   0  0  0  0  0  0  0  0  0  0  0  0
   14.2332  -22.3461    2.0615 N   0  0  0  0  0  0  0  0  0  0  0  0
   15.0081  -21.2496    2.5796 C   0  0  1  0  0  0  0  0  0  0  0  0
   14.0431  -20.0934    2.8561 C   0  0  0  0  0  0  0  0  0  0  0  0
   14.7948  -18.9682    3.4831 C   0  0  0  0  0  0  0  0  0  0  0  0
   13.9911  -17.7877    3.8771 C   0  0  0  0  0  0  0  0  0  0  0  0
   14.7374  -16.7343    4.6159 C   0  0  0  0  0  0  0  0  0  0  0  0
   13.9140  -15.6288    5.0332 N   0  0  0  0  0  0  0  0  0  0  0  0
   15.6695  -21.6898    3.8308 C   0  0  0  0  0  0  0  0  0  0  0  0
   15.1850  -22.6279    4.5257 O   0  0  0  0  0  0  0  0  0  0  0  0
   16.8365  -21.1009    4.2921 O   0  0  0  0  0  0  0  0  0  0  0  0
  2  3  2  0
  2  1  1  0
  4  2  1  0
  5  4  1  0
  5  6  1  0
  6  7  1  6
  8  9  2  0
  8  6  1  0
 10  8  1  0
 11 12  1  1
 11 10  1  0
 13 12  1  0
 13 14  2  0
 15 14  1  0
 16 15  1  0
 17 16  2  0
 18 17  1  0
 19 18  2  0
 19 20  1  0
 20 21  2  0
 21 16  1  0
 21 13  1  0
 22 11  1  0
 23 22  2  0
 24 22  1  0
 25 24  1  0
 25 26  1  1
 27 26  1  0
 28 29  1  0
 28 27  1  0
 30 29  1  0
 31 25  1  0
 31 33  1  0
 32 31  2  0
M  END
$$$$
