QWK.pdb
     RDKit          3D

 33 34  0  0  1  0  0  0  0  0999 V2000
   25.4388  -21.3306  -18.7783 N   0  0  0  0  0  0  0  0  0  0  0  0
   26.8163  -21.2586  -19.1807 C   0  0  0  0  0  0  0  0  0  0  0  0
   27.1004  -20.8224  -20.3044 O   0  0  0  0  0  0  0  0  0  0  0  0
   27.8336  -21.7136  -18.2352 C   0  0  0  0  0  0  0  0  0  0  0  0
   27.2544  -22.1313  -16.9336 C   0  0  0  0  0  0  0  0  0  0  0  0
   27.8437  -21.4719  -15.7341 C   0  0  2  0  0  0  0  0  0  0  0  0
   29.1683  -21.9063  -15.3811 N   0  0  0  0  0  0  0  0  0  0  0  0
   26.9704  -21.7124  -14.5333 C   0  0  0  0  0  0  0  0  0  0  0  0
   26.7105  -22.8805  -14.1603 O   0  0  0  0  0  0  0  0  0  0  0  0
   26.4293  -20.6198  -13.8069 N   0  0  0  0  0  0  0  0  0  0  0  0
   25.5458  -20.7618  -12.6795 C   0  0  1  0  0  0  0  0  0  0  0  0
   25.9447  -19.9868  -11.4698 C   0  0  0  0  0  0  0  0  0  0  0  0
   27.1719  -20.4443  -10.7927 C   0  0  0  0  0  0  0  0  0  0  0  0
   28.3102  -20.9657  -11.3938 C   0  0  0  0  0  0  0  0  0  0  0  0
   29.2009  -21.2838  -10.4477 N   0  0  0  0  0  0  0  0  0  0  0  0
   28.6864  -20.9877   -9.2328 C   0  0  0  0  0  0  0  0  0  0  0  0
   29.1675  -21.1017   -7.9450 C   0  0  0  0  0  0  0  0  0  0  0  0
   28.4076  -20.7011   -6.8678 C   0  0  0  0  0  0  0  0  0  0  0  0
   27.1567  -20.1796   -7.0432 C   0  0  0  0  0  0  0  0  0  0  0  0
   26.6847  -20.0703   -8.3383 C   0  0  0  0  0  0  0  0  0  0  0  0
   27.4271  -20.4659   -9.4395 C   0  0  0  0  0  0  0  0  0  0  0  0
   24.1414  -20.5376  -13.1110 C   0  0  0  0  0  0  0  0  0  0  0  0
   23.7455  -19.3671  -13.3916 O   0  0  0  0  0  0  0  0  0  0  0  0
   23.1775  -21.5689  -13.2388 N   0  0  0  0  0  0  0  0  0  0  0  0
   21.8032  -21.2634  -13.5372 C   0  0  1  0  0  0  0  0  0  0  0  0
   21.2573  -22.3984  -14.4080 C   0  0  0  0  0  0  0  0  0  0  0  0
   21.5645  -23.7050  -13.7576 C   0  0  0  0  0  0  0  0  0  0  0  0
   20.9768  -24.9050  -14.3975 C   0  0  0  0  0  0  0  0  0  0  0  0
   21.3444  -26.2006  -13.7660 C   0  0  0  0  0  0  0  0  0  0  0  0
   20.7678  -27.3460  -14.4216 N   0  0  0  0  0  0  0  0  0  0  0  0
   21.0527  -21.1746  -12.2623 C   0  0  0  0  0  0  0  0  0  0  0  0
   21.5801  -21.5365  -11.1721 O   0  0  0  0  0  0  0  0  0  0  0  0
   19.7530  -20.6959  -12.2059 O   0  0  0  0  0  0  0  0  0  0  0  0
  2  3  2  0
  2  1  1  0
  4  2  1  0
  5  4  1  0
  5  6  1  0
  6  7  1  1
  8  9  2  0
  8  6  1  0
 10  8  1  0
 11 12  1  1
 11 10  1  0
 13 12  1  0
 13 14  2  0
 15 14  1  0
 16 15  1  0
 17 16  2  0
 18 17  1  0
 19 18  2  0
 19 20  1  0
 20 21  2  0
 21 16  1  0
 21 13  1  0
 22 11  1  0
 23 22  2  0
 24 22  1  0
 25 24  1  0
 25 26  1  6
 27 26  1  0
 28 29  1  0
 28 27  1  0
 30 29  1  0
 31 25  1  0
 31 33  1  0
 32 31  2  0
M  END
$$$$
