QWK.pdb
     RDKit          3D

 33 34  0  0  1  0  0  0  0  0999 V2000
   26.0742  -20.0728  -18.1990 N   0  0  0  0  0  0  0  0  0  0  0  0
   26.4936  -21.1861  -19.0047 C   0  0  0  0  0  0  0  0  0  0  0  0
   27.0774  -20.9762  -20.0766 O   0  0  0  0  0  0  0  0  0  0  0  0
   26.2048  -22.5339  -18.5192 C   0  0  0  0  0  0  0  0  0  0  0  0
   25.6441  -22.5355  -17.1445 C   0  0  0  0  0  0  0  0  0  0  0  0
   26.6174  -22.8506  -16.0609 C   0  0  2  0  0  0  0  0  0  0  0  0
   27.1309  -24.1937  -16.0660 N   0  0  0  0  0  0  0  0  0  0  0  0
   25.9795  -22.6316  -14.7164 C   0  0  0  0  0  0  0  0  0  0  0  0
   25.4829  -23.5935  -14.0845 O   0  0  0  0  0  0  0  0  0  0  0  0
   25.9318  -21.3331  -14.1457 N   0  0  0  0  0  0  0  0  0  0  0  0
   25.2974  -21.0290  -12.8900 C   0  0  1  0  0  0  0  0  0  0  0  0
   25.9406  -19.9308  -12.1132 C   0  0  0  0  0  0  0  0  0  0  0  0
   27.1346  -20.3111  -11.3362 C   0  0  0  0  0  0  0  0  0  0  0  0
   28.3145  -20.8502  -11.8322 C   0  0  0  0  0  0  0  0  0  0  0  0
   29.1547  -21.0790  -10.8167 N   0  0  0  0  0  0  0  0  0  0  0  0
   28.5661  -20.7063   -9.6578 C   0  0  0  0  0  0  0  0  0  0  0  0
   28.9741  -20.7155   -8.3402 C   0  0  0  0  0  0  0  0  0  0  0  0
   28.1466  -20.2539   -7.3400 C   0  0  0  0  0  0  0  0  0  0  0  0
   26.8990  -19.7738   -7.6234 C   0  0  0  0  0  0  0  0  0  0  0  0
   26.5005  -19.7695   -8.9475 C   0  0  0  0  0  0  0  0  0  0  0  0
   27.3118  -20.2283   -9.9730 C   0  0  0  0  0  0  0  0  0  0  0  0
   23.8357  -20.8547  -13.0953 C   0  0  0  0  0  0  0  0  0  0  0  0
   23.4126  -20.0295  -13.9587 O   0  0  0  0  0  0  0  0  0  0  0  0
   22.8440  -21.5671  -12.3754 N   0  0  0  0  0  0  0  0  0  0  0  0
   21.4448  -21.3153  -12.5985 C   0  0  1  0  0  0  0  0  0  0  0  0
   20.6577  -22.4043  -11.8641 C   0  0  0  0  0  0  0  0  0  0  0  0
   19.2003  -22.2044  -12.1098 C   0  0  0  0  0  0  0  0  0  0  0  0
   18.4188  -23.4244  -12.4193 C   0  0  0  0  0  0  0  0  0  0  0  0
   16.9746  -23.1962  -12.6923 C   0  0  0  0  0  0  0  0  0  0  0  0
   16.2459  -24.4025  -12.9892 N   0  0  0  0  0  0  0  0  0  0  0  0
   21.1148  -19.9758  -12.0567 C   0  0  0  0  0  0  0  0  0  0  0  0
   21.6384  -19.5629  -10.9829 O   0  0  0  0  0  0  0  0  0  0  0  0
   20.2276  -19.1228  -12.6946 O   0  0  0  0  0  0  0  0  0  0  0  0
  2  3  2  0
  2  1  1  0
  4  2  1  0
  5  4  1  0
  5  6  1  0
  6  7  1  1
  8  9  2  0
  8  6  1  0
 10  8  1  0
 11 12  1  6
 11 10  1  0
 13 12  1  0
 13 14  2  0
 15 14  1  0
 16 15  1  0
 17 16  2  0
 18 17  1  0
 19 18  2  0
 19 20  1  0
 20 21  2  0
 21 16  1  0
 21 13  1  0
 22 11  1  0
 23 22  2  0
 24 22  1  0
 25 24  1  0
 25 26  1  1
 27 26  1  0
 28 29  1  0
 28 27  1  0
 30 29  1  0
 31 25  1  0
 31 33  1  0
 32 31  2  0
M  END
$$$$
