QWK.pdb
     RDKit          3D

 33 34  0  0  1  0  0  0  0  0999 V2000
   25.5177  -27.5676  -17.3464 N   0  0  0  0  0  0  0  0  0  0  0  0
   25.5337  -26.7574  -18.5328 C   0  0  0  0  0  0  0  0  0  0  0  0
   25.6763  -27.2985  -19.6377 O   0  0  0  0  0  0  0  0  0  0  0  0
   25.3834  -25.3117  -18.3805 C   0  0  0  0  0  0  0  0  0  0  0  0
   25.2419  -24.9008  -16.9609 C   0  0  0  0  0  0  0  0  0  0  0  0
   26.1604  -23.8138  -16.5187 C   0  0  2  0  0  0  0  0  0  0  0  0
   27.5225  -24.2139  -16.2895 N   0  0  0  0  0  0  0  0  0  0  0  0
   25.6611  -23.2082  -15.2355 C   0  0  0  0  0  0  0  0  0  0  0  0
   25.6870  -23.8672  -14.1696 O   0  0  0  0  0  0  0  0  0  0  0  0
   25.1542  -21.8828  -15.2151 N   0  0  0  0  0  0  0  0  0  0  0  0
   24.7238  -21.2043  -14.0209 C   0  0  1  0  0  0  0  0  0  0  0  0
   25.4914  -19.9692  -13.6912 C   0  0  0  0  0  0  0  0  0  0  0  0
   26.7842  -20.1809  -13.0146 C   0  0  0  0  0  0  0  0  0  0  0  0
   28.0439  -20.1588  -13.5990 C   0  0  0  0  0  0  0  0  0  0  0  0
   28.9669  -20.4133  -12.6648 N   0  0  0  0  0  0  0  0  0  0  0  0
   28.3556  -20.6036  -11.4737 C   0  0  0  0  0  0  0  0  0  0  0  0
   28.8169  -20.8823  -10.2039 C   0  0  0  0  0  0  0  0  0  0  0  0
   27.9429  -21.0178   -9.1476 C   0  0  0  0  0  0  0  0  0  0  0  0
   26.5951  -20.8802   -9.3262 C   0  0  0  0  0  0  0  0  0  0  0  0
   26.1440  -20.6013  -10.6033 C   0  0  0  0  0  0  0  0  0  0  0  0
   27.0004  -20.4605  -11.6836 C   0  0  0  0  0  0  0  0  0  0  0  0
   23.2501  -21.0149  -14.0546 C   0  0  0  0  0  0  0  0  0  0  0  0
   22.6864  -20.6304  -15.1222 O   0  0  0  0  0  0  0  0  0  0  0  0
   22.3966  -21.2409  -12.9456 N   0  0  0  0  0  0  0  0  0  0  0  0
   20.9736  -21.0583  -13.0588 C   0  0  1  0  0  0  0  0  0  0  0  0
   20.3006  -22.1684  -12.2468 C   0  0  0  0  0  0  0  0  0  0  0  0
   18.8201  -22.0306  -12.3631 C   0  0  0  0  0  0  0  0  0  0  0  0
   18.0128  -22.9890  -11.5728 C   0  0  0  0  0  0  0  0  0  0  0  0
   16.5439  -22.9075  -11.7919 C   0  0  0  0  0  0  0  0  0  0  0  0
   15.7939  -23.8824  -11.0426 N   0  0  0  0  0  0  0  0  0  0  0  0
   20.6246  -19.7255  -12.5128 C   0  0  0  0  0  0  0  0  0  0  0  0
   19.4769  -19.2290  -12.6966 O   0  0  0  0  0  0  0  0  0  0  0  0
   21.5292  -18.9699  -11.7831 O   0  0  0  0  0  0  0  0  0  0  0  0
  2  3  2  0
  2  1  1  0
  4  2  1  0
  5  4  1  0
  5  6  1  0
  6  7  1  1
  8  9  2  0
  8  6  1  0
 10  8  1  0
 11 12  1  6
 11 10  1  0
 13 12  1  0
 13 14  2  0
 15 14  1  0
 16 15  1  0
 17 16  2  0
 18 17  1  0
 19 18  2  0
 19 20  1  0
 20 21  2  0
 21 16  1  0
 21 13  1  0
 22 11  1  0
 23 22  2  0
 24 22  1  0
 25 24  1  0
 25 26  1  1
 27 26  1  0
 28 29  1  0
 28 27  1  0
 30 29  1  0
 31 25  1  0
 31 33  1  0
 32 31  2  0
M  END
$$$$
