QWK.pdb
     RDKit          3D

 33 34  0  0  1  0  0  0  0  0999 V2000
   30.1430  -25.1792  -15.9615 N   0  0  0  0  0  0  0  0  0  0  0  0
   30.1499  -24.6646  -17.3030 C   0  0  0  0  0  0  0  0  0  0  0  0
   31.1690  -24.7855  -17.9962 O   0  0  0  0  0  0  0  0  0  0  0  0
   28.9397  -24.0091  -17.7944 C   0  0  0  0  0  0  0  0  0  0  0  0
   27.8794  -23.9216  -16.7588 C   0  0  0  0  0  0  0  0  0  0  0  0
   27.4132  -22.5424  -16.4406 C   0  0  2  0  0  0  0  0  0  0  0  0
   28.4419  -21.5385  -16.4012 N   0  0  0  0  0  0  0  0  0  0  0  0
   26.7344  -22.5254  -15.0983 C   0  0  0  0  0  0  0  0  0  0  0  0
   25.7875  -23.3099  -14.8552 O   0  0  0  0  0  0  0  0  0  0  0  0
   27.1574  -21.6210  -14.0897 N   0  0  0  0  0  0  0  0  0  0  0  0
   26.5474  -21.5231  -12.7897 C   0  0  1  0  0  0  0  0  0  0  0  0
   27.4482  -21.0242  -11.7113 C   0  0  0  0  0  0  0  0  0  0  0  0
   26.7942  -20.7001  -10.4302 C   0  0  0  0  0  0  0  0  0  0  0  0
   25.4473  -20.4288  -10.2276 C   0  0  0  0  0  0  0  0  0  0  0  0
   25.2423  -20.1613   -8.9330 N   0  0  0  0  0  0  0  0  0  0  0  0
   26.4165  -20.2478   -8.2680 C   0  0  0  0  0  0  0  0  0  0  0  0
   26.7730  -20.0814   -6.9459 C   0  0  0  0  0  0  0  0  0  0  0  0
   28.0791  -20.2458   -6.5392 C   0  0  0  0  0  0  0  0  0  0  0  0
   29.0585  -20.5781   -7.4323 C   0  0  0  0  0  0  0  0  0  0  0  0
   28.6897  -20.7420   -8.7550 C   0  0  0  0  0  0  0  0  0  0  0  0
   27.3842  -20.5823   -9.1914 C   0  0  0  0  0  0  0  0  0  0  0  0
   25.2583  -20.7909  -12.8939 C   0  0  0  0  0  0  0  0  0  0  0  0
   25.2564  -19.5393  -13.0916 O   0  0  0  0  0  0  0  0  0  0  0  0
   23.9862  -21.4070  -12.7871 N   0  0  0  0  0  0  0  0  0  0  0  0
   22.7800  -20.6576  -13.0208 C   0  0  1  0  0  0  0  0  0  0  0  0
   22.0256  -21.3432  -14.1634 C   0  0  0  0  0  0  0  0  0  0  0  0
   20.7237  -20.6476  -14.3767 C   0  0  0  0  0  0  0  0  0  0  0  0
   19.8205  -21.2509  -15.3843 C   0  0  0  0  0  0  0  0  0  0  0  0
   18.5779  -20.4810  -15.6590 C   0  0  0  0  0  0  0  0  0  0  0  0
   17.7928  -21.0192  -16.7398 N   0  0  0  0  0  0  0  0  0  0  0  0
   21.9709  -20.6678  -11.7793 C   0  0  0  0  0  0  0  0  0  0  0  0
   21.3163  -19.6470  -11.4225 O   0  0  0  0  0  0  0  0  0  0  0  0
   21.8941  -21.7839  -10.9607 O   0  0  0  0  0  0  0  0  0  0  0  0
  2  3  2  0
  2  1  1  0
  4  2  1  0
  5  4  1  0
  5  6  1  0
  6  7  1  1
  8  9  2  0
  8  6  1  0
 10  8  1  0
 11 12  1  1
 11 10  1  0
 13 12  1  0
 13 14  2  0
 15 14  1  0
 16 15  1  0
 17 16  2  0
 18 17  1  0
 19 18  2  0
 19 20  1  0
 20 21  2  0
 21 16  1  0
 21 13  1  0
 22 11  1  0
 23 22  2  0
 24 22  1  0
 25 24  1  0
 25 26  1  6
 27 26  1  0
 28 29  1  0
 28 27  1  0
 30 29  1  0
 31 25  1  0
 31 33  1  0
 32 31  2  0
M  END
$$$$
