QWK.pdb
     RDKit          3D

 33 34  0  0  1  0  0  0  0  0999 V2000
   31.1086  -22.9873  -15.3313 N   0  0  0  0  0  0  0  0  0  0  0  0
   30.2420  -22.2778  -16.2314 C   0  0  0  0  0  0  0  0  0  0  0  0
   30.6105  -21.1939  -16.7037 O   0  0  0  0  0  0  0  0  0  0  0  0
   28.9457  -22.8726  -16.5500 C   0  0  0  0  0  0  0  0  0  0  0  0
   28.0363  -22.9166  -15.3773 C   0  0  0  0  0  0  0  0  0  0  0  0
   27.0767  -21.7811  -15.2733 C   0  0  2  0  0  0  0  0  0  0  0  0
   27.6744  -20.4766  -15.1798 N   0  0  0  0  0  0  0  0  0  0  0  0
   26.2072  -21.9517  -14.0578 C   0  0  0  0  0  0  0  0  0  0  0  0
   25.6368  -23.0449  -13.8329 O   0  0  0  0  0  0  0  0  0  0  0  0
   26.0216  -20.8770  -13.1496 N   0  0  0  0  0  0  0  0  0  0  0  0
   25.1872  -20.9479  -11.9790 C   0  0  1  0  0  0  0  0  0  0  0  0
   25.6929  -20.1843  -10.8023 C   0  0  0  0  0  0  0  0  0  0  0  0
   26.9372  -20.6926  -10.1964 C   0  0  0  0  0  0  0  0  0  0  0  0
   27.9311  -21.4290  -10.8277 C   0  0  0  0  0  0  0  0  0  0  0  0
   28.8911  -21.7214   -9.9432 N   0  0  0  0  0  0  0  0  0  0  0  0
   28.5633  -21.1991   -8.7398 C   0  0  0  0  0  0  0  0  0  0  0  0
   29.1826  -21.1931   -7.5072 C   0  0  0  0  0  0  0  0  0  0  0  0
   28.6070  -20.5567   -6.4293 C   0  0  0  0  0  0  0  0  0  0  0  0
   27.4074  -19.9134   -6.5493 C   0  0  0  0  0  0  0  0  0  0  0  0
   26.7955  -19.9261   -7.7893 C   0  0  0  0  0  0  0  0  0  0  0  0
   27.3515  -20.5588   -8.8898 C   0  0  0  0  0  0  0  0  0  0  0  0
   23.7802  -20.6403  -12.3460 C   0  0  0  0  0  0  0  0  0  0  0  0
   23.4607  -19.4653  -12.6962 O   0  0  0  0  0  0  0  0  0  0  0  0
   22.7320  -21.5944  -12.3356 N   0  0  0  0  0  0  0  0  0  0  0  0
   21.3728  -21.2020  -12.5994 C   0  0  1  0  0  0  0  0  0  0  0  0
   20.5626  -22.4791  -12.8386 C   0  0  0  0  0  0  0  0  0  0  0  0
   19.1434  -22.1134  -13.1154 C   0  0  0  0  0  0  0  0  0  0  0  0
   18.2243  -23.2399  -13.4002 C   0  0  0  0  0  0  0  0  0  0  0  0
   16.8132  -22.8513  -13.6650 C   0  0  0  0  0  0  0  0  0  0  0  0
   15.9256  -23.9744  -13.8236 N   0  0  0  0  0  0  0  0  0  0  0  0
   20.8567  -20.4683  -11.4196 C   0  0  0  0  0  0  0  0  0  0  0  0
   20.1038  -19.4626  -11.5590 O   0  0  0  0  0  0  0  0  0  0  0  0
   21.1712  -20.8459  -10.1234 O   0  0  0  0  0  0  0  0  0  0  0  0
  2  3  2  0
  2  1  1  0
  4  2  1  0
  5  4  1  0
  5  6  1  0
  6  7  1  1
  8  9  2  0
  8  6  1  0
 10  8  1  0
 11 12  1  1
 11 10  1  0
 13 12  1  0
 13 14  2  0
 15 14  1  0
 16 15  1  0
 17 16  2  0
 18 17  1  0
 19 18  2  0
 19 20  1  0
 20 21  2  0
 21 16  1  0
 21 13  1  0
 22 11  1  0
 23 22  2  0
 24 22  1  0
 25 24  1  0
 25 26  1  1
 27 26  1  0
 28 29  1  0
 28 27  1  0
 30 29  1  0
 31 25  1  0
 31 33  1  0
 32 31  2  0
M  END
$$$$
