QWK.pdb
     RDKit          3D

 33 34  0  0  1  0  0  0  0  0999 V2000
   26.1915  -21.6540  -17.4478 N   0  0  0  0  0  0  0  0  0  0  0  0
   27.5967  -21.6285  -17.7465 C   0  0  0  0  0  0  0  0  0  0  0  0
   27.9724  -21.2972  -18.8792 O   0  0  0  0  0  0  0  0  0  0  0  0
   28.5318  -22.0040  -16.6881 C   0  0  0  0  0  0  0  0  0  0  0  0
   27.8540  -22.2455  -15.3894 C   0  0  0  0  0  0  0  0  0  0  0  0
   27.4864  -21.0196  -14.6260 C   0  0  2  0  0  0  0  0  0  0  0  0
   28.5690  -20.1107  -14.3623 N   0  0  0  0  0  0  0  0  0  0  0  0
   26.9003  -21.3994  -13.2937 C   0  0  0  0  0  0  0  0  0  0  0  0
   25.9374  -22.1992  -13.2279 O   0  0  0  0  0  0  0  0  0  0  0  0
   27.4299  -20.8570  -12.0939 N   0  0  0  0  0  0  0  0  0  0  0  0
   26.8259  -21.0273  -10.7986 C   0  0  1  0  0  0  0  0  0  0  0  0
   27.7482  -20.8208   -9.6455 C   0  0  0  0  0  0  0  0  0  0  0  0
   27.1041  -20.6985   -8.3249 C   0  0  0  0  0  0  0  0  0  0  0  0
   25.7935  -21.0270   -8.0035 C   0  0  0  0  0  0  0  0  0  0  0  0
   25.5766  -20.7574   -6.7113 N   0  0  0  0  0  0  0  0  0  0  0  0
   26.7078  -20.2587   -6.1634 C   0  0  0  0  0  0  0  0  0  0  0  0
   27.0392  -19.8311   -4.8945 C   0  0  0  0  0  0  0  0  0  0  0  0
   28.3059  -19.3683   -4.6122 C   0  0  0  0  0  0  0  0  0  0  0  0
   29.2699  -19.3194   -5.5795 C   0  0  0  0  0  0  0  0  0  0  0  0
   28.9263  -19.7502   -6.8478 C   0  0  0  0  0  0  0  0  0  0  0  0
   27.6603  -20.2197   -7.1595 C   0  0  0  0  0  0  0  0  0  0  0  0
   25.5694  -20.2371  -10.7229 C   0  0  0  0  0  0  0  0  0  0  0  0
   25.6187  -18.9710  -10.7101 O   0  0  0  0  0  0  0  0  0  0  0  0
   24.2747  -20.8111  -10.6636 N   0  0  0  0  0  0  0  0  0  0  0  0
   23.1451  -20.1504  -11.2624 C   0  0  1  0  0  0  0  0  0  0  0  0
   23.3652  -20.1439  -12.7778 C   0  0  0  0  0  0  0  0  0  0  0  0
   22.2285  -19.4358  -13.4341 C   0  0  0  0  0  0  0  0  0  0  0  0
   22.0911  -19.6391  -14.8951 C   0  0  0  0  0  0  0  0  0  0  0  0
   21.0149  -18.8437  -15.5443 C   0  0  0  0  0  0  0  0  0  0  0  0
   20.8807  -19.0982  -16.9556 N   0  0  0  0  0  0  0  0  0  0  0  0
   21.9186  -20.9063  -10.9151 C   0  0  0  0  0  0  0  0  0  0  0  0
   20.7856  -20.3460  -10.9272 O   0  0  0  0  0  0  0  0  0  0  0  0
   21.9554  -22.2471  -10.5653 O   0  0  0  0  0  0  0  0  0  0  0  0
  2  3  2  0
  2  1  1  0
  4  2  1  0
  5  4  1  0
  5  6  1  0
  6  7  1  1
  8  9  2  0
  8  6  1  0
 10  8  1  0
 11 12  1  1
 11 10  1  0
 13 12  1  0
 13 14  2  0
 15 14  1  0
 16 15  1  0
 17 16  2  0
 18 17  1  0
 19 18  2  0
 19 20  1  0
 20 21  2  0
 21 16  1  0
 21 13  1  0
 22 11  1  0
 23 22  2  0
 24 22  1  0
 25 24  1  0
 25 26  1  6
 27 26  1  0
 28 29  1  0
 28 27  1  0
 30 29  1  0
 31 25  1  0
 31 33  1  0
 32 31  2  0
M  END
$$$$
