QWK.pdb
     RDKit          3D

 33 34  0  0  1  0  0  0  0  0999 V2000
   29.1174  -17.9823  -14.7955 N   0  0  0  0  0  0  0  0  0  0  0  0
   28.7898  -18.3366  -16.1488 C   0  0  0  0  0  0  0  0  0  0  0  0
   29.5273  -17.9639  -17.0713 O   0  0  0  0  0  0  0  0  0  0  0  0
   27.5828  -19.1276  -16.3798 C   0  0  0  0  0  0  0  0  0  0  0  0
   26.9828  -19.6314  -15.1186 C   0  0  0  0  0  0  0  0  0  0  0  0
   27.6771  -20.7989  -14.5058 C   0  0  2  0  0  0  0  0  0  0  0  0
   27.7394  -21.9783  -15.3260 N   0  0  0  0  0  0  0  0  0  0  0  0
   26.9910  -21.1922  -13.2262 C   0  0  0  0  0  0  0  0  0  0  0  0
   25.9252  -21.8513  -13.2534 O   0  0  0  0  0  0  0  0  0  0  0  0
   27.5417  -20.8223  -11.9716 N   0  0  0  0  0  0  0  0  0  0  0  0
   26.8649  -20.9961  -10.7132 C   0  0  1  0  0  0  0  0  0  0  0  0
   27.7090  -20.7501   -9.5090 C   0  0  0  0  0  0  0  0  0  0  0  0
   26.9909  -20.7094   -8.2218 C   0  0  0  0  0  0  0  0  0  0  0  0
   25.6737  -21.0837   -7.9904 C   0  0  0  0  0  0  0  0  0  0  0  0
   25.3799  -20.8847   -6.7006 N   0  0  0  0  0  0  0  0  0  0  0  0
   26.4664  -20.3884   -6.0668 C   0  0  0  0  0  0  0  0  0  0  0  0
   26.7171  -20.0178   -4.7620 C   0  0  0  0  0  0  0  0  0  0  0  0
   27.9542  -19.5407   -4.3873 C   0  0  0  0  0  0  0  0  0  0  0  0
   28.9678  -19.4209   -5.2959 C   0  0  0  0  0  0  0  0  0  0  0  0
   28.7050  -19.7951   -6.6009 C   0  0  0  0  0  0  0  0  0  0  0  0
   27.4703  -20.2773   -7.0052 C   0  0  0  0  0  0  0  0  0  0  0  0
   25.5841  -20.2422  -10.7239 C   0  0  0  0  0  0  0  0  0  0  0  0
   25.5947  -18.9770  -10.6568 O   0  0  0  0  0  0  0  0  0  0  0  0
   24.3069  -20.8513  -10.8079 N   0  0  0  0  0  0  0  0  0  0  0  0
   23.1173  -20.0558  -10.9601 C   0  0  1  0  0  0  0  0  0  0  0  0
   22.4957  -20.4108  -12.3137 C   0  0  0  0  0  0  0  0  0  0  0  0
   21.2903  -21.2604  -12.0907 C   0  0  0  0  0  0  0  0  0  0  0  0
   20.5921  -21.7329  -13.3089 C   0  0  0  0  0  0  0  0  0  0  0  0
   19.3928  -22.5771  -13.0614 C   0  0  0  0  0  0  0  0  0  0  0  0
   18.7093  -22.9755  -14.2649 N   0  0  0  0  0  0  0  0  0  0  0  0
   22.1864  -20.3839   -9.8547 C   0  0  0  0  0  0  0  0  0  0  0  0
   21.3753  -19.5216   -9.4116 O   0  0  0  0  0  0  0  0  0  0  0  0
   22.1611  -21.6368   -9.2619 O   0  0  0  0  0  0  0  0  0  0  0  0
  2  3  2  0
  2  1  1  0
  4  2  1  0
  5  4  1  0
  5  6  1  0
  6  7  1  6
  8  9  2  0
  8  6  1  0
 10  8  1  0
 11 12  1  1
 11 10  1  0
 13 12  1  0
 13 14  2  0
 15 14  1  0
 16 15  1  0
 17 16  2  0
 18 17  1  0
 19 18  2  0
 19 20  1  0
 20 21  2  0
 21 16  1  0
 21 13  1  0
 22 11  1  0
 23 22  2  0
 24 22  1  0
 25 24  1  0
 25 26  1  6
 27 26  1  0
 28 29  1  0
 28 27  1  0
 30 29  1  0
 31 25  1  0
 31 33  1  0
 32 31  2  0
M  END
$$$$
