QWK.pdb
     RDKit          3D

 33 34  0  0  1  0  0  0  0  0999 V2000
   25.6981  -25.1616  -18.0225 N   0  0  0  0  0  0  0  0  0  0  0  0
   26.8763  -25.5381  -17.2915 C   0  0  0  0  0  0  0  0  0  0  0  0
   27.8253  -26.0593  -17.8928 O   0  0  0  0  0  0  0  0  0  0  0  0
   26.9008  -25.2901  -15.8514 C   0  0  0  0  0  0  0  0  0  0  0  0
   25.7015  -24.5522  -15.3807 C   0  0  0  0  0  0  0  0  0  0  0  0
   25.6903  -23.0941  -15.6884 C   0  0  2  0  0  0  0  0  0  0  0  0
   26.7857  -22.3407  -15.1403 N   0  0  0  0  0  0  0  0  0  0  0  0
   24.4255  -22.4680  -15.1681 C   0  0  0  0  0  0  0  0  0  0  0  0
   24.2052  -22.4111  -13.9354 O   0  0  0  0  0  0  0  0  0  0  0  0
   23.4652  -21.9334  -16.0660 N   0  0  0  0  0  0  0  0  0  0  0  0
   22.2239  -21.3334  -15.6528 C   0  0  1  0  0  0  0  0  0  0  0  0
   21.6774  -20.3139  -16.5937 C   0  0  0  0  0  0  0  0  0  0  0  0
   20.3623  -19.7520  -16.2349 C   0  0  0  0  0  0  0  0  0  0  0  0
   20.0837  -18.8897  -15.1825 C   0  0  0  0  0  0  0  0  0  0  0  0
   18.7738  -18.6187  -15.1707 N   0  0  0  0  0  0  0  0  0  0  0  0
   18.1727  -19.2771  -16.1874 C   0  0  0  0  0  0  0  0  0  0  0  0
   16.8692  -19.3481  -16.6330 C   0  0  0  0  0  0  0  0  0  0  0  0
   16.5373  -20.1118  -17.7307 C   0  0  0  0  0  0  0  0  0  0  0  0
   17.4884  -20.8203  -18.4095 C   0  0  0  0  0  0  0  0  0  0  0  0
   18.7916  -20.7420  -17.9537 C   0  0  0  0  0  0  0  0  0  0  0  0
   19.1531  -19.9825  -16.8524 C   0  0  0  0  0  0  0  0  0  0  0  0
   21.2548  -22.3948  -15.2744 C   0  0  0  0  0  0  0  0  0  0  0  0
   21.1725  -23.4520  -15.9678 O   0  0  0  0  0  0  0  0  0  0  0  0
   20.3862  -22.3129  -14.1571 N   0  0  0  0  0  0  0  0  0  0  0  0
   19.5521  -23.4255  -13.7863 C   0  0  1  0  0  0  0  0  0  0  0  0
   19.6136  -23.5596  -12.2622 C   0  0  0  0  0  0  0  0  0  0  0  0
   18.6956  -24.6528  -11.8300 C   0  0  0  0  0  0  0  0  0  0  0  0
   18.9966  -25.2760  -10.5201 C   0  0  0  0  0  0  0  0  0  0  0  0
   18.0760  -26.3724  -10.1168 C   0  0  0  0  0  0  0  0  0  0  0  0
   18.4484  -27.0135   -8.8820 N   0  0  0  0  0  0  0  0  0  0  0  0
   18.1667  -23.1446  -14.2315 C   0  0  0  0  0  0  0  0  0  0  0  0
   17.4915  -24.0205  -14.8436 O   0  0  0  0  0  0  0  0  0  0  0  0
   17.5533  -21.9233  -13.9999 O   0  0  0  0  0  0  0  0  0  0  0  0
  2  3  2  0
  2  1  1  0
  4  2  1  0
  5  4  1  0
  5  6  1  0
  6  7  1  1
  8  9  2  0
  8  6  1  0
 10  8  1  0
 11 12  1  6
 11 10  1  0
 13 12  1  0
 13 14  2  0
 15 14  1  0
 16 15  1  0
 17 16  2  0
 18 17  1  0
 19 18  2  0
 19 20  1  0
 20 21  2  0
 21 16  1  0
 21 13  1  0
 22 11  1  0
 23 22  2  0
 24 22  1  0
 25 24  1  0
 25 26  1  1
 27 26  1  0
 28 29  1  0
 28 27  1  0
 30 29  1  0
 31 25  1  0
 31 33  1  0
 32 31  2  0
M  END
$$$$
