HGI.pdb
     RDKit          3D

 23 23  0  0  1  0  0  0  0  0999 V2000
    8.6112  -19.2440   20.9095 N   0  0  0  0  0  0  0  0  0  0  0  0
    8.7742  -18.2420   19.8967 C   0  0  1  0  0  0  0  0  0  0  0  0
    7.8576  -18.5721   18.7219 C   0  0  0  0  0  0  0  0  0  0  0  0
    6.5011  -18.8404   19.2676 C   0  0  0  0  0  0  0  0  0  0  0  0
    5.4467  -17.9328   19.3888 C   0  0  0  0  0  0  0  0  0  0  0  0
    4.3861  -18.5541   19.9272 N   0  0  0  0  0  0  0  0  0  0  0  0
    4.7354  -19.8219   20.1496 C   0  0  0  0  0  0  0  0  0  0  0  0
    6.0146  -20.0016   19.7525 N   0  0  0  0  0  0  0  0  0  0  0  0
    8.5107  -16.9194   20.4478 C   0  0  0  0  0  0  0  0  0  0  0  0
    9.0586  -15.9013   20.0004 O   0  0  0  0  0  0  0  0  0  0  0  0
    7.5903  -16.7835   21.5415 N   0  0  0  0  0  0  0  0  0  0  0  0
    7.1928  -15.5159   22.0475 C   0  0  0  0  0  0  0  0  0  0  0  0
    7.9176  -15.0657   23.2321 C   0  0  0  0  0  0  0  0  0  0  0  0
    9.1874  -14.8459   23.1213 O   0  0  0  0  0  0  0  0  0  0  0  0
    5.7356  -11.4162   26.0786 C   0  0  0  0  0  0  0  0  0  0  0  0
    6.7302  -12.3239   25.3979 C   0  0  0  0  0  0  0  0  0  0  0  0
    7.3288  -13.3205   26.3637 C   0  0  2  0  0  0  0  0  0  0  0  0
    8.1066  -12.6554   27.4741 C   0  0  0  0  0  0  0  0  0  0  0  0
    8.2319  -14.2485   25.5654 C   0  0  2  0  0  0  0  0  0  0  0  0
    7.4112  -14.8289   24.5231 N   0  0  0  0  0  0  0  0  0  0  0  0
    8.7996  -15.2957   26.4580 C   0  0  0  0  0  0  0  0  0  0  0  0
   10.0063  -15.1663   27.1041 O   0  0  0  0  0  0  0  0  0  0  0  0
    8.1374  -16.3434   26.6223 O   0  0  0  0  0  0  0  0  0  0  0  0
  2  1  1  1
  2  3  1  0
  4  3  1  0
  4  5  2  0
  6  5  1  0
  7  6  1  0
  8  7  2  0
  8  4  1  0
  9  2  1  0
  9 11  1  0
 10  9  2  0
 12 11  1  0
 12 13  1  0
 13 20  1  0
 14 13  2  0
 16 15  1  0
 17 16  1  0
 17 18  1  1
 19 21  1  0
 19 17  1  0
 19 20  1  6
 21 22  1  0
 23 21  2  0
M  END
$$$$
