HGI.pdb
     RDKit          3D

 23 23  0  0  1  0  0  0  0  0999 V2000
    9.0467  -18.3721   19.9303 N   0  0  0  0  0  0  0  0  0  0  0  0
   10.0234  -17.3223   19.9483 C   0  0  1  0  0  0  0  0  0  0  0  0
   10.5017  -17.0667   18.5217 C   0  0  0  0  0  0  0  0  0  0  0  0
   11.3040  -18.2435   18.0958 C   0  0  0  0  0  0  0  0  0  0  0  0
   10.9851  -19.5911   18.2763 C   0  0  0  0  0  0  0  0  0  0  0  0
   11.9599  -20.3516   17.7546 N   0  0  0  0  0  0  0  0  0  0  0  0
   12.8822  -19.5301   17.2514 C   0  0  0  0  0  0  0  0  0  0  0  0
   12.4911  -18.2526   17.4547 N   0  0  0  0  0  0  0  0  0  0  0  0
    9.4675  -16.1260   20.5668 C   0  0  0  0  0  0  0  0  0  0  0  0
   10.1250  -15.0814   20.6824 O   0  0  0  0  0  0  0  0  0  0  0  0
    8.1188  -16.1504   21.0591 N   0  0  0  0  0  0  0  0  0  0  0  0
    7.5679  -15.0833   21.8197 C   0  0  0  0  0  0  0  0  0  0  0  0
    8.1027  -14.9438   23.1709 C   0  0  0  0  0  0  0  0  0  0  0  0
    9.3843  -15.0186   23.3286 O   0  0  0  0  0  0  0  0  0  0  0  0
    5.4576  -12.1917   27.1631 C   0  0  0  0  0  0  0  0  0  0  0  0
    6.0463  -13.3373   26.3773 C   0  0  0  0  0  0  0  0  0  0  0  0
    7.5281  -13.1519   26.1447 C   0  0  2  0  0  0  0  0  0  0  0  0
    7.8268  -12.0310   25.1780 C   0  0  0  0  0  0  0  0  0  0  0  0
    8.0786  -14.4683   25.6172 C   0  0  2  0  0  0  0  0  0  0  0  0
    7.3950  -14.7320   24.3683 N   0  0  0  0  0  0  0  0  0  0  0  0
    7.8388  -15.5523   26.6087 C   0  0  0  0  0  0  0  0  0  0  0  0
    8.5421  -15.6719   27.7840 O   0  0  0  0  0  0  0  0  0  0  0  0
    6.9498  -16.3926   26.3502 O   0  0  0  0  0  0  0  0  0  0  0  0
  2  1  1  6
  2  3  1  0
  4  3  1  0
  4  5  2  0
  6  5  1  0
  7  6  1  0
  8  7  2  0
  8  4  1  0
  9  2  1  0
  9 11  1  0
 10  9  2  0
 12 11  1  0
 12 13  1  0
 13 20  1  0
 14 13  2  0
 16 15  1  0
 17 16  1  0
 17 18  1  6
 19 21  1  0
 19 17  1  0
 19 20  1  6
 21 22  1  0
 23 21  2  0
M  END
$$$$
