HGI.pdb
     RDKit          3D

 23 23  0  0  1  0  0  0  0  0999 V2000
   10.6809  -19.0830   20.0691 N   0  0  0  0  0  0  0  0  0  0  0  0
   11.1461  -19.5751   21.3331 C   0  0  1  0  0  0  0  0  0  0  0  0
   12.2613  -20.5883   21.0897 C   0  0  0  0  0  0  0  0  0  0  0  0
   11.6505  -21.7935   20.4699 C   0  0  0  0  0  0  0  0  0  0  0  0
   11.8209  -22.2457   19.1597 C   0  0  0  0  0  0  0  0  0  0  0  0
   11.1054  -23.3668   18.9806 N   0  0  0  0  0  0  0  0  0  0  0  0
   10.4898  -23.6369   20.1325 C   0  0  0  0  0  0  0  0  0  0  0  0
   10.8156  -22.6882   21.0381 N   0  0  0  0  0  0  0  0  0  0  0  0
   11.5794  -18.4694   22.1771 C   0  0  0  0  0  0  0  0  0  0  0  0
   12.3691  -17.6044   21.7707 O   0  0  0  0  0  0  0  0  0  0  0  0
   11.0810  -18.3723   23.5202 N   0  0  0  0  0  0  0  0  0  0  0  0
   11.4313  -17.3000   24.3852 C   0  0  0  0  0  0  0  0  0  0  0  0
   10.3056  -16.6265   25.0258 C   0  0  0  0  0  0  0  0  0  0  0  0
    9.1593  -17.2256   25.0275 O   0  0  0  0  0  0  0  0  0  0  0  0
   10.9233  -13.7050   29.4257 C   0  0  0  0  0  0  0  0  0  0  0  0
   10.4577  -14.5956   28.3003 C   0  0  0  0  0  0  0  0  0  0  0  0
    9.5480  -13.8585   27.3446 C   0  0  2  0  0  0  0  0  0  0  0  0
    8.3557  -13.2436   28.0378 C   0  0  0  0  0  0  0  0  0  0  0  0
    9.0924  -14.8513   26.2859 C   0  0  2  0  0  0  0  0  0  0  0  0
   10.2916  -15.3729   25.6643 N   0  0  0  0  0  0  0  0  0  0  0  0
    8.2172  -14.1692   25.2937 C   0  0  0  0  0  0  0  0  0  0  0  0
    6.8450  -14.1553   25.3785 O   0  0  0  0  0  0  0  0  0  0  0  0
    8.7679  -13.5814   24.3375 O   0  0  0  0  0  0  0  0  0  0  0  0
  2  1  1  6
  2  3  1  0
  4  3  1  0
  4  5  2  0
  6  5  1  0
  7  6  1  0
  8  7  2  0
  8  4  1  0
  9  2  1  0
  9 11  1  0
 10  9  2  0
 12 11  1  0
 12 13  1  0
 13 20  1  0
 14 13  2  0
 16 15  1  0
 17 16  1  0
 17 18  1  1
 19 21  1  0
 19 17  1  0
 19 20  1  6
 21 22  1  0
 23 21  2  0
M  END
$$$$
