HGI.pdb
     RDKit          3D

 23 23  0  0  1  0  0  0  0  0999 V2000
    8.6324  -16.1323   19.8613 N   0  0  0  0  0  0  0  0  0  0  0  0
    8.0002  -14.9516   20.3738 C   0  0  1  0  0  0  0  0  0  0  0  0
    6.8248  -14.5879   19.4708 C   0  0  0  0  0  0  0  0  0  0  0  0
    7.3574  -14.3713   18.0999 C   0  0  0  0  0  0  0  0  0  0  0  0
    8.1635  -13.3169   17.6656 C   0  0  0  0  0  0  0  0  0  0  0  0
    8.4354  -13.4743   16.3609 N   0  0  0  0  0  0  0  0  0  0  0  0
    7.8286  -14.5915   15.9578 C   0  0  0  0  0  0  0  0  0  0  0  0
    7.1743  -15.1392   17.0058 N   0  0  0  0  0  0  0  0  0  0  0  0
    7.5907  -15.1579   21.7567 C   0  0  0  0  0  0  0  0  0  0  0  0
    7.0552  -14.2600   22.4231 O   0  0  0  0  0  0  0  0  0  0  0  0
    7.8107  -16.4363   22.3724 N   0  0  0  0  0  0  0  0  0  0  0  0
    7.4560  -16.7004   23.7234 C   0  0  0  0  0  0  0  0  0  0  0  0
    8.2452  -15.9866   24.7229 C   0  0  0  0  0  0  0  0  0  0  0  0
    9.5237  -15.9062   24.5444 O   0  0  0  0  0  0  0  0  0  0  0  0
    6.3614  -11.6659   26.7846 C   0  0  0  0  0  0  0  0  0  0  0  0
    7.2547  -12.7673   26.2695 C   0  0  0  0  0  0  0  0  0  0  0  0
    7.9332  -13.5097   27.3977 C   0  0  2  0  0  0  0  0  0  0  0  0
    8.8557  -12.6245   28.2011 C   0  0  0  0  0  0  0  0  0  0  0  0
    8.7080  -14.6669   26.7857 C   0  0  2  0  0  0  0  0  0  0  0  0
    7.7947  -15.3512   25.8945 N   0  0  0  0  0  0  0  0  0  0  0  0
    9.2013  -15.5717   27.8598 C   0  0  0  0  0  0  0  0  0  0  0  0
   10.4583  -15.4793   28.4091 O   0  0  0  0  0  0  0  0  0  0  0  0
    8.4249  -16.4583   28.2774 O   0  0  0  0  0  0  0  0  0  0  0  0
  2  1  1  6
  2  3  1  0
  4  3  1  0
  4  5  2  0
  6  5  1  0
  7  6  1  0
  8  7  2  0
  8  4  1  0
  9  2  1  0
  9 11  1  0
 10  9  2  0
 12 11  1  0
 12 13  1  0
 13 20  1  0
 14 13  2  0
 16 15  1  0
 17 16  1  0
 17 18  1  6
 19 21  1  0
 19 17  1  0
 19 20  1  6
 21 22  1  0
 23 21  2  0
M  END
$$$$
