HGI.pdb
     RDKit          3D

 23 23  0  0  1  0  0  0  0  0999 V2000
    9.2263  -19.6471   19.6217 N   0  0  0  0  0  0  0  0  0  0  0  0
    9.3520  -18.2217   19.5287 C   0  0  1  0  0  0  0  0  0  0  0  0
    9.2448  -17.8099   18.0631 C   0  0  0  0  0  0  0  0  0  0  0  0
   10.5242  -18.1694   17.3971 C   0  0  0  0  0  0  0  0  0  0  0  0
   11.8046  -17.7272   17.7367 C   0  0  0  0  0  0  0  0  0  0  0  0
   12.6996  -18.2745   16.8999 N   0  0  0  0  0  0  0  0  0  0  0  0
   12.0278  -19.0464   16.0446 C   0  0  0  0  0  0  0  0  0  0  0  0
   10.7104  -18.9871   16.3402 N   0  0  0  0  0  0  0  0  0  0  0  0
    8.3479  -17.5709   20.3599 C   0  0  0  0  0  0  0  0  0  0  0  0
    7.1400  -17.6148   20.0848 O   0  0  0  0  0  0  0  0  0  0  0  0
    8.7626  -16.8558   21.5340 N   0  0  0  0  0  0  0  0  0  0  0  0
    7.8319  -16.3015   22.4546 C   0  0  0  0  0  0  0  0  0  0  0  0
    8.4176  -15.4825   23.5117 C   0  0  0  0  0  0  0  0  0  0  0  0
    9.7066  -15.4518   23.6137 O   0  0  0  0  0  0  0  0  0  0  0  0
    5.6184  -11.6679   26.0801 C   0  0  0  0  0  0  0  0  0  0  0  0
    6.7056  -12.4822   25.4231 C   0  0  0  0  0  0  0  0  0  0  0  0
    7.4185  -13.3683   26.4185 C   0  0  2  0  0  0  0  0  0  0  0  0
    8.1031  -12.5799   27.5093 C   0  0  0  0  0  0  0  0  0  0  0  0
    8.4329  -14.2005   25.6488 C   0  0  2  0  0  0  0  0  0  0  0  0
    7.7536  -14.6939   24.4691 N   0  0  0  0  0  0  0  0  0  0  0  0
    8.9245  -15.3173   26.5012 C   0  0  0  0  0  0  0  0  0  0  0  0
   10.1252  -15.2865   27.1705 O   0  0  0  0  0  0  0  0  0  0  0  0
    8.2010  -16.3314   26.6078 O   0  0  0  0  0  0  0  0  0  0  0  0
  2  1  1  6
  2  3  1  0
  4  3  1  0
  4  5  2  0
  6  5  1  0
  7  6  1  0
  8  7  2  0
  8  4  1  0
  9  2  1  0
  9 11  1  0
 10  9  2  0
 12 11  1  0
 12 13  1  0
 13 20  1  0
 14 13  2  0
 16 15  1  0
 17 16  1  0
 17 18  1  1
 19 21  1  0
 19 17  1  0
 19 20  1  6
 21 22  1  0
 23 21  2  0
M  END
$$$$
