HGI.pdb
     RDKit          3D

 23 23  0  0  1  0  0  0  0  0999 V2000
    8.3374  -14.5618   21.0228 N   0  0  0  0  0  0  0  0  0  0  0  0
    8.4283  -15.9708   20.7721 C   0  0  1  0  0  0  0  0  0  0  0  0
    9.0785  -16.1900   19.4089 C   0  0  0  0  0  0  0  0  0  0  0  0
    8.4607  -15.2331   18.4536 C   0  0  0  0  0  0  0  0  0  0  0  0
    7.1474  -15.2455   17.9790 C   0  0  0  0  0  0  0  0  0  0  0  0
    6.9715  -14.2185   17.1333 N   0  0  0  0  0  0  0  0  0  0  0  0
    8.1284  -13.5592   17.0584 C   0  0  0  0  0  0  0  0  0  0  0  0
    9.0340  -14.1684   17.8554 N   0  0  0  0  0  0  0  0  0  0  0  0
    9.1615  -16.6284   21.8457 C   0  0  0  0  0  0  0  0  0  0  0  0
    9.2473  -17.8628   21.9211 O   0  0  0  0  0  0  0  0  0  0  0  0
    9.8063  -15.8294   22.8495 N   0  0  0  0  0  0  0  0  0  0  0  0
   10.6992  -16.3854   23.8057 C   0  0  0  0  0  0  0  0  0  0  0  0
   10.5039  -15.9261   25.1776 C   0  0  0  0  0  0  0  0  0  0  0  0
   11.4788  -16.0768   26.0141 O   0  0  0  0  0  0  0  0  0  0  0  0
    6.6532  -12.2990   25.8051 C   0  0  0  0  0  0  0  0  0  0  0  0
    7.9571  -13.0577   25.8301 C   0  0  0  0  0  0  0  0  0  0  0  0
    8.1326  -13.8242   27.1208 C   0  0  2  0  0  0  0  0  0  0  0  0
    8.1806  -12.9201   28.3294 C   0  0  0  0  0  0  0  0  0  0  0  0
    9.4198  -14.6268   27.0072 C   0  0  2  0  0  0  0  0  0  0  0  0
    9.3640  -15.3210   25.7378 N   0  0  0  0  0  0  0  0  0  0  0  0
    9.5254  -15.5804   28.1453 C   0  0  0  0  0  0  0  0  0  0  0  0
   10.1742  -15.2863   29.3212 O   0  0  0  0  0  0  0  0  0  0  0  0
    8.9932  -16.7043   28.0154 O   0  0  0  0  0  0  0  0  0  0  0  0
  2  1  1  1
  2  3  1  0
  4  3  1  0
  4  5  2  0
  6  5  1  0
  7  6  1  0
  8  7  2  0
  8  4  1  0
  9  2  1  0
  9 11  1  0
 10  9  2  0
 12 11  1  0
 12 13  1  0
 13 20  1  0
 14 13  2  0
 16 15  1  0
 17 16  1  0
 17 18  1  1
 19 21  1  0
 19 17  1  0
 19 20  1  6
 21 22  1  0
 23 21  2  0
M  END
$$$$
