HGI.pdb
     RDKit          3D

 23 23  0  0  1  0  0  0  0  0999 V2000
    7.3740  -16.1427   18.8008 N   0  0  0  0  0  0  0  0  0  0  0  0
    8.6557  -15.7430   19.3047 C   0  0  1  0  0  0  0  0  0  0  0  0
    8.8564  -14.2564   19.0237 C   0  0  0  0  0  0  0  0  0  0  0  0
    8.7307  -14.0522   17.5566 C   0  0  0  0  0  0  0  0  0  0  0  0
    7.7392  -13.3312   16.8878 C   0  0  0  0  0  0  0  0  0  0  0  0
    7.9706  -13.3788   15.5668 N   0  0  0  0  0  0  0  0  0  0  0  0
    9.0736  -14.1049   15.3797 C   0  0  0  0  0  0  0  0  0  0  0  0
    9.5386  -14.5155   16.5803 N   0  0  0  0  0  0  0  0  0  0  0  0
    8.7601  -16.0556   20.7239 C   0  0  0  0  0  0  0  0  0  0  0  0
    9.8194  -15.9102   21.3513 O   0  0  0  0  0  0  0  0  0  0  0  0
    7.6060  -16.5470   21.4228 N   0  0  0  0  0  0  0  0  0  0  0  0
    7.6447  -16.9013   22.7990 C   0  0  0  0  0  0  0  0  0  0  0  0
    8.1197  -15.8525   23.6965 C   0  0  0  0  0  0  0  0  0  0  0  0
    9.1919  -15.2088   23.3662 O   0  0  0  0  0  0  0  0  0  0  0  0
    6.5893  -11.1383   27.0231 C   0  0  0  0  0  0  0  0  0  0  0  0
    7.6268  -12.1833   26.6941 C   0  0  0  0  0  0  0  0  0  0  0  0
    7.0179  -13.3712   25.9855 C   0  0  2  0  0  0  0  0  0  0  0  0
    5.9360  -14.0393   26.8000 C   0  0  0  0  0  0  0  0  0  0  0  0
    8.1406  -14.3534   25.6874 C   0  0  2  0  0  0  0  0  0  0  0  0
    7.5555  -15.4283   24.9135 N   0  0  0  0  0  0  0  0  0  0  0  0
    8.7270  -14.8554   26.9602 C   0  0  0  0  0  0  0  0  0  0  0  0
    9.6246  -14.1376   27.7146 O   0  0  0  0  0  0  0  0  0  0  0  0
    8.3789  -15.9895   27.3550 O   0  0  0  0  0  0  0  0  0  0  0  0
  2  1  1  1
  2  3  1  0
  4  3  1  0
  4  5  2  0
  6  5  1  0
  7  6  1  0
  8  7  2  0
  8  4  1  0
  9  2  1  0
  9 11  1  0
 10  9  2  0
 12 11  1  0
 12 13  1  0
 13 20  1  0
 14 13  2  0
 16 15  1  0
 17 16  1  0
 17 18  1  1
 19 21  1  0
 19 17  1  0
 19 20  1  1
 21 22  1  0
 23 21  2  0
M  END
$$$$
