HGI.pdb
     RDKit          3D

 23 23  0  0  1  0  0  0  0  0999 V2000
    9.0453  -19.3178   20.3190 N   0  0  0  0  0  0  0  0  0  0  0  0
    9.1103  -17.9637   19.8514 C   0  0  1  0  0  0  0  0  0  0  0  0
    8.5008  -17.8928   18.4540 C   0  0  0  0  0  0  0  0  0  0  0  0
    9.5914  -18.1298   17.4720 C   0  0  0  0  0  0  0  0  0  0  0  0
   10.9210  -18.4535   17.7507 C   0  0  0  0  0  0  0  0  0  0  0  0
   11.5960  -18.5873   16.5987 N   0  0  0  0  0  0  0  0  0  0  0  0
   10.7381  -18.3591   15.6034 C   0  0  0  0  0  0  0  0  0  0  0  0
    9.5228  -18.0816   16.1254 N   0  0  0  0  0  0  0  0  0  0  0  0
    8.4426  -17.0725   20.7908 C   0  0  0  0  0  0  0  0  0  0  0  0
    8.5096  -15.8391   20.6854 O   0  0  0  0  0  0  0  0  0  0  0  0
    7.6829  -17.6323   21.8730 N   0  0  0  0  0  0  0  0  0  0  0  0
    6.9831  -16.8228   22.8089 C   0  0  0  0  0  0  0  0  0  0  0  0
    7.8251  -16.1150   23.7687 C   0  0  0  0  0  0  0  0  0  0  0  0
    9.1026  -16.3109   23.7176 O   0  0  0  0  0  0  0  0  0  0  0  0
    6.0692  -12.2613   27.5668 C   0  0  0  0  0  0  0  0  0  0  0  0
    6.5680  -13.4960   26.8574 C   0  0  0  0  0  0  0  0  0  0  0  0
    7.7650  -13.1939   25.9856 C   0  0  2  0  0  0  0  0  0  0  0  0
    7.3983  -12.4048   24.7515 C   0  0  0  0  0  0  0  0  0  0  0  0
    8.3976  -14.5218   25.5977 C   0  0  2  0  0  0  0  0  0  0  0  0
    7.4285  -15.2179   24.7773 N   0  0  0  0  0  0  0  0  0  0  0  0
    8.7347  -15.3000   26.8210 C   0  0  0  0  0  0  0  0  0  0  0  0
    9.7771  -14.9796   27.6583 O   0  0  0  0  0  0  0  0  0  0  0  0
    8.0273  -16.2945   27.0926 O   0  0  0  0  0  0  0  0  0  0  0  0
  2  1  1  1
  2  3  1  0
  4  3  1  0
  4  5  2  0
  6  5  1  0
  7  6  1  0
  8  7  2  0
  8  4  1  0
  9  2  1  0
  9 11  1  0
 10  9  2  0
 12 11  1  0
 12 13  1  0
 13 20  1  0
 14 13  2  0
 16 15  1  0
 17 16  1  0
 17 18  1  6
 19 21  1  0
 19 17  1  0
 19 20  1  6
 21 22  1  0
 23 21  2  0
M  END
$$$$
