TSF.pdb
     RDKit          3D

 25 25  0  0  1  0  0  0  0  0999 V2000
    9.1962  -12.5080   20.6048 C   0  0  0  0  0  0  0  0  0  0  0  0
    8.1206  -12.8909   19.6358 C   0  0  1  0  0  0  0  0  0  0  0  0
    8.2652  -12.2266   18.4304 O   0  0  0  0  0  0  0  0  0  0  0  0
    8.1260  -14.3956   19.3522 C   0  0  2  0  0  0  0  0  0  0  0  0
    7.0669  -14.6969   18.4068 N   0  0  0  0  0  0  0  0  0  0  0  0
    7.8644  -15.1022   20.6341 C   0  0  0  0  0  0  0  0  0  0  0  0
    6.6969  -15.1343   21.1015 O   0  0  0  0  0  0  0  0  0  0  0  0
   10.4777  -17.7531   21.8752 O   0  0  0  0  0  0  0  0  0  0  0  0
    9.1788  -17.9226   22.3813 C   0  0  0  0  0  0  0  0  0  0  0  0
    8.5815  -16.5207   22.5184 C   0  0  2  0  0  0  0  0  0  0  0  0
    8.9037  -15.7421   21.3430 N   0  0  0  0  0  0  0  0  0  0  0  0
    9.1338  -15.9251   23.7541 C   0  0  0  0  0  0  0  0  0  0  0  0
   10.2101  -15.2746   23.6217 O   0  0  0  0  0  0  0  0  0  0  0  0
    8.4955  -16.0742   25.0125 N   0  0  0  0  0  0  0  0  0  0  0  0
    9.2357  -15.6024   26.1816 C   0  0  1  0  0  0  0  0  0  0  0  0
    8.1680  -15.1829   27.1798 C   0  0  0  0  0  0  0  0  0  0  0  0
    7.5042  -13.9155   26.7945 C   0  0  0  0  0  0  0  0  0  0  0  0
    6.1686  -13.8889   26.3853 C   0  0  0  0  0  0  0  0  0  0  0  0
    5.6153  -12.6819   26.0553 C   0  0  0  0  0  0  0  0  0  0  0  0
    6.3641  -11.5355   26.1288 C   0  0  0  0  0  0  0  0  0  0  0  0
    7.6749  -11.5383   26.5275 C   0  0  0  0  0  0  0  0  0  0  0  0
    8.2432  -12.7538   26.8634 C   0  0  0  0  0  0  0  0  0  0  0  0
    9.9834  -16.7695   26.7034 C   0  0  0  0  0  0  0  0  0  0  0  0
   10.7079  -16.6857   27.7256 O   0  0  0  0  0  0  0  0  0  0  0  0
    9.9356  -18.0360   26.1000 O   0  0  0  0  0  0  0  0  0  0  0  0
  2  1  1  1
  3  2  1  0
  4  6  1  0
  4  2  1  0
  4  5  1  6
  6  7  2  0
  9  8  1  0
 10  9  1  6
 10 12  1  0
 11 10  1  0
 11  6  1  0
 12 13  2  0
 12 14  1  0
 14 15  1  0
 15 16  1  1
 16 17  1  0
 17 18  2  0
 18 19  1  0
 20 19  2  0
 21 20  1  0
 22 17  1  0
 22 21  2  0
 23 25  1  0
 23 15  1  0
 24 23  2  0
M  END
$$$$
