TSF.pdb
     RDKit          3D

 25 25  0  0  1  0  0  0  0  0999 V2000
    7.9169  -12.1226   18.1947 C   0  0  0  0  0  0  0  0  0  0  0  0
    7.6780  -13.3198   19.0619 C   0  0  1  0  0  0  0  0  0  0  0  0
    7.7192  -14.4926   18.3284 O   0  0  0  0  0  0  0  0  0  0  0  0
    8.7185  -13.4229   20.1806 C   0  0  2  0  0  0  0  0  0  0  0  0
    9.9924  -13.8057   19.6004 N   0  0  0  0  0  0  0  0  0  0  0  0
    8.2668  -14.4763   21.1279 C   0  0  0  0  0  0  0  0  0  0  0  0
    7.1903  -14.3255   21.7611 O   0  0  0  0  0  0  0  0  0  0  0  0
   10.4870  -17.7895   21.6064 O   0  0  0  0  0  0  0  0  0  0  0  0
    9.1538  -17.9826   22.0033 C   0  0  0  0  0  0  0  0  0  0  0  0
    8.5975  -16.5976   22.3393 C   0  0  2  0  0  0  0  0  0  0  0  0
    9.0239  -15.6496   21.3338 N   0  0  0  0  0  0  0  0  0  0  0  0
    9.0867  -16.2416   23.6887 C   0  0  0  0  0  0  0  0  0  0  0  0
   10.1720  -15.5940   23.7309 O   0  0  0  0  0  0  0  0  0  0  0  0
    8.3815  -16.6044   24.8653 N   0  0  0  0  0  0  0  0  0  0  0  0
    8.9535  -16.1582   26.1346 C   0  0  1  0  0  0  0  0  0  0  0  0
    7.7634  -15.6977   26.9617 C   0  0  0  0  0  0  0  0  0  0  0  0
    7.4022  -14.2865   26.6909 C   0  0  0  0  0  0  0  0  0  0  0  0
    8.2953  -13.2440   26.9516 C   0  0  0  0  0  0  0  0  0  0  0  0
    7.9008  -11.9654   26.6662 C   0  0  0  0  0  0  0  0  0  0  0  0
    6.6579  -11.7276   26.1380 C   0  0  0  0  0  0  0  0  0  0  0  0
    5.7666  -12.7343   25.8744 C   0  0  0  0  0  0  0  0  0  0  0  0
    6.1564  -14.0305   26.1594 C   0  0  0  0  0  0  0  0  0  0  0  0
    9.5703  -17.3512   26.7589 C   0  0  0  0  0  0  0  0  0  0  0  0
    9.3505  -18.5098   26.3273 O   0  0  0  0  0  0  0  0  0  0  0  0
   10.4332  -17.2724   27.8632 O   0  0  0  0  0  0  0  0  0  0  0  0
  2  1  1  6
  3  2  1  0
  4  6  1  0
  4  2  1  0
  4  5  1  6
  6  7  2  0
  9  8  1  0
 10  9  1  6
 10 12  1  0
 11 10  1  0
 11  6  1  0
 12 13  2  0
 12 14  1  0
 14 15  1  0
 15 16  1  1
 16 17  1  0
 17 18  2  0
 18 19  1  0
 20 19  2  0
 21 20  1  0
 22 17  1  0
 22 21  2  0
 23 25  1  0
 23 15  1  0
 24 23  2  0
M  END
$$$$
