TSF.pdb
     RDKit          3D

 25 25  0  0  1  0  0  0  0  0999 V2000
    9.7950  -14.2574   17.5760 C   0  0  0  0  0  0  0  0  0  0  0  0
    9.3823  -14.5190   18.9915 C   0  0  1  0  0  0  0  0  0  0  0  0
   10.1011  -13.7393   19.8807 O   0  0  0  0  0  0  0  0  0  0  0  0
    7.8933  -14.2345   19.2071 C   0  0  2  0  0  0  0  0  0  0  0  0
    7.6542  -12.8173   19.0058 N   0  0  0  0  0  0  0  0  0  0  0  0
    7.5570  -14.6015   20.6082 C   0  0  0  0  0  0  0  0  0  0  0  0
    7.4748  -13.7036   21.4854 O   0  0  0  0  0  0  0  0  0  0  0  0
    7.4736  -18.4647   21.9857 O   0  0  0  0  0  0  0  0  0  0  0  0
    6.3584  -17.6962   22.3571 C   0  0  0  0  0  0  0  0  0  0  0  0
    6.8011  -16.2331   22.2945 C   0  0  2  0  0  0  0  0  0  0  0  0
    7.3264  -15.9439   20.9785 N   0  0  0  0  0  0  0  0  0  0  0  0
    7.8095  -16.0318   23.3573 C   0  0  0  0  0  0  0  0  0  0  0  0
    9.0024  -15.8797   22.9666 O   0  0  0  0  0  0  0  0  0  0  0  0
    7.4603  -16.0104   24.7324 N   0  0  0  0  0  0  0  0  0  0  0  0
    8.5446  -15.7535   25.6788 C   0  0  1  0  0  0  0  0  0  0  0  0
    7.8579  -15.2296   26.9304 C   0  0  0  0  0  0  0  0  0  0  0  0
    7.2548  -13.8921   26.7234 C   0  0  0  0  0  0  0  0  0  0  0  0
    8.0308  -12.7960   26.3380 C   0  0  0  0  0  0  0  0  0  0  0  0
    7.4065  -11.5926   26.1528 C   0  0  0  0  0  0  0  0  0  0  0  0
    6.0534  -11.4797   26.3439 C   0  0  0  0  0  0  0  0  0  0  0  0
    5.2735  -12.5410   26.7215 C   0  0  0  0  0  0  0  0  0  0  0  0
    5.8954  -13.7619   26.9111 C   0  0  0  0  0  0  0  0  0  0  0  0
    9.1747  -17.0639   25.9602 C   0  0  0  0  0  0  0  0  0  0  0  0
   10.1933  -17.1636   26.6879 O   0  0  0  0  0  0  0  0  0  0  0  0
    8.6843  -18.2719   25.4401 O   0  0  0  0  0  0  0  0  0  0  0  0
  2  1  1  6
  3  2  1  0
  4  6  1  0
  4  2  1  0
  4  5  1  1
  6  7  2  0
  9  8  1  0
 10  9  1  6
 10 12  1  0
 11 10  1  0
 11  6  1  0
 12 13  2  0
 12 14  1  0
 14 15  1  0
 15 16  1  1
 16 17  1  0
 17 18  2  0
 18 19  1  0
 20 19  2  0
 21 20  1  0
 22 17  1  0
 22 21  2  0
 23 25  1  0
 23 15  1  0
 24 23  2  0
M  END
$$$$
