TSF.pdb
     RDKit          3D

 25 25  0  0  1  0  0  0  0  0999 V2000
    9.4280  -14.5152   17.2096 C   0  0  0  0  0  0  0  0  0  0  0  0
    9.0475  -14.7322   18.6416 C   0  0  1  0  0  0  0  0  0  0  0  0
    9.8883  -14.0440   19.4987 O   0  0  0  0  0  0  0  0  0  0  0  0
    7.6117  -14.2781   18.9191 C   0  0  2  0  0  0  0  0  0  0  0  0
    7.5365  -12.8383   18.7529 N   0  0  0  0  0  0  0  0  0  0  0  0
    7.2845  -14.6342   20.3252 C   0  0  0  0  0  0  0  0  0  0  0  0
    7.5594  -13.8296   21.2524 O   0  0  0  0  0  0  0  0  0  0  0  0
    5.5800  -17.8337   23.4869 O   0  0  0  0  0  0  0  0  0  0  0  0
    5.8688  -17.6132   22.1304 C   0  0  0  0  0  0  0  0  0  0  0  0
    6.4286  -16.1927   22.0327 C   0  0  2  0  0  0  0  0  0  0  0  0
    6.6682  -15.8631   20.6451 N   0  0  0  0  0  0  0  0  0  0  0  0
    7.6663  -16.1501   22.8408 C   0  0  0  0  0  0  0  0  0  0  0  0
    8.7187  -16.5462   22.2625 O   0  0  0  0  0  0  0  0  0  0  0  0
    7.6734  -15.6925   24.1839 N   0  0  0  0  0  0  0  0  0  0  0  0
    8.9677  -15.6785   24.8635 C   0  0  1  0  0  0  0  0  0  0  0  0
    9.2934  -14.2059   25.0582 C   0  0  0  0  0  0  0  0  0  0  0  0
    8.2266  -13.4859   25.7924 C   0  0  0  0  0  0  0  0  0  0  0  0
    8.2909  -13.3048   27.1763 C   0  0  0  0  0  0  0  0  0  0  0  0
    7.2770  -12.6196   27.7884 C   0  0  0  0  0  0  0  0  0  0  0  0
    6.2308  -12.1288   27.0503 C   0  0  0  0  0  0  0  0  0  0  0  0
    6.1477  -12.2946   25.6928 C   0  0  0  0  0  0  0  0  0  0  0  0
    7.1680  -12.9858   25.0648 C   0  0  0  0  0  0  0  0  0  0  0  0
    8.7578  -16.3268   26.1784 C   0  0  0  0  0  0  0  0  0  0  0  0
    7.6236  -16.7200   26.5467 O   0  0  0  0  0  0  0  0  0  0  0  0
    9.7988  -16.5450   27.0945 O   0  0  0  0  0  0  0  0  0  0  0  0
  2  1  1  6
  3  2  1  0
  4  6  1  0
  4  2  1  0
  4  5  1  1
  6  7  2  0
  9  8  1  0
 10  9  1  6
 10 12  1  0
 11 10  1  0
 11  6  1  0
 12 13  2  0
 12 14  1  0
 14 15  1  0
 15 16  1  1
 16 17  1  0
 17 18  2  0
 18 19  1  0
 20 19  2  0
 21 20  1  0
 22 17  1  0
 22 21  2  0
 23 25  1  0
 23 15  1  0
 24 23  2  0
M  END
$$$$
