TSF.pdb
     RDKit          3D

 25 25  0  0  1  0  0  0  0  0999 V2000
    9.5075  -20.2384   19.4905 C   0  0  0  0  0  0  0  0  0  0  0  0
    9.5522  -19.0163   20.3548 C   0  0  1  0  0  0  0  0  0  0  0  0
   10.4905  -19.1439   21.3640 O   0  0  0  0  0  0  0  0  0  0  0  0
    9.8950  -17.7637   19.5435 C   0  0  2  0  0  0  0  0  0  0  0  0
   11.2449  -17.8959   19.0275 N   0  0  0  0  0  0  0  0  0  0  0  0
    9.8249  -16.5941   20.4591 C   0  0  0  0  0  0  0  0  0  0  0  0
   10.8860  -16.0901   20.9092 O   0  0  0  0  0  0  0  0  0  0  0  0
    6.2175  -15.1427   21.7312 O   0  0  0  0  0  0  0  0  0  0  0  0
    7.2530  -14.1945   21.7036 C   0  0  0  0  0  0  0  0  0  0  0  0
    8.5610  -14.9786   21.8265 C   0  0  2  0  0  0  0  0  0  0  0  0
    8.5861  -16.0330   20.8369 N   0  0  0  0  0  0  0  0  0  0  0  0
    8.6322  -15.5037   23.2070 C   0  0  0  0  0  0  0  0  0  0  0  0
    8.0898  -16.6296   23.3996 O   0  0  0  0  0  0  0  0  0  0  0  0
    9.2703  -14.7880   24.2530 N   0  0  0  0  0  0  0  0  0  0  0  0
    9.1261  -15.3335   25.6017 C   0  0  1  0  0  0  0  0  0  0  0  0
    7.6331  -15.2863   25.8871 C   0  0  0  0  0  0  0  0  0  0  0  0
    7.1554  -13.9104   26.1590 C   0  0  0  0  0  0  0  0  0  0  0  0
    8.0498  -12.8613   26.3861 C   0  0  0  0  0  0  0  0  0  0  0  0
    7.5398  -11.6132   26.6189 C   0  0  0  0  0  0  0  0  0  0  0  0
    6.1835  -11.4115   26.6263 C   0  0  0  0  0  0  0  0  0  0  0  0
    5.2886  -12.4253   26.4060 C   0  0  0  0  0  0  0  0  0  0  0  0
    5.7945  -13.6907   26.1695 C   0  0  0  0  0  0  0  0  0  0  0  0
    9.5828  -16.7407   25.5358 C   0  0  0  0  0  0  0  0  0  0  0  0
    9.5746  -17.4851   26.5471 O   0  0  0  0  0  0  0  0  0  0  0  0
   10.0511  -17.3346   24.3533 O   0  0  0  0  0  0  0  0  0  0  0  0
  2  1  1  6
  3  2  1  0
  4  6  1  0
  4  2  1  0
  4  5  1  1
  6  7  2  0
  9  8  1  0
 10  9  1  1
 10 12  1  0
 11 10  1  0
 11  6  1  0
 12 13  2  0
 12 14  1  0
 14 15  1  0
 15 16  1  6
 16 17  1  0
 17 18  2  0
 18 19  1  0
 20 19  2  0
 21 20  1  0
 22 17  1  0
 22 21  2  0
 23 25  1  0
 23 15  1  0
 24 23  2  0
M  END
$$$$
