TSF.pdb
     RDKit          3D

 25 25  0  0  1  0  0  0  0  0999 V2000
    9.9497  -12.7311   19.6991 C   0  0  0  0  0  0  0  0  0  0  0  0
    8.9000  -12.9640   18.6568 C   0  0  1  0  0  0  0  0  0  0  0  0
    9.2897  -12.4663   17.4257 O   0  0  0  0  0  0  0  0  0  0  0  0
    8.5911  -14.4545   18.4900 C   0  0  2  0  0  0  0  0  0  0  0  0
    7.5685  -14.6089   17.4719 N   0  0  0  0  0  0  0  0  0  0  0  0
    8.0791  -14.9623   19.7904 C   0  0  0  0  0  0  0  0  0  0  0  0
    7.0173  -14.4884   20.2704 O   0  0  0  0  0  0  0  0  0  0  0  0
    9.3852  -18.4278   21.3466 O   0  0  0  0  0  0  0  0  0  0  0  0
    8.1333  -17.9499   21.7666 C   0  0  0  0  0  0  0  0  0  0  0  0
    8.2320  -16.4232   21.7702 C   0  0  2  0  0  0  0  0  0  0  0  0
    8.7624  -15.9712   20.5029 N   0  0  0  0  0  0  0  0  0  0  0  0
    9.0955  -16.0400   22.9079 C   0  0  0  0  0  0  0  0  0  0  0  0
   10.3295  -15.9317   22.6542 O   0  0  0  0  0  0  0  0  0  0  0  0
    8.5717  -15.8077   24.2060 N   0  0  0  0  0  0  0  0  0  0  0  0
    9.5453  -15.6073   25.2781 C   0  0  1  0  0  0  0  0  0  0  0  0
    9.5510  -14.1074   25.5285 C   0  0  0  0  0  0  0  0  0  0  0  0
    8.2195  -13.5995   25.9343 C   0  0  0  0  0  0  0  0  0  0  0  0
    7.1435  -13.5857   25.0430 C   0  0  0  0  0  0  0  0  0  0  0  0
    5.9387  -13.1143   25.4882 C   0  0  0  0  0  0  0  0  0  0  0  0
    5.8048  -12.6699   26.7785 C   0  0  0  0  0  0  0  0  0  0  0  0
    6.8460  -12.6746   27.6690 C   0  0  0  0  0  0  0  0  0  0  0  0
    8.0681  -13.1495   27.2284 C   0  0  0  0  0  0  0  0  0  0  0  0
    9.0131  -16.3148   26.4653 C   0  0  0  0  0  0  0  0  0  0  0  0
    9.6251  -16.3165   27.5618 O   0  0  0  0  0  0  0  0  0  0  0  0
    7.8022  -17.0247   26.4492 O   0  0  0  0  0  0  0  0  0  0  0  0
  2  1  1  1
  3  2  1  0
  4  6  1  0
  4  2  1  0
  4  5  1  6
  6  7  2  0
  9  8  1  0
 10  9  1  6
 10 12  1  0
 11 10  1  0
 11  6  1  0
 12 13  2  0
 12 14  1  0
 14 15  1  0
 15 16  1  1
 16 17  1  0
 17 18  2  0
 18 19  1  0
 20 19  2  0
 21 20  1  0
 22 17  1  0
 22 21  2  0
 23 25  1  0
 23 15  1  0
 24 23  2  0
M  END
$$$$
