TSF.pdb
     RDKit          3D

 25 25  0  0  1  0  0  0  0  0999 V2000
    9.9274  -14.1810   17.7650 C   0  0  0  0  0  0  0  0  0  0  0  0
    9.3853  -14.5054   19.1227 C   0  0  1  0  0  0  0  0  0  0  0  0
   10.0564  -13.8121   20.1147 O   0  0  0  0  0  0  0  0  0  0  0  0
    7.8960  -14.1667   19.2314 C   0  0  2  0  0  0  0  0  0  0  0  0
    7.7260  -12.7385   19.0375 N   0  0  0  0  0  0  0  0  0  0  0  0
    7.4417  -14.5408   20.5969 C   0  0  0  0  0  0  0  0  0  0  0  0
    7.2417  -13.6432   21.4553 O   0  0  0  0  0  0  0  0  0  0  0  0
    7.4089  -18.4510   22.0122 O   0  0  0  0  0  0  0  0  0  0  0  0
    6.3001  -17.6553   22.3428 C   0  0  0  0  0  0  0  0  0  0  0  0
    6.7793  -16.2032   22.2924 C   0  0  2  0  0  0  0  0  0  0  0  0
    7.2285  -15.8897   20.9540 N   0  0  0  0  0  0  0  0  0  0  0  0
    7.8581  -16.0600   23.2937 C   0  0  0  0  0  0  0  0  0  0  0  0
    9.0313  -15.9602   22.8327 O   0  0  0  0  0  0  0  0  0  0  0  0
    7.5936  -16.0361   24.6875 N   0  0  0  0  0  0  0  0  0  0  0  0
    8.7323  -15.7707   25.5651 C   0  0  1  0  0  0  0  0  0  0  0  0
    8.1211  -15.2409   26.8528 C   0  0  0  0  0  0  0  0  0  0  0  0
    7.4396  -13.9396   26.6585 C   0  0  0  0  0  0  0  0  0  0  0  0
    6.0502  -13.8251   26.7513 C   0  0  0  0  0  0  0  0  0  0  0  0
    5.4879  -12.5906   26.5726 C   0  0  0  0  0  0  0  0  0  0  0  0
    6.2796  -11.5023   26.3099 C   0  0  0  0  0  0  0  0  0  0  0  0
    7.6435  -11.5917   26.2149 C   0  0  0  0  0  0  0  0  0  0  0  0
    8.2214  -12.8355   26.3941 C   0  0  0  0  0  0  0  0  0  0  0  0
    9.3821  -17.0777   25.8156 C   0  0  0  0  0  0  0  0  0  0  0  0
    8.8600  -18.1567   25.4414 O   0  0  0  0  0  0  0  0  0  0  0  0
   10.6120  -17.2015   26.4807 O   0  0  0  0  0  0  0  0  0  0  0  0
  2  1  1  6
  3  2  1  0
  4  6  1  0
  4  2  1  0
  4  5  1  1
  6  7  2  0
  9  8  1  0
 10  9  1  6
 10 12  1  0
 11 10  1  0
 11  6  1  0
 12 13  2  0
 12 14  1  0
 14 15  1  0
 15 16  1  1
 16 17  1  0
 17 18  2  0
 18 19  1  0
 20 19  2  0
 21 20  1  0
 22 17  1  0
 22 21  2  0
 23 25  1  0
 23 15  1  0
 24 23  2  0
M  END
$$$$
