TSF.pdb
     RDKit          3D

 25 25  0  0  1  0  0  0  0  0999 V2000
    9.4976  -12.5676   20.4694 C   0  0  0  0  0  0  0  0  0  0  0  0
    8.5060  -12.8704   19.3888 C   0  0  1  0  0  0  0  0  0  0  0  0
    8.8245  -12.2164   18.2116 O   0  0  0  0  0  0  0  0  0  0  0  0
    8.4339  -14.3712   19.0935 C   0  0  2  0  0  0  0  0  0  0  0  0
    7.3900  -14.6050   18.1128 N   0  0  0  0  0  0  0  0  0  0  0  0
    8.0913  -15.0694   20.3608 C   0  0  0  0  0  0  0  0  0  0  0  0
    6.8955  -15.1043   20.7499 O   0  0  0  0  0  0  0  0  0  0  0  0
   10.5882  -17.7757   21.7627 O   0  0  0  0  0  0  0  0  0  0  0  0
    9.2404  -17.9125   22.1326 C   0  0  0  0  0  0  0  0  0  0  0  0
    8.6868  -16.4941   22.2824 C   0  0  2  0  0  0  0  0  0  0  0  0
    9.0844  -15.6982   21.1422 N   0  0  0  0  0  0  0  0  0  0  0  0
    9.2075  -15.9498   23.5549 C   0  0  0  0  0  0  0  0  0  0  0  0
   10.3192  -15.3510   23.4870 O   0  0  0  0  0  0  0  0  0  0  0  0
    8.5030  -16.0905   24.7786 N   0  0  0  0  0  0  0  0  0  0  0  0
    9.1842  -15.6200   25.9835 C   0  0  1  0  0  0  0  0  0  0  0  0
    8.0688  -15.3047   26.9678 C   0  0  0  0  0  0  0  0  0  0  0  0
    7.3913  -14.0236   26.6590 C   0  0  0  0  0  0  0  0  0  0  0  0
    8.0617  -12.8023   26.7641 C   0  0  0  0  0  0  0  0  0  0  0  0
    7.3787  -11.6586   26.4518 C   0  0  0  0  0  0  0  0  0  0  0  0
    6.0701  -11.7241   26.0473 C   0  0  0  0  0  0  0  0  0  0  0  0
    5.3936  -12.9104   25.9371 C   0  0  0  0  0  0  0  0  0  0  0  0
    6.0756  -14.0722   26.2505 C   0  0  0  0  0  0  0  0  0  0  0  0
    9.9895  -16.7588   26.4816 C   0  0  0  0  0  0  0  0  0  0  0  0
    9.8668  -17.9131   26.0027 O   0  0  0  0  0  0  0  0  0  0  0  0
   10.9348  -16.6301   27.5113 O   0  0  0  0  0  0  0  0  0  0  0  0
  2  1  1  1
  3  2  1  0
  4  6  1  0
  4  2  1  0
  4  5  1  6
  6  7  2  0
  9  8  1  0
 10  9  1  6
 10 12  1  0
 11 10  1  0
 11  6  1  0
 12 13  2  0
 12 14  1  0
 14 15  1  0
 15 16  1  1
 16 17  1  0
 17 18  2  0
 18 19  1  0
 20 19  2  0
 21 20  1  0
 22 17  1  0
 22 21  2  0
 23 25  1  0
 23 15  1  0
 24 23  2  0
M  END
$$$$
