TSF.pdb
     RDKit          3D

 25 25  0  0  1  0  0  0  0  0999 V2000
   10.3578  -15.4729   19.3858 C   0  0  0  0  0  0  0  0  0  0  0  0
    9.7477  -14.2251   18.8260 C   0  0  1  0  0  0  0  0  0  0  0  0
   10.2293  -13.9509   17.5579 O   0  0  0  0  0  0  0  0  0  0  0  0
    8.2225  -14.3313   18.7417 C   0  0  2  0  0  0  0  0  0  0  0  0
    7.6961  -13.0886   18.2082 N   0  0  0  0  0  0  0  0  0  0  0  0
    7.7032  -14.5408   20.1192 C   0  0  0  0  0  0  0  0  0  0  0  0
    7.7292  -13.5932   20.9462 O   0  0  0  0  0  0  0  0  0  0  0  0
    7.0134  -18.2838   21.4303 O   0  0  0  0  0  0  0  0  0  0  0  0
    6.1725  -17.3630   22.0762 C   0  0  0  0  0  0  0  0  0  0  0  0
    6.8264  -15.9898   21.9105 C   0  0  2  0  0  0  0  0  0  0  0  0
    7.1780  -15.7874   20.5223 N   0  0  0  0  0  0  0  0  0  0  0  0
    8.0080  -15.9542   22.7990 C   0  0  0  0  0  0  0  0  0  0  0  0
    9.1126  -16.2575   22.2633 O   0  0  0  0  0  0  0  0  0  0  0  0
    7.9091  -15.6011   24.1697 N   0  0  0  0  0  0  0  0  0  0  0  0
    9.1492  -15.6285   24.9434 C   0  0  1  0  0  0  0  0  0  0  0  0
    9.4062  -14.1791   25.3254 C   0  0  0  0  0  0  0  0  0  0  0  0
    8.2147  -13.5361   25.9272 C   0  0  0  0  0  0  0  0  0  0  0  0
    7.1704  -13.0531   25.1345 C   0  0  0  0  0  0  0  0  0  0  0  0
    6.0945  -12.4815   25.7572 C   0  0  0  0  0  0  0  0  0  0  0  0
    6.0553  -12.3915   27.1249 C   0  0  0  0  0  0  0  0  0  0  0  0
    7.0677  -12.8584   27.9213 C   0  0  0  0  0  0  0  0  0  0  0  0
    8.1597  -13.4382   27.3011 C   0  0  0  0  0  0  0  0  0  0  0  0
    8.8681  -16.4279   26.1580 C   0  0  0  0  0  0  0  0  0  0  0  0
    9.7290  -16.5850   27.0585 O   0  0  0  0  0  0  0  0  0  0  0  0
    7.6349  -17.0587   26.3857 O   0  0  0  0  0  0  0  0  0  0  0  0
  2  1  1  6
  3  2  1  0
  4  6  1  0
  4  2  1  0
  4  5  1  1
  6  7  2  0
  9  8  1  0
 10  9  1  6
 10 12  1  0
 11 10  1  0
 11  6  1  0
 12 13  2  0
 12 14  1  0
 14 15  1  0
 15 16  1  1
 16 17  1  0
 17 18  2  0
 18 19  1  0
 20 19  2  0
 21 20  1  0
 22 17  1  0
 22 21  2  0
 23 25  1  0
 23 15  1  0
 24 23  2  0
M  END
$$$$
