TSF.pdb
     RDKit          3D

 25 25  0  0  1  0  0  0  0  0999 V2000
    8.7363  -12.4219   20.3905 C   0  0  0  0  0  0  0  0  0  0  0  0
    8.0940  -12.9898   19.1627 C   0  0  1  0  0  0  0  0  0  0  0  0
    8.4894  -12.3101   18.0240 O   0  0  0  0  0  0  0  0  0  0  0  0
    8.4417  -14.4695   18.9770 C   0  0  2  0  0  0  0  0  0  0  0  0
    7.7482  -14.9690   17.8041 N   0  0  0  0  0  0  0  0  0  0  0  0
    7.9722  -15.2029   20.1823 C   0  0  0  0  0  0  0  0  0  0  0  0
    6.7527  -15.4863   20.3042 O   0  0  0  0  0  0  0  0  0  0  0  0
    9.9909  -17.9978   22.0236 O   0  0  0  0  0  0  0  0  0  0  0  0
    8.6016  -17.8215   22.1273 C   0  0  0  0  0  0  0  0  0  0  0  0
    8.3703  -16.3244   22.3412 C   0  0  2  0  0  0  0  0  0  0  0  0
    8.8706  -15.5910   21.1995 N   0  0  0  0  0  0  0  0  0  0  0  0
    9.0576  -15.9469   23.5950 C   0  0  0  0  0  0  0  0  0  0  0  0
   10.2799  -15.6419   23.4858 O   0  0  0  0  0  0  0  0  0  0  0  0
    8.3869  -15.9278   24.8452 N   0  0  0  0  0  0  0  0  0  0  0  0
    9.1901  -15.5698   26.0131 C   0  0  1  0  0  0  0  0  0  0  0  0
    8.1861  -15.0828   27.0463 C   0  0  0  0  0  0  0  0  0  0  0  0
    7.5582  -13.7979   26.6587 C   0  0  0  0  0  0  0  0  0  0  0  0
    6.2557  -13.7473   26.1557 C   0  0  0  0  0  0  0  0  0  0  0  0
    5.7336  -12.5255   25.8291 C   0  0  0  0  0  0  0  0  0  0  0  0
    6.4808  -11.3879   25.9964 C   0  0  0  0  0  0  0  0  0  0  0  0
    7.7594  -11.4143   26.4880 C   0  0  0  0  0  0  0  0  0  0  0  0
    8.2960  -12.6449   26.8212 C   0  0  0  0  0  0  0  0  0  0  0  0
    9.8295  -16.8208   26.4817 C   0  0  0  0  0  0  0  0  0  0  0  0
   10.7053  -16.8173   27.3815 O   0  0  0  0  0  0  0  0  0  0  0  0
    9.5058  -18.0830   25.9598 O   0  0  0  0  0  0  0  0  0  0  0  0
  2  1  1  1
  3  2  1  0
  4  6  1  0
  4  2  1  0
  4  5  1  6
  6  7  2  0
  9  8  1  0
 10  9  1  6
 10 12  1  0
 11 10  1  0
 11  6  1  0
 12 13  2  0
 12 14  1  0
 14 15  1  0
 15 16  1  1
 16 17  1  0
 17 18  2  0
 18 19  1  0
 20 19  2  0
 21 20  1  0
 22 17  1  0
 22 21  2  0
 23 25  1  0
 23 15  1  0
 24 23  2  0
M  END
$$$$
