TSF.pdb
     RDKit          3D

 25 25  0  0  1  0  0  0  0  0999 V2000
    9.8302  -13.1582   18.1541 C   0  0  0  0  0  0  0  0  0  0  0  0
    9.3943  -13.8068   19.4316 C   0  0  1  0  0  0  0  0  0  0  0  0
    9.6262  -12.9855   20.5211 O   0  0  0  0  0  0  0  0  0  0  0  0
    7.9032  -14.1542   19.4080 C   0  0  2  0  0  0  0  0  0  0  0  0
    7.1426  -12.9359   19.2001 N   0  0  0  0  0  0  0  0  0  0  0  0
    7.5509  -14.7413   20.7279 C   0  0  0  0  0  0  0  0  0  0  0  0
    6.9157  -14.0525   21.5673 O   0  0  0  0  0  0  0  0  0  0  0  0
    8.8759  -18.4486   21.8168 O   0  0  0  0  0  0  0  0  0  0  0  0
    7.5979  -18.1291   22.3032 C   0  0  0  0  0  0  0  0  0  0  0  0
    7.5204  -16.6017   22.3451 C   0  0  2  0  0  0  0  0  0  0  0  0
    7.9156  -16.0633   21.0624 N   0  0  0  0  0  0  0  0  0  0  0  0
    8.4028  -16.1454   23.4405 C   0  0  0  0  0  0  0  0  0  0  0  0
    9.5217  -15.6725   23.0892 O   0  0  0  0  0  0  0  0  0  0  0  0
    8.0181  -16.2327   24.8035 N   0  0  0  0  0  0  0  0  0  0  0  0
    8.9733  -15.7245   25.7867 C   0  0  1  0  0  0  0  0  0  0  0  0
    8.1185  -15.1908   26.9256 C   0  0  0  0  0  0  0  0  0  0  0  0
    7.4357  -13.9244   26.5712 C   0  0  0  0  0  0  0  0  0  0  0  0
    6.0567  -13.8783   26.3511 C   0  0  0  0  0  0  0  0  0  0  0  0
    5.4898  -12.6728   26.0391 C   0  0  0  0  0  0  0  0  0  0  0  0
    6.2670  -11.5468   25.9482 C   0  0  0  0  0  0  0  0  0  0  0  0
    7.6204  -11.5690   26.1601 C   0  0  0  0  0  0  0  0  0  0  0  0
    8.2029  -12.7831   26.4762 C   0  0  0  0  0  0  0  0  0  0  0  0
    9.7591  -16.8912   26.2498 C   0  0  0  0  0  0  0  0  0  0  0  0
   10.7265  -16.7636   27.0401 O   0  0  0  0  0  0  0  0  0  0  0  0
    9.4817  -18.2058   25.8432 O   0  0  0  0  0  0  0  0  0  0  0  0
  2  1  1  6
  3  2  1  0
  4  6  1  0
  4  2  1  0
  4  5  1  1
  6  7  2  0
  9  8  1  0
 10  9  1  6
 10 12  1  0
 11 10  1  0
 11  6  1  0
 12 13  2  0
 12 14  1  0
 14 15  1  0
 15 16  1  1
 16 17  1  0
 17 18  2  0
 18 19  1  0
 20 19  2  0
 21 20  1  0
 22 17  1  0
 22 21  2  0
 23 25  1  0
 23 15  1  0
 24 23  2  0
M  END
$$$$
