TSF.pdb
     RDKit          3D

 25 25  0  0  1  0  0  0  0  0999 V2000
    8.9118  -12.6389   20.5116 C   0  0  0  0  0  0  0  0  0  0  0  0
    8.2072  -13.0753   19.2644 C   0  0  1  0  0  0  0  0  0  0  0  0
    8.7282  -12.4520   18.1441 O   0  0  0  0  0  0  0  0  0  0  0  0
    8.3120  -14.5889   19.0573 C   0  0  2  0  0  0  0  0  0  0  0  0
    7.5043  -14.9608   17.9103 N   0  0  0  0  0  0  0  0  0  0  0  0
    7.7805  -15.2539   20.2764 C   0  0  0  0  0  0  0  0  0  0  0  0
    6.5485  -15.2059   20.5261 O   0  0  0  0  0  0  0  0  0  0  0  0
    9.5300  -18.3408   21.8483 O   0  0  0  0  0  0  0  0  0  0  0  0
    8.2028  -18.0851   22.2296 C   0  0  0  0  0  0  0  0  0  0  0  0
    8.0707  -16.5652   22.3436 C   0  0  2  0  0  0  0  0  0  0  0  0
    8.6333  -15.9424   21.1659 N   0  0  0  0  0  0  0  0  0  0  0  0
    8.7666  -16.1539   23.5819 C   0  0  0  0  0  0  0  0  0  0  0  0
    9.9698  -15.7896   23.4456 O   0  0  0  0  0  0  0  0  0  0  0  0
    8.1238  -16.1669   24.8469 N   0  0  0  0  0  0  0  0  0  0  0  0
    8.9128  -15.7018   25.9864 C   0  0  1  0  0  0  0  0  0  0  0  0
    7.8921  -15.1691   26.9798 C   0  0  0  0  0  0  0  0  0  0  0  0
    7.3519  -13.8490   26.5785 C   0  0  0  0  0  0  0  0  0  0  0  0
    6.0923  -13.7280   25.9861 C   0  0  0  0  0  0  0  0  0  0  0  0
    5.6505  -12.4770   25.6516 C   0  0  0  0  0  0  0  0  0  0  0  0
    6.4343  -11.3790   25.8972 C   0  0  0  0  0  0  0  0  0  0  0  0
    7.6720  -11.4745   26.4770 C   0  0  0  0  0  0  0  0  0  0  0  0
    8.1274  -12.7350   26.8190 C   0  0  0  0  0  0  0  0  0  0  0  0
    9.5855  -16.8965   26.5461 C   0  0  0  0  0  0  0  0  0  0  0  0
    9.2590  -18.0594   26.2024 O   0  0  0  0  0  0  0  0  0  0  0  0
   10.6226  -16.8148   27.4885 O   0  0  0  0  0  0  0  0  0  0  0  0
  2  1  1  1
  3  2  1  0
  4  6  1  0
  4  2  1  0
  4  5  1  6
  6  7  2  0
  9  8  1  0
 10  9  1  6
 10 12  1  0
 11 10  1  0
 11  6  1  0
 12 13  2  0
 12 14  1  0
 14 15  1  0
 15 16  1  1
 16 17  1  0
 17 18  2  0
 18 19  1  0
 20 19  2  0
 21 20  1  0
 22 17  1  0
 22 21  2  0
 23 25  1  0
 23 15  1  0
 24 23  2  0
M  END
$$$$
