TSF.pdb
     RDKit          3D

 25 25  0  0  1  0  0  0  0  0999 V2000
    9.3021  -14.7807   16.9483 C   0  0  0  0  0  0  0  0  0  0  0  0
    9.0309  -14.9588   18.4103 C   0  0  1  0  0  0  0  0  0  0  0  0
   10.0062  -14.3537   19.1835 O   0  0  0  0  0  0  0  0  0  0  0  0
    7.6754  -14.3685   18.8088 C   0  0  2  0  0  0  0  0  0  0  0  0
    7.7147  -12.9314   18.6104 N   0  0  0  0  0  0  0  0  0  0  0  0
    7.4541  -14.6659   20.2488 C   0  0  0  0  0  0  0  0  0  0  0  0
    7.7547  -13.8060   21.1165 O   0  0  0  0  0  0  0  0  0  0  0  0
    6.8516  -18.4083   21.7340 O   0  0  0  0  0  0  0  0  0  0  0  0
    5.9477  -17.4680   22.2546 C   0  0  0  0  0  0  0  0  0  0  0  0
    6.5947  -16.0947   22.0645 C   0  0  2  0  0  0  0  0  0  0  0  0
    6.9106  -15.8997   20.6668 N   0  0  0  0  0  0  0  0  0  0  0  0
    7.7984  -16.0519   22.9225 C   0  0  0  0  0  0  0  0  0  0  0  0
    8.8855  -16.3823   22.3676 O   0  0  0  0  0  0  0  0  0  0  0  0
    7.7379  -15.6638   24.2860 N   0  0  0  0  0  0  0  0  0  0  0  0
    8.9958  -15.6917   25.0305 C   0  0  1  0  0  0  0  0  0  0  0  0
    9.3351  -14.2311   25.2838 C   0  0  0  0  0  0  0  0  0  0  0  0
    8.2238  -13.5003   25.9368 C   0  0  0  0  0  0  0  0  0  0  0  0
    8.2113  -13.2769   27.3160 C   0  0  0  0  0  0  0  0  0  0  0  0
    7.1598  -12.5840   27.8512 C   0  0  0  0  0  0  0  0  0  0  0  0
    6.1511  -12.1264   27.0429 C   0  0  0  0  0  0  0  0  0  0  0  0
    6.1432  -12.3340   25.6886 C   0  0  0  0  0  0  0  0  0  0  0  0
    7.2020  -13.0333   25.1381 C   0  0  0  0  0  0  0  0  0  0  0  0
    8.7082  -16.3726   26.3139 C   0  0  0  0  0  0  0  0  0  0  0  0
    7.5577  -16.7887   26.5968 O   0  0  0  0  0  0  0  0  0  0  0  0
    9.6888  -16.5981   27.2926 O   0  0  0  0  0  0  0  0  0  0  0  0
  2  1  1  6
  3  2  1  0
  4  6  1  0
  4  2  1  0
  4  5  1  1
  6  7  2  0
  9  8  1  0
 10  9  1  6
 10 12  1  0
 11 10  1  0
 11  6  1  0
 12 13  2  0
 12 14  1  0
 14 15  1  0
 15 16  1  1
 16 17  1  0
 17 18  2  0
 18 19  1  0
 20 19  2  0
 21 20  1  0
 22 17  1  0
 22 21  2  0
 23 25  1  0
 23 15  1  0
 24 23  2  0
M  END
$$$$
