LLM.pdb
     RDKit          3D

 25 24  0  0  1  0  0  0  0  0999 V2000
   21.2146  -18.2450  -15.2202 C   0  0  0  0  0  0  0  0  0  0  0  0
   22.2640  -19.0215  -15.9787 C   0  0  2  0  0  0  0  0  0  0  0  0
   21.6879  -19.6607  -17.2013 C   0  0  0  0  0  0  0  0  0  0  0  0
   23.0198  -19.9630  -15.1017 C   0  0  0  0  0  0  0  0  0  0  0  0
   23.5390  -19.3686  -13.8371 C   0  0  2  0  0  0  0  0  0  0  0  0
   24.0854  -18.0373  -13.9962 N   0  0  0  0  0  0  0  0  0  0  0  0
   24.6509  -20.2365  -13.3239 C   0  0  0  0  0  0  0  0  0  0  0  0
   24.5197  -21.4817  -13.2321 O   0  0  0  0  0  0  0  0  0  0  0  0
   30.8040  -20.1730  -12.0233 C   0  0  0  0  0  0  0  0  0  0  0  0
   29.4708  -20.8250  -12.1489 C   0  0  2  0  0  0  0  0  0  0  0  0
   29.5952  -21.8971  -13.2462 C   0  0  0  0  0  0  0  0  0  0  0  0
   28.3338  -19.9687  -12.5374 C   0  0  0  0  0  0  0  0  0  0  0  0
   26.9571  -20.5153  -12.3955 C   0  0  2  0  0  0  0  0  0  0  0  0
   25.8989  -19.6959  -12.9191 N   0  0  0  0  0  0  0  0  0  0  0  0
   26.6662  -20.9821  -11.0113 C   0  0  0  0  0  0  0  0  0  0  0  0
   27.1653  -22.0631  -10.6061 O   0  0  0  0  0  0  0  0  0  0  0  0
   28.8811  -19.3858   -5.7579 C   0  0  0  0  0  0  0  0  0  0  0  0
   27.1652  -19.3713   -5.1765 S   0  0  0  0  0  0  0  0  0  0  0  0
   26.1165  -20.3241   -6.3375 C   0  0  0  0  0  0  0  0  0  0  0  0
   26.4065  -19.9308   -7.7572 C   0  0  0  0  0  0  0  0  0  0  0  0
   25.6170  -20.7444   -8.7149 C   0  0  2  0  0  0  0  0  0  0  0  0
   25.8459  -20.2726  -10.1019 N   0  0  0  0  0  0  0  0  0  0  0  0
   24.1788  -20.6309   -8.4640 C   0  0  0  0  0  0  0  0  0  0  0  0
   23.4439  -20.0639   -9.3084 O   0  0  0  0  0  0  0  0  0  0  0  0
   23.5696  -21.1223   -7.3335 O   0  0  0  0  0  0  0  0  0  0  0  0
  2  1  1  1
  2  3  1  0
  4  2  1  0
  4  5  1  0
  5  7  1  0
  5  6  1  6
  7  8  2  0
 10  9  1  6
 10 12  1  0
 11 10  1  0
 13 12  1  1
 14 13  1  0
 14  7  1  0
 15 16  2  0
 15 13  1  0
 17 18  1  0
 18 19  1  0
 19 20  1  0
 21 20  1  1
 21 23  1  0
 21 22  1  0
 22 15  1  0
 23 25  1  0
 24 23  2  0
M  END
$$$$
