LLM.pdb
     RDKit          3D

 25 24  0  0  1  0  0  0  0  0999 V2000
   22.2248  -16.5762  -17.9235 C   0  0  0  0  0  0  0  0  0  0  0  0
   23.1770  -16.4427  -16.7594 C   0  0  2  0  0  0  0  0  0  0  0  0
   24.2187  -15.4041  -17.0269 C   0  0  0  0  0  0  0  0  0  0  0  0
   23.7308  -17.7580  -16.3236 C   0  0  0  0  0  0  0  0  0  0  0  0
   24.1294  -17.8310  -14.8891 C   0  0  2  0  0  0  0  0  0  0  0  0
   25.0725  -16.8076  -14.4899 N   0  0  0  0  0  0  0  0  0  0  0  0
   24.7950  -19.1543  -14.6462 C   0  0  0  0  0  0  0  0  0  0  0  0
   24.2782  -20.2285  -15.0400 O   0  0  0  0  0  0  0  0  0  0  0  0
   28.2869  -20.5617  -16.5718 C   0  0  0  0  0  0  0  0  0  0  0  0
   28.6269  -19.9016  -15.2807 C   0  0  2  0  0  0  0  0  0  0  0  0
   30.1624  -19.8690  -15.1821 C   0  0  0  0  0  0  0  0  0  0  0  0
   28.1489  -20.5493  -14.0442 C   0  0  0  0  0  0  0  0  0  0  0  0
   26.6911  -20.5167  -13.7478 C   0  0  2  0  0  0  0  0  0  0  0  0
   26.0344  -19.2565  -13.9629 N   0  0  0  0  0  0  0  0  0  0  0  0
   26.3649  -21.0934  -12.4138 C   0  0  0  0  0  0  0  0  0  0  0  0
   26.7667  -22.2499  -12.1257 O   0  0  0  0  0  0  0  0  0  0  0  0
   26.7107  -18.2421   -7.0608 C   0  0  0  0  0  0  0  0  0  0  0  0
   27.6863  -19.7575   -7.2454 S   0  0  0  0  0  0  0  0  0  0  0  0
   27.0751  -20.7084   -8.6868 C   0  0  0  0  0  0  0  0  0  0  0  0
   25.6504  -20.3473   -8.9934 C   0  0  0  0  0  0  0  0  0  0  0  0
   25.1531  -21.0769  -10.1862 C   0  0  2  0  0  0  0  0  0  0  0  0
   25.6151  -20.4095  -11.4273 N   0  0  0  0  0  0  0  0  0  0  0  0
   23.6899  -21.0951  -10.2382 C   0  0  0  0  0  0  0  0  0  0  0  0
   23.0422  -21.6400   -9.3117 O   0  0  0  0  0  0  0  0  0  0  0  0
   22.9648  -20.5353  -11.2637 O   0  0  0  0  0  0  0  0  0  0  0  0
  2  1  1  6
  2  3  1  0
  4  2  1  0
  4  5  1  0
  5  7  1  0
  5  6  1  6
  7  8  2  0
 10  9  1  6
 10 12  1  0
 11 10  1  0
 13 12  1  1
 14 13  1  0
 14  7  1  0
 15 16  2  0
 15 13  1  0
 17 18  1  0
 18 19  1  0
 19 20  1  0
 21 20  1  1
 21 23  1  0
 21 22  1  0
 22 15  1  0
 23 25  1  0
 24 23  2  0
M  END
$$$$
