LLM.pdb
     RDKit          3D

 25 24  0  0  1  0  0  0  0  0999 V2000
   20.6751  -19.1545  -14.9572 C   0  0  0  0  0  0  0  0  0  0  0  0
   21.7689  -19.5414  -15.9234 C   0  0  2  0  0  0  0  0  0  0  0  0
   21.2022  -20.1034  -17.1876 C   0  0  0  0  0  0  0  0  0  0  0  0
   22.8090  -20.4035  -15.2898 C   0  0  0  0  0  0  0  0  0  0  0  0
   23.2571  -19.9622  -13.9384 C   0  0  2  0  0  0  0  0  0  0  0  0
   23.8625  -18.6471  -13.9219 N   0  0  0  0  0  0  0  0  0  0  0  0
   24.2961  -20.9254  -13.4427 C   0  0  0  0  0  0  0  0  0  0  0  0
   24.0840  -22.1626  -13.4213 O   0  0  0  0  0  0  0  0  0  0  0  0
   28.2826  -18.8801  -13.9784 C   0  0  0  0  0  0  0  0  0  0  0  0
   28.5798  -19.9059  -12.9404 C   0  0  2  0  0  0  0  0  0  0  0  0
   30.0955  -20.1692  -12.9882 C   0  0  0  0  0  0  0  0  0  0  0  0
   27.9289  -21.2221  -13.0852 C   0  0  0  0  0  0  0  0  0  0  0  0
   26.5681  -21.4040  -12.5114 C   0  0  2  0  0  0  0  0  0  0  0  0
   25.5628  -20.4881  -12.9760 N   0  0  0  0  0  0  0  0  0  0  0  0
   26.5823  -21.5075  -11.0256 C   0  0  0  0  0  0  0  0  0  0  0  0
   27.2594  -22.4137  -10.4757 O   0  0  0  0  0  0  0  0  0  0  0  0
   29.2240  -20.0355   -5.6298 C   0  0  0  0  0  0  0  0  0  0  0  0
   27.5778  -19.2955   -5.4725 S   0  0  0  0  0  0  0  0  0  0  0  0
   26.3722  -20.2691   -6.4494 C   0  0  0  0  0  0  0  0  0  0  0  0
   26.5810  -20.0481   -7.9197 C   0  0  0  0  0  0  0  0  0  0  0  0
   25.6875  -20.9143   -8.7281 C   0  0  2  0  0  0  0  0  0  0  0  0
   25.8671  -20.6330  -10.1729 N   0  0  0  0  0  0  0  0  0  0  0  0
   24.2762  -20.6690   -8.4242 C   0  0  0  0  0  0  0  0  0  0  0  0
   23.5412  -20.1253   -9.2838 O   0  0  0  0  0  0  0  0  0  0  0  0
   23.6927  -21.0092   -7.2265 O   0  0  0  0  0  0  0  0  0  0  0  0
  2  1  1  1
  2  3  1  0
  4  2  1  0
  4  5  1  0
  5  7  1  0
  5  6  1  6
  7  8  2  0
 10  9  1  6
 10 12  1  0
 11 10  1  0
 13 12  1  1
 14 13  1  0
 14  7  1  0
 15 16  2  0
 15 13  1  0
 17 18  1  0
 18 19  1  0
 19 20  1  0
 21 20  1  1
 21 23  1  0
 21 22  1  0
 22 15  1  0
 23 25  1  0
 24 23  2  0
M  END
$$$$
