LLM.pdb
     RDKit          3D

 25 24  0  0  1  0  0  0  0  0999 V2000
   25.0191  -27.3307  -23.9929 C   0  0  0  0  0  0  0  0  0  0  0  0
   25.8092  -28.6141  -23.9027 C   0  0  2  0  0  0  0  0  0  0  0  0
   25.0657  -29.7537  -24.5220 C   0  0  0  0  0  0  0  0  0  0  0  0
   26.2937  -28.8878  -22.5181 C   0  0  0  0  0  0  0  0  0  0  0  0
   26.9415  -27.7316  -21.8359 C   0  0  2  0  0  0  0  0  0  0  0  0
   28.3150  -27.5091  -22.2363 N   0  0  0  0  0  0  0  0  0  0  0  0
   26.9567  -27.9973  -20.3587 C   0  0  0  0  0  0  0  0  0  0  0  0
   27.7944  -28.7774  -19.8430 O   0  0  0  0  0  0  0  0  0  0  0  0
   27.7899  -25.2248  -16.8507 C   0  0  0  0  0  0  0  0  0  0  0  0
   26.3667  -25.1998  -17.2888 C   0  0  2  0  0  0  0  0  0  0  0  0
   25.6308  -24.2054  -16.3730 C   0  0  0  0  0  0  0  0  0  0  0  0
   25.6134  -26.4660  -17.2108 C   0  0  0  0  0  0  0  0  0  0  0  0
   26.0587  -27.6061  -18.0568 C   0  0  2  0  0  0  0  0  0  0  0  0
   26.0302  -27.3837  -19.4764 N   0  0  0  0  0  0  0  0  0  0  0  0
   25.4010  -28.8888  -17.6815 C   0  0  0  0  0  0  0  0  0  0  0  0
   24.4349  -29.3115  -18.3670 O   0  0  0  0  0  0  0  0  0  0  0  0
   25.4959  -35.4947  -13.2595 C   0  0  0  0  0  0  0  0  0  0  0  0
   26.1796  -33.8370  -13.5183 S   0  0  0  0  0  0  0  0  0  0  0  0
   25.2471  -32.9899  -14.8481 C   0  0  0  0  0  0  0  0  0  0  0  0
   25.9264  -31.7088  -15.2373 C   0  0  0  0  0  0  0  0  0  0  0  0
   25.1351  -30.9633  -16.2475 C   0  0  2  0  0  0  0  0  0  0  0  0
   25.8012  -29.6805  -16.5787 N   0  0  0  0  0  0  0  0  0  0  0  0
   23.8000  -30.6275  -15.7485 C   0  0  0  0  0  0  0  0  0  0  0  0
   23.6315  -29.5761  -15.0845 O   0  0  0  0  0  0  0  0  0  0  0  0
   22.6926  -31.4115  -15.9714 O   0  0  0  0  0  0  0  0  0  0  0  0
  2  1  1  1
  2  3  1  0
  4  2  1  0
  4  5  1  0
  5  7  1  0
  5  6  1  6
  7  8  2  0
 10  9  1  1
 10 12  1  0
 11 10  1  0
 13 12  1  1
 14 13  1  0
 14  7  1  0
 15 16  2  0
 15 13  1  0
 17 18  1  0
 18 19  1  0
 19 20  1  0
 21 20  1  1
 21 23  1  0
 21 22  1  0
 22 15  1  0
 23 25  1  0
 24 23  2  0
M  END
$$$$
