LLM.pdb
     RDKit          3D

 25 24  0  0  1  0  0  0  0  0999 V2000
   25.1261  -19.2778  -20.0269 C   0  0  0  0  0  0  0  0  0  0  0  0
   26.3486  -19.7357  -19.2683 C   0  0  2  0  0  0  0  0  0  0  0  0
   27.2874  -20.4883  -20.1558 C   0  0  0  0  0  0  0  0  0  0  0  0
   26.0000  -20.4536  -18.0075 C   0  0  0  0  0  0  0  0  0  0  0  0
   25.0144  -19.7544  -17.1348 C   0  0  2  0  0  0  0  0  0  0  0  0
   25.4247  -18.4245  -16.7357 N   0  0  0  0  0  0  0  0  0  0  0  0
   24.8425  -20.5527  -15.8753 C   0  0  0  0  0  0  0  0  0  0  0  0
   24.6638  -21.7949  -15.9075 O   0  0  0  0  0  0  0  0  0  0  0  0
   25.1269  -20.1845   -9.6335 C   0  0  0  0  0  0  0  0  0  0  0  0
   25.0117  -20.9542  -10.9033 C   0  0  2  0  0  0  0  0  0  0  0  0
   26.0555  -22.0836  -10.8418 C   0  0  0  0  0  0  0  0  0  0  0  0
   25.2676  -20.2256  -12.1606 C   0  0  0  0  0  0  0  0  0  0  0  0
   24.5628  -20.6732  -13.3923 C   0  0  2  0  0  0  0  0  0  0  0  0
   24.8730  -19.9464  -14.5927 N   0  0  0  0  0  0  0  0  0  0  0  0
   23.0937  -20.8151  -13.1919 C   0  0  0  0  0  0  0  0  0  0  0  0
   22.6645  -21.4382  -12.1872 O   0  0  0  0  0  0  0  0  0  0  0  0
   18.2370  -16.8310  -15.5515 C   0  0  0  0  0  0  0  0  0  0  0  0
   17.5151  -18.4919  -15.6039 S   0  0  0  0  0  0  0  0  0  0  0  0
   18.4352  -19.5964  -14.4687 C   0  0  0  0  0  0  0  0  0  0  0  0
   19.9135  -19.4890  -14.7085 C   0  0  0  0  0  0  0  0  0  0  0  0
   20.6719  -20.4094  -13.8253 C   0  0  2  0  0  0  0  0  0  0  0  0
   22.1275  -20.2828  -14.0786 N   0  0  0  0  0  0  0  0  0  0  0  0
   20.3219  -21.8093  -14.0745 C   0  0  0  0  0  0  0  0  0  0  0  0
   19.5233  -22.3962  -13.3049 O   0  0  0  0  0  0  0  0  0  0  0  0
   20.8250  -22.5363  -15.1276 O   0  0  0  0  0  0  0  0  0  0  0  0
  2  1  1  6
  2  3  1  0
  4  2  1  0
  4  5  1  0
  5  7  1  0
  5  6  1  1
  7  8  2  0
 10  9  1  1
 10 12  1  0
 11 10  1  0
 13 12  1  1
 14 13  1  0
 14  7  1  0
 15 16  2  0
 15 13  1  0
 17 18  1  0
 18 19  1  0
 19 20  1  0
 21 20  1  6
 21 23  1  0
 21 22  1  0
 22 15  1  0
 23 25  1  0
 24 23  2  0
M  END
$$$$
