LLM.pdb
     RDKit          3D

 25 24  0  0  1  0  0  0  0  0999 V2000
   21.8492  -18.6722  -17.7984 C   0  0  0  0  0  0  0  0  0  0  0  0
   23.2619  -18.3044  -17.4127 C   0  0  2  0  0  0  0  0  0  0  0  0
   24.0880  -17.9864  -18.6175 C   0  0  0  0  0  0  0  0  0  0  0  0
   23.8825  -19.3091  -16.5005 C   0  0  0  0  0  0  0  0  0  0  0  0
   23.0246  -19.7418  -15.3609 C   0  0  2  0  0  0  0  0  0  0  0  0
   22.5825  -18.6540  -14.5138 N   0  0  0  0  0  0  0  0  0  0  0  0
   23.8194  -20.6735  -14.4930 C   0  0  0  0  0  0  0  0  0  0  0  0
   24.3509  -21.7101  -14.9610 O   0  0  0  0  0  0  0  0  0  0  0  0
   25.2194  -18.7752  -10.4673 C   0  0  0  0  0  0  0  0  0  0  0  0
   25.1166  -20.2200  -10.1209 C   0  0  2  0  0  0  0  0  0  0  0  0
   26.1552  -20.4941   -9.0187 C   0  0  0  0  0  0  0  0  0  0  0  0
   25.3903  -21.1935  -11.1954 C   0  0  0  0  0  0  0  0  0  0  0  0
   24.3110  -21.4835  -12.1777 C   0  0  2  0  0  0  0  0  0  0  0  0
   24.0086  -20.4304  -13.1078 N   0  0  0  0  0  0  0  0  0  0  0  0
   23.0824  -22.0273  -11.5346 C   0  0  0  0  0  0  0  0  0  0  0  0
   23.1917  -22.8700  -10.6073 O   0  0  0  0  0  0  0  0  0  0  0  0
   20.9051  -21.7855   -6.7892 C   0  0  0  0  0  0  0  0  0  0  0  0
   19.2076  -21.8851   -7.4146 S   0  0  0  0  0  0  0  0  0  0  0  0
   19.2343  -22.3203   -9.1937 C   0  0  0  0  0  0  0  0  0  0  0  0
   20.4888  -21.8127   -9.8440 C   0  0  0  0  0  0  0  0  0  0  0  0
   20.5695  -22.2347  -11.2644 C   0  0  2  0  0  0  0  0  0  0  0  0
   21.7705  -21.6494  -11.9078 N   0  0  0  0  0  0  0  0  0  0  0  0
   19.4126  -21.7712  -12.0331 C   0  0  0  0  0  0  0  0  0  0  0  0
   18.2939  -22.3122  -11.8588 O   0  0  0  0  0  0  0  0  0  0  0  0
   19.4786  -20.7526  -12.9544 O   0  0  0  0  0  0  0  0  0  0  0  0
  2  1  1  6
  2  3  1  0
  4  2  1  0
  4  5  1  0
  5  7  1  0
  5  6  1  1
  7  8  2  0
 10  9  1  6
 10 12  1  0
 11 10  1  0
 13 12  1  1
 14 13  1  0
 14  7  1  0
 15 16  2  0
 15 13  1  0
 17 18  1  0
 18 19  1  0
 19 20  1  0
 21 20  1  1
 21 23  1  0
 21 22  1  0
 22 15  1  0
 23 25  1  0
 24 23  2  0
M  END
$$$$
