LLM.pdb
     RDKit          3D

 25 24  0  0  1  0  0  0  0  0999 V2000
   15.9919  -11.3085    7.5422 C   0  0  0  0  0  0  0  0  0  0  0  0
   15.8070  -12.2061    6.3423 C   0  0  2  0  0  0  0  0  0  0  0  0
   14.4089  -12.7305    6.2674 C   0  0  0  0  0  0  0  0  0  0  0  0
   16.8562  -13.2637    6.2559 C   0  0  0  0  0  0  0  0  0  0  0  0
   18.2586  -12.7725    6.3730 C   0  0  2  0  0  0  0  0  0  0  0  0
   18.7838  -12.2016    5.1504 N   0  0  0  0  0  0  0  0  0  0  0  0
   19.1424  -13.9335    6.7254 C   0  0  0  0  0  0  0  0  0  0  0  0
   19.4309  -14.8160    5.8804 O   0  0  0  0  0  0  0  0  0  0  0  0
   23.2588  -15.7878   11.0378 C   0  0  0  0  0  0  0  0  0  0  0  0
   22.4624  -16.0343    9.8036 C   0  0  2  0  0  0  0  0  0  0  0  0
   23.4574  -16.4229    8.6956 C   0  0  0  0  0  0  0  0  0  0  0  0
   21.6742  -14.9062    9.2716 C   0  0  0  0  0  0  0  0  0  0  0  0
   20.5257  -15.2078    8.3748 C   0  0  2  0  0  0  0  0  0  0  0  0
   19.6925  -14.0906    8.0239 N   0  0  0  0  0  0  0  0  0  0  0  0
   19.7251  -16.3737    8.8420 C   0  0  0  0  0  0  0  0  0  0  0  0
   18.8055  -16.1952    9.6814 O   0  0  0  0  0  0  0  0  0  0  0  0
   16.4796  -20.1505    5.2224 C   0  0  0  0  0  0  0  0  0  0  0  0
   16.7794  -21.3253    6.5687 S   0  0  0  0  0  0  0  0  0  0  0  0
   17.4017  -20.4271    8.0388 C   0  0  0  0  0  0  0  0  0  0  0  0
   18.6224  -19.6250    7.6915 C   0  0  0  0  0  0  0  0  0  0  0  0
   19.0943  -18.8298    8.8523 C   0  0  2  0  0  0  0  0  0  0  0  0
   19.9368  -17.6992    8.3932 N   0  0  0  0  0  0  0  0  0  0  0  0
   19.9220  -19.6311    9.7563 C   0  0  0  0  0  0  0  0  0  0  0  0
   21.1517  -19.7460    9.5346 O   0  0  0  0  0  0  0  0  0  0  0  0
   19.4220  -20.2783   10.8616 O   0  0  0  0  0  0  0  0  0  0  0  0
  2  1  1  1
  2  3  1  0
  4  2  1  0
  4  5  1  0
  5  7  1  0
  5  6  1  6
  7  8  2  0
 10  9  1  1
 10 12  1  0
 11 10  1  0
 13 12  1  1
 14 13  1  0
 14  7  1  0
 15 16  2  0
 15 13  1  0
 17 18  1  0
 18 19  1  0
 19 20  1  0
 21 20  1  6
 21 23  1  0
 21 22  1  0
 22 15  1  0
 23 25  1  0
 24 23  2  0
M  END
$$$$
