LLM.pdb
     RDKit          3D

 25 24  0  0  1  0  0  0  0  0999 V2000
   24.1527  -18.6231  -17.5836 C   0  0  0  0  0  0  0  0  0  0  0  0
   24.9422  -19.8556  -17.2132 C   0  0  2  0  0  0  0  0  0  0  0  0
   25.0601  -20.7930  -18.3720 C   0  0  0  0  0  0  0  0  0  0  0  0
   24.4410  -20.4979  -15.9630 C   0  0  0  0  0  0  0  0  0  0  0  0
   24.4848  -19.6346  -14.7486 C   0  0  2  0  0  0  0  0  0  0  0  0
   25.8071  -19.1389  -14.4290 N   0  0  0  0  0  0  0  0  0  0  0  0
   24.0278  -20.4453  -13.5708 C   0  0  0  0  0  0  0  0  0  0  0  0
   23.3898  -21.5159  -13.7216 O   0  0  0  0  0  0  0  0  0  0  0  0
   26.7741  -21.6673  -10.1415 C   0  0  0  0  0  0  0  0  0  0  0  0
   26.0025  -20.4298   -9.8387 C   0  0  2  0  0  0  0  0  0  0  0  0
   26.4191  -19.9727   -8.4294 C   0  0  0  0  0  0  0  0  0  0  0  0
   24.5313  -20.5391   -9.8177 C   0  0  0  0  0  0  0  0  0  0  0  0
   23.8233  -20.7920  -11.1018 C   0  0  2  0  0  0  0  0  0  0  0  0
   24.2926  -20.0441  -12.2357 N   0  0  0  0  0  0  0  0  0  0  0  0
   22.3421  -20.7205  -10.9627 C   0  0  0  0  0  0  0  0  0  0  0  0
   21.7750  -19.5978  -10.9619 O   0  0  0  0  0  0  0  0  0  0  0  0
   18.4128  -23.8888  -14.2963 C   0  0  0  0  0  0  0  0  0  0  0  0
   17.1231  -23.2746  -13.1820 S   0  0  0  0  0  0  0  0  0  0  0  0
   17.8967  -22.3820  -11.7819 C   0  0  0  0  0  0  0  0  0  0  0  0
   19.3935  -22.4681  -11.8617 C   0  0  0  0  0  0  0  0  0  0  0  0
   20.0365  -21.7513  -10.7326 C   0  0  2  0  0  0  0  0  0  0  0  0
   21.5124  -21.8592  -10.8281 N   0  0  0  0  0  0  0  0  0  0  0  0
   19.6556  -22.3252   -9.4403 C   0  0  0  0  0  0  0  0  0  0  0  0
   18.4670  -22.2371   -9.0478 O   0  0  0  0  0  0  0  0  0  0  0  0
   20.5420  -22.9729   -8.6124 O   0  0  0  0  0  0  0  0  0  0  0  0
  2  1  1  6
  2  3  1  0
  4  2  1  0
  4  5  1  0
  5  7  1  0
  5  6  1  1
  7  8  2  0
 10  9  1  1
 10 12  1  0
 11 10  1  0
 13 12  1  1
 14 13  1  0
 14  7  1  0
 15 16  2  0
 15 13  1  0
 17 18  1  0
 18 19  1  0
 19 20  1  0
 21 20  1  6
 21 23  1  0
 21 22  1  0
 22 15  1  0
 23 25  1  0
 24 23  2  0
M  END
$$$$
