LLM.pdb
     RDKit          3D

 25 24  0  0  1  0  0  0  0  0999 V2000
   20.3295  -18.5424  -13.9162 C   0  0  0  0  0  0  0  0  0  0  0  0
   20.5220  -19.8534  -14.6399 C   0  0  2  0  0  0  0  0  0  0  0  0
   19.3978  -20.7983  -14.3591 C   0  0  0  0  0  0  0  0  0  0  0  0
   21.8758  -20.4371  -14.4097 C   0  0  0  0  0  0  0  0  0  0  0  0
   23.0065  -19.4721  -14.5212 C   0  0  2  0  0  0  0  0  0  0  0  0
   23.1499  -18.8868  -15.8377 N   0  0  0  0  0  0  0  0  0  0  0  0
   24.2855  -20.2007  -14.2275 C   0  0  0  0  0  0  0  0  0  0  0  0
   24.3419  -21.4547  -14.2405 O   0  0  0  0  0  0  0  0  0  0  0  0
   27.9567  -19.9215  -16.5989 C   0  0  0  0  0  0  0  0  0  0  0  0
   27.9985  -18.9557  -15.4658 C   0  0  2  0  0  0  0  0  0  0  0  0
   29.3264  -18.1860  -15.5787 C   0  0  0  0  0  0  0  0  0  0  0  0
   27.9613  -19.5139  -14.1005 C   0  0  0  0  0  0  0  0  0  0  0  0
   26.7201  -20.2010  -13.6519 C   0  0  2  0  0  0  0  0  0  0  0  0
   25.4881  -19.5120  -13.9220 N   0  0  0  0  0  0  0  0  0  0  0  0
   26.8005  -20.6633  -12.2383 C   0  0  0  0  0  0  0  0  0  0  0  0
   27.6289  -21.5569  -11.9266 O   0  0  0  0  0  0  0  0  0  0  0  0
   29.1299  -19.6454   -6.3049 C   0  0  0  0  0  0  0  0  0  0  0  0
   27.3604  -19.2567   -6.2879 S   0  0  0  0  0  0  0  0  0  0  0  0
   26.4807  -20.3527   -7.4628 C   0  0  0  0  0  0  0  0  0  0  0  0
   26.5670  -19.8091   -8.8597 C   0  0  0  0  0  0  0  0  0  0  0  0
   25.9734  -20.7492   -9.8426 C   0  0  2  0  0  0  0  0  0  0  0  0
   25.9868  -20.1513  -11.1996 N   0  0  0  0  0  0  0  0  0  0  0  0
   24.5747  -21.0482   -9.5286 C   0  0  0  0  0  0  0  0  0  0  0  0
   23.6662  -20.6438  -10.2939 O   0  0  0  0  0  0  0  0  0  0  0  0
   24.1872  -21.7651   -8.4210 O   0  0  0  0  0  0  0  0  0  0  0  0
  2  1  1  1
  2  3  1  0
  4  2  1  0
  4  5  1  0
  5  7  1  0
  5  6  1  6
  7  8  2  0
 10  9  1  6
 10 12  1  0
 11 10  1  0
 13 12  1  1
 14 13  1  0
 14  7  1  0
 15 16  2  0
 15 13  1  0
 17 18  1  0
 18 19  1  0
 19 20  1  0
 21 20  1  1
 21 23  1  0
 21 22  1  0
 22 15  1  0
 23 25  1  0
 24 23  2  0
M  END
$$$$
