LLM.pdb
     RDKit          3D

 25 24  0  0  1  0  0  0  0  0999 V2000
   25.0682  -15.6961  -18.1065 C   0  0  0  0  0  0  0  0  0  0  0  0
   24.3559  -16.7242  -18.9523 C   0  0  2  0  0  0  0  0  0  0  0  0
   23.2444  -16.1049  -19.7375 C   0  0  0  0  0  0  0  0  0  0  0  0
   23.9464  -17.9238  -18.1651 C   0  0  0  0  0  0  0  0  0  0  0  0
   24.9893  -18.4616  -17.2458 C   0  0  2  0  0  0  0  0  0  0  0  0
   26.1187  -19.0595  -17.9264 N   0  0  0  0  0  0  0  0  0  0  0  0
   24.3711  -19.5377  -16.4013 C   0  0  0  0  0  0  0  0  0  0  0  0
   23.7777  -20.5154  -16.9189 O   0  0  0  0  0  0  0  0  0  0  0  0
   26.2905  -22.5966  -13.7610 C   0  0  0  0  0  0  0  0  0  0  0  0
   26.0281  -21.3047  -13.0680 C   0  0  2  0  0  0  0  0  0  0  0  0
   26.5738  -21.4430  -11.6355 C   0  0  0  0  0  0  0  0  0  0  0  0
   24.6203  -20.8840  -12.9331 C   0  0  0  0  0  0  0  0  0  0  0  0
   23.8632  -20.5442  -14.1681 C   0  0  2  0  0  0  0  0  0  0  0  0
   24.4263  -19.5035  -14.9838 N   0  0  0  0  0  0  0  0  0  0  0  0
   22.4131  -20.3243  -13.9086 C   0  0  0  0  0  0  0  0  0  0  0  0
   22.0458  -19.2933  -13.2888 O   0  0  0  0  0  0  0  0  0  0  0  0
   17.2819  -22.4761  -17.3453 C   0  0  0  0  0  0  0  0  0  0  0  0
   16.6034  -22.6331  -15.6728 S   0  0  0  0  0  0  0  0  0  0  0  0
   17.6614  -21.7139  -14.4933 C   0  0  0  0  0  0  0  0  0  0  0  0
   19.1088  -21.8387  -14.8724 C   0  0  0  0  0  0  0  0  0  0  0  0
   19.9676  -20.9874  -14.0123 C   0  0  2  0  0  0  0  0  0  0  0  0
   21.3988  -21.2202  -14.3229 N   0  0  0  0  0  0  0  0  0  0  0  0
   19.7894  -21.2989  -12.5926 C   0  0  0  0  0  0  0  0  0  0  0  0
   20.4633  -22.2190  -12.0693 O   0  0  0  0  0  0  0  0  0  0  0  0
   18.9093  -20.6264  -11.7779 O   0  0  0  0  0  0  0  0  0  0  0  0
  2  1  1  1
  2  3  1  0
  4  2  1  0
  4  5  1  0
  5  7  1  0
  5  6  1  6
  7  8  2  0
 10  9  1  1
 10 12  1  0
 11 10  1  0
 13 12  1  1
 14 13  1  0
 14  7  1  0
 15 16  2  0
 15 13  1  0
 17 18  1  0
 18 19  1  0
 19 20  1  0
 21 20  1  6
 21 23  1  0
 21 22  1  0
 22 15  1  0
 23 25  1  0
 24 23  2  0
M  END
$$$$
