LLM.pdb
     RDKit          3D

 25 24  0  0  1  0  0  0  0  0999 V2000
   15.9536  -13.5684  -19.0371 C   0  0  0  0  0  0  0  0  0  0  0  0
   17.1254  -14.3754  -18.5317 C   0  0  2  0  0  0  0  0  0  0  0  0
   16.7117  -15.7668  -18.1737 C   0  0  0  0  0  0  0  0  0  0  0  0
   17.8788  -13.6709  -17.4535 C   0  0  0  0  0  0  0  0  0  0  0  0
   19.1208  -14.3582  -16.9988 C   0  0  2  0  0  0  0  0  0  0  0  0
   18.8816  -15.4643  -16.0957 N   0  0  0  0  0  0  0  0  0  0  0  0
   19.9697  -13.3670  -16.2570 C   0  0  0  0  0  0  0  0  0  0  0  0
   19.6192  -12.9115  -15.1409 O   0  0  0  0  0  0  0  0  0  0  0  0
   24.0568  -13.3906  -14.3065 C   0  0  0  0  0  0  0  0  0  0  0  0
   24.0863  -13.1391  -15.7742 C   0  0  2  0  0  0  0  0  0  0  0  0
   25.5657  -13.0155  -16.1804 C   0  0  0  0  0  0  0  0  0  0  0  0
   23.4218  -11.9160  -16.2635 C   0  0  0  0  0  0  0  0  0  0  0  0
   21.9399  -11.8284  -16.1618 C   0  0  2  0  0  0  0  0  0  0  0  0
   21.2036  -12.8980  -16.7776 N   0  0  0  0  0  0  0  0  0  0  0  0
   21.4166  -10.4918  -16.5597 C   0  0  0  0  0  0  0  0  0  0  0  0
   21.3363  -10.1980  -17.7800 O   0  0  0  0  0  0  0  0  0  0  0  0
   15.8774   -5.2312  -16.3357 C   0  0  0  0  0  0  0  0  0  0  0  0
   16.5524   -6.8667  -15.9461 S   0  0  0  0  0  0  0  0  0  0  0  0
   18.3699   -6.8499  -16.1736 C   0  0  0  0  0  0  0  0  0  0  0  0
   18.9607   -8.1824  -15.8135 C   0  0  0  0  0  0  0  0  0  0  0  0
   20.4225   -8.2113  -16.0675 C   0  0  2  0  0  0  0  0  0  0  0  0
   20.9949   -9.5085  -15.6331 N   0  0  0  0  0  0  0  0  0  0  0  0
   21.1232   -7.1692  -15.3144 C   0  0  0  0  0  0  0  0  0  0  0  0
   21.7940   -7.4803  -14.3005 O   0  0  0  0  0  0  0  0  0  0  0  0
   21.0926   -5.8389  -15.6607 O   0  0  0  0  0  0  0  0  0  0  0  0
  2  1  1  1
  2  3  1  0
  4  2  1  0
  4  5  1  0
  5  7  1  0
  5  6  1  1
  7  8  2  0
 10  9  1  1
 10 12  1  0
 11 10  1  0
 13 12  1  6
 14 13  1  0
 14  7  1  0
 15 16  2  0
 15 13  1  0
 17 18  1  0
 18 19  1  0
 19 20  1  0
 21 20  1  1
 21 23  1  0
 21 22  1  0
 22 15  1  0
 23 25  1  0
 24 23  2  0
M  END
$$$$
