LLM.pdb
     RDKit          3D

 25 24  0  0  1  0  0  0  0  0999 V2000
   29.0462  -17.5917  -16.4975 C   0  0  0  0  0  0  0  0  0  0  0  0
   27.6182  -17.1489  -16.2867 C   0  0  2  0  0  0  0  0  0  0  0  0
   27.3921  -15.7723  -16.8244 C   0  0  0  0  0  0  0  0  0  0  0  0
   27.1691  -17.3293  -14.8752 C   0  0  0  0  0  0  0  0  0  0  0  0
   27.5223  -18.6419  -14.2633 C   0  0  2  0  0  0  0  0  0  0  0  0
   27.3475  -19.7699  -15.1540 N   0  0  0  0  0  0  0  0  0  0  0  0
   26.6231  -18.8754  -13.0843 C   0  0  0  0  0  0  0  0  0  0  0  0
   26.3987  -17.9706  -12.2434 O   0  0  0  0  0  0  0  0  0  0  0  0
   22.2384  -19.4409  -12.7728 C   0  0  0  0  0  0  0  0  0  0  0  0
   22.9737  -20.7096  -13.0335 C   0  0  2  0  0  0  0  0  0  0  0  0
   21.9180  -21.8197  -13.1822 C   0  0  0  0  0  0  0  0  0  0  0  0
   23.9131  -21.1719  -11.9939 C   0  0  0  0  0  0  0  0  0  0  0  0
   25.1315  -20.3593  -11.7310 C   0  0  2  0  0  0  0  0  0  0  0  0
   25.9856  -20.1236  -12.8626 N   0  0  0  0  0  0  0  0  0  0  0  0
   25.8966  -20.8409  -10.5473 C   0  0  0  0  0  0  0  0  0  0  0  0
   26.5202  -21.9310  -10.6165 O   0  0  0  0  0  0  0  0  0  0  0  0
   28.6822  -17.5993   -5.8621 C   0  0  0  0  0  0  0  0  0  0  0  0
   28.6774  -19.1988   -5.0113 S   0  0  0  0  0  0  0  0  0  0  0  0
   27.6715  -20.3970   -5.9642 C   0  0  0  0  0  0  0  0  0  0  0  0
   27.2686  -19.8149   -7.2882 C   0  0  0  0  0  0  0  0  0  0  0  0
   26.4536  -20.7742   -8.0742 C   0  0  2  0  0  0  0  0  0  0  0  0
   25.9690  -20.1362   -9.3221 N   0  0  0  0  0  0  0  0  0  0  0  0
   25.2663  -21.2080   -7.3351 C   0  0  0  0  0  0  0  0  0  0  0  0
   24.1311  -20.8148   -7.6975 O   0  0  0  0  0  0  0  0  0  0  0  0
   25.3208  -22.0426   -6.2437 O   0  0  0  0  0  0  0  0  0  0  0  0
  2  1  1  1
  2  3  1  0
  4  2  1  0
  4  5  1  0
  5  7  1  0
  5  6  1  6
  7  8  2  0
 10  9  1  1
 10 12  1  0
 11 10  1  0
 13 12  1  6
 14 13  1  0
 14  7  1  0
 15 16  2  0
 15 13  1  0
 17 18  1  0
 18 19  1  0
 19 20  1  0
 21 20  1  1
 21 23  1  0
 21 22  1  0
 22 15  1  0
 23 25  1  0
 24 23  2  0
M  END
$$$$
