LLM.pdb
     RDKit          3D

 25 24  0  0  1  0  0  0  0  0999 V2000
   24.5758  -21.7218   -9.0535 C   0  0  0  0  0  0  0  0  0  0  0  0
   25.7947  -20.9159   -9.4337 C   0  0  2  0  0  0  0  0  0  0  0  0
   26.3098  -20.1300   -8.2709 C   0  0  0  0  0  0  0  0  0  0  0  0
   25.5775  -20.1028  -10.6660 C   0  0  0  0  0  0  0  0  0  0  0  0
   25.0177  -20.8525  -11.8263 C   0  0  2  0  0  0  0  0  0  0  0  0
   25.8998  -21.8781  -12.3424 N   0  0  0  0  0  0  0  0  0  0  0  0
   24.7745  -19.8840  -12.9470 C   0  0  0  0  0  0  0  0  0  0  0  0
   24.0044  -18.9024  -12.8076 O   0  0  0  0  0  0  0  0  0  0  0  0
   27.0847  -16.5703  -15.0331 C   0  0  0  0  0  0  0  0  0  0  0  0
   27.4142  -17.9594  -15.4575 C   0  0  2  0  0  0  0  0  0  0  0  0
   28.5560  -17.8577  -16.4845 C   0  0  0  0  0  0  0  0  0  0  0  0
   26.3437  -18.7389  -16.1082 C   0  0  0  0  0  0  0  0  0  0  0  0
   25.1549  -19.1194  -15.2983 C   0  0  2  0  0  0  0  0  0  0  0  0
   25.3992  -20.0289  -14.2128 N   0  0  0  0  0  0  0  0  0  0  0  0
   24.0043  -19.5529  -16.1390 C   0  0  0  0  0  0  0  0  0  0  0  0
   24.1773  -20.4413  -17.0124 O   0  0  0  0  0  0  0  0  0  0  0  0
   18.8625  -21.6358  -13.9807 C   0  0  0  0  0  0  0  0  0  0  0  0
   18.3377  -21.7880  -15.7081 S   0  0  0  0  0  0  0  0  0  0  0  0
   19.4983  -20.8667  -16.7849 C   0  0  0  0  0  0  0  0  0  0  0  0
   20.6647  -20.3548  -15.9900 C   0  0  0  0  0  0  0  0  0  0  0  0
   21.5634  -19.5207  -16.8259 C   0  0  2  0  0  0  0  0  0  0  0  0
   22.6997  -19.0180  -16.0165 N   0  0  0  0  0  0  0  0  0  0  0  0
   20.8715  -18.3440  -17.3559 C   0  0  0  0  0  0  0  0  0  0  0  0
   20.9697  -17.2446  -16.7590 O   0  0  0  0  0  0  0  0  0  0  0  0
   20.1047  -18.3705  -18.4970 O   0  0  0  0  0  0  0  0  0  0  0  0
  2  1  1  1
  2  3  1  0
  4  2  1  0
  4  5  1  0
  5  7  1  0
  5  6  1  6
  7  8  2  0
 10  9  1  6
 10 12  1  0
 11 10  1  0
 13 12  1  6
 14 13  1  0
 14  7  1  0
 15 16  2  0
 15 13  1  0
 17 18  1  0
 18 19  1  0
 19 20  1  0
 21 20  1  1
 21 23  1  0
 21 22  1  0
 22 15  1  0
 23 25  1  0
 24 23  2  0
M  END
$$$$
