LLM.pdb
     RDKit          3D

 25 24  0  0  1  0  0  0  0  0999 V2000
   19.1200  -12.0379    4.2552 C   0  0  0  0  0  0  0  0  0  0  0  0
   18.7557  -12.3086    5.6952 C   0  0  2  0  0  0  0  0  0  0  0  0
   19.8662  -11.9203    6.6179 C   0  0  0  0  0  0  0  0  0  0  0  0
   18.2528  -13.6980    5.9033 C   0  0  0  0  0  0  0  0  0  0  0  0
   17.1680  -14.1226    4.9734 C   0  0  2  0  0  0  0  0  0  0  0  0
   15.8937  -13.4847    5.2291 N   0  0  0  0  0  0  0  0  0  0  0  0
   16.9546  -15.5998    5.1329 C   0  0  0  0  0  0  0  0  0  0  0  0
   16.1330  -16.0559    5.9652 O   0  0  0  0  0  0  0  0  0  0  0  0
   17.9685  -18.7538    0.7177 C   0  0  0  0  0  0  0  0  0  0  0  0
   18.2491  -18.1973    2.0704 C   0  0  2  0  0  0  0  0  0  0  0  0
   19.7222  -18.5093    2.3891 C   0  0  0  0  0  0  0  0  0  0  0  0
   17.4620  -18.7325    3.1978 C   0  0  0  0  0  0  0  0  0  0  0  0
   17.4391  -17.9633    4.4713 C   0  0  2  0  0  0  0  0  0  0  0  0
   17.6672  -16.5490    4.3551 N   0  0  0  0  0  0  0  0  0  0  0  0
   18.2898  -18.5789    5.5276 C   0  0  0  0  0  0  0  0  0  0  0  0
   19.4357  -18.1101    5.7492 O   0  0  0  0  0  0  0  0  0  0  0  0
   18.7247  -23.0213   12.0654 C   0  0  0  0  0  0  0  0  0  0  0  0
   17.6957  -22.3945   10.7124 S   0  0  0  0  0  0  0  0  0  0  0  0
   18.7500  -21.5252    9.4925 C   0  0  0  0  0  0  0  0  0  0  0  0
   17.9059  -20.8349    8.4603 C   0  0  0  0  0  0  0  0  0  0  0  0
   18.7423  -20.2432    7.3867 C   0  0  2  0  0  0  0  0  0  0  0  0
   17.8838  -19.6822    6.3156 N   0  0  0  0  0  0  0  0  0  0  0  0
   19.6011  -21.2469    6.7548 C   0  0  0  0  0  0  0  0  0  0  0  0
   19.2076  -21.8386    5.7205 O   0  0  0  0  0  0  0  0  0  0  0  0
   20.8438  -21.5864    7.2358 O   0  0  0  0  0  0  0  0  0  0  0  0
  2  1  1  6
  2  3  1  0
  4  2  1  0
  4  5  1  0
  5  7  1  0
  5  6  1  1
  7  8  2  0
 10  9  1  6
 10 12  1  0
 11 10  1  0
 13 12  1  6
 14 13  1  0
 14  7  1  0
 15 16  2  0
 15 13  1  0
 17 18  1  0
 18 19  1  0
 19 20  1  0
 21 20  1  1
 21 23  1  0
 21 22  1  0
 22 15  1  0
 23 25  1  0
 24 23  2  0
M  END
$$$$
