KSA.pdb
     RDKit          3D

 21 20  0  0  1  0  0  0  0  0999 V2000
   17.4889  -17.2929  -15.8122 N   0  0  0  0  0  0  0  0  0  0  0  0
   18.3719  -16.2245  -15.4609 C   0  0  1  0  0  0  0  0  0  0  0  0
   19.8312  -16.5887  -15.6454 C   0  0  0  0  0  0  0  0  0  0  0  0
   20.0287  -18.0989  -15.5917 C   0  0  0  0  0  0  0  0  0  0  0  0
   21.5332  -18.3316  -15.6269 C   0  0  0  0  0  0  0  0  0  0  0  0
   21.7791  -19.8404  -15.5335 C   0  0  0  0  0  0  0  0  0  0  0  0
   23.2092  -20.0306  -15.5474 N   0  0  0  0  0  0  0  0  0  0  0  0
   18.1306  -15.0120  -16.3001 C   0  0  0  0  0  0  0  0  0  0  0  0
   18.4705  -15.0061  -17.4948 O   0  0  0  0  0  0  0  0  0  0  0  0
   15.3572  -12.3644  -14.9587 O   0  0  0  0  0  0  0  0  0  0  0  0
   15.6586  -12.4638  -16.2994 C   0  0  0  0  0  0  0  0  0  0  0  0
   17.1301  -12.7046  -16.5582 C   0  0  2  0  0  0  0  0  0  0  0  0
   17.5175  -13.8555  -15.7637 N   0  0  0  0  0  0  0  0  0  0  0  0
   17.9616  -11.5685  -16.1304 C   0  0  0  0  0  0  0  0  0  0  0  0
   18.3720  -11.5391  -14.9481 O   0  0  0  0  0  0  0  0  0  0  0  0
   19.5271   -8.5581  -17.6491 C   0  0  0  0  0  0  0  0  0  0  0  0
   19.1014   -9.4178  -16.4690 C   0  0  2  0  0  0  0  0  0  0  0  0
   18.3163  -10.5089  -16.9992 N   0  0  0  0  0  0  0  0  0  0  0  0
   18.3219   -8.6329  -15.4879 C   0  0  0  0  0  0  0  0  0  0  0  0
   17.0712   -8.6590  -15.5504 O   0  0  0  0  0  0  0  0  0  0  0  0
   18.9290   -7.8800  -14.5152 O   0  0  0  0  0  0  0  0  0  0  0  0
  2  1  1  6
  2  8  1  0
  3  2  1  0
  4  3  1  0
  5  4  1  0
  6  5  1  0
  7  6  1  0
  8  9  2  0
 11 10  1  0
 12 11  1  1
 13 12  1  0
 13  8  1  0
 14 15  2  0
 14 12  1  0
 17 16  1  6
 17 19  1  0
 17 18  1  0
 18 14  1  0
 19 21  1  0
 20 19  2  0
M  END
$$$$
