KSA.pdb
     RDKit          3D

 21 20  0  0  1  0  0  0  0  0999 V2000
   21.0113  -11.7653  -17.2529 N   0  0  0  0  0  0  0  0  0  0  0  0
   22.1422  -11.4934  -16.4211 C   0  0  1  0  0  0  0  0  0  0  0  0
   23.3552  -12.3205  -16.7966 C   0  0  0  0  0  0  0  0  0  0  0  0
   23.0189  -13.3127  -17.9034 C   0  0  0  0  0  0  0  0  0  0  0  0
   24.3265  -14.0046  -18.2647 C   0  0  0  0  0  0  0  0  0  0  0  0
   24.0439  -14.9752  -19.4153 C   0  0  0  0  0  0  0  0  0  0  0  0
   25.3120  -15.5463  -19.7988 N   0  0  0  0  0  0  0  0  0  0  0  0
   22.5626  -10.0625  -16.5135 C   0  0  0  0  0  0  0  0  0  0  0  0
   23.5743   -9.6722  -15.9076 O   0  0  0  0  0  0  0  0  0  0  0  0
   20.1778   -7.4339  -18.7038 O   0  0  0  0  0  0  0  0  0  0  0  0
   21.5401   -7.2288  -18.6923 C   0  0  0  0  0  0  0  0  0  0  0  0
   22.2033   -7.7336  -17.4292 C   0  0  2  0  0  0  0  0  0  0  0  0
   21.8298   -9.1281  -17.2824 N   0  0  0  0  0  0  0  0  0  0  0  0
   21.7327   -7.0188  -16.2321 C   0  0  0  0  0  0  0  0  0  0  0  0
   20.7909   -7.5128  -15.5718 O   0  0  0  0  0  0  0  0  0  0  0  0
   22.7017   -4.0482  -14.2241 C   0  0  0  0  0  0  0  0  0  0  0  0
   21.7430   -5.1579  -14.6269 C   0  0  2  0  0  0  0  0  0  0  0  0
   22.3001   -5.7973  -15.7969 N   0  0  0  0  0  0  0  0  0  0  0  0
   20.3931   -4.6240  -14.9081 C   0  0  0  0  0  0  0  0  0  0  0  0
   20.0387   -4.4749  -16.1001 O   0  0  0  0  0  0  0  0  0  0  0  0
   19.5221   -4.2888  -13.9027 O   0  0  0  0  0  0  0  0  0  0  0  0
  2  1  1  6
  2  8  1  0
  3  2  1  0
  4  3  1  0
  5  4  1  0
  6  5  1  0
  7  6  1  0
  8  9  2  0
 11 10  1  0
 12 11  1  6
 13 12  1  0
 13  8  1  0
 14 15  2  0
 14 12  1  0
 17 16  1  6
 17 19  1  0
 17 18  1  0
 18 14  1  0
 19 21  1  0
 20 19  2  0
M  END
$$$$
