KSA.pdb
     RDKit          3D

 21 20  0  0  1  0  0  0  0  0999 V2000
   20.5733  -10.6948  -15.7039 N   0  0  0  0  0  0  0  0  0  0  0  0
   19.5037   -9.9287  -16.2641 C   0  0  1  0  0  0  0  0  0  0  0  0
   18.1751  -10.6557  -16.2118 C   0  0  0  0  0  0  0  0  0  0  0  0
   18.2795  -12.0321  -16.8579 C   0  0  0  0  0  0  0  0  0  0  0  0
   17.9080  -11.8425  -18.3225 C   0  0  0  0  0  0  0  0  0  0  0  0
   17.9835  -13.2097  -19.0087 C   0  0  0  0  0  0  0  0  0  0  0  0
   17.6264  -13.0018  -20.3910 N   0  0  0  0  0  0  0  0  0  0  0  0
   19.3080   -8.6399  -15.5338 C   0  0  0  0  0  0  0  0  0  0  0  0
   18.1609   -8.2067  -15.3353 O   0  0  0  0  0  0  0  0  0  0  0  0
   22.6411   -6.7500  -13.8246 O   0  0  0  0  0  0  0  0  0  0  0  0
   21.3844   -6.6525  -13.2685 C   0  0  0  0  0  0  0  0  0  0  0  0
   20.2788   -6.6570  -14.3018 C   0  0  2  0  0  0  0  0  0  0  0  0
   20.4083   -7.8900  -15.0561 N   0  0  0  0  0  0  0  0  0  0  0  0
   20.4026   -5.5397  -15.2514 C   0  0  0  0  0  0  0  0  0  0  0  0
   21.0594   -5.7175  -16.3021 O   0  0  0  0  0  0  0  0  0  0  0  0
   18.7161   -2.4075  -16.0325 C   0  0  0  0  0  0  0  0  0  0  0  0
   19.9857   -3.2448  -16.0253 C   0  0  2  0  0  0  0  0  0  0  0  0
   19.8106   -4.2740  -15.0262 N   0  0  0  0  0  0  0  0  0  0  0  0
   21.1729   -2.4152  -15.7277 C   0  0  0  0  0  0  0  0  0  0  0  0
   21.7323   -2.5384  -14.6139 O   0  0  0  0  0  0  0  0  0  0  0  0
   21.6761   -1.5177  -16.6350 O   0  0  0  0  0  0  0  0  0  0  0  0
  2  1  1  1
  2  8  1  0
  3  2  1  0
  4  3  1  0
  5  4  1  0
  6  5  1  0
  7  6  1  0
  8  9  2  0
 11 10  1  0
 12 11  1  1
 13 12  1  0
 13  8  1  0
 14 15  2  0
 14 12  1  0
 17 16  1  1
 17 19  1  0
 17 18  1  0
 18 14  1  0
 19 21  1  0
 20 19  2  0
M  END
$$$$
