KSA.pdb
     RDKit          3D

 21 20  0  0  1  0  0  0  0  0999 V2000
   18.4092  -10.9404  -18.7654 N   0  0  0  0  0  0  0  0  0  0  0  0
   17.2324  -10.8051  -17.9645 C   0  0  1  0  0  0  0  0  0  0  0  0
   16.7451  -12.1305  -17.4145 C   0  0  0  0  0  0  0  0  0  0  0  0
   17.9139  -13.0641  -17.1230 C   0  0  0  0  0  0  0  0  0  0  0  0
   17.3329  -14.2445  -16.3560 C   0  0  0  0  0  0  0  0  0  0  0  0
   18.4878  -15.1790  -15.9836 C   0  0  0  0  0  0  0  0  0  0  0  0
   17.9368  -16.2002  -15.1262 N   0  0  0  0  0  0  0  0  0  0  0  0
   17.4682   -9.9200  -16.7840 C   0  0  0  0  0  0  0  0  0  0  0  0
   16.5484   -9.7012  -15.9784 O   0  0  0  0  0  0  0  0  0  0  0  0
   20.8380   -7.4150  -14.2955 O   0  0  0  0  0  0  0  0  0  0  0  0
   20.4616   -8.3354  -15.2489 C   0  0  0  0  0  0  0  0  0  0  0  0
   18.9734   -8.3271  -15.5236 C   0  0  2  0  0  0  0  0  0  0  0  0
   18.7272   -9.3166  -16.5562 N   0  0  0  0  0  0  0  0  0  0  0  0
   18.5110   -7.0268  -16.0344 C   0  0  0  0  0  0  0  0  0  0  0  0
   18.6065   -6.7977  -17.2613 O   0  0  0  0  0  0  0  0  0  0  0  0
   16.4605   -4.1861  -14.9705 C   0  0  0  0  0  0  0  0  0  0  0  0
   17.6136   -4.7528  -15.7843 C   0  0  2  0  0  0  0  0  0  0  0  0
   17.9635   -6.0257  -15.1969 N   0  0  0  0  0  0  0  0  0  0  0  0
   18.7718   -3.8337  -15.7843 C   0  0  0  0  0  0  0  0  0  0  0  0
   19.7685   -4.1180  -15.0809 O   0  0  0  0  0  0  0  0  0  0  0  0
   18.7843   -2.6829  -16.5307 O   0  0  0  0  0  0  0  0  0  0  0  0
  2  1  1  1
  2  8  1  0
  3  2  1  0
  4  3  1  0
  5  4  1  0
  6  5  1  0
  7  6  1  0
  8  9  2  0
 11 10  1  0
 12 11  1  6
 13 12  1  0
 13  8  1  0
 14 15  2  0
 14 12  1  0
 17 16  1  1
 17 19  1  0
 17 18  1  0
 18 14  1  0
 19 21  1  0
 20 19  2  0
M  END
$$$$
