KSA.pdb
     RDKit          3D

 21 20  0  0  1  0  0  0  0  0999 V2000
   28.6433  -12.5604  -18.5696 N   0  0  0  0  0  0  0  0  0  0  0  0
   28.4985  -11.3682  -19.3457 C   0  0  1  0  0  0  0  0  0  0  0  0
   27.1432  -11.2694  -20.0165 C   0  0  0  0  0  0  0  0  0  0  0  0
   27.0163  -12.2863  -21.1445 C   0  0  0  0  0  0  0  0  0  0  0  0
   25.6509  -12.0509  -21.7764 C   0  0  0  0  0  0  0  0  0  0  0  0
   25.4739  -13.0673  -22.9083 C   0  0  0  0  0  0  0  0  0  0  0  0
   24.1892  -12.8017  -23.5089 N   0  0  0  0  0  0  0  0  0  0  0  0
   28.6425  -10.1421  -18.5038 C   0  0  0  0  0  0  0  0  0  0  0  0
   28.2744  -10.1567  -17.3176 O   0  0  0  0  0  0  0  0  0  0  0  0
   31.8512   -7.9769  -18.6252 O   0  0  0  0  0  0  0  0  0  0  0  0
   30.8705   -7.9543  -17.6578 C   0  0  0  0  0  0  0  0  0  0  0  0
   29.4809   -7.7729  -18.2290 C   0  0  2  0  0  0  0  0  0  0  0  0
   29.1940   -8.9497  -19.0283 N   0  0  0  0  0  0  0  0  0  0  0  0
   29.3941   -6.6014  -19.1153 C   0  0  0  0  0  0  0  0  0  0  0  0
   29.8208   -6.7051  -20.2876 O   0  0  0  0  0  0  0  0  0  0  0  0
   27.8473   -3.2367  -19.1058 C   0  0  0  0  0  0  0  0  0  0  0  0
   28.8303   -4.2675  -19.6389 C   0  0  2  0  0  0  0  0  0  0  0  0
   28.8489   -5.3638  -18.6977 N   0  0  0  0  0  0  0  0  0  0  0  0
   30.1802   -3.6866  -19.8012 C   0  0  0  0  0  0  0  0  0  0  0  0
   30.5028   -3.2096  -20.9135 O   0  0  0  0  0  0  0  0  0  0  0  0
   31.0852   -3.6560  -18.7708 O   0  0  0  0  0  0  0  0  0  0  0  0
  2  1  1  1
  2  8  1  0
  3  2  1  0
  4  3  1  0
  5  4  1  0
  6  5  1  0
  7  6  1  0
  8  9  2  0
 11 10  1  0
 12 11  1  6
 13 12  1  0
 13  8  1  0
 14 15  2  0
 14 12  1  0
 17 16  1  1
 17 19  1  0
 17 18  1  0
 18 14  1  0
 19 21  1  0
 20 19  2  0
M  END
$$$$
