KSA.pdb
     RDKit          3D

 21 20  0  0  1  0  0  0  0  0999 V2000
   22.0347  -21.0275  -15.1337 N   0  0  0  0  0  0  0  0  0  0  0  0
   22.0327  -22.0418  -14.1258 C   0  0  1  0  0  0  0  0  0  0  0  0
   23.3938  -22.2334  -13.4878 C   0  0  0  0  0  0  0  0  0  0  0  0
   24.1868  -23.3182  -14.2069 C   0  0  0  0  0  0  0  0  0  0  0  0
   25.2946  -22.6009  -14.9666 C   0  0  0  0  0  0  0  0  0  0  0  0
   26.0859  -23.6524  -15.7502 C   0  0  0  0  0  0  0  0  0  0  0  0
   26.9935  -22.9337  -16.6113 N   0  0  0  0  0  0  0  0  0  0  0  0
   21.0890  -21.7127  -13.0150 C   0  0  0  0  0  0  0  0  0  0  0  0
   21.0504  -20.5598  -12.5542 O   0  0  0  0  0  0  0  0  0  0  0  0
   17.5605  -23.0313  -13.0343 O   0  0  0  0  0  0  0  0  0  0  0  0
   17.9508  -22.0760  -12.1216 C   0  0  0  0  0  0  0  0  0  0  0  0
   19.2517  -22.4177  -11.4280 C   0  0  2  0  0  0  0  0  0  0  0  0
   20.2271  -22.6914  -12.4670 N   0  0  0  0  0  0  0  0  0  0  0  0
   19.1362  -23.6266  -10.5969 C   0  0  0  0  0  0  0  0  0  0  0  0
   19.2535  -24.7446  -11.1475 O   0  0  0  0  0  0  0  0  0  0  0  0
   18.5639  -24.4800   -7.0189 C   0  0  0  0  0  0  0  0  0  0  0  0
   18.6916  -24.8208   -8.4956 C   0  0  2  0  0  0  0  0  0  0  0  0
   18.8982  -23.5776   -9.2025 N   0  0  0  0  0  0  0  0  0  0  0  0
   17.4849  -25.5169   -8.9911 C   0  0  0  0  0  0  0  0  0  0  0  0
   17.3658  -26.7454   -8.7778 O   0  0  0  0  0  0  0  0  0  0  0  0
   16.4963  -24.8564   -9.6752 O   0  0  0  0  0  0  0  0  0  0  0  0
  2  1  1  6
  2  8  1  0
  3  2  1  0
  4  3  1  0
  5  4  1  0
  6  5  1  0
  7  6  1  0
  8  9  2  0
 11 10  1  0
 12 11  1  6
 13 12  1  0
 13  8  1  0
 14 15  2  0
 14 12  1  0
 17 16  1  1
 17 19  1  0
 17 18  1  0
 18 14  1  0
 19 21  1  0
 20 19  2  0
M  END
$$$$
