KSA.pdb
     RDKit          3D

 21 20  0  0  1  0  0  0  0  0999 V2000
   17.3807  -10.8057  -16.6196 N   0  0  0  0  0  0  0  0  0  0  0  0
   18.6350  -10.1637  -16.8631 C   0  0  1  0  0  0  0  0  0  0  0  0
   18.7883   -9.7079  -18.3001 C   0  0  0  0  0  0  0  0  0  0  0  0
   18.4157  -10.8230  -19.2699 C   0  0  0  0  0  0  0  0  0  0  0  0
   19.4709  -11.9071  -19.0956 C   0  0  0  0  0  0  0  0  0  0  0  0
   19.2190  -12.9846  -20.1545 C   0  0  0  0  0  0  0  0  0  0  0  0
   20.1864  -14.0296  -19.9230 N   0  0  0  0  0  0  0  0  0  0  0  0
   18.8043   -8.9458  -16.0142 C   0  0  0  0  0  0  0  0  0  0  0  0
   17.8820   -8.1186  -15.9241 O   0  0  0  0  0  0  0  0  0  0  0  0
   21.3819   -7.0310  -12.3921 O   0  0  0  0  0  0  0  0  0  0  0  0
   21.0248   -8.0465  -13.2519 C   0  0  0  0  0  0  0  0  0  0  0  0
   20.2097   -7.5629  -14.4317 C   0  0  2  0  0  0  0  0  0  0  0  0
   20.0023   -8.7062  -15.3010 N   0  0  0  0  0  0  0  0  0  0  0  0
   20.9175   -6.5346  -15.2106 C   0  0  0  0  0  0  0  0  0  0  0  0
   21.8102   -6.8979  -16.0094 O   0  0  0  0  0  0  0  0  0  0  0  0
   20.6832   -2.8982  -15.8728 C   0  0  0  0  0  0  0  0  0  0  0  0
   21.4388   -4.2177  -15.8428 C   0  0  2  0  0  0  0  0  0  0  0  0
   20.6312   -5.1533  -15.0943 N   0  0  0  0  0  0  0  0  0  0  0  0
   22.7724   -4.0573  -15.2248 C   0  0  0  0  0  0  0  0  0  0  0  0
   23.6934   -3.5430  -15.9002 O   0  0  0  0  0  0  0  0  0  0  0  0
   23.0273   -4.4549  -13.9368 O   0  0  0  0  0  0  0  0  0  0  0  0
  2  1  1  6
  2  8  1  0
  3  2  1  0
  4  3  1  0
  5  4  1  0
  6  5  1  0
  7  6  1  0
  8  9  2  0
 11 10  1  0
 12 11  1  1
 13 12  1  0
 13  8  1  0
 14 15  2  0
 14 12  1  0
 17 16  1  1
 17 19  1  0
 17 18  1  0
 18 14  1  0
 19 21  1  0
 20 19  2  0
M  END
$$$$
