KSA.pdb
     RDKit          3D

 21 20  0  0  1  0  0  0  0  0999 V2000
   25.6996  -21.2859  -11.4899 N   0  0  0  0  0  0  0  0  0  0  0  0
   26.2075  -20.8472  -12.7526 C   0  0  1  0  0  0  0  0  0  0  0  0
   26.0159  -21.8765  -13.8482 C   0  0  0  0  0  0  0  0  0  0  0  0
   24.6005  -22.4414  -13.8260 C   0  0  0  0  0  0  0  0  0  0  0  0
   24.5492  -23.5002  -14.9193 C   0  0  0  0  0  0  0  0  0  0  0  0
   23.1225  -24.0550  -14.9713 C   0  0  0  0  0  0  0  0  0  0  0  0
   23.1240  -25.1155  -15.9495 N   0  0  0  0  0  0  0  0  0  0  0  0
   25.5241  -19.6030  -13.2190 C   0  0  0  0  0  0  0  0  0  0  0  0
   24.4174  -19.2895  -12.7502 O   0  0  0  0  0  0  0  0  0  0  0  0
   27.6248  -17.1781  -15.7926 O   0  0  0  0  0  0  0  0  0  0  0  0
   26.7097  -16.5832  -14.9519 C   0  0  0  0  0  0  0  0  0  0  0  0
   25.5482  -17.4895  -14.6061 C   0  0  2  0  0  0  0  0  0  0  0  0
   26.1113  -18.7615  -14.1928 N   0  0  0  0  0  0  0  0  0  0  0  0
   24.6788  -17.7438  -15.7658 C   0  0  0  0  0  0  0  0  0  0  0  0
   24.8862  -18.7673  -16.4560 O   0  0  0  0  0  0  0  0  0  0  0  0
   21.5147  -16.4215  -17.1598 C   0  0  0  0  0  0  0  0  0  0  0  0
   22.7859  -17.2510  -17.2535 C   0  0  2  0  0  0  0  0  0  0  0  0
   23.6191  -16.8802  -16.1327 N   0  0  0  0  0  0  0  0  0  0  0  0
   23.4862  -17.0153  -18.5342 C   0  0  0  0  0  0  0  0  0  0  0  0
   24.5479  -16.3508  -18.5288 O   0  0  0  0  0  0  0  0  0  0  0  0
   23.0065  -17.5028  -19.7233 O   0  0  0  0  0  0  0  0  0  0  0  0
  2  1  1  1
  2  8  1  0
  3  2  1  0
  4  3  1  0
  5  4  1  0
  6  5  1  0
  7  6  1  0
  8  9  2  0
 11 10  1  0
 12 11  1  6
 13 12  1  0
 13  8  1  0
 14 15  2  0
 14 12  1  0
 17 16  1  6
 17 19  1  0
 17 18  1  0
 18 14  1  0
 19 21  1  0
 20 19  2  0
M  END
$$$$
