KSA.pdb
     RDKit          3D

 21 20  0  0  1  0  0  0  0  0999 V2000
   17.7315  -25.5400   -9.8692 N   0  0  0  0  0  0  0  0  0  0  0  0
   18.8715  -24.6888  -10.0126 C   0  0  1  0  0  0  0  0  0  0  0  0
   19.9290  -25.2782  -10.9241 C   0  0  0  0  0  0  0  0  0  0  0  0
   19.2915  -26.0067  -12.1013 C   0  0  0  0  0  0  0  0  0  0  0  0
   20.4227  -26.7410  -12.8086 C   0  0  0  0  0  0  0  0  0  0  0  0
   21.0095  -25.7983  -13.8634 C   0  0  0  0  0  0  0  0  0  0  0  0
   22.0469  -26.5324  -14.5465 N   0  0  0  0  0  0  0  0  0  0  0  0
   18.5003  -23.3652  -10.5982 C   0  0  0  0  0  0  0  0  0  0  0  0
   17.3051  -23.0393  -10.6884 O   0  0  0  0  0  0  0  0  0  0  0  0
   21.5000  -21.1739  -12.3503 O   0  0  0  0  0  0  0  0  0  0  0  0
   20.4911  -20.4258  -11.7842 C   0  0  0  0  0  0  0  0  0  0  0  0
   19.1849  -21.1821  -11.6739 C   0  0  2  0  0  0  0  0  0  0  0  0
   19.4864  -22.4614  -11.0587 N   0  0  0  0  0  0  0  0  0  0  0  0
   18.5874  -21.4520  -12.9913 C   0  0  0  0  0  0  0  0  0  0  0  0
   18.9710  -22.4596  -13.6272 O   0  0  0  0  0  0  0  0  0  0  0  0
   15.9038  -20.1007  -15.1664 C   0  0  0  0  0  0  0  0  0  0  0  0
   17.1860  -20.8831  -14.9282 C   0  0  2  0  0  0  0  0  0  0  0  0
   17.5981  -20.6203  -13.5684 N   0  0  0  0  0  0  0  0  0  0  0  0
   18.2406  -20.4879  -15.8864 C   0  0  0  0  0  0  0  0  0  0  0  0
   19.2178  -19.8246  -15.4694 O   0  0  0  0  0  0  0  0  0  0  0  0
   18.1778  -20.8268  -17.2142 O   0  0  0  0  0  0  0  0  0  0  0  0
  2  1  1  6
  2  8  1  0
  3  2  1  0
  4  3  1  0
  5  4  1  0
  6  5  1  0
  7  6  1  0
  8  9  2  0
 11 10  1  0
 12 11  1  6
 13 12  1  0
 13  8  1  0
 14 15  2  0
 14 12  1  0
 17 16  1  6
 17 19  1  0
 17 18  1  0
 18 14  1  0
 19 21  1  0
 20 19  2  0
M  END
$$$$
