KSA.pdb
     RDKit          3D

 21 20  0  0  1  0  0  0  0  0999 V2000
   20.9479  -12.0453  -15.9838 N   0  0  0  0  0  0  0  0  0  0  0  0
   20.8918  -10.7540  -16.5953 C   0  0  1  0  0  0  0  0  0  0  0  0
   20.1078  -10.7559  -17.8922 C   0  0  0  0  0  0  0  0  0  0  0  0
   19.5191  -12.1333  -18.1729 C   0  0  0  0  0  0  0  0  0  0  0  0
   18.7761  -12.0153  -19.4970 C   0  0  0  0  0  0  0  0  0  0  0  0
   18.1585  -13.3805  -19.8141 C   0  0  0  0  0  0  0  0  0  0  0  0
   17.5169  -13.2582  -21.1006 N   0  0  0  0  0  0  0  0  0  0  0  0
   20.2320   -9.7513  -15.7054 C   0  0  0  0  0  0  0  0  0  0  0  0
   19.1685  -10.0362  -15.1303 O   0  0  0  0  0  0  0  0  0  0  0  0
   22.2871   -7.6849  -13.3264 O   0  0  0  0  0  0  0  0  0  0  0  0
   20.9117   -7.6946  -13.2468 C   0  0  0  0  0  0  0  0  0  0  0  0
   20.2406   -7.4841  -14.5867 C   0  0  2  0  0  0  0  0  0  0  0  0
   20.7933   -8.4696  -15.4974 N   0  0  0  0  0  0  0  0  0  0  0  0
   20.5245   -6.1530  -15.1462 C   0  0  0  0  0  0  0  0  0  0  0  0
   21.6182   -5.9688  -15.7266 O   0  0  0  0  0  0  0  0  0  0  0  0
   18.7377   -2.9239  -15.6082 C   0  0  0  0  0  0  0  0  0  0  0  0
   19.9597   -3.8250  -15.6947 C   0  0  2  0  0  0  0  0  0  0  0  0
   19.6134   -5.0737  -15.0553 N   0  0  0  0  0  0  0  0  0  0  0  0
   21.1313   -3.2031  -15.0414 C   0  0  0  0  0  0  0  0  0  0  0  0
   21.4245   -3.5466  -13.8731 O   0  0  0  0  0  0  0  0  0  0  0  0
   21.9026   -2.2639  -15.6776 O   0  0  0  0  0  0  0  0  0  0  0  0
  2  1  1  1
  2  8  1  0
  3  2  1  0
  4  3  1  0
  5  4  1  0
  6  5  1  0
  7  6  1  0
  8  9  2  0
 11 10  1  0
 12 11  1  1
 13 12  1  0
 13  8  1  0
 14 15  2  0
 14 12  1  0
 17 16  1  1
 17 19  1  0
 17 18  1  0
 18 14  1  0
 19 21  1  0
 20 19  2  0
M  END
$$$$
