KSA.pdb
     RDKit          3D

 21 20  0  0  1  0  0  0  0  0999 V2000
   25.3381  -21.5541  -10.9587 N   0  0  0  0  0  0  0  0  0  0  0  0
   25.0101  -21.1703  -12.2965 C   0  0  1  0  0  0  0  0  0  0  0  0
   23.5712  -20.7160  -12.4373 C   0  0  0  0  0  0  0  0  0  0  0  0
   22.6208  -21.9073  -12.4515 C   0  0  0  0  0  0  0  0  0  0  0  0
   21.2216  -21.3317  -12.6245 C   0  0  0  0  0  0  0  0  0  0  0  0
   20.2358  -22.5019  -12.6929 C   0  0  0  0  0  0  0  0  0  0  0  0
   18.9110  -21.9307  -12.6868 N   0  0  0  0  0  0  0  0  0  0  0  0
   25.8588  -20.0342  -12.7674 C   0  0  0  0  0  0  0  0  0  0  0  0
   26.2693  -19.1880  -11.9560 O   0  0  0  0  0  0  0  0  0  0  0  0
   27.3493  -20.0469  -16.7166 O   0  0  0  0  0  0  0  0  0  0  0  0
   28.0186  -19.5136  -15.6369 C   0  0  0  0  0  0  0  0  0  0  0  0
   27.0946  -18.8584  -14.6334 C   0  0  2  0  0  0  0  0  0  0  0  0
   26.2121  -19.8946  -14.1300 N   0  0  0  0  0  0  0  0  0  0  0  0
   26.2543  -17.8192  -15.2493 C   0  0  0  0  0  0  0  0  0  0  0  0
   25.1678  -18.1590  -15.7699 O   0  0  0  0  0  0  0  0  0  0  0  0
   26.1803  -14.1244  -15.5522 C   0  0  0  0  0  0  0  0  0  0  0  0
   25.7702  -15.5242  -15.9827 C   0  0  2  0  0  0  0  0  0  0  0  0
   26.6233  -16.4530  -15.2774 N   0  0  0  0  0  0  0  0  0  0  0  0
   25.8990  -15.6940  -17.4459 C   0  0  0  0  0  0  0  0  0  0  0  0
   26.9268  -16.2457  -17.9019 O   0  0  0  0  0  0  0  0  0  0  0  0
   24.9271  -15.2652  -18.3139 O   0  0  0  0  0  0  0  0  0  0  0  0
  2  1  1  1
  2  8  1  0
  3  2  1  0
  4  3  1  0
  5  4  1  0
  6  5  1  0
  7  6  1  0
  8  9  2  0
 11 10  1  0
 12 11  1  6
 13 12  1  0
 13  8  1  0
 14 15  2  0
 14 12  1  0
 17 16  1  6
 17 19  1  0
 17 18  1  0
 18 14  1  0
 19 21  1  0
 20 19  2  0
M  END
$$$$
