KSA.pdb
     RDKit          3D

 21 20  0  0  1  0  0  0  0  0999 V2000
   34.9151  -26.5563  -17.1382 N   0  0  0  0  0  0  0  0  0  0  0  0
   33.7732  -26.3145  -17.9642 C   0  0  1  0  0  0  0  0  0  0  0  0
   32.8588  -27.5189  -18.0633 C   0  0  0  0  0  0  0  0  0  0  0  0
   33.5502  -28.6725  -18.7802 C   0  0  0  0  0  0  0  0  0  0  0  0
   32.5361  -29.8073  -18.8342 C   0  0  0  0  0  0  0  0  0  0  0  0
   33.1987  -30.9986  -19.5323 C   0  0  0  0  0  0  0  0  0  0  0  0
   32.2643  -32.0956  -19.4599 N   0  0  0  0  0  0  0  0  0  0  0  0
   32.9382  -25.1938  -17.4353 C   0  0  0  0  0  0  0  0  0  0  0  0
   33.0227  -24.8671  -16.2399 O   0  0  0  0  0  0  0  0  0  0  0  0
   30.9369  -22.6483  -20.1465 O   0  0  0  0  0  0  0  0  0  0  0  0
   31.4998  -22.2664  -18.9484 C   0  0  0  0  0  0  0  0  0  0  0  0
   31.3199  -23.2975  -17.8555 C   0  0  2  0  0  0  0  0  0  0  0  0
   32.0425  -24.4857  -18.2703 N   0  0  0  0  0  0  0  0  0  0  0  0
   29.9090  -23.6751  -17.6761 C   0  0  0  0  0  0  0  0  0  0  0  0
   29.4558  -24.6314  -18.3447 O   0  0  0  0  0  0  0  0  0  0  0  0
   26.9801  -22.5533  -15.6698 C   0  0  0  0  0  0  0  0  0  0  0  0
   27.6468  -23.3703  -16.7657 C   0  0  2  0  0  0  0  0  0  0  0  0
   29.0441  -23.0026  -16.7800 N   0  0  0  0  0  0  0  0  0  0  0  0
   27.0193  -23.1163  -18.0802 C   0  0  0  0  0  0  0  0  0  0  0  0
   27.4723  -22.1951  -18.7978 O   0  0  0  0  0  0  0  0  0  0  0  0
   25.9589  -23.8593  -18.5332 O   0  0  0  0  0  0  0  0  0  0  0  0
  2  1  1  1
  2  8  1  0
  3  2  1  0
  4  3  1  0
  5  4  1  0
  6  5  1  0
  7  6  1  0
  8  9  2  0
 11 10  1  0
 12 11  1  6
 13 12  1  0
 13  8  1  0
 14 15  2  0
 14 12  1  0
 17 16  1  1
 17 19  1  0
 17 18  1  0
 18 14  1  0
 19 21  1  0
 20 19  2  0
M  END
$$$$
