KSA.pdb
     RDKit          3D

 21 20  0  0  1  0  0  0  0  0999 V2000
   16.5166  -10.6519  -10.1326 N   0  0  0  0  0  0  0  0  0  0  0  0
   16.0097   -9.7835  -11.1494 C   0  0  1  0  0  0  0  0  0  0  0  0
   14.5401   -9.4632  -10.9641 C   0  0  0  0  0  0  0  0  0  0  0  0
   13.7412  -10.7231  -10.6522 C   0  0  0  0  0  0  0  0  0  0  0  0
   13.0327  -11.1069  -11.9444 C   0  0  0  0  0  0  0  0  0  0  0  0
   12.1623  -12.3342  -11.6580 C   0  0  0  0  0  0  0  0  0  0  0  0
   11.5854  -12.7381  -12.9172 N   0  0  0  0  0  0  0  0  0  0  0  0
   16.7281   -8.4735  -11.1634 C   0  0  0  0  0  0  0  0  0  0  0  0
   17.0807   -7.9472  -10.0949 O   0  0  0  0  0  0  0  0  0  0  0  0
   18.6868   -7.4317  -14.4725 O   0  0  0  0  0  0  0  0  0  0  0  0
   18.9532   -6.7605  -13.2992 C   0  0  0  0  0  0  0  0  0  0  0  0
   17.7190   -6.5374  -12.4524 C   0  0  2  0  0  0  0  0  0  0  0  0
   17.0215   -7.8077  -12.3766 N   0  0  0  0  0  0  0  0  0  0  0  0
   16.7999   -5.5609  -13.0581 C   0  0  0  0  0  0  0  0  0  0  0  0
   16.0556   -5.9385  -13.9910 O   0  0  0  0  0  0  0  0  0  0  0  0
   15.5719   -2.1299  -12.4677 C   0  0  0  0  0  0  0  0  0  0  0  0
   15.8983   -3.2982  -13.3850 C   0  0  2  0  0  0  0  0  0  0  0  0
   16.7228   -4.2139  -12.6302 N   0  0  0  0  0  0  0  0  0  0  0  0
   16.5959   -2.8419  -14.6062 C   0  0  0  0  0  0  0  0  0  0  0  0
   17.8139   -3.1020  -14.7391 O   0  0  0  0  0  0  0  0  0  0  0  0
   15.9478   -2.1442  -15.5936 O   0  0  0  0  0  0  0  0  0  0  0  0
  2  1  1  1
  2  8  1  0
  3  2  1  0
  4  3  1  0
  5  4  1  0
  6  5  1  0
  7  6  1  0
  8  9  2  0
 11 10  1  0
 12 11  1  6
 13 12  1  0
 13  8  1  0
 14 15  2  0
 14 12  1  0
 17 16  1  1
 17 19  1  0
 17 18  1  0
 18 14  1  0
 19 21  1  0
 20 19  2  0
M  END
$$$$
