YKC.pdb
     RDKit          3D

 28 28  0  0  1  0  0  0  0  0999 V2000
    8.2053  -13.1234   16.6632 O   0  0  0  0  0  0  0  0  0  0  0  0
    8.0950  -13.5539   17.9866 C   0  0  0  0  0  0  0  0  0  0  0  0
    8.7647  -14.6684   18.4387 C   0  0  0  0  0  0  0  0  0  0  0  0
    8.6585  -15.1051   19.7634 C   0  0  0  0  0  0  0  0  0  0  0  0
    7.8705  -14.4156   20.6467 C   0  0  0  0  0  0  0  0  0  0  0  0
    7.7448  -14.8553   22.0390 C   0  0  0  0  0  0  0  0  0  0  0  0
    7.1065  -16.2263   22.1639 C   0  0  2  0  0  0  0  0  0  0  0  0
    5.6889  -16.0522   21.9241 N   0  0  0  0  0  0  0  0  0  0  0  0
    7.3416  -16.6616   23.5878 C   0  0  0  0  0  0  0  0  0  0  0  0
    6.6949  -16.1519   24.5456 O   0  0  0  0  0  0  0  0  0  0  0  0
    7.1983  -13.3003   20.2007 C   0  0  0  0  0  0  0  0  0  0  0  0
    7.3070  -12.8673   18.8765 C   0  0  0  0  0  0  0  0  0  0  0  0
    8.2985  -17.6599   23.9013 N   0  0  0  0  0  0  0  0  0  0  0  0
    8.6526  -18.0206   25.2701 C   0  0  1  0  0  0  0  0  0  0  0  0
    9.3367  -19.3681   25.2265 C   0  0  0  0  0  0  0  0  0  0  0  0
    8.3414  -20.4865   24.9989 C   0  0  0  0  0  0  0  0  0  0  0  0
    8.8736  -21.4691   23.9817 C   0  0  0  0  0  0  0  0  0  0  0  0
    7.8008  -22.4827   23.6485 C   0  0  0  0  0  0  0  0  0  0  0  0
    8.2948  -23.4278   22.6754 N   0  0  0  0  0  0  0  0  0  0  0  0
    9.5026  -17.0077   25.9050 C   0  0  0  0  0  0  0  0  0  0  0  0
   10.2557  -16.3049   25.1857 O   0  0  0  0  0  0  0  0  0  0  0  0
    9.4721  -16.8271   27.3125 N   0  0  0  0  0  0  0  0  0  0  0  0
   10.3579  -15.8183   27.8746 C   0  0  1  0  0  0  0  0  0  0  0  0
    9.4812  -14.6166   28.2142 C   0  0  0  0  0  0  0  0  0  0  0  0
   10.4946  -13.4286   29.1185 S   0  0  0  0  0  0  0  0  0  0  0  0
   10.9409  -16.3313   29.1444 C   0  0  0  0  0  0  0  0  0  0  0  0
   10.3861  -17.2768   29.7459 O   0  0  0  0  0  0  0  0  0  0  0  0
   12.0927  -15.8060   29.7108 O   0  0  0  0  0  0  0  0  0  0  0  0
  2  1  1  0
  3  2  2  0
  4  3  1  0
  5  4  2  0
  5 11  1  0
  6  5  1  0
  7  6  1  0
  7  8  1  1
  9  7  1  0
 10  9  2  0
 11 12  2  0
 12  2  1  0
 13  9  1  0
 14 15  1  6
 14 13  1  0
 16 17  1  0
 16 15  1  0
 18 17  1  0
 19 18  1  0
 20 14  1  0
 21 20  2  0
 22 20  1  0
 23 22  1  0
 24 25  1  0
 23 24  1  1
 26 23  1  0
 26 28  1  0
 27 26  2  0
M  END
$$$$
