YKC.pdb
     RDKit          3D

 28 28  0  0  1  0  0  0  0  0999 V2000
    9.0460  -13.9742   15.9041 O   0  0  0  0  0  0  0  0  0  0  0  0
    8.7276  -14.1917   17.2458 C   0  0  0  0  0  0  0  0  0  0  0  0
    9.1043  -15.3447   17.8967 C   0  0  0  0  0  0  0  0  0  0  0  0
    8.7885  -15.5689   19.2408 C   0  0  0  0  0  0  0  0  0  0  0  0
    8.0857  -14.6248   19.9419 C   0  0  0  0  0  0  0  0  0  0  0  0
    7.7441  -14.8390   21.3509 C   0  0  0  0  0  0  0  0  0  0  0  0
    7.0893  -16.1857   21.5957 C   0  0  2  0  0  0  0  0  0  0  0  0
    5.7634  -16.1188   21.0171 N   0  0  0  0  0  0  0  0  0  0  0  0
    6.9945  -16.3312   23.0931 C   0  0  0  0  0  0  0  0  0  0  0  0
    6.1409  -15.6845   23.7629 O   0  0  0  0  0  0  0  0  0  0  0  0
    7.7062  -13.4698   19.2966 C   0  0  0  0  0  0  0  0  0  0  0  0
    8.0237  -13.2497   17.9537 C   0  0  0  0  0  0  0  0  0  0  0  0
    7.8618  -17.2004   23.8022 N   0  0  0  0  0  0  0  0  0  0  0  0
    7.9239  -17.2476   25.2592 C   0  0  1  0  0  0  0  0  0  0  0  0
    8.3692  -18.6373   25.6541 C   0  0  0  0  0  0  0  0  0  0  0  0
    8.5288  -18.7613   27.1549 C   0  0  0  0  0  0  0  0  0  0  0  0
    8.9378  -20.1671   27.5289 C   0  0  0  0  0  0  0  0  0  0  0  0
    9.1982  -20.2387   29.0177 C   0  0  0  0  0  0  0  0  0  0  0  0
    9.4695  -21.6014   29.4099 N   0  0  0  0  0  0  0  0  0  0  0  0
    8.8183  -16.2219   25.8066 C   0  0  0  0  0  0  0  0  0  0  0  0
   10.0131  -16.1846   25.4201 O   0  0  0  0  0  0  0  0  0  0  0  0
    8.3370  -15.2863   26.7593 N   0  0  0  0  0  0  0  0  0  0  0  0
    9.2830  -14.3020   27.2638 C   0  0  1  0  0  0  0  0  0  0  0  0
    8.4755  -13.0421   27.5618 C   0  0  0  0  0  0  0  0  0  0  0  0
    7.6624  -12.5304   26.0343 S   0  0  0  0  0  0  0  0  0  0  0  0
    9.8588  -14.7890   28.5471 C   0  0  0  0  0  0  0  0  0  0  0  0
    9.4761  -15.8788   29.0264 O   0  0  0  0  0  0  0  0  0  0  0  0
   10.8190  -14.0843   29.2574 O   0  0  0  0  0  0  0  0  0  0  0  0
  2  1  1  0
  3  2  2  0
  4  3  1  0
  5  4  2  0
  5 11  1  0
  6  5  1  0
  7  6  1  0
  7  8  1  6
  9  7  1  0
 10  9  2  0
 11 12  2  0
 12  2  1  0
 13  9  1  0
 14 15  1  6
 14 13  1  0
 16 17  1  0
 16 15  1  0
 18 17  1  0
 19 18  1  0
 20 14  1  0
 21 20  2  0
 22 20  1  0
 23 22  1  0
 24 25  1  0
 23 24  1  1
 26 23  1  0
 26 28  1  0
 27 26  2  0
M  END
$$$$
