YKC.pdb
     RDKit          3D

 28 28  0  0  1  0  0  0  0  0999 V2000
   10.0483  -14.0605   30.8866 O   0  0  0  0  0  0  0  0  0  0  0  0
    9.8007  -14.3396   29.5414 C   0  0  0  0  0  0  0  0  0  0  0  0
    9.2288  -13.4063   28.7066 C   0  0  0  0  0  0  0  0  0  0  0  0
    8.9780  -13.6794   27.3578 C   0  0  0  0  0  0  0  0  0  0  0  0
    9.3048  -14.9044   26.8388 C   0  0  0  0  0  0  0  0  0  0  0  0
    9.0509  -15.2120   25.4286 C   0  0  0  0  0  0  0  0  0  0  0  0
    7.6733  -15.8050   25.1982 C   0  0  2  0  0  0  0  0  0  0  0  0
    7.5587  -16.9523   26.0745 N   0  0  0  0  0  0  0  0  0  0  0  0
    7.6519  -16.2488   23.7578 C   0  0  0  0  0  0  0  0  0  0  0  0
    7.8342  -17.4577   23.4404 O   0  0  0  0  0  0  0  0  0  0  0  0
    9.8770  -15.8419   27.6685 C   0  0  0  0  0  0  0  0  0  0  0  0
   10.1258  -15.5651   29.0154 C   0  0  0  0  0  0  0  0  0  0  0  0
    7.4260  -15.3228   22.7079 N   0  0  0  0  0  0  0  0  0  0  0  0
    7.9754  -15.4911   21.3668 C   0  0  1  0  0  0  0  0  0  0  0  0
    7.6229  -14.2562   20.5689 C   0  0  0  0  0  0  0  0  0  0  0  0
    8.0151  -14.4073   19.1141 C   0  0  0  0  0  0  0  0  0  0  0  0
    7.4689  -13.2593   18.2972 C   0  0  0  0  0  0  0  0  0  0  0  0
    7.7787  -13.4876   16.8339 C   0  0  0  0  0  0  0  0  0  0  0  0
    7.1120  -12.4957   16.0240 N   0  0  0  0  0  0  0  0  0  0  0  0
    9.4241  -15.7200   21.3890 C   0  0  0  0  0  0  0  0  0  0  0  0
   10.1112  -15.1942   22.3000 O   0  0  0  0  0  0  0  0  0  0  0  0
   10.0375  -16.5247   20.3936 N   0  0  0  0  0  0  0  0  0  0  0  0
   11.4379  -16.8713   20.5861 C   0  0  1  0  0  0  0  0  0  0  0  0
   11.4834  -17.8420   21.7624 C   0  0  0  0  0  0  0  0  0  0  0  0
   13.1806  -18.4318   21.9294 S   0  0  0  0  0  0  0  0  0  0  0  0
   11.9344  -17.5907   19.3813 C   0  0  0  0  0  0  0  0  0  0  0  0
   13.1523  -17.8511   19.2704 O   0  0  0  0  0  0  0  0  0  0  0  0
   11.1008  -17.9977   18.3503 O   0  0  0  0  0  0  0  0  0  0  0  0
  2  1  1  0
  3  2  2  0
  4  3  1  0
  5  4  2  0
  5 11  1  0
  6  5  1  0
  7  6  1  0
  7  8  1  1
  9  7  1  0
 10  9  2  0
 11 12  2  0
 12  2  1  0
 13  9  1  0
 14 15  1  6
 14 13  1  0
 16 17  1  0
 16 15  1  0
 18 17  1  0
 19 18  1  0
 20 14  1  0
 21 20  2  0
 22 20  1  0
 23 22  1  0
 24 25  1  0
 23 24  1  1
 26 23  1  0
 26 28  1  0
 27 26  2  0
M  END
$$$$
