YKC.pdb
     RDKit          3D

 28 28  0  0  1  0  0  0  0  0999 V2000
    8.2890  -13.0806   16.7206 O   0  0  0  0  0  0  0  0  0  0  0  0
    8.0824  -13.5068   18.0339 C   0  0  0  0  0  0  0  0  0  0  0  0
    8.0419  -14.8441   18.3581 C   0  0  0  0  0  0  0  0  0  0  0  0
    7.8353  -15.2779   19.6718 C   0  0  0  0  0  0  0  0  0  0  0  0
    7.6671  -14.3591   20.6739 C   0  0  0  0  0  0  0  0  0  0  0  0
    7.4493  -14.7914   22.0572 C   0  0  0  0  0  0  0  0  0  0  0  0
    7.2767  -16.2939   22.1801 C   0  0  2  0  0  0  0  0  0  0  0  0
    5.8521  -16.5494   22.2322 N   0  0  0  0  0  0  0  0  0  0  0  0
    7.9200  -16.6765   23.4885 C   0  0  0  0  0  0  0  0  0  0  0  0
    7.3295  -16.4910   24.5896 O   0  0  0  0  0  0  0  0  0  0  0  0
    7.7066  -13.0205   20.3560 C   0  0  0  0  0  0  0  0  0  0  0  0
    7.9133  -12.5912   19.0424 C   0  0  0  0  0  0  0  0  0  0  0  0
    9.2123  -17.2586   23.5282 N   0  0  0  0  0  0  0  0  0  0  0  0
    9.9273  -17.5244   24.7721 C   0  0  1  0  0  0  0  0  0  0  0  0
   11.0430  -18.4959   24.4607 C   0  0  0  0  0  0  0  0  0  0  0  0
   10.5002  -19.8550   24.0712 C   0  0  0  0  0  0  0  0  0  0  0  0
   11.6322  -20.8186   23.8002 C   0  0  0  0  0  0  0  0  0  0  0  0
   11.0681  -22.1922   23.5096 C   0  0  0  0  0  0  0  0  0  0  0  0
   12.1211  -23.0810   23.0788 N   0  0  0  0  0  0  0  0  0  0  0  0
   10.4418  -16.2955   25.3857 C   0  0  0  0  0  0  0  0  0  0  0  0
   11.2971  -15.6154   24.7658 O   0  0  0  0  0  0  0  0  0  0  0  0
    9.9776  -15.8836   26.6622 N   0  0  0  0  0  0  0  0  0  0  0  0
   10.7113  -14.8162   27.3260 C   0  0  1  0  0  0  0  0  0  0  0  0
    9.9912  -13.5171   26.9770 C   0  0  0  0  0  0  0  0  0  0  0  0
    8.3432  -13.5825   27.7092 S   0  0  0  0  0  0  0  0  0  0  0  0
   10.6236  -15.0048   28.7999 C   0  0  0  0  0  0  0  0  0  0  0  0
   11.1673  -14.1794   29.5658 O   0  0  0  0  0  0  0  0  0  0  0  0
    9.9563  -16.0708   29.3844 O   0  0  0  0  0  0  0  0  0  0  0  0
  2  1  1  0
  3  2  2  0
  4  3  1  0
  5  4  2  0
  5 11  1  0
  6  5  1  0
  7  6  1  0
  7  8  1  1
  9  7  1  0
 10  9  2  0
 11 12  2  0
 12  2  1  0
 13  9  1  0
 14 15  1  6
 14 13  1  0
 16 17  1  0
 16 15  1  0
 18 17  1  0
 19 18  1  0
 20 14  1  0
 21 20  2  0
 22 20  1  0
 23 22  1  0
 24 25  1  0
 23 24  1  1
 26 23  1  0
 26 28  1  0
 27 26  2  0
M  END
$$$$
