YKC.pdb
     RDKit          3D

 28 28  0  0  1  0  0  0  0  0999 V2000
    7.9640  -13.6672   14.9217 O   0  0  0  0  0  0  0  0  0  0  0  0
    7.7554  -13.8301   16.2924 C   0  0  0  0  0  0  0  0  0  0  0  0
    7.2455  -15.0001   16.8084 C   0  0  0  0  0  0  0  0  0  0  0  0
    7.0341  -15.1698   18.1807 C   0  0  0  0  0  0  0  0  0  0  0  0
    7.3378  -14.1533   19.0473 C   0  0  0  0  0  0  0  0  0  0  0  0
    7.1243  -14.3096   20.4888 C   0  0  0  0  0  0  0  0  0  0  0  0
    8.3937  -14.6847   21.2307 C   0  0  2  0  0  0  0  0  0  0  0  0
    8.8935  -15.8988   20.6195 N   0  0  0  0  0  0  0  0  0  0  0  0
    7.9744  -14.9553   22.6531 C   0  0  0  0  0  0  0  0  0  0  0  0
    7.4119  -14.0664   23.3523 O   0  0  0  0  0  0  0  0  0  0  0  0
    7.8480  -12.9810   18.5375 C   0  0  0  0  0  0  0  0  0  0  0  0
    8.0577  -12.8154   17.1660 C   0  0  0  0  0  0  0  0  0  0  0  0
    8.1974  -16.2192   23.2560 N   0  0  0  0  0  0  0  0  0  0  0  0
    7.8455  -16.5131   24.6412 C   0  0  1  0  0  0  0  0  0  0  0  0
    7.8444  -18.0161   24.8047 C   0  0  0  0  0  0  0  0  0  0  0  0
    6.7039  -18.6547   24.0400 C   0  0  0  0  0  0  0  0  0  0  0  0
    6.8139  -20.1611   24.0870 C   0  0  0  0  0  0  0  0  0  0  0  0
    5.7274  -20.7742   23.2308 C   0  0  0  0  0  0  0  0  0  0  0  0
    5.8958  -22.2065   23.1644 N   0  0  0  0  0  0  0  0  0  0  0  0
    8.7605  -15.8708   25.5908 C   0  0  0  0  0  0  0  0  0  0  0  0
    9.9989  -15.9523   25.3954 O   0  0  0  0  0  0  0  0  0  0  0  0
    8.2504  -15.1681   26.7135 N   0  0  0  0  0  0  0  0  0  0  0  0
    9.2180  -14.5984   27.6396 C   0  0  1  0  0  0  0  0  0  0  0  0
    8.5749  -13.3395   28.2136 C   0  0  0  0  0  0  0  0  0  0  0  0
    7.9812  -12.3409   26.8328 S   0  0  0  0  0  0  0  0  0  0  0  0
    9.4401  -15.5500   28.7624 C   0  0  0  0  0  0  0  0  0  0  0  0
    8.8089  -16.6288   28.7972 O   0  0  0  0  0  0  0  0  0  0  0  0
   10.3298  -15.3002   29.7966 O   0  0  0  0  0  0  0  0  0  0  0  0
  2  1  1  0
  3  2  2  0
  4  3  1  0
  5  4  2  0
  5 11  1  0
  6  5  1  0
  7  6  1  0
  7  8  1  6
  9  7  1  0
 10  9  2  0
 11 12  2  0
 12  2  1  0
 13  9  1  0
 14 15  1  6
 14 13  1  0
 16 17  1  0
 16 15  1  0
 18 17  1  0
 19 18  1  0
 20 14  1  0
 21 20  2  0
 22 20  1  0
 23 22  1  0
 24 25  1  0
 23 24  1  1
 26 23  1  0
 26 28  1  0
 27 26  2  0
M  END
$$$$
