YKC.pdb
     RDKit          3D

 28 28  0  0  1  0  0  0  0  0999 V2000
   10.3711  -14.2308   30.9209 O   0  0  0  0  0  0  0  0  0  0  0  0
   10.1645  -14.5727   29.5832 C   0  0  0  0  0  0  0  0  0  0  0  0
    9.5872  -13.6919   28.6966 C   0  0  0  0  0  0  0  0  0  0  0  0
    9.3773  -14.0280   27.3551 C   0  0  0  0  0  0  0  0  0  0  0  0
    9.7511  -15.2634   26.8961 C   0  0  0  0  0  0  0  0  0  0  0  0
    9.5406  -15.6366   25.4946 C   0  0  0  0  0  0  0  0  0  0  0  0
    8.1012  -16.0160   25.2003 C   0  0  2  0  0  0  0  0  0  0  0  0
    7.8189  -17.2142   25.9631 N   0  0  0  0  0  0  0  0  0  0  0  0
    8.0484  -16.3170   23.7242 C   0  0  0  0  0  0  0  0  0  0  0  0
    8.2966  -17.4732   23.2804 O   0  0  0  0  0  0  0  0  0  0  0  0
   10.3289  -16.1486   27.7777 C   0  0  0  0  0  0  0  0  0  0  0  0
   10.5368  -15.8089   29.1171 C   0  0  0  0  0  0  0  0  0  0  0  0
    7.7177  -15.3106   22.7815 N   0  0  0  0  0  0  0  0  0  0  0  0
    8.0912  -15.3863   21.3730 C   0  0  1  0  0  0  0  0  0  0  0  0
    7.6652  -14.0931   20.7159 C   0  0  0  0  0  0  0  0  0  0  0  0
    7.9873  -14.0924   19.2362 C   0  0  0  0  0  0  0  0  0  0  0  0
    7.5445  -12.7956   18.5992 C   0  0  0  0  0  0  0  0  0  0  0  0
    7.8132  -12.8457   17.1111 C   0  0  0  0  0  0  0  0  0  0  0  0
    7.3031  -14.0765   16.5550 N   0  0  0  0  0  0  0  0  0  0  0  0
    9.5266  -15.6307   21.1955 C   0  0  0  0  0  0  0  0  0  0  0  0
   10.3464  -14.9940   21.9033 O   0  0  0  0  0  0  0  0  0  0  0  0
    9.9793  -16.5742   20.2366 N   0  0  0  0  0  0  0  0  0  0  0  0
   11.4086  -16.8451   20.1911 C   0  0  1  0  0  0  0  0  0  0  0  0
   11.6336  -18.1090   21.0158 C   0  0  0  0  0  0  0  0  0  0  0  0
   12.2714  -17.6122   22.6291 S   0  0  0  0  0  0  0  0  0  0  0  0
   11.8067  -17.1394   18.7873 C   0  0  0  0  0  0  0  0  0  0  0  0
   10.9289  -17.2713   17.9067 O   0  0  0  0  0  0  0  0  0  0  0  0
   13.1290  -17.2786   18.3928 O   0  0  0  0  0  0  0  0  0  0  0  0
  2  1  1  0
  3  2  2  0
  4  3  1  0
  5  4  2  0
  5 11  1  0
  6  5  1  0
  7  6  1  0
  7  8  1  1
  9  7  1  0
 10  9  2  0
 11 12  2  0
 12  2  1  0
 13  9  1  0
 14 15  1  6
 14 13  1  0
 16 17  1  0
 16 15  1  0
 18 17  1  0
 19 18  1  0
 20 14  1  0
 21 20  2  0
 22 20  1  0
 23 22  1  0
 24 25  1  0
 23 24  1  1
 26 23  1  0
 26 28  1  0
 27 26  2  0
M  END
$$$$
