YKC.pdb
     RDKit          3D

 28 28  0  0  1  0  0  0  0  0999 V2000
    8.8562  -12.6440   29.9127 O   0  0  0  0  0  0  0  0  0  0  0  0
    9.5071  -13.4212   28.9529 C   0  0  0  0  0  0  0  0  0  0  0  0
    8.8846  -13.7872   27.7809 C   0  0  0  0  0  0  0  0  0  0  0  0
    9.5310  -14.5658   26.8152 C   0  0  0  0  0  0  0  0  0  0  0  0
   10.8185  -14.9830   27.0269 C   0  0  0  0  0  0  0  0  0  0  0  0
   11.5148  -15.7993   26.0286 C   0  0  0  0  0  0  0  0  0  0  0  0
   10.6124  -16.8394   25.3911 C   0  0  2  0  0  0  0  0  0  0  0  0
   10.2692  -17.7895   26.4289 N   0  0  0  0  0  0  0  0  0  0  0  0
   11.4445  -17.5107   24.3285 C   0  0  0  0  0  0  0  0  0  0  0  0
   12.4872  -18.1597   24.6236 O   0  0  0  0  0  0  0  0  0  0  0  0
   11.4464  -14.6202   28.1968 C   0  0  0  0  0  0  0  0  0  0  0  0
   10.7971  -13.8423   29.1591 C   0  0  0  0  0  0  0  0  0  0  0  0
   11.0847  -17.4364   22.9589 N   0  0  0  0  0  0  0  0  0  0  0  0
   11.9220  -17.9638   21.8867 C   0  0  1  0  0  0  0  0  0  0  0  0
   11.1216  -17.8982   20.6059 C   0  0  0  0  0  0  0  0  0  0  0  0
    9.9733  -18.8854   20.6202 C   0  0  0  0  0  0  0  0  0  0  0  0
    9.2306  -18.8518   19.3047 C   0  0  0  0  0  0  0  0  0  0  0  0
    8.1599  -19.9208   19.3011 C   0  0  0  0  0  0  0  0  0  0  0  0
    7.3812  -19.8405   18.0881 N   0  0  0  0  0  0  0  0  0  0  0  0
   13.1884  -17.2334   21.7659 C   0  0  0  0  0  0  0  0  0  0  0  0
   13.2253  -16.0188   22.0848 O   0  0  0  0  0  0  0  0  0  0  0  0
   14.3535  -17.8930   21.2949 N   0  0  0  0  0  0  0  0  0  0  0  0
   15.5666  -17.0980   21.1732 C   0  0  1  0  0  0  0  0  0  0  0  0
   16.3515  -17.3099   22.4645 C   0  0  0  0  0  0  0  0  0  0  0  0
   18.0185  -16.6670   22.2120 S   0  0  0  0  0  0  0  0  0  0  0  0
   16.3870  -17.6254   20.0488 C   0  0  0  0  0  0  0  0  0  0  0  0
   16.2510  -18.8137   19.6839 O   0  0  0  0  0  0  0  0  0  0  0  0
   17.3159  -16.8533   19.3673 O   0  0  0  0  0  0  0  0  0  0  0  0
  2  1  1  0
  3  2  2  0
  4  3  1  0
  5  4  2  0
  5 11  1  0
  6  5  1  0
  7  6  1  0
  7  8  1  1
  9  7  1  0
 10  9  2  0
 11 12  2  0
 12  2  1  0
 13  9  1  0
 14 15  1  6
 14 13  1  0
 16 17  1  0
 16 15  1  0
 18 17  1  0
 19 18  1  0
 20 14  1  0
 21 20  2  0
 22 20  1  0
 23 22  1  0
 24 25  1  0
 23 24  1  1
 26 23  1  0
 26 28  1  0
 27 26  2  0
M  END
$$$$
