YKC.pdb
     RDKit          3D

 28 28  0  0  1  0  0  0  0  0999 V2000
    9.5218  -21.4960   30.4947 O   0  0  0  0  0  0  0  0  0  0  0  0
    8.8955  -20.6790   29.5517 C   0  0  0  0  0  0  0  0  0  0  0  0
    9.3888  -19.4323   29.2393 C   0  0  0  0  0  0  0  0  0  0  0  0
    8.7663  -18.6087   28.2955 C   0  0  0  0  0  0  0  0  0  0  0  0
    7.6342  -19.0405   27.6562 C   0  0  0  0  0  0  0  0  0  0  0  0
    6.9657  -18.1941   26.6639 C   0  0  0  0  0  0  0  0  0  0  0  0
    7.1094  -18.7256   25.2500 C   0  0  2  0  0  0  0  0  0  0  0  0
    7.8473  -19.9683   25.3421 N   0  0  0  0  0  0  0  0  0  0  0  0
    7.9192  -17.6962   24.5036 C   0  0  0  0  0  0  0  0  0  0  0  0
    9.1805  -17.7533   24.4670 O   0  0  0  0  0  0  0  0  0  0  0  0
    7.1360  -20.2861   27.9642 C   0  0  0  0  0  0  0  0  0  0  0  0
    7.7610  -21.1058   28.9077 C   0  0  0  0  0  0  0  0  0  0  0  0
    7.2916  -16.6267   23.8158 N   0  0  0  0  0  0  0  0  0  0  0  0
    8.0361  -15.5562   23.1611 C   0  0  1  0  0  0  0  0  0  0  0  0
    7.1734  -15.0153   22.0435 C   0  0  0  0  0  0  0  0  0  0  0  0
    7.9389  -14.0358   21.1787 C   0  0  0  0  0  0  0  0  0  0  0  0
    7.1026  -13.6109   19.9939 C   0  0  0  0  0  0  0  0  0  0  0  0
    7.9482  -12.7865   19.0479 C   0  0  0  0  0  0  0  0  0  0  0  0
    7.1655  -12.3849   17.9033 N   0  0  0  0  0  0  0  0  0  0  0  0
    8.4220  -14.4982   24.1009 C   0  0  0  0  0  0  0  0  0  0  0  0
    9.1173  -13.5374   23.6864 O   0  0  0  0  0  0  0  0  0  0  0  0
    8.0137  -14.5623   25.4587 N   0  0  0  0  0  0  0  0  0  0  0  0
    8.5006  -13.5210   26.3514 C   0  0  1  0  0  0  0  0  0  0  0  0
    7.2737  -12.9485   27.0549 C   0  0  0  0  0  0  0  0  0  0  0  0
    6.0055  -12.6532   25.8056 S   0  0  0  0  0  0  0  0  0  0  0  0
    9.3761  -14.1340   27.3873 C   0  0  0  0  0  0  0  0  0  0  0  0
    9.5821  -15.3673   27.3768 O   0  0  0  0  0  0  0  0  0  0  0  0
    9.9905  -13.3953   28.3875 O   0  0  0  0  0  0  0  0  0  0  0  0
  2  1  1  0
  3  2  2  0
  4  3  1  0
  5  4  2  0
  5 11  1  0
  6  5  1  0
  7  6  1  0
  7  8  1  1
  9  7  1  0
 10  9  2  0
 11 12  2  0
 12  2  1  0
 13  9  1  0
 14 15  1  6
 14 13  1  0
 16 17  1  0
 16 15  1  0
 18 17  1  0
 19 18  1  0
 20 14  1  0
 21 20  2  0
 22 20  1  0
 23 22  1  0
 24 25  1  0
 23 24  1  1
 26 23  1  0
 26 28  1  0
 27 26  2  0
M  END
$$$$
