YKC.pdb
     RDKit          3D

 28 28  0  0  1  0  0  0  0  0999 V2000
   10.2640  -14.0782   31.0432 O   0  0  0  0  0  0  0  0  0  0  0  0
   10.4349  -14.5347   29.7351 C   0  0  0  0  0  0  0  0  0  0  0  0
    9.8459  -15.6992   29.2969 C   0  0  0  0  0  0  0  0  0  0  0  0
   10.0131  -16.1622   27.9875 C   0  0  0  0  0  0  0  0  0  0  0  0
   10.7809  -15.4485   27.1056 C   0  0  0  0  0  0  0  0  0  0  0  0
   10.9696  -15.9150   25.7292 C   0  0  0  0  0  0  0  0  0  0  0  0
   10.2632  -17.2297   25.4553 C   0  0  2  0  0  0  0  0  0  0  0  0
   10.6966  -18.1596   26.4775 N   0  0  0  0  0  0  0  0  0  0  0  0
   10.7485  -17.6837   24.1023 C   0  0  0  0  0  0  0  0  0  0  0  0
   11.7242  -18.4774   23.9870 O   0  0  0  0  0  0  0  0  0  0  0  0
   11.3726  -14.2832   27.5378 C   0  0  0  0  0  0  0  0  0  0  0  0
   11.2031  -13.8241   28.8467 C   0  0  0  0  0  0  0  0  0  0  0  0
   10.1251  -17.2344   22.9105 N   0  0  0  0  0  0  0  0  0  0  0  0
   10.6068  -17.5870   21.5791 C   0  0  1  0  0  0  0  0  0  0  0  0
    9.5790  -17.1094   20.5786 C   0  0  0  0  0  0  0  0  0  0  0  0
    9.0129  -18.2612   19.7747 C   0  0  0  0  0  0  0  0  0  0  0  0
    7.8227  -17.8049   18.9630 C   0  0  0  0  0  0  0  0  0  0  0  0
    7.3640  -18.9305   18.0618 C   0  0  0  0  0  0  0  0  0  0  0  0
    6.1799  -18.5354   17.3366 N   0  0  0  0  0  0  0  0  0  0  0  0
   11.9298  -17.0172   21.3026 C   0  0  0  0  0  0  0  0  0  0  0  0
   12.1432  -15.8093   21.5744 O   0  0  0  0  0  0  0  0  0  0  0  0
   12.9522  -17.8222   20.7357 N   0  0  0  0  0  0  0  0  0  0  0  0
   14.2547  -17.2038   20.5372 C   0  0  1  0  0  0  0  0  0  0  0  0
   15.2221  -17.9296   21.4676 C   0  0  0  0  0  0  0  0  0  0  0  0
   15.0890  -17.1773   23.1023 S   0  0  0  0  0  0  0  0  0  0  0  0
   14.7018  -17.4425   19.1377 C   0  0  0  0  0  0  0  0  0  0  0  0
   14.1612  -18.3413   18.4569 O   0  0  0  0  0  0  0  0  0  0  0  0
   15.7090  -16.7055   18.5327 O   0  0  0  0  0  0  0  0  0  0  0  0
  2  1  1  0
  3  2  2  0
  4  3  1  0
  5  4  2  0
  5 11  1  0
  6  5  1  0
  7  6  1  0
  7  8  1  1
  9  7  1  0
 10  9  2  0
 11 12  2  0
 12  2  1  0
 13  9  1  0
 14 15  1  6
 14 13  1  0
 16 17  1  0
 16 15  1  0
 18 17  1  0
 19 18  1  0
 20 14  1  0
 21 20  2  0
 22 20  1  0
 23 22  1  0
 24 25  1  0
 23 24  1  1
 26 23  1  0
 26 28  1  0
 27 26  2  0
M  END
$$$$
