YKC.pdb
     RDKit          3D

 28 28  0  0  1  0  0  0  0  0999 V2000
    8.5579  -13.4372   16.2733 O   0  0  0  0  0  0  0  0  0  0  0  0
    8.2312  -13.7295   17.5987 C   0  0  0  0  0  0  0  0  0  0  0  0
    7.5403  -12.8341   18.3835 C   0  0  0  0  0  0  0  0  0  0  0  0
    7.2097  -13.1207   19.7121 C   0  0  0  0  0  0  0  0  0  0  0  0
    7.5767  -14.3208   20.2615 C   0  0  0  0  0  0  0  0  0  0  0  0
    7.2408  -14.6418   21.6515 C   0  0  0  0  0  0  0  0  0  0  0  0
    7.0053  -16.1250   21.8686 C   0  0  2  0  0  0  0  0  0  0  0  0
    5.6839  -16.4196   21.3543 N   0  0  0  0  0  0  0  0  0  0  0  0
    7.0386  -16.3328   23.3613 C   0  0  0  0  0  0  0  0  0  0  0  0
    6.1095  -15.9082   24.1043 O   0  0  0  0  0  0  0  0  0  0  0  0
    8.2678  -15.2203   19.4819 C   0  0  0  0  0  0  0  0  0  0  0  0
    8.5960  -14.9302   18.1550 C   0  0  0  0  0  0  0  0  0  0  0  0
    8.1158  -17.0134   23.9835 N   0  0  0  0  0  0  0  0  0  0  0  0
    8.1992  -17.2205   25.4254 C   0  0  1  0  0  0  0  0  0  0  0  0
    8.7201  -18.6206   25.6578 C   0  0  0  0  0  0  0  0  0  0  0  0
    7.5925  -19.5891   25.9477 C   0  0  0  0  0  0  0  0  0  0  0  0
    7.6435  -20.7606   24.9946 C   0  0  0  0  0  0  0  0  0  0  0  0
    6.4304  -21.6393   25.2084 C   0  0  0  0  0  0  0  0  0  0  0  0
    6.4368  -22.7333   24.2663 N   0  0  0  0  0  0  0  0  0  0  0  0
    9.0472  -16.2174   26.0784 C   0  0  0  0  0  0  0  0  0  0  0  0
   10.1424  -15.9053   25.5480 O   0  0  0  0  0  0  0  0  0  0  0  0
    8.6328  -15.6101   27.2925 N   0  0  0  0  0  0  0  0  0  0  0  0
    9.5576  -14.6789   27.9218 C   0  0  1  0  0  0  0  0  0  0  0  0
    8.7064  -13.5540   28.5036 C   0  0  0  0  0  0  0  0  0  0  0  0
    7.7794  -12.8030   27.1499 S   0  0  0  0  0  0  0  0  0  0  0  0
   10.2464  -15.3609   29.0513 C   0  0  0  0  0  0  0  0  0  0  0  0
    9.9642  -16.5476   29.3263 O   0  0  0  0  0  0  0  0  0  0  0  0
   11.2069  -14.7380   29.8342 O   0  0  0  0  0  0  0  0  0  0  0  0
  2  1  1  0
  3  2  2  0
  4  3  1  0
  5  4  2  0
  5 11  1  0
  6  5  1  0
  7  6  1  0
  7  8  1  1
  9  7  1  0
 10  9  2  0
 11 12  2  0
 12  2  1  0
 13  9  1  0
 14 15  1  6
 14 13  1  0
 16 17  1  0
 16 15  1  0
 18 17  1  0
 19 18  1  0
 20 14  1  0
 21 20  2  0
 22 20  1  0
 23 22  1  0
 24 25  1  0
 23 24  1  1
 26 23  1  0
 26 28  1  0
 27 26  2  0
M  END
$$$$
