YKC.pdb
     RDKit          3D

 28 28  0  0  1  0  0  0  0  0999 V2000
    5.6995  -10.6297   28.5340 O   0  0  0  0  0  0  0  0  0  0  0  0
    6.2457  -11.6345   27.7335 C   0  0  0  0  0  0  0  0  0  0  0  0
    7.2522  -12.4532   28.1935 C   0  0  0  0  0  0  0  0  0  0  0  0
    7.8038  -13.4619   27.3967 C   0  0  0  0  0  0  0  0  0  0  0  0
    7.3404  -13.6525   26.1217 C   0  0  0  0  0  0  0  0  0  0  0  0
    7.9040  -14.7033   25.2695 C   0  0  0  0  0  0  0  0  0  0  0  0
    6.8401  -15.4718   24.5079 C   0  0  2  0  0  0  0  0  0  0  0  0
    6.5345  -16.6518   25.2899 N   0  0  0  0  0  0  0  0  0  0  0  0
    7.4756  -15.8675   23.1995 C   0  0  0  0  0  0  0  0  0  0  0  0
    8.0573  -16.9802   23.0620 O   0  0  0  0  0  0  0  0  0  0  0  0
    6.3341  -12.8371   25.6559 C   0  0  0  0  0  0  0  0  0  0  0  0
    5.7857  -11.8306   26.4551 C   0  0  0  0  0  0  0  0  0  0  0  0
    7.4421  -15.0026   22.0763 N   0  0  0  0  0  0  0  0  0  0  0  0
    8.1610  -15.2796   20.8372 C   0  0  1  0  0  0  0  0  0  0  0  0
    8.0365  -14.0598   19.9528 C   0  0  0  0  0  0  0  0  0  0  0  0
    8.8113  -14.2307   18.6629 C   0  0  0  0  0  0  0  0  0  0  0  0
    7.8895  -14.1068   17.4719 C   0  0  0  0  0  0  0  0  0  0  0  0
    8.6832  -14.2909   16.1969 C   0  0  0  0  0  0  0  0  0  0  0  0
    7.8078  -14.2168   15.0514 N   0  0  0  0  0  0  0  0  0  0  0  0
    9.5658  -15.6249   21.0801 C   0  0  0  0  0  0  0  0  0  0  0  0
   10.2710  -14.8564   21.7804 O   0  0  0  0  0  0  0  0  0  0  0  0
   10.1171  -16.8116   20.5301 N   0  0  0  0  0  0  0  0  0  0  0  0
   11.5342  -17.0552   20.7557 C   0  0  1  0  0  0  0  0  0  0  0  0
   11.6477  -18.4853   21.2754 C   0  0  0  0  0  0  0  0  0  0  0  0
   10.9645  -18.5244   22.9451 S   0  0  0  0  0  0  0  0  0  0  0  0
   12.2563  -16.9833   19.4561 C   0  0  0  0  0  0  0  0  0  0  0  0
   11.6213  -16.7528   18.4039 O   0  0  0  0  0  0  0  0  0  0  0  0
   13.6272  -17.1621   19.3453 O   0  0  0  0  0  0  0  0  0  0  0  0
  2  1  1  0
  3  2  2  0
  4  3  1  0
  5  4  2  0
  5 11  1  0
  6  5  1  0
  7  6  1  0
  7  8  1  1
  9  7  1  0
 10  9  2  0
 11 12  2  0
 12  2  1  0
 13  9  1  0
 14 15  1  6
 14 13  1  0
 16 17  1  0
 16 15  1  0
 18 17  1  0
 19 18  1  0
 20 14  1  0
 21 20  2  0
 22 20  1  0
 23 22  1  0
 24 25  1  0
 23 24  1  6
 26 23  1  0
 26 28  1  0
 27 26  2  0
M  END
$$$$
