YKC.pdb
     RDKit          3D

 28 28  0  0  1  0  0  0  0  0999 V2000
    5.4391  -10.7407   28.3142 O   0  0  0  0  0  0  0  0  0  0  0  0
    6.0479  -11.7614   27.5818 C   0  0  0  0  0  0  0  0  0  0  0  0
    7.0064  -12.5754   28.1419 C   0  0  0  0  0  0  0  0  0  0  0  0
    7.6203  -13.5999   27.4138 C   0  0  0  0  0  0  0  0  0  0  0  0
    7.2688  -13.8113   26.1067 C   0  0  0  0  0  0  0  0  0  0  0  0
    7.8991  -14.8789   25.3252 C   0  0  0  0  0  0  0  0  0  0  0  0
    6.8906  -15.7241   24.5696 C   0  0  2  0  0  0  0  0  0  0  0  0
    6.6457  -16.9035   25.3736 N   0  0  0  0  0  0  0  0  0  0  0  0
    7.5627  -16.1089   23.2764 C   0  0  0  0  0  0  0  0  0  0  0  0
    8.1723  -17.2085   23.1549 O   0  0  0  0  0  0  0  0  0  0  0  0
    6.3110  -13.0007   25.5409 C   0  0  0  0  0  0  0  0  0  0  0  0
    5.7001  -11.9784   26.2718 C   0  0  0  0  0  0  0  0  0  0  0  0
    7.5336  -15.2482   22.1499 N   0  0  0  0  0  0  0  0  0  0  0  0
    8.2649  -15.5250   20.9180 C   0  0  1  0  0  0  0  0  0  0  0  0
    7.9573  -14.4118   19.9424 C   0  0  0  0  0  0  0  0  0  0  0  0
    8.5989  -14.6650   18.5943 C   0  0  0  0  0  0  0  0  0  0  0  0
    7.8881  -13.8819   17.5149 C   0  0  0  0  0  0  0  0  0  0  0  0
    8.5358  -14.1629   16.1767 C   0  0  0  0  0  0  0  0  0  0  0  0
    8.0114  -13.2676   15.1729 N   0  0  0  0  0  0  0  0  0  0  0  0
    9.7078  -15.6515   21.1499 C   0  0  0  0  0  0  0  0  0  0  0  0
   10.2377  -14.9880   22.0758 O   0  0  0  0  0  0  0  0  0  0  0  0
   10.4911  -16.5125   20.3376 N   0  0  0  0  0  0  0  0  0  0  0  0
   11.8221  -16.8535   20.8176 C   0  0  1  0  0  0  0  0  0  0  0  0
   11.6237  -17.7474   22.0381 C   0  0  0  0  0  0  0  0  0  0  0  0
   11.6749  -16.7002   23.5067 S   0  0  0  0  0  0  0  0  0  0  0  0
   12.5281  -17.6510   19.7778 C   0  0  0  0  0  0  0  0  0  0  0  0
   13.7778  -17.6907   19.7667 O   0  0  0  0  0  0  0  0  0  0  0  0
   11.8604  -18.3696   18.7974 O   0  0  0  0  0  0  0  0  0  0  0  0
  2  1  1  0
  3  2  2  0
  4  3  1  0
  5  4  2  0
  5 11  1  0
  6  5  1  0
  7  6  1  0
  7  8  1  1
  9  7  1  0
 10  9  2  0
 11 12  2  0
 12  2  1  0
 13  9  1  0
 14 15  1  6
 14 13  1  0
 16 17  1  0
 16 15  1  0
 18 17  1  0
 19 18  1  0
 20 14  1  0
 21 20  2  0
 22 20  1  0
 23 22  1  0
 24 25  1  0
 23 24  1  1
 26 23  1  0
 26 28  1  0
 27 26  2  0
M  END
$$$$
