YKC.pdb
     RDKit          3D

 28 28  0  0  1  0  0  0  0  0999 V2000
    7.6074  -12.2892   16.6377 O   0  0  0  0  0  0  0  0  0  0  0  0
    7.6304  -12.9742   17.8540 C   0  0  0  0  0  0  0  0  0  0  0  0
    6.9354  -14.1492   18.0309 C   0  0  0  0  0  0  0  0  0  0  0  0
    6.9541  -14.8405   19.2468 C   0  0  0  0  0  0  0  0  0  0  0  0
    7.6792  -14.3475   20.2994 C   0  0  0  0  0  0  0  0  0  0  0  0
    7.7129  -15.0554   21.5822 C   0  0  0  0  0  0  0  0  0  0  0  0
    8.5846  -16.2968   21.5424 C   0  0  2  0  0  0  0  0  0  0  0  0
    7.9618  -17.2169   20.6136 N   0  0  0  0  0  0  0  0  0  0  0  0
    8.5522  -16.8673   22.9373 C   0  0  0  0  0  0  0  0  0  0  0  0
    7.7204  -17.7605   23.2623 O   0  0  0  0  0  0  0  0  0  0  0  0
    8.3763  -13.1730   20.1287 C   0  0  0  0  0  0  0  0  0  0  0  0
    8.3549  -12.4854   18.9124 C   0  0  0  0  0  0  0  0  0  0  0  0
    9.4561  -16.4200   23.9342 N   0  0  0  0  0  0  0  0  0  0  0  0
   10.0992  -17.3194   24.8862 C   0  0  1  0  0  0  0  0  0  0  0  0
   10.8450  -18.3687   24.0935 C   0  0  0  0  0  0  0  0  0  0  0  0
   10.5301  -19.7643   24.5898 C   0  0  0  0  0  0  0  0  0  0  0  0
   10.1403  -20.6601   23.4370 C   0  0  0  0  0  0  0  0  0  0  0  0
    9.9647  -22.0779   23.9354 C   0  0  0  0  0  0  0  0  0  0  0  0
    9.6236  -22.9519   22.8381 N   0  0  0  0  0  0  0  0  0  0  0  0
   10.9930  -16.6041   25.8033 C   0  0  0  0  0  0  0  0  0  0  0  0
   11.8798  -15.8515   25.3284 O   0  0  0  0  0  0  0  0  0  0  0  0
   10.8550  -16.7626   27.2070 N   0  0  0  0  0  0  0  0  0  0  0  0
   10.7923  -15.5514   28.0118 C   0  0  1  0  0  0  0  0  0  0  0  0
    9.4984  -14.8425   27.6226 C   0  0  0  0  0  0  0  0  0  0  0  0
    9.4011  -13.3080   28.5670 S   0  0  0  0  0  0  0  0  0  0  0  0
   10.6942  -15.9234   29.4496 C   0  0  0  0  0  0  0  0  0  0  0  0
   10.1544  -17.0027   29.7772 O   0  0  0  0  0  0  0  0  0  0  0  0
   11.1799  -15.1200   30.4704 O   0  0  0  0  0  0  0  0  0  0  0  0
  2  1  1  0
  3  2  2  0
  4  3  1  0
  5  4  2  0
  5 11  1  0
  6  5  1  0
  7  6  1  0
  7  8  1  6
  9  7  1  0
 10  9  2  0
 11 12  2  0
 12  2  1  0
 13  9  1  0
 14 15  1  6
 14 13  1  0
 16 17  1  0
 16 15  1  0
 18 17  1  0
 19 18  1  0
 20 14  1  0
 21 20  2  0
 22 20  1  0
 23 22  1  0
 24 25  1  0
 23 24  1  6
 26 23  1  0
 26 28  1  0
 27 26  2  0
M  END
$$$$
