YKC.pdb
     RDKit          3D

 28 28  0  0  1  0  0  0  0  0999 V2000
    9.9640  -14.5557   30.6774 O   0  0  0  0  0  0  0  0  0  0  0  0
    9.8041  -14.7322   29.3018 C   0  0  0  0  0  0  0  0  0  0  0  0
    9.1211  -13.8164   28.5337 C   0  0  0  0  0  0  0  0  0  0  0  0
    8.9572  -13.9872   27.1551 C   0  0  0  0  0  0  0  0  0  0  0  0
    9.4850  -15.0906   26.5380 C   0  0  0  0  0  0  0  0  0  0  0  0
    9.3252  -15.2896   25.0949 C   0  0  0  0  0  0  0  0  0  0  0  0
    7.9051  -15.6597   24.7092 C   0  0  2  0  0  0  0  0  0  0  0  0
    7.6277  -16.9455   25.3152 N   0  0  0  0  0  0  0  0  0  0  0  0
    7.9057  -15.7841   23.2070 C   0  0  0  0  0  0  0  0  0  0  0  0
    8.1841  -16.8773   22.6387 O   0  0  0  0  0  0  0  0  0  0  0  0
   10.1690  -16.0099   27.3007 C   0  0  0  0  0  0  0  0  0  0  0  0
   10.3305  -15.8356   28.6777 C   0  0  0  0  0  0  0  0  0  0  0  0
    7.5933  -14.6763   22.3788 N   0  0  0  0  0  0  0  0  0  0  0  0
    7.9734  -14.6024   20.9721 C   0  0  1  0  0  0  0  0  0  0  0  0
    7.6010  -13.2264   20.4685 C   0  0  0  0  0  0  0  0  0  0  0  0
    8.0839  -13.0073   19.0500 C   0  0  0  0  0  0  0  0  0  0  0  0
    7.3505  -13.9201   18.0948 C   0  0  0  0  0  0  0  0  0  0  0  0
    7.9016  -13.7377   16.6976 C   0  0  0  0  0  0  0  0  0  0  0  0
    7.1915  -14.5845   15.7686 N   0  0  0  0  0  0  0  0  0  0  0  0
    9.3998  -14.8793   20.7710 C   0  0  0  0  0  0  0  0  0  0  0  0
   10.2336  -14.4079   21.5840 O   0  0  0  0  0  0  0  0  0  0  0  0
    9.8282  -15.6691   19.6723 N   0  0  0  0  0  0  0  0  0  0  0  0
   11.1235  -16.3231   19.7861 C   0  0  1  0  0  0  0  0  0  0  0  0
   10.9426  -17.4666   20.7800 C   0  0  0  0  0  0  0  0  0  0  0  0
   12.0553  -17.1744   22.1701 S   0  0  0  0  0  0  0  0  0  0  0  0
   11.4902  -16.9154   18.4707 C   0  0  0  0  0  0  0  0  0  0  0  0
   10.5946  -17.2021   17.6465 O   0  0  0  0  0  0  0  0  0  0  0  0
   12.8015  -17.1731   18.1000 O   0  0  0  0  0  0  0  0  0  0  0  0
  2  1  1  0
  3  2  2  0
  4  3  1  0
  5  4  2  0
  5 11  1  0
  6  5  1  0
  7  6  1  0
  7  8  1  1
  9  7  1  0
 10  9  2  0
 11 12  2  0
 12  2  1  0
 13  9  1  0
 14 15  1  1
 14 13  1  0
 16 17  1  0
 16 15  1  0
 18 17  1  0
 19 18  1  0
 20 14  1  0
 21 20  2  0
 22 20  1  0
 23 22  1  0
 24 25  1  0
 23 24  1  1
 26 23  1  0
 26 28  1  0
 27 26  2  0
M  END
$$$$
