YKC.pdb
     RDKit          3D

 28 28  0  0  1  0  0  0  0  0999 V2000
    8.1315  -11.2566   27.2997 O   0  0  0  0  0  0  0  0  0  0  0  0
    7.5355  -12.3145   26.6108 C   0  0  0  0  0  0  0  0  0  0  0  0
    7.8729  -12.6057   25.3084 C   0  0  0  0  0  0  0  0  0  0  0  0
    7.2796  -13.6642   24.6124 C   0  0  0  0  0  0  0  0  0  0  0  0
    6.3355  -14.4412   25.2302 C   0  0  0  0  0  0  0  0  0  0  0  0
    5.7011  -15.5551   24.5200 C   0  0  0  0  0  0  0  0  0  0  0  0
    6.4720  -16.8543   24.6623 C   0  0  2  0  0  0  0  0  0  0  0  0
    7.0511  -16.8551   25.9897 N   0  0  0  0  0  0  0  0  0  0  0  0
    7.5614  -16.8025   23.6217 C   0  0  0  0  0  0  0  0  0  0  0  0
    8.3727  -17.7590   23.4721 O   0  0  0  0  0  0  0  0  0  0  0  0
    5.9938  -14.1550   26.5326 C   0  0  0  0  0  0  0  0  0  0  0  0
    6.5889  -13.0967   27.2243 C   0  0  0  0  0  0  0  0  0  0  0  0
    7.7131  -15.6762   22.7737 N   0  0  0  0  0  0  0  0  0  0  0  0
    8.7702  -15.5700   21.7736 C   0  0  1  0  0  0  0  0  0  0  0  0
    8.3710  -14.4860   20.7982 C   0  0  0  0  0  0  0  0  0  0  0  0
    8.5004  -14.9568   19.3648 C   0  0  0  0  0  0  0  0  0  0  0  0
    8.4305  -13.7840   18.4146 C   0  0  0  0  0  0  0  0  0  0  0  0
    8.4377  -14.2880   16.9879 C   0  0  0  0  0  0  0  0  0  0  0  0
    8.2953  -13.1831   16.0696 N   0  0  0  0  0  0  0  0  0  0  0  0
   10.0767  -15.2917   22.3796 C   0  0  0  0  0  0  0  0  0  0  0  0
   10.1467  -14.4734   23.3303 O   0  0  0  0  0  0  0  0  0  0  0  0
   11.2432  -15.9398   21.8960 N   0  0  0  0  0  0  0  0  0  0  0  0
   12.3665  -16.0627   22.8133 C   0  0  1  0  0  0  0  0  0  0  0  0
   11.8867  -16.9395   23.9663 C   0  0  0  0  0  0  0  0  0  0  0  0
   13.2866  -17.2193   25.0700 S   0  0  0  0  0  0  0  0  0  0  0  0
   13.4804  -16.7759   22.1306 C   0  0  0  0  0  0  0  0  0  0  0  0
   14.6504  -16.3477   22.2368 O   0  0  0  0  0  0  0  0  0  0  0  0
   13.2877  -17.9162   21.3651 O   0  0  0  0  0  0  0  0  0  0  0  0
  2  1  1  0
  3  2  2  0
  4  3  1  0
  5  4  2  0
  5 11  1  0
  6  5  1  0
  7  6  1  0
  7  8  1  1
  9  7  1  0
 10  9  2  0
 11 12  2  0
 12  2  1  0
 13  9  1  0
 14 15  1  6
 14 13  1  0
 16 17  1  0
 16 15  1  0
 18 17  1  0
 19 18  1  0
 20 14  1  0
 21 20  2  0
 22 20  1  0
 23 22  1  0
 24 25  1  0
 23 24  1  1
 26 23  1  0
 26 28  1  0
 27 26  2  0
M  END
$$$$
