YKC.pdb
     RDKit          3D

 28 28  0  0  1  0  0  0  0  0999 V2000
    8.5247  -13.1959   16.8040 O   0  0  0  0  0  0  0  0  0  0  0  0
    8.1825  -13.5862   18.1000 C   0  0  0  0  0  0  0  0  0  0  0  0
    7.8371  -12.6635   19.0615 C   0  0  0  0  0  0  0  0  0  0  0  0
    7.4933  -13.0478   20.3618 C   0  0  0  0  0  0  0  0  0  0  0  0
    7.4957  -14.3745   20.7029 C   0  0  0  0  0  0  0  0  0  0  0  0
    7.1389  -14.7995   22.0594 C   0  0  0  0  0  0  0  0  0  0  0  0
    7.0680  -16.3087   22.1998 C   0  0  2  0  0  0  0  0  0  0  0  0
    5.6988  -16.6917   21.9238 N   0  0  0  0  0  0  0  0  0  0  0  0
    7.4091  -16.6047   23.6379 C   0  0  0  0  0  0  0  0  0  0  0  0
    6.5886  -16.3702   24.5691 O   0  0  0  0  0  0  0  0  0  0  0  0
    7.8402  -15.3020   19.7460 C   0  0  0  0  0  0  0  0  0  0  0  0
    8.1831  -14.9139   18.4481 C   0  0  0  0  0  0  0  0  0  0  0  0
    8.6650  -17.1577   23.9953 N   0  0  0  0  0  0  0  0  0  0  0  0
    9.0670  -17.3908   25.3784 C   0  0  1  0  0  0  0  0  0  0  0  0
    9.9437  -18.6223   25.3993 C   0  0  0  0  0  0  0  0  0  0  0  0
    9.1772  -19.8543   24.9658 C   0  0  0  0  0  0  0  0  0  0  0  0
   10.0391  -21.0881   25.1009 C   0  0  0  0  0  0  0  0  0  0  0  0
    9.3196  -22.2757   24.4996 C   0  0  0  0  0  0  0  0  0  0  0  0
   10.1310  -23.4634   24.6237 N   0  0  0  0  0  0  0  0  0  0  0  0
    9.7564  -16.2317   25.9552 C   0  0  0  0  0  0  0  0  0  0  0  0
   10.6910  -15.6942   25.3101 O   0  0  0  0  0  0  0  0  0  0  0  0
    9.3704  -15.7273   27.2244 N   0  0  0  0  0  0  0  0  0  0  0  0
   10.2353  -14.7294   27.8365 C   0  0  1  0  0  0  0  0  0  0  0  0
    9.3269  -13.5871   28.2814 C   0  0  0  0  0  0  0  0  0  0  0  0
    8.2958  -13.1191   26.8765 S   0  0  0  0  0  0  0  0  0  0  0  0
   10.8679  -15.3095   29.0526 C   0  0  0  0  0  0  0  0  0  0  0  0
   10.6077  -16.4857   29.3880 O   0  0  0  0  0  0  0  0  0  0  0  0
   11.7510  -14.6007   29.8532 O   0  0  0  0  0  0  0  0  0  0  0  0
  2  1  1  0
  3  2  2  0
  4  3  1  0
  5  4  2  0
  5 11  1  0
  6  5  1  0
  7  6  1  0
  7  8  1  1
  9  7  1  0
 10  9  2  0
 11 12  2  0
 12  2  1  0
 13  9  1  0
 14 15  1  6
 14 13  1  0
 16 17  1  0
 16 15  1  0
 18 17  1  0
 19 18  1  0
 20 14  1  0
 21 20  2  0
 22 20  1  0
 23 22  1  0
 24 25  1  0
 23 24  1  1
 26 23  1  0
 26 28  1  0
 27 26  2  0
M  END
$$$$
