YMV.pdb
     RDKit          3D

 28 28  0  0  1  0  0  0  0  0999 V2000
   16.3270  -14.8478  -20.3594 O   0  0  0  0  0  0  0  0  0  0  0  0
   17.1688  -14.1789  -19.4848 C   0  0  0  0  0  0  0  0  0  0  0  0
   17.8200  -13.0298  -19.8894 C   0  0  0  0  0  0  0  0  0  0  0  0
   18.6687  -12.3467  -19.0226 C   0  0  0  0  0  0  0  0  0  0  0  0
   18.8898  -12.7912  -17.7314 C   0  0  0  0  0  0  0  0  0  0  0  0
   19.7917  -12.0400  -16.8520 C   0  0  0  0  0  0  0  0  0  0  0  0
   21.2479  -12.3721  -17.0767 C   0  0  2  0  0  0  0  0  0  0  0  0
   21.4767  -13.7728  -16.7420 N   0  0  0  0  0  0  0  0  0  0  0  0
   22.0352  -11.4965  -16.1523 C   0  0  0  0  0  0  0  0  0  0  0  0
   22.2725  -11.8982  -14.9840 O   0  0  0  0  0  0  0  0  0  0  0  0
   18.2511  -13.9216  -17.3289 C   0  0  0  0  0  0  0  0  0  0  0  0
   17.4023  -14.6083  -18.1896 C   0  0  0  0  0  0  0  0  0  0  0  0
   27.1270  -12.2282  -16.6538 C   0  0  0  0  0  0  0  0  0  0  0  0
   27.0909  -10.7305  -15.6726 S   0  0  0  0  0  0  0  0  0  0  0  0
   25.4071  -10.4400  -14.9801 C   0  0  0  0  0  0  0  0  0  0  0  0
   24.6950   -9.5937  -15.9796 C   0  0  0  0  0  0  0  0  0  0  0  0
   23.2449   -9.3181  -15.6890 C   0  0  2  0  0  0  0  0  0  0  0  0
   22.5048  -10.2341  -16.5898 N   0  0  0  0  0  0  0  0  0  0  0  0
   22.8124   -7.9397  -15.9031 C   0  0  0  0  0  0  0  0  0  0  0  0
   22.9583   -7.4370  -17.0569 O   0  0  0  0  0  0  0  0  0  0  0  0
   19.4911   -6.4524  -14.6293 C   0  0  0  0  0  0  0  0  0  0  0  0
   20.3224   -5.8450  -15.7498 C   0  0  1  0  0  0  0  0  0  0  0  0
   19.8067   -4.4334  -15.9430 C   0  0  0  0  0  0  0  0  0  0  0  0
   21.7652   -5.8033  -15.2638 C   0  0  2  0  0  0  0  0  0  0  0  0
   22.2345   -7.1212  -14.9069 N   0  0  0  0  0  0  0  0  0  0  0  0
   21.9029   -4.9196  -14.0840 C   0  0  0  0  0  0  0  0  0  0  0  0
   22.1289   -5.4085  -12.8099 O   0  0  0  0  0  0  0  0  0  0  0  0
   21.8155   -3.6579  -14.2088 O   0  0  0  0  0  0  0  0  0  0  0  0
  2 12  2  0
  2  1  1  0
  3  2  1  0
  4  5  1  0
  4  3  2  0
  5 11  2  0
  6  5  1  0
  7  6  1  0
  7  8  1  1
  9  7  1  0
  9 10  2  0
 11 12  1  0
 13 14  1  0
 14 15  1  0
 16 15  1  0
 17 16  1  6
 17 18  1  0
 18  9  1  0
 19 25  1  0
 19 17  1  0
 20 19  2  0
 22 21  1  1
 23 22  1  0
 24 25  1  1
 24 22  1  0
 26 24  1  0
 27 26  1  0
 28 26  2  0
M  END
$$$$
