YMV.pdb
     RDKit          3D

 28 28  0  0  1  0  0  0  0  0999 V2000
   28.7657  -14.4673  -18.2678 O   0  0  0  0  0  0  0  0  0  0  0  0
   28.2466  -15.5115  -17.5185 C   0  0  0  0  0  0  0  0  0  0  0  0
   27.8351  -16.6747  -18.1395 C   0  0  0  0  0  0  0  0  0  0  0  0
   27.3117  -17.7323  -17.4007 C   0  0  0  0  0  0  0  0  0  0  0  0
   27.1854  -17.6575  -16.0252 C   0  0  0  0  0  0  0  0  0  0  0  0
   26.6291  -18.7960  -15.2866 C   0  0  0  0  0  0  0  0  0  0  0  0
   27.6847  -19.6169  -14.5843 C   0  0  2  0  0  0  0  0  0  0  0  0
   28.4313  -20.3846  -15.5739 N   0  0  0  0  0  0  0  0  0  0  0  0
   26.9608  -20.5487  -13.6629 C   0  0  0  0  0  0  0  0  0  0  0  0
   26.6214  -21.6842  -14.0848 O   0  0  0  0  0  0  0  0  0  0  0  0
   27.5891  -16.5147  -15.4098 C   0  0  0  0  0  0  0  0  0  0  0  0
   28.1126  -15.4549  -16.1419 C   0  0  0  0  0  0  0  0  0  0  0  0
   27.5495  -20.0823   -7.5806 C   0  0  0  0  0  0  0  0  0  0  0  0
   25.7980  -20.4228   -7.4281 S   0  0  0  0  0  0  0  0  0  0  0  0
   25.1001  -21.0032   -9.0329 C   0  0  0  0  0  0  0  0  0  0  0  0
   26.0182  -20.4869  -10.0879 C   0  0  0  0  0  0  0  0  0  0  0  0
   25.6884  -20.8933  -11.4983 C   0  0  2  0  0  0  0  0  0  0  0  0
   26.6637  -20.1544  -12.3356 N   0  0  0  0  0  0  0  0  0  0  0  0
   24.3252  -20.6015  -11.9335 C   0  0  0  0  0  0  0  0  0  0  0  0
   24.0232  -19.3995  -12.1966 O   0  0  0  0  0  0  0  0  0  0  0  0
   22.8356  -21.3755  -14.9188 C   0  0  0  0  0  0  0  0  0  0  0  0
   21.7539  -21.8437  -13.9565 C   0  0  1  0  0  0  0  0  0  0  0  0
   21.9239  -23.3436  -13.8247 C   0  0  0  0  0  0  0  0  0  0  0  0
   22.0285  -21.1755  -12.6157 C   0  0  2  0  0  0  0  0  0  0  0  0
   23.3114  -21.5738  -12.0866 N   0  0  0  0  0  0  0  0  0  0  0  0
   20.9836  -21.5219  -11.6257 C   0  0  0  0  0  0  0  0  0  0  0  0
   19.6909  -21.0365  -11.7067 O   0  0  0  0  0  0  0  0  0  0  0  0
   21.2487  -22.2922  -10.6502 O   0  0  0  0  0  0  0  0  0  0  0  0
  2 12  2  0
  2  1  1  0
  3  2  1  0
  4  5  1  0
  4  3  2  0
  5 11  2  0
  6  5  1  0
  7  6  1  0
  7  8  1  6
  9  7  1  0
  9 10  2  0
 11 12  1  0
 13 14  1  0
 14 15  1  0
 16 15  1  0
 17 16  1  1
 17 18  1  0
 18  9  1  0
 19 25  1  0
 19 17  1  0
 20 19  2  0
 22 21  1  6
 23 22  1  0
 24 25  1  1
 24 22  1  0
 26 24  1  0
 27 26  1  0
 28 26  2  0
M  END
$$$$
