YMV.pdb
     RDKit          3D

 28 28  0  0  1  0  0  0  0  0999 V2000
   15.2705  -15.7205  -20.5424 O   0  0  0  0  0  0  0  0  0  0  0  0
   15.6438  -14.6042  -19.8105 C   0  0  0  0  0  0  0  0  0  0  0  0
   16.7888  -14.6309  -19.0382 C   0  0  0  0  0  0  0  0  0  0  0  0
   17.1770  -13.5177  -18.2975 C   0  0  0  0  0  0  0  0  0  0  0  0
   16.4346  -12.3507  -18.3079 C   0  0  0  0  0  0  0  0  0  0  0  0
   16.8811  -11.2019  -17.5129 C   0  0  0  0  0  0  0  0  0  0  0  0
   17.2418  -11.5706  -16.0933 C   0  0  2  0  0  0  0  0  0  0  0  0
   16.0353  -11.5602  -15.2746 N   0  0  0  0  0  0  0  0  0  0  0  0
   18.1923  -10.5215  -15.6060 C   0  0  0  0  0  0  0  0  0  0  0  0
   17.7477   -9.5648  -14.9207 O   0  0  0  0  0  0  0  0  0  0  0  0
   15.3071  -12.3198  -19.0666 C   0  0  0  0  0  0  0  0  0  0  0  0
   14.9139  -13.4280  -19.8084 C   0  0  0  0  0  0  0  0  0  0  0  0
   25.8938   -9.9798  -14.1111 C   0  0  0  0  0  0  0  0  0  0  0  0
   24.3790  -10.8052  -14.5917 S   0  0  0  0  0  0  0  0  0  0  0  0
   23.0088   -9.5903  -14.8051 C   0  0  0  0  0  0  0  0  0  0  0  0
   21.8160  -10.3873  -15.2105 C   0  0  0  0  0  0  0  0  0  0  0  0
   20.5484   -9.6056  -15.4236 C   0  0  2  0  0  0  0  0  0  0  0  0
   19.5718  -10.6078  -15.9139 N   0  0  0  0  0  0  0  0  0  0  0  0
   20.6471   -8.4933  -16.3647 C   0  0  0  0  0  0  0  0  0  0  0  0
   20.9250   -8.7523  -17.5734 O   0  0  0  0  0  0  0  0  0  0  0  0
   18.3578   -5.2882  -16.3323 C   0  0  0  0  0  0  0  0  0  0  0  0
   19.1627   -5.7217  -17.5488 C   0  0  1  0  0  0  0  0  0  0  0  0
   19.2801   -4.4996  -18.4369 C   0  0  0  0  0  0  0  0  0  0  0  0
   20.5427   -6.1291  -17.0497 C   0  0  2  0  0  0  0  0  0  0  0  0
   20.4493   -7.1372  -16.0204 N   0  0  0  0  0  0  0  0  0  0  0  0
   21.2746   -4.9645  -16.5021 C   0  0  0  0  0  0  0  0  0  0  0  0
   21.4566   -4.7707  -15.1447 O   0  0  0  0  0  0  0  0  0  0  0  0
   21.7682   -4.0886  -17.2794 O   0  0  0  0  0  0  0  0  0  0  0  0
  2 12  2  0
  2  1  1  0
  3  2  1  0
  4  5  1  0
  4  3  2  0
  5 11  2  0
  6  5  1  0
  7  6  1  0
  7  8  1  1
  9  7  1  0
  9 10  2  0
 11 12  1  0
 13 14  1  0
 14 15  1  0
 16 15  1  0
 17 16  1  6
 17 18  1  0
 18  9  1  0
 19 25  1  0
 19 17  1  0
 20 19  2  0
 22 21  1  1
 23 22  1  0
 24 25  1  1
 24 22  1  0
 26 24  1  0
 27 26  1  0
 28 26  2  0
M  END
$$$$
