YMV.pdb
     RDKit          3D

 28 28  0  0  1  0  0  0  0  0999 V2000
   20.3956  -18.8347  -15.1237 O   0  0  0  0  0  0  0  0  0  0  0  0
   21.3037  -19.3694  -14.2233 C   0  0  0  0  0  0  0  0  0  0  0  0
   22.0012  -18.5412  -13.3656 C   0  0  0  0  0  0  0  0  0  0  0  0
   22.9166  -19.0631  -12.4556 C   0  0  0  0  0  0  0  0  0  0  0  0
   23.1598  -20.4226  -12.3775 C   0  0  0  0  0  0  0  0  0  0  0  0
   24.1323  -20.9290  -11.4034 C   0  0  0  0  0  0  0  0  0  0  0  0
   25.4990  -21.1652  -12.0016 C   0  0  2  0  0  0  0  0  0  0  0  0
   25.4051  -22.2129  -13.0114 N   0  0  0  0  0  0  0  0  0  0  0  0
   26.3842  -21.6195  -10.8829 C   0  0  0  0  0  0  0  0  0  0  0  0
   26.2725  -22.7971  -10.4547 O   0  0  0  0  0  0  0  0  0  0  0  0
   22.4756  -21.2414  -13.2196 C   0  0  0  0  0  0  0  0  0  0  0  0
   21.5602  -20.7265  -14.1306 C   0  0  0  0  0  0  0  0  0  0  0  0
   32.3945  -22.7357  -11.0953 C   0  0  0  0  0  0  0  0  0  0  0  0
   32.2776  -21.3246   -9.9990 S   0  0  0  0  0  0  0  0  0  0  0  0
   30.7608  -21.4279   -8.9558 C   0  0  0  0  0  0  0  0  0  0  0  0
   29.6219  -21.0918   -9.8571 C   0  0  0  0  0  0  0  0  0  0  0  0
   28.2537  -21.1582   -9.2351 C   0  0  2  0  0  0  0  0  0  0  0  0
   27.3328  -20.7335  -10.3167 N   0  0  0  0  0  0  0  0  0  0  0  0
   28.0610  -20.3254   -8.0510 C   0  0  0  0  0  0  0  0  0  0  0  0
   27.6606  -19.1344   -8.2133 O   0  0  0  0  0  0  0  0  0  0  0  0
   27.9070  -19.5093   -3.2152 C   0  0  0  0  0  0  0  0  0  0  0  0
   27.9694  -20.5692   -4.3052 C   0  0  1  0  0  0  0  0  0  0  0  0
   26.6584  -21.3258   -4.2365 C   0  0  0  0  0  0  0  0  0  0  0  0
   28.0708  -19.8363   -5.6363 C   0  0  2  0  0  0  0  0  0  0  0  0
   28.2881  -20.7589   -6.7254 N   0  0  0  0  0  0  0  0  0  0  0  0
   29.1815  -18.8575   -5.6206 C   0  0  0  0  0  0  0  0  0  0  0  0
   30.4305  -19.1403   -6.1434 O   0  0  0  0  0  0  0  0  0  0  0  0
   29.0175  -17.7032   -5.1150 O   0  0  0  0  0  0  0  0  0  0  0  0
  2 12  2  0
  2  1  1  0
  3  2  1  0
  4  5  1  0
  4  3  2  0
  5 11  2  0
  6  5  1  0
  7  6  1  0
  7  8  1  6
  9  7  1  0
  9 10  2  0
 11 12  1  0
 13 14  1  0
 14 15  1  0
 16 15  1  0
 17 16  1  6
 17 18  1  0
 18  9  1  0
 19 25  1  0
 19 17  1  0
 20 19  2  0
 22 21  1  1
 23 22  1  0
 24 25  1  6
 24 22  1  0
 26 24  1  0
 27 26  1  0
 28 26  2  0
M  END
$$$$
