YMV.pdb
     RDKit          3D

 28 28  0  0  1  0  0  0  0  0999 V2000
   13.4141  -11.7535  -19.4958 O   0  0  0  0  0  0  0  0  0  0  0  0
   14.5881  -11.5560  -18.7860 C   0  0  0  0  0  0  0  0  0  0  0  0
   15.3440  -10.4191  -18.9960 C   0  0  0  0  0  0  0  0  0  0  0  0
   16.5255  -10.2063  -18.2908 C   0  0  0  0  0  0  0  0  0  0  0  0
   16.9832  -11.1206  -17.3592 C   0  0  0  0  0  0  0  0  0  0  0  0
   18.2330  -10.8557  -16.6388 C   0  0  0  0  0  0  0  0  0  0  0  0
   19.4137  -11.6053  -17.2093 C   0  0  2  0  0  0  0  0  0  0  0  0
   19.2541  -13.0289  -16.9372 N   0  0  0  0  0  0  0  0  0  0  0  0
   20.6301  -11.0894  -16.5053 C   0  0  0  0  0  0  0  0  0  0  0  0
   21.3330  -11.8885  -15.8346 O   0  0  0  0  0  0  0  0  0  0  0  0
   16.2426  -12.2409  -17.1492 C   0  0  0  0  0  0  0  0  0  0  0  0
   15.0618  -12.4593  -17.8501 C   0  0  0  0  0  0  0  0  0  0  0  0
   27.0809  -10.6450  -15.3698 C   0  0  0  0  0  0  0  0  0  0  0  0
   25.3448  -10.9252  -15.7084 S   0  0  0  0  0  0  0  0  0  0  0  0
   24.7175   -9.7234  -16.9579 C   0  0  0  0  0  0  0  0  0  0  0  0
   23.2656  -10.0211  -17.1176 C   0  0  0  0  0  0  0  0  0  0  0  0
   22.3353   -9.2340  -16.2354 C   0  0  2  0  0  0  0  0  0  0  0  0
   20.9817   -9.7206  -16.5949 N   0  0  0  0  0  0  0  0  0  0  0  0
   22.4068   -7.7829  -16.3837 C   0  0  0  0  0  0  0  0  0  0  0  0
   22.1153   -7.2792  -17.5091 O   0  0  0  0  0  0  0  0  0  0  0  0
   22.2564   -5.2322  -13.0525 C   0  0  0  0  0  0  0  0  0  0  0  0
   21.5165   -5.0388  -14.3680 C   0  0  1  0  0  0  0  0  0  0  0  0
   21.2559   -3.5514  -14.4932 C   0  0  0  0  0  0  0  0  0  0  0  0
   22.4543   -5.4917  -15.4792 C   0  0  2  0  0  0  0  0  0  0  0  0
   22.7780   -6.8929  -15.3509 N   0  0  0  0  0  0  0  0  0  0  0  0
   23.7143   -4.7145  -15.4606 C   0  0  0  0  0  0  0  0  0  0  0  0
   23.8242   -3.4606  -16.0341 O   0  0  0  0  0  0  0  0  0  0  0  0
   24.7556   -5.1864  -14.9054 O   0  0  0  0  0  0  0  0  0  0  0  0
  2 12  2  0
  2  1  1  0
  3  2  1  0
  4  5  1  0
  4  3  2  0
  5 11  2  0
  6  5  1  0
  7  6  1  0
  7  8  1  1
  9  7  1  0
  9 10  2  0
 11 12  1  0
 13 14  1  0
 14 15  1  0
 16 15  1  0
 17 16  1  6
 17 18  1  0
 18  9  1  0
 19 25  1  0
 19 17  1  0
 20 19  2  0
 22 21  1  1
 23 22  1  0
 24 25  1  1
 24 22  1  0
 26 24  1  0
 27 26  1  0
 28 26  2  0
M  END
$$$$
