YMV.pdb
     RDKit          3D

 28 28  0  0  1  0  0  0  0  0999 V2000
   31.3041  -23.3645  -18.7890 O   0  0  0  0  0  0  0  0  0  0  0  0
   30.5013  -22.6587  -17.9065 C   0  0  0  0  0  0  0  0  0  0  0  0
   30.3028  -23.1262  -16.6220 C   0  0  0  0  0  0  0  0  0  0  0  0
   29.4993  -22.4287  -15.7240 C   0  0  0  0  0  0  0  0  0  0  0  0
   28.8739  -21.2483  -16.0833 C   0  0  0  0  0  0  0  0  0  0  0  0
   28.0367  -20.5460  -15.1050 C   0  0  0  0  0  0  0  0  0  0  0  0
   26.8027  -21.3254  -14.7163 C   0  0  2  0  0  0  0  0  0  0  0  0
   25.9330  -21.4565  -15.8793 N   0  0  0  0  0  0  0  0  0  0  0  0
   26.1098  -20.5298  -13.6541 C   0  0  0  0  0  0  0  0  0  0  0  0
   25.4307  -19.5249  -13.9883 O   0  0  0  0  0  0  0  0  0  0  0  0
   29.0665  -20.7844  -17.3465 C   0  0  0  0  0  0  0  0  0  0  0  0
   29.8676  -21.4763  -18.2479 C   0  0  0  0  0  0  0  0  0  0  0  0
   21.5627  -21.5443  -13.0591 C   0  0  0  0  0  0  0  0  0  0  0  0
   21.3122  -20.9188  -11.3999 S   0  0  0  0  0  0  0  0  0  0  0  0
   22.8821  -20.2423  -10.7095 C   0  0  0  0  0  0  0  0  0  0  0  0
   23.9600  -20.6799  -11.6417 C   0  0  0  0  0  0  0  0  0  0  0  0
   25.3616  -20.3056  -11.2431 C   0  0  2  0  0  0  0  0  0  0  0  0
   26.2193  -20.9056  -12.2932 N   0  0  0  0  0  0  0  0  0  0  0  0
   25.7829  -20.7653   -9.9225 C   0  0  0  0  0  0  0  0  0  0  0  0
   25.8860  -22.0126   -9.7255 O   0  0  0  0  0  0  0  0  0  0  0  0
   27.4281  -20.1631   -5.3484 C   0  0  0  0  0  0  0  0  0  0  0  0
   27.0499  -19.4465   -6.6363 C   0  0  1  0  0  0  0  0  0  0  0  0
   28.3451  -18.9328   -7.2318 C   0  0  0  0  0  0  0  0  0  0  0  0
   26.4352  -20.4871   -7.5630 C   0  0  2  0  0  0  0  0  0  0  0  0
   26.0897  -19.9098   -8.8405 N   0  0  0  0  0  0  0  0  0  0  0  0
   25.2138  -21.0741   -6.9667 C   0  0  0  0  0  0  0  0  0  0  0  0
   25.2445  -22.1993   -6.1628 O   0  0  0  0  0  0  0  0  0  0  0  0
   24.0756  -20.5507   -7.1803 O   0  0  0  0  0  0  0  0  0  0  0  0
  2 12  2  0
  2  1  1  0
  3  2  1  0
  4  5  1  0
  4  3  2  0
  5 11  2  0
  6  5  1  0
  7  6  1  0
  7  8  1  6
  9  7  1  0
  9 10  2  0
 11 12  1  0
 13 14  1  0
 14 15  1  0
 16 15  1  0
 17 16  1  6
 17 18  1  0
 18  9  1  0
 19 25  1  0
 19 17  1  0
 20 19  2  0
 22 21  1  1
 23 22  1  0
 24 25  1  6
 24 22  1  0
 26 24  1  0
 27 26  1  0
 28 26  2  0
M  END
$$$$
