YMV.pdb
     RDKit          3D

 28 28  0  0  1  0  0  0  0  0999 V2000
   16.9669  -20.4013  -16.9679 O   0  0  0  0  0  0  0  0  0  0  0  0
   16.8976  -19.1515  -16.3727 C   0  0  0  0  0  0  0  0  0  0  0  0
   15.7809  -18.3581  -16.5508 C   0  0  0  0  0  0  0  0  0  0  0  0
   15.6963  -17.1004  -15.9596 C   0  0  0  0  0  0  0  0  0  0  0  0
   16.7218  -16.6020  -15.1764 C   0  0  0  0  0  0  0  0  0  0  0  0
   16.5902  -15.2720  -14.5723 C   0  0  0  0  0  0  0  0  0  0  0  0
   17.1696  -14.1732  -15.4316 C   0  0  2  0  0  0  0  0  0  0  0  0
   18.6205  -14.3128  -15.4734 N   0  0  0  0  0  0  0  0  0  0  0  0
   16.8052  -12.8780  -14.7750 C   0  0  0  0  0  0  0  0  0  0  0  0
   17.5271  -12.4415  -13.8418 O   0  0  0  0  0  0  0  0  0  0  0  0
   17.8227  -17.3793  -14.9983 C   0  0  0  0  0  0  0  0  0  0  0  0
   17.9133  -18.6361  -15.5859 C   0  0  0  0  0  0  0  0  0  0  0  0
   15.7202   -5.6872  -16.4308 C   0  0  0  0  0  0  0  0  0  0  0  0
   15.6128   -7.4352  -16.8045 S   0  0  0  0  0  0  0  0  0  0  0  0
   15.3901   -8.4232  -15.2638 C   0  0  0  0  0  0  0  0  0  0  0  0
   15.4662   -9.8524  -15.6808 C   0  0  0  0  0  0  0  0  0  0  0  0
   15.2775  -10.8649  -14.5842 C   0  0  2  0  0  0  0  0  0  0  0  0
   15.6633  -12.1568  -15.2008 N   0  0  0  0  0  0  0  0  0  0  0  0
   13.9274  -10.9504  -14.0339 C   0  0  0  0  0  0  0  0  0  0  0  0
   13.0126  -11.4402  -14.7610 O   0  0  0  0  0  0  0  0  0  0  0  0
   10.4781  -11.2260  -10.7339 C   0  0  0  0  0  0  0  0  0  0  0  0
   11.9390  -11.3930  -11.1255 C   0  0  1  0  0  0  0  0  0  0  0  0
   12.1167  -12.8538  -11.4868 C   0  0  0  0  0  0  0  0  0  0  0  0
   12.1738  -10.5269  -12.3561 C   0  0  2  0  0  0  0  0  0  0  0  0
   13.5668  -10.5253  -12.7356 N   0  0  0  0  0  0  0  0  0  0  0  0
   11.7519   -9.1293  -12.1102 C   0  0  0  0  0  0  0  0  0  0  0  0
   12.6567   -8.1043  -11.9007 O   0  0  0  0  0  0  0  0  0  0  0  0
   10.5189   -8.8224  -12.0834 O   0  0  0  0  0  0  0  0  0  0  0  0
  2 12  2  0
  2  1  1  0
  3  2  1  0
  4  5  1  0
  4  3  2  0
  5 11  2  0
  6  5  1  0
  7  6  1  0
  7  8  1  1
  9  7  1  0
  9 10  2  0
 11 12  1  0
 13 14  1  0
 14 15  1  0
 16 15  1  0
 17 16  1  6
 17 18  1  0
 18  9  1  0
 19 25  1  0
 19 17  1  0
 20 19  2  0
 22 21  1  6
 23 22  1  0
 24 25  1  1
 24 22  1  0
 26 24  1  0
 27 26  1  0
 28 26  2  0
M  END
$$$$
