YMV.pdb
     RDKit          3D

 28 28  0  0  1  0  0  0  0  0999 V2000
   30.3532  -27.2213  -16.3520 O   0  0  0  0  0  0  0  0  0  0  0  0
   29.6259  -26.0443  -16.2691 C   0  0  0  0  0  0  0  0  0  0  0  0
   30.2629  -24.8242  -16.3866 C   0  0  0  0  0  0  0  0  0  0  0  0
   29.5463  -23.6333  -16.3054 C   0  0  0  0  0  0  0  0  0  0  0  0
   28.1776  -23.6283  -16.1053 C   0  0  0  0  0  0  0  0  0  0  0  0
   27.4625  -22.3501  -16.0268 C   0  0  0  0  0  0  0  0  0  0  0  0
   26.9588  -21.8719  -17.3680 C   0  0  2  0  0  0  0  0  0  0  0  0
   28.0807  -21.3596  -18.1459 N   0  0  0  0  0  0  0  0  0  0  0  0
   25.9882  -20.7659  -17.0922 C   0  0  0  0  0  0  0  0  0  0  0  0
   26.3116  -19.5839  -17.3763 O   0  0  0  0  0  0  0  0  0  0  0  0
   27.5464  -24.8266  -15.9892 C   0  0  0  0  0  0  0  0  0  0  0  0
   28.2563  -26.0193  -16.0692 C   0  0  0  0  0  0  0  0  0  0  0  0
   21.8491  -20.8080  -21.5180 C   0  0  0  0  0  0  0  0  0  0  0  0
   22.3694  -19.6688  -20.2380 S   0  0  0  0  0  0  0  0  0  0  0  0
   23.0090  -20.5803  -18.7686 C   0  0  0  0  0  0  0  0  0  0  0  0
   23.4345  -19.5359  -17.7937 C   0  0  0  0  0  0  0  0  0  0  0  0
   23.6735  -20.0124  -16.3869 C   0  0  2  0  0  0  0  0  0  0  0  0
   24.7245  -21.0497  -16.5195 N   0  0  0  0  0  0  0  0  0  0  0  0
   22.5056  -20.5606  -15.7026 C   0  0  0  0  0  0  0  0  0  0  0  0
   22.2056  -21.7747  -15.9056 O   0  0  0  0  0  0  0  0  0  0  0  0
   20.5882  -18.6830  -12.4036 C   0  0  0  0  0  0  0  0  0  0  0  0
   20.8809  -20.1708  -12.5313 C   0  0  1  0  0  0  0  0  0  0  0  0
   19.8231  -20.8829  -11.7129 C   0  0  0  0  0  0  0  0  0  0  0  0
   20.7229  -20.5329  -14.0022 C   0  0  2  0  0  0  0  0  0  0  0  0
   21.6813  -19.8273  -14.8196 N   0  0  0  0  0  0  0  0  0  0  0  0
   19.3622  -20.2073  -14.4862 C   0  0  0  0  0  0  0  0  0  0  0  0
   18.2645  -21.0032  -14.2128 O   0  0  0  0  0  0  0  0  0  0  0  0
   19.1573  -19.1644  -15.1830 O   0  0  0  0  0  0  0  0  0  0  0  0
  2 12  2  0
  2  1  1  0
  3  2  1  0
  4  5  1  0
  4  3  2  0
  5 11  2  0
  6  5  1  0
  7  6  1  0
  7  8  1  6
  9  7  1  0
  9 10  2  0
 11 12  1  0
 13 14  1  0
 14 15  1  0
 16 15  1  0
 17 16  1  6
 17 18  1  0
 18  9  1  0
 19 25  1  0
 19 17  1  0
 20 19  2  0
 22 21  1  6
 23 22  1  0
 24 25  1  6
 24 22  1  0
 26 24  1  0
 27 26  1  0
 28 26  2  0
M  END
$$$$
