YMV.pdb
     RDKit          3D

 28 28  0  0  1  0  0  0  0  0999 V2000
   28.0530  -15.6778  -17.9668 O   0  0  0  0  0  0  0  0  0  0  0  0
   27.5361  -16.4904  -16.9700 C   0  0  0  0  0  0  0  0  0  0  0  0
   27.9539  -16.3371  -15.6623 C   0  0  0  0  0  0  0  0  0  0  0  0
   27.4440  -17.1455  -14.6499 C   0  0  0  0  0  0  0  0  0  0  0  0
   26.5054  -18.1264  -14.9150 C   0  0  0  0  0  0  0  0  0  0  0  0
   25.9948  -18.9549  -13.8178 C   0  0  0  0  0  0  0  0  0  0  0  0
   26.9904  -19.9876  -13.3449 C   0  0  2  0  0  0  0  0  0  0  0  0
   27.2199  -20.9551  -14.4114 N   0  0  0  0  0  0  0  0  0  0  0  0
   26.3713  -20.6721  -12.1661 C   0  0  0  0  0  0  0  0  0  0  0  0
   25.6148  -21.6583  -12.3599 O   0  0  0  0  0  0  0  0  0  0  0  0
   26.0912  -18.2808  -16.2005 C   0  0  0  0  0  0  0  0  0  0  0  0
   26.5965  -17.4768  -17.2160 C   0  0  0  0  0  0  0  0  0  0  0  0
   26.8714  -20.3314   -4.2529 C   0  0  0  0  0  0  0  0  0  0  0  0
   27.3676  -19.9265   -5.9253 S   0  0  0  0  0  0  0  0  0  0  0  0
   26.2077  -20.6679   -7.1517 C   0  0  0  0  0  0  0  0  0  0  0  0
   26.7275  -20.2772   -8.4932 C   0  0  0  0  0  0  0  0  0  0  0  0
   25.9334  -20.7708   -9.6718 C   0  0  2  0  0  0  0  0  0  0  0  0
   26.6355  -20.2133  -10.8526 N   0  0  0  0  0  0  0  0  0  0  0  0
   24.5264  -20.3800   -9.6891 C   0  0  0  0  0  0  0  0  0  0  0  0
   24.2465  -19.1476   -9.7794 O   0  0  0  0  0  0  0  0  0  0  0  0
   22.4693  -20.1092  -11.9998 C   0  0  0  0  0  0  0  0  0  0  0  0
   21.5299  -20.8815  -11.0851 C   0  0  1  0  0  0  0  0  0  0  0  0
   21.5744  -22.3227  -11.5509 C   0  0  0  0  0  0  0  0  0  0  0  0
   22.0953  -20.7795   -9.6746 C   0  0  2  0  0  0  0  0  0  0  0  0
   23.4456  -21.2872   -9.6151 N   0  0  0  0  0  0  0  0  0  0  0  0
   21.2646  -21.5393   -8.7131 C   0  0  0  0  0  0  0  0  0  0  0  0
   19.9415  -21.2245   -8.4611 O   0  0  0  0  0  0  0  0  0  0  0  0
   21.7527  -22.5249   -8.0763 O   0  0  0  0  0  0  0  0  0  0  0  0
  2 12  2  0
  2  1  1  0
  3  2  1  0
  4  5  1  0
  4  3  2  0
  5 11  2  0
  6  5  1  0
  7  6  1  0
  7  8  1  6
  9  7  1  0
  9 10  2  0
 11 12  1  0
 13 14  1  0
 14 15  1  0
 16 15  1  0
 17 16  1  1
 17 18  1  0
 18  9  1  0
 19 25  1  0
 19 17  1  0
 20 19  2  0
 22 21  1  6
 23 22  1  0
 24 25  1  6
 24 22  1  0
 26 24  1  0
 27 26  1  0
 28 26  2  0
M  END
$$$$
