YMV.pdb
     RDKit          3D

 28 28  0  0  1  0  0  0  0  0999 V2000
   20.6545  -17.6341  -16.2522 O   0  0  0  0  0  0  0  0  0  0  0  0
   21.3920  -18.3035  -15.2882 C   0  0  0  0  0  0  0  0  0  0  0  0
   22.6341  -17.8309  -14.9115 C   0  0  0  0  0  0  0  0  0  0  0  0
   23.3869  -18.4921  -13.9448 C   0  0  0  0  0  0  0  0  0  0  0  0
   22.9211  -19.6401  -13.3295 C   0  0  0  0  0  0  0  0  0  0  0  0
   23.7474  -20.3040  -12.3157 C   0  0  0  0  0  0  0  0  0  0  0  0
   25.0562  -20.8196  -12.8659 C   0  0  2  0  0  0  0  0  0  0  0  0
   24.7860  -21.8815  -13.8280 N   0  0  0  0  0  0  0  0  0  0  0  0
   25.8215  -21.3729  -11.7042 C   0  0  0  0  0  0  0  0  0  0  0  0
   25.4518  -22.4603  -11.1908 O   0  0  0  0  0  0  0  0  0  0  0  0
   21.6993  -20.1088  -13.6970 C   0  0  0  0  0  0  0  0  0  0  0  0
   20.9426  -19.4532  -14.6618 C   0  0  0  0  0  0  0  0  0  0  0  0
   32.2642  -21.8427  -10.1366 C   0  0  0  0  0  0  0  0  0  0  0  0
   31.4366  -21.7627  -11.7227 S   0  0  0  0  0  0  0  0  0  0  0  0
   29.6238  -22.0391  -11.5318 C   0  0  0  0  0  0  0  0  0  0  0  0
   29.1694  -21.0666  -10.4973 C   0  0  0  0  0  0  0  0  0  0  0  0
   27.7381  -21.2035  -10.0545 C   0  0  2  0  0  0  0  0  0  0  0  0
   26.9454  -20.6796  -11.1927 N   0  0  0  0  0  0  0  0  0  0  0  0
   27.3899  -20.4937   -8.8266 C   0  0  0  0  0  0  0  0  0  0  0  0
   26.8819  -19.3372   -8.9250 O   0  0  0  0  0  0  0  0  0  0  0  0
   26.9309  -19.9526   -3.9882 C   0  0  0  0  0  0  0  0  0  0  0  0
   27.0783  -20.9484   -5.1293 C   0  0  1  0  0  0  0  0  0  0  0  0
   25.7346  -21.6348   -5.2693 C   0  0  0  0  0  0  0  0  0  0  0  0
   27.3788  -20.1451   -6.3877 C   0  0  2  0  0  0  0  0  0  0  0  0
   27.5778  -21.0115   -7.5254 N   0  0  0  0  0  0  0  0  0  0  0  0
   28.5919  -19.3150   -6.2110 C   0  0  0  0  0  0  0  0  0  0  0  0
   28.5603  -18.0684   -5.6125 O   0  0  0  0  0  0  0  0  0  0  0  0
   29.7233  -19.7316   -6.6129 O   0  0  0  0  0  0  0  0  0  0  0  0
  2 12  2  0
  2  1  1  0
  3  2  1  0
  4  5  1  0
  4  3  2  0
  5 11  2  0
  6  5  1  0
  7  6  1  0
  7  8  1  6
  9  7  1  0
  9 10  2  0
 11 12  1  0
 13 14  1  0
 14 15  1  0
 16 15  1  0
 17 16  1  6
 17 18  1  0
 18  9  1  0
 19 25  1  0
 19 17  1  0
 20 19  2  0
 22 21  1  1
 23 22  1  0
 24 25  1  6
 24 22  1  0
 26 24  1  0
 27 26  1  0
 28 26  2  0
M  END
$$$$
