IKQ.pdb
     RDKit          3D

 27 26  0  0  1  0  0  0  0  0999 V2000
    6.3988  -11.6551   28.1765 C   0  0  0  0  0  0  0  0  0  0  0  0
    5.9444  -12.7761   27.3114 C   0  0  0  0  0  0  0  0  0  0  0  0
    6.9810  -13.2787   26.3172 C   0  0  2  0  0  0  0  0  0  0  0  0
    7.3745  -12.0326   25.5207 C   0  0  0  0  0  0  0  0  0  0  0  0
    6.3566  -14.3393   25.4873 C   0  0  2  0  0  0  0  0  0  0  0  0
    6.1279  -15.4938   26.3728 N   0  0  0  0  0  0  0  0  0  0  0  0
    7.1090  -14.8254   24.3351 C   0  0  0  0  0  0  0  0  0  0  0  0
    7.8961  -15.8293   24.4807 O   0  0  0  0  0  0  0  0  0  0  0  0
    7.0893  -14.3212   23.0141 N   0  0  0  0  0  0  0  0  0  0  0  0
    7.8952  -14.8866   21.9410 C   0  0  1  0  0  0  0  0  0  0  0  0
    7.7555  -14.0463   20.6957 C   0  0  0  0  0  0  0  0  0  0  0  0
    8.4227  -14.5921   19.4875 C   0  0  0  0  0  0  0  0  0  0  0  0
    8.0960  -13.8173   18.2291 C   0  0  0  0  0  0  0  0  0  0  0  0
    8.6329  -14.5053   17.0039 C   0  0  0  0  0  0  0  0  0  0  0  0
    8.1397  -13.8839   15.7762 N   0  0  0  0  0  0  0  0  0  0  0  0
    9.3109  -14.9966   22.2959 C   0  0  0  0  0  0  0  0  0  0  0  0
    9.9554  -13.9592   22.5909 O   0  0  0  0  0  0  0  0  0  0  0  0
   11.1619  -20.2510   25.7778 N   0  0  0  0  0  0  0  0  0  0  0  0
   11.4750  -18.9052   25.4834 C   0  0  0  0  0  0  0  0  0  0  0  0
   11.8967  -18.1673   26.4189 O   0  0  0  0  0  0  0  0  0  0  0  0
   11.3358  -18.3120   24.1371 C   0  0  0  0  0  0  0  0  0  0  0  0
   11.5428  -16.8143   24.1861 C   0  0  0  0  0  0  0  0  0  0  0  0
   11.4420  -16.2490   22.7792 C   0  0  2  0  0  0  0  0  0  0  0  0
   10.0632  -16.2080   22.3432 N   0  0  0  0  0  0  0  0  0  0  0  0
   12.2202  -17.0387   21.8115 C   0  0  0  0  0  0  0  0  0  0  0  0
   11.5876  -17.8034   20.8608 O   0  0  0  0  0  0  0  0  0  0  0  0
   13.4664  -17.0157   21.8522 O   0  0  0  0  0  0  0  0  0  0  0  0
  2  3  1  0
  2  1  1  0
  3  5  1  0
  3  4  1  6
  5  6  1  1
  7  5  1  0
  8  7  2  0
  9  7  1  0
 10  9  1  0
 10 11  1  6
 11 12  1  0
 12 13  1  0
 13 14  1  0
 14 15  1  0
 16 10  1  0
 17 16  2  0
 18 19  1  0
 19 21  1  0
 20 19  2  0
 22 21  1  0
 23 22  1  1
 23 24  1  0
 24 16  1  0
 25 23  1  0
 25 26  1  0
 27 25  2  0
M  END
$$$$
