IKQ.pdb
     RDKit          3D

 27 26  0  0  1  0  0  0  0  0999 V2000
    5.8479  -11.2746   27.4186 C   0  0  0  0  0  0  0  0  0  0  0  0
    5.6088  -12.6199   26.8316 C   0  0  0  0  0  0  0  0  0  0  0  0
    6.8306  -13.2682   26.1972 C   0  0  2  0  0  0  0  0  0  0  0  0
    7.3297  -12.2282   25.1914 C   0  0  0  0  0  0  0  0  0  0  0  0
    6.4086  -14.5450   25.5685 C   0  0  2  0  0  0  0  0  0  0  0  0
    5.9685  -15.4318   26.6591 N   0  0  0  0  0  0  0  0  0  0  0  0
    7.4055  -15.2787   24.7955 C   0  0  0  0  0  0  0  0  0  0  0  0
    8.2400  -16.0364   25.4104 O   0  0  0  0  0  0  0  0  0  0  0  0
    7.5882  -15.2731   23.3933 N   0  0  0  0  0  0  0  0  0  0  0  0
    8.6765  -15.9833   22.7359 C   0  0  1  0  0  0  0  0  0  0  0  0
    8.5255  -15.8823   21.2381 C   0  0  0  0  0  0  0  0  0  0  0  0
    9.5633  -16.5924   20.4496 C   0  0  0  0  0  0  0  0  0  0  0  0
    9.3137  -16.5394   18.9578 C   0  0  0  0  0  0  0  0  0  0  0  0
   10.3971  -17.2488   18.1927 C   0  0  0  0  0  0  0  0  0  0  0  0
   10.1286  -17.2538   16.7558 N   0  0  0  0  0  0  0  0  0  0  0  0
    9.9950  -15.4815   23.1258 C   0  0  0  0  0  0  0  0  0  0  0  0
   10.1023  -14.3133   23.5754 O   0  0  0  0  0  0  0  0  0  0  0  0
   10.7898  -17.1278   28.0533 N   0  0  0  0  0  0  0  0  0  0  0  0
   11.2147  -15.8198   27.7303 C   0  0  0  0  0  0  0  0  0  0  0  0
   11.1384  -14.9256   28.6204 O   0  0  0  0  0  0  0  0  0  0  0  0
   11.7450  -15.4393   26.4045 C   0  0  0  0  0  0  0  0  0  0  0  0
   11.6102  -16.5831   25.4237 C   0  0  0  0  0  0  0  0  0  0  0  0
   12.2158  -16.1738   24.0915 C   0  0  2  0  0  0  0  0  0  0  0  0
   11.2183  -16.2113   23.0444 N   0  0  0  0  0  0  0  0  0  0  0  0
   13.3381  -17.0441   23.7063 C   0  0  0  0  0  0  0  0  0  0  0  0
   13.1083  -18.2892   23.1718 O   0  0  0  0  0  0  0  0  0  0  0  0
   14.5108  -16.6505   23.8653 O   0  0  0  0  0  0  0  0  0  0  0  0
  2  3  1  0
  2  1  1  0
  3  5  1  0
  3  4  1  6
  5  6  1  1
  7  5  1  0
  8  7  2  0
  9  7  1  0
 10  9  1  0
 10 11  1  6
 11 12  1  0
 12 13  1  0
 13 14  1  0
 14 15  1  0
 16 10  1  0
 17 16  2  0
 18 19  1  0
 19 21  1  0
 20 19  2  0
 22 21  1  0
 23 22  1  1
 23 24  1  0
 24 16  1  0
 25 23  1  0
 25 26  1  0
 27 25  2  0
M  END
$$$$
