IKQ.pdb
     RDKit          3D

 27 26  0  0  1  0  0  0  0  0999 V2000
    6.7703  -11.9230   28.2439 C   0  0  0  0  0  0  0  0  0  0  0  0
    6.1262  -12.9070   27.3335 C   0  0  0  0  0  0  0  0  0  0  0  0
    7.0500  -13.5099   26.2855 C   0  0  2  0  0  0  0  0  0  0  0  0
    7.6575  -12.2975   25.5761 C   0  0  0  0  0  0  0  0  0  0  0  0
    6.2404  -14.3749   25.3912 C   0  0  2  0  0  0  0  0  0  0  0  0
    5.7613  -15.5026   26.2087 N   0  0  0  0  0  0  0  0  0  0  0  0
    6.9026  -14.9443   24.2219 C   0  0  0  0  0  0  0  0  0  0  0  0
    7.3717  -16.1376   24.2882 O   0  0  0  0  0  0  0  0  0  0  0  0
    7.1077  -14.3352   22.9623 N   0  0  0  0  0  0  0  0  0  0  0  0
    7.9116  -14.9448   21.9120 C   0  0  1  0  0  0  0  0  0  0  0  0
    7.9120  -14.0631   20.6878 C   0  0  0  0  0  0  0  0  0  0  0  0
    8.7234  -14.5628   19.5499 C   0  0  0  0  0  0  0  0  0  0  0  0
    8.5259  -13.7588   18.2829 C   0  0  0  0  0  0  0  0  0  0  0  0
    9.3220  -14.3273   17.1403 C   0  0  0  0  0  0  0  0  0  0  0  0
    9.2981  -13.4459   15.9745 N   0  0  0  0  0  0  0  0  0  0  0  0
    9.2917  -15.1948   22.3305 C   0  0  0  0  0  0  0  0  0  0  0  0
   10.0140  -14.2292   22.6830 O   0  0  0  0  0  0  0  0  0  0  0  0
   11.3326  -19.8840   25.6768 N   0  0  0  0  0  0  0  0  0  0  0  0
   10.9339  -18.5845   26.0618 C   0  0  0  0  0  0  0  0  0  0  0  0
   10.5973  -18.3902   27.2645 O   0  0  0  0  0  0  0  0  0  0  0  0
   10.8891  -17.4369   25.1319 C   0  0  0  0  0  0  0  0  0  0  0  0
   11.4040  -17.8323   23.7655 C   0  0  0  0  0  0  0  0  0  0  0  0
   11.2913  -16.6440   22.8253 C   0  0  2  0  0  0  0  0  0  0  0  0
    9.9253  -16.4722   22.3812 N   0  0  0  0  0  0  0  0  0  0  0  0
   12.1568  -16.7924   21.6444 C   0  0  0  0  0  0  0  0  0  0  0  0
   13.4286  -16.2716   21.6375 O   0  0  0  0  0  0  0  0  0  0  0  0
   11.7346  -17.3962   20.6382 O   0  0  0  0  0  0  0  0  0  0  0  0
  2  3  1  0
  2  1  1  0
  3  5  1  0
  3  4  1  6
  5  6  1  1
  7  5  1  0
  8  7  2  0
  9  7  1  0
 10  9  1  0
 10 11  1  6
 11 12  1  0
 12 13  1  0
 13 14  1  0
 14 15  1  0
 16 10  1  0
 17 16  2  0
 18 19  1  0
 19 21  1  0
 20 19  2  0
 22 21  1  0
 23 22  1  1
 23 24  1  0
 24 16  1  0
 25 23  1  0
 25 26  1  0
 27 25  2  0
M  END
$$$$
