IKQ.pdb
     RDKit          3D

 27 26  0  0  1  0  0  0  0  0999 V2000
    7.4900  -11.8408   19.8594 C   0  0  0  0  0  0  0  0  0  0  0  0
    7.4388  -13.3269   19.8331 C   0  0  0  0  0  0  0  0  0  0  0  0
    7.9010  -14.0063   21.1138 C   0  0  2  0  0  0  0  0  0  0  0  0
    9.3705  -13.6003   21.2468 C   0  0  0  0  0  0  0  0  0  0  0  0
    7.7022  -15.4697   20.9643 C   0  0  2  0  0  0  0  0  0  0  0  0
    6.2673  -15.6807   20.7074 N   0  0  0  0  0  0  0  0  0  0  0  0
    8.0646  -16.3192   22.0943 C   0  0  0  0  0  0  0  0  0  0  0  0
    7.2681  -16.3979   23.0981 O   0  0  0  0  0  0  0  0  0  0  0  0
    9.2279  -17.1090   22.2442 N   0  0  0  0  0  0  0  0  0  0  0  0
    9.5273  -17.8509   23.4611 C   0  0  1  0  0  0  0  0  0  0  0  0
   10.3588  -19.0658   23.1311 C   0  0  0  0  0  0  0  0  0  0  0  0
   10.7419  -19.9038   24.2947 C   0  0  0  0  0  0  0  0  0  0  0  0
   11.5672  -21.1123   23.9086 C   0  0  0  0  0  0  0  0  0  0  0  0
   11.8469  -21.9906   25.0972 C   0  0  0  0  0  0  0  0  0  0  0  0
   13.2808  -22.2025   25.2864 N   0  0  0  0  0  0  0  0  0  0  0  0
   10.2270  -17.0402   24.4588 C   0  0  0  0  0  0  0  0  0  0  0  0
   11.2364  -16.3753   24.1157 O   0  0  0  0  0  0  0  0  0  0  0  0
    9.5283  -12.0080   26.6006 N   0  0  0  0  0  0  0  0  0  0  0  0
    8.5492  -13.0240   26.6692 C   0  0  0  0  0  0  0  0  0  0  0  0
    7.3310  -12.6882   26.6431 O   0  0  0  0  0  0  0  0  0  0  0  0
    8.8732  -14.4624   26.7701 C   0  0  0  0  0  0  0  0  0  0  0  0
   10.3659  -14.6852   26.6682 C   0  0  0  0  0  0  0  0  0  0  0  0
   10.6589  -16.1717   26.7832 C   0  0  2  0  0  0  0  0  0  0  0  0
    9.8665  -16.9230   25.8343 N   0  0  0  0  0  0  0  0  0  0  0  0
   10.3867  -16.6835   28.1358 C   0  0  0  0  0  0  0  0  0  0  0  0
   11.0781  -16.1997   29.2206 O   0  0  0  0  0  0  0  0  0  0  0  0
    9.5205  -17.5651   28.3025 O   0  0  0  0  0  0  0  0  0  0  0  0
  2  3  1  0
  2  1  1  0
  3  5  1  0
  3  4  1  6
  5  6  1  1
  7  5  1  0
  8  7  2  0
  9  7  1  0
 10  9  1  0
 10 11  1  6
 11 12  1  0
 12 13  1  0
 13 14  1  0
 14 15  1  0
 16 10  1  0
 17 16  2  0
 18 19  1  0
 19 21  1  0
 20 19  2  0
 22 21  1  0
 23 22  1  1
 23 24  1  0
 24 16  1  0
 25 23  1  0
 25 26  1  0
 27 25  2  0
M  END
$$$$
