IKQ.pdb
     RDKit          3D

 27 26  0  0  1  0  0  0  0  0999 V2000
    6.1979  -11.6319   27.9863 C   0  0  0  0  0  0  0  0  0  0  0  0
    5.7173  -12.7260   27.1010 C   0  0  0  0  0  0  0  0  0  0  0  0
    6.7267  -13.2037   26.0675 C   0  0  2  0  0  0  0  0  0  0  0  0
    7.1531  -11.9271   25.3389 C   0  0  0  0  0  0  0  0  0  0  0  0
    6.0594  -14.1939   25.1856 C   0  0  2  0  0  0  0  0  0  0  0  0
    5.6851  -15.3371   26.0356 N   0  0  0  0  0  0  0  0  0  0  0  0
    6.8284  -14.7265   24.0654 C   0  0  0  0  0  0  0  0  0  0  0  0
    7.3458  -15.8975   24.1627 O   0  0  0  0  0  0  0  0  0  0  0  0
    7.0946  -14.1023   22.8248 N   0  0  0  0  0  0  0  0  0  0  0  0
    7.8896  -14.7309   21.7791 C   0  0  1  0  0  0  0  0  0  0  0  0
    8.0334  -13.7911   20.6076 C   0  0  0  0  0  0  0  0  0  0  0  0
    8.7684  -14.3427   19.4420 C   0  0  0  0  0  0  0  0  0  0  0  0
    8.3028  -13.7678   18.1217 C   0  0  0  0  0  0  0  0  0  0  0  0
    9.0594  -14.3615   16.9652 C   0  0  0  0  0  0  0  0  0  0  0  0
    8.6727  -13.7489   15.6956 N   0  0  0  0  0  0  0  0  0  0  0  0
    9.2177  -15.1332   22.2444 C   0  0  0  0  0  0  0  0  0  0  0  0
    9.9366  -14.3013   22.8525 O   0  0  0  0  0  0  0  0  0  0  0  0
   10.5664  -19.6017   25.7757 N   0  0  0  0  0  0  0  0  0  0  0  0
   10.6867  -18.2210   26.0497 C   0  0  0  0  0  0  0  0  0  0  0  0
   10.6126  -17.8376   27.2517 O   0  0  0  0  0  0  0  0  0  0  0  0
   10.8949  -17.1979   25.0038 C   0  0  0  0  0  0  0  0  0  0  0  0
   11.0195  -17.8412   23.6404 C   0  0  0  0  0  0  0  0  0  0  0  0
   11.1147  -16.7553   22.5817 C   0  0  2  0  0  0  0  0  0  0  0  0
    9.8024  -16.4232   22.0717 N   0  0  0  0  0  0  0  0  0  0  0  0
   11.9713  -17.1584   21.4551 C   0  0  0  0  0  0  0  0  0  0  0  0
   13.2579  -16.6871   21.3491 O   0  0  0  0  0  0  0  0  0  0  0  0
   11.5280  -17.9356   20.5862 O   0  0  0  0  0  0  0  0  0  0  0  0
  2  3  1  0
  2  1  1  0
  3  5  1  0
  3  4  1  6
  5  6  1  1
  7  5  1  0
  8  7  2  0
  9  7  1  0
 10  9  1  0
 10 11  1  6
 11 12  1  0
 12 13  1  0
 13 14  1  0
 14 15  1  0
 16 10  1  0
 17 16  2  0
 18 19  1  0
 19 21  1  0
 20 19  2  0
 22 21  1  0
 23 22  1  1
 23 24  1  0
 24 16  1  0
 25 23  1  0
 25 26  1  0
 27 25  2  0
M  END
$$$$
