IKQ.pdb
     RDKit          3D

 27 26  0  0  1  0  0  0  0  0999 V2000
    5.5010  -11.3607   26.9202 C   0  0  0  0  0  0  0  0  0  0  0  0
    6.2640  -12.5437   27.3998 C   0  0  0  0  0  0  0  0  0  0  0  0
    7.1972  -13.1642   26.3705 C   0  0  2  0  0  0  0  0  0  0  0  0
    7.9035  -11.9663   25.7314 C   0  0  0  0  0  0  0  0  0  0  0  0
    6.3798  -13.9499   25.4124 C   0  0  2  0  0  0  0  0  0  0  0  0
    5.8191  -15.0865   26.1628 N   0  0  0  0  0  0  0  0  0  0  0  0
    7.0553  -14.5007   24.2418 C   0  0  0  0  0  0  0  0  0  0  0  0
    7.6730  -15.6214   24.3460 O   0  0  0  0  0  0  0  0  0  0  0  0
    7.1260  -13.9454   22.9432 N   0  0  0  0  0  0  0  0  0  0  0  0
    7.9405  -14.5205   21.8818 C   0  0  1  0  0  0  0  0  0  0  0  0
    7.8803  -13.6439   20.6553 C   0  0  0  0  0  0  0  0  0  0  0  0
    8.7258  -14.0883   19.5193 C   0  0  0  0  0  0  0  0  0  0  0  0
    7.9213  -14.6389   18.3616 C   0  0  0  0  0  0  0  0  0  0  0  0
    8.8139  -15.1921   17.2847 C   0  0  0  0  0  0  0  0  0  0  0  0
    8.0418  -15.8114   16.2090 N   0  0  0  0  0  0  0  0  0  0  0  0
    9.3373  -14.7044   22.2788 C   0  0  0  0  0  0  0  0  0  0  0  0
    9.8472  -13.9239   23.1210 O   0  0  0  0  0  0  0  0  0  0  0  0
    9.6535  -18.4905   26.0336 N   0  0  0  0  0  0  0  0  0  0  0  0
   11.0082  -18.6197   25.6545 C   0  0  0  0  0  0  0  0  0  0  0  0
   11.7588  -19.3626   26.3488 O   0  0  0  0  0  0  0  0  0  0  0  0
   11.5968  -17.9311   24.4869 C   0  0  0  0  0  0  0  0  0  0  0  0
   10.5481  -17.1236   23.7546 C   0  0  0  0  0  0  0  0  0  0  0  0
   11.2089  -16.3543   22.6230 C   0  0  2  0  0  0  0  0  0  0  0  0
   10.2130  -15.7185   21.7883 N   0  0  0  0  0  0  0  0  0  0  0  0
   12.0455  -17.2241   21.7810 C   0  0  0  0  0  0  0  0  0  0  0  0
   13.3479  -17.4930   22.1277 O   0  0  0  0  0  0  0  0  0  0  0  0
   11.5707  -17.7236   20.7416 O   0  0  0  0  0  0  0  0  0  0  0  0
  2  3  1  0
  2  1  1  0
  3  5  1  0
  3  4  1  6
  5  6  1  1
  7  5  1  0
  8  7  2  0
  9  7  1  0
 10  9  1  0
 10 11  1  6
 11 12  1  0
 12 13  1  0
 13 14  1  0
 14 15  1  0
 16 10  1  0
 17 16  2  0
 18 19  1  0
 19 21  1  0
 20 19  2  0
 22 21  1  0
 23 22  1  1
 23 24  1  0
 24 16  1  0
 25 23  1  0
 25 26  1  0
 27 25  2  0
M  END
$$$$
