IKQ.pdb
     RDKit          3D

 27 26  0  0  1  0  0  0  0  0999 V2000
    6.0481  -10.6200   26.0233 C   0  0  0  0  0  0  0  0  0  0  0  0
    5.6038  -11.9647   25.5692 C   0  0  0  0  0  0  0  0  0  0  0  0
    6.7057  -13.0113   25.4927 C   0  0  2  0  0  0  0  0  0  0  0  0
    7.7347  -12.4059   24.5352 C   0  0  0  0  0  0  0  0  0  0  0  0
    6.1122  -14.2793   24.9995 C   0  0  2  0  0  0  0  0  0  0  0  0
    5.0802  -14.6738   25.9735 N   0  0  0  0  0  0  0  0  0  0  0  0
    7.0041  -15.4225   24.8335 C   0  0  0  0  0  0  0  0  0  0  0  0
    7.3669  -16.0881   25.8697 O   0  0  0  0  0  0  0  0  0  0  0  0
    7.5499  -15.9258   23.6300 N   0  0  0  0  0  0  0  0  0  0  0  0
    8.4756  -17.0494   23.5920 C   0  0  1  0  0  0  0  0  0  0  0  0
    8.6432  -17.5295   22.1715 C   0  0  0  0  0  0  0  0  0  0  0  0
    9.5713  -18.6745   21.9973 C   0  0  0  0  0  0  0  0  0  0  0  0
    9.6473  -19.1636   20.5670 C   0  0  0  0  0  0  0  0  0  0  0  0
   10.5324  -20.3737   20.4452 C   0  0  0  0  0  0  0  0  0  0  0  0
   10.6020  -20.8550   19.0667 N   0  0  0  0  0  0  0  0  0  0  0  0
    9.7875  -16.7192   24.1507 C   0  0  0  0  0  0  0  0  0  0  0  0
   10.3760  -15.6769   23.7689 O   0  0  0  0  0  0  0  0  0  0  0  0
   11.3573  -14.3862   28.9250 N   0  0  0  0  0  0  0  0  0  0  0  0
   10.7769  -15.6737   28.9616 C   0  0  0  0  0  0  0  0  0  0  0  0
   10.1318  -16.0135   29.9940 O   0  0  0  0  0  0  0  0  0  0  0  0
   10.8835  -16.6473   27.8550 C   0  0  0  0  0  0  0  0  0  0  0  0
   11.6875  -16.0728   26.7097 C   0  0  0  0  0  0  0  0  0  0  0  0
   11.8033  -17.1133   25.6083 C   0  0  2  0  0  0  0  0  0  0  0  0
   10.4939  -17.4896   25.1219 N   0  0  0  0  0  0  0  0  0  0  0  0
   12.5031  -18.3241   26.0662 C   0  0  0  0  0  0  0  0  0  0  0  0
   13.8146  -18.2644   26.4727 O   0  0  0  0  0  0  0  0  0  0  0  0
   11.9025  -19.4170   26.0868 O   0  0  0  0  0  0  0  0  0  0  0  0
  2  3  1  0
  2  1  1  0
  3  5  1  0
  3  4  1  6
  5  6  1  1
  7  5  1  0
  8  7  2  0
  9  7  1  0
 10  9  1  0
 10 11  1  6
 11 12  1  0
 12 13  1  0
 13 14  1  0
 14 15  1  0
 16 10  1  0
 17 16  2  0
 18 19  1  0
 19 21  1  0
 20 19  2  0
 22 21  1  0
 23 22  1  1
 23 24  1  0
 24 16  1  0
 25 23  1  0
 25 26  1  0
 27 25  2  0
M  END
$$$$
