IKQ.pdb
     RDKit          3D

 27 26  0  0  1  0  0  0  0  0999 V2000
    8.2549  -11.9478   19.0196 C   0  0  0  0  0  0  0  0  0  0  0  0
    7.6051  -12.8846   19.9746 C   0  0  0  0  0  0  0  0  0  0  0  0
    8.4674  -14.0629   20.4028 C   0  0  2  0  0  0  0  0  0  0  0  0
    8.8515  -14.7462   19.0884 C   0  0  0  0  0  0  0  0  0  0  0  0
    7.6649  -14.9253   21.3060 C   0  0  2  0  0  0  0  0  0  0  0  0
    7.2846  -14.0946   22.4613 N   0  0  0  0  0  0  0  0  0  0  0  0
    8.3021  -16.1275   21.8339 C   0  0  0  0  0  0  0  0  0  0  0  0
    9.1413  -16.0178   22.7993 O   0  0  0  0  0  0  0  0  0  0  0  0
    8.1129  -17.4634   21.4106 N   0  0  0  0  0  0  0  0  0  0  0  0
    8.8890  -18.5766   21.9391 C   0  0  1  0  0  0  0  0  0  0  0  0
    8.2645  -19.8841   21.5185 C   0  0  0  0  0  0  0  0  0  0  0  0
    9.0171  -21.1000   21.9160 C   0  0  0  0  0  0  0  0  0  0  0  0
    8.3969  -22.3780   21.3937 C   0  0  0  0  0  0  0  0  0  0  0  0
    9.2033  -23.5839   21.7914 C   0  0  0  0  0  0  0  0  0  0  0  0
    8.5193  -24.8286   21.4456 N   0  0  0  0  0  0  0  0  0  0  0  0
   10.2872  -18.5454   21.5074 C   0  0  0  0  0  0  0  0  0  0  0  0
   10.5536  -18.3809   20.2906 O   0  0  0  0  0  0  0  0  0  0  0  0
   14.7634  -14.5913   22.2240 N   0  0  0  0  0  0  0  0  0  0  0  0
   14.9856  -15.5340   21.1956 C   0  0  0  0  0  0  0  0  0  0  0  0
   15.5621  -15.1473   20.1394 O   0  0  0  0  0  0  0  0  0  0  0  0
   14.5792  -16.9518   21.2881 C   0  0  0  0  0  0  0  0  0  0  0  0
   13.1427  -17.0699   21.7473 C   0  0  0  0  0  0  0  0  0  0  0  0
   12.7784  -18.5393   21.8779 C   0  0  2  0  0  0  0  0  0  0  0  0
   11.4225  -18.6882   22.3596 N   0  0  0  0  0  0  0  0  0  0  0  0
   13.6853  -19.2523   22.7915 C   0  0  0  0  0  0  0  0  0  0  0  0
   14.9699  -19.5557   22.4087 O   0  0  0  0  0  0  0  0  0  0  0  0
   13.2870  -19.5858   23.9253 O   0  0  0  0  0  0  0  0  0  0  0  0
  2  3  1  0
  2  1  1  0
  3  5  1  0
  3  4  1  6
  5  6  1  1
  7  5  1  0
  8  7  2  0
  9  7  1  0
 10  9  1  0
 10 11  1  6
 11 12  1  0
 12 13  1  0
 13 14  1  0
 14 15  1  0
 16 10  1  0
 17 16  2  0
 18 19  1  0
 19 21  1  0
 20 19  2  0
 22 21  1  0
 23 22  1  1
 23 24  1  0
 24 16  1  0
 25 23  1  0
 25 26  1  0
 27 25  2  0
M  END
$$$$
