IKQ.pdb
     RDKit          3D

 27 26  0  0  1  0  0  0  0  0999 V2000
    6.4892  -11.0954   27.5851 C   0  0  0  0  0  0  0  0  0  0  0  0
    5.9222  -12.2391   26.8221 C   0  0  0  0  0  0  0  0  0  0  0  0
    6.9522  -13.1263   26.1384 C   0  0  2  0  0  0  0  0  0  0  0  0
    7.7350  -12.1691   25.2367 C   0  0  0  0  0  0  0  0  0  0  0  0
    6.2321  -14.1879   25.3914 C   0  0  2  0  0  0  0  0  0  0  0  0
    5.5285  -15.0096   26.3909 N   0  0  0  0  0  0  0  0  0  0  0  0
    7.0289  -15.0969   24.5737 C   0  0  0  0  0  0  0  0  0  0  0  0
    7.6061  -16.0981   25.1331 O   0  0  0  0  0  0  0  0  0  0  0  0
    7.2639  -15.0264   23.1810 N   0  0  0  0  0  0  0  0  0  0  0  0
    8.0849  -15.9957   22.4687 C   0  0  1  0  0  0  0  0  0  0  0  0
    8.0710  -15.6935   20.9906 C   0  0  0  0  0  0  0  0  0  0  0  0
    8.9560  -16.5503   20.1626 C   0  0  0  0  0  0  0  0  0  0  0  0
    8.9170  -16.1958   18.6917 C   0  0  0  0  0  0  0  0  0  0  0  0
    7.9419  -17.0618   17.9423 C   0  0  0  0  0  0  0  0  0  0  0  0
    7.8908  -16.7140   16.5235 N   0  0  0  0  0  0  0  0  0  0  0  0
    9.4684  -16.0226   22.9457 C   0  0  0  0  0  0  0  0  0  0  0  0
   10.0291  -14.9470   23.2730 O   0  0  0  0  0  0  0  0  0  0  0  0
   11.7643  -17.4987   28.0013 N   0  0  0  0  0  0  0  0  0  0  0  0
   10.7808  -18.2515   27.3218 C   0  0  0  0  0  0  0  0  0  0  0  0
   10.1307  -19.1183   27.9726 O   0  0  0  0  0  0  0  0  0  0  0  0
   10.4701  -18.0800   25.8873 C   0  0  0  0  0  0  0  0  0  0  0  0
   11.2535  -16.9256   25.3023 C   0  0  0  0  0  0  0  0  0  0  0  0
   11.5153  -17.1939   23.8298 C   0  0  2  0  0  0  0  0  0  0  0  0
   10.2768  -17.1903   23.0822 N   0  0  0  0  0  0  0  0  0  0  0  0
   12.1919  -18.4832   23.6169 C   0  0  0  0  0  0  0  0  0  0  0  0
   13.5007  -18.6593   23.9974 O   0  0  0  0  0  0  0  0  0  0  0  0
   11.5739  -19.4274   23.0859 O   0  0  0  0  0  0  0  0  0  0  0  0
  2  3  1  0
  2  1  1  0
  3  5  1  0
  3  4  1  6
  5  6  1  1
  7  5  1  0
  8  7  2  0
  9  7  1  0
 10  9  1  0
 10 11  1  6
 11 12  1  0
 12 13  1  0
 13 14  1  0
 14 15  1  0
 16 10  1  0
 17 16  2  0
 18 19  1  0
 19 21  1  0
 20 19  2  0
 22 21  1  0
 23 22  1  1
 23 24  1  0
 24 16  1  0
 25 23  1  0
 25 26  1  0
 27 25  2  0
M  END
$$$$
