IKQ.pdb
     RDKit          3D

 27 26  0  0  1  0  0  0  0  0999 V2000
    5.8851  -10.6227   27.1332 C   0  0  0  0  0  0  0  0  0  0  0  0
    5.5052  -11.9556   26.5939 C   0  0  0  0  0  0  0  0  0  0  0  0
    6.6557  -12.7613   26.0085 C   0  0  2  0  0  0  0  0  0  0  0  0
    7.2655  -11.8357   24.9533 C   0  0  0  0  0  0  0  0  0  0  0  0
    6.1058  -14.0199   25.4455 C   0  0  2  0  0  0  0  0  0  0  0  0
    5.5205  -14.7696   26.5701 N   0  0  0  0  0  0  0  0  0  0  0  0
    7.0347  -14.9190   24.7684 C   0  0  0  0  0  0  0  0  0  0  0  0
    7.7528  -15.7199   25.4693 O   0  0  0  0  0  0  0  0  0  0  0  0
    7.2639  -15.0387   23.3781 N   0  0  0  0  0  0  0  0  0  0  0  0
    8.2085  -15.9921   22.8128 C   0  0  1  0  0  0  0  0  0  0  0  0
    8.2077  -15.8858   21.3078 C   0  0  0  0  0  0  0  0  0  0  0  0
    9.1742  -16.7714   20.6117 C   0  0  0  0  0  0  0  0  0  0  0  0
    9.0856  -16.6760   19.1038 C   0  0  0  0  0  0  0  0  0  0  0  0
    9.9292  -17.7266   18.4351 C   0  0  0  0  0  0  0  0  0  0  0  0
    9.9024  -17.5945   16.9796 N   0  0  0  0  0  0  0  0  0  0  0  0
    9.5710  -15.8006   23.3121 C   0  0  0  0  0  0  0  0  0  0  0  0
   10.1199  -14.6769   23.1919 O   0  0  0  0  0  0  0  0  0  0  0  0
   10.9995  -17.5719   28.7344 N   0  0  0  0  0  0  0  0  0  0  0  0
   11.2283  -16.2262   28.3706 C   0  0  0  0  0  0  0  0  0  0  0  0
   11.1471  -15.3386   29.2668 O   0  0  0  0  0  0  0  0  0  0  0  0
   11.5585  -15.7989   26.9950 C   0  0  0  0  0  0  0  0  0  0  0  0
   11.5822  -16.9842   26.0554 C   0  0  0  0  0  0  0  0  0  0  0  0
   11.6114  -16.4848   24.6206 C   0  0  2  0  0  0  0  0  0  0  0  0
   10.3707  -16.7979   23.9459 N   0  0  0  0  0  0  0  0  0  0  0  0
   12.7252  -17.0693   23.8568 C   0  0  0  0  0  0  0  0  0  0  0  0
   14.0087  -16.6074   24.0242 O   0  0  0  0  0  0  0  0  0  0  0  0
   12.5052  -17.9934   23.0487 O   0  0  0  0  0  0  0  0  0  0  0  0
  2  3  1  0
  2  1  1  0
  3  5  1  0
  3  4  1  6
  5  6  1  1
  7  5  1  0
  8  7  2  0
  9  7  1  0
 10  9  1  0
 10 11  1  6
 11 12  1  0
 12 13  1  0
 13 14  1  0
 14 15  1  0
 16 10  1  0
 17 16  2  0
 18 19  1  0
 19 21  1  0
 20 19  2  0
 22 21  1  0
 23 22  1  1
 23 24  1  0
 24 16  1  0
 25 23  1  0
 25 26  1  0
 27 25  2  0
M  END
$$$$
