IKQ.pdb
     RDKit          3D

 27 26  0  0  1  0  0  0  0  0999 V2000
    5.9786  -11.3742   27.3880 C   0  0  0  0  0  0  0  0  0  0  0  0
    5.6080  -12.5634   26.5755 C   0  0  0  0  0  0  0  0  0  0  0  0
    6.7849  -13.3440   26.0090 C   0  0  2  0  0  0  0  0  0  0  0  0
    7.5585  -12.3133   25.1834 C   0  0  0  0  0  0  0  0  0  0  0  0
    6.2532  -14.4706   25.2018 C   0  0  2  0  0  0  0  0  0  0  0  0
    5.4787  -15.3236   26.1193 N   0  0  0  0  0  0  0  0  0  0  0  0
    7.2187  -15.3326   24.5275 C   0  0  0  0  0  0  0  0  0  0  0  0
    7.7750  -16.2837   25.1866 O   0  0  0  0  0  0  0  0  0  0  0  0
    7.6466  -15.2644   23.1814 N   0  0  0  0  0  0  0  0  0  0  0  0
    8.7427  -16.0688   22.6596 C   0  0  1  0  0  0  0  0  0  0  0  0
    8.9495  -15.7679   21.1957 C   0  0  0  0  0  0  0  0  0  0  0  0
    9.0558  -16.9581   20.3153 C   0  0  0  0  0  0  0  0  0  0  0  0
    8.5684  -16.6984   18.9062 C   0  0  0  0  0  0  0  0  0  0  0  0
    8.8450  -17.8692   18.0033 C   0  0  0  0  0  0  0  0  0  0  0  0
    8.5063  -17.5706   16.6130 N   0  0  0  0  0  0  0  0  0  0  0  0
    9.9969  -15.8505   23.3818 C   0  0  0  0  0  0  0  0  0  0  0  0
   10.2434  -14.7155   23.8609 O   0  0  0  0  0  0  0  0  0  0  0  0
   11.5610  -16.2900   29.6769 N   0  0  0  0  0  0  0  0  0  0  0  0
   11.1373  -16.2615   28.3295 C   0  0  0  0  0  0  0  0  0  0  0  0
   10.2691  -15.4079   27.9900 O   0  0  0  0  0  0  0  0  0  0  0  0
   11.6556  -17.1781   27.2927 C   0  0  0  0  0  0  0  0  0  0  0  0
   10.8325  -17.0783   26.0274 C   0  0  0  0  0  0  0  0  0  0  0  0
   11.7621  -16.9021   24.8385 C   0  0  2  0  0  0  0  0  0  0  0  0
   11.0073  -16.8326   23.6063 N   0  0  0  0  0  0  0  0  0  0  0  0
   12.7366  -17.9998   24.7342 C   0  0  0  0  0  0  0  0  0  0  0  0
   13.7890  -18.0889   25.6135 O   0  0  0  0  0  0  0  0  0  0  0  0
   12.6088  -18.8595   23.8397 O   0  0  0  0  0  0  0  0  0  0  0  0
  2  3  1  0
  2  1  1  0
  3  5  1  0
  3  4  1  6
  5  6  1  1
  7  5  1  0
  8  7  2  0
  9  7  1  0
 10  9  1  0
 10 11  1  6
 11 12  1  0
 12 13  1  0
 13 14  1  0
 14 15  1  0
 16 10  1  0
 17 16  2  0
 18 19  1  0
 19 21  1  0
 20 19  2  0
 22 21  1  0
 23 22  1  1
 23 24  1  0
 24 16  1  0
 25 23  1  0
 25 26  1  0
 27 25  2  0
M  END
$$$$
