IKQ.pdb
     RDKit          3D

 27 26  0  0  1  0  0  0  0  0999 V2000
    9.4464  -11.5336   18.3079 C   0  0  0  0  0  0  0  0  0  0  0  0
    8.3175  -12.4581   18.5956 C   0  0  0  0  0  0  0  0  0  0  0  0
    8.7040  -13.7299   19.3362 C   0  0  2  0  0  0  0  0  0  0  0  0
    9.7567  -14.3839   18.4382 C   0  0  0  0  0  0  0  0  0  0  0  0
    7.4834  -14.5554   19.5155 C   0  0  2  0  0  0  0  0  0  0  0  0
    6.5044  -13.7184   20.2299 N   0  0  0  0  0  0  0  0  0  0  0  0
    7.6140  -15.7990   20.2681 C   0  0  0  0  0  0  0  0  0  0  0  0
    7.8200  -15.7449   21.5342 O   0  0  0  0  0  0  0  0  0  0  0  0
    7.5394  -17.1213   19.7728 N   0  0  0  0  0  0  0  0  0  0  0  0
    7.7848  -18.2912   20.6047 C   0  0  1  0  0  0  0  0  0  0  0  0
    7.1757  -19.5141   19.9645 C   0  0  0  0  0  0  0  0  0  0  0  0
    7.4442  -20.7942   20.6662 C   0  0  0  0  0  0  0  0  0  0  0  0
    6.8891  -21.9980   19.9359 C   0  0  0  0  0  0  0  0  0  0  0  0
    7.1569  -23.2714   20.6904 C   0  0  0  0  0  0  0  0  0  0  0  0
    6.8567  -24.4514   19.8816 N   0  0  0  0  0  0  0  0  0  0  0  0
    9.2098  -18.5264   20.8419 C   0  0  0  0  0  0  0  0  0  0  0  0
   10.0084  -18.5054   19.8722 O   0  0  0  0  0  0  0  0  0  0  0  0
   12.4447  -14.5613   20.7904 N   0  0  0  0  0  0  0  0  0  0  0  0
   13.3103  -15.4403   21.4787 C   0  0  0  0  0  0  0  0  0  0  0  0
   14.5568  -15.2538   21.3837 O   0  0  0  0  0  0  0  0  0  0  0  0
   12.8360  -16.5691   22.3062 C   0  0  0  0  0  0  0  0  0  0  0  0
   11.4416  -16.9875   21.8952 C   0  0  0  0  0  0  0  0  0  0  0  0
   11.1598  -18.3818   22.4295 C   0  0  2  0  0  0  0  0  0  0  0  0
    9.8082  -18.7871   22.1107 N   0  0  0  0  0  0  0  0  0  0  0  0
   11.3453  -18.4608   23.8871 C   0  0  0  0  0  0  0  0  0  0  0  0
   12.5949  -18.6553   24.4253 O   0  0  0  0  0  0  0  0  0  0  0  0
   10.3605  -18.3505   24.6444 O   0  0  0  0  0  0  0  0  0  0  0  0
  2  3  1  0
  2  1  1  0
  3  5  1  0
  3  4  1  6
  5  6  1  1
  7  5  1  0
  8  7  2  0
  9  7  1  0
 10  9  1  0
 10 11  1  6
 11 12  1  0
 12 13  1  0
 13 14  1  0
 14 15  1  0
 16 10  1  0
 17 16  2  0
 18 19  1  0
 19 21  1  0
 20 19  2  0
 22 21  1  0
 23 22  1  1
 23 24  1  0
 24 16  1  0
 25 23  1  0
 25 26  1  0
 27 25  2  0
M  END
$$$$
