LEC.pdb
     RDKit          3D

 24 23  0  0  1  0  0  0  0  0999 V2000
   23.1876  -14.2826  -14.7146 C   0  0  0  0  0  0  0  0  0  0  0  0
   23.9736  -13.5974  -15.8128 C   0  0  2  0  0  0  0  0  0  0  0  0
   25.3857  -13.3515  -15.3501 C   0  0  0  0  0  0  0  0  0  0  0  0
   23.2894  -12.3376  -16.2673 C   0  0  0  0  0  0  0  0  0  0  0  0
   21.8515  -12.5900  -16.5899 C   0  0  2  0  0  0  0  0  0  0  0  0
   21.6459  -13.4930  -17.6786 N   0  0  0  0  0  0  0  0  0  0  0  0
   21.1508  -11.2643  -16.7919 C   0  0  0  0  0  0  0  0  0  0  0  0
   21.4803  -10.6319  -17.8223 O   0  0  0  0  0  0  0  0  0  0  0  0
   20.2058  -10.7787  -15.8976 N   0  0  0  0  0  0  0  0  0  0  0  0
   19.5469   -9.5141  -16.0505 C   0  0  1  0  0  0  0  0  0  0  0  0
   18.0379   -9.5721  -16.0264 C   0  0  0  0  0  0  0  0  0  0  0  0
   17.4181  -10.4265  -17.0849 C   0  0  0  0  0  0  0  0  0  0  0  0
   16.2483  -11.2175  -16.6387 C   0  0  0  0  0  0  0  0  0  0  0  0
   15.1611  -10.6975  -16.3473 O   0  0  0  0  0  0  0  0  0  0  0  0
   20.0779   -8.5544  -15.0704 C   0  0  0  0  0  0  0  0  0  0  0  0
   20.2693   -8.8341  -13.8558 O   0  0  0  0  0  0  0  0  0  0  0  0
   16.3612  -12.5972  -16.5385 O   0  0  0  0  0  0  0  0  0  0  0  0
   20.4102   -7.2175  -15.4748 N   0  0  0  0  0  0  0  0  0  0  0  0
   20.8707   -6.2130  -14.5615 C   0  0  1  0  0  0  0  0  0  0  0  0
   22.3512   -5.9797  -14.8878 C   0  0  0  0  0  0  0  0  0  0  0  0
   22.9986   -4.5691  -13.9524 S   0  0  0  0  0  0  0  0  0  0  0  0
   20.1831   -4.9346  -14.8480 C   0  0  0  0  0  0  0  0  0  0  0  0
   20.0261   -4.0009  -13.8370 O   0  0  0  0  0  0  0  0  0  0  0  0
   19.7232   -4.6460  -15.9902 O   0  0  0  0  0  0  0  0  0  0  0  0
  2  1  1  1
  3  2  1  0
  4  5  1  0
  4  2  1  0
  5  6  1  6
  7  5  1  0
  7  8  2  0
  9  7  1  0
 10  9  1  0
 11 12  1  0
 10 11  1  1
 12 13  1  0
 13 17  1  0
 13 14  2  0
 15 10  1  0
 16 15  2  0
 18 15  1  0
 19 18  1  0
 19 20  1  6
 20 21  1  0
 22 19  1  0
 23 22  1  0
 24 22  2  0
M  END
$$$$
