LEC.pdb
     RDKit          3D

 24 23  0  0  1  0  0  0  0  0999 V2000
   13.8267   -6.5111   -8.8319 C   0  0  0  0  0  0  0  0  0  0  0  0
   14.9929   -7.2981   -8.2715 C   0  0  2  0  0  0  0  0  0  0  0  0
   15.4422   -6.6849   -6.9712 C   0  0  0  0  0  0  0  0  0  0  0  0
   16.1094   -7.4047   -9.2735 C   0  0  0  0  0  0  0  0  0  0  0  0
   15.6691   -8.1433  -10.4965 C   0  0  2  0  0  0  0  0  0  0  0  0
   15.5881   -9.5602  -10.3269 N   0  0  0  0  0  0  0  0  0  0  0  0
   16.5523   -7.7449  -11.6586 C   0  0  0  0  0  0  0  0  0  0  0  0
   17.4296   -8.5797  -11.9800 O   0  0  0  0  0  0  0  0  0  0  0  0
   16.4028   -6.5362  -12.3260 N   0  0  0  0  0  0  0  0  0  0  0  0
   17.2166   -6.1396  -13.4383 C   0  0  1  0  0  0  0  0  0  0  0  0
   16.5505   -5.2002  -14.4154 C   0  0  0  0  0  0  0  0  0  0  0  0
   15.3627   -5.7624  -15.1280 C   0  0  0  0  0  0  0  0  0  0  0  0
   14.6063   -4.7839  -15.9424 C   0  0  0  0  0  0  0  0  0  0  0  0
   14.9160   -4.5039  -17.1100 O   0  0  0  0  0  0  0  0  0  0  0  0
   18.5004   -5.6111  -12.9525 C   0  0  0  0  0  0  0  0  0  0  0  0
   18.6065   -4.8542  -11.9494 O   0  0  0  0  0  0  0  0  0  0  0  0
   13.5046   -4.1477  -15.3876 O   0  0  0  0  0  0  0  0  0  0  0  0
   19.7226   -5.9498  -13.6252 N   0  0  0  0  0  0  0  0  0  0  0  0
   20.9957   -5.3980  -13.2648 C   0  0  1  0  0  0  0  0  0  0  0  0
   22.0457   -6.4466  -13.6532 C   0  0  0  0  0  0  0  0  0  0  0  0
   21.9053   -7.9143  -12.5996 S   0  0  0  0  0  0  0  0  0  0  0  0
   21.2736   -4.2116  -14.1041 C   0  0  0  0  0  0  0  0  0  0  0  0
   22.3344   -3.3805  -13.7837 O   0  0  0  0  0  0  0  0  0  0  0  0
   20.5788   -3.9126  -15.1177 O   0  0  0  0  0  0  0  0  0  0  0  0
  2  1  1  6
  3  2  1  0
  4  5  1  0
  4  2  1  0
  5  6  1  1
  7  5  1  0
  7  8  2  0
  9  7  1  0
 10  9  1  0
 11 12  1  0
 10 11  1  1
 12 13  1  0
 13 17  1  0
 13 14  2  0
 15 10  1  0
 16 15  2  0
 18 15  1  0
 19 18  1  0
 19 20  1  6
 20 21  1  0
 22 19  1  0
 23 22  1  0
 24 22  2  0
M  END
$$$$
