LEC.pdb
     RDKit          3D

 24 23  0  0  1  0  0  0  0  0999 V2000
   15.1268  -14.0373  -15.3502 C   0  0  0  0  0  0  0  0  0  0  0  0
   16.6243  -14.2362  -15.4572 C   0  0  2  0  0  0  0  0  0  0  0  0
   17.1222  -15.0032  -14.2604 C   0  0  0  0  0  0  0  0  0  0  0  0
   17.3364  -12.9237  -15.6364 C   0  0  0  0  0  0  0  0  0  0  0  0
   17.1373  -12.3851  -17.0169 C   0  0  2  0  0  0  0  0  0  0  0  0
   17.7338  -13.1778  -18.0459 N   0  0  0  0  0  0  0  0  0  0  0  0
   17.5925  -10.9427  -17.0544 C   0  0  0  0  0  0  0  0  0  0  0  0
   18.7936  -10.7644  -17.3638 O   0  0  0  0  0  0  0  0  0  0  0  0
   16.7391   -9.8857  -16.7662 N   0  0  0  0  0  0  0  0  0  0  0  0
   17.1272   -8.5079  -16.8533 C   0  0  1  0  0  0  0  0  0  0  0  0
   15.9847   -7.5286  -16.9827 C   0  0  0  0  0  0  0  0  0  0  0  0
   16.3889   -6.0967  -17.1281 C   0  0  0  0  0  0  0  0  0  0  0  0
   15.2626   -5.1391  -17.2154 C   0  0  0  0  0  0  0  0  0  0  0  0
   14.2240   -5.3839  -17.8469 O   0  0  0  0  0  0  0  0  0  0  0  0
   18.0191   -8.1702  -15.7335 C   0  0  0  0  0  0  0  0  0  0  0  0
   17.7833   -8.4872  -14.5359 O   0  0  0  0  0  0  0  0  0  0  0  0
   15.3618   -3.9151  -16.5689 O   0  0  0  0  0  0  0  0  0  0  0  0
   19.2338   -7.4426  -15.9710 N   0  0  0  0  0  0  0  0  0  0  0  0
   20.1091   -7.0125  -14.9203 C   0  0  1  0  0  0  0  0  0  0  0  0
   21.3703   -7.8788  -15.0280 C   0  0  0  0  0  0  0  0  0  0  0  0
   22.6271   -7.3303  -13.8433 S   0  0  0  0  0  0  0  0  0  0  0  0
   20.5450   -5.6227  -15.1806 C   0  0  0  0  0  0  0  0  0  0  0  0
   20.8601   -4.7940  -14.1163 O   0  0  0  0  0  0  0  0  0  0  0  0
   20.6464   -5.1445  -16.3470 O   0  0  0  0  0  0  0  0  0  0  0  0
  2  1  1  1
  3  2  1  0
  4  5  1  0
  4  2  1  0
  5  6  1  6
  7  5  1  0
  7  8  2  0
  9  7  1  0
 10  9  1  0
 11 12  1  0
 10 11  1  1
 12 13  1  0
 13 17  1  0
 13 14  2  0
 15 10  1  0
 16 15  2  0
 18 15  1  0
 19 18  1  0
 19 20  1  6
 20 21  1  0
 22 19  1  0
 23 22  1  0
 24 22  2  0
M  END
$$$$
