LEC.pdb
     RDKit          3D

 24 23  0  0  1  0  0  0  0  0999 V2000
   15.7323  -13.7606  -15.8946 C   0  0  0  0  0  0  0  0  0  0  0  0
   17.2052  -14.1089  -15.8443 C   0  0  2  0  0  0  0  0  0  0  0  0
   17.3764  -15.5265  -15.3651 C   0  0  0  0  0  0  0  0  0  0  0  0
   17.9698  -13.1218  -15.0060 C   0  0  0  0  0  0  0  0  0  0  0  0
   17.7294  -11.7202  -15.4678 C   0  0  2  0  0  0  0  0  0  0  0  0
   18.3044  -11.4169  -16.7407 N   0  0  0  0  0  0  0  0  0  0  0  0
   18.1719  -10.7609  -14.3847 C   0  0  0  0  0  0  0  0  0  0  0  0
   18.2269  -11.2412  -13.2287 O   0  0  0  0  0  0  0  0  0  0  0  0
   18.4960   -9.4370  -14.6509 N   0  0  0  0  0  0  0  0  0  0  0  0
   18.9069   -8.5038  -13.6423 C   0  0  1  0  0  0  0  0  0  0  0  0
   19.8890   -7.4537  -14.1045 C   0  0  0  0  0  0  0  0  0  0  0  0
   19.5493   -6.7936  -15.4021 C   0  0  0  0  0  0  0  0  0  0  0  0
   20.5067   -5.7514  -15.8382 C   0  0  0  0  0  0  0  0  0  0  0  0
   21.1706   -5.8473  -16.8811 O   0  0  0  0  0  0  0  0  0  0  0  0
   17.7234   -7.9091  -13.0027 C   0  0  0  0  0  0  0  0  0  0  0  0
   16.6457   -7.6749  -13.6142 O   0  0  0  0  0  0  0  0  0  0  0  0
   20.6767   -4.6172  -15.0567 O   0  0  0  0  0  0  0  0  0  0  0  0
   17.7523   -7.5620  -11.6099 N   0  0  0  0  0  0  0  0  0  0  0  0
   16.6686   -6.9014  -10.9431 C   0  0  1  0  0  0  0  0  0  0  0  0
   16.9882   -6.9547   -9.4439 C   0  0  0  0  0  0  0  0  0  0  0  0
   15.6892   -6.1346   -8.4827 S   0  0  0  0  0  0  0  0  0  0  0  0
   16.6657   -5.4679  -11.3094 C   0  0  0  0  0  0  0  0  0  0  0  0
   15.4630   -4.7858  -11.3930 O   0  0  0  0  0  0  0  0  0  0  0  0
   17.7251   -4.8221  -11.5544 O   0  0  0  0  0  0  0  0  0  0  0  0
  2  1  1  1
  3  2  1  0
  4  5  1  0
  4  2  1  0
  5  6  1  6
  7  5  1  0
  7  8  2  0
  9  7  1  0
 10  9  1  0
 11 12  1  0
 10 11  1  6
 12 13  1  0
 13 17  1  0
 13 14  2  0
 15 10  1  0
 16 15  2  0
 18 15  1  0
 19 18  1  0
 19 20  1  1
 20 21  1  0
 22 19  1  0
 23 22  1  0
 24 22  2  0
M  END
$$$$
