LEC.pdb
     RDKit          3D

 24 23  0  0  1  0  0  0  0  0999 V2000
   16.2810  -11.9625  -18.9711 C   0  0  0  0  0  0  0  0  0  0  0  0
   16.6962  -12.4883  -17.6130 C   0  0  2  0  0  0  0  0  0  0  0  0
   15.4941  -12.5671  -16.7090 C   0  0  0  0  0  0  0  0  0  0  0  0
   17.8054  -11.6604  -17.0246 C   0  0  0  0  0  0  0  0  0  0  0  0
   19.0351  -11.7238  -17.8727 C   0  0  2  0  0  0  0  0  0  0  0  0
   19.6988  -12.9894  -17.8473 N   0  0  0  0  0  0  0  0  0  0  0  0
   19.9506  -10.5779  -17.5011 C   0  0  0  0  0  0  0  0  0  0  0  0
   20.7042  -10.7858  -16.5218 O   0  0  0  0  0  0  0  0  0  0  0  0
   19.9576   -9.3759  -18.1966 N   0  0  0  0  0  0  0  0  0  0  0  0
   20.8152   -8.2748  -17.8667 C   0  0  1  0  0  0  0  0  0  0  0  0
   20.9874   -7.2480  -18.9608 C   0  0  0  0  0  0  0  0  0  0  0  0
   21.9388   -6.1385  -18.6467 C   0  0  0  0  0  0  0  0  0  0  0  0
   22.0445   -5.0960  -19.6931 C   0  0  0  0  0  0  0  0  0  0  0  0
   22.4003   -3.9341  -19.4462 O   0  0  0  0  0  0  0  0  0  0  0  0
   20.3781   -7.6651  -16.6016 C   0  0  0  0  0  0  0  0  0  0  0  0
   19.1813   -7.3514  -16.3573 O   0  0  0  0  0  0  0  0  0  0  0  0
   21.7353   -5.4200  -21.0067 O   0  0  0  0  0  0  0  0  0  0  0  0
   21.3307   -7.3959  -15.5618 N   0  0  0  0  0  0  0  0  0  0  0  0
   20.9739   -6.8094  -14.3032 C   0  0  1  0  0  0  0  0  0  0  0  0
   21.4474   -7.7885  -13.2216 C   0  0  0  0  0  0  0  0  0  0  0  0
   21.1280   -7.1195  -11.5680 S   0  0  0  0  0  0  0  0  0  0  0  0
   21.7532   -5.5682  -14.0999 C   0  0  0  0  0  0  0  0  0  0  0  0
   21.1482   -4.4693  -13.5125 O   0  0  0  0  0  0  0  0  0  0  0  0
   22.9659   -5.4579  -14.4415 O   0  0  0  0  0  0  0  0  0  0  0  0
  2  1  1  6
  3  2  1  0
  4  5  1  0
  4  2  1  0
  5  6  1  1
  7  5  1  0
  7  8  2  0
  9  7  1  0
 10  9  1  0
 11 12  1  0
 10 11  1  6
 12 13  1  0
 13 17  1  0
 13 14  2  0
 15 10  1  0
 16 15  2  0
 18 15  1  0
 19 18  1  0
 19 20  1  1
 20 21  1  0
 22 19  1  0
 23 22  1  0
 24 22  2  0
M  END
$$$$
