LEC.pdb
     RDKit          3D

 24 23  0  0  1  0  0  0  0  0999 V2000
   30.2627  -18.0333  -18.7148 C   0  0  0  0  0  0  0  0  0  0  0  0
   28.9601  -17.4011  -19.1588 C   0  0  2  0  0  0  0  0  0  0  0  0
   29.2375  -16.0790  -19.8248 C   0  0  0  0  0  0  0  0  0  0  0  0
   27.9965  -17.2763  -18.0109 C   0  0  0  0  0  0  0  0  0  0  0  0
   27.9358  -18.5414  -17.2164 C   0  0  2  0  0  0  0  0  0  0  0  0
   27.6358  -19.7047  -17.9907 N   0  0  0  0  0  0  0  0  0  0  0  0
   26.9825  -18.3509  -16.0570 C   0  0  0  0  0  0  0  0  0  0  0  0
   27.2151  -17.3610  -15.3249 O   0  0  0  0  0  0  0  0  0  0  0  0
   25.9204  -19.2132  -15.8181 N   0  0  0  0  0  0  0  0  0  0  0  0
   24.9328  -18.9910  -14.8023 C   0  0  1  0  0  0  0  0  0  0  0  0
   23.5553  -18.6429  -15.3146 C   0  0  0  0  0  0  0  0  0  0  0  0
   22.9349  -19.6641  -16.2129 C   0  0  0  0  0  0  0  0  0  0  0  0
   21.6022  -19.2966  -16.7439 C   0  0  0  0  0  0  0  0  0  0  0  0
   21.3733  -19.1847  -17.9574 O   0  0  0  0  0  0  0  0  0  0  0  0
   24.9047  -20.1340  -13.8769 C   0  0  0  0  0  0  0  0  0  0  0  0
   24.8812  -21.3363  -14.2565 O   0  0  0  0  0  0  0  0  0  0  0  0
   20.5594  -19.0655  -15.8576 O   0  0  0  0  0  0  0  0  0  0  0  0
   24.9036  -19.9153  -12.4579 N   0  0  0  0  0  0  0  0  0  0  0  0
   24.6055  -20.9445  -11.5055 C   0  0  1  0  0  0  0  0  0  0  0  0
   25.5869  -20.7530  -10.3424 C   0  0  0  0  0  0  0  0  0  0  0  0
   27.2823  -21.1180  -10.8682 S   0  0  0  0  0  0  0  0  0  0  0  0
   23.2560  -20.7186  -10.9425 C   0  0  0  0  0  0  0  0  0  0  0  0
   22.7134  -21.6495  -10.0721 O   0  0  0  0  0  0  0  0  0  0  0  0
   22.5602  -19.6999  -11.2209 O   0  0  0  0  0  0  0  0  0  0  0  0
  2  1  1  1
  3  2  1  0
  4  5  1  0
  4  2  1  0
  5  6  1  6
  7  5  1  0
  7  8  2  0
  9  7  1  0
 10  9  1  0
 11 12  1  0
 10 11  1  6
 12 13  1  0
 13 17  1  0
 13 14  2  0
 15 10  1  0
 16 15  2  0
 18 15  1  0
 19 18  1  0
 19 20  1  1
 20 21  1  0
 22 19  1  0
 23 22  1  0
 24 22  2  0
M  END
$$$$
