LEC.pdb
     RDKit          3D

 24 23  0  0  1  0  0  0  0  0999 V2000
   13.5214  -12.2174  -16.5676 C   0  0  0  0  0  0  0  0  0  0  0  0
   13.2155  -12.9015  -15.2517 C   0  0  2  0  0  0  0  0  0  0  0  0
   11.7324  -12.8642  -14.9919 C   0  0  0  0  0  0  0  0  0  0  0  0
   14.0120  -12.2993  -14.1269 C   0  0  0  0  0  0  0  0  0  0  0  0
   15.4806  -12.4343  -14.3723 C   0  0  2  0  0  0  0  0  0  0  0  0
   15.9637  -13.7779  -14.3070 N   0  0  0  0  0  0  0  0  0  0  0  0
   16.2243  -11.5016  -13.4417 C   0  0  0  0  0  0  0  0  0  0  0  0
   16.5472  -11.9899  -12.3338 O   0  0  0  0  0  0  0  0  0  0  0  0
   16.5300  -10.1922  -13.7892 N   0  0  0  0  0  0  0  0  0  0  0  0
   17.2929   -9.3089  -12.9557 C   0  0  1  0  0  0  0  0  0  0  0  0
   18.3986   -8.5599  -13.6610 C   0  0  0  0  0  0  0  0  0  0  0  0
   19.2391   -7.6915  -12.7811 C   0  0  0  0  0  0  0  0  0  0  0  0
   20.4169   -7.0884  -13.4461 C   0  0  0  0  0  0  0  0  0  0  0  0
   21.3238   -7.7695  -13.9471 O   0  0  0  0  0  0  0  0  0  0  0  0
   16.3884   -8.4036  -12.2308 C   0  0  0  0  0  0  0  0  0  0  0  0
   15.4810   -7.7307  -12.7913 O   0  0  0  0  0  0  0  0  0  0  0  0
   20.5212   -5.7063  -13.5176 O   0  0  0  0  0  0  0  0  0  0  0  0
   16.5088   -8.2476  -10.8087 N   0  0  0  0  0  0  0  0  0  0  0  0
   15.6422   -7.4075  -10.0351 C   0  0  1  0  0  0  0  0  0  0  0  0
   16.0407   -7.6114   -8.5680 C   0  0  0  0  0  0  0  0  0  0  0  0
   14.8714   -6.7754   -7.4646 S   0  0  0  0  0  0  0  0  0  0  0  0
   15.9285   -5.9888  -10.3426 C   0  0  0  0  0  0  0  0  0  0  0  0
   14.8937   -5.0681  -10.3494 O   0  0  0  0  0  0  0  0  0  0  0  0
   17.0916   -5.5666  -10.6043 O   0  0  0  0  0  0  0  0  0  0  0  0
  2  1  1  6
  3  2  1  0
  4  5  1  0
  4  2  1  0
  5  6  1  1
  7  5  1  0
  7  8  2  0
  9  7  1  0
 10  9  1  0
 11 12  1  0
 10 11  1  6
 12 13  1  0
 13 17  1  0
 13 14  2  0
 15 10  1  0
 16 15  2  0
 18 15  1  0
 19 18  1  0
 19 20  1  1
 20 21  1  0
 22 19  1  0
 23 22  1  0
 24 22  2  0
M  END
$$$$
