LEC.pdb
     RDKit          3D

 24 23  0  0  1  0  0  0  0  0999 V2000
   16.1999  -10.9472  -17.7653 C   0  0  0  0  0  0  0  0  0  0  0  0
   15.9988  -11.9975  -16.6931 C   0  0  2  0  0  0  0  0  0  0  0  0
   14.5368  -12.3436  -16.5881 C   0  0  0  0  0  0  0  0  0  0  0  0
   16.5806  -11.5526  -15.3794 C   0  0  0  0  0  0  0  0  0  0  0  0
   18.0249  -11.1938  -15.5220 C   0  0  2  0  0  0  0  0  0  0  0  0
   18.8954  -12.3179  -15.6690 N   0  0  0  0  0  0  0  0  0  0  0  0
   18.4253  -10.2926  -14.3745 C   0  0  0  0  0  0  0  0  0  0  0  0
   18.7113  -10.8777  -13.3040 O   0  0  0  0  0  0  0  0  0  0  0  0
   18.4735   -8.9100  -14.4964 N   0  0  0  0  0  0  0  0  0  0  0  0
   18.9588   -8.0402  -13.4646 C   0  0  1  0  0  0  0  0  0  0  0  0
   20.0083   -7.0478  -13.9056 C   0  0  0  0  0  0  0  0  0  0  0  0
   20.5374   -6.1605  -12.8251 C   0  0  0  0  0  0  0  0  0  0  0  0
   21.5837   -5.2073  -13.2608 C   0  0  0  0  0  0  0  0  0  0  0  0
   22.0818   -4.3662  -12.4980 O   0  0  0  0  0  0  0  0  0  0  0  0
   17.8263   -7.3841  -12.7933 C   0  0  0  0  0  0  0  0  0  0  0  0
   16.8644   -6.8520  -13.4114 O   0  0  0  0  0  0  0  0  0  0  0  0
   22.0329   -5.2471  -14.5734 O   0  0  0  0  0  0  0  0  0  0  0  0
   17.7721   -7.3237  -11.3600 N   0  0  0  0  0  0  0  0  0  0  0  0
   16.7078   -6.6866  -10.6411 C   0  0  1  0  0  0  0  0  0  0  0  0
   16.8730   -7.0975   -9.1725 C   0  0  0  0  0  0  0  0  0  0  0  0
   15.5898   -6.3342   -8.1457 S   0  0  0  0  0  0  0  0  0  0  0  0
   16.8975   -5.2197  -10.6784 C   0  0  0  0  0  0  0  0  0  0  0  0
   15.7905   -4.3872  -10.6943 O   0  0  0  0  0  0  0  0  0  0  0  0
   18.0399   -4.6776  -10.6968 O   0  0  0  0  0  0  0  0  0  0  0  0
  2  1  1  6
  3  2  1  0
  4  5  1  0
  4  2  1  0
  5  6  1  1
  7  5  1  0
  7  8  2  0
  9  7  1  0
 10  9  1  0
 11 12  1  0
 10 11  1  6
 12 13  1  0
 13 17  1  0
 13 14  2  0
 15 10  1  0
 16 15  2  0
 18 15  1  0
 19 18  1  0
 19 20  1  1
 20 21  1  0
 22 19  1  0
 23 22  1  0
 24 22  2  0
M  END
$$$$
