LEC.pdb
     RDKit          3D

 24 23  0  0  1  0  0  0  0  0999 V2000
   25.1657  -12.7335  -19.1099 C   0  0  0  0  0  0  0  0  0  0  0  0
   23.7306  -13.2156  -19.0714 C   0  0  2  0  0  0  0  0  0  0  0  0
   23.3464  -13.7767  -20.4154 C   0  0  0  0  0  0  0  0  0  0  0  0
   22.8015  -12.1239  -18.6167 C   0  0  0  0  0  0  0  0  0  0  0  0
   23.2402  -11.5519  -17.3068 C   0  0  2  0  0  0  0  0  0  0  0  0
   23.1452  -12.4628  -16.2094 N   0  0  0  0  0  0  0  0  0  0  0  0
   22.4940  -10.2594  -17.0579 C   0  0  0  0  0  0  0  0  0  0  0  0
   22.6364   -9.3771  -17.9361 O   0  0  0  0  0  0  0  0  0  0  0  0
   21.7038  -10.0616  -15.9332 N   0  0  0  0  0  0  0  0  0  0  0  0
   20.8776   -8.9056  -15.7389 C   0  0  1  0  0  0  0  0  0  0  0  0
   19.4915   -9.1914  -15.2115 C   0  0  0  0  0  0  0  0  0  0  0  0
   18.6348  -10.0340  -16.1008 C   0  0  0  0  0  0  0  0  0  0  0  0
   17.2899  -10.3385  -15.5609 C   0  0  0  0  0  0  0  0  0  0  0  0
   16.2458  -10.0531  -16.1659 O   0  0  0  0  0  0  0  0  0  0  0  0
   21.5893   -7.9181  -14.9132 C   0  0  0  0  0  0  0  0  0  0  0  0
   22.0393   -8.1685  -13.7620 O   0  0  0  0  0  0  0  0  0  0  0  0
   17.1806  -10.9684  -14.3290 O   0  0  0  0  0  0  0  0  0  0  0  0
   21.8063   -6.5868  -15.4048 N   0  0  0  0  0  0  0  0  0  0  0  0
   22.5752   -5.6048  -14.6979 C   0  0  1  0  0  0  0  0  0  0  0  0
   23.2981   -4.7732  -15.7650 C   0  0  0  0  0  0  0  0  0  0  0  0
   24.4359   -5.8091  -16.7221 S   0  0  0  0  0  0  0  0  0  0  0  0
   21.6618   -4.6715  -14.0024 C   0  0  0  0  0  0  0  0  0  0  0  0
   20.2972   -4.7575  -14.2241 O   0  0  0  0  0  0  0  0  0  0  0  0
   22.0714   -3.7830  -13.2010 O   0  0  0  0  0  0  0  0  0  0  0  0
  2  1  1  6
  3  2  1  0
  4  5  1  0
  4  2  1  0
  5  6  1  1
  7  5  1  0
  7  8  2  0
  9  7  1  0
 10  9  1  0
 11 12  1  0
 10 11  1  1
 12 13  1  0
 13 17  1  0
 13 14  2  0
 15 10  1  0
 16 15  2  0
 18 15  1  0
 19 18  1  0
 19 20  1  6
 20 21  1  0
 22 19  1  0
 23 22  1  0
 24 22  2  0
M  END
$$$$
