LEC.pdb
     RDKit          3D

 24 23  0  0  1  0  0  0  0  0999 V2000
   14.5597  -10.1753  -16.2798 C   0  0  0  0  0  0  0  0  0  0  0  0
   14.1151  -11.1566  -15.2155 C   0  0  2  0  0  0  0  0  0  0  0  0
   12.6138  -11.1324  -15.0968 C   0  0  0  0  0  0  0  0  0  0  0  0
   14.8004  -10.8853  -13.9044 C   0  0  0  0  0  0  0  0  0  0  0  0
   16.2874  -10.9364  -14.0514 C   0  0  2  0  0  0  0  0  0  0  0  0
   16.8301  -12.2586  -14.0530 N   0  0  0  0  0  0  0  0  0  0  0  0
   16.9180  -10.0487  -13.0009 C   0  0  0  0  0  0  0  0  0  0  0  0
   16.9475  -10.5230  -11.8415 O   0  0  0  0  0  0  0  0  0  0  0  0
   17.4305   -8.7928  -13.2986 N   0  0  0  0  0  0  0  0  0  0  0  0
   18.0772   -7.9520  -12.3334 C   0  0  1  0  0  0  0  0  0  0  0  0
   19.2851   -7.2033  -12.8446 C   0  0  0  0  0  0  0  0  0  0  0  0
   19.8967   -6.2455  -11.8733 C   0  0  0  0  0  0  0  0  0  0  0  0
   21.0832   -5.5190  -12.3807 C   0  0  0  0  0  0  0  0  0  0  0  0
   21.6667   -4.6470  -11.7199 O   0  0  0  0  0  0  0  0  0  0  0  0
   17.0906   -7.0521  -11.7167 C   0  0  0  0  0  0  0  0  0  0  0  0
   16.2845   -6.3441  -12.3795 O   0  0  0  0  0  0  0  0  0  0  0  0
   21.5710   -5.8171  -13.6454 O   0  0  0  0  0  0  0  0  0  0  0  0
   17.0054   -6.9434  -10.2877 N   0  0  0  0  0  0  0  0  0  0  0  0
   16.0765   -6.0791   -9.6203 C   0  0  1  0  0  0  0  0  0  0  0  0
   16.0557   -6.5203   -8.1514 C   0  0  0  0  0  0  0  0  0  0  0  0
   14.7534   -5.6504   -7.2398 S   0  0  0  0  0  0  0  0  0  0  0  0
   16.6013   -4.6957   -9.6238 C   0  0  0  0  0  0  0  0  0  0  0  0
   17.9508   -4.4768   -9.8469 O   0  0  0  0  0  0  0  0  0  0  0  0
   15.8667   -3.6847   -9.4300 O   0  0  0  0  0  0  0  0  0  0  0  0
  2  1  1  6
  3  2  1  0
  4  5  1  0
  4  2  1  0
  5  6  1  1
  7  5  1  0
  7  8  2  0
  9  7  1  0
 10  9  1  0
 11 12  1  0
 10 11  1  6
 12 13  1  0
 13 17  1  0
 13 14  2  0
 15 10  1  0
 16 15  2  0
 18 15  1  0
 19 18  1  0
 19 20  1  1
 20 21  1  0
 22 19  1  0
 23 22  1  0
 24 22  2  0
M  END
$$$$
