LEC.pdb
     RDKit          3D

 24 23  0  0  1  0  0  0  0  0999 V2000
   24.8290  -12.8174  -16.0486 C   0  0  0  0  0  0  0  0  0  0  0  0
   23.7795  -13.0496  -17.1153 C   0  0  2  0  0  0  0  0  0  0  0  0
   24.4474  -13.4142  -18.4151 C   0  0  0  0  0  0  0  0  0  0  0  0
   22.8681  -11.8608  -17.2504 C   0  0  0  0  0  0  0  0  0  0  0  0
   22.2899  -11.4703  -15.9280 C   0  0  2  0  0  0  0  0  0  0  0  0
   21.4323  -12.4569  -15.3502 N   0  0  0  0  0  0  0  0  0  0  0  0
   21.6190  -10.1208  -16.0618 C   0  0  0  0  0  0  0  0  0  0  0  0
   22.2461   -9.2715  -16.7366 O   0  0  0  0  0  0  0  0  0  0  0  0
   20.3909   -9.8397  -15.4775 N   0  0  0  0  0  0  0  0  0  0  0  0
   19.7483   -8.5602  -15.5608 C   0  0  1  0  0  0  0  0  0  0  0  0
   18.2652   -8.5696  -15.2759 C   0  0  0  0  0  0  0  0  0  0  0  0
   17.4451   -9.4053  -16.2053 C   0  0  0  0  0  0  0  0  0  0  0  0
   16.0022   -9.4651  -15.8776 C   0  0  0  0  0  0  0  0  0  0  0  0
   15.1600   -8.7428  -16.4313 O   0  0  0  0  0  0  0  0  0  0  0  0
   20.4652   -7.5876  -14.7220 C   0  0  0  0  0  0  0  0  0  0  0  0
   20.7979   -7.8116  -13.5264 O   0  0  0  0  0  0  0  0  0  0  0  0
   15.5625  -10.3614  -14.9134 O   0  0  0  0  0  0  0  0  0  0  0  0
   20.8258   -6.3031  -15.2522 N   0  0  0  0  0  0  0  0  0  0  0  0
   21.5330   -5.3121  -14.4952 C   0  0  1  0  0  0  0  0  0  0  0  0
   22.5767   -4.7087  -15.4436 C   0  0  0  0  0  0  0  0  0  0  0  0
   23.4408   -3.3278  -14.6497 S   0  0  0  0  0  0  0  0  0  0  0  0
   20.6113   -4.2083  -14.1468 C   0  0  0  0  0  0  0  0  0  0  0  0
   20.8161   -3.4884  -12.9812 O   0  0  0  0  0  0  0  0  0  0  0  0
   19.6282   -3.8828  -14.8726 O   0  0  0  0  0  0  0  0  0  0  0  0
  2  1  1  1
  3  2  1  0
  4  5  1  0
  4  2  1  0
  5  6  1  6
  7  5  1  0
  7  8  2  0
  9  7  1  0
 10  9  1  0
 11 12  1  0
 10 11  1  1
 12 13  1  0
 13 17  1  0
 13 14  2  0
 15 10  1  0
 16 15  2  0
 18 15  1  0
 19 18  1  0
 19 20  1  6
 20 21  1  0
 22 19  1  0
 23 22  1  0
 24 22  2  0
M  END
$$$$
