LEC.pdb
     RDKit          3D

 24 23  0  0  1  0  0  0  0  0999 V2000
   24.9377  -12.9138  -15.7118 C   0  0  0  0  0  0  0  0  0  0  0  0
   24.3865  -12.8280  -17.1197 C   0  0  2  0  0  0  0  0  0  0  0  0
   25.4881  -13.0866  -18.1138 C   0  0  0  0  0  0  0  0  0  0  0  0
   23.6964  -11.5125  -17.3549 C   0  0  0  0  0  0  0  0  0  0  0  0
   22.6016  -11.2915  -16.3609 C   0  0  2  0  0  0  0  0  0  0  0  0
   21.6327  -12.3413  -16.3145 N   0  0  0  0  0  0  0  0  0  0  0  0
   21.9793   -9.9343  -16.6056 C   0  0  0  0  0  0  0  0  0  0  0  0
   22.7881   -8.9992  -16.8092 O   0  0  0  0  0  0  0  0  0  0  0  0
   20.6048   -9.7353  -16.6054 N   0  0  0  0  0  0  0  0  0  0  0  0
   19.9910   -8.4463  -16.7404 C   0  0  1  0  0  0  0  0  0  0  0  0
   18.5386   -8.4696  -17.1538 C   0  0  0  0  0  0  0  0  0  0  0  0
   18.2660   -9.1018  -18.4807 C   0  0  0  0  0  0  0  0  0  0  0  0
   17.0959  -10.0092  -18.5078 C   0  0  0  0  0  0  0  0  0  0  0  0
   16.4293  -10.2714  -17.4956 O   0  0  0  0  0  0  0  0  0  0  0  0
   20.2030   -7.6630  -15.5136 C   0  0  0  0  0  0  0  0  0  0  0  0
   20.0571   -8.1345  -14.3530 O   0  0  0  0  0  0  0  0  0  0  0  0
   16.7207  -10.5960  -19.7082 O   0  0  0  0  0  0  0  0  0  0  0  0
   20.5983   -6.2853  -15.5949 N   0  0  0  0  0  0  0  0  0  0  0  0
   20.7898   -5.4545  -14.4423 C   0  0  1  0  0  0  0  0  0  0  0  0
   22.2588   -5.0139  -14.4676 C   0  0  0  0  0  0  0  0  0  0  0  0
   22.6037   -3.8565  -13.1166 S   0  0  0  0  0  0  0  0  0  0  0  0
   19.9901   -4.2181  -14.5882 C   0  0  0  0  0  0  0  0  0  0  0  0
   19.4154   -3.6393  -13.4686 O   0  0  0  0  0  0  0  0  0  0  0  0
   19.8014   -3.6529  -15.7036 O   0  0  0  0  0  0  0  0  0  0  0  0
  2  1  1  1
  3  2  1  0
  4  5  1  0
  4  2  1  0
  5  6  1  6
  7  5  1  0
  7  8  2  0
  9  7  1  0
 10  9  1  0
 11 12  1  0
 10 11  1  1
 12 13  1  0
 13 17  1  0
 13 14  2  0
 15 10  1  0
 16 15  2  0
 18 15  1  0
 19 18  1  0
 19 20  1  6
 20 21  1  0
 22 19  1  0
 23 22  1  0
 24 22  2  0
M  END
$$$$
