LEC.pdb
     RDKit          3D

 24 23  0  0  1  0  0  0  0  0999 V2000
   19.6461  -14.9418  -15.7614 C   0  0  0  0  0  0  0  0  0  0  0  0
   18.9105  -14.4397  -16.9862 C   0  0  2  0  0  0  0  0  0  0  0  0
   19.4345  -15.1354  -18.2150 C   0  0  0  0  0  0  0  0  0  0  0  0
   18.9919  -12.9418  -17.0941 C   0  0  0  0  0  0  0  0  0  0  0  0
   18.4046  -12.2805  -15.8887 C   0  0  2  0  0  0  0  0  0  0  0  0
   17.0598  -12.6718  -15.6035 N   0  0  0  0  0  0  0  0  0  0  0  0
   18.5596  -10.7815  -16.0233 C   0  0  0  0  0  0  0  0  0  0  0  0
   19.6694  -10.3908  -16.4541 O   0  0  0  0  0  0  0  0  0  0  0  0
   17.5421   -9.8960  -15.6927 N   0  0  0  0  0  0  0  0  0  0  0  0
   17.6084   -8.4850  -15.9405 C   0  0  1  0  0  0  0  0  0  0  0  0
   16.2712   -7.7926  -16.0576 C   0  0  0  0  0  0  0  0  0  0  0  0
   16.3381   -6.3204  -16.3081 C   0  0  0  0  0  0  0  0  0  0  0  0
   15.0234   -5.6555  -16.4584 C   0  0  0  0  0  0  0  0  0  0  0  0
   14.4210   -5.6016  -17.5409 O   0  0  0  0  0  0  0  0  0  0  0  0
   18.4759   -7.8441  -14.9404 C   0  0  0  0  0  0  0  0  0  0  0  0
   18.3815   -8.0542  -13.7005 O   0  0  0  0  0  0  0  0  0  0  0  0
   14.4315   -5.0653  -15.3504 O   0  0  0  0  0  0  0  0  0  0  0  0
   19.4980   -6.9244  -15.3533 N   0  0  0  0  0  0  0  0  0  0  0  0
   20.3467   -6.2285  -14.4309 C   0  0  1  0  0  0  0  0  0  0  0  0
   21.7817   -6.6649  -14.7518 C   0  0  0  0  0  0  0  0  0  0  0  0
   22.9769   -5.6685  -13.8232 S   0  0  0  0  0  0  0  0  0  0  0  0
   20.2897   -4.7763  -14.7089 C   0  0  0  0  0  0  0  0  0  0  0  0
   20.4144   -3.8747  -13.6648 O   0  0  0  0  0  0  0  0  0  0  0  0
   20.1301   -4.3082  -15.8728 O   0  0  0  0  0  0  0  0  0  0  0  0
  2  1  1  1
  3  2  1  0
  4  5  1  0
  4  2  1  0
  5  6  1  6
  7  5  1  0
  7  8  2  0
  9  7  1  0
 10  9  1  0
 11 12  1  0
 10 11  1  1
 12 13  1  0
 13 17  1  0
 13 14  2  0
 15 10  1  0
 16 15  2  0
 18 15  1  0
 19 18  1  0
 19 20  1  6
 20 21  1  0
 22 19  1  0
 23 22  1  0
 24 22  2  0
M  END
$$$$
