LEC.pdb
     RDKit          3D

 24 23  0  0  1  0  0  0  0  0999 V2000
   20.0928  -13.7277  -17.5213 C   0  0  0  0  0  0  0  0  0  0  0  0
   18.6908  -13.1940  -17.7281 C   0  0  2  0  0  0  0  0  0  0  0  0
   18.1101  -13.7669  -18.9942 C   0  0  0  0  0  0  0  0  0  0  0  0
   18.6736  -11.6901  -17.7162 C   0  0  0  0  0  0  0  0  0  0  0  0
   19.2488  -11.1532  -16.4449 C   0  0  2  0  0  0  0  0  0  0  0  0
   18.5498  -11.5630  -15.2674 N   0  0  0  0  0  0  0  0  0  0  0  0
   19.3729   -9.6494  -16.5556 C   0  0  0  0  0  0  0  0  0  0  0  0
   19.8816   -9.2274  -17.6201 O   0  0  0  0  0  0  0  0  0  0  0  0
   18.9522   -8.7922  -15.5472 N   0  0  0  0  0  0  0  0  0  0  0  0
   18.9404   -7.3638  -15.6754 C   0  0  1  0  0  0  0  0  0  0  0  0
   17.6261   -6.7019  -15.3354 C   0  0  0  0  0  0  0  0  0  0  0  0
   16.4992   -7.0117  -16.2675 C   0  0  0  0  0  0  0  0  0  0  0  0
   15.2179   -6.3473  -15.9354 C   0  0  0  0  0  0  0  0  0  0  0  0
   14.8513   -5.2932  -16.4758 O   0  0  0  0  0  0  0  0  0  0  0  0
   20.0612   -6.7868  -14.9174 C   0  0  0  0  0  0  0  0  0  0  0  0
   20.3871   -7.1665  -13.7599 O   0  0  0  0  0  0  0  0  0  0  0  0
   14.3856   -6.9177  -14.9825 O   0  0  0  0  0  0  0  0  0  0  0  0
   20.8533   -5.7340  -15.4876 N   0  0  0  0  0  0  0  0  0  0  0  0
   22.0067   -5.1810  -14.8401 C   0  0  1  0  0  0  0  0  0  0  0  0
   23.0349   -4.9124  -15.9462 C   0  0  0  0  0  0  0  0  0  0  0  0
   24.4638   -4.0133  -15.2877 S   0  0  0  0  0  0  0  0  0  0  0  0
   21.6650   -3.8589  -14.2705 C   0  0  0  0  0  0  0  0  0  0  0  0
   22.2221   -3.4695  -13.0635 O   0  0  0  0  0  0  0  0  0  0  0  0
   20.8756   -3.0516  -14.8402 O   0  0  0  0  0  0  0  0  0  0  0  0
  2  1  1  6
  3  2  1  0
  4  5  1  0
  4  2  1  0
  5  6  1  1
  7  5  1  0
  7  8  2  0
  9  7  1  0
 10  9  1  0
 11 12  1  0
 10 11  1  1
 12 13  1  0
 13 17  1  0
 13 14  2  0
 15 10  1  0
 16 15  2  0
 18 15  1  0
 19 18  1  0
 19 20  1  6
 20 21  1  0
 22 19  1  0
 23 22  1  0
 24 22  2  0
M  END
$$$$
