STQ.pdb
     RDKit          3D

 23 22  0  0  1  0  0  0  0  0999 V2000
    7.7311  -18.9074   17.6511 O   0  0  0  0  0  0  0  0  0  0  0  0
    6.9132  -17.8641   17.2623 C   0  0  0  0  0  0  0  0  0  0  0  0
    7.6811  -16.6221   16.8753 C   0  0  2  0  0  0  0  0  0  0  0  0
    8.5402  -16.9474   15.7270 N   0  0  0  0  0  0  0  0  0  0  0  0
    8.5047  -16.0731   17.9748 C   0  0  0  0  0  0  0  0  0  0  0  0
    9.7336  -16.3220   18.0787 O   0  0  0  0  0  0  0  0  0  0  0  0
    7.5529  -12.6350   19.6574 C   0  0  0  0  0  0  0  0  0  0  0  0
    7.8826  -13.6345   20.7355 C   0  0  1  0  0  0  0  0  0  0  0  0
    6.6697  -14.1081   21.2489 O   0  0  0  0  0  0  0  0  0  0  0  0
    8.6777  -14.7745   20.1154 C   0  0  2  0  0  0  0  0  0  0  0  0
    7.9355  -15.2329   18.9686 N   0  0  0  0  0  0  0  0  0  0  0  0
    8.9995  -15.8284   21.0774 C   0  0  0  0  0  0  0  0  0  0  0  0
    8.3448  -16.9265   21.0553 O   0  0  0  0  0  0  0  0  0  0  0  0
   11.0591  -20.4121   21.2615 N   0  0  0  0  0  0  0  0  0  0  0  0
   12.1252  -19.5021   21.1277 C   0  0  0  0  0  0  0  0  0  0  0  0
   13.1905  -19.8251   20.5411 O   0  0  0  0  0  0  0  0  0  0  0  0
   11.9587  -18.1206   21.7085 C   0  0  0  0  0  0  0  0  0  0  0  0
   10.6297  -17.9882   22.3653 C   0  0  0  0  0  0  0  0  0  0  0  0
   10.3645  -16.6787   23.0411 C   0  0  2  0  0  0  0  0  0  0  0  0
   10.0237  -15.6760   22.0466 N   0  0  0  0  0  0  0  0  0  0  0  0
   11.4079  -16.2357   23.9620 C   0  0  0  0  0  0  0  0  0  0  0  0
   12.1538  -15.2366   23.7625 O   0  0  0  0  0  0  0  0  0  0  0  0
   11.6443  -16.9104   25.1492 O   0  0  0  0  0  0  0  0  0  0  0  0
  2  1  1  0
  3  4  1  6
  3  5  1  0
  3  2  1  0
  5  6  2  0
  8  7  1  6
  8  9  1  0
  8 10  1  0
 10 12  1  0
 11  5  1  0
 10 11  1  6
 12 13  2  0
 12 20  1  0
 15 14  1  0
 15 16  2  0
 17 18  1  0
 17 15  1  0
 19 18  1  6
 20 19  1  0
 21 19  1  0
 21 23  1  0
 22 21  2  0
M  END
$$$$
