STQ.pdb
     RDKit          3D

 23 22  0  0  1  0  0  0  0  0999 V2000
    9.3020  -18.1654   16.2744 O   0  0  0  0  0  0  0  0  0  0  0  0
    8.3064  -17.2164   16.1445 C   0  0  0  0  0  0  0  0  0  0  0  0
    8.8381  -15.8033   16.0951 C   0  0  2  0  0  0  0  0  0  0  0  0
    9.8734  -15.7339   15.0531 N   0  0  0  0  0  0  0  0  0  0  0  0
    9.3960  -15.3391   17.3843 C   0  0  0  0  0  0  0  0  0  0  0  0
   10.6280  -15.3847   17.6353 O   0  0  0  0  0  0  0  0  0  0  0  0
    7.5322  -12.5481   19.5543 C   0  0  0  0  0  0  0  0  0  0  0  0
    7.9339  -13.7130   20.4213 C   0  0  1  0  0  0  0  0  0  0  0  0
    6.8026  -14.5210   20.5829 O   0  0  0  0  0  0  0  0  0  0  0  0
    9.0408  -14.4846   19.7171 C   0  0  2  0  0  0  0  0  0  0  0  0
    8.5542  -14.8168   18.4022 N   0  0  0  0  0  0  0  0  0  0  0  0
    9.5065  -15.6364   20.4890 C   0  0  0  0  0  0  0  0  0  0  0  0
    9.8796  -16.6970   19.8801 O   0  0  0  0  0  0  0  0  0  0  0  0
   13.6180  -17.4902   20.6555 N   0  0  0  0  0  0  0  0  0  0  0  0
   13.9329  -17.5113   22.0277 C   0  0  0  0  0  0  0  0  0  0  0  0
   15.0309  -17.9675   22.4394 O   0  0  0  0  0  0  0  0  0  0  0  0
   12.9152  -16.9700   22.9998 C   0  0  0  0  0  0  0  0  0  0  0  0
   11.8752  -16.1841   22.2814 C   0  0  0  0  0  0  0  0  0  0  0  0
   10.4605  -16.4405   22.6994 C   0  0  2  0  0  0  0  0  0  0  0  0
    9.5606  -15.6210   21.9062 N   0  0  0  0  0  0  0  0  0  0  0  0
   10.2109  -16.3348   24.1346 C   0  0  0  0  0  0  0  0  0  0  0  0
   10.3443  -17.2889   24.9507 O   0  0  0  0  0  0  0  0  0  0  0  0
    9.8008  -15.1381   24.7005 O   0  0  0  0  0  0  0  0  0  0  0  0
  2  1  1  0
  3  4  1  6
  3  5  1  0
  3  2  1  0
  5  6  2  0
  8  7  1  6
  8  9  1  0
  8 10  1  0
 10 12  1  0
 11  5  1  0
 10 11  1  6
 12 13  2  0
 12 20  1  0
 15 14  1  0
 15 16  2  0
 17 18  1  0
 17 15  1  0
 19 18  1  1
 20 19  1  0
 21 19  1  0
 21 23  1  0
 22 21  2  0
M  END
$$$$
