STQ.pdb
     RDKit          3D

 23 22  0  0  1  0  0  0  0  0999 V2000
   11.6364  -13.5736   17.5405 O   0  0  0  0  0  0  0  0  0  0  0  0
   11.0941  -13.3877   18.7975 C   0  0  0  0  0  0  0  0  0  0  0  0
    9.6171  -13.6991   18.8571 C   0  0  2  0  0  0  0  0  0  0  0  0
    8.8837  -12.5873   18.2337 N   0  0  0  0  0  0  0  0  0  0  0  0
    9.1169  -13.9181   20.2320 C   0  0  0  0  0  0  0  0  0  0  0  0
    8.8423  -12.9633   21.0040 O   0  0  0  0  0  0  0  0  0  0  0  0
    6.3241  -16.2365   21.1497 C   0  0  0  0  0  0  0  0  0  0  0  0
    7.4878  -16.6412   22.0169 C   0  0  1  0  0  0  0  0  0  0  0  0
    8.0884  -17.7530   21.4150 O   0  0  0  0  0  0  0  0  0  0  0  0
    8.4697  -15.4804   22.0864 C   0  0  2  0  0  0  0  0  0  0  0  0
    8.9238  -15.2296   20.7421 N   0  0  0  0  0  0  0  0  0  0  0  0
    9.5487  -15.7091   23.0471 C   0  0  0  0  0  0  0  0  0  0  0  0
   10.7191  -16.0045   22.6255 O   0  0  0  0  0  0  0  0  0  0  0  0
    9.4656  -13.5057   28.7835 N   0  0  0  0  0  0  0  0  0  0  0  0
    9.9356  -14.7944   29.1013 C   0  0  0  0  0  0  0  0  0  0  0  0
   10.0812  -15.1607   30.2962 O   0  0  0  0  0  0  0  0  0  0  0  0
   10.2628  -15.7324   27.9669 C   0  0  0  0  0  0  0  0  0  0  0  0
   10.1145  -15.0390   26.6583 C   0  0  0  0  0  0  0  0  0  0  0  0
   10.3660  -15.8783   25.4442 C   0  0  2  0  0  0  0  0  0  0  0  0
    9.3429  -15.6143   24.4472 N   0  0  0  0  0  0  0  0  0  0  0  0
   10.5524  -17.3032   25.7052 C   0  0  0  0  0  0  0  0  0  0  0  0
    9.6623  -18.1805   25.5253 O   0  0  0  0  0  0  0  0  0  0  0  0
   11.7604  -17.7888   26.1801 O   0  0  0  0  0  0  0  0  0  0  0  0
  2  1  1  0
  3  4  1  1
  3  5  1  0
  3  2  1  0
  5  6  2  0
  8  7  1  6
  8  9  1  0
  8 10  1  0
 10 12  1  0
 11  5  1  0
 10 11  1  6
 12 13  2  0
 12 20  1  0
 15 14  1  0
 15 16  2  0
 17 18  1  0
 17 15  1  0
 19 18  1  1
 20 19  1  0
 21 19  1  0
 21 23  1  0
 22 21  2  0
M  END
$$$$
