STQ.pdb
     RDKit          3D

 23 22  0  0  1  0  0  0  0  0999 V2000
   11.2994  -13.3684   18.2496 O   0  0  0  0  0  0  0  0  0  0  0  0
   10.5230  -13.3835   19.3921 C   0  0  0  0  0  0  0  0  0  0  0  0
    9.0795  -13.7378   19.1224 C   0  0  2  0  0  0  0  0  0  0  0  0
    8.4456  -12.6050   18.4315 N   0  0  0  0  0  0  0  0  0  0  0  0
    8.3157  -14.0665   20.3460 C   0  0  0  0  0  0  0  0  0  0  0  0
    7.8955  -13.1778   21.1313 O   0  0  0  0  0  0  0  0  0  0  0  0
    6.3128  -17.5956   23.1406 C   0  0  0  0  0  0  0  0  0  0  0  0
    7.0527  -17.2364   21.8783 C   0  0  1  0  0  0  0  0  0  0  0  0
    6.1533  -17.3748   20.8150 O   0  0  0  0  0  0  0  0  0  0  0  0
    7.5285  -15.7947   21.9867 C   0  0  2  0  0  0  0  0  0  0  0  0
    8.0220  -15.4135   20.6878 N   0  0  0  0  0  0  0  0  0  0  0  0
    8.4895  -15.5964   23.0713 C   0  0  0  0  0  0  0  0  0  0  0  0
    9.4902  -14.8201   22.8959 O   0  0  0  0  0  0  0  0  0  0  0  0
    7.6612  -11.7937   26.6506 N   0  0  0  0  0  0  0  0  0  0  0  0
    6.5735  -12.6873   26.6209 C   0  0  0  0  0  0  0  0  0  0  0  0
    5.4229  -12.3287   26.9824 O   0  0  0  0  0  0  0  0  0  0  0  0
    6.8220  -14.0953   26.1418 C   0  0  0  0  0  0  0  0  0  0  0  0
    8.2277  -14.2467   25.6766 C   0  0  0  0  0  0  0  0  0  0  0  0
    8.7397  -15.6515   25.5966 C   0  0  2  0  0  0  0  0  0  0  0  0
    8.3515  -16.2413   24.3270 N   0  0  0  0  0  0  0  0  0  0  0  0
    8.4095  -16.4961   26.7415 C   0  0  0  0  0  0  0  0  0  0  0  0
    7.4014  -17.2543   26.7974 O   0  0  0  0  0  0  0  0  0  0  0  0
    9.2142  -16.5139   27.8696 O   0  0  0  0  0  0  0  0  0  0  0  0
  2  1  1  0
  3  4  1  1
  3  5  1  0
  3  2  1  0
  5  6  2  0
  8  7  1  1
  8  9  1  0
  8 10  1  0
 10 12  1  0
 11  5  1  0
 10 11  1  6
 12 13  2  0
 12 20  1  0
 15 14  1  0
 15 16  2  0
 17 18  1  0
 17 15  1  0
 19 18  1  1
 20 19  1  0
 21 19  1  0
 21 23  1  0
 22 21  2  0
M  END
$$$$
