STQ.pdb
     RDKit          3D

 23 22  0  0  1  0  0  0  0  0999 V2000
   10.3798  -17.3290   15.0354 O   0  0  0  0  0  0  0  0  0  0  0  0
    9.1609  -16.6848   15.1245 C   0  0  0  0  0  0  0  0  0  0  0  0
    9.2873  -15.1797   15.1525 C   0  0  2  0  0  0  0  0  0  0  0  0
   10.1812  -14.7694   14.0594 N   0  0  0  0  0  0  0  0  0  0  0  0
    9.7983  -14.6559   16.4382 C   0  0  0  0  0  0  0  0  0  0  0  0
   10.9958  -14.2998   16.5869 O   0  0  0  0  0  0  0  0  0  0  0  0
    7.4817  -12.6860   19.0113 C   0  0  0  0  0  0  0  0  0  0  0  0
    8.2323  -13.7856   19.7166 C   0  0  1  0  0  0  0  0  0  0  0  0
    7.3594  -14.8727   19.8396 O   0  0  0  0  0  0  0  0  0  0  0  0
    9.4406  -14.1680   18.8738 C   0  0  2  0  0  0  0  0  0  0  0  0
    8.9483  -14.5318   17.5694 N   0  0  0  0  0  0  0  0  0  0  0  0
   10.2690  -15.1945   19.5060 C   0  0  0  0  0  0  0  0  0  0  0  0
   10.6695  -16.1958   18.8191 O   0  0  0  0  0  0  0  0  0  0  0  0
   15.2226  -16.3136   19.4897 N   0  0  0  0  0  0  0  0  0  0  0  0
   14.9260  -15.0265   19.9775 C   0  0  0  0  0  0  0  0  0  0  0  0
   15.7171  -14.0635   19.8043 O   0  0  0  0  0  0  0  0  0  0  0  0
   13.6276  -14.8278   20.7180 C   0  0  0  0  0  0  0  0  0  0  0  0
   12.8515  -16.0972   20.7585 C   0  0  0  0  0  0  0  0  0  0  0  0
   11.5614  -16.0481   21.5169 C   0  0  2  0  0  0  0  0  0  0  0  0
   10.6497  -15.1201   20.8703 N   0  0  0  0  0  0  0  0  0  0  0  0
   11.6960  -15.8078   22.9512 C   0  0  0  0  0  0  0  0  0  0  0  0
   11.1664  -14.8376   23.5615 O   0  0  0  0  0  0  0  0  0  0  0  0
   12.4375  -16.6631   23.7506 O   0  0  0  0  0  0  0  0  0  0  0  0
  2  1  1  0
  3  4  1  6
  3  5  1  0
  3  2  1  0
  5  6  2  0
  8  7  1  6
  8  9  1  0
  8 10  1  0
 10 12  1  0
 11  5  1  0
 10 11  1  6
 12 13  2  0
 12 20  1  0
 15 14  1  0
 15 16  2  0
 17 18  1  0
 17 15  1  0
 19 18  1  6
 20 19  1  0
 21 19  1  0
 21 23  1  0
 22 21  2  0
M  END
$$$$
