STQ.pdb
     RDKit          3D

 23 22  0  0  1  0  0  0  0  0999 V2000
    3.7619  -18.6733   22.8647 O   0  0  0  0  0  0  0  0  0  0  0  0
    5.0462  -18.2248   22.6239 C   0  0  0  0  0  0  0  0  0  0  0  0
    5.3258  -17.9881   21.1584 C   0  0  2  0  0  0  0  0  0  0  0  0
    5.2451  -19.2780   20.4571 N   0  0  0  0  0  0  0  0  0  0  0  0
    6.6424  -17.3633   20.9039 C   0  0  0  0  0  0  0  0  0  0  0  0
    7.6578  -18.0420   20.6021 O   0  0  0  0  0  0  0  0  0  0  0  0
    7.0782  -14.3231   18.8497 C   0  0  0  0  0  0  0  0  0  0  0  0
    7.8801  -14.0235   20.0896 C   0  0  1  0  0  0  0  0  0  0  0  0
    7.1328  -13.1268   20.8618 O   0  0  0  0  0  0  0  0  0  0  0  0
    8.1021  -15.3225   20.8510 C   0  0  2  0  0  0  0  0  0  0  0  0
    6.8156  -15.9562   20.9904 N   0  0  0  0  0  0  0  0  0  0  0  0
    8.8084  -15.1227   22.1162 C   0  0  0  0  0  0  0  0  0  0  0  0
    8.2010  -14.5782   23.1007 O   0  0  0  0  0  0  0  0  0  0  0  0
    7.0989  -17.5088   25.9952 N   0  0  0  0  0  0  0  0  0  0  0  0
    8.4861  -17.3776   26.1977 C   0  0  0  0  0  0  0  0  0  0  0  0
    9.1167  -18.1751   26.9390 O   0  0  0  0  0  0  0  0  0  0  0  0
    9.2036  -16.2500   25.4997 C   0  0  0  0  0  0  0  0  0  0  0  0
    9.9920  -16.7677   24.3483 C   0  0  0  0  0  0  0  0  0  0  0  0
   10.7804  -15.7474   23.5872 C   0  0  2  0  0  0  0  0  0  0  0  0
   10.1596  -15.5154   22.2944 N   0  0  0  0  0  0  0  0  0  0  0  0
   12.2123  -16.0182   23.4909 C   0  0  0  0  0  0  0  0  0  0  0  0
   12.7363  -16.7684   22.6209 O   0  0  0  0  0  0  0  0  0  0  0  0
   13.1075  -15.4448   24.3799 O   0  0  0  0  0  0  0  0  0  0  0  0
  2  1  1  0
  3  4  1  6
  3  5  1  0
  3  2  1  0
  5  6  2  0
  8  7  1  6
  8  9  1  0
  8 10  1  0
 10 12  1  0
 11  5  1  0
 10 11  1  1
 12 13  2  0
 12 20  1  0
 15 14  1  0
 15 16  2  0
 17 18  1  0
 17 15  1  0
 19 18  1  6
 20 19  1  0
 21 19  1  0
 21 23  1  0
 22 21  2  0
M  END
$$$$
