STQ.pdb
     RDKit          3D

 23 22  0  0  1  0  0  0  0  0999 V2000
    9.9007  -17.5863   15.1271 O   0  0  0  0  0  0  0  0  0  0  0  0
    8.7472  -16.8479   14.9465 C   0  0  0  0  0  0  0  0  0  0  0  0
    8.9892  -15.3570   14.9667 C   0  0  2  0  0  0  0  0  0  0  0  0
    9.8781  -15.0166   13.8458 N   0  0  0  0  0  0  0  0  0  0  0  0
    9.5778  -14.8736   16.2349 C   0  0  0  0  0  0  0  0  0  0  0  0
   10.8199  -14.7461   16.3902 O   0  0  0  0  0  0  0  0  0  0  0  0
    7.3164  -12.6885   18.8087 C   0  0  0  0  0  0  0  0  0  0  0  0
    8.1190  -13.7574   19.5039 C   0  0  1  0  0  0  0  0  0  0  0  0
    7.2742  -14.8579   19.6888 O   0  0  0  0  0  0  0  0  0  0  0  0
    9.2967  -14.1356   18.6171 C   0  0  2  0  0  0  0  0  0  0  0  0
    8.7558  -14.5292   17.3409 N   0  0  0  0  0  0  0  0  0  0  0  0
   10.1673  -15.1383   19.2304 C   0  0  0  0  0  0  0  0  0  0  0  0
   10.7294  -16.0218   18.4968 O   0  0  0  0  0  0  0  0  0  0  0  0
   14.9364  -14.0749   19.2423 N   0  0  0  0  0  0  0  0  0  0  0  0
   15.2665  -14.9111   20.3260 C   0  0  0  0  0  0  0  0  0  0  0  0
   16.4636  -15.1029   20.6625 O   0  0  0  0  0  0  0  0  0  0  0  0
   14.1427  -15.5766   21.0795 C   0  0  0  0  0  0  0  0  0  0  0  0
   12.8249  -15.1132   20.5658 C   0  0  0  0  0  0  0  0  0  0  0  0
   11.6214  -15.7041   21.2324 C   0  0  2  0  0  0  0  0  0  0  0  0
   10.4148  -15.1678   20.6267 N   0  0  0  0  0  0  0  0  0  0  0  0
   11.6153  -15.6139   22.6901 C   0  0  0  0  0  0  0  0  0  0  0  0
   10.8682  -14.8393   23.3506 O   0  0  0  0  0  0  0  0  0  0  0  0
   12.4581  -16.4029   23.4566 O   0  0  0  0  0  0  0  0  0  0  0  0
  2  1  1  0
  3  4  1  6
  3  5  1  0
  3  2  1  0
  5  6  2  0
  8  7  1  6
  8  9  1  0
  8 10  1  0
 10 12  1  0
 11  5  1  0
 10 11  1  6
 12 13  2  0
 12 20  1  0
 15 14  1  0
 15 16  2  0
 17 18  1  0
 17 15  1  0
 19 18  1  6
 20 19  1  0
 21 19  1  0
 21 23  1  0
 22 21  2  0
M  END
$$$$
