STQ.pdb
     RDKit          3D

 23 22  0  0  1  0  0  0  0  0999 V2000
    9.0372  -17.4831   13.9180 O   0  0  0  0  0  0  0  0  0  0  0  0
    8.2664  -16.9015   14.9060 C   0  0  0  0  0  0  0  0  0  0  0  0
    8.3281  -15.3922   14.8937 C   0  0  2  0  0  0  0  0  0  0  0  0
    8.8960  -14.9622   13.6073 N   0  0  0  0  0  0  0  0  0  0  0  0
    9.1246  -14.8267   16.0047 C   0  0  0  0  0  0  0  0  0  0  0  0
   10.3204  -14.4655   15.8543 O   0  0  0  0  0  0  0  0  0  0  0  0
    7.4151  -12.7278   18.8645 C   0  0  0  0  0  0  0  0  0  0  0  0
    8.3452  -13.7380   19.4845 C   0  0  1  0  0  0  0  0  0  0  0  0
    7.5612  -14.8117   19.9222 O   0  0  0  0  0  0  0  0  0  0  0  0
    9.3358  -14.2012   18.4260 C   0  0  2  0  0  0  0  0  0  0  0  0
    8.5656  -14.6663   17.3005 N   0  0  0  0  0  0  0  0  0  0  0  0
   10.2940  -15.1805   18.9381 C   0  0  0  0  0  0  0  0  0  0  0  0
   10.1965  -16.4055   18.5849 O   0  0  0  0  0  0  0  0  0  0  0  0
   15.5543  -14.2539   17.7531 N   0  0  0  0  0  0  0  0  0  0  0  0
   15.5891  -14.1220   19.1545 C   0  0  0  0  0  0  0  0  0  0  0  0
   16.6718  -13.9305   19.7663 O   0  0  0  0  0  0  0  0  0  0  0  0
   14.2880  -14.2163   19.9107 C   0  0  0  0  0  0  0  0  0  0  0  0
   13.6386  -15.5334   19.6680 C   0  0  0  0  0  0  0  0  0  0  0  0
   12.3241  -15.7475   20.3522 C   0  0  2  0  0  0  0  0  0  0  0  0
   11.3411  -14.8178   19.8234 N   0  0  0  0  0  0  0  0  0  0  0  0
   12.3796  -15.7486   21.8117 C   0  0  0  0  0  0  0  0  0  0  0  0
   11.7641  -14.9265   22.5463 O   0  0  0  0  0  0  0  0  0  0  0  0
   13.1365  -16.6865   22.4955 O   0  0  0  0  0  0  0  0  0  0  0  0
  2  1  1  0
  3  4  1  6
  3  5  1  0
  3  2  1  0
  5  6  2  0
  8  7  1  6
  8  9  1  0
  8 10  1  0
 10 12  1  0
 11  5  1  0
 10 11  1  6
 12 13  2  0
 12 20  1  0
 15 14  1  0
 15 16  2  0
 17 18  1  0
 17 15  1  0
 19 18  1  6
 20 19  1  0
 21 19  1  0
 21 23  1  0
 22 21  2  0
M  END
$$$$
