STQ.pdb
     RDKit          3D

 23 22  0  0  1  0  0  0  0  0999 V2000
    3.8467  -18.4574   22.6251 O   0  0  0  0  0  0  0  0  0  0  0  0
    3.3649  -17.7034   21.5726 C   0  0  0  0  0  0  0  0  0  0  0  0
    4.3217  -17.6364   20.4055 C   0  0  2  0  0  0  0  0  0  0  0  0
    4.5033  -18.9964   19.8765 N   0  0  0  0  0  0  0  0  0  0  0  0
    5.6373  -17.0575   20.7556 C   0  0  0  0  0  0  0  0  0  0  0  0
    6.6039  -17.7708   21.1298 O   0  0  0  0  0  0  0  0  0  0  0  0
    8.3560  -12.9324   21.0383 C   0  0  0  0  0  0  0  0  0  0  0  0
    7.0871  -13.6130   20.5947 C   0  0  1  0  0  0  0  0  0  0  0  0
    7.0653  -13.5815   19.1956 O   0  0  0  0  0  0  0  0  0  0  0  0
    7.1065  -15.0510   21.0929 C   0  0  2  0  0  0  0  0  0  0  0  0
    5.8656  -15.6575   20.6823 N   0  0  0  0  0  0  0  0  0  0  0  0
    7.3716  -15.1487   22.5281 C   0  0  0  0  0  0  0  0  0  0  0  0
    6.4414  -14.8792   23.3630 O   0  0  0  0  0  0  0  0  0  0  0  0
    7.2735  -19.5065   25.4637 N   0  0  0  0  0  0  0  0  0  0  0  0
    7.8146  -18.7956   26.5520 C   0  0  0  0  0  0  0  0  0  0  0  0
    7.7836  -19.2644   27.7192 O   0  0  0  0  0  0  0  0  0  0  0  0
    8.4369  -17.4487   26.2834 C   0  0  0  0  0  0  0  0  0  0  0  0
    8.3504  -17.1142   24.8357 C   0  0  0  0  0  0  0  0  0  0  0  0
    8.9158  -15.7857   24.4391 C   0  0  2  0  0  0  0  0  0  0  0  0
    8.6383  -15.5361   23.0352 N   0  0  0  0  0  0  0  0  0  0  0  0
   10.3197  -15.5824   24.7869 C   0  0  0  0  0  0  0  0  0  0  0  0
   11.2561  -15.5038   23.9435 O   0  0  0  0  0  0  0  0  0  0  0  0
   10.7156  -15.4583   26.1091 O   0  0  0  0  0  0  0  0  0  0  0  0
  2  1  1  0
  3  4  1  1
  3  5  1  0
  3  2  1  0
  5  6  2  0
  8  7  1  6
  8  9  1  0
  8 10  1  0
 10 12  1  0
 11  5  1  0
 10 11  1  1
 12 13  2  0
 12 20  1  0
 15 14  1  0
 15 16  2  0
 17 18  1  0
 17 15  1  0
 19 18  1  6
 20 19  1  0
 21 19  1  0
 21 23  1  0
 22 21  2  0
M  END
$$$$
