STQ.pdb
     RDKit          3D

 23 22  0  0  1  0  0  0  0  0999 V2000
    4.8073  -18.4668   21.6705 O   0  0  0  0  0  0  0  0  0  0  0  0
    4.2744  -17.6471   20.6945 C   0  0  0  0  0  0  0  0  0  0  0  0
    5.2714  -17.2792   19.6209 C   0  0  2  0  0  0  0  0  0  0  0  0
    5.5375  -18.4744   18.8066 N   0  0  0  0  0  0  0  0  0  0  0  0
    6.5435  -16.7471   20.1567 C   0  0  0  0  0  0  0  0  0  0  0  0
    7.5690  -17.4651   20.2821 O   0  0  0  0  0  0  0  0  0  0  0  0
    7.6972  -13.2525   19.2941 C   0  0  0  0  0  0  0  0  0  0  0  0
    7.9276  -13.3825   20.7773 C   0  0  1  0  0  0  0  0  0  0  0  0
    6.9115  -12.6665   21.4206 O   0  0  0  0  0  0  0  0  0  0  0  0
    7.8583  -14.8558   21.1531 C   0  0  2  0  0  0  0  0  0  0  0  0
    6.6605  -15.3888   20.5552 N   0  0  0  0  0  0  0  0  0  0  0  0
    7.9535  -15.0765   22.5959 C   0  0  0  0  0  0  0  0  0  0  0  0
    6.9090  -14.9594   23.3241 O   0  0  0  0  0  0  0  0  0  0  0  0
    7.7257  -19.5471   27.5779 N   0  0  0  0  0  0  0  0  0  0  0  0
    7.7183  -18.8447   26.3575 C   0  0  0  0  0  0  0  0  0  0  0  0
    7.0108  -19.2247   25.3889 O   0  0  0  0  0  0  0  0  0  0  0  0
    8.5852  -17.6168   26.2380 C   0  0  0  0  0  0  0  0  0  0  0  0
    8.4536  -17.0161   24.8826 C   0  0  0  0  0  0  0  0  0  0  0  0
    9.2980  -15.8076   24.6208 C   0  0  2  0  0  0  0  0  0  0  0  0
    9.1769  -15.4199   23.2260 N   0  0  0  0  0  0  0  0  0  0  0  0
   10.6856  -15.9151   25.0635 C   0  0  0  0  0  0  0  0  0  0  0  0
   11.0347  -16.2124   26.2400 O   0  0  0  0  0  0  0  0  0  0  0  0
   11.7335  -15.6904   24.1849 O   0  0  0  0  0  0  0  0  0  0  0  0
  2  1  1  0
  3  4  1  1
  3  5  1  0
  3  2  1  0
  5  6  2  0
  8  7  1  6
  8  9  1  0
  8 10  1  0
 10 12  1  0
 11  5  1  0
 10 11  1  1
 12 13  2  0
 12 20  1  0
 15 14  1  0
 15 16  2  0
 17 18  1  0
 17 15  1  0
 19 18  1  6
 20 19  1  0
 21 19  1  0
 21 23  1  0
 22 21  2  0
M  END
$$$$
