STQ.pdb
     RDKit          3D

 23 22  0  0  1  0  0  0  0  0999 V2000
   11.7208  -13.7401   19.5251 O   0  0  0  0  0  0  0  0  0  0  0  0
   10.7960  -13.0310   18.7831 C   0  0  0  0  0  0  0  0  0  0  0  0
    9.4450  -13.7041   18.7213 C   0  0  2  0  0  0  0  0  0  0  0  0
    8.5538  -12.8790   17.8923 N   0  0  0  0  0  0  0  0  0  0  0  0
    8.8330  -13.9184   20.0510 C   0  0  0  0  0  0  0  0  0  0  0  0
    8.2819  -12.9864   20.6918 O   0  0  0  0  0  0  0  0  0  0  0  0
    6.2945  -16.3194   20.9218 C   0  0  0  0  0  0  0  0  0  0  0  0
    7.3942  -16.6305   21.9036 C   0  0  1  0  0  0  0  0  0  0  0  0
    8.0836  -17.7468   21.4163 O   0  0  0  0  0  0  0  0  0  0  0  0
    8.3240  -15.4286   21.9897 C   0  0  2  0  0  0  0  0  0  0  0  0
    8.8423  -15.1992   20.6649 N   0  0  0  0  0  0  0  0  0  0  0  0
    9.3557  -15.5840   23.0148 C   0  0  0  0  0  0  0  0  0  0  0  0
   10.5686  -15.7888   22.6657 O   0  0  0  0  0  0  0  0  0  0  0  0
    8.9089  -13.4075   28.7817 N   0  0  0  0  0  0  0  0  0  0  0  0
    9.9797  -14.2903   29.0197 C   0  0  0  0  0  0  0  0  0  0  0  0
   10.4809  -14.4154   30.1670 O   0  0  0  0  0  0  0  0  0  0  0  0
   10.5157  -15.0884   27.8582 C   0  0  0  0  0  0  0  0  0  0  0  0
    9.6126  -14.9664   26.6813 C   0  0  0  0  0  0  0  0  0  0  0  0
   10.0320  -15.7201   25.4575 C   0  0  2  0  0  0  0  0  0  0  0  0
    9.0575  -15.5152   24.3997 N   0  0  0  0  0  0  0  0  0  0  0  0
   10.3466  -17.1294   25.6766 C   0  0  0  0  0  0  0  0  0  0  0  0
   11.4545  -17.5503   26.1122 O   0  0  0  0  0  0  0  0  0  0  0  0
    9.4125  -18.1179   25.4108 O   0  0  0  0  0  0  0  0  0  0  0  0
  2  1  1  0
  3  4  1  6
  3  5  1  0
  3  2  1  0
  5  6  2  0
  8  7  1  6
  8  9  1  0
  8 10  1  0
 10 12  1  0
 11  5  1  0
 10 11  1  6
 12 13  2  0
 12 20  1  0
 15 14  1  0
 15 16  2  0
 17 18  1  0
 17 15  1  0
 19 18  1  1
 20 19  1  0
 21 19  1  0
 21 23  1  0
 22 21  2  0
M  END
$$$$
