STQ.pdb
     RDKit          3D

 23 22  0  0  1  0  0  0  0  0999 V2000
   13.6564  -17.0683   19.5687 O   0  0  0  0  0  0  0  0  0  0  0  0
   13.1719  -16.5186   18.3975 C   0  0  0  0  0  0  0  0  0  0  0  0
   13.0563  -15.0134   18.4533 C   0  0  2  0  0  0  0  0  0  0  0  0
   14.4095  -14.4485   18.5633 N   0  0  0  0  0  0  0  0  0  0  0  0
   12.2207  -14.5286   19.5737 C   0  0  0  0  0  0  0  0  0  0  0  0
   12.7221  -14.0807   20.6372 O   0  0  0  0  0  0  0  0  0  0  0  0
    7.6912  -13.3343   21.0645 C   0  0  0  0  0  0  0  0  0  0  0  0
    8.5373  -14.0708   20.0587 C   0  0  1  0  0  0  0  0  0  0  0  0
    8.5159  -13.3274   18.8730 O   0  0  0  0  0  0  0  0  0  0  0  0
    9.9574  -14.1701   20.5972 C   0  0  2  0  0  0  0  0  0  0  0  0
   10.8027  -14.5488   19.4935 N   0  0  0  0  0  0  0  0  0  0  0  0
   10.0615  -15.0537   21.7582 C   0  0  0  0  0  0  0  0  0  0  0  0
   10.4601  -16.2586   21.6025 O   0  0  0  0  0  0  0  0  0  0  0  0
    9.5150  -14.8633   29.2325 N   0  0  0  0  0  0  0  0  0  0  0  0
    9.3874  -14.3784   27.9168 C   0  0  0  0  0  0  0  0  0  0  0  0
    9.0314  -13.1933   27.6887 O   0  0  0  0  0  0  0  0  0  0  0  0
    9.6897  -15.3202   26.7788 C   0  0  0  0  0  0  0  0  0  0  0  0
    9.5652  -14.6166   25.4731 C   0  0  0  0  0  0  0  0  0  0  0  0
    9.8548  -15.4421   24.2580 C   0  0  2  0  0  0  0  0  0  0  0  0
    9.7325  -14.6186   23.0675 N   0  0  0  0  0  0  0  0  0  0  0  0
    9.1038  -16.6914   24.1658 C   0  0  0  0  0  0  0  0  0  0  0  0
    9.4647  -17.7779   24.6984 O   0  0  0  0  0  0  0  0  0  0  0  0
    7.9100  -16.7553   23.4650 O   0  0  0  0  0  0  0  0  0  0  0  0
  2  1  1  0
  3  4  1  1
  3  5  1  0
  3  2  1  0
  5  6  2  0
  8  7  1  1
  8  9  1  0
  8 10  1  0
 10 12  1  0
 11  5  1  0
 10 11  1  6
 12 13  2  0
 12 20  1  0
 15 14  1  0
 15 16  2  0
 17 18  1  0
 17 15  1  0
 19 18  1  1
 20 19  1  0
 21 19  1  0
 21 23  1  0
 22 21  2  0
M  END
$$$$
