STQ.pdb
     RDKit          3D

 23 22  0  0  1  0  0  0  0  0999 V2000
    8.0606  -17.6309   14.0688 O   0  0  0  0  0  0  0  0  0  0  0  0
    8.8238  -17.0166   15.0428 C   0  0  0  0  0  0  0  0  0  0  0  0
    8.4292  -15.5787   15.2851 C   0  0  2  0  0  0  0  0  0  0  0  0
    8.6592  -14.8201   14.0467 N   0  0  0  0  0  0  0  0  0  0  0  0
    9.1657  -14.9465   16.4016 C   0  0  0  0  0  0  0  0  0  0  0  0
   10.3177  -14.4627   16.2541 O   0  0  0  0  0  0  0  0  0  0  0  0
    7.3469  -12.8162   19.1240 C   0  0  0  0  0  0  0  0  0  0  0  0
    8.2461  -13.8106   19.8114 C   0  0  1  0  0  0  0  0  0  0  0  0
    7.4450  -14.8830   20.2202 O   0  0  0  0  0  0  0  0  0  0  0  0
    9.2984  -14.2827   18.8182 C   0  0  2  0  0  0  0  0  0  0  0  0
    8.5959  -14.8585   17.6997 N   0  0  0  0  0  0  0  0  0  0  0  0
   10.2878  -15.1738   19.4235 C   0  0  0  0  0  0  0  0  0  0  0  0
   10.2653  -16.4227   19.1504 O   0  0  0  0  0  0  0  0  0  0  0  0
   16.0773  -13.9084   20.1710 N   0  0  0  0  0  0  0  0  0  0  0  0
   16.0794  -14.9550   21.1130 C   0  0  0  0  0  0  0  0  0  0  0  0
   17.1394  -15.3155   21.6870 O   0  0  0  0  0  0  0  0  0  0  0  0
   14.7710  -15.6387   21.4199 C   0  0  0  0  0  0  0  0  0  0  0  0
   13.6425  -14.9215   20.7662 C   0  0  0  0  0  0  0  0  0  0  0  0
   12.2898  -15.5394   20.9404 C   0  0  2  0  0  0  0  0  0  0  0  0
   11.2844  -14.6985   20.3138 N   0  0  0  0  0  0  0  0  0  0  0  0
   11.9499  -15.9071   22.3124 C   0  0  0  0  0  0  0  0  0  0  0  0
   12.5508  -16.7952   22.9792 O   0  0  0  0  0  0  0  0  0  0  0  0
   10.9132  -15.2779   22.9830 O   0  0  0  0  0  0  0  0  0  0  0  0
  2  1  1  0
  3  4  1  6
  3  5  1  0
  3  2  1  0
  5  6  2  0
  8  7  1  6
  8  9  1  0
  8 10  1  0
 10 12  1  0
 11  5  1  0
 10 11  1  6
 12 13  2  0
 12 20  1  0
 15 14  1  0
 15 16  2  0
 17 18  1  0
 17 15  1  0
 19 18  1  1
 20 19  1  0
 21 19  1  0
 21 23  1  0
 22 21  2  0
M  END
$$$$
