HPS.pdb
     RDKit          3D

 24 25  0  0  1  0  0  0  0  0999 V2000
   16.9797  -16.8921    3.8047 N   0  0  0  0  0  0  0  0  0  0  0  0
   17.0420  -15.6820    4.5214 C   0  0  1  0  0  0  0  0  0  0  0  0
   16.0235  -15.7911    5.6586 C   0  0  0  0  0  0  0  0  0  0  0  0
   14.6474  -15.9058    5.1053 C   0  0  0  0  0  0  0  0  0  0  0  0
   14.0298  -17.0311    4.5941 C   0  0  0  0  0  0  0  0  0  0  0  0
   12.7772  -16.7185    4.1926 N   0  0  0  0  0  0  0  0  0  0  0  0
   12.5985  -15.4218    4.4418 C   0  0  0  0  0  0  0  0  0  0  0  0
   13.7189  -14.9267    4.9906 N   0  0  0  0  0  0  0  0  0  0  0  0
   18.3551  -15.3005    5.0859 C   0  0  0  0  0  0  0  0  0  0  0  0
   19.2620  -16.2343    5.0241 O   0  0  0  0  0  0  0  0  0  0  0  0
   18.6849  -14.0646    5.6582 N   0  0  0  0  0  0  0  0  0  0  0  0
   17.8877  -12.9163    5.9173 C   0  0  0  0  0  0  0  0  0  0  0  0
   18.7807  -11.8131    5.3277 C   0  0  0  0  0  0  0  0  0  0  0  0
   20.1564  -12.2821    5.6441 C   0  0  0  0  0  0  0  0  0  0  0  0
   20.0098  -13.7049    6.1266 C   0  0  1  0  0  0  0  0  0  0  0  0
   20.1144  -13.7926    7.6052 C   0  0  0  0  0  0  0  0  0  0  0  0
   19.1213  -13.4502    8.2946 O   0  0  0  0  0  0  0  0  0  0  0  0
   20.9828  -16.7761    9.4912 O   0  0  0  0  0  0  0  0  0  0  0  0
   21.9412  -15.8467    9.8982 C   0  0  0  0  0  0  0  0  0  0  0  0
   21.3444  -14.4463    9.7129 C   0  0  2  0  0  0  0  0  0  0  0  0
   21.2630  -14.2376    8.2801 N   0  0  0  0  0  0  0  0  0  0  0  0
   22.2416  -13.4195   10.3020 C   0  0  0  0  0  0  0  0  0  0  0  0
   22.4124  -13.3036   11.5389 O   0  0  0  0  0  0  0  0  0  0  0  0
   22.9323  -12.5391    9.4844 O   0  0  0  0  0  0  0  0  0  0  0  0
  2  1  1  1
  3  2  1  0
  4  3  1  0
  4  5  2  0
  6  5  1  0
  7  6  1  0
  8  7  2  0
  8  4  1  0
  9  2  1  0
 10  9  2  0
 11 15  1  0
 11  9  1  0
 12 11  1  0
 13 12  1  0
 13 14  1  0
 14 15  1  0
 16 17  2  0
 15 16  1  1
 18 19  1  0
 20 19  1  6
 20 22  1  0
 20 21  1  0
 21 16  1  0
 22 24  1  0
 23 22  2  0
M  END
$$$$
