HPS.pdb
     RDKit          3D

 24 25  0  0  1  0  0  0  0  0999 V2000
   21.7521  -11.4961  -19.3094 N   0  0  0  0  0  0  0  0  0  0  0  0
   22.5219  -10.9127  -18.2852 C   0  0  1  0  0  0  0  0  0  0  0  0
   23.7123  -10.2306  -18.9635 C   0  0  0  0  0  0  0  0  0  0  0  0
   24.5268  -11.2341  -19.7001 C   0  0  0  0  0  0  0  0  0  0  0  0
   24.8115  -12.5338  -19.3278 C   0  0  0  0  0  0  0  0  0  0  0  0
   25.5843  -13.1173  -20.2713 N   0  0  0  0  0  0  0  0  0  0  0  0
   25.7889  -12.2101  -21.2256 C   0  0  0  0  0  0  0  0  0  0  0  0
   25.1560  -11.0754  -20.8888 N   0  0  0  0  0  0  0  0  0  0  0  0
   21.8434   -9.9351  -17.4064 C   0  0  0  0  0  0  0  0  0  0  0  0
   20.8091   -9.3520  -17.9436 O   0  0  0  0  0  0  0  0  0  0  0  0
   22.2118   -9.6015  -16.0962 N   0  0  0  0  0  0  0  0  0  0  0  0
   23.3532   -9.9628  -15.3294 C   0  0  0  0  0  0  0  0  0  0  0  0
   22.6844  -10.4096  -14.0197 C   0  0  0  0  0  0  0  0  0  0  0  0
   21.5314   -9.4788  -13.8905 C   0  0  0  0  0  0  0  0  0  0  0  0
   21.4283   -8.7586  -15.2131 C   0  0  1  0  0  0  0  0  0  0  0  0
   21.9818   -7.3832  -15.1294 C   0  0  0  0  0  0  0  0  0  0  0  0
   23.2303   -7.2425  -15.1202 O   0  0  0  0  0  0  0  0  0  0  0  0
   19.4873   -4.3921  -15.8708 O   0  0  0  0  0  0  0  0  0  0  0  0
   20.8219   -4.1806  -16.2202 C   0  0  0  0  0  0  0  0  0  0  0  0
   21.6971   -4.8732  -15.1686 C   0  0  2  0  0  0  0  0  0  0  0  0
   21.1878   -6.2266  -15.0597 N   0  0  0  0  0  0  0  0  0  0  0  0
   21.5596   -4.1963  -13.8537 C   0  0  0  0  0  0  0  0  0  0  0  0
   21.0301   -4.7517  -12.8619 O   0  0  0  0  0  0  0  0  0  0  0  0
   22.0225   -2.9017  -13.6794 O   0  0  0  0  0  0  0  0  0  0  0  0
  2  1  1  6
  3  2  1  0
  4  3  1  0
  4  5  2  0
  6  5  1  0
  7  6  1  0
  8  7  2  0
  8  4  1  0
  9  2  1  0
 10  9  2  0
 11 15  1  0
 11  9  1  0
 12 11  1  0
 13 12  1  0
 13 14  1  0
 14 15  1  0
 16 17  2  0
 15 16  1  1
 18 19  1  0
 20 19  1  6
 20 22  1  0
 20 21  1  0
 21 16  1  0
 22 24  1  0
 23 22  2  0
M  END
$$$$
