HPS.pdb
     RDKit          3D

 24 25  0  0  1  0  0  0  0  0999 V2000
   14.5644  -22.5906    3.6571 N   0  0  0  0  0  0  0  0  0  0  0  0
   15.9177  -22.2492    3.4732 C   0  0  1  0  0  0  0  0  0  0  0  0
   15.9408  -21.0096    2.5759 C   0  0  0  0  0  0  0  0  0  0  0  0
   15.3330  -21.3217    1.2545 C   0  0  0  0  0  0  0  0  0  0  0  0
   15.9215  -21.9599    0.1796 C   0  0  0  0  0  0  0  0  0  0  0  0
   15.0337  -22.0505   -0.8361 N   0  0  0  0  0  0  0  0  0  0  0  0
   13.9027  -21.4826   -0.4191 C   0  0  0  0  0  0  0  0  0  0  0  0
   14.0754  -21.0422    0.8370 N   0  0  0  0  0  0  0  0  0  0  0  0
   16.7151  -21.9782    4.6894 C   0  0  0  0  0  0  0  0  0  0  0  0
   16.0388  -21.4577    5.6744 O   0  0  0  0  0  0  0  0  0  0  0  0
   18.0839  -22.2272    4.8569 N   0  0  0  0  0  0  0  0  0  0  0  0
   19.0565  -22.7297    3.9498 C   0  0  0  0  0  0  0  0  0  0  0  0
   19.7182  -23.8133    4.8160 C   0  0  0  0  0  0  0  0  0  0  0  0
   19.6999  -23.2187    6.1793 C   0  0  0  0  0  0  0  0  0  0  0  0
   18.8145  -21.9994    6.0891 C   0  0  1  0  0  0  0  0  0  0  0  0
   19.6131  -20.7487    6.0332 C   0  0  0  0  0  0  0  0  0  0  0  0
   20.2495  -20.4942    4.9802 O   0  0  0  0  0  0  0  0  0  0  0  0
   18.6530  -17.6982    8.3448 O   0  0  0  0  0  0  0  0  0  0  0  0
   19.3582  -17.4756    7.1612 C   0  0  0  0  0  0  0  0  0  0  0  0
   20.4205  -18.5743    7.0347 C   0  0  2  0  0  0  0  0  0  0  0  0
   19.6985  -19.8307    7.0929 N   0  0  0  0  0  0  0  0  0  0  0  0
   21.3713  -18.5084    8.1739 C   0  0  0  0  0  0  0  0  0  0  0  0
   21.3792  -19.3592    9.0951 O   0  0  0  0  0  0  0  0  0  0  0  0
   22.2989  -17.4820    8.2549 O   0  0  0  0  0  0  0  0  0  0  0  0
  2  1  1  1
  3  2  1  0
  4  3  1  0
  4  5  2  0
  6  5  1  0
  7  6  1  0
  8  7  2  0
  8  4  1  0
  9  2  1  0
 10  9  2  0
 11 15  1  0
 11  9  1  0
 12 11  1  0
 13 12  1  0
 13 14  1  0
 14 15  1  0
 16 17  2  0
 15 16  1  6
 18 19  1  0
 20 19  1  1
 20 22  1  0
 20 21  1  0
 21 16  1  0
 22 24  1  0
 23 22  2  0
M  END
$$$$
