HPS.pdb
     RDKit          3D

 24 25  0  0  1  0  0  0  0  0999 V2000
   17.8411  -28.4864  -10.2931 N   0  0  0  0  0  0  0  0  0  0  0  0
   19.1722  -28.5341  -10.7490 C   0  0  1  0  0  0  0  0  0  0  0  0
   19.8993  -27.3493  -10.1088 C   0  0  0  0  0  0  0  0  0  0  0  0
   19.3082  -26.0687  -10.5816 C   0  0  0  0  0  0  0  0  0  0  0  0
   18.5611  -25.1604   -9.8564 C   0  0  0  0  0  0  0  0  0  0  0  0
   18.2102  -24.1243  -10.6508 N   0  0  0  0  0  0  0  0  0  0  0  0
   18.7219  -24.3652  -11.8573 C   0  0  0  0  0  0  0  0  0  0  0  0
   19.3834  -25.5326  -11.8231 N   0  0  0  0  0  0  0  0  0  0  0  0
   19.9341  -29.7720  -10.4745 C   0  0  0  0  0  0  0  0  0  0  0  0
   19.4706  -30.4842   -9.4863 O   0  0  0  0  0  0  0  0  0  0  0  0
   21.0682  -30.2190  -11.1656 N   0  0  0  0  0  0  0  0  0  0  0  0
   21.8443  -29.5973  -12.1817 C   0  0  0  0  0  0  0  0  0  0  0  0
   21.9339  -30.7385  -13.2073 C   0  0  0  0  0  0  0  0  0  0  0  0
   22.0212  -31.9556  -12.3568 C   0  0  0  0  0  0  0  0  0  0  0  0
   21.7060  -31.5040  -10.9513 C   0  0  1  0  0  0  0  0  0  0  0  0
   22.9369  -31.3784  -10.1302 C   0  0  0  0  0  0  0  0  0  0  0  0
   23.6875  -30.3903  -10.3282 O   0  0  0  0  0  0  0  0  0  0  0  0
   23.2809  -33.0231   -6.3962 O   0  0  0  0  0  0  0  0  0  0  0  0
   23.8656  -31.8484   -6.8715 C   0  0  0  0  0  0  0  0  0  0  0  0
   24.4507  -32.1437   -8.2579 C   0  0  2  0  0  0  0  0  0  0  0  0
   23.3121  -32.3031   -9.1417 N   0  0  0  0  0  0  0  0  0  0  0  0
   25.2262  -33.4102   -8.2332 C   0  0  0  0  0  0  0  0  0  0  0  0
   24.8008  -34.4710   -8.7492 O   0  0  0  0  0  0  0  0  0  0  0  0
   26.4708  -33.4590   -7.6256 O   0  0  0  0  0  0  0  0  0  0  0  0
  2  1  1  1
  3  2  1  0
  4  3  1  0
  4  5  2  0
  6  5  1  0
  7  6  1  0
  8  7  2  0
  8  4  1  0
  9  2  1  0
 10  9  2  0
 11 15  1  0
 11  9  1  0
 12 11  1  0
 13 12  1  0
 13 14  1  0
 14 15  1  0
 16 17  2  0
 15 16  1  1
 18 19  1  0
 20 19  1  1
 20 22  1  0
 20 21  1  0
 21 16  1  0
 22 24  1  0
 23 22  2  0
M  END
$$$$
