HPS.pdb
     RDKit          3D

 24 25  0  0  1  0  0  0  0  0999 V2000
   18.4703  -12.7307  -16.4583 N   0  0  0  0  0  0  0  0  0  0  0  0
   19.3967  -11.7487  -16.8574 C   0  0  1  0  0  0  0  0  0  0  0  0
   18.7060  -10.9019  -17.9290 C   0  0  0  0  0  0  0  0  0  0  0  0
   18.4562  -11.7194  -19.1464 C   0  0  0  0  0  0  0  0  0  0  0  0
   19.2289  -11.7970  -20.2892 C   0  0  0  0  0  0  0  0  0  0  0  0
   18.6579  -12.6535  -21.1658 N   0  0  0  0  0  0  0  0  0  0  0  0
   17.5448  -13.1130  -20.5955 C   0  0  0  0  0  0  0  0  0  0  0  0
   17.4172  -12.5556  -19.3811 N   0  0  0  0  0  0  0  0  0  0  0  0
   19.9261  -10.8547  -15.8044 C   0  0  0  0  0  0  0  0  0  0  0  0
   19.0794  -10.5799  -14.8526 O   0  0  0  0  0  0  0  0  0  0  0  0
   21.2135  -10.3036  -15.7537 N   0  0  0  0  0  0  0  0  0  0  0  0
   22.3075  -10.4091  -16.6555 C   0  0  0  0  0  0  0  0  0  0  0  0
   23.4443  -10.7579  -15.6816 C   0  0  0  0  0  0  0  0  0  0  0  0
   23.1035   -9.9737  -14.4645 C   0  0  0  0  0  0  0  0  0  0  0  0
   21.7019   -9.4570  -14.6818 C   0  0  1  0  0  0  0  0  0  0  0  0
   21.7033   -8.0234  -15.0687 C   0  0  0  0  0  0  0  0  0  0  0  0
   22.0426   -7.7223  -16.2404 O   0  0  0  0  0  0  0  0  0  0  0  0
   19.6191   -3.8304  -14.4332 O   0  0  0  0  0  0  0  0  0  0  0  0
   19.8462   -5.1416  -14.0123 C   0  0  0  0  0  0  0  0  0  0  0  0
   21.1896   -5.5953  -14.5962 C   0  0  2  0  0  0  0  0  0  0  0  0
   21.3460   -6.9809  -14.1978 N   0  0  0  0  0  0  0  0  0  0  0  0
   22.3008   -4.7965  -14.0190 C   0  0  0  0  0  0  0  0  0  0  0  0
   22.8471   -5.0908  -12.9292 O   0  0  0  0  0  0  0  0  0  0  0  0
   22.7782   -3.6771  -14.6820 O   0  0  0  0  0  0  0  0  0  0  0  0
  2  1  1  1
  3  2  1  0
  4  3  1  0
  4  5  2  0
  6  5  1  0
  7  6  1  0
  8  7  2  0
  8  4  1  0
  9  2  1  0
 10  9  2  0
 11 15  1  0
 11  9  1  0
 12 11  1  0
 13 12  1  0
 13 14  1  0
 14 15  1  0
 16 17  2  0
 15 16  1  6
 18 19  1  0
 20 19  1  1
 20 22  1  0
 20 21  1  0
 21 16  1  0
 22 24  1  0
 23 22  2  0
M  END
$$$$
