KMC.pdb
     RDKit          3D

 24 23  0  0  1  0  0  0  0  0999 V2000
    7.6827  -16.6993   20.6516 N   0  0  0  0  0  0  0  0  0  0  0  0
    8.8914  -15.9133   20.6114 C   0  0  1  0  0  0  0  0  0  0  0  0
    8.8773  -14.7628   19.6718 C   0  0  0  0  0  0  0  0  0  0  0  0
    8.6009  -15.0470   18.2457 C   0  0  0  0  0  0  0  0  0  0  0  0
    8.6562  -13.8857   17.3165 C   0  0  0  0  0  0  0  0  0  0  0  0
    8.4306  -14.3591   15.8699 C   0  0  0  0  0  0  0  0  0  0  0  0
    8.4191  -13.1843   15.0185 N   0  0  0  0  0  0  0  0  0  0  0  0
    9.1458  -15.3862   21.9723 C   0  0  0  0  0  0  0  0  0  0  0  0
   10.2145  -14.7744   22.2112 O   0  0  0  0  0  0  0  0  0  0  0  0
    6.3411  -10.9316   26.6718 C   0  0  0  0  0  0  0  0  0  0  0  0
    6.1005  -12.7035   26.8363 S   0  0  0  0  0  0  0  0  0  0  0  0
    7.4937  -13.6653   26.2155 C   0  0  0  0  0  0  0  0  0  0  0  0
    7.1709  -14.4160   24.9410 C   0  0  0  0  0  0  0  0  0  0  0  0
    8.4467  -14.9102   24.3258 C   0  0  2  0  0  0  0  0  0  0  0  0
    8.2345  -15.5356   23.0412 N   0  0  0  0  0  0  0  0  0  0  0  0
    9.2271  -15.8002   25.1795 C   0  0  0  0  0  0  0  0  0  0  0  0
    8.9344  -17.0228   25.2092 O   0  0  0  0  0  0  0  0  0  0  0  0
   10.3143  -15.3728   25.9937 N   0  0  0  0  0  0  0  0  0  0  0  0
   11.0087  -16.3312   26.7967 C   0  0  1  0  0  0  0  0  0  0  0  0
   12.0662  -15.6214   27.6128 C   0  0  0  0  0  0  0  0  0  0  0  0
   12.9475  -16.7693   28.7052 S   0  0  0  0  0  0  0  0  0  0  0  0
   10.0899  -17.1177   27.6655 C   0  0  0  0  0  0  0  0  0  0  0  0
   10.1686  -18.3585   27.6884 O   0  0  0  0  0  0  0  0  0  0  0  0
    9.1665  -16.4162   28.4275 O   0  0  0  0  0  0  0  0  0  0  0  0
  2  1  1  1
  2  8  1  0
  2  3  1  0
  4  3  1  0
  4  5  1  0
  5  6  1  0
  6  7  1  0
  8  9  2  0
 10 11  1  0
 11 12  1  0
 13 12  1  0
 14 13  1  1
 15 14  1  0
 15  8  1  0
 16 14  1  0
 17 16  2  0
 18 16  1  0
 19 18  1  0
 19 22  1  0
 19 20  1  1
 21 20  1  0
 22 24  1  0
 23 22  2  0
M  END
$$$$
