KMC.pdb
     RDKit          3D

 24 23  0  0  1  0  0  0  0  0999 V2000
    8.6701  -19.7940   22.2422 N   0  0  0  0  0  0  0  0  0  0  0  0
    8.6093  -19.1907   20.9335 C   0  0  1  0  0  0  0  0  0  0  0  0
    7.3716  -19.4631   20.1586 C   0  0  0  0  0  0  0  0  0  0  0  0
    6.1501  -19.8100   20.9192 C   0  0  0  0  0  0  0  0  0  0  0  0
    5.7425  -21.2413   20.9004 C   0  0  0  0  0  0  0  0  0  0  0  0
    4.4522  -21.4309   21.7169 C   0  0  0  0  0  0  0  0  0  0  0  0
    4.2359  -22.8570   21.8743 N   0  0  0  0  0  0  0  0  0  0  0  0
    8.7315  -17.7231   21.0948 C   0  0  0  0  0  0  0  0  0  0  0  0
    9.0181  -17.0115   20.1023 O   0  0  0  0  0  0  0  0  0  0  0  0
    7.5519  -10.7612   20.2107 C   0  0  0  0  0  0  0  0  0  0  0  0
    7.1785  -12.5175   20.1870 S   0  0  0  0  0  0  0  0  0  0  0  0
    8.1088  -13.4533   21.4159 C   0  0  0  0  0  0  0  0  0  0  0  0
    7.7581  -14.9260   21.4253 C   0  0  0  0  0  0  0  0  0  0  0  0
    8.6022  -15.6251   22.4497 C   0  0  2  0  0  0  0  0  0  0  0  0
    8.5395  -17.0631   22.3288 N   0  0  0  0  0  0  0  0  0  0  0  0
    8.3262  -15.2383   23.8296 C   0  0  0  0  0  0  0  0  0  0  0  0
    7.3354  -15.7454   24.4149 O   0  0  0  0  0  0  0  0  0  0  0  0
    9.1140  -14.3120   24.5704 N   0  0  0  0  0  0  0  0  0  0  0  0
    8.5765  -13.7276   25.7600 C   0  0  1  0  0  0  0  0  0  0  0  0
    7.1758  -13.2302   25.4792 C   0  0  0  0  0  0  0  0  0  0  0  0
    6.4098  -12.5221   26.9622 S   0  0  0  0  0  0  0  0  0  0  0  0
    8.5972  -14.6676   26.9148 C   0  0  0  0  0  0  0  0  0  0  0  0
    8.2984  -15.8630   26.7469 O   0  0  0  0  0  0  0  0  0  0  0  0
    8.9565  -14.1571   28.1540 O   0  0  0  0  0  0  0  0  0  0  0  0
  2  1  1  1
  2  8  1  0
  2  3  1  0
  4  3  1  0
  4  5  1  0
  5  6  1  0
  6  7  1  0
  8  9  2  0
 10 11  1  0
 11 12  1  0
 13 12  1  0
 14 13  1  6
 15 14  1  0
 15  8  1  0
 16 14  1  0
 17 16  2  0
 18 16  1  0
 19 18  1  0
 19 22  1  0
 19 20  1  6
 21 20  1  0
 22 24  1  0
 23 22  2  0
M  END
$$$$
