KMC.pdb
     RDKit          3D

 24 23  0  0  1  0  0  0  0  0999 V2000
    6.9351  -17.8361   23.1824 N   0  0  0  0  0  0  0  0  0  0  0  0
    6.6973  -17.0468   21.9989 C   0  0  1  0  0  0  0  0  0  0  0  0
    5.3152  -17.1032   21.4573 C   0  0  0  0  0  0  0  0  0  0  0  0
    4.5352  -18.3378   21.6988 C   0  0  0  0  0  0  0  0  0  0  0  0
    3.4220  -18.6137   20.7502 C   0  0  0  0  0  0  0  0  0  0  0  0
    2.7400  -19.9444   21.1134 C   0  0  0  0  0  0  0  0  0  0  0  0
    1.6917  -20.1825   20.1389 N   0  0  0  0  0  0  0  0  0  0  0  0
    7.0041  -15.6327   22.3167 C   0  0  0  0  0  0  0  0  0  0  0  0
    6.1186  -14.7569   22.1674 O   0  0  0  0  0  0  0  0  0  0  0  0
    6.1752  -10.7325   26.3701 C   0  0  0  0  0  0  0  0  0  0  0  0
    5.9739  -12.5055   26.5718 S   0  0  0  0  0  0  0  0  0  0  0  0
    7.3996  -13.4474   25.9960 C   0  0  0  0  0  0  0  0  0  0  0  0
    7.1273  -14.2048   24.7137 C   0  0  0  0  0  0  0  0  0  0  0  0
    8.4332  -14.6021   24.0914 C   0  0  2  0  0  0  0  0  0  0  0  0
    8.2642  -15.2031   22.7889 N   0  0  0  0  0  0  0  0  0  0  0  0
    9.2642  -15.4659   24.9240 C   0  0  0  0  0  0  0  0  0  0  0  0
    9.2676  -15.2873   26.1688 O   0  0  0  0  0  0  0  0  0  0  0  0
   10.0838  -16.5136   24.4159 N   0  0  0  0  0  0  0  0  0  0  0  0
   10.7920  -17.3561   25.3293 C   0  0  1  0  0  0  0  0  0  0  0  0
    9.8002  -18.0402   26.2439 C   0  0  0  0  0  0  0  0  0  0  0  0
   10.4485  -18.2009   27.9296 S   0  0  0  0  0  0  0  0  0  0  0  0
   11.6606  -18.3456   24.6336 C   0  0  0  0  0  0  0  0  0  0  0  0
   12.4902  -19.0069   25.2824 O   0  0  0  0  0  0  0  0  0  0  0  0
   11.5027  -18.4891   23.2625 O   0  0  0  0  0  0  0  0  0  0  0  0
  2  1  1  1
  2  8  1  0
  2  3  1  0
  4  3  1  0
  4  5  1  0
  5  6  1  0
  6  7  1  0
  8  9  2  0
 10 11  1  0
 11 12  1  0
 13 12  1  0
 14 13  1  1
 15 14  1  0
 15  8  1  0
 16 14  1  0
 17 16  2  0
 18 16  1  0
 19 18  1  0
 19 22  1  0
 19 20  1  6
 21 20  1  0
 22 24  1  0
 23 22  2  0
M  END
$$$$
