KMC.pdb
     RDKit          3D

 24 23  0  0  1  0  0  0  0  0999 V2000
    9.1855  -15.9762   19.6417 N   0  0  0  0  0  0  0  0  0  0  0  0
    8.0762  -15.9809   20.5635 C   0  0  1  0  0  0  0  0  0  0  0  0
    7.3869  -17.2861   20.7309 C   0  0  0  0  0  0  0  0  0  0  0  0
    7.8994  -18.4358   19.9521 C   0  0  0  0  0  0  0  0  0  0  0  0
    7.1652  -19.7210   20.1081 C   0  0  0  0  0  0  0  0  0  0  0  0
    7.7060  -20.7594   19.1096 C   0  0  0  0  0  0  0  0  0  0  0  0
    7.0855  -22.0338   19.4199 N   0  0  0  0  0  0  0  0  0  0  0  0
    8.5770  -15.5571   21.8918 C   0  0  0  0  0  0  0  0  0  0  0  0
    9.7551  -15.8283   22.2263 O   0  0  0  0  0  0  0  0  0  0  0  0
    5.3097  -12.0138   26.8530 C   0  0  0  0  0  0  0  0  0  0  0  0
    7.0798  -11.7252   26.9436 S   0  0  0  0  0  0  0  0  0  0  0  0
    8.0442  -12.9777   26.0761 C   0  0  0  0  0  0  0  0  0  0  0  0
    7.4323  -13.3802   24.7511 C   0  0  0  0  0  0  0  0  0  0  0  0
    8.3127  -14.4017   24.0940 C   0  0  2  0  0  0  0  0  0  0  0  0
    7.7874  -14.8493   22.8251 N   0  0  0  0  0  0  0  0  0  0  0  0
    8.6275  -15.5576   24.9275 C   0  0  0  0  0  0  0  0  0  0  0  0
    7.8214  -16.5223   24.9558 O   0  0  0  0  0  0  0  0  0  0  0  0
    9.8031  -15.6700   25.7230 N   0  0  0  0  0  0  0  0  0  0  0  0
   10.0175  -16.8550   26.4946 C   0  0  1  0  0  0  0  0  0  0  0  0
   10.9436  -17.7800   25.7363 C   0  0  0  0  0  0  0  0  0  0  0  0
   11.2883  -19.2934   26.6733 S   0  0  0  0  0  0  0  0  0  0  0  0
   10.5417  -16.5595   27.8568 C   0  0  0  0  0  0  0  0  0  0  0  0
   10.7879  -15.3857   28.1855 O   0  0  0  0  0  0  0  0  0  0  0  0
   10.7366  -17.6301   28.7178 O   0  0  0  0  0  0  0  0  0  0  0  0
  2  1  1  6
  2  8  1  0
  2  3  1  0
  4  3  1  0
  4  5  1  0
  5  6  1  0
  6  7  1  0
  8  9  2  0
 10 11  1  0
 11 12  1  0
 13 12  1  0
 14 13  1  1
 15 14  1  0
 15  8  1  0
 16 14  1  0
 17 16  2  0
 18 16  1  0
 19 18  1  0
 19 22  1  0
 19 20  1  6
 21 20  1  0
 22 24  1  0
 23 22  2  0
M  END
$$$$
