KMC.pdb
     RDKit          3D

 24 23  0  0  1  0  0  0  0  0999 V2000
    7.6712  -15.9123   20.3964 N   0  0  0  0  0  0  0  0  0  0  0  0
    8.5379  -14.7673   20.5318 C   0  0  1  0  0  0  0  0  0  0  0  0
    8.0396  -13.5097   19.9179 C   0  0  0  0  0  0  0  0  0  0  0  0
    7.6325  -13.5566   18.4956 C   0  0  0  0  0  0  0  0  0  0  0  0
    8.5446  -14.2814   17.5695 C   0  0  0  0  0  0  0  0  0  0  0  0
    7.9999  -14.2091   16.1322 C   0  0  0  0  0  0  0  0  0  0  0  0
    8.9147  -14.9419   15.2769 N   0  0  0  0  0  0  0  0  0  0  0  0
    8.7496  -14.5159   21.9763 C   0  0  0  0  0  0  0  0  0  0  0  0
    9.5414  -13.6133   22.3395 O   0  0  0  0  0  0  0  0  0  0  0  0
    6.8140  -11.9865   28.1992 C   0  0  0  0  0  0  0  0  0  0  0  0
    6.6393  -12.6595   26.5436 S   0  0  0  0  0  0  0  0  0  0  0  0
    6.9306  -14.4375   26.4704 C   0  0  0  0  0  0  0  0  0  0  0  0
    6.8234  -14.9955   25.0671 C   0  0  0  0  0  0  0  0  0  0  0  0
    8.1497  -14.8550   24.3803 C   0  0  2  0  0  0  0  0  0  0  0  0
    8.0972  -15.2496   22.9918 N   0  0  0  0  0  0  0  0  0  0  0  0
    9.2521  -15.5447   25.0428 C   0  0  0  0  0  0  0  0  0  0  0  0
    9.6299  -16.6564   24.5926 O   0  0  0  0  0  0  0  0  0  0  0  0
    9.9401  -15.0374   26.1815 N   0  0  0  0  0  0  0  0  0  0  0  0
   10.9877  -15.8123   26.7712 C   0  0  1  0  0  0  0  0  0  0  0  0
   11.7322  -14.9586   27.7737 C   0  0  0  0  0  0  0  0  0  0  0  0
   10.5955  -13.9655   28.7783 S   0  0  0  0  0  0  0  0  0  0  0  0
   10.4844  -17.0675   27.3950 C   0  0  0  0  0  0  0  0  0  0  0  0
   11.2878  -17.8906   27.8675 O   0  0  0  0  0  0  0  0  0  0  0  0
    9.1116  -17.2675   27.4219 O   0  0  0  0  0  0  0  0  0  0  0  0
  2  1  1  1
  2  8  1  0
  2  3  1  0
  4  3  1  0
  4  5  1  0
  5  6  1  0
  6  7  1  0
  8  9  2  0
 10 11  1  0
 11 12  1  0
 13 12  1  0
 14 13  1  1
 15 14  1  0
 15  8  1  0
 16 14  1  0
 17 16  2  0
 18 16  1  0
 19 18  1  0
 19 22  1  0
 19 20  1  1
 21 20  1  0
 22 24  1  0
 23 22  2  0
M  END
$$$$
