KMC.pdb
     RDKit          3D

 24 23  0  0  1  0  0  0  0  0999 V2000
    7.7192  -17.2597   21.1680 N   0  0  0  0  0  0  0  0  0  0  0  0
    9.0558  -16.7288   21.2788 C   0  0  1  0  0  0  0  0  0  0  0  0
    9.4276  -15.7106   20.2630 C   0  0  0  0  0  0  0  0  0  0  0  0
    8.3861  -14.7433   19.8502 C   0  0  0  0  0  0  0  0  0  0  0  0
    8.7927  -13.7197   18.8492 C   0  0  0  0  0  0  0  0  0  0  0  0
    7.5932  -12.8218   18.4990 C   0  0  0  0  0  0  0  0  0  0  0  0
    8.0232  -11.8935   17.4701 N   0  0  0  0  0  0  0  0  0  0  0  0
    9.1980  -16.1096   22.6171 C   0  0  0  0  0  0  0  0  0  0  0  0
   10.3115  -15.6572   22.9764 O   0  0  0  0  0  0  0  0  0  0  0  0
    6.6411  -11.0874   25.9385 C   0  0  0  0  0  0  0  0  0  0  0  0
    6.3902  -12.5168   26.9961 S   0  0  0  0  0  0  0  0  0  0  0  0
    7.4733  -13.8983   26.5839 C   0  0  0  0  0  0  0  0  0  0  0  0
    7.2018  -14.4706   25.2089 C   0  0  0  0  0  0  0  0  0  0  0  0
    8.3009  -15.4262   24.8492 C   0  0  2  0  0  0  0  0  0  0  0  0
    8.1288  -15.9959   23.5331 N   0  0  0  0  0  0  0  0  0  0  0  0
    8.5178  -16.4946   25.8195 C   0  0  0  0  0  0  0  0  0  0  0  0
    7.6479  -17.3954   25.9342 O   0  0  0  0  0  0  0  0  0  0  0  0
    9.6647  -16.5887   26.6581 N   0  0  0  0  0  0  0  0  0  0  0  0
    9.8215  -17.7291   27.5070 C   0  0  1  0  0  0  0  0  0  0  0  0
   10.5809  -18.8030   26.7598 C   0  0  0  0  0  0  0  0  0  0  0  0
   12.1182  -18.1586   26.0463 S   0  0  0  0  0  0  0  0  0  0  0  0
   10.4863  -17.3914   28.7960 C   0  0  0  0  0  0  0  0  0  0  0  0
   10.6869  -18.2805   29.6420 O   0  0  0  0  0  0  0  0  0  0  0  0
   10.8606  -16.0710   29.0008 O   0  0  0  0  0  0  0  0  0  0  0  0
  2  1  1  6
  2  8  1  0
  2  3  1  0
  4  3  1  0
  4  5  1  0
  5  6  1  0
  6  7  1  0
  8  9  2  0
 10 11  1  0
 11 12  1  0
 13 12  1  0
 14 13  1  1
 15 14  1  0
 15  8  1  0
 16 14  1  0
 17 16  2  0
 18 16  1  0
 19 18  1  0
 19 22  1  0
 19 20  1  6
 21 20  1  0
 22 24  1  0
 23 22  2  0
M  END
$$$$
