KMC.pdb
     RDKit          3D

 24 23  0  0  1  0  0  0  0  0999 V2000
    9.1433  -16.4103   19.8366 N   0  0  0  0  0  0  0  0  0  0  0  0
    8.1378  -16.5536   20.8608 C   0  0  1  0  0  0  0  0  0  0  0  0
    7.7197  -17.9476   21.1584 C   0  0  0  0  0  0  0  0  0  0  0  0
    7.2338  -18.7724   20.0295 C   0  0  0  0  0  0  0  0  0  0  0  0
    6.7527  -20.1396   20.3675 C   0  0  0  0  0  0  0  0  0  0  0  0
    6.3927  -20.9029   19.0809 C   0  0  0  0  0  0  0  0  0  0  0  0
    5.9349  -22.2248   19.4662 N   0  0  0  0  0  0  0  0  0  0  0  0
    8.6640  -15.9594   22.1117 C   0  0  0  0  0  0  0  0  0  0  0  0
    9.8990  -15.9680   22.3312 O   0  0  0  0  0  0  0  0  0  0  0  0
    5.2288  -12.3977   26.7753 C   0  0  0  0  0  0  0  0  0  0  0  0
    6.9726  -12.0476   27.0229 S   0  0  0  0  0  0  0  0  0  0  0  0
    8.0539  -13.2042   26.1600 C   0  0  0  0  0  0  0  0  0  0  0  0
    7.4099  -13.8082   24.9302 C   0  0  0  0  0  0  0  0  0  0  0  0
    8.3768  -14.7568   24.2855 C   0  0  2  0  0  0  0  0  0  0  0  0
    7.8376  -15.3702   23.0941 N   0  0  0  0  0  0  0  0  0  0  0  0
    8.8968  -15.7907   25.1747 C   0  0  0  0  0  0  0  0  0  0  0  0
    8.1991  -16.8152   25.3867 O   0  0  0  0  0  0  0  0  0  0  0  0
   10.1595  -15.7180   25.8288 N   0  0  0  0  0  0  0  0  0  0  0  0
   10.6503  -16.8604   26.5356 C   0  0  1  0  0  0  0  0  0  0  0  0
   12.0356  -17.1986   26.0309 C   0  0  0  0  0  0  0  0  0  0  0  0
   13.1997  -15.8380   26.3158 S   0  0  0  0  0  0  0  0  0  0  0  0
   10.6439  -16.6620   28.0115 C   0  0  0  0  0  0  0  0  0  0  0  0
   10.2465  -15.5855   28.4908 O   0  0  0  0  0  0  0  0  0  0  0  0
   11.0913  -17.7095   28.8039 O   0  0  0  0  0  0  0  0  0  0  0  0
  2  1  1  6
  2  8  1  0
  2  3  1  0
  4  3  1  0
  4  5  1  0
  5  6  1  0
  6  7  1  0
  8  9  2  0
 10 11  1  0
 11 12  1  0
 13 12  1  0
 14 13  1  1
 15 14  1  0
 15  8  1  0
 16 14  1  0
 17 16  2  0
 18 16  1  0
 19 18  1  0
 19 22  1  0
 19 20  1  6
 21 20  1  0
 22 24  1  0
 23 22  2  0
M  END
$$$$
