KMC.pdb
     RDKit          3D

 24 23  0  0  1  0  0  0  0  0999 V2000
    8.6340  -14.9198   19.8577 N   0  0  0  0  0  0  0  0  0  0  0  0
    7.7141  -15.4251   20.8470 C   0  0  1  0  0  0  0  0  0  0  0  0
    7.3838  -16.8693   20.7372 C   0  0  0  0  0  0  0  0  0  0  0  0
    7.6193  -17.5282   19.4329 C   0  0  0  0  0  0  0  0  0  0  0  0
    8.5554  -18.6852   19.4352 C   0  0  0  0  0  0  0  0  0  0  0  0
    8.5375  -19.3781   18.0614 C   0  0  0  0  0  0  0  0  0  0  0  0
    9.5191  -20.4463   18.0939 N   0  0  0  0  0  0  0  0  0  0  0  0
    8.3027  -15.1936   22.1867 C   0  0  0  0  0  0  0  0  0  0  0  0
    9.5422  -15.0398   22.3018 O   0  0  0  0  0  0  0  0  0  0  0  0
    6.9350  -11.7015   27.8146 C   0  0  0  0  0  0  0  0  0  0  0  0
    6.1519  -11.6105   26.2012 S   0  0  0  0  0  0  0  0  0  0  0  0
    6.8884  -12.7305   24.9952 C   0  0  0  0  0  0  0  0  0  0  0  0
    7.1647  -14.1074   25.5609 C   0  0  0  0  0  0  0  0  0  0  0  0
    8.1172  -14.8288   24.6538 C   0  0  2  0  0  0  0  0  0  0  0  0
    7.5321  -15.1344   23.3691 N   0  0  0  0  0  0  0  0  0  0  0  0
    8.7008  -16.0383   25.2250 C   0  0  0  0  0  0  0  0  0  0  0  0
    7.9684  -17.0480   25.3846 O   0  0  0  0  0  0  0  0  0  0  0  0
   10.0638  -16.1557   25.6200 N   0  0  0  0  0  0  0  0  0  0  0  0
   10.5381  -17.3994   26.1432 C   0  0  1  0  0  0  0  0  0  0  0  0
   11.9862  -17.5842   25.7471 C   0  0  0  0  0  0  0  0  0  0  0  0
   12.2315  -17.3138   23.9711 S   0  0  0  0  0  0  0  0  0  0  0  0
   10.3619  -17.5001   27.6185 C   0  0  0  0  0  0  0  0  0  0  0  0
    9.8074  -16.5775   28.2412 O   0  0  0  0  0  0  0  0  0  0  0  0
   10.8344  -18.6435   28.2467 O   0  0  0  0  0  0  0  0  0  0  0  0
  2  1  1  6
  2  8  1  0
  2  3  1  0
  4  3  1  0
  4  5  1  0
  5  6  1  0
  6  7  1  0
  8  9  2  0
 10 11  1  0
 11 12  1  0
 13 12  1  0
 14 13  1  1
 15 14  1  0
 15  8  1  0
 16 14  1  0
 17 16  2  0
 18 16  1  0
 19 18  1  0
 19 22  1  0
 19 20  1  1
 21 20  1  0
 22 24  1  0
 23 22  2  0
M  END
$$$$
