KMC.pdb
     RDKit          3D

 24 23  0  0  1  0  0  0  0  0999 V2000
    7.8102  -17.3653   20.6176 N   0  0  0  0  0  0  0  0  0  0  0  0
    7.4561  -17.7780   21.9535 C   0  0  1  0  0  0  0  0  0  0  0  0
    7.8574  -19.1591   22.3255 C   0  0  0  0  0  0  0  0  0  0  0  0
    6.9433  -19.9248   23.2025 C   0  0  0  0  0  0  0  0  0  0  0  0
    5.7126  -20.4664   22.5642 C   0  0  0  0  0  0  0  0  0  0  0  0
    4.8331  -21.1570   23.6211 C   0  0  0  0  0  0  0  0  0  0  0  0
    3.6118  -21.5862   22.9657 N   0  0  0  0  0  0  0  0  0  0  0  0
    8.0954  -16.8451   22.9104 C   0  0  0  0  0  0  0  0  0  0  0  0
    9.2939  -16.5129   22.7468 O   0  0  0  0  0  0  0  0  0  0  0  0
    5.2668  -11.7850   26.0115 C   0  0  0  0  0  0  0  0  0  0  0  0
    6.7017  -12.1068   27.0421 S   0  0  0  0  0  0  0  0  0  0  0  0
    7.7864  -13.3779   26.3645 C   0  0  0  0  0  0  0  0  0  0  0  0
    7.0479  -14.3943   25.5196 C   0  0  0  0  0  0  0  0  0  0  0  0
    8.0411  -15.3339   24.9023 C   0  0  2  0  0  0  0  0  0  0  0  0
    7.4188  -16.2950   24.0217 N   0  0  0  0  0  0  0  0  0  0  0  0
    8.8945  -16.0299   25.8601 C   0  0  0  0  0  0  0  0  0  0  0  0
    8.4450  -17.0485   26.4445 O   0  0  0  0  0  0  0  0  0  0  0  0
   10.2220  -15.6286   26.1832 N   0  0  0  0  0  0  0  0  0  0  0  0
   11.0079  -16.4430   27.0576 C   0  0  1  0  0  0  0  0  0  0  0  0
   12.4535  -16.0047   26.9778 C   0  0  0  0  0  0  0  0  0  0  0  0
   12.6589  -14.2836   27.5096 S   0  0  0  0  0  0  0  0  0  0  0  0
   10.5095  -16.4163   28.4607 C   0  0  0  0  0  0  0  0  0  0  0  0
    9.5994  -15.6317   28.7808 O   0  0  0  0  0  0  0  0  0  0  0  0
   11.0953  -17.2870   29.3686 O   0  0  0  0  0  0  0  0  0  0  0  0
  2  1  1  6
  2  8  1  0
  2  3  1  0
  4  3  1  0
  4  5  1  0
  5  6  1  0
  6  7  1  0
  8  9  2  0
 10 11  1  0
 11 12  1  0
 13 12  1  0
 14 13  1  1
 15 14  1  0
 15  8  1  0
 16 14  1  0
 17 16  2  0
 18 16  1  0
 19 18  1  0
 19 22  1  0
 19 20  1  1
 21 20  1  0
 22 24  1  0
 23 22  2  0
M  END
$$$$
