KMC.pdb
     RDKit          3D

 24 23  0  0  1  0  0  0  0  0999 V2000
    7.9248  -18.1902   22.3334 N   0  0  0  0  0  0  0  0  0  0  0  0
    9.1314  -17.5393   21.8853 C   0  0  1  0  0  0  0  0  0  0  0  0
    9.1658  -17.1726   20.4462 C   0  0  0  0  0  0  0  0  0  0  0  0
    8.4030  -18.0227   19.5047 C   0  0  0  0  0  0  0  0  0  0  0  0
    8.4532  -17.6311   18.0697 C   0  0  0  0  0  0  0  0  0  0  0  0
    7.6213  -18.6140   17.2275 C   0  0  0  0  0  0  0  0  0  0  0  0
    7.7072  -18.1899   15.8425 N   0  0  0  0  0  0  0  0  0  0  0  0
    9.3083  -16.2986   22.6754 C   0  0  0  0  0  0  0  0  0  0  0  0
   10.3201  -15.5817   22.4866 O   0  0  0  0  0  0  0  0  0  0  0  0
    5.0372  -11.3835   25.5607 C   0  0  0  0  0  0  0  0  0  0  0  0
    6.1956  -12.2065   26.6585 S   0  0  0  0  0  0  0  0  0  0  0  0
    7.6326  -12.8728   25.7968 C   0  0  0  0  0  0  0  0  0  0  0  0
    7.3405  -14.1752   25.0824 C   0  0  0  0  0  0  0  0  0  0  0  0
    8.6015  -14.6792   24.4451 C   0  0  2  0  0  0  0  0  0  0  0  0
    8.3831  -15.8658   23.6510 N   0  0  0  0  0  0  0  0  0  0  0  0
    9.7016  -14.9099   25.3760 C   0  0  0  0  0  0  0  0  0  0  0  0
   10.6046  -14.0404   25.4750 O   0  0  0  0  0  0  0  0  0  0  0  0
    9.8245  -16.0698   26.1926 N   0  0  0  0  0  0  0  0  0  0  0  0
   10.5735  -15.9955   27.4088 C   0  0  1  0  0  0  0  0  0  0  0  0
    9.8884  -15.0349   28.3554 C   0  0  0  0  0  0  0  0  0  0  0  0
   10.7744  -14.9069   29.9322 S   0  0  0  0  0  0  0  0  0  0  0  0
   10.7697  -17.3307   28.0384 C   0  0  0  0  0  0  0  0  0  0  0  0
   11.8027  -17.5632   28.6906 O   0  0  0  0  0  0  0  0  0  0  0  0
    9.7696  -18.2770   27.8658 O   0  0  0  0  0  0  0  0  0  0  0  0
  2  1  1  1
  2  8  1  0
  2  3  1  0
  4  3  1  0
  4  5  1  0
  5  6  1  0
  6  7  1  0
  8  9  2  0
 10 11  1  0
 11 12  1  0
 13 12  1  0
 14 13  1  1
 15 14  1  0
 15  8  1  0
 16 14  1  0
 17 16  2  0
 18 16  1  0
 19 18  1  0
 19 22  1  0
 19 20  1  1
 21 20  1  0
 22 24  1  0
 23 22  2  0
M  END
$$$$
