KMC.pdb
     RDKit          3D

 24 23  0  0  1  0  0  0  0  0999 V2000
    8.3511  -12.7067   18.6469 N   0  0  0  0  0  0  0  0  0  0  0  0
    8.0326  -14.0073   19.1830 C   0  0  1  0  0  0  0  0  0  0  0  0
    8.6495  -15.1602   18.4779 C   0  0  0  0  0  0  0  0  0  0  0  0
    8.2696  -15.3812   17.0645 C   0  0  0  0  0  0  0  0  0  0  0  0
    7.5126  -16.6283   16.7697 C   0  0  0  0  0  0  0  0  0  0  0  0
    7.2179  -16.7199   15.2623 C   0  0  0  0  0  0  0  0  0  0  0  0
    6.3005  -17.8256   15.0591 N   0  0  0  0  0  0  0  0  0  0  0  0
    8.4774  -14.0469   20.5956 C   0  0  0  0  0  0  0  0  0  0  0  0
    9.6677  -13.7707   20.8794 O   0  0  0  0  0  0  0  0  0  0  0  0
    6.8266  -12.0444   27.9307 C   0  0  0  0  0  0  0  0  0  0  0  0
    6.2283  -12.3539   26.2661 S   0  0  0  0  0  0  0  0  0  0  0  0
    7.4178  -13.2420   25.2425 C   0  0  0  0  0  0  0  0  0  0  0  0
    6.9524  -13.4142   23.8122 C   0  0  0  0  0  0  0  0  0  0  0  0
    7.9932  -14.1757   23.0457 C   0  0  2  0  0  0  0  0  0  0  0  0
    7.6201  -14.3850   21.6661 N   0  0  0  0  0  0  0  0  0  0  0  0
    8.3786  -15.4488   23.6462 C   0  0  0  0  0  0  0  0  0  0  0  0
    7.6107  -16.4364   23.5189 O   0  0  0  0  0  0  0  0  0  0  0  0
    9.5833  -15.6527   24.3774 N   0  0  0  0  0  0  0  0  0  0  0  0
    9.8983  -16.9618   24.8597 C   0  0  1  0  0  0  0  0  0  0  0  0
   11.2832  -17.3447   24.3868 C   0  0  0  0  0  0  0  0  0  0  0  0
   11.4846  -17.0544   22.6084 S   0  0  0  0  0  0  0  0  0  0  0  0
    9.7826  -17.0654   26.3407 C   0  0  0  0  0  0  0  0  0  0  0  0
    9.4608  -16.0673   27.0090 O   0  0  0  0  0  0  0  0  0  0  0  0
   10.0446  -18.2977   26.9223 O   0  0  0  0  0  0  0  0  0  0  0  0
  2  1  1  6
  2  8  1  0
  2  3  1  0
  4  3  1  0
  4  5  1  0
  5  6  1  0
  6  7  1  0
  8  9  2  0
 10 11  1  0
 11 12  1  0
 13 12  1  0
 14 13  1  1
 15 14  1  0
 15  8  1  0
 16 14  1  0
 17 16  2  0
 18 16  1  0
 19 18  1  0
 19 22  1  0
 19 20  1  1
 21 20  1  0
 22 24  1  0
 23 22  2  0
M  END
$$$$
