FEY.pdb
     RDKit          3D

 33 34  0  0  1  0  0  0  0  0999 V2000
    6.2099  -17.2194   25.2785 N   0  0  0  0  0  0  0  0  0  0  0  0
    6.4927  -16.8587   23.9241 C   0  0  1  0  0  0  0  0  0  0  0  0
    6.0799  -15.4148   23.6282 C   0  0  0  0  0  0  0  0  0  0  0  0
    6.6598  -14.5626   24.6773 C   0  0  0  0  0  0  0  0  0  0  0  0
    6.0830  -14.5295   25.9255 C   0  0  0  0  0  0  0  0  0  0  0  0
    6.6008  -13.7363   26.9491 C   0  0  0  0  0  0  0  0  0  0  0  0
    7.7227  -12.9650   26.6984 C   0  0  0  0  0  0  0  0  0  0  0  0
    8.2952  -13.0001   25.4535 C   0  0  0  0  0  0  0  0  0  0  0  0
    7.7748  -13.7908   24.4419 C   0  0  0  0  0  0  0  0  0  0  0  0
    7.9300  -16.9705   23.5962 C   0  0  0  0  0  0  0  0  0  0  0  0
    8.7076  -17.6557   24.3316 O   0  0  0  0  0  0  0  0  0  0  0  0
    8.5390  -16.3459   22.4751 N   0  0  0  0  0  0  0  0  0  0  0  0
    9.7933  -16.8169   21.8903 C   0  0  1  0  0  0  0  0  0  0  0  0
    9.8255  -16.3037   20.4769 C   0  0  0  0  0  0  0  0  0  0  0  0
    9.0404  -17.1320   19.4977 C   0  0  0  0  0  0  0  0  0  0  0  0
    9.7203  -17.1202   18.1808 C   0  0  0  0  0  0  0  0  0  0  0  0
    9.5045  -16.1909   17.3844 O   0  0  0  0  0  0  0  0  0  0  0  0
   10.9494  -16.2618   22.6353 C   0  0  0  0  0  0  0  0  0  0  0  0
   11.3867  -15.1001   22.4426 O   0  0  0  0  0  0  0  0  0  0  0  0
   10.5866  -18.1315   17.8389 O   0  0  0  0  0  0  0  0  0  0  0  0
   11.0052  -14.1635   30.8820 O   0  0  0  0  0  0  0  0  0  0  0  0
   10.8583  -14.6505   29.5851 C   0  0  0  0  0  0  0  0  0  0  0  0
   10.9302  -16.0057   29.3402 C   0  0  0  0  0  0  0  0  0  0  0  0
   10.7876  -16.5102   28.0641 C   0  0  0  0  0  0  0  0  0  0  0  0
   10.5674  -15.7070   26.9630 C   0  0  0  0  0  0  0  0  0  0  0  0
   10.4228  -16.2209   25.5850 C   0  0  0  0  0  0  0  0  0  0  0  0
   11.7615  -16.4979   25.0016 C   0  0  2  0  0  0  0  0  0  0  0  0
   11.6538  -17.0000   23.6260 N   0  0  0  0  0  0  0  0  0  0  0  0
   12.4620  -17.5272   25.7861 C   0  0  0  0  0  0  0  0  0  0  0  0
   13.5475  -17.3554   26.4043 O   0  0  0  0  0  0  0  0  0  0  0  0
   10.4981  -14.3344   27.2374 C   0  0  0  0  0  0  0  0  0  0  0  0
   10.6387  -13.8202   28.5070 C   0  0  0  0  0  0  0  0  0  0  0  0
   11.8852  -18.8074   25.8599 O   0  0  0  0  0  0  0  0  0  0  0  0
  2  1  1  1
  2  3  1  0
  3  4  1  0
  4  5  2  0
  5  6  1  0
  7  6  2  0
  8  7  1  0
  9  4  1  0
  9  8  2  0
 10 11  2  0
 10  2  1  0
 12 10  1  0
 13 18  1  0
 13 12  1  0
 13 14  1  6
 15 14  1  0
 16 15  1  0
 17 16  2  0
 18 28  1  0
 19 18  2  0
 20 16  1  0
 22 21  1  0
 23 22  2  0
 24 23  1  0
 25 24  2  0
 25 31  1  0
 26 25  1  0
 27 26  1  1
 28 27  1  0
 29 27  1  0
 30 29  2  0
 31 32  2  0
 32 22  1  0
 33 29  1  0
M  END
$$$$
