FEY.pdb
     RDKit          3D

 33 34  0  0  1  0  0  0  0  0999 V2000
    5.5823  -18.1572   24.5311 N   0  0  0  0  0  0  0  0  0  0  0  0
    6.3920  -16.9796   24.5777 C   0  0  1  0  0  0  0  0  0  0  0  0
    6.3886  -16.3490   25.9724 C   0  0  0  0  0  0  0  0  0  0  0  0
    6.6981  -14.9198   25.8151 C   0  0  0  0  0  0  0  0  0  0  0  0
    6.4194  -14.0448   26.8391 C   0  0  0  0  0  0  0  0  0  0  0  0
    6.6973  -12.6824   26.7322 C   0  0  0  0  0  0  0  0  0  0  0  0
    7.2676  -12.2031   25.5653 C   0  0  0  0  0  0  0  0  0  0  0  0
    7.5442  -13.0776   24.5467 C   0  0  0  0  0  0  0  0  0  0  0  0
    7.2650  -14.4298   24.6607 C   0  0  0  0  0  0  0  0  0  0  0  0
    7.8039  -17.2484   24.2311 C   0  0  0  0  0  0  0  0  0  0  0  0
    8.5650  -17.8525   25.0502 O   0  0  0  0  0  0  0  0  0  0  0  0
    8.4052  -16.8690   23.0014 N   0  0  0  0  0  0  0  0  0  0  0  0
    9.8038  -17.1512   22.6831 C   0  0  1  0  0  0  0  0  0  0  0  0
    9.9362  -17.0270   21.1901 C   0  0  0  0  0  0  0  0  0  0  0  0
   11.3352  -17.2183   20.6730 C   0  0  0  0  0  0  0  0  0  0  0  0
   11.3335  -17.1305   19.1935 C   0  0  0  0  0  0  0  0  0  0  0  0
   11.2000  -18.1632   18.5152 O   0  0  0  0  0  0  0  0  0  0  0  0
   10.6910  -16.1567   23.3341 C   0  0  0  0  0  0  0  0  0  0  0  0
   10.9048  -15.0178   22.8493 O   0  0  0  0  0  0  0  0  0  0  0  0
   11.4788  -15.9132   18.5713 O   0  0  0  0  0  0  0  0  0  0  0  0
    9.8045  -17.3729   30.6967 O   0  0  0  0  0  0  0  0  0  0  0  0
   10.2293  -16.6647   29.5748 C   0  0  0  0  0  0  0  0  0  0  0  0
    9.4271  -16.5910   28.4557 C   0  0  0  0  0  0  0  0  0  0  0  0
    9.8273  -15.8954   27.3336 C   0  0  0  0  0  0  0  0  0  0  0  0
   11.0380  -15.2366   27.2549 C   0  0  0  0  0  0  0  0  0  0  0  0
   11.4952  -14.4945   26.0615 C   0  0  0  0  0  0  0  0  0  0  0  0
   12.2483  -15.4008   25.1555 C   0  0  2  0  0  0  0  0  0  0  0  0
   11.3692  -16.4134   24.5574 N   0  0  0  0  0  0  0  0  0  0  0  0
   13.2950  -16.1192   25.8997 C   0  0  0  0  0  0  0  0  0  0  0  0
   14.2215  -15.5740   26.5589 O   0  0  0  0  0  0  0  0  0  0  0  0
   11.8350  -15.3258   28.4041 C   0  0  0  0  0  0  0  0  0  0  0  0
   11.4453  -16.0172   29.5294 C   0  0  0  0  0  0  0  0  0  0  0  0
   13.2709  -17.5249   25.8822 O   0  0  0  0  0  0  0  0  0  0  0  0
  2  1  1  1
  2  3  1  0
  3  4  1  0
  4  5  2  0
  5  6  1  0
  7  6  2  0
  8  7  1  0
  9  4  1  0
  9  8  2  0
 10 11  2  0
 10  2  1  0
 12 10  1  0
 13 18  1  0
 13 12  1  0
 13 14  1  6
 15 14  1  0
 16 15  1  0
 17 16  2  0
 18 28  1  0
 19 18  2  0
 20 16  1  0
 22 21  1  0
 23 22  2  0
 24 23  1  0
 25 24  2  0
 25 31  1  0
 26 25  1  0
 27 26  1  1
 28 27  1  0
 29 27  1  0
 30 29  2  0
 31 32  2  0
 32 22  1  0
 33 29  1  0
M  END
$$$$
