FEY.pdb
     RDKit          3D

 33 34  0  0  1  0  0  0  0  0999 V2000
    6.1235  -17.4883   25.4071 N   0  0  0  0  0  0  0  0  0  0  0  0
    7.0299  -16.4687   24.9788 C   0  0  1  0  0  0  0  0  0  0  0  0
    7.5909  -15.6798   26.1644 C   0  0  0  0  0  0  0  0  0  0  0  0
    7.1432  -14.2860   26.0230 C   0  0  0  0  0  0  0  0  0  0  0  0
    6.0101  -13.8638   26.6784 C   0  0  0  0  0  0  0  0  0  0  0  0
    5.5508  -12.5513   26.5726 C   0  0  0  0  0  0  0  0  0  0  0  0
    6.2556  -11.6547   25.7877 C   0  0  0  0  0  0  0  0  0  0  0  0
    7.3844  -12.0786   25.1358 C   0  0  0  0  0  0  0  0  0  0  0  0
    7.8341  -13.3843   25.2460 C   0  0  0  0  0  0  0  0  0  0  0  0
    8.1880  -17.0143   24.2391 C   0  0  0  0  0  0  0  0  0  0  0  0
    8.8895  -17.9491   24.7382 O   0  0  0  0  0  0  0  0  0  0  0  0
    8.5982  -16.5573   22.9582 N   0  0  0  0  0  0  0  0  0  0  0  0
    9.8494  -16.9782   22.3302 C   0  0  1  0  0  0  0  0  0  0  0  0
    9.7399  -16.6171   20.8743 C   0  0  0  0  0  0  0  0  0  0  0  0
   10.9344  -17.0047   20.0471 C   0  0  0  0  0  0  0  0  0  0  0  0
   10.9097  -18.4649   19.7938 C   0  0  0  0  0  0  0  0  0  0  0  0
   11.8053  -19.1870   20.2638 O   0  0  0  0  0  0  0  0  0  0  0  0
   10.9955  -16.2498   22.9266 C   0  0  0  0  0  0  0  0  0  0  0  0
   11.5189  -15.2457   22.3828 O   0  0  0  0  0  0  0  0  0  0  0  0
    9.9015  -19.0209   19.0425 O   0  0  0  0  0  0  0  0  0  0  0  0
    9.5034  -16.6838   30.0092 O   0  0  0  0  0  0  0  0  0  0  0  0
   10.2439  -16.2427   28.9148 C   0  0  0  0  0  0  0  0  0  0  0  0
   11.5858  -16.5449   28.8173 C   0  0  0  0  0  0  0  0  0  0  0  0
   12.3385  -16.1186   27.7426 C   0  0  0  0  0  0  0  0  0  0  0  0
   11.8095  -15.3724   26.7086 C   0  0  0  0  0  0  0  0  0  0  0  0
   12.5960  -14.8938   25.5526 C   0  0  0  0  0  0  0  0  0  0  0  0
   12.8475  -16.0141   24.6087 C   0  0  2  0  0  0  0  0  0  0  0  0
   11.5922  -16.6300   24.1603 N   0  0  0  0  0  0  0  0  0  0  0  0
   13.6401  -17.0686   25.2607 C   0  0  0  0  0  0  0  0  0  0  0  0
   13.2640  -18.2603   25.4296 O   0  0  0  0  0  0  0  0  0  0  0  0
   10.4447  -15.0784   26.8302 C   0  0  0  0  0  0  0  0  0  0  0  0
    9.6840  -15.4989   27.8982 C   0  0  0  0  0  0  0  0  0  0  0  0
   14.9197  -16.7333   25.7374 O   0  0  0  0  0  0  0  0  0  0  0  0
  2  1  1  1
  2  3  1  0
  3  4  1  0
  4  5  2  0
  5  6  1  0
  7  6  2  0
  8  7  1  0
  9  4  1  0
  9  8  2  0
 10 11  2  0
 10  2  1  0
 12 10  1  0
 13 18  1  0
 13 12  1  0
 13 14  1  6
 15 14  1  0
 16 15  1  0
 17 16  2  0
 18 28  1  0
 19 18  2  0
 20 16  1  0
 22 21  1  0
 23 22  2  0
 24 23  1  0
 25 24  2  0
 25 31  1  0
 26 25  1  0
 27 26  1  1
 28 27  1  0
 29 27  1  0
 30 29  2  0
 31 32  2  0
 32 22  1  0
 33 29  1  0
M  END
$$$$
