FEY.pdb
     RDKit          3D

 33 34  0  0  1  0  0  0  0  0999 V2000
    6.4470  -18.2089   19.2044 N   0  0  0  0  0  0  0  0  0  0  0  0
    7.1796  -17.1035   19.7390 C   0  0  1  0  0  0  0  0  0  0  0  0
    6.2925  -16.2067   20.6059 C   0  0  0  0  0  0  0  0  0  0  0  0
    7.0016  -14.9327   20.7988 C   0  0  0  0  0  0  0  0  0  0  0  0
    7.4466  -14.2274   19.7050 C   0  0  0  0  0  0  0  0  0  0  0  0
    8.1223  -13.0153   19.8424 C   0  0  0  0  0  0  0  0  0  0  0  0
    8.3487  -12.5132   21.1126 C   0  0  0  0  0  0  0  0  0  0  0  0
    7.9040  -13.2184   22.2006 C   0  0  0  0  0  0  0  0  0  0  0  0
    7.2335  -14.4220   22.0556 C   0  0  0  0  0  0  0  0  0  0  0  0
    8.3146  -17.5315   20.5843 C   0  0  0  0  0  0  0  0  0  0  0  0
    8.1083  -18.1418   21.6798 O   0  0  0  0  0  0  0  0  0  0  0  0
    9.6780  -17.3055   20.2560 N   0  0  0  0  0  0  0  0  0  0  0  0
   10.7816  -17.7506   21.1051 C   0  0  1  0  0  0  0  0  0  0  0  0
   12.0392  -17.5755   20.2989 C   0  0  0  0  0  0  0  0  0  0  0  0
   12.2548  -18.6296   19.2484 C   0  0  0  0  0  0  0  0  0  0  0  0
   13.5055  -18.3424   18.5069 C   0  0  0  0  0  0  0  0  0  0  0  0
   13.4464  -17.9025   17.3461 O   0  0  0  0  0  0  0  0  0  0  0  0
   10.8649  -16.9099   22.3242 C   0  0  0  0  0  0  0  0  0  0  0  0
   11.1464  -15.6862   22.2870 O   0  0  0  0  0  0  0  0  0  0  0  0
   14.7274  -18.5606   19.0980 O   0  0  0  0  0  0  0  0  0  0  0  0
   10.5035  -13.8975   30.5992 O   0  0  0  0  0  0  0  0  0  0  0  0
   10.2737  -14.5042   29.3665 C   0  0  0  0  0  0  0  0  0  0  0  0
   10.0127  -13.7350   28.2521 C   0  0  0  0  0  0  0  0  0  0  0  0
    9.7822  -14.3143   27.0214 C   0  0  0  0  0  0  0  0  0  0  0  0
    9.7961  -15.6806   26.8241 C   0  0  0  0  0  0  0  0  0  0  0  0
    9.5411  -16.3265   25.5195 C   0  0  0  0  0  0  0  0  0  0  0  0
   10.8258  -16.5748   24.8143 C   0  0  2  0  0  0  0  0  0  0  0  0
   10.6330  -17.4219   23.6306 N   0  0  0  0  0  0  0  0  0  0  0  0
   11.7719  -17.2733   25.6989 C   0  0  0  0  0  0  0  0  0  0  0  0
   12.5924  -16.7106   26.4737 O   0  0  0  0  0  0  0  0  0  0  0  0
   10.0636  -16.4405   27.9708 C   0  0  0  0  0  0  0  0  0  0  0  0
   10.2953  -15.8728   29.2037 C   0  0  0  0  0  0  0  0  0  0  0  0
   11.7706  -18.6793   25.6885 O   0  0  0  0  0  0  0  0  0  0  0  0
  2  1  1  1
  2  3  1  0
  3  4  1  0
  4  5  2  0
  5  6  1  0
  7  6  2  0
  8  7  1  0
  9  4  1  0
  9  8  2  0
 10 11  2  0
 10  2  1  0
 12 10  1  0
 13 18  1  0
 13 12  1  0
 13 14  1  6
 15 14  1  0
 16 15  1  0
 17 16  2  0
 18 28  1  0
 19 18  2  0
 20 16  1  0
 22 21  1  0
 23 22  2  0
 24 23  1  0
 25 24  2  0
 25 31  1  0
 26 25  1  0
 27 26  1  1
 28 27  1  0
 29 27  1  0
 30 29  2  0
 31 32  2  0
 32 22  1  0
 33 29  1  0
M  END
$$$$
