FEY.pdb
     RDKit          3D

 33 34  0  0  1  0  0  0  0  0999 V2000
    5.7035  -17.5117   24.6872 N   0  0  0  0  0  0  0  0  0  0  0  0
    6.7612  -16.5576   24.5623 C   0  0  1  0  0  0  0  0  0  0  0  0
    7.0987  -15.9120   25.9084 C   0  0  0  0  0  0  0  0  0  0  0  0
    6.9073  -14.4607   25.7661 C   0  0  0  0  0  0  0  0  0  0  0  0
    6.0230  -13.8052   26.5908 C   0  0  0  0  0  0  0  0  0  0  0  0
    5.8117  -12.4304   26.4905 C   0  0  0  0  0  0  0  0  0  0  0  0
    6.5112  -11.7116   25.5361 C   0  0  0  0  0  0  0  0  0  0  0  0
    7.3917  -12.3677   24.7158 C   0  0  0  0  0  0  0  0  0  0  0  0
    7.5959  -13.7338   24.8218 C   0  0  0  0  0  0  0  0  0  0  0  0
    8.0102  -17.1599   24.0495 C   0  0  0  0  0  0  0  0  0  0  0  0
    8.4846  -18.2119   24.5819 O   0  0  0  0  0  0  0  0  0  0  0  0
    8.7561  -16.6342   22.9609 N   0  0  0  0  0  0  0  0  0  0  0  0
   10.1035  -17.0935   22.6285 C   0  0  1  0  0  0  0  0  0  0  0  0
   10.2664  -16.9037   21.1454 C   0  0  0  0  0  0  0  0  0  0  0  0
   11.6052  -17.3289   20.6086 C   0  0  0  0  0  0  0  0  0  0  0  0
   11.6275  -17.1550   19.1369 C   0  0  0  0  0  0  0  0  0  0  0  0
   12.2734  -17.9493   18.4324 O   0  0  0  0  0  0  0  0  0  0  0  0
   11.1164  -16.2742   23.3374 C   0  0  0  0  0  0  0  0  0  0  0  0
   11.2837  -15.0511   23.1051 O   0  0  0  0  0  0  0  0  0  0  0  0
   10.9377  -16.1203   18.5508 O   0  0  0  0  0  0  0  0  0  0  0  0
    9.8324  -17.1791   30.4068 O   0  0  0  0  0  0  0  0  0  0  0  0
   10.4396  -16.6347   29.2774 C   0  0  0  0  0  0  0  0  0  0  0  0
   10.8204  -15.3094   29.2647 C   0  0  0  0  0  0  0  0  0  0  0  0
   11.4231  -14.7491   28.1575 C   0  0  0  0  0  0  0  0  0  0  0  0
   11.6817  -15.4642   27.0052 C   0  0  0  0  0  0  0  0  0  0  0  0
   12.3152  -14.8855   25.8020 C   0  0  0  0  0  0  0  0  0  0  0  0
   12.9689  -15.9565   25.0052 C   0  0  2  0  0  0  0  0  0  0  0  0
   11.9777  -16.8078   24.3354 N   0  0  0  0  0  0  0  0  0  0  0  0
   13.7726  -16.8286   25.8765 C   0  0  0  0  0  0  0  0  0  0  0  0
   13.5621  -18.0571   26.0676 O   0  0  0  0  0  0  0  0  0  0  0  0
   11.2861  -16.8081   27.0425 C   0  0  0  0  0  0  0  0  0  0  0  0
   10.6840  -17.3775   28.1422 C   0  0  0  0  0  0  0  0  0  0  0  0
   14.8643  -16.2587   26.5550 O   0  0  0  0  0  0  0  0  0  0  0  0
  2  1  1  1
  2  3  1  0
  3  4  1  0
  4  5  2  0
  5  6  1  0
  7  6  2  0
  8  7  1  0
  9  4  1  0
  9  8  2  0
 10 11  2  0
 10  2  1  0
 12 10  1  0
 13 18  1  0
 13 12  1  0
 13 14  1  6
 15 14  1  0
 16 15  1  0
 17 16  2  0
 18 28  1  0
 19 18  2  0
 20 16  1  0
 22 21  1  0
 23 22  2  0
 24 23  1  0
 25 24  2  0
 25 31  1  0
 26 25  1  0
 27 26  1  1
 28 27  1  0
 29 27  1  0
 30 29  2  0
 31 32  2  0
 32 22  1  0
 33 29  1  0
M  END
$$$$
