FEY.pdb
     RDKit          3D

 33 34  0  0  1  0  0  0  0  0999 V2000
    6.1167  -17.8072   21.5758 N   0  0  0  0  0  0  0  0  0  0  0  0
    7.0053  -16.7273   21.8738 C   0  0  1  0  0  0  0  0  0  0  0  0
    6.2483  -15.5017   22.3910 C   0  0  0  0  0  0  0  0  0  0  0  0
    6.8982  -14.3079   21.8294 C   0  0  0  0  0  0  0  0  0  0  0  0
    6.9743  -14.1508   20.4651 C   0  0  0  0  0  0  0  0  0  0  0  0
    7.5809  -13.0342   19.8907 C   0  0  0  0  0  0  0  0  0  0  0  0
    8.1184  -12.0625   20.7175 C   0  0  0  0  0  0  0  0  0  0  0  0
    8.0410  -12.2219   22.0767 C   0  0  0  0  0  0  0  0  0  0  0  0
    7.4367  -13.3342   22.6395 C   0  0  0  0  0  0  0  0  0  0  0  0
    8.0033  -17.0827   22.9051 C   0  0  0  0  0  0  0  0  0  0  0  0
    7.6493  -17.6954   23.9608 O   0  0  0  0  0  0  0  0  0  0  0  0
    9.3879  -16.7812   22.8068 N   0  0  0  0  0  0  0  0  0  0  0  0
   10.3795  -17.2945   23.7503 C   0  0  1  0  0  0  0  0  0  0  0  0
   11.7074  -17.2420   23.0461 C   0  0  0  0  0  0  0  0  0  0  0  0
   12.8576  -17.7841   23.8489 C   0  0  0  0  0  0  0  0  0  0  0  0
   14.0985  -17.7242   23.0407 C   0  0  0  0  0  0  0  0  0  0  0  0
   14.5052  -18.7446   22.4596 O   0  0  0  0  0  0  0  0  0  0  0  0
   10.4352  -16.4346   24.9575 C   0  0  0  0  0  0  0  0  0  0  0  0
   10.8001  -15.2332   24.9189 O   0  0  0  0  0  0  0  0  0  0  0  0
   14.7989  -16.5461   22.9325 O   0  0  0  0  0  0  0  0  0  0  0  0
    6.2879  -11.8914   25.1192 O   0  0  0  0  0  0  0  0  0  0  0  0
    6.9920  -12.8332   25.8661 C   0  0  0  0  0  0  0  0  0  0  0  0
    7.9900  -12.4302   26.7282 C   0  0  0  0  0  0  0  0  0  0  0  0
    8.7002  -13.3453   27.4775 C   0  0  0  0  0  0  0  0  0  0  0  0
    8.4652  -14.7044   27.4167 C   0  0  0  0  0  0  0  0  0  0  0  0
    9.2189  -15.7059   28.1995 C   0  0  0  0  0  0  0  0  0  0  0  0
   10.4316  -16.1295   27.4517 C   0  0  2  0  0  0  0  0  0  0  0  0
   10.0804  -16.9014   26.2531 N   0  0  0  0  0  0  0  0  0  0  0  0
   11.2788  -16.9917   28.2909 C   0  0  0  0  0  0  0  0  0  0  0  0
   11.5830  -18.1871   28.0291 O   0  0  0  0  0  0  0  0  0  0  0  0
    7.4468  -15.0889   26.5342 C   0  0  0  0  0  0  0  0  0  0  0  0
    6.7316  -14.1842   25.7818 C   0  0  0  0  0  0  0  0  0  0  0  0
   11.7963  -16.4513   29.4814 O   0  0  0  0  0  0  0  0  0  0  0  0
  2  1  1  1
  2  3  1  0
  3  4  1  0
  4  5  2  0
  5  6  1  0
  7  6  2  0
  8  7  1  0
  9  4  1  0
  9  8  2  0
 10 11  2  0
 10  2  1  0
 12 10  1  0
 13 18  1  0
 13 12  1  0
 13 14  1  6
 15 14  1  0
 16 15  1  0
 17 16  2  0
 18 28  1  0
 19 18  2  0
 20 16  1  0
 22 21  1  0
 23 22  2  0
 24 23  1  0
 25 24  2  0
 25 31  1  0
 26 25  1  0
 27 26  1  1
 28 27  1  0
 29 27  1  0
 30 29  2  0
 31 32  2  0
 32 22  1  0
 33 29  1  0
M  END
$$$$
