FEY.pdb
     RDKit          3D

 33 34  0  0  1  0  0  0  0  0999 V2000
   49.9777  -43.5487    8.1713 N   0  0  0  0  0  0  0  0  0  0  0  0
   49.2555  -43.6159    6.9391 C   0  0  1  0  0  0  0  0  0  0  0  0
   48.7213  -42.2429    6.5240 C   0  0  0  0  0  0  0  0  0  0  0  0
   47.4469  -42.4554    5.8212 C   0  0  0  0  0  0  0  0  0  0  0  0
   46.3387  -42.8629    6.5267 C   0  0  0  0  0  0  0  0  0  0  0  0
   45.1110  -43.0753    5.9003 C   0  0  0  0  0  0  0  0  0  0  0  0
   45.0096  -42.8697    4.5349 C   0  0  0  0  0  0  0  0  0  0  0  0
   46.1158  -42.4636    3.8348 C   0  0  0  0  0  0  0  0  0  0  0  0
   47.3319  -42.2548    4.4645 C   0  0  0  0  0  0  0  0  0  0  0  0
   50.0873  -44.1094    5.8208 C   0  0  0  0  0  0  0  0  0  0  0  0
   49.8379  -43.7543    4.6263 O   0  0  0  0  0  0  0  0  0  0  0  0
   51.1921  -44.9877    5.9811 N   0  0  0  0  0  0  0  0  0  0  0  0
   52.5771  -44.5212    6.0117 C   0  0  1  0  0  0  0  0  0  0  0  0
   52.5449  -43.1212    6.5606 C   0  0  0  0  0  0  0  0  0  0  0  0
   53.3060  -42.1157    5.7414 C   0  0  0  0  0  0  0  0  0  0  0  0
   53.7253  -42.7341    4.4614 C   0  0  0  0  0  0  0  0  0  0  0  0
   54.7823  -43.3856    4.4091 O   0  0  0  0  0  0  0  0  0  0  0  0
   53.3891  -45.3770    6.9107 C   0  0  0  0  0  0  0  0  0  0  0  0
   53.0992  -45.5588    8.1194 O   0  0  0  0  0  0  0  0  0  0  0  0
   52.9504  -42.5894    3.3351 O   0  0  0  0  0  0  0  0  0  0  0  0
   57.0191  -42.5412   -0.0328 O   0  0  0  0  0  0  0  0  0  0  0  0
   56.7518  -42.9899    1.2587 C   0  0  0  0  0  0  0  0  0  0  0  0
   56.4539  -44.3172    1.4847 C   0  0  0  0  0  0  0  0  0  0  0  0
   56.1860  -44.7836    2.7551 C   0  0  0  0  0  0  0  0  0  0  0  0
   56.1969  -43.9676    3.8687 C   0  0  0  0  0  0  0  0  0  0  0  0
   55.9023  -44.4394    5.2378 C   0  0  0  0  0  0  0  0  0  0  0  0
   55.1796  -45.7372    5.1849 C   0  0  2  0  0  0  0  0  0  0  0  0
   54.5590  -46.0588    6.4761 N   0  0  0  0  0  0  0  0  0  0  0  0
   56.1098  -46.8318    4.8654 C   0  0  0  0  0  0  0  0  0  0  0  0
   57.2332  -46.6913    4.3100 O   0  0  0  0  0  0  0  0  0  0  0  0
   56.5023  -42.6239    3.6135 C   0  0  0  0  0  0  0  0  0  0  0  0
   56.7715  -42.1478    2.3498 C   0  0  0  0  0  0  0  0  0  0  0  0
   55.7273  -48.1425    5.2011 O   0  0  0  0  0  0  0  0  0  0  0  0
  2  1  1  1
  2  3  1  0
  3  4  1  0
  4  5  2  0
  5  6  1  0
  7  6  2  0
  8  7  1  0
  9  4  1  0
  9  8  2  0
 10 11  2  0
 10  2  1  0
 12 10  1  0
 13 18  1  0
 13 12  1  0
 13 14  1  1
 15 14  1  0
 16 15  1  0
 17 16  2  0
 18 28  1  0
 19 18  2  0
 20 16  1  0
 22 21  1  0
 23 22  2  0
 24 23  1  0
 25 24  2  0
 25 31  1  0
 26 25  1  0
 27 26  1  1
 28 27  1  0
 29 27  1  0
 30 29  2  0
 31 32  2  0
 32 22  1  0
 33 29  1  0
M  END
$$$$
