FEY.pdb
     RDKit          3D

 33 34  0  0  1  0  0  0  0  0999 V2000
    5.9872  -17.2400   25.0205 N   0  0  0  0  0  0  0  0  0  0  0  0
    6.4156  -16.8076   23.7266 C   0  0  1  0  0  0  0  0  0  0  0  0
    6.0752  -15.3352   23.4839 C   0  0  0  0  0  0  0  0  0  0  0  0
    6.6421  -14.5584   24.5967 C   0  0  0  0  0  0  0  0  0  0  0  0
    7.7679  -13.7951   24.3918 C   0  0  0  0  0  0  0  0  0  0  0  0
    8.3377  -13.0429   25.4186 C   0  0  0  0  0  0  0  0  0  0  0  0
    7.7528  -13.0679   26.6732 C   0  0  0  0  0  0  0  0  0  0  0  0
    6.6311  -13.8296   26.8742 C   0  0  0  0  0  0  0  0  0  0  0  0
    6.0711  -14.5741   25.8488 C   0  0  0  0  0  0  0  0  0  0  0  0
    7.8750  -16.9483   23.5365 C   0  0  0  0  0  0  0  0  0  0  0  0
    8.6046  -17.4130   24.4675 O   0  0  0  0  0  0  0  0  0  0  0  0
    8.5580  -16.5898   22.3437 N   0  0  0  0  0  0  0  0  0  0  0  0
    9.9418  -16.9777   22.0761 C   0  0  1  0  0  0  0  0  0  0  0  0
   10.1914  -16.6952   20.6200 C   0  0  0  0  0  0  0  0  0  0  0  0
   10.2905  -17.9231   19.7576 C   0  0  0  0  0  0  0  0  0  0  0  0
   10.4999  -17.5223   18.3462 C   0  0  0  0  0  0  0  0  0  0  0  0
    9.6274  -17.7748   17.4980 O   0  0  0  0  0  0  0  0  0  0  0  0
   10.8725  -16.1638   22.8954 C   0  0  0  0  0  0  0  0  0  0  0  0
   10.8347  -14.9084   22.9201 O   0  0  0  0  0  0  0  0  0  0  0  0
   11.6535  -16.8738   17.9737 O   0  0  0  0  0  0  0  0  0  0  0  0
   11.5593  -14.3719   31.1748 O   0  0  0  0  0  0  0  0  0  0  0  0
   11.3707  -14.8551   29.8820 C   0  0  0  0  0  0  0  0  0  0  0  0
   11.4199  -13.9950   28.8052 C   0  0  0  0  0  0  0  0  0  0  0  0
   11.2360  -14.4514   27.5164 C   0  0  0  0  0  0  0  0  0  0  0  0
   10.9937  -15.7780   27.2208 C   0  0  0  0  0  0  0  0  0  0  0  0
   10.7820  -16.2906   25.8510 C   0  0  0  0  0  0  0  0  0  0  0  0
   12.0664  -16.2907   25.1029 C   0  0  2  0  0  0  0  0  0  0  0  0
   11.8803  -16.7394   23.7172 N   0  0  0  0  0  0  0  0  0  0  0  0
   13.0283  -17.2098   25.7317 C   0  0  0  0  0  0  0  0  0  0  0  0
   13.0993  -18.4493   25.5109 O   0  0  0  0  0  0  0  0  0  0  0  0
   10.9487  -16.6321   28.3309 C   0  0  0  0  0  0  0  0  0  0  0  0
   11.1310  -16.1873   29.6213 C   0  0  0  0  0  0  0  0  0  0  0  0
   13.9462  -16.6757   26.6532 O   0  0  0  0  0  0  0  0  0  0  0  0
  2  1  1  1
  2  3  1  0
  3  4  1  0
  4  5  2  0
  5  6  1  0
  7  6  2  0
  8  7  1  0
  9  4  1  0
  9  8  2  0
 10 11  2  0
 10  2  1  0
 12 10  1  0
 13 18  1  0
 13 12  1  0
 13 14  1  6
 15 14  1  0
 16 15  1  0
 17 16  2  0
 18 28  1  0
 19 18  2  0
 20 16  1  0
 22 21  1  0
 23 22  2  0
 24 23  1  0
 25 24  2  0
 25 31  1  0
 26 25  1  0
 27 26  1  1
 28 27  1  0
 29 27  1  0
 30 29  2  0
 31 32  2  0
 32 22  1  0
 33 29  1  0
M  END
$$$$
