FEY.pdb
     RDKit          3D

 33 34  0  0  1  0  0  0  0  0999 V2000
    5.6059  -17.8518   23.8390 N   0  0  0  0  0  0  0  0  0  0  0  0
    6.6627  -16.9208   24.0858 C   0  0  1  0  0  0  0  0  0  0  0  0
    6.5673  -16.3203   25.4905 C   0  0  0  0  0  0  0  0  0  0  0  0
    6.5357  -14.8569   25.3473 C   0  0  0  0  0  0  0  0  0  0  0  0
    6.0174  -14.0836   26.3598 C   0  0  0  0  0  0  0  0  0  0  0  0
    5.9689  -12.6930   26.2658 C   0  0  0  0  0  0  0  0  0  0  0  0
    6.4556  -12.0801   25.1238 C   0  0  0  0  0  0  0  0  0  0  0  0
    6.9715  -12.8535   24.1166 C   0  0  0  0  0  0  0  0  0  0  0  0
    7.0160  -14.2344   24.2177 C   0  0  0  0  0  0  0  0  0  0  0  0
    8.0008  -17.5394   23.9729 C   0  0  0  0  0  0  0  0  0  0  0  0
    8.2653  -18.6201   24.5870 O   0  0  0  0  0  0  0  0  0  0  0  0
    9.0621  -16.9991   23.1987 N   0  0  0  0  0  0  0  0  0  0  0  0
   10.4103  -17.5640   23.1991 C   0  0  1  0  0  0  0  0  0  0  0  0
   11.1600  -16.8827   22.0873 C   0  0  0  0  0  0  0  0  0  0  0  0
   12.5475  -17.4148   21.8571 C   0  0  0  0  0  0  0  0  0  0  0  0
   13.1370  -16.7630   20.6636 C   0  0  0  0  0  0  0  0  0  0  0  0
   13.4693  -15.5667   20.7160 O   0  0  0  0  0  0  0  0  0  0  0  0
   11.0876  -17.2793   24.4875 C   0  0  0  0  0  0  0  0  0  0  0  0
   11.1902  -16.1194   24.9588 O   0  0  0  0  0  0  0  0  0  0  0  0
   13.3165  -17.4762   19.5022 O   0  0  0  0  0  0  0  0  0  0  0  0
   10.1313  -12.4145   29.0070 O   0  0  0  0  0  0  0  0  0  0  0  0
   10.3442  -13.7491   28.6692 C   0  0  0  0  0  0  0  0  0  0  0  0
    9.5752  -14.3498   27.6948 C   0  0  0  0  0  0  0  0  0  0  0  0
    9.7685  -15.6700   27.3441 C   0  0  0  0  0  0  0  0  0  0  0  0
   10.7285  -16.4673   27.9346 C   0  0  0  0  0  0  0  0  0  0  0  0
   10.9482  -17.8864   27.5856 C   0  0  0  0  0  0  0  0  0  0  0  0
   12.1079  -18.0108   26.6643 C   0  0  2  0  0  0  0  0  0  0  0  0
   11.6740  -18.2958   25.2908 N   0  0  0  0  0  0  0  0  0  0  0  0
   12.9813  -19.1188   27.0827 C   0  0  0  0  0  0  0  0  0  0  0  0
   13.8687  -19.0466   27.9757 O   0  0  0  0  0  0  0  0  0  0  0  0
   11.4970  -15.8346   28.9210 C   0  0  0  0  0  0  0  0  0  0  0  0
   11.3127  -14.5177   29.2787 C   0  0  0  0  0  0  0  0  0  0  0  0
   12.8234  -20.3614   26.4439 O   0  0  0  0  0  0  0  0  0  0  0  0
  2  1  1  1
  2  3  1  0
  3  4  1  0
  4  5  2  0
  5  6  1  0
  7  6  2  0
  8  7  1  0
  9  4  1  0
  9  8  2  0
 10 11  2  0
 10  2  1  0
 12 10  1  0
 13 18  1  0
 13 12  1  0
 13 14  1  6
 15 14  1  0
 16 15  1  0
 17 16  2  0
 18 28  1  0
 19 18  2  0
 20 16  1  0
 22 21  1  0
 23 22  2  0
 24 23  1  0
 25 24  2  0
 25 31  1  0
 26 25  1  0
 27 26  1  1
 28 27  1  0
 29 27  1  0
 30 29  2  0
 31 32  2  0
 32 22  1  0
 33 29  1  0
M  END
$$$$
