FEY.pdb
     RDKit          3D

 33 34  0  0  1  0  0  0  0  0999 V2000
    6.1657  -18.4604   22.9824 N   0  0  0  0  0  0  0  0  0  0  0  0
    6.9333  -17.3762   23.5114 C   0  0  1  0  0  0  0  0  0  0  0  0
    6.2558  -16.7501   24.7327 C   0  0  0  0  0  0  0  0  0  0  0  0
    6.5370  -15.3067   24.7061 C   0  0  0  0  0  0  0  0  0  0  0  0
    6.1571  -14.5181   25.7670 C   0  0  0  0  0  0  0  0  0  0  0  0
    6.4049  -13.1458   25.7832 C   0  0  0  0  0  0  0  0  0  0  0  0
    7.0491  -12.5672   24.7029 C   0  0  0  0  0  0  0  0  0  0  0  0
    7.4264  -13.3558   23.6472 C   0  0  0  0  0  0  0  0  0  0  0  0
    7.1766  -14.7184   23.6388 C   0  0  0  0  0  0  0  0  0  0  0  0
    8.2858  -17.7944   23.9376 C   0  0  0  0  0  0  0  0  0  0  0  0
    8.4388  -18.7923   24.7095 O   0  0  0  0  0  0  0  0  0  0  0  0
    9.4817  -17.1414   23.5359 N   0  0  0  0  0  0  0  0  0  0  0  0
   10.8116  -17.6462   23.8730 C   0  0  1  0  0  0  0  0  0  0  0  0
   11.7641  -17.0385   22.8802 C   0  0  0  0  0  0  0  0  0  0  0  0
   11.6342  -17.5805   21.4836 C   0  0  0  0  0  0  0  0  0  0  0  0
   12.4528  -16.7638   20.5565 C   0  0  0  0  0  0  0  0  0  0  0  0
   11.8974  -15.9558   19.7929 O   0  0  0  0  0  0  0  0  0  0  0  0
   11.1945  -17.2160   25.2398 C   0  0  0  0  0  0  0  0  0  0  0  0
   11.8052  -16.1422   25.4674 O   0  0  0  0  0  0  0  0  0  0  0  0
   13.8210  -16.8973   20.5390 O   0  0  0  0  0  0  0  0  0  0  0  0
    9.5204  -11.5525   27.4125 O   0  0  0  0  0  0  0  0  0  0  0  0
    9.7561  -12.8938   27.7058 C   0  0  0  0  0  0  0  0  0  0  0  0
    8.7500  -13.8246   27.5547 C   0  0  0  0  0  0  0  0  0  0  0  0
    8.9607  -15.1580   27.8391 C   0  0  0  0  0  0  0  0  0  0  0  0
   10.1727  -15.6441   28.2874 C   0  0  0  0  0  0  0  0  0  0  0  0
   10.4212  -17.0647   28.6100 C   0  0  0  0  0  0  0  0  0  0  0  0
   11.4633  -17.6177   27.7058 C   0  0  2  0  0  0  0  0  0  0  0  0
   10.9009  -17.9844   26.3999 N   0  0  0  0  0  0  0  0  0  0  0  0
   12.0518  -18.8366   28.2832 C   0  0  0  0  0  0  0  0  0  0  0  0
   12.6500  -18.8995   29.3915 O   0  0  0  0  0  0  0  0  0  0  0  0
   11.1788  -14.6795   28.4327 C   0  0  0  0  0  0  0  0  0  0  0  0
   10.9794  -13.3464   28.1516 C   0  0  0  0  0  0  0  0  0  0  0  0
   11.9450  -20.0321   27.5509 O   0  0  0  0  0  0  0  0  0  0  0  0
  2  1  1  1
  2  3  1  0
  3  4  1  0
  4  5  2  0
  5  6  1  0
  7  6  2  0
  8  7  1  0
  9  4  1  0
  9  8  2  0
 10 11  2  0
 10  2  1  0
 12 10  1  0
 13 18  1  0
 13 12  1  0
 13 14  1  6
 15 14  1  0
 16 15  1  0
 17 16  2  0
 18 28  1  0
 19 18  2  0
 20 16  1  0
 22 21  1  0
 23 22  2  0
 24 23  1  0
 25 24  2  0
 25 31  1  0
 26 25  1  0
 27 26  1  1
 28 27  1  0
 29 27  1  0
 30 29  2  0
 31 32  2  0
 32 22  1  0
 33 29  1  0
M  END
$$$$
