FEY.pdb
     RDKit          3D

 33 34  0  0  1  0  0  0  0  0999 V2000
    6.5184  -16.7588   26.1717 N   0  0  0  0  0  0  0  0  0  0  0  0
    6.5895  -16.8858   24.7493 C   0  0  1  0  0  0  0  0  0  0  0  0
    5.9696  -15.6768   24.0444 C   0  0  0  0  0  0  0  0  0  0  0  0
    6.5777  -14.4671   24.6189 C   0  0  0  0  0  0  0  0  0  0  0  0
    7.6565  -13.8842   23.9957 C   0  0  0  0  0  0  0  0  0  0  0  0
    8.2627  -12.7364   24.5056 C   0  0  0  0  0  0  0  0  0  0  0  0
    7.7634  -12.1733   25.6676 C   0  0  0  0  0  0  0  0  0  0  0  0
    6.6883  -12.7566   26.2863 C   0  0  0  0  0  0  0  0  0  0  0  0
    6.0916  -13.8968   25.7733 C   0  0  0  0  0  0  0  0  0  0  0  0
    7.9796  -17.0026   24.2595 C   0  0  0  0  0  0  0  0  0  0  0  0
    8.9021  -17.4150   25.0302 O   0  0  0  0  0  0  0  0  0  0  0  0
    8.3853  -16.6764   22.9379 N   0  0  0  0  0  0  0  0  0  0  0  0
    9.7327  -16.9390   22.4352 C   0  0  1  0  0  0  0  0  0  0  0  0
    9.7307  -16.5497   20.9824 C   0  0  0  0  0  0  0  0  0  0  0  0
   11.0639  -16.6886   20.3008 C   0  0  0  0  0  0  0  0  0  0  0  0
   11.3404  -18.1210   20.0391 C   0  0  0  0  0  0  0  0  0  0  0  0
   10.4627  -18.8336   19.5231 O   0  0  0  0  0  0  0  0  0  0  0  0
   10.7240  -16.1070   23.1599 C   0  0  0  0  0  0  0  0  0  0  0  0
   10.9002  -14.8887   22.9095 O   0  0  0  0  0  0  0  0  0  0  0  0
   12.5616  -18.6620   20.3648 O   0  0  0  0  0  0  0  0  0  0  0  0
   10.1221  -17.2146   30.6904 O   0  0  0  0  0  0  0  0  0  0  0  0
   10.4975  -16.6206   29.4875 C   0  0  0  0  0  0  0  0  0  0  0  0
   11.8312  -16.4273   29.1951 C   0  0  0  0  0  0  0  0  0  0  0  0
   12.2258  -15.8412   28.0103 C   0  0  0  0  0  0  0  0  0  0  0  0
   11.3281  -15.4146   27.0520 C   0  0  0  0  0  0  0  0  0  0  0  0
   11.7239  -14.7738   25.7806 C   0  0  0  0  0  0  0  0  0  0  0  0
   12.4675  -15.7417   24.9322 C   0  0  2  0  0  0  0  0  0  0  0  0
   11.5526  -16.6220   24.1946 N   0  0  0  0  0  0  0  0  0  0  0  0
   13.3235  -16.6031   25.7633 C   0  0  0  0  0  0  0  0  0  0  0  0
   14.2405  -16.1956   26.5269 O   0  0  0  0  0  0  0  0  0  0  0  0
    9.9795  -15.6220   27.3719 C   0  0  0  0  0  0  0  0  0  0  0  0
    9.5746  -16.2061   28.5512 C   0  0  0  0  0  0  0  0  0  0  0  0
   13.1118  -17.9921   25.7106 O   0  0  0  0  0  0  0  0  0  0  0  0
  2  1  1  1
  2  3  1  0
  3  4  1  0
  4  5  2  0
  5  6  1  0
  7  6  2  0
  8  7  1  0
  9  4  1  0
  9  8  2  0
 10 11  2  0
 10  2  1  0
 12 10  1  0
 13 18  1  0
 13 12  1  0
 13 14  1  6
 15 14  1  0
 16 15  1  0
 17 16  2  0
 18 28  1  0
 19 18  2  0
 20 16  1  0
 22 21  1  0
 23 22  2  0
 24 23  1  0
 25 24  2  0
 25 31  1  0
 26 25  1  0
 27 26  1  1
 28 27  1  0
 29 27  1  0
 30 29  2  0
 31 32  2  0
 32 22  1  0
 33 29  1  0
M  END
$$$$
