FEY.pdb
     RDKit          3D

 33 34  0  0  1  0  0  0  0  0999 V2000
    6.3985  -16.6850   25.2501 N   0  0  0  0  0  0  0  0  0  0  0  0
    6.6194  -16.4415   23.8585 C   0  0  1  0  0  0  0  0  0  0  0  0
    6.2951  -14.9938   23.4819 C   0  0  0  0  0  0  0  0  0  0  0  0
    6.7619  -14.1334   24.5796 C   0  0  0  0  0  0  0  0  0  0  0  0
    8.0047  -13.5487   24.5066 C   0  0  0  0  0  0  0  0  0  0  0  0
    8.4860  -12.7255   25.5242 C   0  0  0  0  0  0  0  0  0  0  0  0
    7.6903  -12.4940   26.6332 C   0  0  0  0  0  0  0  0  0  0  0  0
    6.4523  -13.0782   26.7030 C   0  0  0  0  0  0  0  0  0  0  0  0
    5.9814  -13.8947   25.6877 C   0  0  0  0  0  0  0  0  0  0  0  0
    8.0207  -16.6866   23.4558 C   0  0  0  0  0  0  0  0  0  0  0  0
    8.8379  -17.2302   24.2633 O   0  0  0  0  0  0  0  0  0  0  0  0
    8.5511  -16.3485   22.1822 N   0  0  0  0  0  0  0  0  0  0  0  0
    9.9277  -16.6484   21.7923 C   0  0  1  0  0  0  0  0  0  0  0  0
   10.1695  -15.9327   20.4918 C   0  0  0  0  0  0  0  0  0  0  0  0
    9.6783  -16.6702   19.2768 C   0  0  0  0  0  0  0  0  0  0  0  0
   10.6533  -17.7237   18.9081 C   0  0  0  0  0  0  0  0  0  0  0  0
   11.8685  -17.5248   19.0766 O   0  0  0  0  0  0  0  0  0  0  0  0
   10.8750  -16.1363   22.8122 C   0  0  0  0  0  0  0  0  0  0  0  0
   11.1622  -14.9182   22.9211 O   0  0  0  0  0  0  0  0  0  0  0  0
   10.2185  -18.9170   18.3818 O   0  0  0  0  0  0  0  0  0  0  0  0
   11.1907  -14.5996   31.1926 O   0  0  0  0  0  0  0  0  0  0  0  0
   11.0020  -15.0227   29.8789 C   0  0  0  0  0  0  0  0  0  0  0  0
   10.7918  -14.1000   28.8758 C   0  0  0  0  0  0  0  0  0  0  0  0
   10.6025  -14.4962   27.5680 C   0  0  0  0  0  0  0  0  0  0  0  0
   10.6099  -15.8211   27.1798 C   0  0  0  0  0  0  0  0  0  0  0  0
   10.3984  -16.2723   25.7886 C   0  0  0  0  0  0  0  0  0  0  0  0
   11.7051  -16.5672   25.1445 C   0  0  2  0  0  0  0  0  0  0  0  0
   11.5328  -16.9827   23.7468 N   0  0  0  0  0  0  0  0  0  0  0  0
   12.3870  -17.6678   25.8439 C   0  0  0  0  0  0  0  0  0  0  0  0
   12.0977  -18.8899   25.7309 O   0  0  0  0  0  0  0  0  0  0  0  0
   10.8255  -16.7392   28.2164 C   0  0  0  0  0  0  0  0  0  0  0  0
   11.0157  -16.3548   29.5249 C   0  0  0  0  0  0  0  0  0  0  0  0
   13.4468  -17.3440   26.7094 O   0  0  0  0  0  0  0  0  0  0  0  0
  2  1  1  1
  2  3  1  0
  3  4  1  0
  4  5  2  0
  5  6  1  0
  7  6  2  0
  8  7  1  0
  9  4  1  0
  9  8  2  0
 10 11  2  0
 10  2  1  0
 12 10  1  0
 13 18  1  0
 13 12  1  0
 13 14  1  6
 15 14  1  0
 16 15  1  0
 17 16  2  0
 18 28  1  0
 19 18  2  0
 20 16  1  0
 22 21  1  0
 23 22  2  0
 24 23  1  0
 25 24  2  0
 25 31  1  0
 26 25  1  0
 27 26  1  1
 28 27  1  0
 29 27  1  0
 30 29  2  0
 31 32  2  0
 32 22  1  0
 33 29  1  0
M  END
$$$$
