FEY.pdb
     RDKit          3D

 33 34  0  0  1  0  0  0  0  0999 V2000
    6.6708  -17.0691   25.9314 N   0  0  0  0  0  0  0  0  0  0  0  0
    6.9124  -16.9135   24.5307 C   0  0  1  0  0  0  0  0  0  0  0  0
    6.3727  -15.5787   24.0113 C   0  0  0  0  0  0  0  0  0  0  0  0
    6.9304  -14.5136   24.8584 C   0  0  0  0  0  0  0  0  0  0  0  0
    6.2924  -14.1666   26.0264 C   0  0  0  0  0  0  0  0  0  0  0  0
    6.7871  -13.1634   26.8593 C   0  0  0  0  0  0  0  0  0  0  0  0
    7.9491  -12.5032   26.4978 C   0  0  0  0  0  0  0  0  0  0  0  0
    8.5825  -12.8512   25.3332 C   0  0  0  0  0  0  0  0  0  0  0  0
    8.0846  -13.8490   24.5112 C   0  0  0  0  0  0  0  0  0  0  0  0
    8.3518  -16.9545   24.1958 C   0  0  0  0  0  0  0  0  0  0  0  0
    9.2012  -17.3592   25.0502 O   0  0  0  0  0  0  0  0  0  0  0  0
    8.8860  -16.5604   22.9400 N   0  0  0  0  0  0  0  0  0  0  0  0
   10.2205  -16.9510   22.4889 C   0  0  1  0  0  0  0  0  0  0  0  0
   10.2952  -16.6078   21.0265 C   0  0  0  0  0  0  0  0  0  0  0  0
    9.4233  -17.4578   20.1441 C   0  0  0  0  0  0  0  0  0  0  0  0
   10.1658  -18.6741   19.7367 C   0  0  0  0  0  0  0  0  0  0  0  0
   11.3599  -18.8028   20.0559 O   0  0  0  0  0  0  0  0  0  0  0  0
   11.2569  -16.1836   23.2217 C   0  0  0  0  0  0  0  0  0  0  0  0
   11.4860  -14.9687   22.9993 O   0  0  0  0  0  0  0  0  0  0  0  0
    9.5389  -19.6574   19.0086 O   0  0  0  0  0  0  0  0  0  0  0  0
    9.7763  -17.0003   30.3930 O   0  0  0  0  0  0  0  0  0  0  0  0
   10.4028  -16.4781   29.2638 C   0  0  0  0  0  0  0  0  0  0  0  0
    9.6623  -15.8379   28.2925 C   0  0  0  0  0  0  0  0  0  0  0  0
   10.2616  -15.3132   27.1662 C   0  0  0  0  0  0  0  0  0  0  0  0
   11.6208  -15.3918   26.9373 C   0  0  0  0  0  0  0  0  0  0  0  0
   12.2858  -14.8486   25.7345 C   0  0  0  0  0  0  0  0  0  0  0  0
   13.0007  -15.9341   25.0136 C   0  0  2  0  0  0  0  0  0  0  0  0
   12.0725  -16.7618   24.2330 N   0  0  0  0  0  0  0  0  0  0  0  0
   13.6802  -16.8250   25.9676 C   0  0  0  0  0  0  0  0  0  0  0  0
   14.5859  -16.4732   26.7713 O   0  0  0  0  0  0  0  0  0  0  0  0
   12.3516  -16.0463   27.9381 C   0  0  0  0  0  0  0  0  0  0  0  0
   11.7637  -16.5735   29.0662 C   0  0  0  0  0  0  0  0  0  0  0  0
   13.2980  -18.1778   25.9948 O   0  0  0  0  0  0  0  0  0  0  0  0
  2  1  1  1
  2  3  1  0
  3  4  1  0
  4  5  2  0
  5  6  1  0
  7  6  2  0
  8  7  1  0
  9  4  1  0
  9  8  2  0
 10 11  2  0
 10  2  1  0
 12 10  1  0
 13 18  1  0
 13 12  1  0
 13 14  1  6
 15 14  1  0
 16 15  1  0
 17 16  2  0
 18 28  1  0
 19 18  2  0
 20 16  1  0
 22 21  1  0
 23 22  2  0
 24 23  1  0
 25 24  2  0
 25 31  1  0
 26 25  1  0
 27 26  1  1
 28 27  1  0
 29 27  1  0
 30 29  2  0
 31 32  2  0
 32 22  1  0
 33 29  1  0
M  END
$$$$
