FEY.pdb
     RDKit          3D

 33 34  0  0  1  0  0  0  0  0999 V2000
    5.7538  -17.7156   25.0013 N   0  0  0  0  0  0  0  0  0  0  0  0
    6.6733  -16.6364   24.8155 C   0  0  1  0  0  0  0  0  0  0  0  0
    6.9866  -15.9300   26.1367 C   0  0  0  0  0  0  0  0  0  0  0  0
    6.6095  -14.5164   25.9854 C   0  0  0  0  0  0  0  0  0  0  0  0
    7.2610  -13.7318   25.0625 C   0  0  0  0  0  0  0  0  0  0  0  0
    6.9347  -12.3874   24.8860 C   0  0  0  0  0  0  0  0  0  0  0  0
    5.9301  -11.8332   25.6607 C   0  0  0  0  0  0  0  0  0  0  0  0
    5.2828  -12.6177   26.5796 C   0  0  0  0  0  0  0  0  0  0  0  0
    5.6128  -13.9525   26.7489 C   0  0  0  0  0  0  0  0  0  0  0  0
    7.9644  -17.0830   24.2503 C   0  0  0  0  0  0  0  0  0  0  0  0
    8.5811  -18.0730   24.7548 O   0  0  0  0  0  0  0  0  0  0  0  0
    8.5996  -16.4671   23.1390 N   0  0  0  0  0  0  0  0  0  0  0  0
    9.9233  -16.8645   22.6627 C   0  0  1  0  0  0  0  0  0  0  0  0
   10.0392  -16.3599   21.2506 C   0  0  0  0  0  0  0  0  0  0  0  0
   11.3075  -16.7619   20.5499 C   0  0  0  0  0  0  0  0  0  0  0  0
   11.0442  -16.9213   19.1001 C   0  0  0  0  0  0  0  0  0  0  0  0
   11.2698  -15.9762   18.3254 O   0  0  0  0  0  0  0  0  0  0  0  0
   10.9795  -16.2346   23.4920 C   0  0  0  0  0  0  0  0  0  0  0  0
   11.1175  -14.9895   23.5847 O   0  0  0  0  0  0  0  0  0  0  0  0
   10.5523  -18.1084   18.6115 O   0  0  0  0  0  0  0  0  0  0  0  0
    9.7555  -14.2190   29.8741 O   0  0  0  0  0  0  0  0  0  0  0  0
   10.6160  -14.8715   28.9941 C   0  0  0  0  0  0  0  0  0  0  0  0
   11.6490  -14.1826   28.3942 C   0  0  0  0  0  0  0  0  0  0  0  0
   12.5131  -14.8083   27.5196 C   0  0  0  0  0  0  0  0  0  0  0  0
   12.4049  -16.1446   27.1899 C   0  0  0  0  0  0  0  0  0  0  0  0
   13.3096  -16.8357   26.2478 C   0  0  0  0  0  0  0  0  0  0  0  0
   13.0812  -16.3396   24.8654 C   0  0  2  0  0  0  0  0  0  0  0  0
   11.9187  -16.9896   24.2473 N   0  0  0  0  0  0  0  0  0  0  0  0
   14.2457  -16.6320   24.0145 C   0  0  0  0  0  0  0  0  0  0  0  0
   15.4242  -16.2429   24.2378 O   0  0  0  0  0  0  0  0  0  0  0  0
   11.3482  -16.8230   27.8120 C   0  0  0  0  0  0  0  0  0  0  0  0
   10.4801  -16.2083   28.6865 C   0  0  0  0  0  0  0  0  0  0  0  0
   14.0411  -17.4055   22.8583 O   0  0  0  0  0  0  0  0  0  0  0  0
  2  1  1  1
  2  3  1  0
  3  4  1  0
  4  5  2  0
  5  6  1  0
  7  6  2  0
  8  7  1  0
  9  4  1  0
  9  8  2  0
 10 11  2  0
 10  2  1  0
 12 10  1  0
 13 18  1  0
 13 12  1  0
 13 14  1  6
 15 14  1  0
 16 15  1  0
 17 16  2  0
 18 28  1  0
 19 18  2  0
 20 16  1  0
 22 21  1  0
 23 22  2  0
 24 23  1  0
 25 24  2  0
 25 31  1  0
 26 25  1  0
 27 26  1  1
 28 27  1  0
 29 27  1  0
 30 29  2  0
 31 32  2  0
 32 22  1  0
 33 29  1  0
M  END
$$$$
