LTG.pdb
     RDKit          3D

 20 19  0  0  1  0  0  0  0  0999 V2000
   17.8037  -10.9391  -13.7289 C   0  0  0  0  0  0  0  0  0  0  0  0
   18.7431  -10.6584  -14.8752 C   0  0  1  0  0  0  0  0  0  0  0  0
   18.0331  -10.0703  -16.0754 C   0  0  0  0  0  0  0  0  0  0  0  0
   19.8312   -9.7329  -14.3797 C   0  0  0  0  0  0  0  0  0  0  0  0
   20.7933   -9.4227  -15.5078 C   0  0  2  0  0  0  0  0  0  0  0  0
   21.8109  -10.4473  -15.6567 N   0  0  0  0  0  0  0  0  0  0  0  0
   21.4847   -8.1447  -15.2612 C   0  0  0  0  0  0  0  0  0  0  0  0
   22.5802   -8.1611  -14.6553 O   0  0  0  0  0  0  0  0  0  0  0  0
   23.4233   -5.9262  -17.3986 C   0  0  0  0  0  0  0  0  0  0  0  0
   22.3404   -5.0677  -16.7446 C   0  0  1  0  0  0  0  0  0  0  0  0
   21.4363   -4.5861  -17.6574 O   0  0  0  0  0  0  0  0  0  0  0  0
   21.7687   -5.6746  -15.5310 C   0  0  2  0  0  0  0  0  0  0  0  0
   21.0342   -6.8798  -15.6429 N   0  0  0  0  0  0  0  0  0  0  0  0
   20.8756   -4.6749  -14.8852 C   0  0  0  0  0  0  0  0  0  0  0  0
   19.6286   -4.8845  -14.8194 O   0  0  0  0  0  0  0  0  0  0  0  0
   21.3312   -3.4575  -14.3148 N   0  0  0  0  0  0  0  0  0  0  0  0
   20.3742   -2.5794  -13.6404 C   0  0  0  0  0  0  0  0  0  0  0  0
   21.0122   -1.3597  -13.1356 C   0  0  0  0  0  0  0  0  0  0  0  0
   20.2491   -0.4179  -12.4757 O   0  0  0  0  0  0  0  0  0  0  0  0
   22.2369   -1.1512  -13.2893 O   0  0  0  0  0  0  0  0  0  0  0  0
  2  1  1  1
  3  2  1  0
  4  2  1  0
  5  4  1  0
  5  6  1  1
  7  5  1  0
  7  8  2  0
 10  9  1  6
 10 12  1  0
 11 10  1  0
 12 13  1  6
 13  7  1  0
 14 12  1  0
 14 16  1  0
 15 14  2  0
 16 17  1  0
 17 18  1  0
 18 20  2  0
 18 19  1  0
M  END
$$$$
