LTG.pdb
     RDKit          3D

 20 19  0  0  1  0  0  0  0  0999 V2000
   29.0063  -20.6343   -5.6778 C   0  0  0  0  0  0  0  0  0  0  0  0
   27.6800  -20.1477   -6.2062 C   0  0  1  0  0  0  0  0  0  0  0  0
   27.5201  -18.6482   -6.0779 C   0  0  0  0  0  0  0  0  0  0  0  0
   27.5550  -20.5865   -7.6477 C   0  0  0  0  0  0  0  0  0  0  0  0
   26.2550  -20.0708   -8.2295 C   0  0  2  0  0  0  0  0  0  0  0  0
   25.1016  -20.7804   -7.7066 N   0  0  0  0  0  0  0  0  0  0  0  0
   26.2454  -20.2292   -9.6948 C   0  0  0  0  0  0  0  0  0  0  0  0
   27.3133  -20.0566  -10.3251 O   0  0  0  0  0  0  0  0  0  0  0  0
   26.4321  -22.8236  -12.1210 C   0  0  0  0  0  0  0  0  0  0  0  0
   25.1742  -22.0350  -12.4857 C   0  0  1  0  0  0  0  0  0  0  0  0
   24.0328  -22.7845  -12.3510 O   0  0  0  0  0  0  0  0  0  0  0  0
   25.1352  -20.6898  -11.8879 C   0  0  2  0  0  0  0  0  0  0  0  0
   25.1386  -20.5613  -10.4780 N   0  0  0  0  0  0  0  0  0  0  0  0
   23.9209  -19.9911  -12.3893 C   0  0  0  0  0  0  0  0  0  0  0  0
   22.9752  -19.7103  -11.5955 O   0  0  0  0  0  0  0  0  0  0  0  0
   23.7338  -19.5993  -13.7407 N   0  0  0  0  0  0  0  0  0  0  0  0
   22.5837  -18.7657  -14.0928 C   0  0  0  0  0  0  0  0  0  0  0  0
   21.3828  -19.5681  -14.3450 C   0  0  0  0  0  0  0  0  0  0  0  0
   20.6945  -19.4054  -15.5301 O   0  0  0  0  0  0  0  0  0  0  0  0
   20.9654  -20.4002  -13.5083 O   0  0  0  0  0  0  0  0  0  0  0  0
  2  1  1  6
  3  2  1  0
  4  2  1  0
  5  4  1  0
  5  6  1  1
  7  5  1  0
  7  8  2  0
 10  9  1  1
 10 12  1  0
 11 10  1  0
 12 13  1  1
 13  7  1  0
 14 12  1  0
 14 16  1  0
 15 14  2  0
 16 17  1  0
 17 18  1  0
 18 20  2  0
 18 19  1  0
M  END
$$$$
