LTG.pdb
     RDKit          3D

 20 19  0  0  1  0  0  0  0  0999 V2000
   19.2891  -18.6859  -11.6948 C   0  0  0  0  0  0  0  0  0  0  0  0
   19.5544  -18.6719  -13.1797 C   0  0  1  0  0  0  0  0  0  0  0  0
   18.3823  -19.1936  -13.9826 C   0  0  0  0  0  0  0  0  0  0  0  0
   19.9046  -17.2579  -13.5847 C   0  0  0  0  0  0  0  0  0  0  0  0
   20.1561  -17.1997  -15.0773 C   0  0  2  0  0  0  0  0  0  0  0  0
   21.3641  -17.9097  -15.4570 N   0  0  0  0  0  0  0  0  0  0  0  0
   20.3052  -15.8027  -15.5225 C   0  0  0  0  0  0  0  0  0  0  0  0
   21.4549  -15.3103  -15.5820 O   0  0  0  0  0  0  0  0  0  0  0  0
   19.5608  -14.1023  -18.8980 C   0  0  0  0  0  0  0  0  0  0  0  0
   18.8688  -13.3459  -17.7637 C   0  0  1  0  0  0  0  0  0  0  0  0
   17.5013  -13.3970  -17.8626 O   0  0  0  0  0  0  0  0  0  0  0  0
   19.4299  -13.6453  -16.4356 C   0  0  2  0  0  0  0  0  0  0  0  0
   19.2697  -14.9444  -15.8961 N   0  0  0  0  0  0  0  0  0  0  0  0
   18.8472  -12.6885  -15.4561 C   0  0  0  0  0  0  0  0  0  0  0  0
   18.0119  -13.0907  -14.5937 O   0  0  0  0  0  0  0  0  0  0  0  0
   19.1682  -11.3065  -15.4119 N   0  0  0  0  0  0  0  0  0  0  0  0
   18.4703  -10.4385  -14.4626 C   0  0  0  0  0  0  0  0  0  0  0  0
   18.8757   -9.0365  -14.6029 C   0  0  0  0  0  0  0  0  0  0  0  0
   18.2138   -8.0634  -13.8820 O   0  0  0  0  0  0  0  0  0  0  0  0
   19.8110   -8.6998  -15.3635 O   0  0  0  0  0  0  0  0  0  0  0  0
  2  1  1  1
  3  2  1  0
  4  2  1  0
  5  4  1  0
  5  6  1  1
  7  5  1  0
  7  8  2  0
 10  9  1  6
 10 12  1  0
 11 10  1  0
 12 13  1  1
 13  7  1  0
 14 12  1  0
 14 16  1  0
 15 14  2  0
 16 17  1  0
 17 18  1  0
 18 20  2  0
 18 19  1  0
M  END
$$$$
