LTG.pdb
     RDKit          3D

 20 19  0  0  1  0  0  0  0  0999 V2000
   25.0789  -14.6056  -15.2243 C   0  0  0  0  0  0  0  0  0  0  0  0
   23.8737  -14.1920  -16.0317 C   0  0  1  0  0  0  0  0  0  0  0  0
   22.5702  -14.5690  -15.3616 C   0  0  0  0  0  0  0  0  0  0  0  0
   23.9519  -12.7007  -16.2686 C   0  0  0  0  0  0  0  0  0  0  0  0
   22.7279  -12.2382  -17.0317 C   0  0  2  0  0  0  0  0  0  0  0  0
   22.6182  -12.8780  -18.3302 N   0  0  0  0  0  0  0  0  0  0  0  0
   22.7792  -10.7827  -17.2583 C   0  0  0  0  0  0  0  0  0  0  0  0
   23.5533  -10.3381  -18.1362 O   0  0  0  0  0  0  0  0  0  0  0  0
   20.4107   -8.4339  -18.8394 C   0  0  0  0  0  0  0  0  0  0  0  0
   20.7554   -7.8716  -17.4601 C   0  0  1  0  0  0  0  0  0  0  0  0
   19.6680   -7.8410  -16.6240 O   0  0  0  0  0  0  0  0  0  0  0  0
   21.9894   -8.4385  -16.8908 C   0  0  2  0  0  0  0  0  0  0  0  0
   22.0339   -9.8185  -16.5777 N   0  0  0  0  0  0  0  0  0  0  0  0
   22.3126   -7.6948  -15.6431 C   0  0  0  0  0  0  0  0  0  0  0  0
   22.1193   -8.2331  -14.5134 O   0  0  0  0  0  0  0  0  0  0  0  0
   22.8418   -6.3779  -15.6206 N   0  0  0  0  0  0  0  0  0  0  0  0
   23.1125   -5.7359  -14.3336 C   0  0  0  0  0  0  0  0  0  0  0  0
   21.9679   -4.9500  -13.8627 C   0  0  0  0  0  0  0  0  0  0  0  0
   22.0636   -4.2579  -12.6725 O   0  0  0  0  0  0  0  0  0  0  0  0
   20.9021   -4.8913  -14.5166 O   0  0  0  0  0  0  0  0  0  0  0  0
  2  1  1  1
  3  2  1  0
  4  2  1  0
  5  4  1  0
  5  6  1  6
  7  5  1  0
  7  8  2  0
 10  9  1  6
 10 12  1  0
 11 10  1  0
 12 13  1  1
 13  7  1  0
 14 12  1  0
 14 16  1  0
 15 14  2  0
 16 17  1  0
 17 18  1  0
 18 20  2  0
 18 19  1  0
M  END
$$$$
