LTG.pdb
     RDKit          3D

 20 19  0  0  1  0  0  0  0  0999 V2000
   26.9121  -14.1210  -16.2887 C   0  0  0  0  0  0  0  0  0  0  0  0
   25.4119  -14.1003  -16.1326 C   0  0  1  0  0  0  0  0  0  0  0  0
   24.9708  -14.4466  -14.7269 C   0  0  0  0  0  0  0  0  0  0  0  0
   24.9128  -12.7317  -16.5375 C   0  0  0  0  0  0  0  0  0  0  0  0
   23.4023  -12.6858  -16.4343 C   0  0  2  0  0  0  0  0  0  0  0  0
   22.7609  -13.5611  -17.3986 N   0  0  0  0  0  0  0  0  0  0  0  0
   22.9084  -11.3191  -16.6800 C   0  0  0  0  0  0  0  0  0  0  0  0
   23.0331  -10.8320  -17.8266 O   0  0  0  0  0  0  0  0  0  0  0  0
   19.6860   -9.8604  -17.4058 C   0  0  0  0  0  0  0  0  0  0  0  0
   20.2173   -9.1769  -16.1456 C   0  0  1  0  0  0  0  0  0  0  0  0
   19.5047   -9.5240  -15.0256 O   0  0  0  0  0  0  0  0  0  0  0  0
   21.6831   -9.2408  -16.0214 C   0  0  2  0  0  0  0  0  0  0  0  0
   22.2980  -10.4850  -15.7417 N   0  0  0  0  0  0  0  0  0  0  0  0
   22.1029   -8.2939  -14.9530 C   0  0  0  0  0  0  0  0  0  0  0  0
   22.7073   -8.7213  -13.9257 O   0  0  0  0  0  0  0  0  0  0  0  0
   21.8695   -6.8945  -14.9984 N   0  0  0  0  0  0  0  0  0  0  0  0
   22.1859   -6.0765  -13.8270 C   0  0  0  0  0  0  0  0  0  0  0  0
   21.9943   -4.6469  -14.0897 C   0  0  0  0  0  0  0  0  0  0  0  0
   22.2028   -3.7363  -13.0738 O   0  0  0  0  0  0  0  0  0  0  0  0
   21.6449   -4.2309  -15.2174 O   0  0  0  0  0  0  0  0  0  0  0  0
  2  1  1  1
  3  2  1  0
  4  2  1  0
  5  4  1  0
  5  6  1  6
  7  5  1  0
  7  8  2  0
 10  9  1  6
 10 12  1  0
 11 10  1  0
 12 13  1  1
 13  7  1  0
 14 12  1  0
 14 16  1  0
 15 14  2  0
 16 17  1  0
 17 18  1  0
 18 20  2  0
 18 19  1  0
M  END
$$$$
