LTG.pdb
     RDKit          3D

 20 19  0  0  1  0  0  0  0  0999 V2000
   19.7141  -13.5172  -18.2248 C   0  0  0  0  0  0  0  0  0  0  0  0
   20.2104  -12.1354  -18.5707 C   0  0  1  0  0  0  0  0  0  0  0  0
   19.7153  -11.6631  -19.9207 C   0  0  0  0  0  0  0  0  0  0  0  0
   19.7804  -11.1894  -17.4724 C   0  0  0  0  0  0  0  0  0  0  0  0
   20.3133   -9.8000  -17.7550 C   0  0  2  0  0  0  0  0  0  0  0  0
   21.7569   -9.7880  -17.9081 N   0  0  0  0  0  0  0  0  0  0  0  0
   19.9776   -8.8829  -16.6511 C   0  0  0  0  0  0  0  0  0  0  0  0
   18.9423   -9.1015  -15.9819 O   0  0  0  0  0  0  0  0  0  0  0  0
   20.8149   -8.5128  -13.2330 C   0  0  0  0  0  0  0  0  0  0  0  0
   21.1478   -7.1687  -13.8813 C   0  0  1  0  0  0  0  0  0  0  0  0
   22.4972   -6.9218  -13.9037 O   0  0  0  0  0  0  0  0  0  0  0  0
   20.4300   -6.9375  -15.1461 C   0  0  2  0  0  0  0  0  0  0  0  0
   20.7136   -7.7628  -16.2609 N   0  0  0  0  0  0  0  0  0  0  0  0
   20.6702   -5.5312  -15.5689 C   0  0  0  0  0  0  0  0  0  0  0  0
   21.4102   -5.2843  -16.5662 O   0  0  0  0  0  0  0  0  0  0  0  0
   20.1118   -4.4014  -14.9156 N   0  0  0  0  0  0  0  0  0  0  0  0
   20.3713   -3.0638  -15.4494 C   0  0  0  0  0  0  0  0  0  0  0  0
   19.6873   -2.0234  -14.6753 C   0  0  0  0  0  0  0  0  0  0  0  0
   19.8920   -0.6960  -14.9931 O   0  0  0  0  0  0  0  0  0  0  0  0
   18.9194   -2.3111  -13.7296 O   0  0  0  0  0  0  0  0  0  0  0  0
  2  1  1  1
  3  2  1  0
  4  2  1  0
  5  4  1  0
  5  6  1  1
  7  5  1  0
  7  8  2  0
 10  9  1  6
 10 12  1  0
 11 10  1  0
 12 13  1  6
 13  7  1  0
 14 12  1  0
 14 16  1  0
 15 14  2  0
 16 17  1  0
 17 18  1  0
 18 20  2  0
 18 19  1  0
M  END
$$$$
