LTG.pdb
     RDKit          3D

 20 19  0  0  1  0  0  0  0  0999 V2000
   18.2191  -14.0801  -16.6746 C   0  0  0  0  0  0  0  0  0  0  0  0
   19.3484  -13.0822  -16.6106 C   0  0  1  0  0  0  0  0  0  0  0  0
   20.1614  -13.0446  -17.8866 C   0  0  0  0  0  0  0  0  0  0  0  0
   18.7626  -11.7237  -16.2989 C   0  0  0  0  0  0  0  0  0  0  0  0
   19.8724  -10.6976  -16.1990 C   0  0  2  0  0  0  0  0  0  0  0  0
   20.8791  -11.0734  -15.2228 N   0  0  0  0  0  0  0  0  0  0  0  0
   19.3309   -9.3878  -15.7947 C   0  0  0  0  0  0  0  0  0  0  0  0
   18.5586   -8.7891  -16.5775 O   0  0  0  0  0  0  0  0  0  0  0  0
   16.6503   -8.4076  -13.3423 C   0  0  0  0  0  0  0  0  0  0  0  0
   17.9809   -7.7562  -12.9647 C   0  0  1  0  0  0  0  0  0  0  0  0
   18.5266   -8.3061  -11.8322 O   0  0  0  0  0  0  0  0  0  0  0  0
   18.8960   -7.5943  -14.1069 C   0  0  2  0  0  0  0  0  0  0  0  0
   19.5956   -8.7240  -14.5956 N   0  0  0  0  0  0  0  0  0  0  0  0
   19.9135   -6.5694  -13.7485 C   0  0  0  0  0  0  0  0  0  0  0  0
   19.5544   -5.4683  -13.2368 O   0  0  0  0  0  0  0  0  0  0  0  0
   21.3096   -6.7374  -13.9429 N   0  0  0  0  0  0  0  0  0  0  0  0
   22.2260   -5.6826  -13.5081 C   0  0  0  0  0  0  0  0  0  0  0  0
   22.2785   -4.5740  -14.4661 C   0  0  0  0  0  0  0  0  0  0  0  0
   23.1246   -3.5102  -14.2272 O   0  0  0  0  0  0  0  0  0  0  0  0
   21.5717   -4.5692  -15.4992 O   0  0  0  0  0  0  0  0  0  0  0  0
  2  1  1  6
  3  2  1  0
  4  2  1  0
  5  4  1  0
  5  6  1  1
  7  5  1  0
  7  8  2  0
 10  9  1  6
 10 12  1  0
 11 10  1  0
 12 13  1  1
 13  7  1  0
 14 12  1  0
 14 16  1  0
 15 14  2  0
 16 17  1  0
 17 18  1  0
 18 20  2  0
 18 19  1  0
M  END
$$$$
