LTG.pdb
     RDKit          3D

 20 19  0  0  1  0  0  0  0  0999 V2000
   26.1704  -20.7442   -9.8972 C   0  0  0  0  0  0  0  0  0  0  0  0
   26.3971  -21.0144  -11.3638 C   0  0  1  0  0  0  0  0  0  0  0  0
   25.9985  -22.4189  -11.7625 C   0  0  0  0  0  0  0  0  0  0  0  0
   25.6278  -19.9842  -12.1593 C   0  0  0  0  0  0  0  0  0  0  0  0
   25.7958  -20.2507  -13.6410 C   0  0  2  0  0  0  0  0  0  0  0  0
   27.0125  -19.6603  -14.1688 N   0  0  0  0  0  0  0  0  0  0  0  0
   24.6649  -19.6867  -14.3994 C   0  0  0  0  0  0  0  0  0  0  0  0
   24.5801  -18.4430  -14.5160 O   0  0  0  0  0  0  0  0  0  0  0  0
   22.7866  -21.2841  -17.7300 C   0  0  0  0  0  0  0  0  0  0  0  0
   22.4652  -19.9055  -17.1525 C   0  0  1  0  0  0  0  0  0  0  0  0
   21.3493  -19.3489  -17.7246 O   0  0  0  0  0  0  0  0  0  0  0  0
   22.5250  -19.8608  -15.6819 C   0  0  2  0  0  0  0  0  0  0  0  0
   23.6478  -20.4138  -15.0201 N   0  0  0  0  0  0  0  0  0  0  0  0
   21.3179  -20.5452  -15.1445 C   0  0  0  0  0  0  0  0  0  0  0  0
   21.4066  -21.7196  -14.6794 O   0  0  0  0  0  0  0  0  0  0  0  0
   20.0249  -19.9606  -15.1112 N   0  0  0  0  0  0  0  0  0  0  0  0
   18.9050  -20.7278  -14.5645 C   0  0  0  0  0  0  0  0  0  0  0  0
   18.4013  -21.7181  -15.5211 C   0  0  0  0  0  0  0  0  0  0  0  0
   17.2758  -22.4528  -15.2079 O   0  0  0  0  0  0  0  0  0  0  0  0
   18.9695  -21.9138  -16.6192 O   0  0  0  0  0  0  0  0  0  0  0  0
  2  1  1  1
  3  2  1  0
  4  2  1  0
  5  4  1  0
  5  6  1  6
  7  5  1  0
  7  8  2  0
 10  9  1  1
 10 12  1  0
 11 10  1  0
 12 13  1  1
 13  7  1  0
 14 12  1  0
 14 16  1  0
 15 14  2  0
 16 17  1  0
 17 18  1  0
 18 20  2  0
 18 19  1  0
M  END
$$$$
