LTG.pdb
     RDKit          3D

 20 19  0  0  1  0  0  0  0  0999 V2000
   29.0599  -18.5857   -4.8120 C   0  0  0  0  0  0  0  0  0  0  0  0
   28.2751  -19.7279   -5.4077 C   0  0  1  0  0  0  0  0  0  0  0  0
   27.2246  -20.2654   -4.4601 C   0  0  0  0  0  0  0  0  0  0  0  0
   27.6495  -19.2499   -6.6985 C   0  0  0  0  0  0  0  0  0  0  0  0
   27.1738  -20.4383   -7.5084 C   0  0  2  0  0  0  0  0  0  0  0  0
   28.2208  -21.4260   -7.6978 N   0  0  0  0  0  0  0  0  0  0  0  0
   26.7249  -20.0073   -8.8444 C   0  0  0  0  0  0  0  0  0  0  0  0
   27.3782  -19.1217   -9.4413 O   0  0  0  0  0  0  0  0  0  0  0  0
   27.4844  -20.9155  -11.9831 C   0  0  0  0  0  0  0  0  0  0  0  0
   25.9660  -21.0863  -11.9299 C   0  0  1  0  0  0  0  0  0  0  0  0
   25.5894  -22.4053  -11.9589 O   0  0  0  0  0  0  0  0  0  0  0  0
   25.3213  -20.2553  -10.8994 C   0  0  2  0  0  0  0  0  0  0  0  0
   25.6151  -20.4965   -9.5356 N   0  0  0  0  0  0  0  0  0  0  0  0
   23.8466  -20.3749  -11.0583 C   0  0  0  0  0  0  0  0  0  0  0  0
   23.1623  -20.9990  -10.1949 O   0  0  0  0  0  0  0  0  0  0  0  0
   23.1197  -19.8215  -12.1447 N   0  0  0  0  0  0  0  0  0  0  0  0
   21.6658  -19.9823  -12.1904 C   0  0  0  0  0  0  0  0  0  0  0  0
   21.2608  -21.0348  -13.1274 C   0  0  0  0  0  0  0  0  0  0  0  0
   20.2833  -20.7694  -14.0648 O   0  0  0  0  0  0  0  0  0  0  0  0
   21.7822  -22.1724  -13.0974 O   0  0  0  0  0  0  0  0  0  0  0  0
  2  1  1  1
  3  2  1  0
  4  2  1  0
  5  4  1  0
  5  6  1  6
  7  5  1  0
  7  8  2  0
 10  9  1  1
 10 12  1  0
 11 10  1  0
 12 13  1  1
 13  7  1  0
 14 12  1  0
 14 16  1  0
 15 14  2  0
 16 17  1  0
 17 18  1  0
 18 20  2  0
 18 19  1  0
M  END
$$$$
