LTG.pdb
     RDKit          3D

 20 19  0  0  1  0  0  0  0  0999 V2000
   29.0793  -20.4481   -5.3073 C   0  0  0  0  0  0  0  0  0  0  0  0
   27.7611  -19.9346   -5.8306 C   0  0  1  0  0  0  0  0  0  0  0  0
   27.7475  -18.4296   -5.9897 C   0  0  0  0  0  0  0  0  0  0  0  0
   27.4734  -20.6230   -7.1457 C   0  0  0  0  0  0  0  0  0  0  0  0
   26.0955  -20.2318   -7.6382 C   0  0  2  0  0  0  0  0  0  0  0  0
   25.0492  -20.6385   -6.7177 N   0  0  0  0  0  0  0  0  0  0  0  0
   25.8119  -20.8652   -8.9385 C   0  0  0  0  0  0  0  0  0  0  0  0
   25.4547  -22.0651   -8.9573 O   0  0  0  0  0  0  0  0  0  0  0  0
   23.1327  -21.2169  -11.4775 C   0  0  0  0  0  0  0  0  0  0  0  0
   24.3503  -20.5466  -12.1145 C   0  0  1  0  0  0  0  0  0  0  0  0
   24.1320  -19.2191  -12.3838 O   0  0  0  0  0  0  0  0  0  0  0  0
   25.6154  -20.8653  -11.4316 C   0  0  2  0  0  0  0  0  0  0  0  0
   25.9020  -20.2509  -10.1887 N   0  0  0  0  0  0  0  0  0  0  0  0
   26.7380  -20.5383  -12.3519 C   0  0  0  0  0  0  0  0  0  0  0  0
   27.5887  -19.6574  -12.0298 O   0  0  0  0  0  0  0  0  0  0  0  0
   26.9369  -21.1620  -13.6115 N   0  0  0  0  0  0  0  0  0  0  0  0
   28.1104  -20.8063  -14.4102 C   0  0  0  0  0  0  0  0  0  0  0  0
   28.1602  -21.5517  -15.6717 C   0  0  0  0  0  0  0  0  0  0  0  0
   29.2082  -21.3396  -16.5443 O   0  0  0  0  0  0  0  0  0  0  0  0
   27.2718  -22.3787  -15.9774 O   0  0  0  0  0  0  0  0  0  0  0  0
  2  1  1  6
  3  2  1  0
  4  2  1  0
  5  4  1  0
  5  6  1  1
  7  5  1  0
  7  8  2  0
 10  9  1  1
 10 12  1  0
 11 10  1  0
 12 13  1  1
 13  7  1  0
 14 12  1  0
 14 16  1  0
 15 14  2  0
 16 17  1  0
 17 18  1  0
 18 20  2  0
 18 19  1  0
M  END
$$$$
