LTG.pdb
     RDKit          3D

 20 19  0  0  1  0  0  0  0  0999 V2000
   25.7825  -12.9052  -17.6234 C   0  0  0  0  0  0  0  0  0  0  0  0
   24.4392  -12.9846  -16.9419 C   0  0  1  0  0  0  0  0  0  0  0  0
   24.5571  -13.2718  -15.4606 C   0  0  0  0  0  0  0  0  0  0  0  0
   23.7065  -11.6850  -17.1871 C   0  0  0  0  0  0  0  0  0  0  0  0
   22.3228  -11.7532  -16.5744 C   0  0  2  0  0  0  0  0  0  0  0  0
   21.4535  -12.6722  -17.2865 N   0  0  0  0  0  0  0  0  0  0  0  0
   21.6803  -10.4270  -16.5991 C   0  0  0  0  0  0  0  0  0  0  0  0
   21.3644   -9.9328  -17.7052 O   0  0  0  0  0  0  0  0  0  0  0  0
   18.3641   -9.0001  -16.2102 C   0  0  0  0  0  0  0  0  0  0  0  0
   19.2692   -8.3545  -15.1608 C   0  0  1  0  0  0  0  0  0  0  0  0
   18.9554   -8.7542  -13.8863 O   0  0  0  0  0  0  0  0  0  0  0  0
   20.6975   -8.3984  -15.5159 C   0  0  2  0  0  0  0  0  0  0  0  0
   21.3776   -9.6399  -15.4868 N   0  0  0  0  0  0  0  0  0  0  0  0
   21.4325   -7.4742  -14.6104 C   0  0  0  0  0  0  0  0  0  0  0  0
   22.2824   -7.9298  -13.7898 O   0  0  0  0  0  0  0  0  0  0  0  0
   21.2476   -6.0669  -14.5952 N   0  0  0  0  0  0  0  0  0  0  0  0
   22.0778   -5.2443  -13.7145 C   0  0  0  0  0  0  0  0  0  0  0  0
   21.7972   -3.8144  -13.8762 C   0  0  0  0  0  0  0  0  0  0  0  0
   20.8861   -3.4050  -14.8286 O   0  0  0  0  0  0  0  0  0  0  0  0
   22.3662   -2.9527  -13.1686 O   0  0  0  0  0  0  0  0  0  0  0  0
  2  1  1  1
  3  2  1  0
  4  2  1  0
  5  4  1  0
  5  6  1  6
  7  5  1  0
  7  8  2  0
 10  9  1  6
 10 12  1  0
 11 10  1  0
 12 13  1  1
 13  7  1  0
 14 12  1  0
 14 16  1  0
 15 14  2  0
 16 17  1  0
 17 18  1  0
 18 20  2  0
 18 19  1  0
M  END
$$$$
