FMN.pdb
     RDKit          3D

 28 28  0  0  1  0  0  0  0  0999 V2000
   27.5274  -21.0712  -16.3626 N   0  0  0  0  0  0  0  0  0  0  0  0
   27.2937  -20.1315  -15.2930 C   0  0  1  0  0  0  0  0  0  0  0  0
   26.7510  -18.8551  -15.8625 C   0  0  0  0  0  0  0  0  0  0  0  0
   27.8210  -18.1520  -16.5904 C   0  0  0  0  0  0  0  0  0  0  0  0
   28.7324  -17.3301  -15.9569 C   0  0  0  0  0  0  0  0  0  0  0  0
   29.7349  -16.6776  -16.6708 C   0  0  0  0  0  0  0  0  0  0  0  0
   29.8396  -16.8397  -18.0379 C   0  0  0  0  0  0  0  0  0  0  0  0
   28.9444  -17.6482  -18.6669 C   0  0  0  0  0  0  0  0  0  0  0  0
   27.9543  -18.2923  -17.9597 C   0  0  0  0  0  0  0  0  0  0  0  0
   26.4434  -20.7617  -14.2832 C   0  0  0  0  0  0  0  0  0  0  0  0
   25.6623  -21.6867  -14.6657 O   0  0  0  0  0  0  0  0  0  0  0  0
   26.0459  -19.3392   -7.9480 C   0  0  0  0  0  0  0  0  0  0  0  0
   25.1767  -20.9287   -7.9906 S   0  0  0  0  0  0  0  0  0  0  0  0
   24.6798  -21.2549   -9.7098 C   0  0  0  0  0  0  0  0  0  0  0  0
   25.7573  -20.6796  -10.6041 C   0  0  0  0  0  0  0  0  0  0  0  0
   25.3902  -20.9462  -12.0370 C   0  0  2  0  0  0  0  0  0  0  0  0
   26.4138  -20.4317  -12.9174 N   0  0  0  0  0  0  0  0  0  0  0  0
   24.0434  -20.4562  -12.3985 C   0  0  0  0  0  0  0  0  0  0  0  0
   23.9524  -19.2905  -12.8638 O   0  0  0  0  0  0  0  0  0  0  0  0
   21.0646  -18.8148  -14.3711 N   0  0  0  0  0  0  0  0  0  0  0  0
   21.3135  -20.0131  -15.0771 C   0  0  0  0  0  0  0  0  0  0  0  0
   21.3225  -20.0691  -16.3227 O   0  0  0  0  0  0  0  0  0  0  0  0
   21.5684  -21.2233  -14.2634 C   0  0  0  0  0  0  0  0  0  0  0  0
   21.5805  -20.8532  -12.8158 C   0  0  2  0  0  0  0  0  0  0  0  0
   22.8741  -21.2275  -12.2467 N   0  0  0  0  0  0  0  0  0  0  0  0
   20.5503  -21.5393  -12.0049 C   0  0  0  0  0  0  0  0  0  0  0  0
   20.7517  -22.6993  -11.5037 O   0  0  0  0  0  0  0  0  0  0  0  0
   19.2957  -21.0044  -11.7145 O   0  0  0  0  0  0  0  0  0  0  0  0
  2  3  1  0
  2  1  1  6
  4  3  1  0
  5  4  2  0
  6  5  1  0
  7  8  1  0
  7  6  2  0
  8  9  2  0
  9  4  1  0
 10 11  2  0
 10  2  1  0
 13 12  1  0
 14 13  1  0
 15 14  1  0
 16 15  1  1
 16 17  1  0
 17 10  1  0
 18 25  1  0
 18 16  1  0
 19 18  2  0
 20 21  1  0
 21 22  2  0
 23 21  1  0
 24 23  1  6
 24 25  1  0
 26 24  1  0
 26 28  1  0
 27 26  2  0
M  END
$$$$
