FMN.pdb
     RDKit          3D

 28 28  0  0  1  0  0  0  0  0999 V2000
   23.7455  -19.5943  -16.2227 N   0  0  0  0  0  0  0  0  0  0  0  0
   22.5946  -19.2863  -15.4087 C   0  0  1  0  0  0  0  0  0  0  0  0
   21.3842  -19.1649  -16.2850 C   0  0  0  0  0  0  0  0  0  0  0  0
   21.5955  -18.0826  -17.2613 C   0  0  0  0  0  0  0  0  0  0  0  0
   22.0888  -18.3147  -18.5303 C   0  0  0  0  0  0  0  0  0  0  0  0
   22.2783  -17.2715  -19.4337 C   0  0  0  0  0  0  0  0  0  0  0  0
   21.9748  -15.9727  -19.0769 C   0  0  0  0  0  0  0  0  0  0  0  0
   21.4887  -15.7385  -17.8282 C   0  0  0  0  0  0  0  0  0  0  0  0
   21.3020  -16.7708  -16.9367 C   0  0  0  0  0  0  0  0  0  0  0  0
   22.4830  -20.2847  -14.3453 C   0  0  0  0  0  0  0  0  0  0  0  0
   23.5164  -20.9689  -14.0697 O   0  0  0  0  0  0  0  0  0  0  0  0
   25.4318  -21.0230   -9.8163 C   0  0  0  0  0  0  0  0  0  0  0  0
   23.8341  -20.4840   -9.1523 S   0  0  0  0  0  0  0  0  0  0  0  0
   22.5201  -21.2771  -10.1288 C   0  0  0  0  0  0  0  0  0  0  0  0
   22.4570  -20.5600  -11.4605 C   0  0  0  0  0  0  0  0  0  0  0  0
   21.3930  -21.2019  -12.3059 C   0  0  2  0  0  0  0  0  0  0  0  0
   21.3251  -20.5559  -13.5965 N   0  0  0  0  0  0  0  0  0  0  0  0
   20.0742  -21.2643  -11.6414 C   0  0  0  0  0  0  0  0  0  0  0  0
   19.8386  -20.4259  -10.7331 O   0  0  0  0  0  0  0  0  0  0  0  0
   19.2005  -24.3736   -7.8227 N   0  0  0  0  0  0  0  0  0  0  0  0
   19.3792  -24.6463   -9.1974 C   0  0  0  0  0  0  0  0  0  0  0  0
   19.2426  -25.7884   -9.6788 O   0  0  0  0  0  0  0  0  0  0  0  0
   19.7422  -23.4998  -10.0609 C   0  0  0  0  0  0  0  0  0  0  0  0
   18.6841  -23.3063  -11.0980 C   0  0  2  0  0  0  0  0  0  0  0  0
   19.0839  -22.2087  -11.9770 N   0  0  0  0  0  0  0  0  0  0  0  0
   17.3571  -22.9453  -10.5517 C   0  0  0  0  0  0  0  0  0  0  0  0
   16.5199  -23.8366  -10.1753 O   0  0  0  0  0  0  0  0  0  0  0  0
   16.9021  -21.6362  -10.3969 O   0  0  0  0  0  0  0  0  0  0  0  0
  2  3  1  0
  2  1  1  6
  4  3  1  0
  5  4  2  0
  6  5  1  0
  7  8  1  0
  7  6  2  0
  8  9  2  0
  9  4  1  0
 10 11  2  0
 10  2  1  0
 13 12  1  0
 14 13  1  0
 15 14  1  0
 16 15  1  1
 16 17  1  0
 17 10  1  0
 18 25  1  0
 18 16  1  0
 19 18  2  0
 20 21  1  0
 21 22  2  0
 23 21  1  0
 24 23  1  1
 24 25  1  0
 26 24  1  0
 26 28  1  0
 27 26  2  0
M  END
$$$$
