FMN.pdb
     RDKit          3D

 28 28  0  0  1  0  0  0  0  0999 V2000
   20.7134  -14.7788  -17.2766 N   0  0  0  0  0  0  0  0  0  0  0  0
   20.7595  -13.4507  -17.8387 C   0  0  1  0  0  0  0  0  0  0  0  0
   19.4214  -13.1120  -18.4242 C   0  0  0  0  0  0  0  0  0  0  0  0
   19.1843  -13.9469  -19.6141 C   0  0  0  0  0  0  0  0  0  0  0  0
   19.9284  -13.8181  -20.7705 C   0  0  0  0  0  0  0  0  0  0  0  0
   19.6823  -14.6218  -21.8812 C   0  0  0  0  0  0  0  0  0  0  0  0
   18.6812  -15.5720  -21.8497 C   0  0  0  0  0  0  0  0  0  0  0  0
   17.9452  -15.7032  -20.7132 C   0  0  0  0  0  0  0  0  0  0  0  0
   18.1899  -14.9079  -19.6163 C   0  0  0  0  0  0  0  0  0  0  0  0
   21.2346  -12.5178  -16.8169 C   0  0  0  0  0  0  0  0  0  0  0  0
   20.9517  -12.7767  -15.6065 O   0  0  0  0  0  0  0  0  0  0  0  0
   27.0230  -11.5756  -14.4448 C   0  0  0  0  0  0  0  0  0  0  0  0
   26.3493  -11.2690  -16.0989 S   0  0  0  0  0  0  0  0  0  0  0  0
   24.5596  -11.5910  -16.0485 C   0  0  0  0  0  0  0  0  0  0  0  0
   23.8635  -10.2470  -16.0182 C   0  0  0  0  0  0  0  0  0  0  0  0
   22.3780  -10.4721  -15.9825 C   0  0  2  0  0  0  0  0  0  0  0  0
   21.9814  -11.3520  -17.0578 N   0  0  0  0  0  0  0  0  0  0  0  0
   21.5949   -9.2186  -15.9677 C   0  0  0  0  0  0  0  0  0  0  0  0
   21.2309   -8.7453  -17.0755 O   0  0  0  0  0  0  0  0  0  0  0  0
   18.4988   -9.0674  -12.0691 N   0  0  0  0  0  0  0  0  0  0  0  0
   18.6820   -8.4741  -13.3382 C   0  0  0  0  0  0  0  0  0  0  0  0
   18.0635   -8.8532  -14.3524 O   0  0  0  0  0  0  0  0  0  0  0  0
   19.6565   -7.3625  -13.4179 C   0  0  0  0  0  0  0  0  0  0  0  0
   20.3369   -7.3947  -14.7478 C   0  0  2  0  0  0  0  0  0  0  0  0
   21.2436   -8.5410  -14.7834 N   0  0  0  0  0  0  0  0  0  0  0  0
   21.1592   -6.1993  -15.0384 C   0  0  0  0  0  0  0  0  0  0  0  0
   22.4091   -6.2898  -15.2971 O   0  0  0  0  0  0  0  0  0  0  0  0
   20.6672   -4.8947  -15.0595 O   0  0  0  0  0  0  0  0  0  0  0  0
  2  3  1  0
  2  1  1  1
  4  3  1  0
  5  4  2  0
  6  5  1  0
  7  8  1  0
  7  6  2  0
  8  9  2  0
  9  4  1  0
 10 11  2  0
 10  2  1  0
 13 12  1  0
 14 13  1  0
 15 14  1  0
 16 15  1  6
 16 17  1  0
 17 10  1  0
 18 25  1  0
 18 16  1  0
 19 18  2  0
 20 21  1  0
 21 22  2  0
 23 21  1  0
 24 23  1  1
 24 25  1  0
 26 24  1  0
 26 28  1  0
 27 26  2  0
M  END
$$$$
