FMN.pdb
     RDKit          3D

 28 28  0  0  1  0  0  0  0  0999 V2000
   26.2597  -21.7723  -12.5504 N   0  0  0  0  0  0  0  0  0  0  0  0
   25.2049  -20.8587  -12.1836 C   0  0  1  0  0  0  0  0  0  0  0  0
   25.7933  -19.6854  -11.4589 C   0  0  0  0  0  0  0  0  0  0  0  0
   26.2515  -20.1149  -10.1267 C   0  0  0  0  0  0  0  0  0  0  0  0
   25.3786  -20.3513   -9.0829 C   0  0  0  0  0  0  0  0  0  0  0  0
   25.8402  -20.7573   -7.8330 C   0  0  0  0  0  0  0  0  0  0  0  0
   27.1910  -20.9334   -7.6089 C   0  0  0  0  0  0  0  0  0  0  0  0
   28.0553  -20.7019   -8.6336 C   0  0  0  0  0  0  0  0  0  0  0  0
   27.5973  -20.3008   -9.8684 C   0  0  0  0  0  0  0  0  0  0  0  0
   24.4348  -20.5163  -13.3794 C   0  0  0  0  0  0  0  0  0  0  0  0
   25.0522  -20.4864  -14.4884 O   0  0  0  0  0  0  0  0  0  0  0  0
   23.9313  -22.4553  -18.1315 C   0  0  0  0  0  0  0  0  0  0  0  0
   22.1500  -22.1327  -18.0506 S   0  0  0  0  0  0  0  0  0  0  0  0
   21.8797  -20.7359  -16.9170 C   0  0  0  0  0  0  0  0  0  0  0  0
   22.5609  -21.0818  -15.6100 C   0  0  0  0  0  0  0  0  0  0  0  0
   22.3758  -19.9397  -14.6508 C   0  0  2  0  0  0  0  0  0  0  0  0
   23.0624  -20.2152  -13.4097 N   0  0  0  0  0  0  0  0  0  0  0  0
   20.9590  -19.5763  -14.4376 C   0  0  0  0  0  0  0  0  0  0  0  0
   20.2518  -20.3622  -13.7551 O   0  0  0  0  0  0  0  0  0  0  0  0
   17.4427  -15.7139  -12.8960 N   0  0  0  0  0  0  0  0  0  0  0  0
   17.7588  -15.8711  -14.2640 C   0  0  0  0  0  0  0  0  0  0  0  0
   16.9580  -15.5839  -15.1756 O   0  0  0  0  0  0  0  0  0  0  0  0
   19.1050  -16.4008  -14.5786 C   0  0  0  0  0  0  0  0  0  0  0  0
   19.0728  -17.8940  -14.5333 C   0  0  2  0  0  0  0  0  0  0  0  0
   20.3751  -18.4045  -14.9582 N   0  0  0  0  0  0  0  0  0  0  0  0
   18.0681  -18.5073  -15.4300 C   0  0  0  0  0  0  0  0  0  0  0  0
   16.8907  -18.7974  -15.0216 O   0  0  0  0  0  0  0  0  0  0  0  0
   18.2984  -18.8192  -16.7694 O   0  0  0  0  0  0  0  0  0  0  0  0
  2  3  1  0
  2  1  1  6
  4  3  1  0
  5  4  2  0
  6  5  1  0
  7  8  1  0
  7  6  2  0
  8  9  2  0
  9  4  1  0
 10 11  2  0
 10  2  1  0
 13 12  1  0
 14 13  1  0
 15 14  1  0
 16 15  1  6
 16 17  1  0
 17 10  1  0
 18 25  1  0
 18 16  1  0
 19 18  2  0
 20 21  1  0
 21 22  2  0
 23 21  1  0
 24 23  1  6
 24 25  1  0
 26 24  1  0
 26 28  1  0
 27 26  2  0
M  END
$$$$
