FMN.pdb
     RDKit          3D

 28 28  0  0  1  0  0  0  0  0999 V2000
   16.9534  -16.9680    5.1874 N   0  0  0  0  0  0  0  0  0  0  0  0
   17.9781  -16.1369    5.7714 C   0  0  1  0  0  0  0  0  0  0  0  0
   17.3392  -14.9603    6.4462 C   0  0  0  0  0  0  0  0  0  0  0  0
   17.9598  -13.7191    5.9530 C   0  0  0  0  0  0  0  0  0  0  0  0
   19.0370  -13.1275    6.5833 C   0  0  0  0  0  0  0  0  0  0  0  0
   19.6045  -11.9532    6.0942 C   0  0  0  0  0  0  0  0  0  0  0  0
   19.0982  -11.3505    4.9599 C   0  0  0  0  0  0  0  0  0  0  0  0
   18.0372  -11.9290    4.3352 C   0  0  0  0  0  0  0  0  0  0  0  0
   17.4776  -13.0897    4.8200 C   0  0  0  0  0  0  0  0  0  0  0  0
   18.8192  -16.9592    6.6412 C   0  0  0  0  0  0  0  0  0  0  0  0
   18.5041  -18.1811    6.7805 O   0  0  0  0  0  0  0  0  0  0  0  0
   25.4279  -18.2295   10.6561 C   0  0  0  0  0  0  0  0  0  0  0  0
   24.4829  -17.0795    9.6224 S   0  0  0  0  0  0  0  0  0  0  0  0
   22.8127  -17.7641    9.3972 C   0  0  0  0  0  0  0  0  0  0  0  0
   22.0914  -16.8698    8.4115 C   0  0  0  0  0  0  0  0  0  0  0  0
   20.6955  -17.3914    8.2165 C   0  0  2  0  0  0  0  0  0  0  0  0
   19.9532  -16.5132    7.3415 N   0  0  0  0  0  0  0  0  0  0  0  0
   19.9830  -17.6494    9.4856 C   0  0  0  0  0  0  0  0  0  0  0  0
   19.5587  -16.6546   10.1288 O   0  0  0  0  0  0  0  0  0  0  0  0
   16.2036  -20.8243    9.5791 N   0  0  0  0  0  0  0  0  0  0  0  0
   16.9107  -19.8706   10.3450 C   0  0  0  0  0  0  0  0  0  0  0  0
   16.5491  -18.6807   10.4360 O   0  0  0  0  0  0  0  0  0  0  0  0
   18.1217  -20.3492   11.0493 C   0  0  0  0  0  0  0  0  0  0  0  0
   19.0604  -19.2048   11.2540 C   0  0  2  0  0  0  0  0  0  0  0  0
   19.7620  -18.9431    9.9984 N   0  0  0  0  0  0  0  0  0  0  0  0
   20.1032  -19.4498   12.2749 C   0  0  0  0  0  0  0  0  0  0  0  0
   19.8048  -19.7689   13.4775 O   0  0  0  0  0  0  0  0  0  0  0  0
   21.4737  -19.3607   12.0335 O   0  0  0  0  0  0  0  0  0  0  0  0
  2  3  1  0
  2  1  1  1
  4  3  1  0
  5  4  2  0
  6  5  1  0
  7  8  1  0
  7  6  2  0
  8  9  2  0
  9  4  1  0
 10 11  2  0
 10  2  1  0
 13 12  1  0
 14 13  1  0
 15 14  1  0
 16 15  1  1
 16 17  1  0
 17 10  1  0
 18 25  1  0
 18 16  1  0
 19 18  2  0
 20 21  1  0
 21 22  2  0
 23 21  1  0
 24 23  1  6
 24 25  1  0
 26 24  1  0
 26 28  1  0
 27 26  2  0
M  END
$$$$
