FMN.pdb
     RDKit          3D

 28 28  0  0  1  0  0  0  0  0999 V2000
   23.0314  -12.9287  -15.3782 N   0  0  0  0  0  0  0  0  0  0  0  0
   23.2906  -11.5280  -15.6076 C   0  0  1  0  0  0  0  0  0  0  0  0
   24.4080  -11.3848  -16.5969 C   0  0  0  0  0  0  0  0  0  0  0  0
   25.6584  -11.8782  -15.9950 C   0  0  0  0  0  0  0  0  0  0  0  0
   26.4868  -11.0712  -15.2401 C   0  0  0  0  0  0  0  0  0  0  0  0
   27.6638  -11.5650  -14.6823 C   0  0  0  0  0  0  0  0  0  0  0  0
   28.0304  -12.8822  -14.8737 C   0  0  0  0  0  0  0  0  0  0  0  0
   27.2181  -13.6815  -15.6166 C   0  0  0  0  0  0  0  0  0  0  0  0
   26.0552  -13.1917  -16.1671 C   0  0  0  0  0  0  0  0  0  0  0  0
   22.0424  -10.8703  -15.9944 C   0  0  0  0  0  0  0  0  0  0  0  0
   21.2251  -11.5313  -16.7064 O   0  0  0  0  0  0  0  0  0  0  0  0
   17.1015  -13.1804  -17.0234 C   0  0  0  0  0  0  0  0  0  0  0  0
   17.4019  -11.7516  -15.9499 S   0  0  0  0  0  0  0  0  0  0  0  0
   18.9338  -10.9415  -16.5033 C   0  0  0  0  0  0  0  0  0  0  0  0
   19.2746   -9.8805  -15.4785 C   0  0  0  0  0  0  0  0  0  0  0  0
   20.3800   -9.0198  -16.0224 C   0  0  2  0  0  0  0  0  0  0  0  0
   21.6651   -9.5622  -15.6456 N   0  0  0  0  0  0  0  0  0  0  0  0
   20.2463   -7.5935  -15.6582 C   0  0  0  0  0  0  0  0  0  0  0  0
   20.4822   -7.2719  -14.4647 O   0  0  0  0  0  0  0  0  0  0  0  0
   19.7415   -2.5927  -15.8181 N   0  0  0  0  0  0  0  0  0  0  0  0
   19.8781   -2.9338  -17.1823 C   0  0  0  0  0  0  0  0  0  0  0  0
   19.9577   -2.0764  -18.0842 O   0  0  0  0  0  0  0  0  0  0  0  0
   19.9241   -4.3779  -17.5051 C   0  0  0  0  0  0  0  0  0  0  0  0
   19.8144   -5.1710  -16.2435 C   0  0  2  0  0  0  0  0  0  0  0  0
   19.8714   -6.5933  -16.5770 N   0  0  0  0  0  0  0  0  0  0  0  0
   18.5500   -4.9633  -15.5034 C   0  0  0  0  0  0  0  0  0  0  0  0
   17.4627   -5.5386  -15.8555 O   0  0  0  0  0  0  0  0  0  0  0  0
   18.4229   -4.1449  -14.3816 O   0  0  0  0  0  0  0  0  0  0  0  0
  2  3  1  0
  2  1  1  6
  4  3  1  0
  5  4  2  0
  6  5  1  0
  7  8  1  0
  7  6  2  0
  8  9  2  0
  9  4  1  0
 10 11  2  0
 10  2  1  0
 13 12  1  0
 14 13  1  0
 15 14  1  0
 16 15  1  1
 16 17  1  0
 17 10  1  0
 18 25  1  0
 18 16  1  0
 19 18  2  0
 20 21  1  0
 21 22  2  0
 23 21  1  0
 24 23  1  6
 24 25  1  0
 26 24  1  0
 26 28  1  0
 27 26  2  0
M  END
$$$$
