FMN.pdb
     RDKit          3D

 28 28  0  0  1  0  0  0  0  0999 V2000
   27.2240  -21.5398  -14.0326 N   0  0  0  0  0  0  0  0  0  0  0  0
   27.3497  -20.4293  -13.1200 C   0  0  1  0  0  0  0  0  0  0  0  0
   26.6465  -19.2347  -13.6909 C   0  0  0  0  0  0  0  0  0  0  0  0
   27.4032  -18.7309  -14.8497 C   0  0  0  0  0  0  0  0  0  0  0  0
   26.7956  -18.3988  -16.0446 C   0  0  0  0  0  0  0  0  0  0  0  0
   27.5365  -17.9241  -17.1244 C   0  0  0  0  0  0  0  0  0  0  0  0
   28.9051  -17.7745  -17.0225 C   0  0  0  0  0  0  0  0  0  0  0  0
   29.5088  -18.1002  -15.8478 C   0  0  0  0  0  0  0  0  0  0  0  0
   28.7749  -18.5691  -14.7816 C   0  0  0  0  0  0  0  0  0  0  0  0
   26.8783  -20.8437  -11.7986 C   0  0  0  0  0  0  0  0  0  0  0  0
   26.2931  -21.9668  -11.7081 O   0  0  0  0  0  0  0  0  0  0  0  0
   27.2574  -19.1283   -4.4879 C   0  0  0  0  0  0  0  0  0  0  0  0
   28.2057  -20.1451   -5.6501 S   0  0  0  0  0  0  0  0  0  0  0  0
   27.0652  -20.7517   -6.9309 C   0  0  0  0  0  0  0  0  0  0  0  0
   27.5590  -20.2185   -8.2589 C   0  0  0  0  0  0  0  0  0  0  0  0
   26.5969  -20.6354   -9.3356 C   0  0  2  0  0  0  0  0  0  0  0  0
   27.0165  -20.1036  -10.6119 N   0  0  0  0  0  0  0  0  0  0  0  0
   25.1902  -20.3030   -9.0263 C   0  0  0  0  0  0  0  0  0  0  0  0
   24.6562  -20.8828   -8.0454 O   0  0  0  0  0  0  0  0  0  0  0  0
   20.8863  -20.4831  -11.4395 N   0  0  0  0  0  0  0  0  0  0  0  0
   22.0262  -20.7822  -12.2189 C   0  0  0  0  0  0  0  0  0  0  0  0
   21.9520  -21.3489  -13.3271 O   0  0  0  0  0  0  0  0  0  0  0  0
   23.3378  -20.3882  -11.6568 C   0  0  0  0  0  0  0  0  0  0  0  0
   23.1279  -19.6864  -10.3545 C   0  0  2  0  0  0  0  0  0  0  0  0
   24.4329  -19.3781   -9.7720 N   0  0  0  0  0  0  0  0  0  0  0  0
   22.3954  -20.4839   -9.3460 C   0  0  0  0  0  0  0  0  0  0  0  0
   22.7297  -21.6874   -9.0685 O   0  0  0  0  0  0  0  0  0  0  0  0
   21.3014  -20.0156   -8.6191 O   0  0  0  0  0  0  0  0  0  0  0  0
  2  3  1  0
  2  1  1  6
  4  3  1  0
  5  4  2  0
  6  5  1  0
  7  8  1  0
  7  6  2  0
  8  9  2  0
  9  4  1  0
 10 11  2  0
 10  2  1  0
 13 12  1  0
 14 13  1  0
 15 14  1  0
 16 15  1  1
 16 17  1  0
 17 10  1  0
 18 25  1  0
 18 16  1  0
 19 18  2  0
 20 21  1  0
 21 22  2  0
 23 21  1  0
 24 23  1  6
 24 25  1  0
 26 24  1  0
 26 28  1  0
 27 26  2  0
M  END
$$$$
