FMN.pdb
     RDKit          3D

 28 28  0  0  1  0  0  0  0  0999 V2000
   30.6029  -23.7190  -15.9620 N   0  0  0  0  0  0  0  0  0  0  0  0
   29.8270  -24.6901  -16.6946 C   0  0  1  0  0  0  0  0  0  0  0  0
   30.2286  -26.0705  -16.2692 C   0  0  0  0  0  0  0  0  0  0  0  0
   31.6554  -26.2777  -16.5697 C   0  0  0  0  0  0  0  0  0  0  0  0
   32.6485  -26.0677  -15.6332 C   0  0  0  0  0  0  0  0  0  0  0  0
   33.9906  -26.2720  -15.9451 C   0  0  0  0  0  0  0  0  0  0  0  0
   34.3598  -26.6921  -17.2074 C   0  0  0  0  0  0  0  0  0  0  0  0
   33.3857  -26.9005  -18.1338 C   0  0  0  0  0  0  0  0  0  0  0  0
   32.0597  -26.6981  -17.8236 C   0  0  0  0  0  0  0  0  0  0  0  0
   28.4055  -24.3872  -16.5277 C   0  0  0  0  0  0  0  0  0  0  0  0
   28.0710  -23.6573  -15.5443 O   0  0  0  0  0  0  0  0  0  0  0  0
   26.8367  -19.2563  -17.9347 C   0  0  0  0  0  0  0  0  0  0  0  0
   26.2003  -20.2617  -19.3014 S   0  0  0  0  0  0  0  0  0  0  0  0
   25.5543  -21.8143  -18.6076 C   0  0  0  0  0  0  0  0  0  0  0  0
   26.7436  -22.7073  -18.3249 C   0  0  0  0  0  0  0  0  0  0  0  0
   26.2524  -23.9864  -17.7075 C   0  0  2  0  0  0  0  0  0  0  0  0
   27.3700  -24.8358  -17.3653 N   0  0  0  0  0  0  0  0  0  0  0  0
   25.2484  -24.6890  -18.5340 C   0  0  0  0  0  0  0  0  0  0  0  0
   25.6372  -25.1962  -19.6180 O   0  0  0  0  0  0  0  0  0  0  0  0
   23.8866  -29.1213  -15.9125 N   0  0  0  0  0  0  0  0  0  0  0  0
   23.3214  -28.2367  -16.8581 C   0  0  0  0  0  0  0  0  0  0  0  0
   22.3268  -28.5367  -17.5477 O   0  0  0  0  0  0  0  0  0  0  0  0
   23.9696  -26.9133  -17.0006 C   0  0  0  0  0  0  0  0  0  0  0  0
   23.2167  -26.0984  -18.0016 C   0  0  2  0  0  0  0  0  0  0  0  0
   23.8942  -24.8133  -18.1653 N   0  0  0  0  0  0  0  0  0  0  0  0
   21.8230  -25.7918  -17.6104 C   0  0  0  0  0  0  0  0  0  0  0  0
   20.8276  -26.1600  -18.3252 O   0  0  0  0  0  0  0  0  0  0  0  0
   21.4674  -25.0929  -16.4573 O   0  0  0  0  0  0  0  0  0  0  0  0
  2  3  1  0
  2  1  1  1
  4  3  1  0
  5  4  2  0
  6  5  1  0
  7  8  1  0
  7  6  2  0
  8  9  2  0
  9  4  1  0
 10 11  2  0
 10  2  1  0
 13 12  1  0
 14 13  1  0
 15 14  1  0
 16 15  1  6
 16 17  1  0
 17 10  1  0
 18 25  1  0
 18 16  1  0
 19 18  2  0
 20 21  1  0
 21 22  2  0
 23 21  1  0
 24 23  1  1
 24 25  1  0
 26 24  1  0
 26 28  1  0
 27 26  2  0
M  END
$$$$
