FMN.pdb
     RDKit          3D

 28 28  0  0  1  0  0  0  0  0999 V2000
   17.3526   -9.6973  -10.6950 N   0  0  0  0  0  0  0  0  0  0  0  0
   17.5969   -8.3300  -10.3043 C   0  0  1  0  0  0  0  0  0  0  0  0
   18.3491   -7.6282  -11.3949 C   0  0  0  0  0  0  0  0  0  0  0  0
   19.7087   -8.1870  -11.4872 C   0  0  0  0  0  0  0  0  0  0  0  0
   20.0369   -9.1970  -12.3702 C   0  0  0  0  0  0  0  0  0  0  0  0
   21.3317   -9.7064  -12.4362 C   0  0  0  0  0  0  0  0  0  0  0  0
   22.3225   -9.2087  -11.6137 C   0  0  0  0  0  0  0  0  0  0  0  0
   22.0047   -8.2139  -10.7420 C   0  0  0  0  0  0  0  0  0  0  0  0
   20.7245   -7.7116  -10.6781 C   0  0  0  0  0  0  0  0  0  0  0  0
   16.3258   -7.7056   -9.9374 C   0  0  0  0  0  0  0  0  0  0  0  0
   15.2887   -8.0625  -10.5769 O   0  0  0  0  0  0  0  0  0  0  0  0
   14.6175   -2.3670   -5.8457 C   0  0  0  0  0  0  0  0  0  0  0  0
   13.5784   -3.8338   -5.6160 S   0  0  0  0  0  0  0  0  0  0  0  0
   13.5162   -4.7349   -7.1950 C   0  0  0  0  0  0  0  0  0  0  0  0
   14.8835   -5.3459   -7.4160 C   0  0  0  0  0  0  0  0  0  0  0  0
   14.8747   -6.0928   -8.7201 C   0  0  2  0  0  0  0  0  0  0  0  0
   16.1496   -6.7385   -8.9331 N   0  0  0  0  0  0  0  0  0  0  0  0
   14.4711   -5.2583   -9.8714 C   0  0  0  0  0  0  0  0  0  0  0  0
   15.3472   -4.5202  -10.3921 O   0  0  0  0  0  0  0  0  0  0  0  0
   14.8727   -4.4211  -14.7809 N   0  0  0  0  0  0  0  0  0  0  0  0
   13.9987   -4.0886  -13.7217 C   0  0  0  0  0  0  0  0  0  0  0  0
   13.4915   -2.9560  -13.6000 O   0  0  0  0  0  0  0  0  0  0  0  0
   13.7031   -5.1592  -12.7429 C   0  0  0  0  0  0  0  0  0  0  0  0
   12.8132   -4.6185  -11.6712 C   0  0  2  0  0  0  0  0  0  0  0  0
   13.1663   -5.2543  -10.4030 N   0  0  0  0  0  0  0  0  0  0  0  0
   11.3732   -4.8822  -11.8870 C   0  0  0  0  0  0  0  0  0  0  0  0
   10.7631   -4.4675  -12.9325 O   0  0  0  0  0  0  0  0  0  0  0  0
   10.5633   -5.5890  -10.9987 O   0  0  0  0  0  0  0  0  0  0  0  0
  2  3  1  0
  2  1  1  6
  4  3  1  0
  5  4  2  0
  6  5  1  0
  7  8  1  0
  7  6  2  0
  8  9  2  0
  9  4  1  0
 10 11  2  0
 10  2  1  0
 13 12  1  0
 14 13  1  0
 15 14  1  0
 16 15  1  1
 16 17  1  0
 17 10  1  0
 18 25  1  0
 18 16  1  0
 19 18  2  0
 20 21  1  0
 21 22  2  0
 23 21  1  0
 24 23  1  6
 24 25  1  0
 26 24  1  0
 26 28  1  0
 27 26  2  0
M  END
$$$$
