FMN.pdb
     RDKit          3D

 28 28  0  0  1  0  0  0  0  0999 V2000
   24.4575  -11.6417  -15.9843 N   0  0  0  0  0  0  0  0  0  0  0  0
   23.6787  -10.8516  -16.9068 C   0  0  1  0  0  0  0  0  0  0  0  0
   22.6613  -11.7269  -17.5750 C   0  0  0  0  0  0  0  0  0  0  0  0
   23.3462  -12.6749  -18.4702 C   0  0  0  0  0  0  0  0  0  0  0  0
   23.6430  -13.9696  -18.0921 C   0  0  0  0  0  0  0  0  0  0  0  0
   24.2916  -14.8451  -18.9600 C   0  0  0  0  0  0  0  0  0  0  0  0
   24.6545  -14.4339  -20.2270 C   0  0  0  0  0  0  0  0  0  0  0  0
   24.3646  -13.1595  -20.6047 C   0  0  0  0  0  0  0  0  0  0  0  0
   23.7235  -12.2957  -19.7455 C   0  0  0  0  0  0  0  0  0  0  0  0
   23.1232   -9.7001  -16.1957 C   0  0  0  0  0  0  0  0  0  0  0  0
   22.7423   -9.8762  -14.9975 O   0  0  0  0  0  0  0  0  0  0  0  0
   25.1413   -3.9612  -15.8027 C   0  0  0  0  0  0  0  0  0  0  0  0
   23.4356   -3.5011  -15.3992 S   0  0  0  0  0  0  0  0  0  0  0  0
   22.4681   -5.0298  -15.2090 C   0  0  0  0  0  0  0  0  0  0  0  0
   23.1016   -6.0747  -16.1027 C   0  0  0  0  0  0  0  0  0  0  0  0
   22.3237   -7.3545  -15.9775 C   0  0  2  0  0  0  0  0  0  0  0  0
   22.9724   -8.4070  -16.7252 N   0  0  0  0  0  0  0  0  0  0  0  0
   20.8969   -7.2113  -16.3360 C   0  0  0  0  0  0  0  0  0  0  0  0
   20.6062   -7.1502  -17.5588 O   0  0  0  0  0  0  0  0  0  0  0  0
   15.3780   -8.2306  -15.1107 N   0  0  0  0  0  0  0  0  0  0  0  0
   16.1893   -7.0976  -14.8773 C   0  0  0  0  0  0  0  0  0  0  0  0
   15.7467   -5.9330  -14.9271 O   0  0  0  0  0  0  0  0  0  0  0  0
   17.6137   -7.3530  -14.5649 C   0  0  0  0  0  0  0  0  0  0  0  0
   18.4575   -6.9378  -15.7260 C   0  0  2  0  0  0  0  0  0  0  0  0
   19.8635   -7.1415  -15.3809 N   0  0  0  0  0  0  0  0  0  0  0  0
   18.3185   -5.5127  -16.0991 C   0  0  0  0  0  0  0  0  0  0  0  0
   17.6214   -5.1466  -17.1077 O   0  0  0  0  0  0  0  0  0  0  0  0
   18.9153   -4.4589  -15.4077 O   0  0  0  0  0  0  0  0  0  0  0  0
  2  3  1  0
  2  1  1  1
  4  3  1  0
  5  4  2  0
  6  5  1  0
  7  8  1  0
  7  6  2  0
  8  9  2  0
  9  4  1  0
 10 11  2  0
 10  2  1  0
 13 12  1  0
 14 13  1  0
 15 14  1  0
 16 15  1  6
 16 17  1  0
 17 10  1  0
 18 25  1  0
 18 16  1  0
 19 18  2  0
 20 21  1  0
 21 22  2  0
 23 21  1  0
 24 23  1  1
 24 25  1  0
 26 24  1  0
 26 28  1  0
 27 26  2  0
M  END
$$$$
