FMN.pdb
     RDKit          3D

 28 28  0  0  1  0  0  0  0  0999 V2000
   29.1311  -19.1027  -11.8405 N   0  0  0  0  0  0  0  0  0  0  0  0
   28.2178  -20.0178  -12.4809 C   0  0  1  0  0  0  0  0  0  0  0  0
   27.9591  -21.1805  -11.5704 C   0  0  0  0  0  0  0  0  0  0  0  0
   29.2307  -21.8642  -11.2792 C   0  0  0  0  0  0  0  0  0  0  0  0
   29.8569  -22.6869  -12.1949 C   0  0  0  0  0  0  0  0  0  0  0  0
   31.0598  -23.3208  -11.8925 C   0  0  0  0  0  0  0  0  0  0  0  0
   31.6565  -23.1390  -10.6609 C   0  0  0  0  0  0  0  0  0  0  0  0
   31.0440  -22.3297   -9.7550 C   0  0  0  0  0  0  0  0  0  0  0  0
   29.8552  -21.7040  -10.0558 C   0  0  0  0  0  0  0  0  0  0  0  0
   27.0208  -19.2849  -12.8933 C   0  0  0  0  0  0  0  0  0  0  0  0
   26.3721  -18.6646  -11.9952 O   0  0  0  0  0  0  0  0  0  0  0  0
   25.7710  -15.2670  -17.4279 C   0  0  0  0  0  0  0  0  0  0  0  0
   26.8358  -15.0488  -15.9779 S   0  0  0  0  0  0  0  0  0  0  0  0
   26.3715  -16.3007  -14.7425 C   0  0  0  0  0  0  0  0  0  0  0  0
   25.5800  -17.3703  -15.4646 C   0  0  0  0  0  0  0  0  0  0  0  0
   25.3007  -18.4948  -14.5074 C   0  0  2  0  0  0  0  0  0  0  0  0
   26.5214  -19.2060  -14.2045 N   0  0  0  0  0  0  0  0  0  0  0  0
   24.2245  -19.3996  -14.9634 C   0  0  0  0  0  0  0  0  0  0  0  0
   24.5533  -20.5561  -15.3348 O   0  0  0  0  0  0  0  0  0  0  0  0
   23.0766  -23.1712  -13.7928 N   0  0  0  0  0  0  0  0  0  0  0  0
   22.2365  -22.3160  -14.5404 C   0  0  0  0  0  0  0  0  0  0  0  0
   21.7512  -22.6452  -15.6409 O   0  0  0  0  0  0  0  0  0  0  0  0
   21.9493  -20.9873  -13.9539 C   0  0  0  0  0  0  0  0  0  0  0  0
   21.7667  -19.9903  -15.0518 C   0  0  2  0  0  0  0  0  0  0  0  0
   22.8659  -19.0279  -14.9991 N   0  0  0  0  0  0  0  0  0  0  0  0
   20.5160  -19.2053  -14.9576 C   0  0  0  0  0  0  0  0  0  0  0  0
   20.4528  -18.1198  -14.2831 O   0  0  0  0  0  0  0  0  0  0  0  0
   19.3183  -19.5602  -15.5773 O   0  0  0  0  0  0  0  0  0  0  0  0
  2  3  1  0
  2  1  1  1
  4  3  1  0
  5  4  2  0
  6  5  1  0
  7  8  1  0
  7  6  2  0
  8  9  2  0
  9  4  1  0
 10 11  2  0
 10  2  1  0
 13 12  1  0
 14 13  1  0
 15 14  1  0
 16 15  1  6
 16 17  1  0
 17 10  1  0
 18 25  1  0
 18 16  1  0
 19 18  2  0
 20 21  1  0
 21 22  2  0
 23 21  1  0
 24 23  1  1
 24 25  1  0
 26 24  1  0
 26 28  1  0
 27 26  2  0
M  END
$$$$
