FMN.pdb
     RDKit          3D

 28 28  0  0  1  0  0  0  0  0999 V2000
   26.6566  -21.5462   -8.0755 N   0  0  0  0  0  0  0  0  0  0  0  0
   26.5373  -20.1442   -8.3948 C   0  0  1  0  0  0  0  0  0  0  0  0
   27.7717  -19.4243   -7.9412 C   0  0  0  0  0  0  0  0  0  0  0  0
   27.9848  -19.6782   -6.5062 C   0  0  0  0  0  0  0  0  0  0  0  0
   29.2343  -19.6217   -5.9207 C   0  0  0  0  0  0  0  0  0  0  0  0
   29.4064  -19.8661   -4.5602 C   0  0  0  0  0  0  0  0  0  0  0  0
   28.3228  -20.1728   -3.7615 C   0  0  0  0  0  0  0  0  0  0  0  0
   27.0897  -20.2299   -4.3331 C   0  0  0  0  0  0  0  0  0  0  0  0
   26.9215  -19.9879   -5.6779 C   0  0  0  0  0  0  0  0  0  0  0  0
   26.2359  -20.0046   -9.8195 C   0  0  0  0  0  0  0  0  0  0  0  0
   26.0855  -18.8299  -10.2769 O   0  0  0  0  0  0  0  0  0  0  0  0
   29.1594  -20.6511  -15.2358 C   0  0  0  0  0  0  0  0  0  0  0  0
   29.6649  -20.9243  -13.5171 S   0  0  0  0  0  0  0  0  0  0  0  0
   28.2675  -20.4816  -12.4400 C   0  0  0  0  0  0  0  0  0  0  0  0
   27.0560  -21.2356  -12.9457 C   0  0  0  0  0  0  0  0  0  0  0  0
   25.8576  -20.8233  -12.1380 C   0  0  2  0  0  0  0  0  0  0  0  0
   26.0968  -21.0632  -10.7334 N   0  0  0  0  0  0  0  0  0  0  0  0
   24.5966  -21.4380  -12.6036 C   0  0  0  0  0  0  0  0  0  0  0  0
   24.1358  -22.4003  -11.9364 O   0  0  0  0  0  0  0  0  0  0  0  0
   20.5195  -22.0046  -12.4460 N   0  0  0  0  0  0  0  0  0  0  0  0
   20.9588  -20.7861  -11.8817 C   0  0  0  0  0  0  0  0  0  0  0  0
   20.5068  -20.3418  -10.8078 O   0  0  0  0  0  0  0  0  0  0  0  0
   21.9976  -20.0431  -12.6304 C   0  0  0  0  0  0  0  0  0  0  0  0
   22.4444  -20.8592  -13.7996 C   0  0  2  0  0  0  0  0  0  0  0  0
   23.8986  -20.9988  -13.7461 N   0  0  0  0  0  0  0  0  0  0  0  0
   22.1279  -20.2600  -15.1150 C   0  0  0  0  0  0  0  0  0  0  0  0
   22.5674  -19.1063  -15.4514 O   0  0  0  0  0  0  0  0  0  0  0  0
   21.3433  -20.8760  -16.0894 O   0  0  0  0  0  0  0  0  0  0  0  0
  2  3  1  0
  2  1  1  6
  4  3  1  0
  5  4  2  0
  6  5  1  0
  7  8  1  0
  7  6  2  0
  8  9  2  0
  9  4  1  0
 10 11  2  0
 10  2  1  0
 13 12  1  0
 14 13  1  0
 15 14  1  0
 16 15  1  6
 16 17  1  0
 17 10  1  0
 18 25  1  0
 18 16  1  0
 19 18  2  0
 20 21  1  0
 21 22  2  0
 23 21  1  0
 24 23  1  1
 24 25  1  0
 26 24  1  0
 26 28  1  0
 27 26  2  0
M  END
$$$$
