FMN.pdb
     RDKit          3D

 28 28  0  0  1  0  0  0  0  0999 V2000
   25.4235  -15.1073  -16.7173 N   0  0  0  0  0  0  0  0  0  0  0  0
   24.6647  -14.1242  -17.4519 C   0  0  1  0  0  0  0  0  0  0  0  0
   23.2514  -14.6004  -17.6054 C   0  0  0  0  0  0  0  0  0  0  0  0
   23.2099  -15.6957  -18.5892 C   0  0  0  0  0  0  0  0  0  0  0  0
   23.0054  -17.0121  -18.2249 C   0  0  0  0  0  0  0  0  0  0  0  0
   22.9705  -18.0281  -19.1772 C   0  0  0  0  0  0  0  0  0  0  0  0
   23.1412  -17.7386  -20.5163 C   0  0  0  0  0  0  0  0  0  0  0  0
   23.3431  -16.4435  -20.8806 C   0  0  0  0  0  0  0  0  0  0  0  0
   23.3772  -15.4407  -19.9380 C   0  0  0  0  0  0  0  0  0  0  0  0
   24.8051  -12.8255  -16.7934 C   0  0  0  0  0  0  0  0  0  0  0  0
   24.6617  -12.7865  -15.5325 O   0  0  0  0  0  0  0  0  0  0  0  0
   30.5249  -10.3580  -17.5957 C   0  0  0  0  0  0  0  0  0  0  0  0
   28.9930   -9.4069  -17.7764 S   0  0  0  0  0  0  0  0  0  0  0  0
   27.6353  -10.3806  -17.0569 C   0  0  0  0  0  0  0  0  0  0  0  0
   26.3674   -9.5697  -17.2202 C   0  0  0  0  0  0  0  0  0  0  0  0
   25.2089  -10.3726  -16.6986 C   0  0  2  0  0  0  0  0  0  0  0  0
   25.0865  -11.6084  -17.4372 N   0  0  0  0  0  0  0  0  0  0  0  0
   23.9401   -9.6154  -16.6607 C   0  0  0  0  0  0  0  0  0  0  0  0
   23.2579   -9.5674  -17.7171 O   0  0  0  0  0  0  0  0  0  0  0  0
   19.6387   -7.8054  -15.6899 N   0  0  0  0  0  0  0  0  0  0  0  0
   20.0127   -8.3646  -14.4474 C   0  0  0  0  0  0  0  0  0  0  0  0
   19.1834   -8.6383  -13.5573 O   0  0  0  0  0  0  0  0  0  0  0  0
   21.4565   -8.6179  -14.2401 C   0  0  0  0  0  0  0  0  0  0  0  0
   22.2115   -8.2098  -15.4633 C   0  0  2  0  0  0  0  0  0  0  0  0
   23.4686   -8.9548  -15.5090 N   0  0  0  0  0  0  0  0  0  0  0  0
   22.5715   -6.7752  -15.5043 C   0  0  0  0  0  0  0  0  0  0  0  0
   21.6807   -5.8607  -15.5895 O   0  0  0  0  0  0  0  0  0  0  0  0
   23.8789   -6.2926  -15.4546 O   0  0  0  0  0  0  0  0  0  0  0  0
  2  3  1  0
  2  1  1  1
  4  3  1  0
  5  4  2  0
  6  5  1  0
  7  8  1  0
  7  6  2  0
  8  9  2  0
  9  4  1  0
 10 11  2  0
 10  2  1  0
 13 12  1  0
 14 13  1  0
 15 14  1  0
 16 15  1  6
 16 17  1  0
 17 10  1  0
 18 25  1  0
 18 16  1  0
 19 18  2  0
 20 21  1  0
 21 22  2  0
 23 21  1  0
 24 23  1  1
 24 25  1  0
 26 24  1  0
 26 28  1  0
 27 26  2  0
M  END
$$$$
