FMN.pdb
     RDKit          3D

 28 28  0  0  1  0  0  0  0  0999 V2000
   22.7367  -11.5524  -21.2292 N   0  0  0  0  0  0  0  0  0  0  0  0
   22.7282  -10.1167  -21.0862 C   0  0  1  0  0  0  0  0  0  0  0  0
   21.7634   -9.5249  -22.0694 C   0  0  0  0  0  0  0  0  0  0  0  0
   22.2495   -9.7703  -23.4378 C   0  0  0  0  0  0  0  0  0  0  0  0
   21.9894  -10.9440  -24.1177 C   0  0  0  0  0  0  0  0  0  0  0  0
   22.4617  -11.1490  -25.4121 C   0  0  0  0  0  0  0  0  0  0  0  0
   23.2060  -10.1755  -26.0480 C   0  0  0  0  0  0  0  0  0  0  0  0
   23.4653   -9.0175  -25.3828 C   0  0  0  0  0  0  0  0  0  0  0  0
   22.9976   -8.8167  -24.1036 C   0  0  0  0  0  0  0  0  0  0  0  0
   22.4616   -9.7794  -19.6879 C   0  0  0  0  0  0  0  0  0  0  0  0
   22.0639  -10.7116  -18.9232 O   0  0  0  0  0  0  0  0  0  0  0  0
   26.0147   -9.8216  -15.1807 C   0  0  0  0  0  0  0  0  0  0  0  0
   24.3276  -10.0708  -14.5679 S   0  0  0  0  0  0  0  0  0  0  0  0
   23.2304   -8.9182  -15.4493 C   0  0  0  0  0  0  0  0  0  0  0  0
   23.3811   -9.1997  -16.9291 C   0  0  0  0  0  0  0  0  0  0  0  0
   22.4523   -8.2964  -17.6906 C   0  0  2  0  0  0  0  0  0  0  0  0
   22.6075   -8.5058  -19.1118 N   0  0  0  0  0  0  0  0  0  0  0  0
   22.5825   -6.8720  -17.3176 C   0  0  0  0  0  0  0  0  0  0  0  0
   23.6525   -6.2846  -17.6234 O   0  0  0  0  0  0  0  0  0  0  0  0
   20.3099   -2.1491  -18.6393 N   0  0  0  0  0  0  0  0  0  0  0  0
   20.1134   -2.8350  -17.4198 C   0  0  0  0  0  0  0  0  0  0  0  0
   19.8236   -2.2482  -16.3584 O   0  0  0  0  0  0  0  0  0  0  0  0
   20.2682   -4.3069  -17.4526 C   0  0  0  0  0  0  0  0  0  0  0  0
   21.4736   -4.6960  -16.6598 C   0  0  2  0  0  0  0  0  0  0  0  0
   21.5741   -6.1544  -16.6442 N   0  0  0  0  0  0  0  0  0  0  0  0
   21.4364   -4.2621  -15.2457 C   0  0  0  0  0  0  0  0  0  0  0  0
   21.0841   -5.0576  -14.3074 O   0  0  0  0  0  0  0  0  0  0  0  0
   21.7730   -2.9813  -14.8088 O   0  0  0  0  0  0  0  0  0  0  0  0
  2  3  1  0
  2  1  1  1
  4  3  1  0
  5  4  2  0
  6  5  1  0
  7  8  1  0
  7  6  2  0
  8  9  2  0
  9  4  1  0
 10 11  2  0
 10  2  1  0
 13 12  1  0
 14 13  1  0
 15 14  1  0
 16 15  1  1
 16 17  1  0
 17 10  1  0
 18 25  1  0
 18 16  1  0
 19 18  2  0
 20 21  1  0
 21 22  2  0
 23 21  1  0
 24 23  1  6
 24 25  1  0
 26 24  1  0
 26 28  1  0
 27 26  2  0
M  END
$$$$
