PVC.pdb
     RDKit          3D

 21 21  0  0  1  0  0  0  0  0999 V2000
   28.2494  -20.6900  -15.2057 N   0  0  0  0  0  0  0  0  0  0  0  0
   28.2769  -19.8149  -16.3492 C   0  0  0  0  0  0  0  0  0  0  0  0
   28.0283  -18.4203  -15.8447 C   0  0  0  0  0  0  0  0  0  0  0  0
   27.3581  -18.5864  -14.5105 C   0  0  0  0  0  0  0  0  0  0  0  0
   27.5894  -20.0056  -14.1359 C   0  0  1  0  0  0  0  0  0  0  0  0
   26.3435  -20.7379  -13.7741 C   0  0  0  0  0  0  0  0  0  0  0  0
   26.0125  -21.7595  -14.3872 O   0  0  0  0  0  0  0  0  0  0  0  0
   23.6652  -19.5849  -10.3218 C   0  0  0  0  0  0  0  0  0  0  0  0
   24.1768  -20.9149  -10.7908 C   0  0  2  0  0  0  0  0  0  0  0  0
   25.3765  -21.3309   -9.9940 C   0  0  0  0  0  0  0  0  0  0  0  0
   24.3169  -21.0194  -12.2593 C   0  0  2  0  0  0  0  0  0  0  0  0
   25.5119  -20.2798  -12.7198 N   0  0  0  0  0  0  0  0  0  0  0  0
   23.1635  -20.6995  -13.0997 C   0  0  0  0  0  0  0  0  0  0  0  0
   22.9603  -19.4885  -13.5185 O   0  0  0  0  0  0  0  0  0  0  0  0
   22.1607  -21.5776  -13.5623 N   0  0  0  0  0  0  0  0  0  0  0  0
   21.0203  -21.1429  -14.3930 C   0  0  1  0  0  0  0  0  0  0  0  0
   20.9079  -22.1703  -15.4982 C   0  0  0  0  0  0  0  0  0  0  0  0
   19.4863  -21.7289  -16.5298 S   0  0  0  0  0  0  0  0  0  0  0  0
   19.7866  -21.0957  -13.6119 C   0  0  0  0  0  0  0  0  0  0  0  0
   18.7407  -20.5866  -14.0840 O   0  0  0  0  0  0  0  0  0  0  0  0
   19.7521  -21.6125  -12.3379 O   0  0  0  0  0  0  0  0  0  0  0  0
  2  3  1  0
  2  1  1  0
  4  3  1  0
  4  5  1  0
  5  1  1  0
  5  6  1  6
  7  6  2  0
  9  8  1  6
  9 11  1  0
 10  9  1  0
 11 13  1  0
 11 12  1  6
 12  6  1  0
 13 15  1  0
 14 13  2  0
 15 16  1  0
 16 17  1  6
 17 18  1  0
 19 16  1  0
 20 19  2  0
 21 19  1  0
M  END
$$$$
