PVC.pdb
     RDKit          3D

 21 21  0  0  1  0  0  0  0  0999 V2000
   23.5500  -15.4528  -18.2070 N   0  0  0  0  0  0  0  0  0  0  0  0
   22.3421  -15.9866  -18.7816 C   0  0  0  0  0  0  0  0  0  0  0  0
   22.0129  -15.1423  -19.9816 C   0  0  0  0  0  0  0  0  0  0  0  0
   22.7388  -13.8436  -19.7738 C   0  0  0  0  0  0  0  0  0  0  0  0
   23.7290  -14.1217  -18.7015 C   0  0  1  0  0  0  0  0  0  0  0  0
   23.6651  -13.1593  -17.5661 C   0  0  0  0  0  0  0  0  0  0  0  0
   22.8960  -13.3540  -16.6175 O   0  0  0  0  0  0  0  0  0  0  0  0
   26.6428   -9.9359  -17.0275 C   0  0  0  0  0  0  0  0  0  0  0  0
   25.8572  -10.7123  -16.0121 C   0  0  2  0  0  0  0  0  0  0  0  0
   26.6573  -11.8708  -15.4976 C   0  0  0  0  0  0  0  0  0  0  0  0
   24.4758  -11.0271  -16.4358 C   0  0  2  0  0  0  0  0  0  0  0  0
   24.4843  -12.0010  -17.5486 N   0  0  0  0  0  0  0  0  0  0  0  0
   23.5624   -9.9236  -16.7304 C   0  0  0  0  0  0  0  0  0  0  0  0
   23.5851   -9.3304  -17.8840 O   0  0  0  0  0  0  0  0  0  0  0  0
   22.5818   -9.3636  -15.8846 N   0  0  0  0  0  0  0  0  0  0  0  0
   21.6814   -8.2689  -16.2980 C   0  0  1  0  0  0  0  0  0  0  0  0
   20.2849   -8.8489  -16.2425 C   0  0  0  0  0  0  0  0  0  0  0  0
   19.1075   -7.4984  -16.5066 S   0  0  0  0  0  0  0  0  0  0  0  0
   21.7953   -7.1240  -15.3977 C   0  0  0  0  0  0  0  0  0  0  0  0
   22.3641   -7.2307  -14.2837 O   0  0  0  0  0  0  0  0  0  0  0  0
   21.2771   -5.9026  -15.7599 O   0  0  0  0  0  0  0  0  0  0  0  0
  2  3  1  0
  2  1  1  0
  4  3  1  0
  4  5  1  0
  5  1  1  0
  5  6  1  1
  7  6  2  0
  9  8  1  6
  9 11  1  0
 10  9  1  0
 11 13  1  0
 11 12  1  6
 12  6  1  0
 13 15  1  0
 14 13  2  0
 15 16  1  0
 16 17  1  1
 17 18  1  0
 19 16  1  0
 20 19  2  0
 21 19  1  0
M  END
$$$$
