PVC.pdb
     RDKit          3D

 21 21  0  0  1  0  0  0  0  0999 V2000
   24.3308  -14.2362  -17.3180 N   0  0  0  0  0  0  0  0  0  0  0  0
   25.7673  -14.2599  -17.2179 C   0  0  0  0  0  0  0  0  0  0  0  0
   26.1187  -13.8716  -15.8082 C   0  0  0  0  0  0  0  0  0  0  0  0
   24.9178  -13.1407  -15.2789 C   0  0  0  0  0  0  0  0  0  0  0  0
   23.8202  -13.4627  -16.2273 C   0  0  1  0  0  0  0  0  0  0  0  0
   23.1191  -12.2605  -16.7589 C   0  0  0  0  0  0  0  0  0  0  0  0
   23.2979  -11.8911  -17.9254 O   0  0  0  0  0  0  0  0  0  0  0  0
   19.2263   -9.7305  -17.4108 C   0  0  0  0  0  0  0  0  0  0  0  0
   20.1041  -10.8319  -16.8939 C   0  0  2  0  0  0  0  0  0  0  0  0
   19.3541  -11.6948  -15.9244 C   0  0  0  0  0  0  0  0  0  0  0  0
   21.4372  -10.3754  -16.4450 C   0  0  2  0  0  0  0  0  0  0  0  0
   22.2322  -11.5153  -15.9396 N   0  0  0  0  0  0  0  0  0  0  0  0
   21.5183   -9.2462  -15.5191 C   0  0  0  0  0  0  0  0  0  0  0  0
   21.3475   -9.4170  -14.2444 O   0  0  0  0  0  0  0  0  0  0  0  0
   21.7766   -7.8935  -15.8256 N   0  0  0  0  0  0  0  0  0  0  0  0
   21.7612   -6.8148  -14.8177 C   0  0  1  0  0  0  0  0  0  0  0  0
   22.8030   -5.8171  -15.2747 C   0  0  0  0  0  0  0  0  0  0  0  0
   22.8920   -4.4960  -14.0391 S   0  0  0  0  0  0  0  0  0  0  0  0
   20.4465   -6.1823  -14.7423 C   0  0  0  0  0  0  0  0  0  0  0  0
   19.7601   -5.9910  -15.7759 O   0  0  0  0  0  0  0  0  0  0  0  0
   19.9369   -5.7839  -13.5286 O   0  0  0  0  0  0  0  0  0  0  0  0
  2  3  1  0
  2  1  1  0
  4  3  1  0
  4  5  1  0
  5  1  1  0
  5  6  1  6
  7  6  2  0
  9  8  1  1
  9 11  1  0
 10  9  1  0
 11 13  1  0
 11 12  1  1
 12  6  1  0
 13 15  1  0
 14 13  2  0
 15 16  1  0
 16 17  1  6
 17 18  1  0
 19 16  1  0
 20 19  2  0
 21 19  1  0
M  END
$$$$
