PVC.pdb
     RDKit          3D

 21 21  0  0  1  0  0  0  0  0999 V2000
   18.8308  -14.8210  -18.0326 N   0  0  0  0  0  0  0  0  0  0  0  0
   18.1088  -15.5201  -17.0010 C   0  0  0  0  0  0  0  0  0  0  0  0
   16.8177  -14.7798  -16.7858 C   0  0  0  0  0  0  0  0  0  0  0  0
   17.0503  -13.3964  -17.3231 C   0  0  0  0  0  0  0  0  0  0  0  0
   18.2826  -13.5037  -18.1465 C   0  0  1  0  0  0  0  0  0  0  0  0
   19.3260  -12.5012  -17.7923 C   0  0  0  0  0  0  0  0  0  0  0  0
   20.2589  -12.8022  -17.0384 O   0  0  0  0  0  0  0  0  0  0  0  0
   21.6066   -8.2707  -18.9803 C   0  0  0  0  0  0  0  0  0  0  0  0
   20.6603   -9.4087  -19.2256 C   0  0  2  0  0  0  0  0  0  0  0  0
   19.5161   -8.9684  -20.0881 C   0  0  0  0  0  0  0  0  0  0  0  0
   20.2898  -10.1544  -18.0035 C   0  0  2  0  0  0  0  0  0  0  0  0
   19.2722  -11.1821  -18.3120 N   0  0  0  0  0  0  0  0  0  0  0  0
   19.9088   -9.4013  -16.8091 C   0  0  0  0  0  0  0  0  0  0  0  0
   18.6910   -8.9849  -16.6450 O   0  0  0  0  0  0  0  0  0  0  0  0
   20.7285   -9.0316  -15.7219 N   0  0  0  0  0  0  0  0  0  0  0  0
   20.2399   -8.2607  -14.5614 C   0  0  1  0  0  0  0  0  0  0  0  0
   20.5547   -9.1091  -13.3487 C   0  0  0  0  0  0  0  0  0  0  0  0
   19.9963   -8.2116  -11.8781 S   0  0  0  0  0  0  0  0  0  0  0  0
   20.9111   -6.9665  -14.4677 C   0  0  0  0  0  0  0  0  0  0  0  0
   22.0976   -6.8234  -14.8522 O   0  0  0  0  0  0  0  0  0  0  0  0
   20.2483   -5.8769  -13.9530 O   0  0  0  0  0  0  0  0  0  0  0  0
  2  3  1  0
  2  1  1  0
  4  3  1  0
  4  5  1  0
  5  1  1  0
  5  6  1  1
  7  6  2  0
  9  8  1  1
  9 11  1  0
 10  9  1  0
 11 13  1  0
 11 12  1  6
 12  6  1  0
 13 15  1  0
 14 13  2  0
 15 16  1  0
 16 17  1  1
 17 18  1  0
 19 16  1  0
 20 19  2  0
 21 19  1  0
M  END
$$$$
