PVC.pdb
     RDKit          3D

 21 21  0  0  1  0  0  0  0  0999 V2000
   33.1836  -12.1143  -18.7404 N   0  0  0  0  0  0  0  0  0  0  0  0
   34.1612  -11.1170  -19.0922 C   0  0  0  0  0  0  0  0  0  0  0  0
   34.2551  -10.1622  -17.9342 C   0  0  0  0  0  0  0  0  0  0  0  0
   32.9748  -10.3305  -17.1666 C   0  0  0  0  0  0  0  0  0  0  0  0
   32.3876  -11.6001  -17.6678 C   0  0  1  0  0  0  0  0  0  0  0  0
   30.9746  -11.4664  -18.1203 C   0  0  0  0  0  0  0  0  0  0  0  0
   30.6913  -11.5099  -19.3233 O   0  0  0  0  0  0  0  0  0  0  0  0
   26.1879  -11.9283  -17.1052 C   0  0  0  0  0  0  0  0  0  0  0  0
   27.6455  -12.0160  -16.7609 C   0  0  2  0  0  0  0  0  0  0  0  0
   27.8452  -11.9218  -15.2782 C   0  0  0  0  0  0  0  0  0  0  0  0
   28.5087  -11.1375  -17.5795 C   0  0  2  0  0  0  0  0  0  0  0  0
   29.9253  -11.2870  -17.1823 N   0  0  0  0  0  0  0  0  0  0  0  0
   28.1589   -9.7226  -17.6995 C   0  0  0  0  0  0  0  0  0  0  0  0
   28.4646   -8.8794  -16.7620 O   0  0  0  0  0  0  0  0  0  0  0  0
   27.4886   -9.0849  -18.7647 N   0  0  0  0  0  0  0  0  0  0  0  0
   27.1678   -7.6438  -18.7762 C   0  0  1  0  0  0  0  0  0  0  0  0
   27.5586   -7.1518  -20.1527 C   0  0  0  0  0  0  0  0  0  0  0  0
   27.1492   -5.3906  -20.2542 S   0  0  0  0  0  0  0  0  0  0  0  0
   25.7441   -7.4186  -18.5382 C   0  0  0  0  0  0  0  0  0  0  0  0
   24.8875   -8.2676  -18.8865 O   0  0  0  0  0  0  0  0  0  0  0  0
   25.3175   -6.2642  -17.9244 O   0  0  0  0  0  0  0  0  0  0  0  0
  2  3  1  0
  2  1  1  0
  4  3  1  0
  4  5  1  0
  5  1  1  0
  5  6  1  6
  7  6  2  0
  9  8  1  1
  9 11  1  0
 10  9  1  0
 11 13  1  0
 11 12  1  1
 12  6  1  0
 13 15  1  0
 14 13  2  0
 15 16  1  0
 16 17  1  6
 17 18  1  0
 19 16  1  0
 20 19  2  0
 21 19  1  0
M  END
$$$$
