PVC.pdb
     RDKit          3D

 21 21  0  0  1  0  0  0  0  0999 V2000
   23.8759  -12.8104  -19.1996 N   0  0  0  0  0  0  0  0  0  0  0  0
   24.1952  -12.4703  -20.5622 C   0  0  0  0  0  0  0  0  0  0  0  0
   25.1822  -11.3367  -20.5152 C   0  0  0  0  0  0  0  0  0  0  0  0
   25.0179  -10.7135  -19.1583 C   0  0  0  0  0  0  0  0  0  0  0  0
   24.2532  -11.7105  -18.3651 C   0  0  1  0  0  0  0  0  0  0  0  0
   23.0395  -11.1475  -17.7098 C   0  0  0  0  0  0  0  0  0  0  0  0
   21.9120  -11.3931  -18.1546 O   0  0  0  0  0  0  0  0  0  0  0  0
   20.7556   -9.8452  -13.6611 C   0  0  0  0  0  0  0  0  0  0  0  0
   21.9053  -10.3589  -14.4767 C   0  0  2  0  0  0  0  0  0  0  0  0
   23.1779  -10.3107  -13.6859 C   0  0  0  0  0  0  0  0  0  0  0  0
   21.9768   -9.7872  -15.8387 C   0  0  2  0  0  0  0  0  0  0  0  0
   23.1510  -10.3194  -16.5632 N   0  0  0  0  0  0  0  0  0  0  0  0
   21.8945   -8.3356  -15.9967 C   0  0  0  0  0  0  0  0  0  0  0  0
   22.8358   -7.5628  -15.5494 O   0  0  0  0  0  0  0  0  0  0  0  0
   20.8671   -7.5897  -16.6121 N   0  0  0  0  0  0  0  0  0  0  0  0
   20.8564   -6.1144  -16.6684 C   0  0  1  0  0  0  0  0  0  0  0  0
   20.3598   -5.7645  -18.0542 C   0  0  0  0  0  0  0  0  0  0  0  0
   20.1883   -3.9641  -18.1489 S   0  0  0  0  0  0  0  0  0  0  0  0
   19.9697   -5.5543  -15.6514 C   0  0  0  0  0  0  0  0  0  0  0  0
   18.9167   -6.1481  -15.3128 O   0  0  0  0  0  0  0  0  0  0  0  0
   20.2775   -4.3590  -15.0448 O   0  0  0  0  0  0  0  0  0  0  0  0
  2  3  1  0
  2  1  1  0
  4  3  1  0
  4  5  1  0
  5  1  1  0
  5  6  1  6
  7  6  2  0
  9  8  1  1
  9 11  1  0
 10  9  1  0
 11 13  1  0
 11 12  1  1
 12  6  1  0
 13 15  1  0
 14 13  2  0
 15 16  1  0
 16 17  1  6
 17 18  1  0
 19 16  1  0
 20 19  2  0
 21 19  1  0
M  END
$$$$
