PVC.pdb
     RDKit          3D

 21 21  0  0  1  0  0  0  0  0999 V2000
   22.2981  -19.3501  -10.2537 N   0  0  0  0  0  0  0  0  0  0  0  0
   21.5575  -20.1623   -9.3231 C   0  0  0  0  0  0  0  0  0  0  0  0
   22.4252  -21.3407   -8.9771 C   0  0  0  0  0  0  0  0  0  0  0  0
   23.4222  -21.4510  -10.0954 C   0  0  0  0  0  0  0  0  0  0  0  0
   23.3426  -20.1527  -10.8136 C   0  0  1  0  0  0  0  0  0  0  0  0
   23.1253  -20.2946  -12.2805 C   0  0  0  0  0  0  0  0  0  0  0  0
   23.8273  -21.0614  -12.9502 O   0  0  0  0  0  0  0  0  0  0  0  0
   19.5871  -18.6087  -14.2345 C   0  0  0  0  0  0  0  0  0  0  0  0
   20.3900  -19.8102  -14.6377 C   0  0  2  0  0  0  0  0  0  0  0  0
   19.7594  -21.0665  -14.1170 C   0  0  0  0  0  0  0  0  0  0  0  0
   21.8412  -19.6726  -14.3889 C   0  0  2  0  0  0  0  0  0  0  0  0
   22.1096  -19.5549  -12.9394 N   0  0  0  0  0  0  0  0  0  0  0  0
   22.5881  -18.6570  -15.1303 C   0  0  0  0  0  0  0  0  0  0  0  0
   22.5460  -17.4094  -14.7769 O   0  0  0  0  0  0  0  0  0  0  0  0
   23.4139  -18.8431  -16.2589 N   0  0  0  0  0  0  0  0  0  0  0  0
   24.0545  -17.7313  -16.9892 C   0  0  1  0  0  0  0  0  0  0  0  0
   25.5439  -17.9480  -16.8338 C   0  0  0  0  0  0  0  0  0  0  0  0
   26.3980  -16.6463  -17.7591 S   0  0  0  0  0  0  0  0  0  0  0  0
   23.6810  -17.7436  -18.4015 C   0  0  0  0  0  0  0  0  0  0  0  0
   23.3220  -18.8054  -18.9668 O   0  0  0  0  0  0  0  0  0  0  0  0
   23.7172  -16.5831  -19.1387 O   0  0  0  0  0  0  0  0  0  0  0  0
  2  3  1  0
  2  1  1  0
  4  3  1  0
  4  5  1  0
  5  1  1  0
  5  6  1  6
  7  6  2  0
  9  8  1  1
  9 11  1  0
 10  9  1  0
 11 13  1  0
 11 12  1  1
 12  6  1  0
 13 15  1  0
 14 13  2  0
 15 16  1  0
 16 17  1  6
 17 18  1  0
 19 16  1  0
 20 19  2  0
 21 19  1  0
M  END
$$$$
