PVC.pdb
     RDKit          3D

 21 21  0  0  1  0  0  0  0  0999 V2000
   28.7120  -20.8298  -15.4667 N   0  0  0  0  0  0  0  0  0  0  0  0
   28.5179  -20.3269  -16.8022 C   0  0  0  0  0  0  0  0  0  0  0  0
   28.1483  -18.8746  -16.6783 C   0  0  0  0  0  0  0  0  0  0  0  0
   27.6382  -18.7054  -15.2755 C   0  0  0  0  0  0  0  0  0  0  0  0
   28.0801  -19.9267  -14.5536 C   0  0  1  0  0  0  0  0  0  0  0  0
   26.9768  -20.6323  -13.8437 C   0  0  0  0  0  0  0  0  0  0  0  0
   26.5259  -21.6976  -14.2809 O   0  0  0  0  0  0  0  0  0  0  0  0
   26.8810  -20.9265   -9.8609 C   0  0  0  0  0  0  0  0  0  0  0  0
   25.5527  -20.5095  -10.4201 C   0  0  2  0  0  0  0  0  0  0  0  0
   24.4365  -20.9739   -9.5338 C   0  0  0  0  0  0  0  0  0  0  0  0
   25.3898  -20.8027  -11.8604 C   0  0  2  0  0  0  0  0  0  0  0  0
   26.4210  -20.0983  -12.6525 N   0  0  0  0  0  0  0  0  0  0  0  0
   24.0713  -20.6277  -12.4684 C   0  0  0  0  0  0  0  0  0  0  0  0
   23.6034  -19.4428  -12.7140 O   0  0  0  0  0  0  0  0  0  0  0  0
   23.1603  -21.6308  -12.8613 N   0  0  0  0  0  0  0  0  0  0  0  0
   21.8365  -21.3415  -13.4477 C   0  0  1  0  0  0  0  0  0  0  0  0
   21.4365  -22.5994  -14.1875 C   0  0  0  0  0  0  0  0  0  0  0  0
   19.7944  -22.3297  -14.9021 S   0  0  0  0  0  0  0  0  0  0  0  0
   20.8577  -21.0258  -12.4102 C   0  0  0  0  0  0  0  0  0  0  0  0
   20.8403  -21.6549  -11.3239 O   0  0  0  0  0  0  0  0  0  0  0  0
   19.9335  -20.0270  -12.6092 O   0  0  0  0  0  0  0  0  0  0  0  0
  2  3  1  0
  2  1  1  0
  4  3  1  0
  4  5  1  0
  5  1  1  0
  5  6  1  6
  7  6  2  0
  9  8  1  1
  9 11  1  0
 10  9  1  0
 11 13  1  0
 11 12  1  6
 12  6  1  0
 13 15  1  0
 14 13  2  0
 15 16  1  0
 16 17  1  1
 17 18  1  0
 19 16  1  0
 20 19  2  0
 21 19  1  0
M  END
$$$$
