PVC.pdb
     RDKit          3D

 21 21  0  0  1  0  0  0  0  0999 V2000
   19.9509  -19.0029  -15.0836 N   0  0  0  0  0  0  0  0  0  0  0  0
   21.2317  -19.4699  -15.5479 C   0  0  0  0  0  0  0  0  0  0  0  0
   22.2774  -18.5927  -14.9167 C   0  0  0  0  0  0  0  0  0  0  0  0
   21.5619  -17.3332  -14.5185 C   0  0  0  0  0  0  0  0  0  0  0  0
   20.1169  -17.6743  -14.5778 C   0  0  1  0  0  0  0  0  0  0  0  0
   19.3136  -16.7275  -15.4010 C   0  0  0  0  0  0  0  0  0  0  0  0
   19.0052  -17.0097  -16.5649 O   0  0  0  0  0  0  0  0  0  0  0  0
   16.4137  -14.0185  -13.8486 C   0  0  0  0  0  0  0  0  0  0  0  0
   16.6639  -14.5654  -15.2230 C   0  0  2  0  0  0  0  0  0  0  0  0
   15.9862  -15.8912  -15.3960 C   0  0  0  0  0  0  0  0  0  0  0  0
   18.0816  -14.5126  -15.6403 C   0  0  2  0  0  0  0  0  0  0  0  0
   18.8856  -15.4843  -14.8681 N   0  0  0  0  0  0  0  0  0  0  0  0
   18.7536  -13.2144  -15.6836 C   0  0  0  0  0  0  0  0  0  0  0  0
   19.2685  -12.6951  -14.6120 O   0  0  0  0  0  0  0  0  0  0  0  0
   18.9435  -12.3759  -16.8024 N   0  0  0  0  0  0  0  0  0  0  0  0
   19.5787  -11.0456  -16.7221 C   0  0  1  0  0  0  0  0  0  0  0  0
   19.8152  -10.6214  -18.1552 C   0  0  0  0  0  0  0  0  0  0  0  0
   20.6081   -8.9933  -18.1329 S   0  0  0  0  0  0  0  0  0  0  0  0
   18.7109  -10.0870  -16.0421 C   0  0  0  0  0  0  0  0  0  0  0  0
   17.4822  -10.0343  -16.2942 O   0  0  0  0  0  0  0  0  0  0  0  0
   19.2308   -9.2214  -15.1085 O   0  0  0  0  0  0  0  0  0  0  0  0
  2  3  1  0
  2  1  1  0
  4  3  1  0
  4  5  1  0
  5  1  1  0
  5  6  1  6
  7  6  2  0
  9  8  1  1
  9 11  1  0
 10  9  1  0
 11 13  1  0
 11 12  1  1
 12  6  1  0
 13 15  1  0
 14 13  2  0
 15 16  1  0
 16 17  1  6
 17 18  1  0
 19 16  1  0
 20 19  2  0
 21 19  1  0
M  END
$$$$
