PVC.pdb
     RDKit          3D

 21 21  0  0  1  0  0  0  0  0999 V2000
   19.3700  -14.6942  -17.9676 N   0  0  0  0  0  0  0  0  0  0  0  0
   18.0863  -14.6047  -18.6143 C   0  0  0  0  0  0  0  0  0  0  0  0
   18.2434  -13.6690  -19.7810 C   0  0  0  0  0  0  0  0  0  0  0  0
   19.4646  -12.8480  -19.4793 C   0  0  0  0  0  0  0  0  0  0  0  0
   20.1593  -13.5758  -18.3859 C   0  0  1  0  0  0  0  0  0  0  0  0
   20.4725  -12.7222  -17.2058 C   0  0  0  0  0  0  0  0  0  0  0  0
   19.6724  -12.6257  -16.2678 O   0  0  0  0  0  0  0  0  0  0  0  0
   23.7451  -12.8216  -15.2409 C   0  0  0  0  0  0  0  0  0  0  0  0
   23.4508  -11.3880  -15.5708 C   0  0  2  0  0  0  0  0  0  0  0  0
   23.9785  -10.4802  -14.5010 C   0  0  0  0  0  0  0  0  0  0  0  0
   22.0524  -11.1430  -15.9848 C   0  0  2  0  0  0  0  0  0  0  0  0
   21.6935  -12.0035  -17.1327 N   0  0  0  0  0  0  0  0  0  0  0  0
   21.6215   -9.7662  -16.2247 C   0  0  0  0  0  0  0  0  0  0  0  0
   22.0871   -9.0881  -17.2280 O   0  0  0  0  0  0  0  0  0  0  0  0
   20.7024   -9.0044  -15.4727 N   0  0  0  0  0  0  0  0  0  0  0  0
   20.3957   -7.5885  -15.7576 C   0  0  1  0  0  0  0  0  0  0  0  0
   18.8865   -7.5062  -15.8287 C   0  0  0  0  0  0  0  0  0  0  0  0
   18.3344   -8.5401  -17.2093 S   0  0  0  0  0  0  0  0  0  0  0  0
   20.9059   -6.7159  -14.7028 C   0  0  0  0  0  0  0  0  0  0  0  0
   20.8508   -5.4666  -14.8133 O   0  0  0  0  0  0  0  0  0  0  0  0
   21.4585   -7.2540  -13.5642 O   0  0  0  0  0  0  0  0  0  0  0  0
  2  3  1  0
  2  1  1  0
  4  3  1  0
  4  5  1  0
  5  1  1  0
  5  6  1  1
  7  6  2  0
  9  8  1  1
  9 11  1  0
 10  9  1  0
 11 13  1  0
 11 12  1  6
 12  6  1  0
 13 15  1  0
 14 13  2  0
 15 16  1  0
 16 17  1  1
 17 18  1  0
 19 16  1  0
 20 19  2  0
 21 19  1  0
M  END
$$$$
