PVC.pdb
     RDKit          3D

 21 21  0  0  1  0  0  0  0  0999 V2000
   28.5487  -19.3628  -15.9322 N   0  0  0  0  0  0  0  0  0  0  0  0
   28.0968  -18.4870  -16.9824 C   0  0  0  0  0  0  0  0  0  0  0  0
   27.6549  -17.2061  -16.3303 C   0  0  0  0  0  0  0  0  0  0  0  0
   27.3800  -17.5566  -14.8957 C   0  0  0  0  0  0  0  0  0  0  0  0
   28.0206  -18.8817  -14.6919 C   0  0  1  0  0  0  0  0  0  0  0  0
   27.1047  -19.9047  -14.1140 C   0  0  0  0  0  0  0  0  0  0  0  0
   26.7106  -20.8562  -14.7986 O   0  0  0  0  0  0  0  0  0  0  0  0
   24.9419  -21.7798  -10.0242 C   0  0  0  0  0  0  0  0  0  0  0  0
   25.8648  -20.8120  -10.7042 C   0  0  2  0  0  0  0  0  0  0  0  0
   25.8628  -19.4917   -9.9943 C   0  0  0  0  0  0  0  0  0  0  0  0
   25.6924  -20.7493  -12.1716 C   0  0  2  0  0  0  0  0  0  0  0  0
   26.6661  -19.8096  -12.7681 N   0  0  0  0  0  0  0  0  0  0  0  0
   24.3549  -20.5097  -12.7124 C   0  0  0  0  0  0  0  0  0  0  0  0
   23.9237  -19.3023  -12.9115 O   0  0  0  0  0  0  0  0  0  0  0  0
   23.3871  -21.4676  -13.0815 N   0  0  0  0  0  0  0  0  0  0  0  0
   22.0588  -21.1144  -13.6207 C   0  0  1  0  0  0  0  0  0  0  0  0
   21.8104  -22.0838  -14.7558 C   0  0  0  0  0  0  0  0  0  0  0  0
   20.1401  -21.7868  -15.3895 S   0  0  0  0  0  0  0  0  0  0  0  0
   21.0227  -21.2474  -12.5994 C   0  0  0  0  0  0  0  0  0  0  0  0
   21.1012  -22.1286  -11.7087 O   0  0  0  0  0  0  0  0  0  0  0  0
   19.9374  -20.4026  -12.5982 O   0  0  0  0  0  0  0  0  0  0  0  0
  2  3  1  0
  2  1  1  0
  4  3  1  0
  4  5  1  0
  5  1  1  0
  5  6  1  6
  7  6  2  0
  9  8  1  1
  9 11  1  0
 10  9  1  0
 11 13  1  0
 11 12  1  1
 12  6  1  0
 13 15  1  0
 14 13  2  0
 15 16  1  0
 16 17  1  6
 17 18  1  0
 19 16  1  0
 20 19  2  0
 21 19  1  0
M  END
$$$$
