PVC.pdb
     RDKit          3D

 21 21  0  0  1  0  0  0  0  0999 V2000
   23.4124  -15.0956  -19.3488 N   0  0  0  0  0  0  0  0  0  0  0  0
   22.3400  -15.2313  -20.3005 C   0  0  0  0  0  0  0  0  0  0  0  0
   22.5550  -14.1867  -21.3606 C   0  0  0  0  0  0  0  0  0  0  0  0
   23.4415  -13.1495  -20.7323 C   0  0  0  0  0  0  0  0  0  0  0  0
   23.9983  -13.8009  -19.5185 C   0  0  1  0  0  0  0  0  0  0  0  0
   23.8083  -13.0048  -18.2737 C   0  0  0  0  0  0  0  0  0  0  0  0
   22.8296  -13.2008  -17.5436 O   0  0  0  0  0  0  0  0  0  0  0  0
   25.7979  -10.3071  -14.6797 C   0  0  0  0  0  0  0  0  0  0  0  0
   25.8898  -11.0219  -15.9956 C   0  0  2  0  0  0  0  0  0  0  0  0
   27.0040  -10.4597  -16.8260 C   0  0  0  0  0  0  0  0  0  0  0  0
   24.5914  -11.1747  -16.6867 C   0  0  2  0  0  0  0  0  0  0  0  0
   24.7448  -12.0068  -17.8996 N   0  0  0  0  0  0  0  0  0  0  0  0
   23.8092   -9.9758  -16.9860 C   0  0  0  0  0  0  0  0  0  0  0  0
   24.0661   -9.2581  -18.0358 O   0  0  0  0  0  0  0  0  0  0  0  0
   22.7316   -9.4403  -16.2494 N   0  0  0  0  0  0  0  0  0  0  0  0
   22.0166   -8.2076  -16.6355 C   0  0  1  0  0  0  0  0  0  0  0  0
   20.6044   -8.6423  -16.9612 C   0  0  0  0  0  0  0  0  0  0  0  0
   19.6201   -7.1551  -17.2766 S   0  0  0  0  0  0  0  0  0  0  0  0
   22.0133   -7.2362  -15.5442 C   0  0  0  0  0  0  0  0  0  0  0  0
   22.0179   -7.6094  -14.3456 O   0  0  0  0  0  0  0  0  0  0  0  0
   22.0051   -5.8880  -15.8157 O   0  0  0  0  0  0  0  0  0  0  0  0
  2  3  1  0
  2  1  1  0
  4  3  1  0
  4  5  1  0
  5  1  1  0
  5  6  1  1
  7  6  2  0
  9  8  1  1
  9 11  1  0
 10  9  1  0
 11 13  1  0
 11 12  1  6
 12  6  1  0
 13 15  1  0
 14 13  2  0
 15 16  1  0
 16 17  1  1
 17 18  1  0
 19 16  1  0
 20 19  2  0
 21 19  1  0
M  END
$$$$
