PWQ.pdb
     RDKit          3D

 31 33  0  0  1  0  0  0  0  0999 V2000
    7.4993  -15.3962   20.2603 N   0  0  0  0  0  0  0  0  0  0  0  0
    6.4170  -14.5840   19.7958 C   0  0  0  0  0  0  0  0  0  0  0  0
    7.1015  -13.3659   19.2274 C   0  0  0  0  0  0  0  0  0  0  0  0
    8.2121  -13.1391   20.2615 C   0  0  0  0  0  0  0  0  0  0  0  0
    8.6299  -14.5503   20.5356 C   0  0  1  0  0  0  0  0  0  0  0  0
    9.0709  -14.7884   21.9299 C   0  0  0  0  0  0  0  0  0  0  0  0
    9.9945  -14.1336   22.4774 O   0  0  0  0  0  0  0  0  0  0  0  0
    8.4124  -15.8032   22.6671 N   0  0  0  0  0  0  0  0  0  0  0  0
    8.7866  -16.0718   24.0683 C   0  0  1  0  0  0  0  0  0  0  0  0
    7.5187  -16.2597   24.8748 C   0  0  0  0  0  0  0  0  0  0  0  0
    6.8582  -15.0200   25.2493 C   0  0  0  0  0  0  0  0  0  0  0  0
    5.4985  -14.7096   25.0903 C   0  0  0  0  0  0  0  0  0  0  0  0
    5.2748  -13.4691   25.5344 N   0  0  0  0  0  0  0  0  0  0  0  0
    6.4129  -12.9171   25.9886 C   0  0  0  0  0  0  0  0  0  0  0  0
    6.7445  -11.6882   26.5434 C   0  0  0  0  0  0  0  0  0  0  0  0
    8.0161  -11.3698   26.9329 C   0  0  0  0  0  0  0  0  0  0  0  0
    9.0165  -12.3210   26.7641 C   0  0  0  0  0  0  0  0  0  0  0  0
    8.6759  -13.5450   26.2094 C   0  0  0  0  0  0  0  0  0  0  0  0
    7.4082  -13.8739   25.8165 C   0  0  0  0  0  0  0  0  0  0  0  0
    9.6468  -17.2732   24.0505 C   0  0  0  0  0  0  0  0  0  0  0  0
    9.8364  -17.9226   22.9626 O   0  0  0  0  0  0  0  0  0  0  0  0
   14.2123  -16.4577   22.4792 N   0  0  0  0  0  0  0  0  0  0  0  0
   14.6509  -17.7252   22.9808 C   0  0  0  0  0  0  0  0  0  0  0  0
   15.8052  -18.1033   22.5877 O   0  0  0  0  0  0  0  0  0  0  0  0
   13.8351  -18.5434   23.8957 C   0  0  0  0  0  0  0  0  0  0  0  0
   12.5218  -17.9059   24.1713 C   0  0  0  0  0  0  0  0  0  0  0  0
   11.5604  -18.6029   25.0478 C   0  0  2  0  0  0  0  0  0  0  0  0
   10.3240  -17.8084   25.1815 N   0  0  0  0  0  0  0  0  0  0  0  0
   12.0138  -19.1380   26.3085 C   0  0  0  0  0  0  0  0  0  0  0  0
   11.5429  -18.8394   27.4253 O   0  0  0  0  0  0  0  0  0  0  0  0
   13.0640  -20.0701   26.3357 O   0  0  0  0  0  0  0  0  0  0  0  0
  2  1  1  0
  3  4  1  0
  3  2  1  0
  4  5  1  0
  5  1  1  0
  5  6  1  1
  7  6  2  0
  8  6  1  0
  9 10  1  1
  9  8  1  0
 10 11  1  0
 11 19  1  0
 12 11  2  0
 12 13  1  0
 13 14  1  0
 14 15  2  0
 15 16  1  0
 17 16  2  0
 18 17  1  0
 19 18  2  0
 19 14  1  0
 20 21  2  0
 20  9  1  0
 22 23  1  0
 23 24  2  0
 25 26  1  0
 25 23  1  0
 27 26  1  1
 27 28  1  0
 28 20  1  0
 29 27  1  0
 29 31  1  0
 30 29  2  0
M  END
$$$$
