PWQ.pdb
     RDKit          3D

 31 33  0  0  1  0  0  0  0  0999 V2000
    7.6960  -15.5727   20.6201 N   0  0  0  0  0  0  0  0  0  0  0  0
    6.4933  -14.9482   20.1611 C   0  0  0  0  0  0  0  0  0  0  0  0
    6.9855  -13.7722   19.3548 C   0  0  0  0  0  0  0  0  0  0  0  0
    8.1534  -13.2846   20.2224 C   0  0  0  0  0  0  0  0  0  0  0  0
    8.7469  -14.5908   20.6500 C   0  0  1  0  0  0  0  0  0  0  0  0
    9.3357  -14.5690   22.0095 C   0  0  0  0  0  0  0  0  0  0  0  0
   10.1317  -13.6757   22.3968 O   0  0  0  0  0  0  0  0  0  0  0  0
    8.9758  -15.6084   22.9023 N   0  0  0  0  0  0  0  0  0  0  0  0
    9.5963  -15.6953   24.2375 C   0  0  1  0  0  0  0  0  0  0  0  0
    8.5300  -16.0954   25.2358 C   0  0  0  0  0  0  0  0  0  0  0  0
    7.4804  -15.1065   25.4190 C   0  0  0  0  0  0  0  0  0  0  0  0
    6.1425  -15.2134   25.0078 C   0  0  0  0  0  0  0  0  0  0  0  0
    5.4898  -14.0942   25.3356 N   0  0  0  0  0  0  0  0  0  0  0  0
    6.3144  -13.2288   25.9499 C   0  0  0  0  0  0  0  0  0  0  0  0
    6.1663  -11.9558   26.4843 C   0  0  0  0  0  0  0  0  0  0  0  0
    7.1960  -11.2741   27.0714 C   0  0  0  0  0  0  0  0  0  0  0  0
    8.4432  -11.8862   27.1336 C   0  0  0  0  0  0  0  0  0  0  0  0
    8.5815  -13.1571   26.5975 C   0  0  0  0  0  0  0  0  0  0  0  0
    7.5590  -13.8479   26.0083 C   0  0  0  0  0  0  0  0  0  0  0  0
   10.6901  -16.6830   24.1291 C   0  0  0  0  0  0  0  0  0  0  0  0
   10.6215  -17.6403   23.2805 O   0  0  0  0  0  0  0  0  0  0  0  0
   12.0223  -20.4275   27.7541 N   0  0  0  0  0  0  0  0  0  0  0  0
   12.2570  -21.1209   26.5235 C   0  0  0  0  0  0  0  0  0  0  0  0
   12.2730  -22.3950   26.6037 O   0  0  0  0  0  0  0  0  0  0  0  0
   12.4609  -20.4205   25.2428 C   0  0  0  0  0  0  0  0  0  0  0  0
   11.8381  -19.0718   25.2551 C   0  0  0  0  0  0  0  0  0  0  0  0
   12.7017  -17.8858   25.0940 C   0  0  2  0  0  0  0  0  0  0  0  0
   11.8768  -16.6754   24.9138 N   0  0  0  0  0  0  0  0  0  0  0  0
   13.8124  -17.9407   24.1749 C   0  0  0  0  0  0  0  0  0  0  0  0
   15.0125  -17.8075   24.4913 O   0  0  0  0  0  0  0  0  0  0  0  0
   13.5785  -18.1583   22.8072 O   0  0  0  0  0  0  0  0  0  0  0  0
  2  1  1  0
  3  4  1  0
  3  2  1  0
  4  5  1  0
  5  1  1  0
  5  6  1  1
  7  6  2  0
  8  6  1  0
  9 10  1  1
  9  8  1  0
 10 11  1  0
 11 19  1  0
 12 11  2  0
 12 13  1  0
 13 14  1  0
 14 15  2  0
 15 16  1  0
 17 16  2  0
 18 17  1  0
 19 18  2  0
 19 14  1  0
 20 21  2  0
 20  9  1  0
 22 23  1  0
 23 24  2  0
 25 26  1  0
 25 23  1  0
 27 26  1  6
 27 28  1  0
 28 20  1  0
 29 27  1  0
 29 31  1  0
 30 29  2  0
M  END
$$$$
