PWQ.pdb
     RDKit          3D

 31 33  0  0  1  0  0  0  0  0999 V2000
    7.3034  -16.4112   21.6770 N   0  0  0  0  0  0  0  0  0  0  0  0
    6.0387  -15.7905   21.4276 C   0  0  0  0  0  0  0  0  0  0  0  0
    6.3539  -14.7377   20.3945 C   0  0  0  0  0  0  0  0  0  0  0  0
    7.6973  -14.2064   20.9115 C   0  0  0  0  0  0  0  0  0  0  0  0
    8.3502  -15.4800   21.3504 C   0  0  1  0  0  0  0  0  0  0  0  0
    9.2343  -15.3289   22.5297 C   0  0  0  0  0  0  0  0  0  0  0  0
   10.1497  -14.4690   22.5938 O   0  0  0  0  0  0  0  0  0  0  0  0
    9.0264  -16.2001   23.6274 N   0  0  0  0  0  0  0  0  0  0  0  0
    9.8253  -16.0549   24.8587 C   0  0  1  0  0  0  0  0  0  0  0  0
    8.9102  -16.2528   26.0491 C   0  0  0  0  0  0  0  0  0  0  0  0
    7.7372  -15.3941   26.0516 C   0  0  0  0  0  0  0  0  0  0  0  0
    6.4146  -15.7756   25.7763 C   0  0  0  0  0  0  0  0  0  0  0  0
    5.6208  -14.7035   25.8575 N   0  0  0  0  0  0  0  0  0  0  0  0
    6.3345  -13.6097   26.1745 C   0  0  0  0  0  0  0  0  0  0  0  0
    6.0250  -12.2719   26.3807 C   0  0  0  0  0  0  0  0  0  0  0  0
    6.9669  -11.3344   26.7030 C   0  0  0  0  0  0  0  0  0  0  0  0
    8.2902  -11.7434   26.8287 C   0  0  0  0  0  0  0  0  0  0  0  0
    8.5895  -13.0810   26.6210 C   0  0  0  0  0  0  0  0  0  0  0  0
    7.6560  -14.0266   26.2984 C   0  0  0  0  0  0  0  0  0  0  0  0
   10.9034  -17.0626   24.7814 C   0  0  0  0  0  0  0  0  0  0  0  0
   10.6264  -18.3133   24.7691 O   0  0  0  0  0  0  0  0  0  0  0  0
   16.9308  -15.6623   22.4238 N   0  0  0  0  0  0  0  0  0  0  0  0
   15.5653  -15.4696   22.8093 C   0  0  0  0  0  0  0  0  0  0  0  0
   14.8533  -14.7924   21.9940 O   0  0  0  0  0  0  0  0  0  0  0  0
   15.0069  -16.0181   24.0581 C   0  0  0  0  0  0  0  0  0  0  0  0
   14.4710  -17.3892   23.8584 C   0  0  0  0  0  0  0  0  0  0  0  0
   13.3168  -17.8287   24.6666 C   0  0  2  0  0  0  0  0  0  0  0  0
   12.2933  -16.7665   24.7131 N   0  0  0  0  0  0  0  0  0  0  0  0
   13.5469  -18.4327   25.9564 C   0  0  0  0  0  0  0  0  0  0  0  0
   14.3193  -19.3890   26.1730 O   0  0  0  0  0  0  0  0  0  0  0  0
   12.8737  -17.9438   27.0878 O   0  0  0  0  0  0  0  0  0  0  0  0
  2  1  1  0
  3  4  1  0
  3  2  1  0
  4  5  1  0
  5  1  1  0
  5  6  1  1
  7  6  2  0
  8  6  1  0
  9 10  1  1
  9  8  1  0
 10 11  1  0
 11 19  1  0
 12 11  2  0
 12 13  1  0
 13 14  1  0
 14 15  2  0
 15 16  1  0
 17 16  2  0
 18 17  1  0
 19 18  2  0
 19 14  1  0
 20 21  2  0
 20  9  1  0
 22 23  1  0
 23 24  2  0
 25 26  1  0
 25 23  1  0
 27 26  1  1
 27 28  1  0
 28 20  1  0
 29 27  1  0
 29 31  1  0
 30 29  2  0
M  END
$$$$
