PWQ.pdb
     RDKit          3D

 31 33  0  0  1  0  0  0  0  0999 V2000
    7.5738  -15.3759   20.1965 N   0  0  0  0  0  0  0  0  0  0  0  0
    6.4108  -14.6522   19.7835 C   0  0  0  0  0  0  0  0  0  0  0  0
    6.9727  -13.4209   19.1177 C   0  0  0  0  0  0  0  0  0  0  0  0
    8.1389  -13.0817   20.0553 C   0  0  0  0  0  0  0  0  0  0  0  0
    8.6650  -14.4514   20.3522 C   0  0  1  0  0  0  0  0  0  0  0  0
    9.2209  -14.6008   21.7175 C   0  0  0  0  0  0  0  0  0  0  0  0
   10.1155  -13.8470   22.1790 O   0  0  0  0  0  0  0  0  0  0  0  0
    8.7110  -15.6449   22.5280 N   0  0  0  0  0  0  0  0  0  0  0  0
    9.2822  -15.9016   23.8634 C   0  0  1  0  0  0  0  0  0  0  0  0
    8.1449  -16.1683   24.8273 C   0  0  0  0  0  0  0  0  0  0  0  0
    7.2604  -15.0341   25.0380 C   0  0  0  0  0  0  0  0  0  0  0  0
    6.0058  -14.8237   24.4445 C   0  0  0  0  0  0  0  0  0  0  0  0
    5.5065  -13.6594   24.8702 N   0  0  0  0  0  0  0  0  0  0  0  0
    6.3567  -13.0644   25.7243 C   0  0  0  0  0  0  0  0  0  0  0  0
    6.3414  -11.8767   26.4434 C   0  0  0  0  0  0  0  0  0  0  0  0
    7.3648  -11.4954   27.2664 C   0  0  0  0  0  0  0  0  0  0  0  0
    8.4658  -12.3366   27.3850 C   0  0  0  0  0  0  0  0  0  0  0  0
    8.4721  -13.5203   26.6633 C   0  0  0  0  0  0  0  0  0  0  0  0
    7.4547  -13.9114   25.8377 C   0  0  0  0  0  0  0  0  0  0  0  0
   10.1988  -17.0511   23.7145 C   0  0  0  0  0  0  0  0  0  0  0  0
   10.4593  -17.5305   22.5555 O   0  0  0  0  0  0  0  0  0  0  0  0
   15.9499  -18.2910   22.1719 N   0  0  0  0  0  0  0  0  0  0  0  0
   14.9128  -17.3129   22.3066 C   0  0  0  0  0  0  0  0  0  0  0  0
   15.2851  -16.0968   22.1957 O   0  0  0  0  0  0  0  0  0  0  0  0
   13.5052  -17.6753   22.5503 C   0  0  0  0  0  0  0  0  0  0  0  0
   13.1165  -17.4287   23.9629 C   0  0  0  0  0  0  0  0  0  0  0  0
   12.1743  -18.3582   24.6161 C   0  0  2  0  0  0  0  0  0  0  0  0
   10.8583  -17.7128   24.7875 N   0  0  0  0  0  0  0  0  0  0  0  0
   12.5951  -19.0787   25.7931 C   0  0  0  0  0  0  0  0  0  0  0  0
   12.2031  -18.8457   26.9550 O   0  0  0  0  0  0  0  0  0  0  0  0
   13.5161  -20.1326   25.6761 O   0  0  0  0  0  0  0  0  0  0  0  0
  2  1  1  0
  3  4  1  0
  3  2  1  0
  4  5  1  0
  5  1  1  0
  5  6  1  1
  7  6  2  0
  8  6  1  0
  9 10  1  1
  9  8  1  0
 10 11  1  0
 11 19  1  0
 12 11  2  0
 12 13  1  0
 13 14  1  0
 14 15  2  0
 15 16  1  0
 17 16  2  0
 18 17  1  0
 19 18  2  0
 19 14  1  0
 20 21  2  0
 20  9  1  0
 22 23  1  0
 23 24  2  0
 25 26  1  0
 25 23  1  0
 27 26  1  1
 27 28  1  0
 28 20  1  0
 29 27  1  0
 29 31  1  0
 30 29  2  0
M  END
$$$$
