PWQ.pdb
     RDKit          3D

 31 33  0  0  1  0  0  0  0  0999 V2000
    7.4018  -15.4555   20.6471 N   0  0  0  0  0  0  0  0  0  0  0  0
    6.3014  -14.6129   20.2919 C   0  0  0  0  0  0  0  0  0  0  0  0
    6.9485  -13.4764   19.5404 C   0  0  0  0  0  0  0  0  0  0  0  0
    8.2141  -13.2487   20.3775 C   0  0  0  0  0  0  0  0  0  0  0  0
    8.6006  -14.6613   20.6879 C   0  0  1  0  0  0  0  0  0  0  0  0
    9.2382  -14.8342   22.0141 C   0  0  0  0  0  0  0  0  0  0  0  0
   10.2019  -14.1288   22.4079 O   0  0  0  0  0  0  0  0  0  0  0  0
    8.7275  -15.8443   22.8662 N   0  0  0  0  0  0  0  0  0  0  0  0
    9.3022  -16.0509   24.2087 C   0  0  1  0  0  0  0  0  0  0  0  0
    8.1747  -16.3699   25.1682 C   0  0  0  0  0  0  0  0  0  0  0  0
    7.1861  -15.3126   25.3029 C   0  0  0  0  0  0  0  0  0  0  0  0
    5.8462  -15.3555   24.8869 C   0  0  0  0  0  0  0  0  0  0  0  0
    5.2611  -14.1862   25.1636 N   0  0  0  0  0  0  0  0  0  0  0  0
    6.1339  -13.3474   25.7475 C   0  0  0  0  0  0  0  0  0  0  0  0
    6.0608  -12.0467   26.2279 C   0  0  0  0  0  0  0  0  0  0  0  0
    7.1273  -11.4046   26.7938 C   0  0  0  0  0  0  0  0  0  0  0  0
    8.3348  -12.0879   26.8901 C   0  0  0  0  0  0  0  0  0  0  0  0
    8.3981  -13.3861   26.4078 C   0  0  0  0  0  0  0  0  0  0  0  0
    7.3384  -14.0376   25.8403 C   0  0  0  0  0  0  0  0  0  0  0  0
   10.2841  -17.1479   24.0813 C   0  0  0  0  0  0  0  0  0  0  0  0
   10.6144  -17.5956   22.9274 O   0  0  0  0  0  0  0  0  0  0  0  0
   15.5988  -15.9501   23.3292 N   0  0  0  0  0  0  0  0  0  0  0  0
   14.5728  -16.5269   22.5137 C   0  0  0  0  0  0  0  0  0  0  0  0
   14.5050  -16.0832   21.3184 O   0  0  0  0  0  0  0  0  0  0  0  0
   13.6554  -17.5686   23.0089 C   0  0  0  0  0  0  0  0  0  0  0  0
   13.1573  -17.2517   24.3722 C   0  0  0  0  0  0  0  0  0  0  0  0
   12.3350  -18.2512   25.0815 C   0  0  2  0  0  0  0  0  0  0  0  0
   10.9362  -17.7896   25.1708 N   0  0  0  0  0  0  0  0  0  0  0  0
   12.8149  -18.8074   26.3232 C   0  0  0  0  0  0  0  0  0  0  0  0
   12.4558  -18.4387   27.4604 O   0  0  0  0  0  0  0  0  0  0  0  0
   13.7603  -19.8458   26.3055 O   0  0  0  0  0  0  0  0  0  0  0  0
  2  1  1  0
  3  4  1  0
  3  2  1  0
  4  5  1  0
  5  1  1  0
  5  6  1  1
  7  6  2  0
  8  6  1  0
  9 10  1  1
  9  8  1  0
 10 11  1  0
 11 19  1  0
 12 11  2  0
 12 13  1  0
 13 14  1  0
 14 15  2  0
 15 16  1  0
 17 16  2  0
 18 17  1  0
 19 18  2  0
 19 14  1  0
 20 21  2  0
 20  9  1  0
 22 23  1  0
 23 24  2  0
 25 26  1  0
 25 23  1  0
 27 26  1  1
 27 28  1  0
 28 20  1  0
 29 27  1  0
 29 31  1  0
 30 29  2  0
M  END
$$$$
