PWQ.pdb
     RDKit          3D

 31 33  0  0  1  0  0  0  0  0999 V2000
    7.3987  -15.4203   20.5969 N   0  0  0  0  0  0  0  0  0  0  0  0
    6.3488  -14.5000   20.2842 C   0  0  0  0  0  0  0  0  0  0  0  0
    7.0596  -13.3719   19.5790 C   0  0  0  0  0  0  0  0  0  0  0  0
    8.3386  -13.2553   20.4185 C   0  0  0  0  0  0  0  0  0  0  0  0
    8.6422  -14.7003   20.6656 C   0  0  1  0  0  0  0  0  0  0  0  0
    9.2721  -14.9677   21.9798 C   0  0  0  0  0  0  0  0  0  0  0  0
   10.3122  -14.3802   22.3730 O   0  0  0  0  0  0  0  0  0  0  0  0
    8.6631  -15.9317   22.8206 N   0  0  0  0  0  0  0  0  0  0  0  0
    9.2248  -16.2233   24.1528 C   0  0  1  0  0  0  0  0  0  0  0  0
    8.0787  -16.4390   25.1189 C   0  0  0  0  0  0  0  0  0  0  0  0
    7.2127  -15.2836   25.2878 C   0  0  0  0  0  0  0  0  0  0  0  0
    5.8869  -15.1539   24.8453 C   0  0  0  0  0  0  0  0  0  0  0  0
    5.4310  -13.9401   25.1691 N   0  0  0  0  0  0  0  0  0  0  0  0
    6.3784  -13.2347   25.8103 C   0  0  0  0  0  0  0  0  0  0  0  0
    6.4410  -11.9585   26.3535 C   0  0  0  0  0  0  0  0  0  0  0  0
    7.5591  -11.4696   26.9705 C   0  0  0  0  0  0  0  0  0  0  0  0
    8.6791  -12.2897   27.0551 C   0  0  0  0  0  0  0  0  0  0  0  0
    8.6072  -13.5623   26.5099 C   0  0  0  0  0  0  0  0  0  0  0  0
    7.4947  -14.0613   25.8909 C   0  0  0  0  0  0  0  0  0  0  0  0
   10.0834  -17.4157   23.9950 C   0  0  0  0  0  0  0  0  0  0  0  0
    9.6312  -18.4741   23.4326 O   0  0  0  0  0  0  0  0  0  0  0  0
   12.6954  -17.1775   19.3843 N   0  0  0  0  0  0  0  0  0  0  0  0
   12.8864  -18.4997   19.8997 C   0  0  0  0  0  0  0  0  0  0  0  0
   12.7429  -19.4460   19.0548 O   0  0  0  0  0  0  0  0  0  0  0  0
   13.2324  -18.7616   21.3082 C   0  0  0  0  0  0  0  0  0  0  0  0
   12.2826  -18.0938   22.2350 C   0  0  0  0  0  0  0  0  0  0  0  0
   12.4378  -18.3026   23.6879 C   0  0  2  0  0  0  0  0  0  0  0  0
   11.4358  -17.5099   24.4265 N   0  0  0  0  0  0  0  0  0  0  0  0
   13.7523  -18.2202   24.2766 C   0  0  0  0  0  0  0  0  0  0  0  0
   14.6362  -19.0967   24.1833 O   0  0  0  0  0  0  0  0  0  0  0  0
   14.1149  -17.0868   25.0226 O   0  0  0  0  0  0  0  0  0  0  0  0
  2  1  1  0
  3  4  1  0
  3  2  1  0
  4  5  1  0
  5  1  1  0
  5  6  1  1
  7  6  2  0
  8  6  1  0
  9 10  1  1
  9  8  1  0
 10 11  1  0
 11 19  1  0
 12 11  2  0
 12 13  1  0
 13 14  1  0
 14 15  2  0
 15 16  1  0
 17 16  2  0
 18 17  1  0
 19 18  2  0
 19 14  1  0
 20 21  2  0
 20  9  1  0
 22 23  1  0
 23 24  2  0
 25 26  1  0
 25 23  1  0
 27 26  1  6
 27 28  1  0
 28 20  1  0
 29 27  1  0
 29 31  1  0
 30 29  2  0
M  END
$$$$
