PWQ.pdb
     RDKit          3D

 31 33  0  0  1  0  0  0  0  0999 V2000
    7.3721  -16.0532   21.2421 N   0  0  0  0  0  0  0  0  0  0  0  0
    6.2710  -15.2256   20.8554 C   0  0  0  0  0  0  0  0  0  0  0  0
    6.9122  -14.1396   20.0281 C   0  0  0  0  0  0  0  0  0  0  0  0
    8.1925  -13.8715   20.8301 C   0  0  0  0  0  0  0  0  0  0  0  0
    8.5760  -15.2659   21.2170 C   0  0  1  0  0  0  0  0  0  0  0  0
    9.2340  -15.3649   22.5408 C   0  0  0  0  0  0  0  0  0  0  0  0
   10.2273  -14.6653   22.8658 O   0  0  0  0  0  0  0  0  0  0  0  0
    8.7087  -16.2941   23.4721 N   0  0  0  0  0  0  0  0  0  0  0  0
    9.2434  -16.3601   24.8451 C   0  0  1  0  0  0  0  0  0  0  0  0
    8.0779  -16.3893   25.8118 C   0  0  0  0  0  0  0  0  0  0  0  0
    7.1633  -15.2670   25.6808 C   0  0  0  0  0  0  0  0  0  0  0  0
    5.8897  -15.2839   25.0907 C   0  0  0  0  0  0  0  0  0  0  0  0
    5.3639  -14.0563   25.1420 N   0  0  0  0  0  0  0  0  0  0  0  0
    6.2140  -13.2023   25.7373 C   0  0  0  0  0  0  0  0  0  0  0  0
    6.1777  -11.8487   26.0442 C   0  0  0  0  0  0  0  0  0  0  0  0
    7.2068  -11.2032   26.6721 C   0  0  0  0  0  0  0  0  0  0  0  0
    8.3360  -11.9385   27.0161 C   0  0  0  0  0  0  0  0  0  0  0  0
    8.3631  -13.2893   26.7056 C   0  0  0  0  0  0  0  0  0  0  0  0
    7.3402  -13.9448   26.0782 C   0  0  0  0  0  0  0  0  0  0  0  0
   10.0831  -17.5742   24.9112 C   0  0  0  0  0  0  0  0  0  0  0  0
    9.6267  -18.7041   24.5162 O   0  0  0  0  0  0  0  0  0  0  0  0
   15.7156  -19.1787   23.3143 N   0  0  0  0  0  0  0  0  0  0  0  0
   15.0036  -17.9367   23.2846 C   0  0  0  0  0  0  0  0  0  0  0  0
   15.4919  -17.0404   22.5177 O   0  0  0  0  0  0  0  0  0  0  0  0
   13.7835  -17.7008   24.0770 C   0  0  0  0  0  0  0  0  0  0  0  0
   13.3921  -18.9099   24.8463 C   0  0  0  0  0  0  0  0  0  0  0  0
   12.1323  -18.8894   25.6151 C   0  0  2  0  0  0  0  0  0  0  0  0
   11.4209  -17.6155   25.3936 N   0  0  0  0  0  0  0  0  0  0  0  0
   12.1458  -19.2819   27.0033 C   0  0  0  0  0  0  0  0  0  0  0  0
   12.6782  -20.3187   27.4503 O   0  0  0  0  0  0  0  0  0  0  0  0
   11.5252  -18.4692   27.9661 O   0  0  0  0  0  0  0  0  0  0  0  0
  2  1  1  0
  3  4  1  0
  3  2  1  0
  4  5  1  0
  5  1  1  0
  5  6  1  1
  7  6  2  0
  8  6  1  0
  9 10  1  1
  9  8  1  0
 10 11  1  0
 11 19  1  0
 12 11  2  0
 12 13  1  0
 13 14  1  0
 14 15  2  0
 15 16  1  0
 17 16  2  0
 18 17  1  0
 19 18  2  0
 19 14  1  0
 20 21  2  0
 20  9  1  0
 22 23  1  0
 23 24  2  0
 25 26  1  0
 25 23  1  0
 27 26  1  1
 27 28  1  0
 28 20  1  0
 29 27  1  0
 29 31  1  0
 30 29  2  0
M  END
$$$$
