PWQ.pdb
     RDKit          3D

 31 33  0  0  1  0  0  0  0  0999 V2000
    7.8331  -16.0703   21.4588 N   0  0  0  0  0  0  0  0  0  0  0  0
    6.5278  -15.5725   21.1498 C   0  0  0  0  0  0  0  0  0  0  0  0
    6.8008  -14.2990   20.3890 C   0  0  0  0  0  0  0  0  0  0  0  0
    7.9795  -13.7237   21.1852 C   0  0  0  0  0  0  0  0  0  0  0  0
    8.7597  -14.9698   21.4674 C   0  0  1  0  0  0  0  0  0  0  0  0
    9.4666  -14.9566   22.7695 C   0  0  0  0  0  0  0  0  0  0  0  0
   10.2250  -14.0194   23.1275 O   0  0  0  0  0  0  0  0  0  0  0  0
    9.2690  -16.0566   23.6400 N   0  0  0  0  0  0  0  0  0  0  0  0
    9.8921  -16.0735   24.9767 C   0  0  1  0  0  0  0  0  0  0  0  0
    8.8183  -16.3731   26.0018 C   0  0  0  0  0  0  0  0  0  0  0  0
    7.6667  -15.4882   25.9384 C   0  0  0  0  0  0  0  0  0  0  0  0
    6.3576  -15.8360   25.5701 C   0  0  0  0  0  0  0  0  0  0  0  0
    5.5835  -14.7473   25.6136 N   0  0  0  0  0  0  0  0  0  0  0  0
    6.2980  -13.6741   25.9931 C   0  0  0  0  0  0  0  0  0  0  0  0
    6.0046  -12.3325   26.1974 C   0  0  0  0  0  0  0  0  0  0  0  0
    6.9430  -11.4208   26.5953 C   0  0  0  0  0  0  0  0  0  0  0  0
    8.2457  -11.8613   26.8030 C   0  0  0  0  0  0  0  0  0  0  0  0
    8.5291  -13.2025   26.5965 C   0  0  0  0  0  0  0  0  0  0  0  0
    7.5990  -14.1225   26.1988 C   0  0  0  0  0  0  0  0  0  0  0  0
   10.9547  -17.0995   24.9321 C   0  0  0  0  0  0  0  0  0  0  0  0
   11.5448  -17.4732   26.0060 O   0  0  0  0  0  0  0  0  0  0  0  0
    9.6942  -20.6030   23.3000 N   0  0  0  0  0  0  0  0  0  0  0  0
    9.9655  -19.9923   22.0336 C   0  0  0  0  0  0  0  0  0  0  0  0
    8.9680  -19.8997   21.2421 O   0  0  0  0  0  0  0  0  0  0  0  0
   11.3016  -19.4943   21.6612 C   0  0  0  0  0  0  0  0  0  0  0  0
   12.2982  -19.7580   22.7309 C   0  0  0  0  0  0  0  0  0  0  0  0
   12.5051  -18.7404   23.7798 C   0  0  2  0  0  0  0  0  0  0  0  0
   11.4109  -17.7505   23.7522 N   0  0  0  0  0  0  0  0  0  0  0  0
   13.8031  -18.1271   23.9223 C   0  0  0  0  0  0  0  0  0  0  0  0
   14.0161  -16.8975   23.9511 O   0  0  0  0  0  0  0  0  0  0  0  0
   14.9478  -18.9320   24.0412 O   0  0  0  0  0  0  0  0  0  0  0  0
  2  1  1  0
  3  4  1  0
  3  2  1  0
  4  5  1  0
  5  1  1  0
  5  6  1  1
  7  6  2  0
  8  6  1  0
  9 10  1  1
  9  8  1  0
 10 11  1  0
 11 19  1  0
 12 11  2  0
 12 13  1  0
 13 14  1  0
 14 15  2  0
 15 16  1  0
 17 16  2  0
 18 17  1  0
 19 18  2  0
 19 14  1  0
 20 21  2  0
 20  9  1  0
 22 23  1  0
 23 24  2  0
 25 26  1  0
 25 23  1  0
 27 26  1  6
 27 28  1  0
 28 20  1  0
 29 27  1  0
 29 31  1  0
 30 29  2  0
M  END
$$$$
