PWQ.pdb
     RDKit          3D

 31 33  0  0  1  0  0  0  0  0999 V2000
    7.7486  -15.6292   21.0251 N   0  0  0  0  0  0  0  0  0  0  0  0
    6.5069  -15.0113   20.6740 C   0  0  0  0  0  0  0  0  0  0  0  0
    6.9211  -13.8186   19.8487 C   0  0  0  0  0  0  0  0  0  0  0  0
    8.1503  -13.3309   20.6267 C   0  0  0  0  0  0  0  0  0  0  0  0
    8.7890  -14.6365   20.9854 C   0  0  1  0  0  0  0  0  0  0  0  0
    9.4853  -14.6278   22.2933 C   0  0  0  0  0  0  0  0  0  0  0  0
   10.3330  -13.7554   22.6120 O   0  0  0  0  0  0  0  0  0  0  0  0
    9.1707  -15.6556   23.2161 N   0  0  0  0  0  0  0  0  0  0  0  0
    9.8563  -15.7249   24.5202 C   0  0  1  0  0  0  0  0  0  0  0  0
    8.8423  -16.1191   25.5738 C   0  0  0  0  0  0  0  0  0  0  0  0
    7.6739  -15.2562   25.6325 C   0  0  0  0  0  0  0  0  0  0  0  0
    6.3496  -15.6114   25.3320 C   0  0  0  0  0  0  0  0  0  0  0  0
    5.5613  -14.5428   25.4835 N   0  0  0  0  0  0  0  0  0  0  0  0
    6.2806  -13.4762   25.8723 C   0  0  0  0  0  0  0  0  0  0  0  0
    5.9781  -12.1533   26.1663 C   0  0  0  0  0  0  0  0  0  0  0  0
    6.9247  -11.2443   26.5503 C   0  0  0  0  0  0  0  0  0  0  0  0
    8.2457  -11.6678   26.6493 C   0  0  0  0  0  0  0  0  0  0  0  0
    8.5381  -12.9903   26.3538 C   0  0  0  0  0  0  0  0  0  0  0  0
    7.5998  -13.9075   25.9690 C   0  0  0  0  0  0  0  0  0  0  0  0
   10.9487  -16.7085   24.3690 C   0  0  0  0  0  0  0  0  0  0  0  0
   11.4841  -17.2508   25.3987 O   0  0  0  0  0  0  0  0  0  0  0  0
   12.0077  -18.7354   19.0162 N   0  0  0  0  0  0  0  0  0  0  0  0
   10.9170  -19.1642   19.8390 C   0  0  0  0  0  0  0  0  0  0  0  0
    9.8285  -19.4179   19.2219 O   0  0  0  0  0  0  0  0  0  0  0  0
   11.0343  -19.3127   21.3006 C   0  0  0  0  0  0  0  0  0  0  0  0
   12.3901  -18.9378   21.7785 C   0  0  0  0  0  0  0  0  0  0  0  0
   12.5191  -18.1962   23.0480 C   0  0  2  0  0  0  0  0  0  0  0  0
   11.4931  -17.1383   23.1268 N   0  0  0  0  0  0  0  0  0  0  0  0
   13.8207  -17.7374   23.4686 C   0  0  0  0  0  0  0  0  0  0  0  0
   14.0936  -16.5677   23.8084 O   0  0  0  0  0  0  0  0  0  0  0  0
   14.8979  -18.6374   23.5161 O   0  0  0  0  0  0  0  0  0  0  0  0
  2  1  1  0
  3  4  1  0
  3  2  1  0
  4  5  1  0
  5  1  1  0
  5  6  1  1
  7  6  2  0
  8  6  1  0
  9 10  1  1
  9  8  1  0
 10 11  1  0
 11 19  1  0
 12 11  2  0
 12 13  1  0
 13 14  1  0
 14 15  2  0
 15 16  1  0
 17 16  2  0
 18 17  1  0
 19 18  2  0
 19 14  1  0
 20 21  2  0
 20  9  1  0
 22 23  1  0
 23 24  2  0
 25 26  1  0
 25 23  1  0
 27 26  1  6
 27 28  1  0
 28 20  1  0
 29 27  1  0
 29 31  1  0
 30 29  2  0
M  END
$$$$
