PWQ.pdb
     RDKit          3D

 31 33  0  0  1  0  0  0  0  0999 V2000
    7.2753  -15.8443   21.2038 N   0  0  0  0  0  0  0  0  0  0  0  0
    6.0674  -15.1293   20.9270 C   0  0  0  0  0  0  0  0  0  0  0  0
    6.5160  -14.0012   20.0318 C   0  0  0  0  0  0  0  0  0  0  0  0
    7.8400  -13.6023   20.6968 C   0  0  0  0  0  0  0  0  0  0  0  0
    8.3906  -14.9487   21.0507 C   0  0  1  0  0  0  0  0  0  0  0  0
    9.1860  -14.9651   22.3008 C   0  0  0  0  0  0  0  0  0  0  0  0
   10.0763  -14.1147   22.5572 O   0  0  0  0  0  0  0  0  0  0  0  0
    8.9195  -15.9915   23.2401 N   0  0  0  0  0  0  0  0  0  0  0  0
    9.5394  -15.9598   24.5781 C   0  0  1  0  0  0  0  0  0  0  0  0
    8.4633  -16.2227   25.6107 C   0  0  0  0  0  0  0  0  0  0  0  0
    7.3652  -15.2704   25.5866 C   0  0  0  0  0  0  0  0  0  0  0  0
    6.0440  -15.5195   25.1832 C   0  0  0  0  0  0  0  0  0  0  0  0
    5.3329  -14.3923   25.2822 N   0  0  0  0  0  0  0  0  0  0  0  0
    6.1017  -13.3863   25.7329 C   0  0  0  0  0  0  0  0  0  0  0  0
    5.8824  -12.0442   26.0131 C   0  0  0  0  0  0  0  0  0  0  0  0
    6.8653  -11.2133   26.4752 C   0  0  0  0  0  0  0  0  0  0  0  0
    8.1375  -11.7399   26.6714 C   0  0  0  0  0  0  0  0  0  0  0  0
    8.3468  -13.0809   26.3890 C   0  0  0  0  0  0  0  0  0  0  0  0
    7.3717  -13.9206   25.9267 C   0  0  0  0  0  0  0  0  0  0  0  0
   10.6024  -16.9863   24.5731 C   0  0  0  0  0  0  0  0  0  0  0  0
   10.3468  -18.1869   24.2068 O   0  0  0  0  0  0  0  0  0  0  0  0
   16.9417  -16.9499   24.3534 N   0  0  0  0  0  0  0  0  0  0  0  0
   15.9223  -16.2177   23.6642 C   0  0  0  0  0  0  0  0  0  0  0  0
   16.3392  -15.3422   22.8337 O   0  0  0  0  0  0  0  0  0  0  0  0
   14.4848  -16.4558   23.8860 C   0  0  0  0  0  0  0  0  0  0  0  0
   14.2592  -17.5033   24.9151 C   0  0  0  0  0  0  0  0  0  0  0  0
   12.8738  -17.8738   25.2640 C   0  0  2  0  0  0  0  0  0  0  0  0
   11.9551  -16.7617   24.9526 N   0  0  0  0  0  0  0  0  0  0  0  0
   12.6050  -18.4706   26.5496 C   0  0  0  0  0  0  0  0  0  0  0  0
   11.7798  -18.0405   27.3816 O   0  0  0  0  0  0  0  0  0  0  0  0
   13.2995  -19.6261   26.9434 O   0  0  0  0  0  0  0  0  0  0  0  0
  2  1  1  0
  3  4  1  0
  3  2  1  0
  4  5  1  0
  5  1  1  0
  5  6  1  1
  7  6  2  0
  8  6  1  0
  9 10  1  1
  9  8  1  0
 10 11  1  0
 11 19  1  0
 12 11  2  0
 12 13  1  0
 13 14  1  0
 14 15  2  0
 15 16  1  0
 17 16  2  0
 18 17  1  0
 19 18  2  0
 19 14  1  0
 20 21  2  0
 20  9  1  0
 22 23  1  0
 23 24  2  0
 25 26  1  0
 25 23  1  0
 27 26  1  1
 27 28  1  0
 28 20  1  0
 29 27  1  0
 29 31  1  0
 30 29  2  0
M  END
$$$$
