PWQ.pdb
     RDKit          3D

 31 33  0  0  1  0  0  0  0  0999 V2000
    8.1530  -16.9918   19.5678 N   0  0  0  0  0  0  0  0  0  0  0  0
    6.8897  -16.8634   18.9086 C   0  0  0  0  0  0  0  0  0  0  0  0
    7.1743  -15.9155   17.7703 C   0  0  0  0  0  0  0  0  0  0  0  0
    8.1079  -14.9056   18.4505 C   0  0  0  0  0  0  0  0  0  0  0  0
    8.9415  -15.8204   19.2928 C   0  0  1  0  0  0  0  0  0  0  0  0
    9.3737  -15.2277   20.5802 C   0  0  0  0  0  0  0  0  0  0  0  0
    9.9351  -14.1054   20.6633 O   0  0  0  0  0  0  0  0  0  0  0  0
    9.1365  -15.9711   21.7626 N   0  0  0  0  0  0  0  0  0  0  0  0
    9.4741  -15.4049   23.0820 C   0  0  1  0  0  0  0  0  0  0  0  0
    8.6637  -14.1413   23.2822 C   0  0  0  0  0  0  0  0  0  0  0  0
    7.7010  -14.2135   24.3690 C   0  0  0  0  0  0  0  0  0  0  0  0
    7.0174  -15.3563   24.8130 C   0  0  0  0  0  0  0  0  0  0  0  0
    6.2035  -15.0202   25.8184 N   0  0  0  0  0  0  0  0  0  0  0  0
    6.2970  -13.7059   26.0832 C   0  0  0  0  0  0  0  0  0  0  0  0
    5.6945  -12.8523   26.9976 C   0  0  0  0  0  0  0  0  0  0  0  0
    5.9749  -11.5153   27.0596 C   0  0  0  0  0  0  0  0  0  0  0  0
    6.9041  -10.9930   26.1664 C   0  0  0  0  0  0  0  0  0  0  0  0
    7.5004  -11.8530   25.2571 C   0  0  0  0  0  0  0  0  0  0  0  0
    7.2276  -13.1910   25.1862 C   0  0  0  0  0  0  0  0  0  0  0  0
    9.1714  -16.4529   24.0789 C   0  0  0  0  0  0  0  0  0  0  0  0
    8.4122  -17.4395   23.7767 O   0  0  0  0  0  0  0  0  0  0  0  0
   14.3853  -19.0730   24.2093 N   0  0  0  0  0  0  0  0  0  0  0  0
   13.7070  -17.8281   24.0074 C   0  0  0  0  0  0  0  0  0  0  0  0
   13.9742  -17.2267   22.9134 O   0  0  0  0  0  0  0  0  0  0  0  0
   12.7569  -17.2725   24.9876 C   0  0  0  0  0  0  0  0  0  0  0  0
   11.4787  -18.0296   24.9959 C   0  0  0  0  0  0  0  0  0  0  0  0
   10.4198  -17.6312   25.9437 C   0  0  2  0  0  0  0  0  0  0  0  0
    9.6676  -16.4782   25.4121 N   0  0  0  0  0  0  0  0  0  0  0  0
   10.7425  -17.4845   27.3421 C   0  0  0  0  0  0  0  0  0  0  0  0
   10.5540  -16.4517   28.0172 O   0  0  0  0  0  0  0  0  0  0  0  0
   11.3154  -18.5576   28.0441 O   0  0  0  0  0  0  0  0  0  0  0  0
  2  1  1  0
  3  4  1  0
  3  2  1  0
  4  5  1  0
  5  1  1  0
  5  6  1  1
  7  6  2  0
  8  6  1  0
  9 10  1  1
  9  8  1  0
 10 11  1  0
 11 19  1  0
 12 11  2  0
 12 13  1  0
 13 14  1  0
 14 15  2  0
 15 16  1  0
 17 16  2  0
 18 17  1  0
 19 18  2  0
 19 14  1  0
 20 21  2  0
 20  9  1  0
 22 23  1  0
 23 24  2  0
 25 26  1  0
 25 23  1  0
 27 26  1  6
 27 28  1  0
 28 20  1  0
 29 27  1  0
 29 31  1  0
 30 29  2  0
M  END
$$$$
