PWQ.pdb
     RDKit          3D

 31 33  0  0  1  0  0  0  0  0999 V2000
    8.3377  -17.1990   19.1126 N   0  0  0  0  0  0  0  0  0  0  0  0
    7.2417  -16.8942   18.2449 C   0  0  0  0  0  0  0  0  0  0  0  0
    7.8147  -15.8798   17.2868 C   0  0  0  0  0  0  0  0  0  0  0  0
    8.6697  -15.0267   18.2331 C   0  0  0  0  0  0  0  0  0  0  0  0
    9.2505  -16.0871   19.1159 C   0  0  1  0  0  0  0  0  0  0  0  0
    9.4647  -15.6546   20.5168 C   0  0  0  0  0  0  0  0  0  0  0  0
   10.3113  -14.7836   20.8428 O   0  0  0  0  0  0  0  0  0  0  0  0
    8.6719  -16.2587   21.5234 N   0  0  0  0  0  0  0  0  0  0  0  0
    8.7054  -15.7497   22.9074 C   0  0  1  0  0  0  0  0  0  0  0  0
    7.2857  -15.4514   23.3422 C   0  0  0  0  0  0  0  0  0  0  0  0
    7.1572  -15.0529   24.7343 C   0  0  0  0  0  0  0  0  0  0  0  0
    7.1256  -15.9006   25.8527 C   0  0  0  0  0  0  0  0  0  0  0  0
    6.9768  -15.1654   26.9589 N   0  0  0  0  0  0  0  0  0  0  0  0
    6.9055  -13.8589   26.6521 C   0  0  0  0  0  0  0  0  0  0  0  0
    6.7560  -12.6927   27.3907 C   0  0  0  0  0  0  0  0  0  0  0  0
    6.7123  -11.4523   26.8167 C   0  0  0  0  0  0  0  0  0  0  0  0
    6.8228  -11.3601   25.4335 C   0  0  0  0  0  0  0  0  0  0  0  0
    6.9718  -12.5299   24.7045 C   0  0  0  0  0  0  0  0  0  0  0  0
    7.0167  -13.7750   25.2678 C   0  0  0  0  0  0  0  0  0  0  0  0
    9.3551  -16.7958   23.7242 C   0  0  0  0  0  0  0  0  0  0  0  0
    8.9620  -18.0131   23.6564 O   0  0  0  0  0  0  0  0  0  0  0  0
   14.9126  -18.6448   23.7362 N   0  0  0  0  0  0  0  0  0  0  0  0
   14.8507  -17.6241   24.7385 C   0  0  0  0  0  0  0  0  0  0  0  0
   15.9648  -17.0758   25.0355 O   0  0  0  0  0  0  0  0  0  0  0  0
   13.5894  -17.2208   25.3856 C   0  0  0  0  0  0  0  0  0  0  0  0
   12.4258  -17.9381   24.8038 C   0  0  0  0  0  0  0  0  0  0  0  0
   11.0811  -17.6816   25.3554 C   0  0  2  0  0  0  0  0  0  0  0  0
   10.4335  -16.5744   24.6255 N   0  0  0  0  0  0  0  0  0  0  0  0
   10.9124  -17.5761   26.7844 C   0  0  0  0  0  0  0  0  0  0  0  0
   10.4420  -16.5850   27.3798 O   0  0  0  0  0  0  0  0  0  0  0  0
   11.2919  -18.6437   27.6142 O   0  0  0  0  0  0  0  0  0  0  0  0
  2  1  1  0
  3  4  1  0
  3  2  1  0
  4  5  1  0
  5  1  1  0
  5  6  1  1
  7  6  2  0
  8  6  1  0
  9 10  1  1
  9  8  1  0
 10 11  1  0
 11 19  1  0
 12 11  2  0
 12 13  1  0
 13 14  1  0
 14 15  2  0
 15 16  1  0
 17 16  2  0
 18 17  1  0
 19 18  2  0
 19 14  1  0
 20 21  2  0
 20  9  1  0
 22 23  1  0
 23 24  2  0
 25 26  1  0
 25 23  1  0
 27 26  1  1
 27 28  1  0
 28 20  1  0
 29 27  1  0
 29 31  1  0
 30 29  2  0
M  END
$$$$
