PWQ.pdb
     RDKit          3D

 31 33  0  0  1  0  0  0  0  0999 V2000
    7.3550  -15.5050   20.5347 N   0  0  0  0  0  0  0  0  0  0  0  0
    6.2042  -14.7186   20.2122 C   0  0  0  0  0  0  0  0  0  0  0  0
    6.7646  -13.5824   19.3935 C   0  0  0  0  0  0  0  0  0  0  0  0
    8.0609  -13.2778   20.1558 C   0  0  0  0  0  0  0  0  0  0  0  0
    8.5206  -14.6631   20.4884 C   0  0  1  0  0  0  0  0  0  0  0  0
    9.2318  -14.7675   21.7840 C   0  0  0  0  0  0  0  0  0  0  0  0
   10.2061  -14.0342   22.0915 O   0  0  0  0  0  0  0  0  0  0  0  0
    8.7818  -15.7424   22.7081 N   0  0  0  0  0  0  0  0  0  0  0  0
    9.4895  -15.9437   23.9865 C   0  0  1  0  0  0  0  0  0  0  0  0
    8.4726  -16.3259   25.0416 C   0  0  0  0  0  0  0  0  0  0  0  0
    7.4622  -15.3117   25.2943 C   0  0  0  0  0  0  0  0  0  0  0  0
    6.0879  -15.4077   25.0253 C   0  0  0  0  0  0  0  0  0  0  0  0
    5.4892  -14.2657   25.3767 N   0  0  0  0  0  0  0  0  0  0  0  0
    6.3853  -13.3950   25.8720 C   0  0  0  0  0  0  0  0  0  0  0  0
    6.3118  -12.1017   26.3718 C   0  0  0  0  0  0  0  0  0  0  0  0
    7.4064  -11.4194   26.8259 C   0  0  0  0  0  0  0  0  0  0  0  0
    8.6440  -12.0523   26.7833 C   0  0  0  0  0  0  0  0  0  0  0  0
    8.7075  -13.3435   26.2827 C   0  0  0  0  0  0  0  0  0  0  0  0
    7.6198  -14.0350   25.8261 C   0  0  0  0  0  0  0  0  0  0  0  0
   10.5001  -16.9948   23.7464 C   0  0  0  0  0  0  0  0  0  0  0  0
   10.3693  -17.8131   22.7694 O   0  0  0  0  0  0  0  0  0  0  0  0
   14.1662  -13.8887   21.5529 N   0  0  0  0  0  0  0  0  0  0  0  0
   13.9033  -15.1249   20.8799 C   0  0  0  0  0  0  0  0  0  0  0  0
   14.1715  -15.1401   19.6317 O   0  0  0  0  0  0  0  0  0  0  0  0
   13.3656  -16.3089   21.5735 C   0  0  0  0  0  0  0  0  0  0  0  0
   13.1711  -16.0486   23.0231 C   0  0  0  0  0  0  0  0  0  0  0  0
   13.0194  -17.1954   23.9397 C   0  0  2  0  0  0  0  0  0  0  0  0
   11.6680  -17.1984   24.5329 N   0  0  0  0  0  0  0  0  0  0  0  0
   14.0512  -17.4638   24.9117 C   0  0  0  0  0  0  0  0  0  0  0  0
   14.9786  -18.2862   24.7646 O   0  0  0  0  0  0  0  0  0  0  0  0
   14.0571  -16.7730   26.1345 O   0  0  0  0  0  0  0  0  0  0  0  0
  2  1  1  0
  3  4  1  0
  3  2  1  0
  4  5  1  0
  5  1  1  0
  5  6  1  1
  7  6  2  0
  8  6  1  0
  9 10  1  1
  9  8  1  0
 10 11  1  0
 11 19  1  0
 12 11  2  0
 12 13  1  0
 13 14  1  0
 14 15  2  0
 15 16  1  0
 17 16  2  0
 18 17  1  0
 19 18  2  0
 19 14  1  0
 20 21  2  0
 20  9  1  0
 22 23  1  0
 23 24  2  0
 25 26  1  0
 25 23  1  0
 27 26  1  1
 27 28  1  0
 28 20  1  0
 29 27  1  0
 29 31  1  0
 30 29  2  0
M  END
$$$$
