PWQ.pdb
     RDKit          3D

 31 33  0  0  1  0  0  0  0  0999 V2000
    8.1989  -15.3463   18.8466 N   0  0  0  0  0  0  0  0  0  0  0  0
    7.2270  -14.7045   18.0155 C   0  0  0  0  0  0  0  0  0  0  0  0
    7.9521  -13.4919   17.4873 C   0  0  0  0  0  0  0  0  0  0  0  0
    8.7254  -13.0414   18.7336 C   0  0  0  0  0  0  0  0  0  0  0  0
    9.1520  -14.3641   19.2900 C   0  0  1  0  0  0  0  0  0  0  0  0
    9.2178  -14.4027   20.7697 C   0  0  0  0  0  0  0  0  0  0  0  0
    9.9572  -13.6397   21.4424 O   0  0  0  0  0  0  0  0  0  0  0  0
    8.4047  -15.3475   21.4429 N   0  0  0  0  0  0  0  0  0  0  0  0
    8.4143  -15.4272   22.9157 C   0  0  1  0  0  0  0  0  0  0  0  0
    7.0356  -15.0604   23.4239 C   0  0  0  0  0  0  0  0  0  0  0  0
    6.9692  -14.8238   24.8567 C   0  0  0  0  0  0  0  0  0  0  0  0
    6.8992  -15.7951   25.8676 C   0  0  0  0  0  0  0  0  0  0  0  0
    6.8314  -15.1894   27.0570 N   0  0  0  0  0  0  0  0  0  0  0  0
    6.8516  -13.8537   26.9091 C   0  0  0  0  0  0  0  0  0  0  0  0
    6.8072  -12.7770   27.7846 C   0  0  0  0  0  0  0  0  0  0  0  0
    6.8439  -11.4767   27.3628 C   0  0  0  0  0  0  0  0  0  0  0  0
    6.9296  -11.2273   25.9973 C   0  0  0  0  0  0  0  0  0  0  0  0
    6.9735  -12.3086   25.1309 C   0  0  0  0  0  0  0  0  0  0  0  0
    6.9374  -13.6123   25.5415 C   0  0  0  0  0  0  0  0  0  0  0  0
    8.8112  -16.8086   23.2591 C   0  0  0  0  0  0  0  0  0  0  0  0
    8.6167  -17.7670   22.4317 O   0  0  0  0  0  0  0  0  0  0  0  0
   14.2719  -18.9814   21.4927 N   0  0  0  0  0  0  0  0  0  0  0  0
   13.5883  -17.8869   22.1132 C   0  0  0  0  0  0  0  0  0  0  0  0
   13.5050  -16.8221   21.4138 O   0  0  0  0  0  0  0  0  0  0  0  0
   13.0095  -17.9752   23.4657 C   0  0  0  0  0  0  0  0  0  0  0  0
   11.6216  -17.4464   23.4993 C   0  0  0  0  0  0  0  0  0  0  0  0
   10.6844  -17.9664   24.5140 C   0  0  2  0  0  0  0  0  0  0  0  0
    9.4228  -17.2013   24.4821 N   0  0  0  0  0  0  0  0  0  0  0  0
   11.1564  -18.2001   25.8572 C   0  0  0  0  0  0  0  0  0  0  0  0
   11.5207  -19.3060   26.3071 O   0  0  0  0  0  0  0  0  0  0  0  0
   11.2302  -17.1337   26.7681 O   0  0  0  0  0  0  0  0  0  0  0  0
  2  1  1  0
  3  4  1  0
  3  2  1  0
  4  5  1  0
  5  1  1  0
  5  6  1  1
  7  6  2  0
  8  6  1  0
  9 10  1  6
  9  8  1  0
 10 11  1  0
 11 19  1  0
 12 11  2  0
 12 13  1  0
 13 14  1  0
 14 15  2  0
 15 16  1  0
 17 16  2  0
 18 17  1  0
 19 18  2  0
 19 14  1  0
 20 21  2  0
 20  9  1  0
 22 23  1  0
 23 24  2  0
 25 26  1  0
 25 23  1  0
 27 26  1  6
 27 28  1  0
 28 20  1  0
 29 27  1  0
 29 31  1  0
 30 29  2  0
M  END
$$$$
