PWQ.pdb
     RDKit          3D

 31 33  0  0  1  0  0  0  0  0999 V2000
   10.2786  -17.1936   18.4701 N   0  0  0  0  0  0  0  0  0  0  0  0
   11.3408  -18.1108   18.1920 C   0  0  0  0  0  0  0  0  0  0  0  0
   10.8812  -19.3964   18.8331 C   0  0  0  0  0  0  0  0  0  0  0  0
   10.2631  -18.8742   20.1368 C   0  0  0  0  0  0  0  0  0  0  0  0
    9.5762  -17.6387   19.6441 C   0  0  1  0  0  0  0  0  0  0  0  0
    9.5490  -16.5311   20.6278 C   0  0  0  0  0  0  0  0  0  0  0  0
   10.3222  -15.5412   20.5661 O   0  0  0  0  0  0  0  0  0  0  0  0
    8.6031  -16.6047   21.6798 N   0  0  0  0  0  0  0  0  0  0  0  0
    8.4819  -15.5044   22.6546 C   0  0  1  0  0  0  0  0  0  0  0  0
    7.0406  -15.4278   23.1132 C   0  0  0  0  0  0  0  0  0  0  0  0
    6.8643  -14.8640   24.4415 C   0  0  0  0  0  0  0  0  0  0  0  0
    6.6112  -15.5695   25.6283 C   0  0  0  0  0  0  0  0  0  0  0  0
    6.4903  -14.7033   26.6388 N   0  0  0  0  0  0  0  0  0  0  0  0
    6.6482  -13.4422   26.2019 C   0  0  0  0  0  0  0  0  0  0  0  0
    6.6233  -12.1925   26.8066 C   0  0  0  0  0  0  0  0  0  0  0  0
    6.8195  -11.0299   26.1139 C   0  0  0  0  0  0  0  0  0  0  0  0
    7.0539  -11.1077   24.7453 C   0  0  0  0  0  0  0  0  0  0  0  0
    7.0770  -12.3597   24.1504 C   0  0  0  0  0  0  0  0  0  0  0  0
    6.8821  -13.5283   24.8330 C   0  0  0  0  0  0  0  0  0  0  0  0
    9.4247  -15.8086   23.7511 C   0  0  0  0  0  0  0  0  0  0  0  0
    9.2550  -15.3020   24.9154 O   0  0  0  0  0  0  0  0  0  0  0  0
    9.3269  -19.4592   27.5401 N   0  0  0  0  0  0  0  0  0  0  0  0
   10.3053  -18.5731   28.0949 C   0  0  0  0  0  0  0  0  0  0  0  0
   10.5548  -18.7362   29.3363 O   0  0  0  0  0  0  0  0  0  0  0  0
   10.9897  -17.5426   27.2937 C   0  0  0  0  0  0  0  0  0  0  0  0
   10.4557  -17.4867   25.9085 C   0  0  0  0  0  0  0  0  0  0  0  0
   11.3523  -17.0645   24.8148 C   0  0  2  0  0  0  0  0  0  0  0  0
   10.5623  -16.6555   23.6373 N   0  0  0  0  0  0  0  0  0  0  0  0
   12.4785  -17.8953   24.4645 C   0  0  0  0  0  0  0  0  0  0  0  0
   13.6627  -17.5065   24.3956 O   0  0  0  0  0  0  0  0  0  0  0  0
   12.2803  -19.2539   24.1687 O   0  0  0  0  0  0  0  0  0  0  0  0
  2  1  1  0
  3  4  1  0
  3  2  1  0
  4  5  1  0
  5  1  1  0
  5  6  1  1
  7  6  2  0
  8  6  1  0
  9 10  1  1
  9  8  1  0
 10 11  1  0
 11 19  1  0
 12 11  2  0
 12 13  1  0
 13 14  1  0
 14 15  2  0
 15 16  1  0
 17 16  2  0
 18 17  1  0
 19 18  2  0
 19 14  1  0
 20 21  2  0
 20  9  1  0
 22 23  1  0
 23 24  2  0
 25 26  1  0
 25 23  1  0
 27 26  1  1
 27 28  1  0
 28 20  1  0
 29 27  1  0
 29 31  1  0
 30 29  2  0
M  END
$$$$
