SRK.pdb
     RDKit          3D

 27 26  0  0  1  0  0  0  0  0999 V2000
    7.6398  -14.0438   20.4308 O   0  0  0  0  0  0  0  0  0  0  0  0
    8.1083  -12.9367   19.7535 C   0  0  0  0  0  0  0  0  0  0  0  0
    8.7385  -13.3770   18.4579 C   0  0  2  0  0  0  0  0  0  0  0  0
    7.7570  -14.0560   17.6493 N   0  0  0  0  0  0  0  0  0  0  0  0
    9.8857  -14.2749   18.7105 C   0  0  0  0  0  0  0  0  0  0  0  0
    9.7418  -15.5103   18.5823 O   0  0  0  0  0  0  0  0  0  0  0  0
   19.3950  -13.6976   18.6866 N   0  0  0  0  0  0  0  0  0  0  0  0
   18.1259  -13.4767   18.0780 C   0  0  0  0  0  0  0  0  0  0  0  0
   17.9969  -12.4455   17.3167 N   0  0  0  0  0  0  0  0  0  0  0  0
   17.0398  -14.3510   18.2849 N   0  0  0  0  0  0  0  0  0  0  0  0
   15.7926  -14.2267   17.5650 C   0  0  0  0  0  0  0  0  0  0  0  0
   14.6938  -14.8158   18.3988 C   0  0  0  0  0  0  0  0  0  0  0  0
   13.4488  -13.9959   18.4057 C   0  0  0  0  0  0  0  0  0  0  0  0
   12.2938  -14.6063   19.1632 C   0  0  2  0  0  0  0  0  0  0  0  0
   11.1356  -13.7378   19.0949 N   0  0  0  0  0  0  0  0  0  0  0  0
   12.6156  -14.8180   20.5899 C   0  0  0  0  0  0  0  0  0  0  0  0
   12.6393  -13.8370   21.3588 O   0  0  0  0  0  0  0  0  0  0  0  0
   17.0824  -12.1984   16.8862 N   0  0  0  0  0  0  0  0  0  0  0  0
   12.8881  -16.0998   21.0586 C   0  0  2  0  0  0  0  0  0  0  0  0
   13.1413  -16.2185   22.5612 C   0  0  0  0  0  0  0  0  0  0  0  0
   12.7792  -17.6083   22.8656 C   0  0  0  0  0  0  0  0  0  0  0  0
   11.6567  -18.0100   23.6759 C   0  0  0  0  0  0  0  0  0  0  0  0
   11.1942  -19.3767   23.9060 C   0  0  0  0  0  0  0  0  0  0  0  0
    9.9383  -19.4340   24.7307 N   0  0  0  0  0  0  0  0  0  0  0  0
    9.4849  -20.7582   25.0276 C   0  0  0  0  0  0  0  0  0  0  0  0
   14.6168  -15.9407   22.5421 O   0  0  0  0  0  0  0  0  0  0  0  0
   15.3682  -15.5216   23.5725 O   0  0  0  0  0  0  0  0  0  0  0  0
  2  1  1  0
  3  4  1  6
  3  2  1  0
  5  3  1  0
  6  5  2  0
  7  8  1  0
  8 10  1  0
  9  8  2  0
 11 10  1  0
 11 12  1  0
 14 13  1  6
 13 12  1  0
 14 15  1  0
 15  5  1  0
 16 17  2  0
 16 14  1  0
 18 16  1  0
 19 18  1  0
 20 21  1  0
 19 20  1  6
 22 21  1  0
 23 22  1  0
 24 23  1  0
 25 26  1  0
 25 19  1  0
 27 25  2  0
M  END
$$$$
