SRK.pdb
     RDKit          3D

 27 26  0  0  1  0  0  0  0  0999 V2000
    9.0285  -11.1702   18.5750 O   0  0  0  0  0  0  0  0  0  0  0  0
    8.7909  -12.1105   19.5563 C   0  0  0  0  0  0  0  0  0  0  0  0
    8.5971  -13.4598   18.9149 C   0  0  2  0  0  0  0  0  0  0  0  0
    7.3427  -13.4816   18.2048 N   0  0  0  0  0  0  0  0  0  0  0  0
    8.6140  -14.5323   19.9325 C   0  0  0  0  0  0  0  0  0  0  0  0
    7.5366  -14.9324   20.4248 O   0  0  0  0  0  0  0  0  0  0  0  0
   13.0791  -15.7086   17.9607 N   0  0  0  0  0  0  0  0  0  0  0  0
   14.3089  -15.7633   18.6779 C   0  0  0  0  0  0  0  0  0  0  0  0
   15.2710  -15.0055   18.2781 N   0  0  0  0  0  0  0  0  0  0  0  0
   14.4818  -16.6066   19.7941 N   0  0  0  0  0  0  0  0  0  0  0  0
   13.3871  -17.3313   20.3989 C   0  0  0  0  0  0  0  0  0  0  0  0
   12.2166  -16.4044   20.5430 C   0  0  0  0  0  0  0  0  0  0  0  0
   11.0321  -17.0395   21.1880 C   0  0  0  0  0  0  0  0  0  0  0  0
    9.8445  -16.1245   21.3694 C   0  0  2  0  0  0  0  0  0  0  0  0
    9.8416  -15.0994   20.3450 N   0  0  0  0  0  0  0  0  0  0  0  0
    9.8597  -15.4491   22.6837 C   0  0  0  0  0  0  0  0  0  0  0  0
   10.7395  -14.5975   22.9183 O   0  0  0  0  0  0  0  0  0  0  0  0
   16.1847  -14.9789   18.7751 N   0  0  0  0  0  0  0  0  0  0  0  0
    8.9005  -15.7675   23.6404 C   0  0  1  0  0  0  0  0  0  0  0  0
    8.9741  -14.9752   24.9453 C   0  0  0  0  0  0  0  0  0  0  0  0
    7.6077  -14.4682   25.1213 C   0  0  0  0  0  0  0  0  0  0  0  0
    7.2576  -13.2762   25.8525 C   0  0  0  0  0  0  0  0  0  0  0  0
    5.9105  -12.7573   26.0776 C   0  0  0  0  0  0  0  0  0  0  0  0
    5.9076  -11.4533   26.8261 N   0  0  0  0  0  0  0  0  0  0  0  0
    4.6162  -10.8533   26.9649 C   0  0  0  0  0  0  0  0  0  0  0  0
    9.3472  -16.1115   25.8533 O   0  0  0  0  0  0  0  0  0  0  0  0
   10.0367  -16.0282   27.0020 O   0  0  0  0  0  0  0  0  0  0  0  0
  2  1  1  0
  3  4  1  1
  3  2  1  0
  5  3  1  0
  6  5  2  0
  7  8  1  0
  8 10  1  0
  9  8  2  0
 11 10  1  0
 11 12  1  0
 14 13  1  6
 13 12  1  0
 14 15  1  0
 15  5  1  0
 16 17  2  0
 16 14  1  0
 18 16  1  0
 19 18  1  0
 20 21  1  0
 19 20  1  1
 22 21  1  0
 23 22  1  0
 24 23  1  0
 25 26  1  0
 25 19  1  0
 27 25  2  0
M  END
$$$$
