SRK.pdb
     RDKit          3D

 27 26  0  0  1  0  0  0  0  0999 V2000
   13.6064  -19.8245   21.1356 O   0  0  0  0  0  0  0  0  0  0  0  0
   12.7182  -19.1901   20.2916 C   0  0  0  0  0  0  0  0  0  0  0  0
   12.8497  -17.6990   20.4619 C   0  0  2  0  0  0  0  0  0  0  0  0
   14.2413  -17.3270   20.4051 N   0  0  0  0  0  0  0  0  0  0  0  0
   12.2684  -17.2645   21.7501 C   0  0  0  0  0  0  0  0  0  0  0  0
   13.0247  -16.9984   22.7095 O   0  0  0  0  0  0  0  0  0  0  0  0
    8.8927  -11.7871   19.7680 N   0  0  0  0  0  0  0  0  0  0  0  0
    8.5273  -13.1299   20.0733 C   0  0  0  0  0  0  0  0  0  0  0  0
    9.2695  -14.0744   19.6076 N   0  0  0  0  0  0  0  0  0  0  0  0
    7.3997  -13.4325   20.8632 N   0  0  0  0  0  0  0  0  0  0  0  0
    7.3871  -14.5172   21.8184 C   0  0  0  0  0  0  0  0  0  0  0  0
    8.8015  -14.9338   22.0936 C   0  0  0  0  0  0  0  0  0  0  0  0
    8.9064  -16.1636   22.9296 C   0  0  0  0  0  0  0  0  0  0  0  0
   10.3148  -16.6654   23.1423 C   0  0  2  0  0  0  0  0  0  0  0  0
   10.8665  -17.1518   21.8935 N   0  0  0  0  0  0  0  0  0  0  0  0
   10.3681  -17.7716   24.1206 C   0  0  0  0  0  0  0  0  0  0  0  0
   10.1836  -18.9398   23.7265 O   0  0  0  0  0  0  0  0  0  0  0  0
    9.0554  -15.0757   19.7927 N   0  0  0  0  0  0  0  0  0  0  0  0
   10.6208  -17.5018   25.4623 C   0  0  1  0  0  0  0  0  0  0  0  0
   10.6289  -18.7132   26.3941 C   0  0  0  0  0  0  0  0  0  0  0  0
   11.6012  -18.3471   27.4313 C   0  0  0  0  0  0  0  0  0  0  0  0
   12.0028  -19.1983   28.5232 C   0  0  0  0  0  0  0  0  0  0  0  0
   12.9672  -18.8727   29.5714 C   0  0  0  0  0  0  0  0  0  0  0  0
   13.0792  -19.9509   30.6133 N   0  0  0  0  0  0  0  0  0  0  0  0
   13.9745  -19.6461   31.6868 C   0  0  0  0  0  0  0  0  0  0  0  0
    9.1920  -18.6485   26.8255 O   0  0  0  0  0  0  0  0  0  0  0  0
    8.5195  -19.5798   27.5201 O   0  0  0  0  0  0  0  0  0  0  0  0
  2  1  1  0
  3  4  1  1
  3  2  1  0
  5  3  1  0
  6  5  2  0
  7  8  1  0
  8 10  1  0
  9  8  2  0
 11 10  1  0
 11 12  1  0
 14 13  1  6
 13 12  1  0
 14 15  1  0
 15  5  1  0
 16 17  2  0
 16 14  1  0
 18 16  1  0
 19 18  1  0
 20 21  1  0
 19 20  1  6
 22 21  1  0
 23 22  1  0
 24 23  1  0
 25 26  1  0
 25 19  1  0
 27 25  2  0
M  END
$$$$
