SRK.pdb
     RDKit          3D

 27 26  0  0  1  0  0  0  0  0999 V2000
   13.8442  -20.5712   19.1225 O   0  0  0  0  0  0  0  0  0  0  0  0
   13.1412  -20.0743   18.0442 C   0  0  0  0  0  0  0  0  0  0  0  0
   13.4361  -18.6046   17.8936 C   0  0  2  0  0  0  0  0  0  0  0  0
   14.8572  -18.4090   17.7510 N   0  0  0  0  0  0  0  0  0  0  0  0
   12.9423  -17.8475   19.0637 C   0  0  0  0  0  0  0  0  0  0  0  0
   13.7278  -17.5730   19.9969 O   0  0  0  0  0  0  0  0  0  0  0  0
    6.8842  -13.7179   16.9907 N   0  0  0  0  0  0  0  0  0  0  0  0
    7.1632  -13.4602   18.3639 C   0  0  0  0  0  0  0  0  0  0  0  0
    6.5450  -12.4809   18.9283 N   0  0  0  0  0  0  0  0  0  0  0  0
    8.0760  -14.2451   19.0972 N   0  0  0  0  0  0  0  0  0  0  0  0
    8.2605  -14.0960   20.5230 C   0  0  0  0  0  0  0  0  0  0  0  0
    9.2723  -15.1017   20.9860 C   0  0  0  0  0  0  0  0  0  0  0  0
    9.8803  -15.8874   19.8745 C   0  0  0  0  0  0  0  0  0  0  0  0
   11.1384  -16.6365   20.2441 C   0  0  2  0  0  0  0  0  0  0  0  0
   11.5904  -17.4383   19.1247 N   0  0  0  0  0  0  0  0  0  0  0  0
   10.9279  -17.5425   21.3924 C   0  0  0  0  0  0  0  0  0  0  0  0
   10.3542  -18.6337   21.2073 O   0  0  0  0  0  0  0  0  0  0  0  0
    6.7425  -12.2083   19.9128 N   0  0  0  0  0  0  0  0  0  0  0  0
   11.3673  -17.1724   22.6600 C   0  0  1  0  0  0  0  0  0  0  0  0
   11.0018  -18.1276   23.7957 C   0  0  0  0  0  0  0  0  0  0  0  0
   12.2971  -18.4559   24.4037 C   0  0  0  0  0  0  0  0  0  0  0  0
   12.9264  -19.7520   24.3556 C   0  0  0  0  0  0  0  0  0  0  0  0
   14.2514  -20.0956   24.8666 C   0  0  0  0  0  0  0  0  0  0  0  0
   14.6161  -21.5326   24.6160 N   0  0  0  0  0  0  0  0  0  0  0  0
   15.9406  -21.8871   25.0246 C   0  0  0  0  0  0  0  0  0  0  0  0
   10.1523  -17.1807   24.5935 O   0  0  0  0  0  0  0  0  0  0  0  0
    9.3574  -17.4932   25.6290 O   0  0  0  0  0  0  0  0  0  0  0  0
  2  1  1  0
  3  4  1  1
  3  2  1  0
  5  3  1  0
  6  5  2  0
  7  8  1  0
  8 10  1  0
  9  8  2  0
 11 10  1  0
 11 12  1  0
 14 13  1  6
 13 12  1  0
 14 15  1  0
 15  5  1  0
 16 17  2  0
 16 14  1  0
 18 16  1  0
 19 18  1  0
 20 21  1  0
 19 20  1  6
 22 21  1  0
 23 22  1  0
 24 23  1  0
 25 26  1  0
 25 19  1  0
 27 25  2  0
M  END
$$$$
