SRK.pdb
     RDKit          3D

 27 26  0  0  1  0  0  0  0  0999 V2000
    9.2403  -21.2444   23.2380 O   0  0  0  0  0  0  0  0  0  0  0  0
    7.9392  -20.7948   23.1441 C   0  0  0  0  0  0  0  0  0  0  0  0
    7.7003  -20.2510   21.7596 C   0  0  2  0  0  0  0  0  0  0  0  0
    7.8912  -21.2996   20.7890 N   0  0  0  0  0  0  0  0  0  0  0  0
    8.6187  -19.1290   21.4706 C   0  0  0  0  0  0  0  0  0  0  0  0
    9.6464  -19.3333   20.7883 O   0  0  0  0  0  0  0  0  0  0  0  0
    8.3400  -13.3991   18.2599 N   0  0  0  0  0  0  0  0  0  0  0  0
    8.3319  -12.6155   19.4497 C   0  0  0  0  0  0  0  0  0  0  0  0
    9.0566  -11.5506   19.4718 N   0  0  0  0  0  0  0  0  0  0  0  0
    7.5570  -12.9744   20.5712 N   0  0  0  0  0  0  0  0  0  0  0  0
    6.6642  -14.1111   20.5686 C   0  0  0  0  0  0  0  0  0  0  0  0
    7.4830  -15.3672   20.5322 C   0  0  0  0  0  0  0  0  0  0  0  0
    8.5082  -15.4393   21.6122 C   0  0  0  0  0  0  0  0  0  0  0  0
    9.2551  -16.7496   21.6885 C   0  0  2  0  0  0  0  0  0  0  0  0
    8.3348  -17.8348   21.9638 N   0  0  0  0  0  0  0  0  0  0  0  0
   10.2783  -16.7440   22.7548 C   0  0  0  0  0  0  0  0  0  0  0  0
    9.9137  -16.7916   23.9459 O   0  0  0  0  0  0  0  0  0  0  0  0
    9.1058  -10.9436   20.3155 N   0  0  0  0  0  0  0  0  0  0  0  0
   11.6285  -16.6853   22.4227 C   0  0  1  0  0  0  0  0  0  0  0  0
   12.6061  -16.7858   23.5931 C   0  0  0  0  0  0  0  0  0  0  0  0
   13.1507  -18.1440   23.4751 C   0  0  0  0  0  0  0  0  0  0  0  0
   13.0524  -19.1634   24.4897 C   0  0  0  0  0  0  0  0  0  0  0  0
   13.5297  -20.5405   24.3888 C   0  0  0  0  0  0  0  0  0  0  0  0
   13.3134  -21.3246   25.6534 N   0  0  0  0  0  0  0  0  0  0  0  0
   13.7794  -22.6762   25.5990 C   0  0  0  0  0  0  0  0  0  0  0  0
   13.5435  -15.6914   23.1706 O   0  0  0  0  0  0  0  0  0  0  0  0
   14.4766  -15.0959   23.9299 O   0  0  0  0  0  0  0  0  0  0  0  0
  2  1  1  0
  3  4  1  6
  3  2  1  0
  5  3  1  0
  6  5  2  0
  7  8  1  0
  8 10  1  0
  9  8  2  0
 11 10  1  0
 11 12  1  0
 14 13  1  1
 13 12  1  0
 14 15  1  0
 15  5  1  0
 16 17  2  0
 16 14  1  0
 18 16  1  0
 19 18  1  0
 20 21  1  0
 19 20  1  1
 22 21  1  0
 23 22  1  0
 24 23  1  0
 25 26  1  0
 25 19  1  0
 27 25  2  0
M  END
$$$$
