SRK.pdb
     RDKit          3D

 27 26  0  0  1  0  0  0  0  0999 V2000
   13.8558  -19.0546   22.7873 O   0  0  0  0  0  0  0  0  0  0  0  0
   13.1244  -19.2101   21.6277 C   0  0  0  0  0  0  0  0  0  0  0  0
   13.0510  -17.8898   20.9059 C   0  0  2  0  0  0  0  0  0  0  0  0
   14.3830  -17.3826   20.6896 N   0  0  0  0  0  0  0  0  0  0  0  0
   12.2630  -16.9095   21.6833 C   0  0  0  0  0  0  0  0  0  0  0  0
   12.8524  -16.0948   22.4263 O   0  0  0  0  0  0  0  0  0  0  0  0
    7.8146  -12.2984   19.4308 N   0  0  0  0  0  0  0  0  0  0  0  0
    7.7343  -13.3482   18.4710 C   0  0  0  0  0  0  0  0  0  0  0  0
    8.3161  -13.1689   17.3356 N   0  0  0  0  0  0  0  0  0  0  0  0
    7.0523  -14.5519   18.7408 N   0  0  0  0  0  0  0  0  0  0  0  0
    7.0900  -15.1944   20.0350 C   0  0  0  0  0  0  0  0  0  0  0  0
    8.5015  -15.1750   20.5420 C   0  0  0  0  0  0  0  0  0  0  0  0
    8.6714  -15.8650   21.8524 C   0  0  0  0  0  0  0  0  0  0  0  0
   10.0945  -15.9287   22.3537 C   0  0  2  0  0  0  0  0  0  0  0  0
   10.8527  -16.8960   21.5857 N   0  0  0  0  0  0  0  0  0  0  0  0
   10.1650  -16.3259   23.7753 C   0  0  0  0  0  0  0  0  0  0  0  0
   10.4152  -17.5131   24.0620 O   0  0  0  0  0  0  0  0  0  0  0  0
    8.3650  -13.9264   16.6240 N   0  0  0  0  0  0  0  0  0  0  0  0
    9.9525  -15.3795   24.7733 C   0  0  2  0  0  0  0  0  0  0  0  0
   10.0342  -15.8971   26.2090 C   0  0  0  0  0  0  0  0  0  0  0  0
   10.0644  -14.6727   27.0183 C   0  0  0  0  0  0  0  0  0  0  0  0
   10.8207  -14.5058   28.2343 C   0  0  0  0  0  0  0  0  0  0  0  0
   10.3697  -14.8153   29.5890 C   0  0  0  0  0  0  0  0  0  0  0  0
   11.4056  -14.5005   30.6324 N   0  0  0  0  0  0  0  0  0  0  0  0
   11.0014  -14.7894   31.9741 C   0  0  0  0  0  0  0  0  0  0  0  0
    8.7280  -16.6376   26.2336 O   0  0  0  0  0  0  0  0  0  0  0  0
    7.7263  -16.5282   25.3468 O   0  0  0  0  0  0  0  0  0  0  0  0
  2  1  1  0
  3  4  1  1
  3  2  1  0
  5  3  1  0
  6  5  2  0
  7  8  1  0
  8 10  1  0
  9  8  2  0
 11 10  1  0
 11 12  1  0
 14 13  1  6
 13 12  1  0
 14 15  1  0
 15  5  1  0
 16 17  2  0
 16 14  1  0
 18 16  1  0
 19 18  1  0
 20 21  1  0
 19 20  1  6
 22 21  1  0
 23 22  1  0
 24 23  1  0
 25 26  1  0
 25 19  1  0
 27 25  2  0
M  END
$$$$
