SRK.pdb
     RDKit          3D

 27 26  0  0  1  0  0  0  0  0999 V2000
    9.9250  -23.1547   18.8670 O   0  0  0  0  0  0  0  0  0  0  0  0
    8.8858  -22.2947   18.5769 C   0  0  0  0  0  0  0  0  0  0  0  0
    9.3590  -21.2585   17.5910 C   0  0  2  0  0  0  0  0  0  0  0  0
   10.2301  -21.8756   16.6222 N   0  0  0  0  0  0  0  0  0  0  0  0
   10.0750  -20.1649   18.2819 C   0  0  0  0  0  0  0  0  0  0  0  0
   11.3223  -20.1981   18.3617 O   0  0  0  0  0  0  0  0  0  0  0  0
    6.6380  -12.5301   19.5439 N   0  0  0  0  0  0  0  0  0  0  0  0
    7.6888  -13.1131   20.3092 C   0  0  0  0  0  0  0  0  0  0  0  0
    7.9867  -12.5637   21.4357 N   0  0  0  0  0  0  0  0  0  0  0  0
    8.3842  -14.2568   19.8673 N   0  0  0  0  0  0  0  0  0  0  0  0
    8.0755  -14.9225   18.6220 C   0  0  0  0  0  0  0  0  0  0  0  0
    8.9779  -16.1115   18.4742 C   0  0  0  0  0  0  0  0  0  0  0  0
    9.2118  -16.8419   19.7525 C   0  0  0  0  0  0  0  0  0  0  0  0
   10.0552  -18.0880   19.6236 C   0  0  2  0  0  0  0  0  0  0  0  0
    9.3518  -19.0902   18.8482 N   0  0  0  0  0  0  0  0  0  0  0  0
   10.3770  -18.6790   20.9392 C   0  0  0  0  0  0  0  0  0  0  0  0
    9.6239  -19.5523   21.4128 O   0  0  0  0  0  0  0  0  0  0  0  0
    8.7681  -12.9186   22.0240 N   0  0  0  0  0  0  0  0  0  0  0  0
   11.5081  -18.2586   21.6325 C   0  0  2  0  0  0  0  0  0  0  0  0
   11.7107  -18.8805   23.0139 C   0  0  0  0  0  0  0  0  0  0  0  0
   13.1159  -19.3054   23.0006 C   0  0  0  0  0  0  0  0  0  0  0  0
   13.7556  -20.0731   24.0397 C   0  0  0  0  0  0  0  0  0  0  0  0
   15.1715  -20.4250   24.1154 C   0  0  0  0  0  0  0  0  0  0  0  0
   15.4786  -21.3568   25.2547 N   0  0  0  0  0  0  0  0  0  0  0  0
   16.8379  -21.8003   25.3070 C   0  0  0  0  0  0  0  0  0  0  0  0
   11.4304  -17.6537   23.8331 O   0  0  0  0  0  0  0  0  0  0  0  0
   11.3367  -16.3923   23.3837 O   0  0  0  0  0  0  0  0  0  0  0  0
  2  1  1  0
  3  4  1  6
  3  2  1  0
  5  3  1  0
  6  5  2  0
  7  8  1  0
  8 10  1  0
  9  8  2  0
 11 10  1  0
 11 12  1  0
 14 13  1  1
 13 12  1  0
 14 15  1  0
 15  5  1  0
 16 17  2  0
 16 14  1  0
 18 16  1  0
 19 18  1  0
 20 21  1  0
 19 20  1  6
 22 21  1  0
 23 22  1  0
 24 23  1  0
 25 26  1  0
 25 19  1  0
 27 25  2  0
M  END
$$$$
