SRK.pdb
     RDKit          3D

 27 26  0  0  1  0  0  0  0  0999 V2000
    6.4205  -20.2452   25.0421 O   0  0  0  0  0  0  0  0  0  0  0  0
    5.1632  -19.7046   24.8671 C   0  0  0  0  0  0  0  0  0  0  0  0
    4.9169  -19.4856   23.3971 C   0  0  2  0  0  0  0  0  0  0  0  0
    4.8871  -20.7566   22.7175 N   0  0  0  0  0  0  0  0  0  0  0  0
    5.9698  -18.6295   22.8102 C   0  0  0  0  0  0  0  0  0  0  0  0
    6.9388  -19.1585   22.2234 O   0  0  0  0  0  0  0  0  0  0  0  0
    7.1508  -12.6029   18.0064 N   0  0  0  0  0  0  0  0  0  0  0  0
    8.4263  -13.2309   18.0993 C   0  0  0  0  0  0  0  0  0  0  0  0
    9.2500  -13.0635   17.1230 N   0  0  0  0  0  0  0  0  0  0  0  0
    8.7937  -14.0060   19.2178 N   0  0  0  0  0  0  0  0  0  0  0  0
    7.8733  -14.9031   19.8792 C   0  0  0  0  0  0  0  0  0  0  0  0
    7.3836  -14.2498   21.1374 C   0  0  0  0  0  0  0  0  0  0  0  0
    6.4083  -15.0822   21.8979 C   0  0  0  0  0  0  0  0  0  0  0  0
    6.9539  -16.3994   22.3956 C   0  0  2  0  0  0  0  0  0  0  0  0
    5.8794  -17.2224   22.9136 N   0  0  0  0  0  0  0  0  0  0  0  0
    7.9443  -16.2168   23.4772 C   0  0  0  0  0  0  0  0  0  0  0  0
    7.5642  -15.7776   24.5802 O   0  0  0  0  0  0  0  0  0  0  0  0
   10.2065  -13.4725   17.1424 N   0  0  0  0  0  0  0  0  0  0  0  0
    9.2814  -16.5333   23.2565 C   0  0  2  0  0  0  0  0  0  0  0  0
   10.2218  -16.3099   24.4405 C   0  0  0  0  0  0  0  0  0  0  0  0
   10.4146  -17.6576   24.9898 C   0  0  0  0  0  0  0  0  0  0  0  0
    9.7114  -18.1929   26.1287 C   0  0  0  0  0  0  0  0  0  0  0  0
    9.8258  -19.5473   26.6644 C   0  0  0  0  0  0  0  0  0  0  0  0
    8.8716  -19.8068   27.7970 N   0  0  0  0  0  0  0  0  0  0  0  0
    8.8487  -21.1627   28.2531 C   0  0  0  0  0  0  0  0  0  0  0  0
   11.3926  -15.7685   23.6718 O   0  0  0  0  0  0  0  0  0  0  0  0
   12.3980  -15.0245   24.1590 O   0  0  0  0  0  0  0  0  0  0  0  0
  2  1  1  0
  3  4  1  6
  3  2  1  0
  5  3  1  0
  6  5  2  0
  7  8  1  0
  8 10  1  0
  9  8  2  0
 11 10  1  0
 11 12  1  0
 14 13  1  1
 13 12  1  0
 14 15  1  0
 15  5  1  0
 16 17  2  0
 16 14  1  0
 18 16  1  0
 19 18  1  0
 20 21  1  0
 19 20  1  6
 22 21  1  0
 23 22  1  0
 24 23  1  0
 25 26  1  0
 25 19  1  0
 27 25  2  0
M  END
$$$$
