SRK.pdb
     RDKit          3D

 27 26  0  0  1  0  0  0  0  0999 V2000
   11.0743  -16.7828   18.9516 O   0  0  0  0  0  0  0  0  0  0  0  0
   10.5476  -18.0539   19.0555 C   0  0  0  0  0  0  0  0  0  0  0  0
    9.0705  -18.0048   18.7639 C   0  0  2  0  0  0  0  0  0  0  0  0
    8.8081  -16.9985   17.7655 N   0  0  0  0  0  0  0  0  0  0  0  0
    8.3027  -17.7034   19.9910 C   0  0  0  0  0  0  0  0  0  0  0  0
    7.6153  -16.6606   20.0479 O   0  0  0  0  0  0  0  0  0  0  0  0
    6.7314  -23.1740   26.6003 N   0  0  0  0  0  0  0  0  0  0  0  0
    7.3164  -21.9092   26.8971 C   0  0  0  0  0  0  0  0  0  0  0  0
    8.0010  -21.8049   27.9834 N   0  0  0  0  0  0  0  0  0  0  0  0
    7.1675  -20.8013   26.0385 N   0  0  0  0  0  0  0  0  0  0  0  0
    6.2124  -20.7801   24.9538 C   0  0  0  0  0  0  0  0  0  0  0  0
    6.3790  -19.5003   24.1896 C   0  0  0  0  0  0  0  0  0  0  0  0
    7.2932  -19.6227   23.0184 C   0  0  0  0  0  0  0  0  0  0  0  0
    7.4961  -18.3456   22.2384 C   0  0  2  0  0  0  0  0  0  0  0  0
    8.3478  -18.5898   21.0915 N   0  0  0  0  0  0  0  0  0  0  0  0
    8.1311  -17.2909   23.0558 C   0  0  0  0  0  0  0  0  0  0  0  0
    9.3751  -17.2230   23.0989 O   0  0  0  0  0  0  0  0  0  0  0  0
    8.4671  -20.9133   28.2489 N   0  0  0  0  0  0  0  0  0  0  0  0
    7.3414  -16.3908   23.7651 C   0  0  2  0  0  0  0  0  0  0  0  0
    8.0907  -15.2594   24.4683 C   0  0  0  0  0  0  0  0  0  0  0  0
    7.0534  -14.2465   24.6986 C   0  0  0  0  0  0  0  0  0  0  0  0
    7.2643  -12.9865   25.3665 C   0  0  0  0  0  0  0  0  0  0  0  0
    6.2386  -12.0113   25.7293 C   0  0  0  0  0  0  0  0  0  0  0  0
    6.8090  -10.7854   26.3868 N   0  0  0  0  0  0  0  0  0  0  0  0
    5.8362   -9.8005   26.7483 C   0  0  0  0  0  0  0  0  0  0  0  0
    8.5104  -16.0221   25.6918 O   0  0  0  0  0  0  0  0  0  0  0  0
    9.6113  -15.8120   26.4305 O   0  0  0  0  0  0  0  0  0  0  0  0
  2  1  1  0
  3  4  1  6
  3  2  1  0
  5  3  1  0
  6  5  2  0
  7  8  1  0
  8 10  1  0
  9  8  2  0
 11 10  1  0
 11 12  1  0
 14 13  1  1
 13 12  1  0
 14 15  1  0
 15  5  1  0
 16 17  2  0
 16 14  1  0
 18 16  1  0
 19 18  1  0
 20 21  1  0
 19 20  1  1
 22 21  1  0
 23 22  1  0
 24 23  1  0
 25 26  1  0
 25 19  1  0
 27 25  2  0
M  END
$$$$
