SRK.pdb
     RDKit          3D

 27 26  0  0  1  0  0  0  0  0999 V2000
    6.3393  -16.5800   25.4034 O   0  0  0  0  0  0  0  0  0  0  0  0
    6.1040  -15.6714   24.3920 C   0  0  0  0  0  0  0  0  0  0  0  0
    6.1288  -16.3864   23.0662 C   0  0  2  0  0  0  0  0  0  0  0  0
    5.2215  -17.5060   23.1040 N   0  0  0  0  0  0  0  0  0  0  0  0
    7.4936  -16.8594   22.7502 C   0  0  0  0  0  0  0  0  0  0  0  0
    7.7856  -18.0622   22.9264 O   0  0  0  0  0  0  0  0  0  0  0  0
    8.1797  -12.3574   17.8815 N   0  0  0  0  0  0  0  0  0  0  0  0
    8.3406  -13.5116   17.0618 C   0  0  0  0  0  0  0  0  0  0  0  0
    7.6544  -13.5748   15.9733 N   0  0  0  0  0  0  0  0  0  0  0  0
    9.2221  -14.5546   17.4109 N   0  0  0  0  0  0  0  0  0  0  0  0
   10.0626  -14.5026   18.5857 C   0  0  0  0  0  0  0  0  0  0  0  0
    9.6546  -15.6032   19.5195 C   0  0  0  0  0  0  0  0  0  0  0  0
   10.3830  -15.5792   20.8200 C   0  0  0  0  0  0  0  0  0  0  0  0
    9.7779  -16.4444   21.8997 C   0  0  2  0  0  0  0  0  0  0  0  0
    8.4601  -15.9555   22.2527 N   0  0  0  0  0  0  0  0  0  0  0  0
   10.5994  -16.4549   23.1281 C   0  0  0  0  0  0  0  0  0  0  0  0
   10.4698  -15.5291   23.9528 O   0  0  0  0  0  0  0  0  0  0  0  0
    7.7522  -14.3742   15.3144 N   0  0  0  0  0  0  0  0  0  0  0  0
   11.5036  -17.4890   23.3512 C   0  0  1  0  0  0  0  0  0  0  0  0
   12.3105  -17.3991   24.6461 C   0  0  0  0  0  0  0  0  0  0  0  0
   11.8102  -18.5240   25.4457 C   0  0  0  0  0  0  0  0  0  0  0  0
   12.2857  -18.8782   26.7598 C   0  0  0  0  0  0  0  0  0  0  0  0
   11.8972  -20.0515   27.5389 C   0  0  0  0  0  0  0  0  0  0  0  0
   12.4451  -20.0269   28.9388 N   0  0  0  0  0  0  0  0  0  0  0  0
   12.1250  -21.1818   29.7203 C   0  0  0  0  0  0  0  0  0  0  0  0
   13.6740  -17.6047   24.0517 O   0  0  0  0  0  0  0  0  0  0  0  0
   14.8426  -17.1797   24.5573 O   0  0  0  0  0  0  0  0  0  0  0  0
  2  1  1  0
  3  4  1  1
  3  2  1  0
  5  3  1  0
  6  5  2  0
  7  8  1  0
  8 10  1  0
  9  8  2  0
 11 10  1  0
 11 12  1  0
 14 13  1  6
 13 12  1  0
 14 15  1  0
 15  5  1  0
 16 17  2  0
 16 14  1  0
 18 16  1  0
 19 18  1  0
 20 21  1  0
 19 20  1  1
 22 21  1  0
 23 22  1  0
 24 23  1  0
 25 26  1  0
 25 19  1  0
 27 25  2  0
M  END
$$$$
