SRK.pdb
     RDKit          3D

 27 26  0  0  1  0  0  0  0  0999 V2000
    8.5683  -21.4976   20.9659 O   0  0  0  0  0  0  0  0  0  0  0  0
    7.3847  -20.8197   21.1744 C   0  0  0  0  0  0  0  0  0  0  0  0
    7.3286  -19.6250   20.2584 C   0  0  2  0  0  0  0  0  0  0  0  0
    7.6566  -20.0306   18.9145 N   0  0  0  0  0  0  0  0  0  0  0  0
    8.2679  -18.5749   20.7069 C   0  0  0  0  0  0  0  0  0  0  0  0
    9.4981  -18.7974   20.6844 O   0  0  0  0  0  0  0  0  0  0  0  0
    8.1776  -14.0860   17.2120 N   0  0  0  0  0  0  0  0  0  0  0  0
    8.1327  -12.9159   18.0235 C   0  0  0  0  0  0  0  0  0  0  0  0
    9.1126  -12.0844   17.9322 N   0  0  0  0  0  0  0  0  0  0  0  0
    7.0566  -12.6571   18.8964 N   0  0  0  0  0  0  0  0  0  0  0  0
    6.8937  -13.3461   20.1565 C   0  0  0  0  0  0  0  0  0  0  0  0
    8.0964  -14.2108   20.3922 C   0  0  0  0  0  0  0  0  0  0  0  0
    8.0393  -14.9713   21.6731 C   0  0  0  0  0  0  0  0  0  0  0  0
    8.7068  -16.3254   21.6348 C   0  0  2  0  0  0  0  0  0  0  0  0
    7.7759  -17.3288   21.1582 N   0  0  0  0  0  0  0  0  0  0  0  0
    9.1820  -16.7480   22.9687 C   0  0  0  0  0  0  0  0  0  0  0  0
    8.3478  -16.9669   23.8689 O   0  0  0  0  0  0  0  0  0  0  0  0
    9.1738  -11.2466   18.5461 N   0  0  0  0  0  0  0  0  0  0  0  0
   10.5452  -16.8957   23.2067 C   0  0  2  0  0  0  0  0  0  0  0  0
   10.9294  -17.3442   24.6164 C   0  0  0  0  0  0  0  0  0  0  0  0
   11.2379  -18.7704   24.4550 C   0  0  0  0  0  0  0  0  0  0  0  0
   11.5390  -19.6768   25.5348 C   0  0  0  0  0  0  0  0  0  0  0  0
   11.9789  -21.0644   25.4093 C   0  0  0  0  0  0  0  0  0  0  0  0
   12.1686  -21.7365   26.7407 N   0  0  0  0  0  0  0  0  0  0  0  0
   12.7021  -23.0619   26.6642 C   0  0  0  0  0  0  0  0  0  0  0  0
   12.1270  -16.4559   24.7939 O   0  0  0  0  0  0  0  0  0  0  0  0
   12.8206  -16.2603   25.9264 O   0  0  0  0  0  0  0  0  0  0  0  0
  2  1  1  0
  3  4  1  6
  3  2  1  0
  5  3  1  0
  6  5  2  0
  7  8  1  0
  8 10  1  0
  9  8  2  0
 11 10  1  0
 11 12  1  0
 14 13  1  1
 13 12  1  0
 14 15  1  0
 15  5  1  0
 16 17  2  0
 16 14  1  0
 18 16  1  0
 19 18  1  0
 20 21  1  0
 19 20  1  6
 22 21  1  0
 23 22  1  0
 24 23  1  0
 25 26  1  0
 25 19  1  0
 27 25  2  0
M  END
$$$$
