SRK.pdb
     RDKit          3D

 27 26  0  0  1  0  0  0  0  0999 V2000
    9.7684  -19.9229   20.2391 O   0  0  0  0  0  0  0  0  0  0  0  0
    9.1621  -19.0940   19.3176 C   0  0  0  0  0  0  0  0  0  0  0  0
    9.9086  -17.7868   19.2586 C   0  0  2  0  0  0  0  0  0  0  0  0
   11.2680  -18.0249   18.8423 N   0  0  0  0  0  0  0  0  0  0  0  0
    9.8995  -17.1170   20.5767 C   0  0  0  0  0  0  0  0  0  0  0  0
   10.8714  -17.2634   21.3495 O   0  0  0  0  0  0  0  0  0  0  0  0
    7.3151  -13.5910   26.4857 N   0  0  0  0  0  0  0  0  0  0  0  0
    6.7631  -12.3487   26.0593 C   0  0  0  0  0  0  0  0  0  0  0  0
    6.1501  -11.6318   26.9369 N   0  0  0  0  0  0  0  0  0  0  0  0
    6.8813  -11.9002   24.7283 N   0  0  0  0  0  0  0  0  0  0  0  0
    6.6358  -12.7602   23.5927 C   0  0  0  0  0  0  0  0  0  0  0  0
    7.6472  -13.8677   23.5991 C   0  0  0  0  0  0  0  0  0  0  0  0
    7.7931  -14.5465   22.2799 C   0  0  0  0  0  0  0  0  0  0  0  0
    8.8035  -15.6685   22.2543 C   0  0  2  0  0  0  0  0  0  0  0  0
    8.7978  -16.3175   20.9585 N   0  0  0  0  0  0  0  0  0  0  0  0
    8.5166  -16.6973   23.2757 C   0  0  0  0  0  0  0  0  0  0  0  0
    7.6613  -17.5712   23.0332 O   0  0  0  0  0  0  0  0  0  0  0  0
    5.6783  -10.7412   26.6781 N   0  0  0  0  0  0  0  0  0  0  0  0
    9.1972  -16.6811   24.4894 C   0  0  2  0  0  0  0  0  0  0  0  0
    8.8944  -17.8412   25.4372 C   0  0  0  0  0  0  0  0  0  0  0  0
    9.9458  -17.7402   26.4568 C   0  0  0  0  0  0  0  0  0  0  0  0
   10.2991  -18.7859   27.3842 C   0  0  0  0  0  0  0  0  0  0  0  0
   11.3641  -18.7398   28.3832 C   0  0  0  0  0  0  0  0  0  0  0  0
   11.3651  -19.9412   29.2873 N   0  0  0  0  0  0  0  0  0  0  0  0
   12.3587  -19.9071   30.3162 C   0  0  0  0  0  0  0  0  0  0  0  0
    7.5348  -17.3885   25.8861 O   0  0  0  0  0  0  0  0  0  0  0  0
    6.5364  -18.1668   26.3325 O   0  0  0  0  0  0  0  0  0  0  0  0
  2  1  1  0
  3  4  1  1
  3  2  1  0
  5  3  1  0
  6  5  2  0
  7  8  1  0
  8 10  1  0
  9  8  2  0
 11 10  1  0
 11 12  1  0
 14 13  1  6
 13 12  1  0
 14 15  1  0
 15  5  1  0
 16 17  2  0
 16 14  1  0
 18 16  1  0
 19 18  1  0
 20 21  1  0
 19 20  1  6
 22 21  1  0
 23 22  1  0
 24 23  1  0
 25 26  1  0
 25 19  1  0
 27 25  2  0
M  END
$$$$
