SRK.pdb
     RDKit          3D

 27 26  0  0  1  0  0  0  0  0999 V2000
    8.9727  -16.7039   27.2994 O   0  0  0  0  0  0  0  0  0  0  0  0
    7.7629  -16.0614   27.1338 C   0  0  0  0  0  0  0  0  0  0  0  0
    6.9222  -16.8315   26.1490 C   0  0  2  0  0  0  0  0  0  0  0  0
    6.8179  -18.2053   26.5732 N   0  0  0  0  0  0  0  0  0  0  0  0
    7.5117  -16.7700   24.7945 C   0  0  0  0  0  0  0  0  0  0  0  0
    8.0296  -17.7950   24.3001 O   0  0  0  0  0  0  0  0  0  0  0  0
   10.0443  -13.7703   18.4474 N   0  0  0  0  0  0  0  0  0  0  0  0
    8.8152  -13.4949   17.7816 C   0  0  0  0  0  0  0  0  0  0  0  0
    8.7734  -13.6631   16.5050 N   0  0  0  0  0  0  0  0  0  0  0  0
    7.6716  -13.0599   18.4816 N   0  0  0  0  0  0  0  0  0  0  0  0
    7.6508  -12.9052   19.9186 C   0  0  0  0  0  0  0  0  0  0  0  0
    7.8245  -14.2540   20.5513 C   0  0  0  0  0  0  0  0  0  0  0  0
    7.6406  -14.2441   22.0306 C   0  0  0  0  0  0  0  0  0  0  0  0
    8.0420  -15.5230   22.7262 C   0  0  2  0  0  0  0  0  0  0  0  0
    7.4891  -15.5590   24.0654 N   0  0  0  0  0  0  0  0  0  0  0  0
    9.5094  -15.6561   22.8400 C   0  0  0  0  0  0  0  0  0  0  0  0
   10.1079  -15.0287   23.7356 O   0  0  0  0  0  0  0  0  0  0  0  0
    7.9176  -13.4440   15.9554 N   0  0  0  0  0  0  0  0  0  0  0  0
   10.2044  -16.4730   21.9533 C   0  0  2  0  0  0  0  0  0  0  0  0
   11.6926  -16.6592   22.2477 C   0  0  0  0  0  0  0  0  0  0  0  0
   11.7441  -17.9248   22.9898 C   0  0  0  0  0  0  0  0  0  0  0  0
   12.8473  -18.3548   23.8121 C   0  0  0  0  0  0  0  0  0  0  0  0
   12.9186  -19.5833   24.5998 C   0  0  0  0  0  0  0  0  0  0  0  0
   14.2590  -19.7781   25.2524 N   0  0  0  0  0  0  0  0  0  0  0  0
   14.3472  -20.9347   26.0900 C   0  0  0  0  0  0  0  0  0  0  0  0
   12.1730  -16.7408   20.8273 O   0  0  0  0  0  0  0  0  0  0  0  0
   11.4187  -16.9401   19.7349 O   0  0  0  0  0  0  0  0  0  0  0  0
  2  1  1  0
  3  4  1  1
  3  2  1  0
  5  3  1  0
  6  5  2  0
  7  8  1  0
  8 10  1  0
  9  8  2  0
 11 10  1  0
 11 12  1  0
 14 13  1  1
 13 12  1  0
 14 15  1  0
 15  5  1  0
 16 17  2  0
 16 14  1  0
 18 16  1  0
 19 18  1  0
 20 21  1  0
 19 20  1  6
 22 21  1  0
 23 22  1  0
 24 23  1  0
 25 26  1  0
 25 19  1  0
 27 25  2  0
M  END
$$$$
