SRK.pdb
     RDKit          3D

 27 26  0  0  1  0  0  0  0  0999 V2000
   10.5461  -21.8314   20.8393 O   0  0  0  0  0  0  0  0  0  0  0  0
    9.3016  -21.3648   20.4689 C   0  0  0  0  0  0  0  0  0  0  0  0
    9.4671  -20.2313   19.4905 C   0  0  2  0  0  0  0  0  0  0  0  0
   10.3462  -20.6388   18.4231 N   0  0  0  0  0  0  0  0  0  0  0  0
   10.0174  -19.0343   20.1617 C   0  0  0  0  0  0  0  0  0  0  0  0
   11.2466  -18.8107   20.1136 O   0  0  0  0  0  0  0  0  0  0  0  0
    8.4190  -11.8747   20.1817 N   0  0  0  0  0  0  0  0  0  0  0  0
    7.6312  -12.5637   19.2151 C   0  0  0  0  0  0  0  0  0  0  0  0
    7.6785  -12.1488   17.9963 N   0  0  0  0  0  0  0  0  0  0  0  0
    6.8275  -13.6687   19.5618 N   0  0  0  0  0  0  0  0  0  0  0  0
    7.0337  -14.4317   20.7720 C   0  0  0  0  0  0  0  0  0  0  0  0
    8.3884  -15.0728   20.7128 C   0  0  0  0  0  0  0  0  0  0  0  0
    8.6592  -15.9952   21.8522 C   0  0  0  0  0  0  0  0  0  0  0  0
    9.7218  -17.0346   21.5856 C   0  0  2  0  0  0  0  0  0  0  0  0
    9.1575  -18.1506   20.8532 N   0  0  0  0  0  0  0  0  0  0  0  0
   10.3063  -17.5641   22.8353 C   0  0  0  0  0  0  0  0  0  0  0  0
    9.5828  -18.2124   23.6166 O   0  0  0  0  0  0  0  0  0  0  0  0
    7.1411  -12.6201   17.2402 N   0  0  0  0  0  0  0  0  0  0  0  0
   11.6477  -17.3356   23.1272 C   0  0  1  0  0  0  0  0  0  0  0  0
   12.1510  -17.9235   24.4451 C   0  0  0  0  0  0  0  0  0  0  0  0
   12.6711  -19.2416   24.0612 C   0  0  0  0  0  0  0  0  0  0  0  0
   12.6103  -20.4241   24.8836 C   0  0  0  0  0  0  0  0  0  0  0  0
   13.1314  -21.7466   24.5460 C   0  0  0  0  0  0  0  0  0  0  0  0
   12.7741  -22.7901   25.5678 N   0  0  0  0  0  0  0  0  0  0  0  0
   13.0826  -24.1314   25.1771 C   0  0  0  0  0  0  0  0  0  0  0  0
   13.2018  -16.8923   24.7405 O   0  0  0  0  0  0  0  0  0  0  0  0
   13.4849  -15.8024   24.0098 O   0  0  0  0  0  0  0  0  0  0  0  0
  2  1  1  0
  3  4  1  6
  3  2  1  0
  5  3  1  0
  6  5  2  0
  7  8  1  0
  8 10  1  0
  9  8  2  0
 11 10  1  0
 11 12  1  0
 14 13  1  1
 13 12  1  0
 14 15  1  0
 15  5  1  0
 16 17  2  0
 16 14  1  0
 18 16  1  0
 19 18  1  0
 20 21  1  0
 19 20  1  1
 22 21  1  0
 23 22  1  0
 24 23  1  0
 25 26  1  0
 25 19  1  0
 27 25  2  0
M  END
$$$$
