SRK.pdb
     RDKit          3D

 27 26  0  0  1  0  0  0  0  0999 V2000
   10.0965  -12.8684   20.1624 O   0  0  0  0  0  0  0  0  0  0  0  0
    9.0349  -12.6801   19.3014 C   0  0  0  0  0  0  0  0  0  0  0  0
    8.4732  -14.0206   18.9048 C   0  0  2  0  0  0  0  0  0  0  0  0
    7.4289  -13.8371   17.9281 N   0  0  0  0  0  0  0  0  0  0  0  0
    7.9359  -14.7341   20.0830 C   0  0  0  0  0  0  0  0  0  0  0  0
    6.7617  -14.5162   20.4533 O   0  0  0  0  0  0  0  0  0  0  0  0
    6.2218  -21.2789   23.2129 N   0  0  0  0  0  0  0  0  0  0  0  0
    7.0841  -21.2204   24.3455 C   0  0  0  0  0  0  0  0  0  0  0  0
    6.6315  -21.6624   25.4678 N   0  0  0  0  0  0  0  0  0  0  0  0
    8.3937  -20.7065   24.2572 N   0  0  0  0  0  0  0  0  0  0  0  0
    8.8768  -20.0036   23.0902 C   0  0  0  0  0  0  0  0  0  0  0  0
    8.2989  -18.6195   23.0875 C   0  0  0  0  0  0  0  0  0  0  0  0
    8.7031  -17.8095   21.9031 C   0  0  0  0  0  0  0  0  0  0  0  0
    8.1871  -16.3903   21.9017 C   0  0  2  0  0  0  0  0  0  0  0  0
    8.7465  -15.6556   20.7848 N   0  0  0  0  0  0  0  0  0  0  0  0
    8.5442  -15.6686   23.1409 C   0  0  0  0  0  0  0  0  0  0  0  0
    9.7221  -15.2963   23.3084 O   0  0  0  0  0  0  0  0  0  0  0  0
    7.2081  -21.6396   26.3336 N   0  0  0  0  0  0  0  0  0  0  0  0
    7.5709  -15.4138   24.1024 C   0  0  2  0  0  0  0  0  0  0  0  0
    8.0090  -14.5391   25.2766 C   0  0  0  0  0  0  0  0  0  0  0  0
    6.7474  -13.9953   25.7941 C   0  0  0  0  0  0  0  0  0  0  0  0
    6.6354  -12.8356   26.6432 C   0  0  0  0  0  0  0  0  0  0  0  0
    5.9492  -11.5860   26.3236 C   0  0  0  0  0  0  0  0  0  0  0  0
    6.0454  -10.5711   27.4287 N   0  0  0  0  0  0  0  0  0  0  0  0
    5.4229   -9.3165   27.1363 C   0  0  0  0  0  0  0  0  0  0  0  0
    8.6225  -15.6203   26.1188 O   0  0  0  0  0  0  0  0  0  0  0  0
    9.5503  -15.4631   27.0761 O   0  0  0  0  0  0  0  0  0  0  0  0
  2  1  1  0
  3  4  1  6
  3  2  1  0
  5  3  1  0
  6  5  2  0
  7  8  1  0
  8 10  1  0
  9  8  2  0
 11 10  1  0
 11 12  1  0
 14 13  1  1
 13 12  1  0
 14 15  1  0
 15  5  1  0
 16 17  2  0
 16 14  1  0
 18 16  1  0
 19 18  1  0
 20 21  1  0
 19 20  1  6
 22 21  1  0
 23 22  1  0
 24 23  1  0
 25 26  1  0
 25 19  1  0
 27 25  2  0
M  END
$$$$
