SRK.pdb
     RDKit          3D

 27 26  0  0  1  0  0  0  0  0999 V2000
    4.6122  -20.9083   24.0038 O   0  0  0  0  0  0  0  0  0  0  0  0
    3.4711  -20.4846   23.3541 C   0  0  0  0  0  0  0  0  0  0  0  0
    3.8452  -19.9283   22.0050 C   0  0  2  0  0  0  0  0  0  0  0  0
    3.9239  -21.0008   21.0449 N   0  0  0  0  0  0  0  0  0  0  0  0
    5.1414  -19.2199   22.0702 C   0  0  0  0  0  0  0  0  0  0  0  0
    6.2036  -19.8627   21.9230 O   0  0  0  0  0  0  0  0  0  0  0  0
    8.9204  -11.4977   19.6494 N   0  0  0  0  0  0  0  0  0  0  0  0
    8.6453  -12.7520   19.0323 C   0  0  0  0  0  0  0  0  0  0  0  0
    9.2044  -12.9981   17.8980 N   0  0  0  0  0  0  0  0  0  0  0  0
    7.7987  -13.7061   19.6323 N   0  0  0  0  0  0  0  0  0  0  0  0
    7.3559  -13.6002   21.0041 C   0  0  0  0  0  0  0  0  0  0  0  0
    7.5312  -14.9321   21.6714 C   0  0  0  0  0  0  0  0  0  0  0  0
    6.2838  -15.7477   21.7060 C   0  0  0  0  0  0  0  0  0  0  0  0
    6.4498  -17.1328   22.2844 C   0  0  2  0  0  0  0  0  0  0  0  0
    5.1767  -17.8251   22.2982 N   0  0  0  0  0  0  0  0  0  0  0  0
    6.9598  -17.0979   23.6709 C   0  0  0  0  0  0  0  0  0  0  0  0
    6.1880  -16.7697   24.5933 O   0  0  0  0  0  0  0  0  0  0  0  0
    8.9953  -13.8675   17.3660 N   0  0  0  0  0  0  0  0  0  0  0  0
    8.2861  -17.4282   23.9326 C   0  0  2  0  0  0  0  0  0  0  0  0
    8.7133  -17.3534   25.3982 C   0  0  0  0  0  0  0  0  0  0  0  0
    9.0134  -18.7482   25.7440 C   0  0  0  0  0  0  0  0  0  0  0  0
    8.5038  -19.4391   26.9021 C   0  0  0  0  0  0  0  0  0  0  0  0
    8.8401  -20.7971   27.3232 C   0  0  0  0  0  0  0  0  0  0  0  0
    8.2017  -21.1748   28.6311 N   0  0  0  0  0  0  0  0  0  0  0  0
    8.5820  -22.4625   29.1255 C   0  0  0  0  0  0  0  0  0  0  0  0
    9.9179  -16.4756   25.2151 O   0  0  0  0  0  0  0  0  0  0  0  0
   10.6218  -15.8665   26.1822 O   0  0  0  0  0  0  0  0  0  0  0  0
  2  1  1  0
  3  4  1  6
  3  2  1  0
  5  3  1  0
  6  5  2  0
  7  8  1  0
  8 10  1  0
  9  8  2  0
 11 10  1  0
 11 12  1  0
 14 13  1  1
 13 12  1  0
 14 15  1  0
 15  5  1  0
 16 17  2  0
 16 14  1  0
 18 16  1  0
 19 18  1  0
 20 21  1  0
 19 20  1  6
 22 21  1  0
 23 22  1  0
 24 23  1  0
 25 26  1  0
 25 19  1  0
 27 25  2  0
M  END
$$$$
