IRS.pdb
     RDKit          3D

 26 25  0  0  1  0  0  0  0  0999 V2000
    6.5047  -11.5062   27.7705 C   0  0  0  0  0  0  0  0  0  0  0  0
    5.8922  -12.6465   26.9580 C   0  0  0  0  0  0  0  0  0  0  0  0
    7.0011  -13.4325   26.2522 C   0  0  2  0  0  0  0  0  0  0  0  0
    7.7194  -12.4772   25.3414 C   0  0  0  0  0  0  0  0  0  0  0  0
    6.3026  -14.5338   25.4926 C   0  0  2  0  0  0  0  0  0  0  0  0
    5.5671  -15.3386   26.4406 N   0  0  0  0  0  0  0  0  0  0  0  0
    7.1909  -15.3733   24.6912 C   0  0  0  0  0  0  0  0  0  0  0  0
    7.7979  -16.3855   25.1301 O   0  0  0  0  0  0  0  0  0  0  0  0
    7.6928  -13.2858   16.8599 N   0  0  0  0  0  0  0  0  0  0  0  0
    8.7211  -13.5816   17.7875 C   0  0  0  0  0  0  0  0  0  0  0  0
    9.6546  -12.7194   18.0118 N   0  0  0  0  0  0  0  0  0  0  0  0
    8.7833  -14.8046   18.5127 N   0  0  0  0  0  0  0  0  0  0  0  0
    7.6248  -15.6613   18.7345 C   0  0  0  0  0  0  0  0  0  0  0  0
    7.2616  -15.7599   20.1688 C   0  0  0  0  0  0  0  0  0  0  0  0
    8.4027  -15.4279   21.0699 C   0  0  0  0  0  0  0  0  0  0  0  0
    8.3338  -15.8226   22.4863 C   0  0  2  0  0  0  0  0  0  0  0  0
    7.4142  -15.0640   23.3218 N   0  0  0  0  0  0  0  0  0  0  0  0
    9.7210  -15.6872   23.1001 C   0  0  0  0  0  0  0  0  0  0  0  0
   10.1544  -14.6184   23.5501 O   0  0  0  0  0  0  0  0  0  0  0  0
   10.4862  -12.9129   18.5981 O   0  0  0  0  0  0  0  0  0  0  0  0
   12.9305  -17.6179   25.8110 C   0  0  0  0  0  0  0  0  0  0  0  0
   11.7039  -17.5995   25.1601 C   0  0  1  0  0  0  0  0  0  0  0  0
   11.7965  -16.7852   23.9024 N   0  0  0  0  0  0  0  0  0  0  0  0
   10.5347  -16.8382   23.1519 C   0  0  0  0  0  0  0  0  0  0  0  0
   12.9230  -17.2367   23.0447 O   0  0  0  0  0  0  0  0  0  0  0  0
   14.2314  -17.1973   23.4984 O   0  0  0  0  0  0  0  0  0  0  0  0
  2  1  1  0
  2  3  1  0
  3  4  1  6
  5  3  1  0
  5  6  1  1
  7  5  1  0
  7  8  2  0
  9 10  1  0
 10 11  2  0
 12 10  1  0
 12 13  1  0
 14 15  1  0
 14 13  1  0
 16 15  1  6
 16 18  1  0
 16 17  1  0
 17  7  1  0
 18 19  2  0
 21 20  1  0
 22 21  1  1
 23 22  1  0
 23 18  1  0
 24 22  1  0
 25 24  1  0
 26 24  2  0
M  END
$$$$
