IRS.pdb
     RDKit          3D

 26 25  0  0  1  0  0  0  0  0999 V2000
    7.8897  -12.8724   22.8370 C   0  0  0  0  0  0  0  0  0  0  0  0
    7.5527  -13.9591   21.8167 C   0  0  0  0  0  0  0  0  0  0  0  0
    8.2723  -13.6698   20.4961 C   0  0  2  0  0  0  0  0  0  0  0  0
    7.6488  -12.4369   19.9050 C   0  0  0  0  0  0  0  0  0  0  0  0
    8.0560  -14.8908   19.6357 C   0  0  2  0  0  0  0  0  0  0  0  0
    6.6329  -15.1017   19.5027 N   0  0  0  0  0  0  0  0  0  0  0  0
    8.7076  -16.1021   20.1299 C   0  0  0  0  0  0  0  0  0  0  0  0
    8.0995  -17.0701   20.6579 O   0  0  0  0  0  0  0  0  0  0  0  0
   14.6527  -21.4764   17.7210 N   0  0  0  0  0  0  0  0  0  0  0  0
   13.9727  -20.3206   17.2661 C   0  0  0  0  0  0  0  0  0  0  0  0
   13.3652  -20.3362   16.1277 N   0  0  0  0  0  0  0  0  0  0  0  0
   13.9115  -19.1116   18.0145 N   0  0  0  0  0  0  0  0  0  0  0  0
   14.1569  -19.0479   19.4501 C   0  0  0  0  0  0  0  0  0  0  0  0
   12.9052  -18.8963   20.2308 C   0  0  0  0  0  0  0  0  0  0  0  0
   12.0758  -17.7492   19.7610 C   0  0  0  0  0  0  0  0  0  0  0  0
   10.8240  -17.4348   20.4686 C   0  0  2  0  0  0  0  0  0  0  0  0
   10.1189  -16.2394   20.0290 N   0  0  0  0  0  0  0  0  0  0  0  0
   11.1297  -17.2617   21.9505 C   0  0  0  0  0  0  0  0  0  0  0  0
   11.6010  -16.2181   22.4211 O   0  0  0  0  0  0  0  0  0  0  0  0
   12.8143  -19.5400   15.7599 O   0  0  0  0  0  0  0  0  0  0  0  0
    9.4659  -19.7406   24.7333 C   0  0  0  0  0  0  0  0  0  0  0  0
   10.0579  -18.5434   25.1135 C   0  0  1  0  0  0  0  0  0  0  0  0
   11.2319  -18.2412   24.2280 N   0  0  0  0  0  0  0  0  0  0  0  0
   10.8578  -18.3456   22.8112 C   0  0  0  0  0  0  0  0  0  0  0  0
   12.3798  -19.1378   24.5230 O   0  0  0  0  0  0  0  0  0  0  0  0
   12.9788  -19.1498   25.7722 O   0  0  0  0  0  0  0  0  0  0  0  0
  2  1  1  0
  2  3  1  0
  3  4  1  6
  5  3  1  0
  5  6  1  1
  7  5  1  0
  7  8  2  0
  9 10  1  0
 10 11  2  0
 12 10  1  0
 12 13  1  0
 14 15  1  0
 14 13  1  0
 16 15  1  6
 16 18  1  0
 16 17  1  0
 17  7  1  0
 18 19  2  0
 21 20  1  0
 22 21  1  6
 23 22  1  0
 23 18  1  0
 24 22  1  0
 25 24  1  0
 26 24  2  0
M  END
$$$$
