IRS.pdb
     RDKit          3D

 26 25  0  0  1  0  0  0  0  0999 V2000
    8.0827  -11.7205   19.0386 C   0  0  0  0  0  0  0  0  0  0  0  0
    7.9972  -13.2290   19.2677 C   0  0  0  0  0  0  0  0  0  0  0  0
    7.5699  -13.5096   20.7114 C   0  0  2  0  0  0  0  0  0  0  0  0
    8.6260  -12.9345   21.6126 C   0  0  0  0  0  0  0  0  0  0  0  0
    7.4741  -15.0114   20.8256 C   0  0  2  0  0  0  0  0  0  0  0  0
    6.5369  -15.4800   19.8309 N   0  0  0  0  0  0  0  0  0  0  0  0
    7.0945  -15.4941   22.1519 C   0  0  0  0  0  0  0  0  0  0  0  0
    5.9768  -15.2815   22.6915 O   0  0  0  0  0  0  0  0  0  0  0  0
    9.2884  -20.2252   28.1164 N   0  0  0  0  0  0  0  0  0  0  0  0
    7.9602  -20.6756   28.3120 C   0  0  0  0  0  0  0  0  0  0  0  0
    7.6233  -21.2234   29.4308 N   0  0  0  0  0  0  0  0  0  0  0  0
    6.9447  -20.5495   27.3229 N   0  0  0  0  0  0  0  0  0  0  0  0
    7.2029  -20.0732   25.9695 C   0  0  0  0  0  0  0  0  0  0  0  0
    7.3657  -18.6005   25.9104 C   0  0  0  0  0  0  0  0  0  0  0  0
    7.5305  -18.1007   24.5149 C   0  0  0  0  0  0  0  0  0  0  0  0
    7.7482  -16.6622   24.2916 C   0  0  2  0  0  0  0  0  0  0  0  0
    8.0163  -16.2572   22.9192 N   0  0  0  0  0  0  0  0  0  0  0  0
    8.9310  -16.2092   25.1373 C   0  0  0  0  0  0  0  0  0  0  0  0
   10.0890  -16.5972   24.9343 O   0  0  0  0  0  0  0  0  0  0  0  0
    6.6666  -21.5602   29.6401 O   0  0  0  0  0  0  0  0  0  0  0  0
    8.2238  -13.6096   28.2792 C   0  0  0  0  0  0  0  0  0  0  0  0
    9.4779  -13.5434   27.6864 C   0  0  1  0  0  0  0  0  0  0  0  0
    9.8050  -14.8473   27.0183 N   0  0  0  0  0  0  0  0  0  0  0  0
    8.6804  -15.3078   26.1929 C   0  0  0  0  0  0  0  0  0  0  0  0
   10.1728  -15.8894   28.0119 O   0  0  0  0  0  0  0  0  0  0  0  0
   11.2065  -15.6898   28.9125 O   0  0  0  0  0  0  0  0  0  0  0  0
  2  1  1  0
  2  3  1  0
  3  4  1  1
  5  3  1  0
  5  6  1  6
  7  5  1  0
  7  8  2  0
  9 10  1  0
 10 11  2  0
 12 10  1  0
 12 13  1  0
 14 15  1  0
 14 13  1  0
 16 15  1  6
 16 18  1  0
 16 17  1  0
 17  7  1  0
 18 19  2  0
 21 20  1  0
 22 21  1  6
 23 22  1  0
 23 18  1  0
 24 22  1  0
 25 24  1  0
 26 24  2  0
M  END
$$$$
