IRS.pdb
     RDKit          3D

 26 25  0  0  1  0  0  0  0  0999 V2000
    8.4765  -12.4503   27.6224 C   0  0  0  0  0  0  0  0  0  0  0  0
    7.8258  -13.6628   26.9575 C   0  0  0  0  0  0  0  0  0  0  0  0
    6.8006  -13.1957   25.9202 C   0  0  2  0  0  0  0  0  0  0  0  0
    5.7306  -12.4383   26.6549 C   0  0  0  0  0  0  0  0  0  0  0  0
    6.2719  -14.4522   25.2723 C   0  0  2  0  0  0  0  0  0  0  0  0
    5.9331  -15.3899   26.3179 N   0  0  0  0  0  0  0  0  0  0  0  0
    7.1851  -15.0673   24.3112 C   0  0  0  0  0  0  0  0  0  0  0  0
    7.7392  -16.1862   24.4746 O   0  0  0  0  0  0  0  0  0  0  0  0
    9.9165  -14.4508   18.0829 N   0  0  0  0  0  0  0  0  0  0  0  0
    8.6818  -14.3342   17.3996 C   0  0  0  0  0  0  0  0  0  0  0  0
    8.4873  -14.9870   16.3035 N   0  0  0  0  0  0  0  0  0  0  0  0
    7.6100  -13.5229   17.8671 N   0  0  0  0  0  0  0  0  0  0  0  0
    7.7023  -12.6859   19.0572 C   0  0  0  0  0  0  0  0  0  0  0  0
    7.3601  -13.4258   20.2959 C   0  0  0  0  0  0  0  0  0  0  0  0
    8.5184  -14.1910   20.8412 C   0  0  0  0  0  0  0  0  0  0  0  0
    8.3373  -14.9852   22.0672 C   0  0  2  0  0  0  0  0  0  0  0  0
    7.4975  -14.3939   23.0989 N   0  0  0  0  0  0  0  0  0  0  0  0
    9.7035  -15.2448   22.6883 C   0  0  0  0  0  0  0  0  0  0  0  0
   10.1588  -14.5645   23.6170 O   0  0  0  0  0  0  0  0  0  0  0  0
    7.5797  -15.0152   15.8053 O   0  0  0  0  0  0  0  0  0  0  0  0
   11.5149  -18.3109   25.0601 C   0  0  0  0  0  0  0  0  0  0  0  0
   10.6407  -17.6209   24.2305 C   0  0  1  0  0  0  0  0  0  0  0  0
   11.3862  -17.0279   23.0703 N   0  0  0  0  0  0  0  0  0  0  0  0
   10.4706  -16.3104   22.1730 C   0  0  0  0  0  0  0  0  0  0  0  0
   12.1336  -18.0678   22.3162 O   0  0  0  0  0  0  0  0  0  0  0  0
   13.3438  -18.5589   22.7783 O   0  0  0  0  0  0  0  0  0  0  0  0
  2  1  1  0
  2  3  1  0
  3  4  1  1
  5  3  1  0
  5  6  1  1
  7  5  1  0
  7  8  2  0
  9 10  1  0
 10 11  2  0
 12 10  1  0
 12 13  1  0
 14 15  1  0
 14 13  1  0
 16 15  1  6
 16 18  1  0
 16 17  1  0
 17  7  1  0
 18 19  2  0
 21 20  1  0
 22 21  1  1
 23 22  1  0
 23 18  1  0
 24 22  1  0
 25 24  1  0
 26 24  2  0
M  END
$$$$
