IRS.pdb
     RDKit          3D

 26 25  0  0  1  0  0  0  0  0999 V2000
    7.9415  -11.7310   20.0145 C   0  0  0  0  0  0  0  0  0  0  0  0
    8.8009  -12.6988   19.2020 C   0  0  0  0  0  0  0  0  0  0  0  0
    7.9324  -13.8455   18.6762 C   0  0  2  0  0  0  0  0  0  0  0  0
    7.3176  -14.5261   19.8665 C   0  0  0  0  0  0  0  0  0  0  0  0
    8.8687  -14.7533   17.9166 C   0  0  2  0  0  0  0  0  0  0  0  0
    8.0724  -15.7134   17.1876 N   0  0  0  0  0  0  0  0  0  0  0  0
    9.8566  -15.4366   18.7491 C   0  0  0  0  0  0  0  0  0  0  0  0
    9.6134  -16.4563   19.4467 O   0  0  0  0  0  0  0  0  0  0  0  0
   16.4962  -16.4238   18.6864 N   0  0  0  0  0  0  0  0  0  0  0  0
   17.1089  -15.1508   18.7825 C   0  0  0  0  0  0  0  0  0  0  0  0
   18.2987  -15.0431   19.2706 N   0  0  0  0  0  0  0  0  0  0  0  0
   16.4755  -13.9506   18.3536 N   0  0  0  0  0  0  0  0  0  0  0  0
   15.1267  -13.9127   17.8017 C   0  0  0  0  0  0  0  0  0  0  0  0
   14.0840  -14.0068   18.8519 C   0  0  0  0  0  0  0  0  0  0  0  0
   13.6216  -15.4076   19.0722 C   0  0  0  0  0  0  0  0  0  0  0  0
   12.2452  -15.6413   19.5383 C   0  0  2  0  0  0  0  0  0  0  0  0
   11.1920  -14.9527   18.8061 N   0  0  0  0  0  0  0  0  0  0  0  0
   12.1418  -15.2090   20.9950 C   0  0  0  0  0  0  0  0  0  0  0  0
   11.8065  -14.0664   21.3339 O   0  0  0  0  0  0  0  0  0  0  0  0
   18.8192  -14.1492   19.3227 O   0  0  0  0  0  0  0  0  0  0  0  0
    9.9827  -17.1636   23.3792 C   0  0  0  0  0  0  0  0  0  0  0  0
   10.5020  -15.8776   23.4488 C   0  0  1  0  0  0  0  0  0  0  0  0
   12.0005  -15.9185   23.3685 N   0  0  0  0  0  0  0  0  0  0  0  0
   12.4431  -16.1630   21.9892 C   0  0  0  0  0  0  0  0  0  0  0  0
   12.5653  -16.9484   24.2789 O   0  0  0  0  0  0  0  0  0  0  0  0
   12.4817  -16.8137   25.6552 O   0  0  0  0  0  0  0  0  0  0  0  0
  2  1  1  0
  2  3  1  0
  3  4  1  1
  5  3  1  0
  5  6  1  1
  7  5  1  0
  7  8  2  0
  9 10  1  0
 10 11  2  0
 12 10  1  0
 12 13  1  0
 14 15  1  0
 14 13  1  0
 16 15  1  6
 16 18  1  0
 16 17  1  0
 17  7  1  0
 18 19  2  0
 21 20  1  0
 22 21  1  6
 23 22  1  0
 23 18  1  0
 24 22  1  0
 25 24  1  0
 26 24  2  0
M  END
$$$$
