IRS.pdb
     RDKit          3D

 26 25  0  0  1  0  0  0  0  0999 V2000
    6.6203  -11.9850   27.7316 C   0  0  0  0  0  0  0  0  0  0  0  0
    6.1670  -13.3344   27.1758 C   0  0  0  0  0  0  0  0  0  0  0  0
    7.1920  -13.8460   26.1594 C   0  0  2  0  0  0  0  0  0  0  0  0
    7.6989  -12.6561   25.3943 C   0  0  0  0  0  0  0  0  0  0  0  0
    6.4457  -14.8185   25.2791 C   0  0  2  0  0  0  0  0  0  0  0  0
    6.1079  -15.9773   26.0731 N   0  0  0  0  0  0  0  0  0  0  0  0
    7.1672  -15.2190   24.0729 C   0  0  0  0  0  0  0  0  0  0  0  0
    7.8741  -16.2570   23.9804 O   0  0  0  0  0  0  0  0  0  0  0  0
    8.2991  -13.2314   15.9506 N   0  0  0  0  0  0  0  0  0  0  0  0
    8.8936  -14.4777   16.2644 C   0  0  0  0  0  0  0  0  0  0  0  0
   10.0165  -14.8110   15.7227 N   0  0  0  0  0  0  0  0  0  0  0  0
    8.3137  -15.4070   17.1730 N   0  0  0  0  0  0  0  0  0  0  0  0
    7.5295  -15.0051   18.3344 C   0  0  0  0  0  0  0  0  0  0  0  0
    8.2886  -14.1184   19.2490 C   0  0  0  0  0  0  0  0  0  0  0  0
    7.5618  -13.8594   20.5254 C   0  0  0  0  0  0  0  0  0  0  0  0
    7.7636  -14.7736   21.6613 C   0  0  2  0  0  0  0  0  0  0  0  0
    7.0955  -14.4137   22.9036 N   0  0  0  0  0  0  0  0  0  0  0  0
    9.2547  -14.8637   21.9580 C   0  0  0  0  0  0  0  0  0  0  0  0
    9.8188  -14.1390   22.7881 O   0  0  0  0  0  0  0  0  0  0  0  0
   10.5528  -15.6567   15.9869 O   0  0  0  0  0  0  0  0  0  0  0  0
   11.0236  -17.7105   23.2451 C   0  0  0  0  0  0  0  0  0  0  0  0
   11.5361  -16.4332   23.0599 C   0  0  1  0  0  0  0  0  0  0  0  0
   11.4178  -16.0310   21.6185 N   0  0  0  0  0  0  0  0  0  0  0  0
   10.0118  -15.8196   21.2490 C   0  0  0  0  0  0  0  0  0  0  0  0
   12.0383  -17.0395   20.7205 O   0  0  0  0  0  0  0  0  0  0  0  0
   13.3988  -17.2975   20.7621 O   0  0  0  0  0  0  0  0  0  0  0  0
  2  1  1  0
  2  3  1  0
  3  4  1  6
  5  3  1  0
  5  6  1  1
  7  5  1  0
  7  8  2  0
  9 10  1  0
 10 11  2  0
 12 10  1  0
 12 13  1  0
 14 15  1  0
 14 13  1  0
 16 15  1  6
 16 18  1  0
 16 17  1  0
 17  7  1  0
 18 19  2  0
 21 20  1  0
 22 21  1  1
 23 22  1  0
 23 18  1  0
 24 22  1  0
 25 24  1  0
 26 24  2  0
M  END
$$$$
