IRS.pdb
     RDKit          3D

 26 25  0  0  1  0  0  0  0  0999 V2000
    7.0989  -11.9347   28.0251 C   0  0  0  0  0  0  0  0  0  0  0  0
    6.3403  -13.0317   27.2790 C   0  0  0  0  0  0  0  0  0  0  0  0
    7.2695  -13.7049   26.2646 C   0  0  2  0  0  0  0  0  0  0  0  0
    7.8123  -12.6278   25.3682 C   0  0  0  0  0  0  0  0  0  0  0  0
    6.4105  -14.6949   25.5164 C   0  0  2  0  0  0  0  0  0  0  0  0
    6.0795  -15.7751   26.4170 N   0  0  0  0  0  0  0  0  0  0  0  0
    7.0157  -15.2176   24.2931 C   0  0  0  0  0  0  0  0  0  0  0  0
    7.3998  -16.4075   24.1436 O   0  0  0  0  0  0  0  0  0  0  0  0
    9.8423  -15.2789   16.9409 N   0  0  0  0  0  0  0  0  0  0  0  0
    8.7066  -14.5804   16.4638 C   0  0  0  0  0  0  0  0  0  0  0  0
    8.3220  -14.7335   15.2415 N   0  0  0  0  0  0  0  0  0  0  0  0
    7.9385  -13.7009   17.2774 N   0  0  0  0  0  0  0  0  0  0  0  0
    8.4275  -13.1421   18.5319 C   0  0  0  0  0  0  0  0  0  0  0  0
    8.5885  -14.1738   19.5850 C   0  0  0  0  0  0  0  0  0  0  0  0
    7.7971  -13.8652   20.8109 C   0  0  0  0  0  0  0  0  0  0  0  0
    7.8211  -14.8148   21.9353 C   0  0  2  0  0  0  0  0  0  0  0  0
    7.2032  -14.3622   23.1733 N   0  0  0  0  0  0  0  0  0  0  0  0
    9.2700  -15.1614   22.2521 C   0  0  0  0  0  0  0  0  0  0  0  0
   10.0242  -14.3961   22.8669 O   0  0  0  0  0  0  0  0  0  0  0  0
    7.5320  -14.2139   14.8188 O   0  0  0  0  0  0  0  0  0  0  0  0
   10.4932  -19.0057   22.4542 C   0  0  0  0  0  0  0  0  0  0  0  0
   11.2512  -17.9662   22.9770 C   0  0  1  0  0  0  0  0  0  0  0  0
   11.1605  -16.7601   22.0878 N   0  0  0  0  0  0  0  0  0  0  0  0
    9.7584  -16.4124   21.8208 C   0  0  0  0  0  0  0  0  0  0  0  0
   11.8891  -16.9714   20.8099 O   0  0  0  0  0  0  0  0  0  0  0  0
   11.2433  -16.8641   19.5890 O   0  0  0  0  0  0  0  0  0  0  0  0
  2  1  1  0
  2  3  1  0
  3  4  1  6
  5  3  1  0
  5  6  1  1
  7  5  1  0
  7  8  2  0
  9 10  1  0
 10 11  2  0
 12 10  1  0
 12 13  1  0
 14 15  1  0
 14 13  1  0
 16 15  1  6
 16 18  1  0
 16 17  1  0
 17  7  1  0
 18 19  2  0
 21 20  1  0
 22 21  1  1
 23 22  1  0
 23 18  1  0
 24 22  1  0
 25 24  1  0
 26 24  2  0
M  END
$$$$
