IRS.pdb
     RDKit          3D

 26 25  0  0  1  0  0  0  0  0999 V2000
    6.4945  -11.9767   28.1495 C   0  0  0  0  0  0  0  0  0  0  0  0
    5.9861  -13.1880   27.3686 C   0  0  0  0  0  0  0  0  0  0  0  0
    7.0641  -13.6617   26.3893 C   0  0  2  0  0  0  0  0  0  0  0  0
    7.4367  -12.4877   25.5285 C   0  0  0  0  0  0  0  0  0  0  0  0
    6.4329  -14.7785   25.5942 C   0  0  2  0  0  0  0  0  0  0  0  0
    6.2256  -15.9009   26.4800 N   0  0  0  0  0  0  0  0  0  0  0  0
    7.1968  -15.1905   24.4184 C   0  0  0  0  0  0  0  0  0  0  0  0
    7.8818  -16.2450   24.3507 O   0  0  0  0  0  0  0  0  0  0  0  0
    7.5202  -15.8150   17.2987 N   0  0  0  0  0  0  0  0  0  0  0  0
    8.3395  -14.8521   16.6608 C   0  0  0  0  0  0  0  0  0  0  0  0
    8.8425  -15.1017   15.4989 N   0  0  0  0  0  0  0  0  0  0  0  0
    8.6432  -13.5872   17.2380 N   0  0  0  0  0  0  0  0  0  0  0  0
    8.1500  -13.1661   18.5437 C   0  0  0  0  0  0  0  0  0  0  0  0
    8.4137  -14.1740   19.5989 C   0  0  0  0  0  0  0  0  0  0  0  0
    7.6962  -13.8691   20.8704 C   0  0  0  0  0  0  0  0  0  0  0  0
    7.8584  -14.7762   22.0183 C   0  0  2  0  0  0  0  0  0  0  0  0
    7.1960  -14.3780   23.2520 N   0  0  0  0  0  0  0  0  0  0  0  0
    9.3436  -14.9156   22.3257 C   0  0  0  0  0  0  0  0  0  0  0  0
    9.9024  -14.2888   23.2353 O   0  0  0  0  0  0  0  0  0  0  0  0
    9.3412  -14.3977   14.9258 O   0  0  0  0  0  0  0  0  0  0  0  0
   10.6551  -17.9869   23.2633 C   0  0  0  0  0  0  0  0  0  0  0  0
   11.4203  -16.8293   23.3159 C   0  0  1  0  0  0  0  0  0  0  0  0
   11.4550  -16.1690   21.9681 N   0  0  0  0  0  0  0  0  0  0  0  0
   10.1012  -15.8016   21.5316 C   0  0  0  0  0  0  0  0  0  0  0  0
   12.1028  -17.0399   20.9531 O   0  0  0  0  0  0  0  0  0  0  0  0
   11.4216  -17.4490   19.8182 O   0  0  0  0  0  0  0  0  0  0  0  0
  2  1  1  0
  2  3  1  0
  3  4  1  6
  5  3  1  0
  5  6  1  1
  7  5  1  0
  7  8  2  0
  9 10  1  0
 10 11  2  0
 12 10  1  0
 12 13  1  0
 14 15  1  0
 14 13  1  0
 16 15  1  6
 16 18  1  0
 16 17  1  0
 17  7  1  0
 18 19  2  0
 21 20  1  0
 22 21  1  1
 23 22  1  0
 23 18  1  0
 24 22  1  0
 25 24  1  0
 26 24  2  0
M  END
$$$$
