IRS.pdb
     RDKit          3D

 26 25  0  0  1  0  0  0  0  0999 V2000
    5.1917  -11.5007   27.0718 C   0  0  0  0  0  0  0  0  0  0  0  0
    6.7081  -11.4437   26.8906 C   0  0  0  0  0  0  0  0  0  0  0  0
    7.2539  -12.8545   26.6518 C   0  0  2  0  0  0  0  0  0  0  0  0
    8.6754  -12.7136   26.1851 C   0  0  0  0  0  0  0  0  0  0  0  0
    6.3624  -13.4658   25.5987 C   0  0  2  0  0  0  0  0  0  0  0  0
    5.1537  -13.9254   26.2431 N   0  0  0  0  0  0  0  0  0  0  0  0
    6.9800  -14.5508   24.8389 C   0  0  0  0  0  0  0  0  0  0  0  0
    7.0733  -15.7388   25.2459 O   0  0  0  0  0  0  0  0  0  0  0  0
    8.6761  -12.6261   18.5509 N   0  0  0  0  0  0  0  0  0  0  0  0
    7.9443  -13.7593   18.1199 C   0  0  0  0  0  0  0  0  0  0  0  0
    6.9181  -13.6102   17.3520 N   0  0  0  0  0  0  0  0  0  0  0  0
    8.2880  -15.0905   18.4878 N   0  0  0  0  0  0  0  0  0  0  0  0
    9.5306  -15.4357   19.1675 C   0  0  0  0  0  0  0  0  0  0  0  0
    9.3012  -15.9329   20.5457 C   0  0  0  0  0  0  0  0  0  0  0  0
    8.5965  -14.9353   21.4016 C   0  0  0  0  0  0  0  0  0  0  0  0
    8.1979  -15.3183   22.7658 C   0  0  2  0  0  0  0  0  0  0  0  0
    7.5250  -14.2939   23.5513 N   0  0  0  0  0  0  0  0  0  0  0  0
    9.4409  -15.7389   23.5389 C   0  0  0  0  0  0  0  0  0  0  0  0
   10.3447  -14.9477   23.8383 O   0  0  0  0  0  0  0  0  0  0  0  0
    6.3459  -14.3980   16.9988 O   0  0  0  0  0  0  0  0  0  0  0  0
    9.5780  -19.5052   25.2530 C   0  0  0  0  0  0  0  0  0  0  0  0
   10.3696  -18.4834   25.7607 C   0  0  1  0  0  0  0  0  0  0  0  0
   10.7427  -17.5246   24.6675 N   0  0  0  0  0  0  0  0  0  0  0  0
    9.5520  -17.0913   23.9241 C   0  0  0  0  0  0  0  0  0  0  0  0
   11.7387  -18.1201   23.7392 O   0  0  0  0  0  0  0  0  0  0  0  0
   12.9693  -18.5641   24.1950 O   0  0  0  0  0  0  0  0  0  0  0  0
  2  1  1  0
  2  3  1  0
  3  4  1  6
  5  3  1  0
  5  6  1  1
  7  5  1  0
  7  8  2  0
  9 10  1  0
 10 11  2  0
 12 10  1  0
 12 13  1  0
 14 15  1  0
 14 13  1  0
 16 15  1  6
 16 18  1  0
 16 17  1  0
 17  7  1  0
 18 19  2  0
 21 20  1  0
 22 21  1  1
 23 22  1  0
 23 18  1  0
 24 22  1  0
 25 24  1  0
 26 24  2  0
M  END
$$$$
