IRS.pdb
     RDKit          3D

 26 25  0  0  1  0  0  0  0  0999 V2000
    6.5927  -10.9411   27.5559 C   0  0  0  0  0  0  0  0  0  0  0  0
    5.8312  -12.1273   26.9657 C   0  0  0  0  0  0  0  0  0  0  0  0
    6.8189  -13.1165   26.3401 C   0  0  2  0  0  0  0  0  0  0  0  0
    7.5966  -12.3727   25.2913 C   0  0  0  0  0  0  0  0  0  0  0  0
    5.9752  -14.2214   25.7526 C   0  0  2  0  0  0  0  0  0  0  0  0
    5.1489  -14.7656   26.8054 N   0  0  0  0  0  0  0  0  0  0  0  0
    6.7385  -15.2844   25.1019 C   0  0  0  0  0  0  0  0  0  0  0  0
    7.2253  -16.2784   25.7024 O   0  0  0  0  0  0  0  0  0  0  0  0
    8.4014  -12.9968   17.2299 N   0  0  0  0  0  0  0  0  0  0  0  0
    9.4950  -13.3394   18.0619 C   0  0  0  0  0  0  0  0  0  0  0  0
   10.4192  -12.4713   18.3020 N   0  0  0  0  0  0  0  0  0  0  0  0
    9.6350  -14.6175   18.6720 N   0  0  0  0  0  0  0  0  0  0  0  0
    8.5475  -15.2928   19.3697 C   0  0  0  0  0  0  0  0  0  0  0  0
    8.8194  -15.4529   20.8186 C   0  0  0  0  0  0  0  0  0  0  0  0
    7.7251  -16.1773   21.5273 C   0  0  0  0  0  0  0  0  0  0  0  0
    7.7476  -16.2453   22.9975 C   0  0  2  0  0  0  0  0  0  0  0  0
    6.9720  -15.2336   23.7005 N   0  0  0  0  0  0  0  0  0  0  0  0
    9.1898  -16.1211   23.4710 C   0  0  0  0  0  0  0  0  0  0  0  0
    9.7772  -15.0347   23.5558 O   0  0  0  0  0  0  0  0  0  0  0  0
   11.2589  -12.6701   18.8747 O   0  0  0  0  0  0  0  0  0  0  0  0
   10.8174  -18.9777   25.7863 C   0  0  0  0  0  0  0  0  0  0  0  0
   11.4219  -17.7331   25.6675 C   0  0  1  0  0  0  0  0  0  0  0  0
   11.2701  -17.2145   24.2669 N   0  0  0  0  0  0  0  0  0  0  0  0
    9.8718  -17.3038   23.8257 C   0  0  0  0  0  0  0  0  0  0  0  0
   12.1546  -17.9418   23.3196 O   0  0  0  0  0  0  0  0  0  0  0  0
   13.5221  -18.0173   23.5281 O   0  0  0  0  0  0  0  0  0  0  0  0
  2  1  1  0
  2  3  1  0
  3  4  1  6
  5  3  1  0
  5  6  1  1
  7  5  1  0
  7  8  2  0
  9 10  1  0
 10 11  2  0
 12 10  1  0
 12 13  1  0
 14 15  1  0
 14 13  1  0
 16 15  1  6
 16 18  1  0
 16 17  1  0
 17  7  1  0
 18 19  2  0
 21 20  1  0
 22 21  1  1
 23 22  1  0
 23 18  1  0
 24 22  1  0
 25 24  1  0
 26 24  2  0
M  END
$$$$
