IRS.pdb
     RDKit          3D

 26 25  0  0  1  0  0  0  0  0999 V2000
    5.6286  -11.1402   27.7938 C   0  0  0  0  0  0  0  0  0  0  0  0
    6.0261  -11.4195   26.3448 C   0  0  0  0  0  0  0  0  0  0  0  0
    6.6089  -12.8312   26.2312 C   0  0  2  0  0  0  0  0  0  0  0  0
    7.7387  -12.9318   27.2170 C   0  0  0  0  0  0  0  0  0  0  0  0
    7.0795  -12.9664   24.8036 C   0  0  2  0  0  0  0  0  0  0  0  0
    5.9657  -12.6708   23.9322 N   0  0  0  0  0  0  0  0  0  0  0  0
    7.6515  -14.2709   24.4763 C   0  0  0  0  0  0  0  0  0  0  0  0
    8.0153  -15.1210   25.3310 O   0  0  0  0  0  0  0  0  0  0  0  0
    7.2759  -13.4840   17.4424 N   0  0  0  0  0  0  0  0  0  0  0  0
    8.5287  -14.1208   17.6169 C   0  0  0  0  0  0  0  0  0  0  0  0
    9.5988  -13.5799   17.1397 N   0  0  0  0  0  0  0  0  0  0  0  0
    8.6826  -15.3524   18.3132 N   0  0  0  0  0  0  0  0  0  0  0  0
    7.5782  -16.0428   18.9683 C   0  0  0  0  0  0  0  0  0  0  0  0
    7.4067  -15.6217   20.3798 C   0  0  0  0  0  0  0  0  0  0  0  0
    8.4471  -16.2009   21.2778 C   0  0  0  0  0  0  0  0  0  0  0  0
    8.3689  -15.9400   22.7243 C   0  0  2  0  0  0  0  0  0  0  0  0
    7.8276  -14.6468   23.1167 N   0  0  0  0  0  0  0  0  0  0  0  0
    9.7681  -16.0445   23.3168 C   0  0  0  0  0  0  0  0  0  0  0  0
   10.6703  -15.2386   23.0536 O   0  0  0  0  0  0  0  0  0  0  0  0
   10.5308  -14.0309   17.1658 O   0  0  0  0  0  0  0  0  0  0  0  0
   10.5748  -19.3281   25.6232 C   0  0  0  0  0  0  0  0  0  0  0  0
   11.4306  -18.2576   25.8473 C   0  0  1  0  0  0  0  0  0  0  0  0
   11.4065  -17.3204   24.6749 N   0  0  0  0  0  0  0  0  0  0  0  0
   10.0315  -17.1101   24.2025 C   0  0  0  0  0  0  0  0  0  0  0  0
   12.2603  -17.8173   23.5646 O   0  0  0  0  0  0  0  0  0  0  0  0
   13.6156  -18.0403   23.7455 O   0  0  0  0  0  0  0  0  0  0  0  0
  2  1  1  0
  2  3  1  0
  3  4  1  1
  5  3  1  0
  5  6  1  6
  7  5  1  0
  7  8  2  0
  9 10  1  0
 10 11  2  0
 12 10  1  0
 12 13  1  0
 14 15  1  0
 14 13  1  0
 16 15  1  6
 16 18  1  0
 16 17  1  0
 17  7  1  0
 18 19  2  0
 21 20  1  0
 22 21  1  1
 23 22  1  0
 23 18  1  0
 24 22  1  0
 25 24  1  0
 26 24  2  0
M  END
$$$$
