IRS.pdb
     RDKit          3D

 26 25  0  0  1  0  0  0  0  0999 V2000
    7.1414  -10.5353   27.2208 C   0  0  0  0  0  0  0  0  0  0  0  0
    6.2537  -11.5947   26.5690 C   0  0  0  0  0  0  0  0  0  0  0  0
    7.1024  -12.8044   26.1665 C   0  0  2  0  0  0  0  0  0  0  0  0
    8.1689  -12.3133   25.2286 C   0  0  0  0  0  0  0  0  0  0  0  0
    6.1516  -13.7682   25.4997 C   0  0  2  0  0  0  0  0  0  0  0  0
    5.1103  -14.1002   26.4446 N   0  0  0  0  0  0  0  0  0  0  0  0
    6.7822  -14.9830   24.9873 C   0  0  0  0  0  0  0  0  0  0  0  0
    7.0820  -15.9800   25.6957 O   0  0  0  0  0  0  0  0  0  0  0  0
    9.7759  -19.8888   18.3831 N   0  0  0  0  0  0  0  0  0  0  0  0
    8.4215  -19.5816   18.1069 C   0  0  0  0  0  0  0  0  0  0  0  0
    7.7805  -20.2461   17.2053 N   0  0  0  0  0  0  0  0  0  0  0  0
    7.7031  -18.5598   18.7892 N   0  0  0  0  0  0  0  0  0  0  0  0
    8.3477  -17.4099   19.4116 C   0  0  0  0  0  0  0  0  0  0  0  0
    8.3762  -17.5106   20.8908 C   0  0  0  0  0  0  0  0  0  0  0  0
    7.7020  -16.3571   21.5537 C   0  0  0  0  0  0  0  0  0  0  0  0
    7.6803  -16.2901   23.0240 C   0  0  2  0  0  0  0  0  0  0  0  0
    7.0965  -15.0898   23.6051 N   0  0  0  0  0  0  0  0  0  0  0  0
    9.1096  -16.3944   23.5397 C   0  0  0  0  0  0  0  0  0  0  0  0
    9.8475  -15.4098   23.6759 O   0  0  0  0  0  0  0  0  0  0  0  0
    6.7842  -20.0849   16.9729 O   0  0  0  0  0  0  0  0  0  0  0  0
   11.7726  -18.1168   26.7842 C   0  0  0  0  0  0  0  0  0  0  0  0
   10.5966  -17.8398   26.0995 C   0  0  1  0  0  0  0  0  0  0  0  0
   10.8578  -17.7832   24.6223 N   0  0  0  0  0  0  0  0  0  0  0  0
    9.5987  -17.6747   23.8732 C   0  0  0  0  0  0  0  0  0  0  0  0
   11.6289  -18.9670   24.1612 O   0  0  0  0  0  0  0  0  0  0  0  0
   12.9199  -19.2007   24.6063 O   0  0  0  0  0  0  0  0  0  0  0  0
  2  1  1  0
  2  3  1  0
  3  4  1  6
  5  3  1  0
  5  6  1  1
  7  5  1  0
  7  8  2  0
  9 10  1  0
 10 11  2  0
 12 10  1  0
 12 13  1  0
 14 15  1  0
 14 13  1  0
 16 15  1  6
 16 18  1  0
 16 17  1  0
 17  7  1  0
 18 19  2  0
 21 20  1  0
 22 21  1  1
 23 22  1  0
 23 18  1  0
 24 22  1  0
 25 24  1  0
 26 24  2  0
M  END
$$$$
