IRS.pdb
     RDKit          3D

 26 25  0  0  1  0  0  0  0  0999 V2000
    6.4678  -10.8065   27.3369 C   0  0  0  0  0  0  0  0  0  0  0  0
    5.9024  -12.1267   26.8144 C   0  0  0  0  0  0  0  0  0  0  0  0
    7.0341  -12.9812   26.2357 C   0  0  2  0  0  0  0  0  0  0  0  0
    7.6645  -12.1963   25.1201 C   0  0  0  0  0  0  0  0  0  0  0  0
    6.3799  -14.2500   25.7461 C   0  0  2  0  0  0  0  0  0  0  0  0
    5.6032  -14.8041   26.8310 N   0  0  0  0  0  0  0  0  0  0  0  0
    7.3111  -15.2478   25.2234 C   0  0  0  0  0  0  0  0  0  0  0  0
    8.1142  -15.9094   25.9326 O   0  0  0  0  0  0  0  0  0  0  0  0
    9.8699  -13.5381   18.7822 N   0  0  0  0  0  0  0  0  0  0  0  0
    8.5417  -13.1335   19.0609 C   0  0  0  0  0  0  0  0  0  0  0  0
    8.2065  -11.8933   18.9391 N   0  0  0  0  0  0  0  0  0  0  0  0
    7.5245  -14.0403   19.4714 N   0  0  0  0  0  0  0  0  0  0  0  0
    7.7663  -15.4587   19.7059 C   0  0  0  0  0  0  0  0  0  0  0  0
    8.6533  -15.6954   20.8706 C   0  0  0  0  0  0  0  0  0  0  0  0
    8.1132  -16.7321   21.7969 C   0  0  0  0  0  0  0  0  0  0  0  0
    8.2300  -16.5240   23.2493 C   0  0  2  0  0  0  0  0  0  0  0  0
    7.3477  -15.5216   23.8289 N   0  0  0  0  0  0  0  0  0  0  0  0
    9.6599  -16.1096   23.5708 C   0  0  0  0  0  0  0  0  0  0  0  0
    9.9415  -15.0291   24.1055 O   0  0  0  0  0  0  0  0  0  0  0  0
    7.2518  -11.5359   19.1221 O   0  0  0  0  0  0  0  0  0  0  0  0
   12.1354  -18.1142   26.4231 C   0  0  0  0  0  0  0  0  0  0  0  0
   11.1380  -17.8362   25.4977 C   0  0  1  0  0  0  0  0  0  0  0  0
   11.7394  -17.2887   24.2358 N   0  0  0  0  0  0  0  0  0  0  0  0
   10.6969  -17.0067   23.2400 C   0  0  0  0  0  0  0  0  0  0  0  0
   12.7523  -18.2172   23.6696 O   0  0  0  0  0  0  0  0  0  0  0  0
   14.0791  -18.1595   24.0641 O   0  0  0  0  0  0  0  0  0  0  0  0
  2  1  1  0
  2  3  1  0
  3  4  1  6
  5  3  1  0
  5  6  1  1
  7  5  1  0
  7  8  2  0
  9 10  1  0
 10 11  2  0
 12 10  1  0
 12 13  1  0
 14 15  1  0
 14 13  1  0
 16 15  1  6
 16 18  1  0
 16 17  1  0
 17  7  1  0
 18 19  2  0
 21 20  1  0
 22 21  1  1
 23 22  1  0
 23 18  1  0
 24 22  1  0
 25 24  1  0
 26 24  2  0
M  END
$$$$
