IRS.pdb
     RDKit          3D

 26 25  0  0  1  0  0  0  0  0999 V2000
    6.8195  -11.8982   28.2357 C   0  0  0  0  0  0  0  0  0  0  0  0
    6.0665  -12.8510   27.3081 C   0  0  0  0  0  0  0  0  0  0  0  0
    7.0617  -13.5982   26.4155 C   0  0  2  0  0  0  0  0  0  0  0  0
    7.8621  -12.5661   25.6724 C   0  0  0  0  0  0  0  0  0  0  0  0
    6.2247  -14.4492   25.4919 C   0  0  2  0  0  0  0  0  0  0  0  0
    5.6172  -15.5005   26.2749 N   0  0  0  0  0  0  0  0  0  0  0  0
    6.9570  -15.0138   24.3602 C   0  0  0  0  0  0  0  0  0  0  0  0
    7.4271  -16.1817   24.3304 O   0  0  0  0  0  0  0  0  0  0  0  0
    8.2267  -12.8377   16.7451 N   0  0  0  0  0  0  0  0  0  0  0  0
    8.1756  -14.2504   16.6621 C   0  0  0  0  0  0  0  0  0  0  0  0
    8.8277  -14.8657   15.7339 N   0  0  0  0  0  0  0  0  0  0  0  0
    7.4330  -15.0546   17.5717 N   0  0  0  0  0  0  0  0  0  0  0  0
    7.9280  -15.4348   18.8891 C   0  0  0  0  0  0  0  0  0  0  0  0
    8.5650  -14.3011   19.6019 C   0  0  0  0  0  0  0  0  0  0  0  0
    7.7994  -13.8868   20.8130 C   0  0  0  0  0  0  0  0  0  0  0  0
    7.7974  -14.7665   21.9932 C   0  0  2  0  0  0  0  0  0  0  0  0
    7.1774  -14.2289   23.1956 N   0  0  0  0  0  0  0  0  0  0  0  0
    9.2372  -15.1181   22.3439 C   0  0  0  0  0  0  0  0  0  0  0  0
   10.0295  -14.2988   22.8271 O   0  0  0  0  0  0  0  0  0  0  0  0
    8.8959  -15.8970   15.6673 O   0  0  0  0  0  0  0  0  0  0  0  0
   10.4444  -19.0194   21.8579 C   0  0  0  0  0  0  0  0  0  0  0  0
   11.1747  -18.2528   22.7565 C   0  0  1  0  0  0  0  0  0  0  0  0
   11.0630  -16.7972   22.4067 N   0  0  0  0  0  0  0  0  0  0  0  0
    9.6713  -16.4384   22.1028 C   0  0  0  0  0  0  0  0  0  0  0  0
   11.9453  -16.4440   21.2641 O   0  0  0  0  0  0  0  0  0  0  0  0
   13.3223  -16.5651   21.3561 O   0  0  0  0  0  0  0  0  0  0  0  0
  2  1  1  0
  2  3  1  0
  3  4  1  6
  5  3  1  0
  5  6  1  1
  7  5  1  0
  7  8  2  0
  9 10  1  0
 10 11  2  0
 12 10  1  0
 12 13  1  0
 14 15  1  0
 14 13  1  0
 16 15  1  6
 16 18  1  0
 16 17  1  0
 17  7  1  0
 18 19  2  0
 21 20  1  0
 22 21  1  1
 23 22  1  0
 23 18  1  0
 24 22  1  0
 25 24  1  0
 26 24  2  0
M  END
$$$$
