IRS.pdb
     RDKit          3D

 26 25  0  0  1  0  0  0  0  0999 V2000
    6.5356  -11.4445   27.8072 C   0  0  0  0  0  0  0  0  0  0  0  0
    6.0489  -12.8216   27.3574 C   0  0  0  0  0  0  0  0  0  0  0  0
    7.0918  -13.4640   26.4381 C   0  0  2  0  0  0  0  0  0  0  0  0
    7.3229  -12.5202   25.2918 C   0  0  0  0  0  0  0  0  0  0  0  0
    6.4913  -14.7742   25.9902 C   0  0  2  0  0  0  0  0  0  0  0  0
    6.3165  -15.6111   27.1549 N   0  0  0  0  0  0  0  0  0  0  0  0
    7.2654  -15.4765   24.9686 C   0  0  0  0  0  0  0  0  0  0  0  0
    8.0933  -16.3938   25.2111 O   0  0  0  0  0  0  0  0  0  0  0  0
    9.7741  -14.4576   17.1982 N   0  0  0  0  0  0  0  0  0  0  0  0
    8.7790  -13.7324   17.8975 C   0  0  0  0  0  0  0  0  0  0  0  0
    8.9017  -12.4576   18.0559 N   0  0  0  0  0  0  0  0  0  0  0  0
    7.6153  -14.3423   18.4447 N   0  0  0  0  0  0  0  0  0  0  0  0
    7.5104  -15.7730   18.7041 C   0  0  0  0  0  0  0  0  0  0  0  0
    8.0948  -16.1540   20.0127 C   0  0  0  0  0  0  0  0  0  0  0  0
    7.4360  -15.4578   21.1555 C   0  0  0  0  0  0  0  0  0  0  0  0
    7.8157  -15.8228   22.5300 C   0  0  2  0  0  0  0  0  0  0  0  0
    7.1061  -15.1339   23.5982 N   0  0  0  0  0  0  0  0  0  0  0  0
    9.3009  -15.5427   22.7181 C   0  0  0  0  0  0  0  0  0  0  0  0
    9.7500  -14.4056   22.9125 O   0  0  0  0  0  0  0  0  0  0  0  0
    8.2306  -11.8782   18.5912 O   0  0  0  0  0  0  0  0  0  0  0  0
   11.7354  -18.5358   23.8798 C   0  0  0  0  0  0  0  0  0  0  0  0
   12.1533  -17.2172   24.0041 C   0  0  1  0  0  0  0  0  0  0  0  0
   11.6261  -16.3965   22.8630 N   0  0  0  0  0  0  0  0  0  0  0  0
   10.1901  -16.6364   22.6669 C   0  0  0  0  0  0  0  0  0  0  0  0
   12.3690  -16.6735   21.6060 O   0  0  0  0  0  0  0  0  0  0  0  0
   13.7399  -16.4900   21.5270 O   0  0  0  0  0  0  0  0  0  0  0  0
  2  1  1  0
  2  3  1  0
  3  4  1  6
  5  3  1  0
  5  6  1  1
  7  5  1  0
  7  8  2  0
  9 10  1  0
 10 11  2  0
 12 10  1  0
 12 13  1  0
 14 15  1  0
 14 13  1  0
 16 15  1  6
 16 18  1  0
 16 17  1  0
 17  7  1  0
 18 19  2  0
 21 20  1  0
 22 21  1  1
 23 22  1  0
 23 18  1  0
 24 22  1  0
 25 24  1  0
 26 24  2  0
M  END
$$$$
