IRS.pdb
     RDKit          3D

 26 25  0  0  1  0  0  0  0  0999 V2000
    5.8698  -11.6819   27.7211 C   0  0  0  0  0  0  0  0  0  0  0  0
    5.5186  -12.9686   26.9751 C   0  0  0  0  0  0  0  0  0  0  0  0
    6.7455  -13.4747   26.2108 C   0  0  2  0  0  0  0  0  0  0  0  0
    7.1878  -12.3725   25.2901 C   0  0  0  0  0  0  0  0  0  0  0  0
    6.2834  -14.6992   25.4593 C   0  0  2  0  0  0  0  0  0  0  0  0
    6.0682  -15.7604   26.4158 N   0  0  0  0  0  0  0  0  0  0  0  0
    7.1932  -15.1401   24.4038 C   0  0  0  0  0  0  0  0  0  0  0  0
    7.9882  -16.1106   24.5117 O   0  0  0  0  0  0  0  0  0  0  0  0
    7.1442  -13.7857   16.2082 N   0  0  0  0  0  0  0  0  0  0  0  0
    8.3734  -14.2057   16.7721 C   0  0  0  0  0  0  0  0  0  0  0  0
    9.4161  -13.4510   16.6805 N   0  0  0  0  0  0  0  0  0  0  0  0
    8.5291  -15.4420   17.4597 N   0  0  0  0  0  0  0  0  0  0  0  0
    8.3187  -15.5897   18.8947 C   0  0  0  0  0  0  0  0  0  0  0  0
    8.8462  -14.4371   19.6644 C   0  0  0  0  0  0  0  0  0  0  0  0
    7.9751  -14.0770   20.8203 C   0  0  0  0  0  0  0  0  0  0  0  0
    7.9774  -14.9392   22.0133 C   0  0  2  0  0  0  0  0  0  0  0  0
    7.2165  -14.4575   23.1571 N   0  0  0  0  0  0  0  0  0  0  0  0
    9.4160  -15.1324   22.4746 C   0  0  0  0  0  0  0  0  0  0  0  0
   10.0903  -14.2199   22.9698 O   0  0  0  0  0  0  0  0  0  0  0  0
   10.3570  -13.7290   17.0123 O   0  0  0  0  0  0  0  0  0  0  0  0
   11.3790  -17.8273   24.7935 C   0  0  0  0  0  0  0  0  0  0  0  0
   11.5374  -17.9575   23.4200 C   0  0  2  0  0  0  0  0  0  0  0  0
   11.3805  -16.6227   22.7512 N   0  0  0  0  0  0  0  0  0  0  0  0
    9.9903  -16.4120   22.3256 C   0  0  0  0  0  0  0  0  0  0  0  0
   12.2988  -16.4853   21.5908 O   0  0  0  0  0  0  0  0  0  0  0  0
   11.8124  -16.2661   20.3123 O   0  0  0  0  0  0  0  0  0  0  0  0
  2  1  1  0
  2  3  1  0
  3  4  1  6
  5  3  1  0
  5  6  1  1
  7  5  1  0
  7  8  2  0
  9 10  1  0
 10 11  2  0
 12 10  1  0
 12 13  1  0
 14 15  1  0
 14 13  1  0
 16 15  1  6
 16 18  1  0
 16 17  1  0
 17  7  1  0
 18 19  2  0
 21 20  1  0
 22 21  1  1
 23 22  1  0
 23 18  1  0
 24 22  1  0
 25 24  1  0
 26 24  2  0
M  END
$$$$
