WAS.pdb
     RDKit          3D

 26 27  0  0  1  0  0  0  0  0999 V2000
   26.4403  -22.4516  -12.3891 N   0  0  0  0  0  0  0  0  0  0  0  0
   25.7939  -21.4339  -11.5951 C   0  0  1  0  0  0  0  0  0  0  0  0
   26.6339  -20.1813  -11.4202 C   0  0  0  0  0  0  0  0  0  0  0  0
   27.7578  -20.3442  -10.4863 C   0  0  0  0  0  0  0  0  0  0  0  0
   29.0589  -20.6575  -10.8086 C   0  0  0  0  0  0  0  0  0  0  0  0
   29.8073  -20.7450   -9.6959 N   0  0  0  0  0  0  0  0  0  0  0  0
   29.0170  -20.4922   -8.6321 C   0  0  0  0  0  0  0  0  0  0  0  0
   29.3400  -20.4629   -7.2877 C   0  0  0  0  0  0  0  0  0  0  0  0
   28.3215  -20.1647   -6.3902 C   0  0  0  0  0  0  0  0  0  0  0  0
   27.0463  -19.9113   -6.8466 C   0  0  0  0  0  0  0  0  0  0  0  0
   26.7492  -19.9465   -8.1897 C   0  0  0  0  0  0  0  0  0  0  0  0
   27.7438  -20.2406   -9.0943 C   0  0  0  0  0  0  0  0  0  0  0  0
   24.4891  -21.1165  -12.1973 C   0  0  0  0  0  0  0  0  0  0  0  0
   24.3794  -21.1349  -13.4493 O   0  0  0  0  0  0  0  0  0  0  0  0
   21.1022  -20.1110  -10.9809 C   0  0  0  0  0  0  0  0  0  0  0  0
   22.0930  -20.5873  -12.0486 C   0  0  2  0  0  0  0  0  0  0  0  0
   23.3386  -20.7878  -11.3910 N   0  0  0  0  0  0  0  0  0  0  0  0
   22.1243  -19.5834  -13.1308 C   0  0  0  0  0  0  0  0  0  0  0  0
   22.7089  -18.4840  -13.0912 O   0  0  0  0  0  0  0  0  0  0  0  0
   21.1887  -18.9403  -17.8313 O   0  0  0  0  0  0  0  0  0  0  0  0
   21.3109  -19.7691  -16.7093 C   0  0  0  0  0  0  0  0  0  0  0  0
   21.3481  -18.9258  -15.4289 C   0  0  2  0  0  0  0  0  0  0  0  0
   21.4251  -19.8876  -14.3374 N   0  0  0  0  0  0  0  0  0  0  0  0
   20.0854  -18.1667  -15.3768 C   0  0  0  0  0  0  0  0  0  0  0  0
   19.8687  -16.9683  -15.9981 O   0  0  0  0  0  0  0  0  0  0  0  0
   19.1262  -18.6675  -14.7015 O   0  0  0  0  0  0  0  0  0  0  0  0
  2  1  1  6
  3  2  1  0
  3  4  1  0
  4 12  1  0
  5  4  2  0
  5  6  1  0
  6  7  1  0
  7  8  1  0
  8  9  2  0
 10  9  1  0
 11 10  2  0
 12  7  2  0
 12 11  1  0
 13  2  1  0
 13 14  2  0
 16 15  1  1
 16 18  1  0
 16 17  1  0
 17 13  1  0
 18 23  1  0
 19 18  2  0
 21 20  1  0
 22 21  1  6
 22 24  1  0
 23 22  1  0
 24 26  2  0
 24 25  1  0
M  END
$$$$
