WAS.pdb
     RDKit          3D

 26 27  0  0  1  0  0  0  0  0999 V2000
   24.6880  -21.5998  -15.3622 N   0  0  0  0  0  0  0  0  0  0  0  0
   25.2202  -20.4675  -14.6419 C   0  0  1  0  0  0  0  0  0  0  0  0
   24.1814  -19.4019  -14.3409 C   0  0  0  0  0  0  0  0  0  0  0  0
   23.5667  -18.8145  -15.5404 C   0  0  0  0  0  0  0  0  0  0  0  0
   24.1736  -17.9845  -16.4557 C   0  0  0  0  0  0  0  0  0  0  0  0
   23.2997  -17.6253  -17.4114 N   0  0  0  0  0  0  0  0  0  0  0  0
   22.1134  -18.2089  -17.1426 C   0  0  0  0  0  0  0  0  0  0  0  0
   20.9230  -18.1374  -17.8427 C   0  0  0  0  0  0  0  0  0  0  0  0
   19.8410  -18.8520  -17.3421 C   0  0  0  0  0  0  0  0  0  0  0  0
   19.9741  -19.5965  -16.1903 C   0  0  0  0  0  0  0  0  0  0  0  0
   21.1693  -19.6520  -15.5109 C   0  0  0  0  0  0  0  0  0  0  0  0
   22.2522  -18.9508  -15.9900 C   0  0  0  0  0  0  0  0  0  0  0  0
   25.8606  -20.9466  -13.4066 C   0  0  0  0  0  0  0  0  0  0  0  0
   25.1533  -21.5226  -12.5418 O   0  0  0  0  0  0  0  0  0  0  0  0
   29.2681  -20.7233  -11.8833 C   0  0  0  0  0  0  0  0  0  0  0  0
   27.7576  -20.9785  -11.8432 C   0  0  2  0  0  0  0  0  0  0  0  0
   27.2726  -20.7739  -13.1650 N   0  0  0  0  0  0  0  0  0  0  0  0
   27.1650  -20.0870  -10.8266 C   0  0  0  0  0  0  0  0  0  0  0  0
   26.8434  -18.8955  -10.9975 O   0  0  0  0  0  0  0  0  0  0  0  0
   25.4023  -21.8070   -7.7540 O   0  0  0  0  0  0  0  0  0  0  0  0
   25.2315  -20.4227   -7.8787 C   0  0  0  0  0  0  0  0  0  0  0  0
   26.5134  -19.7771   -8.4192 C   0  0  2  0  0  0  0  0  0  0  0  0
   26.9345  -20.6264   -9.5253 N   0  0  0  0  0  0  0  0  0  0  0  0
   27.5022  -19.8033   -7.3261 C   0  0  0  0  0  0  0  0  0  0  0  0
   27.4228  -19.0569   -6.1834 O   0  0  0  0  0  0  0  0  0  0  0  0
   28.5048  -20.5806   -7.4591 O   0  0  0  0  0  0  0  0  0  0  0  0
  2  1  1  1
  3  2  1  0
  3  4  1  0
  4 12  1  0
  5  4  2  0
  5  6  1  0
  6  7  1  0
  7  8  1  0
  8  9  2  0
 10  9  1  0
 11 10  2  0
 12  7  2  0
 12 11  1  0
 13  2  1  0
 13 14  2  0
 16 15  1  6
 16 18  1  0
 16 17  1  0
 17 13  1  0
 18 23  1  0
 19 18  2  0
 21 20  1  0
 22 21  1  1
 22 24  1  0
 23 22  1  0
 24 26  2  0
 24 25  1  0
M  END
$$$$
