WAS.pdb
     RDKit          3D

 26 27  0  0  1  0  0  0  0  0999 V2000
   27.4327  -21.5692  -12.9188 N   0  0  0  0  0  0  0  0  0  0  0  0
   26.0024  -21.4727  -12.7489 C   0  0  1  0  0  0  0  0  0  0  0  0
   25.5235  -20.0617  -12.4570 C   0  0  0  0  0  0  0  0  0  0  0  0
   26.0596  -19.4977  -11.2095 C   0  0  0  0  0  0  0  0  0  0  0  0
   26.7676  -18.3251  -11.0721 C   0  0  0  0  0  0  0  0  0  0  0  0
   27.1154  -18.1377   -9.7876 N   0  0  0  0  0  0  0  0  0  0  0  0
   26.6450  -19.1753   -9.0650 C   0  0  0  0  0  0  0  0  0  0  0  0
   26.7505  -19.4171   -7.7074 C   0  0  0  0  0  0  0  0  0  0  0  0
   26.1603  -20.5750   -7.2149 C   0  0  0  0  0  0  0  0  0  0  0  0
   25.5003  -21.4340   -8.0665 C   0  0  0  0  0  0  0  0  0  0  0  0
   25.4088  -21.1719   -9.4142 C   0  0  0  0  0  0  0  0  0  0  0  0
   25.9874  -20.0308   -9.9215 C   0  0  0  0  0  0  0  0  0  0  0  0
   25.3423  -22.0189  -13.9455 C   0  0  0  0  0  0  0  0  0  0  0  0
   25.8756  -21.8349  -15.0686 O   0  0  0  0  0  0  0  0  0  0  0  0
   22.4592  -24.2623  -14.6696 C   0  0  0  0  0  0  0  0  0  0  0  0
   23.5297  -23.2414  -15.0696 C   0  0  2  0  0  0  0  0  0  0  0  0
   24.1056  -22.7575  -13.8620 N   0  0  0  0  0  0  0  0  0  0  0  0
   22.8907  -22.2045  -15.9041 C   0  0  0  0  0  0  0  0  0  0  0  0
   22.4586  -21.1071  -15.5027 O   0  0  0  0  0  0  0  0  0  0  0  0
   22.0303  -23.5058  -19.5259 O   0  0  0  0  0  0  0  0  0  0  0  0
   22.2318  -22.1217  -19.5935 C   0  0  0  0  0  0  0  0  0  0  0  0
   22.1299  -21.5023  -18.1941 C   0  0  2  0  0  0  0  0  0  0  0  0
   22.7487  -22.4710  -17.2991 N   0  0  0  0  0  0  0  0  0  0  0  0
   20.6946  -21.3477  -17.8955 C   0  0  0  0  0  0  0  0  0  0  0  0
   19.9472  -20.2452  -18.2039 O   0  0  0  0  0  0  0  0  0  0  0  0
   20.1096  -22.3157  -17.3057 O   0  0  0  0  0  0  0  0  0  0  0  0
  2  1  1  6
  3  2  1  0
  3  4  1  0
  4 12  1  0
  5  4  2  0
  5  6  1  0
  6  7  1  0
  7  8  1  0
  8  9  2  0
 10  9  1  0
 11 10  2  0
 12  7  2  0
 12 11  1  0
 13  2  1  0
 13 14  2  0
 16 15  1  1
 16 18  1  0
 16 17  1  0
 17 13  1  0
 18 23  1  0
 19 18  2  0
 21 20  1  0
 22 21  1  6
 22 24  1  0
 23 22  1  0
 24 26  2  0
 24 25  1  0
M  END
$$$$
