WAS.pdb
     RDKit          3D

 26 27  0  0  1  0  0  0  0  0999 V2000
  -61.4138   29.1885   19.7566 N   0  0  0  0  0  0  0  0  0  0  0  0
  -61.6665   28.6162   21.0577 C   0  0  1  0  0  0  0  0  0  0  0  0
  -60.7289   29.1310   22.1353 C   0  0  0  0  0  0  0  0  0  0  0  0
  -59.5428   28.2878   22.3446 C   0  0  0  0  0  0  0  0  0  0  0  0
  -59.2698   27.5073   23.4452 C   0  0  0  0  0  0  0  0  0  0  0  0
  -58.0843   26.8916   23.2982 N   0  0  0  0  0  0  0  0  0  0  0  0
  -57.5628   27.2538   22.1079 C   0  0  0  0  0  0  0  0  0  0  0  0
  -56.3692   26.8736   21.5219 C   0  0  0  0  0  0  0  0  0  0  0  0
  -56.0750   27.3975   20.2686 C   0  0  0  0  0  0  0  0  0  0  0  0
  -56.9552   28.2607   19.6531 C   0  0  0  0  0  0  0  0  0  0  0  0
  -58.1371   28.6244   20.2564 C   0  0  0  0  0  0  0  0  0  0  0  0
  -58.4463   28.1171   21.4979 C   0  0  0  0  0  0  0  0  0  0  0  0
  -63.0724   28.8572   21.4197 C   0  0  0  0  0  0  0  0  0  0  0  0
  -63.8345   27.8705   21.5789 O   0  0  0  0  0  0  0  0  0  0  0  0
  -65.5051   31.5554   21.2579 C   0  0  0  0  0  0  0  0  0  0  0  0
  -64.4118   30.7339   20.5665 C   0  0  2  0  0  0  0  0  0  0  0  0
  -63.5947   30.1905   21.5968 N   0  0  0  0  0  0  0  0  0  0  0  0
  -63.7008   31.6151   19.6191 C   0  0  0  0  0  0  0  0  0  0  0  0
  -62.5259   32.0136   19.7325 O   0  0  0  0  0  0  0  0  0  0  0  0
  -66.4379   32.8585   20.8071 O   0  0  0  0  0  0  0  0  0  0  0  0
  -66.3112   31.8206   19.8756 C   0  0  0  0  0  0  0  0  0  0  0  0
  -65.8335   32.3739   18.5273 C   0  0  2  0  0  0  0  0  0  0  0  0
  -64.4128   32.0582   18.4641 N   0  0  0  0  0  0  0  0  0  0  0  0
  -66.0505   33.8316   18.5591 C   0  0  0  0  0  0  0  0  0  0  0  0
  -67.1267   34.4730   18.0116 O   0  0  0  0  0  0  0  0  0  0  0  0
  -65.1674   34.5446   19.1411 O   0  0  0  0  0  0  0  0  0  0  0  0
  2  1  1  6
  3  2  1  0
  3  4  1  0
  4 12  1  0
  5  4  2  0
  5  6  1  0
  6  7  1  0
  7  8  1  0
  8  9  2  0
 10  9  1  0
 11 10  2  0
 12  7  2  0
 12 11  1  0
 13  2  1  0
 13 14  2  0
 16 15  1  1
 16 18  1  0
 16 17  1  0
 17 13  1  0
 18 23  1  0
 19 18  2  0
 21 20  1  0
 22 21  1  1
 22 24  1  0
 23 22  1  0
 24 26  2  0
 24 25  1  0
M  END
$$$$
