WAS.pdb
     RDKit          3D

 26 27  0  0  1  0  0  0  0  0999 V2000
   26.6450  -21.7321  -10.6648 N   0  0  0  0  0  0  0  0  0  0  0  0
   25.9131  -20.7026   -9.9659 C   0  0  1  0  0  0  0  0  0  0  0  0
   26.8071  -19.6525   -9.3309 C   0  0  0  0  0  0  0  0  0  0  0  0
   27.8905  -20.2115   -8.5090 C   0  0  0  0  0  0  0  0  0  0  0  0
   28.8380  -21.1277   -8.9063 C   0  0  0  0  0  0  0  0  0  0  0  0
   29.6568  -21.4258   -7.8832 N   0  0  0  0  0  0  0  0  0  0  0  0
   29.2647  -20.7157   -6.8052 C   0  0  0  0  0  0  0  0  0  0  0  0
   29.8026  -20.6872   -5.5315 C   0  0  0  0  0  0  0  0  0  0  0  0
   29.2000  -19.8503   -4.5998 C   0  0  0  0  0  0  0  0  0  0  0  0
   28.1092  -19.0872   -4.9553 C   0  0  0  0  0  0  0  0  0  0  0  0
   27.5916  -19.1328   -6.2294 C   0  0  0  0  0  0  0  0  0  0  0  0
   28.1736  -19.9559   -7.1663 C   0  0  0  0  0  0  0  0  0  0  0  0
   24.9510  -20.0877  -10.8944 C   0  0  0  0  0  0  0  0  0  0  0  0
   24.1455  -19.2304  -10.4519 O   0  0  0  0  0  0  0  0  0  0  0  0
   24.4064  -20.0489  -14.5772 C   0  0  0  0  0  0  0  0  0  0  0  0
   23.9889  -19.7557  -13.1322 C   0  0  2  0  0  0  0  0  0  0  0  0
   24.9104  -20.4414  -12.2926 N   0  0  0  0  0  0  0  0  0  0  0  0
   22.5813  -20.1681  -12.9650 C   0  0  0  0  0  0  0  0  0  0  0  0
   21.7068  -19.5442  -12.3341 O   0  0  0  0  0  0  0  0  0  0  0  0
   21.8465  -23.9223  -14.1353 O   0  0  0  0  0  0  0  0  0  0  0  0
   20.7319  -23.1082  -14.3713 C   0  0  0  0  0  0  0  0  0  0  0  0
   20.7939  -21.8557  -13.4882 C   0  0  2  0  0  0  0  0  0  0  0  0
   22.1718  -21.3911  -13.5766 N   0  0  0  0  0  0  0  0  0  0  0  0
   20.4659  -22.2806  -12.1153 C   0  0  0  0  0  0  0  0  0  0  0  0
   19.2137  -22.6134  -11.6791 O   0  0  0  0  0  0  0  0  0  0  0  0
   21.4232  -22.3413  -11.2744 O   0  0  0  0  0  0  0  0  0  0  0  0
  2  1  1  6
  3  2  1  0
  3  4  1  0
  4 12  1  0
  5  4  2  0
  5  6  1  0
  6  7  1  0
  7  8  1  0
  8  9  2  0
 10  9  1  0
 11 10  2  0
 12  7  2  0
 12 11  1  0
 13  2  1  0
 13 14  2  0
 16 15  1  6
 16 18  1  0
 16 17  1  0
 17 13  1  0
 18 23  1  0
 19 18  2  0
 21 20  1  0
 22 21  1  6
 22 24  1  0
 23 22  1  0
 24 26  2  0
 24 25  1  0
M  END
$$$$
