WAS.pdb
     RDKit          3D

 26 27  0  0  1  0  0  0  0  0999 V2000
   24.9733  -17.4702  -17.6841 N   0  0  0  0  0  0  0  0  0  0  0  0
   25.4891  -17.2357  -16.3564 C   0  0  1  0  0  0  0  0  0  0  0  0
   24.6125  -16.3186  -15.5222 C   0  0  0  0  0  0  0  0  0  0  0  0
   24.7451  -14.8949  -15.8650 C   0  0  0  0  0  0  0  0  0  0  0  0
   23.7518  -14.0628  -16.3299 C   0  0  0  0  0  0  0  0  0  0  0  0
   24.2421  -12.8324  -16.5569 N   0  0  0  0  0  0  0  0  0  0  0  0
   25.5551  -12.8349  -16.2469 C   0  0  0  0  0  0  0  0  0  0  0  0
   26.4731  -11.8028  -16.3126 C   0  0  0  0  0  0  0  0  0  0  0  0
   27.7779  -12.0796  -15.9218 C   0  0  0  0  0  0  0  0  0  0  0  0
   28.1197  -13.3422  -15.4888 C   0  0  0  0  0  0  0  0  0  0  0  0
   27.1883  -14.3534  -15.4323 C   0  0  0  0  0  0  0  0  0  0  0  0
   25.8911  -14.0996  -15.8157 C   0  0  0  0  0  0  0  0  0  0  0  0
   25.6884  -18.5308  -15.6867 C   0  0  0  0  0  0  0  0  0  0  0  0
   24.9045  -19.4768  -15.9518 O   0  0  0  0  0  0  0  0  0  0  0  0
   28.0420  -19.9399  -13.1464 C   0  0  0  0  0  0  0  0  0  0  0  0
   26.7812  -19.9668  -14.0171 C   0  0  2  0  0  0  0  0  0  0  0  0
   26.7562  -18.7413  -14.7394 N   0  0  0  0  0  0  0  0  0  0  0  0
   25.6162  -20.1849  -13.1369 C   0  0  0  0  0  0  0  0  0  0  0  0
   25.0590  -19.3202  -12.4341 O   0  0  0  0  0  0  0  0  0  0  0  0
   24.6660  -24.0667  -12.5014 O   0  0  0  0  0  0  0  0  0  0  0  0
   23.5324  -23.2492  -12.5870 C   0  0  0  0  0  0  0  0  0  0  0  0
   23.9000  -21.7970  -12.2581 C   0  0  2  0  0  0  0  0  0  0  0  0
   25.0685  -21.5017  -13.0763 N   0  0  0  0  0  0  0  0  0  0  0  0
   24.2342  -21.7522  -10.8230 C   0  0  0  0  0  0  0  0  0  0  0  0
   23.3212  -21.8046   -9.8067 O   0  0  0  0  0  0  0  0  0  0  0  0
   25.4669  -21.6576  -10.5093 O   0  0  0  0  0  0  0  0  0  0  0  0
  2  1  1  6
  3  2  1  0
  3  4  1  0
  4 12  1  0
  5  4  2  0
  5  6  1  0
  6  7  1  0
  7  8  1  0
  8  9  2  0
 10  9  1  0
 11 10  2  0
 12  7  2  0
 12 11  1  0
 13  2  1  0
 13 14  2  0
 16 15  1  1
 16 18  1  0
 16 17  1  0
 17 13  1  0
 18 23  1  0
 19 18  2  0
 21 20  1  0
 22 21  1  6
 22 24  1  0
 23 22  1  0
 24 26  2  0
 24 25  1  0
M  END
$$$$
