WAS.pdb
     RDKit          3D

 26 27  0  0  1  0  0  0  0  0999 V2000
   24.5933  -19.2890  -11.8221 N   0  0  0  0  0  0  0  0  0  0  0  0
   25.8445  -20.0041  -11.9048 C   0  0  1  0  0  0  0  0  0  0  0  0
   25.9652  -21.1277  -10.8908 C   0  0  0  0  0  0  0  0  0  0  0  0
   26.0465  -20.6655   -9.4973 C   0  0  0  0  0  0  0  0  0  0  0  0
   24.9914  -20.3814   -8.6600 C   0  0  0  0  0  0  0  0  0  0  0  0
   25.4431  -19.9640   -7.4652 N   0  0  0  0  0  0  0  0  0  0  0  0
   26.7919  -19.9673   -7.4967 C   0  0  0  0  0  0  0  0  0  0  0  0
   27.6925  -19.6233   -6.5053 C   0  0  0  0  0  0  0  0  0  0  0  0
   29.0458  -19.7260   -6.8049 C   0  0  0  0  0  0  0  0  0  0  0  0
   29.4503  -20.1571   -8.0496 C   0  0  0  0  0  0  0  0  0  0  0  0
   28.5349  -20.4937   -9.0202 C   0  0  0  0  0  0  0  0  0  0  0  0
   27.1902  -20.3979   -8.7433 C   0  0  0  0  0  0  0  0  0  0  0  0
   26.0156  -20.5084  -13.2767 C   0  0  0  0  0  0  0  0  0  0  0  0
   25.0171  -20.9788  -13.8780 O   0  0  0  0  0  0  0  0  0  0  0  0
   28.7489  -20.5609  -15.8172 C   0  0  0  0  0  0  0  0  0  0  0  0
   27.3596  -20.9359  -15.2904 C   0  0  2  0  0  0  0  0  0  0  0  0
   27.2935  -20.4755  -13.9458 N   0  0  0  0  0  0  0  0  0  0  0  0
   27.1824  -22.3928  -15.4502 C   0  0  0  0  0  0  0  0  0  0  0  0
   27.5534  -23.2671  -14.6438 O   0  0  0  0  0  0  0  0  0  0  0  0
   25.2260  -25.6786  -18.4879 O   0  0  0  0  0  0  0  0  0  0  0  0
   25.6139  -24.3579  -18.2313 C   0  0  0  0  0  0  0  0  0  0  0  0
   26.3796  -24.2785  -16.9049 C   0  0  2  0  0  0  0  0  0  0  0  0
   26.5282  -22.8553  -16.6315 N   0  0  0  0  0  0  0  0  0  0  0  0
   27.6911  -24.9143  -17.1264 C   0  0  0  0  0  0  0  0  0  0  0  0
   28.0244  -26.1775  -16.7235 O   0  0  0  0  0  0  0  0  0  0  0  0
   28.5782  -24.2332  -17.7396 O   0  0  0  0  0  0  0  0  0  0  0  0
  2  1  1  6
  3  2  1  0
  3  4  1  0
  4 12  1  0
  5  4  2  0
  5  6  1  0
  6  7  1  0
  7  8  1  0
  8  9  2  0
 10  9  1  0
 11 10  2  0
 12  7  2  0
 12 11  1  0
 13  2  1  0
 13 14  2  0
 16 15  1  1
 16 18  1  0
 16 17  1  0
 17 13  1  0
 18 23  1  0
 19 18  2  0
 21 20  1  0
 22 21  1  6
 22 24  1  0
 23 22  1  0
 24 26  2  0
 24 25  1  0
M  END
$$$$
