WAS.pdb
     RDKit          3D

 26 27  0  0  1  0  0  0  0  0999 V2000
   21.4241  -22.0043  -13.0755 N   0  0  0  0  0  0  0  0  0  0  0  0
   20.6017  -21.4041  -12.0521 C   0  0  1  0  0  0  0  0  0  0  0  0
   19.2724  -20.8872  -12.5728 C   0  0  0  0  0  0  0  0  0  0  0  0
   19.3944  -19.7269  -13.4676 C   0  0  0  0  0  0  0  0  0  0  0  0
   19.2111  -19.7148  -14.8318 C   0  0  0  0  0  0  0  0  0  0  0  0
   19.4265  -18.4817  -15.3208 N   0  0  0  0  0  0  0  0  0  0  0  0
   19.7518  -17.6690  -14.2941 C   0  0  0  0  0  0  0  0  0  0  0  0
   20.0533  -16.3195  -14.3064 C   0  0  0  0  0  0  0  0  0  0  0  0
   20.3501  -15.7180  -13.0890 C   0  0  0  0  0  0  0  0  0  0  0  0
   20.3375  -16.4590  -11.9274 C   0  0  0  0  0  0  0  0  0  0  0  0
   20.0344  -17.8011  -11.9406 C   0  0  0  0  0  0  0  0  0  0  0  0
   19.7385  -18.4153  -13.1361 C   0  0  0  0  0  0  0  0  0  0  0  0
   20.4026  -22.3790  -10.9678 C   0  0  0  0  0  0  0  0  0  0  0  0
   20.0618  -23.5522  -11.2631 O   0  0  0  0  0  0  0  0  0  0  0  0
   20.7587  -22.4210   -7.2491 C   0  0  0  0  0  0  0  0  0  0  0  0
   20.3236  -23.0131   -8.5939 C   0  0  2  0  0  0  0  0  0  0  0  0
   20.5891  -22.0242   -9.5817 N   0  0  0  0  0  0  0  0  0  0  0  0
   18.9055  -23.4095   -8.4873 C   0  0  0  0  0  0  0  0  0  0  0  0
   17.9294  -22.7479   -8.8891 O   0  0  0  0  0  0  0  0  0  0  0  0
   18.4642  -27.0426   -6.9259 O   0  0  0  0  0  0  0  0  0  0  0  0
   17.3326  -26.6547   -7.6537 C   0  0  0  0  0  0  0  0  0  0  0  0
   17.2396  -25.1250   -7.7137 C   0  0  2  0  0  0  0  0  0  0  0  0
   18.6122  -24.6625   -7.8696 N   0  0  0  0  0  0  0  0  0  0  0  0
   16.6734  -24.6776   -6.4283 C   0  0  0  0  0  0  0  0  0  0  0  0
   15.3678  -24.8333   -6.0538 O   0  0  0  0  0  0  0  0  0  0  0  0
   17.4623  -24.1031   -5.6069 O   0  0  0  0  0  0  0  0  0  0  0  0
  2  1  1  6
  3  2  1  0
  3  4  1  0
  4 12  1  0
  5  4  2  0
  5  6  1  0
  6  7  1  0
  7  8  1  0
  8  9  2  0
 10  9  1  0
 11 10  2  0
 12  7  2  0
 12 11  1  0
 13  2  1  0
 13 14  2  0
 16 15  1  1
 16 18  1  0
 16 17  1  0
 17 13  1  0
 18 23  1  0
 19 18  2  0
 21 20  1  0
 22 21  1  1
 22 24  1  0
 23 22  1  0
 24 26  2  0
 24 25  1  0
M  END
$$$$
