WAS.pdb
     RDKit          3D

 26 27  0  0  1  0  0  0  0  0999 V2000
   26.8733  -21.5943  -10.9729 N   0  0  0  0  0  0  0  0  0  0  0  0
   25.7544  -21.1933  -11.7922 C   0  0  1  0  0  0  0  0  0  0  0  0
   24.9244  -20.0808  -11.1769 C   0  0  0  0  0  0  0  0  0  0  0  0
   24.1366  -20.5024  -10.0092 C   0  0  0  0  0  0  0  0  0  0  0  0
   24.5151  -20.4256   -8.6879 C   0  0  0  0  0  0  0  0  0  0  0  0
   23.5499  -20.9235   -7.8963 N   0  0  0  0  0  0  0  0  0  0  0  0
   22.5290  -21.3322   -8.6778 C   0  0  0  0  0  0  0  0  0  0  0  0
   21.3226  -21.9033   -8.3159 C   0  0  0  0  0  0  0  0  0  0  0  0
   20.4353  -22.2270   -9.3356 C   0  0  0  0  0  0  0  0  0  0  0  0
   20.7673  -21.9784  -10.6496 C   0  0  0  0  0  0  0  0  0  0  0  0
   21.9743  -21.4092  -10.9849 C   0  0  0  0  0  0  0  0  0  0  0  0
   22.8670  -21.0822   -9.9898 C   0  0  0  0  0  0  0  0  0  0  0  0
   26.2516  -20.8089  -13.1230 C   0  0  0  0  0  0  0  0  0  0  0  0
   27.2252  -20.0178  -13.2005 O   0  0  0  0  0  0  0  0  0  0  0  0
   26.2559  -22.1682  -16.4646 C   0  0  0  0  0  0  0  0  0  0  0  0
   26.2174  -20.9183  -15.5787 C   0  0  2  0  0  0  0  0  0  0  0  0
   25.6535  -21.3156  -14.3343 N   0  0  0  0  0  0  0  0  0  0  0  0
   25.4587  -19.8706  -16.2903 C   0  0  0  0  0  0  0  0  0  0  0  0
   24.2693  -19.5621  -16.0843 O   0  0  0  0  0  0  0  0  0  0  0  0
   27.7052  -17.8310  -18.9043 O   0  0  0  0  0  0  0  0  0  0  0  0
   26.5806  -17.1142  -18.4775 C   0  0  0  0  0  0  0  0  0  0  0  0
   25.4667  -18.0791  -18.0528 C   0  0  2  0  0  0  0  0  0  0  0  0
   26.1376  -19.1371  -17.3093 N   0  0  0  0  0  0  0  0  0  0  0  0
   24.8587  -18.6049  -19.2886 C   0  0  0  0  0  0  0  0  0  0  0  0
   23.9944  -17.9117  -20.0897 O   0  0  0  0  0  0  0  0  0  0  0  0
   25.1633  -19.7946  -19.6333 O   0  0  0  0  0  0  0  0  0  0  0  0
  2  1  1  1
  3  2  1  0
  3  4  1  0
  4 12  1  0
  5  4  2  0
  5  6  1  0
  6  7  1  0
  7  8  1  0
  8  9  2  0
 10  9  1  0
 11 10  2  0
 12  7  2  0
 12 11  1  0
 13  2  1  0
 13 14  2  0
 16 15  1  6
 16 18  1  0
 16 17  1  0
 17 13  1  0
 18 23  1  0
 19 18  2  0
 21 20  1  0
 22 21  1  6
 22 24  1  0
 23 22  1  0
 24 26  2  0
 24 25  1  0
M  END
$$$$
