WAS.pdb
     RDKit          3D

 26 27  0  0  1  0  0  0  0  0999 V2000
   23.8071  -20.2522  -14.0323 N   0  0  0  0  0  0  0  0  0  0  0  0
   22.9659  -20.0739  -12.8727 C   0  0  1  0  0  0  0  0  0  0  0  0
   21.5150  -20.4490  -13.1167 C   0  0  0  0  0  0  0  0  0  0  0  0
   20.8205  -19.5585  -14.0583 C   0  0  0  0  0  0  0  0  0  0  0  0
   20.7525  -19.6964  -15.4262 C   0  0  0  0  0  0  0  0  0  0  0  0
   20.0511  -18.6837  -15.9632 N   0  0  0  0  0  0  0  0  0  0  0  0
   19.6491  -17.8699  -14.9650 C   0  0  0  0  0  0  0  0  0  0  0  0
   18.9011  -16.7085  -15.0287 C   0  0  0  0  0  0  0  0  0  0  0  0
   18.6196  -16.0610  -13.8315 C   0  0  0  0  0  0  0  0  0  0  0  0
   19.0790  -16.5762  -12.6389 C   0  0  0  0  0  0  0  0  0  0  0  0
   19.8219  -17.7338  -12.6011 C   0  0  0  0  0  0  0  0  0  0  0  0
   20.1120  -18.3894  -13.7759 C   0  0  0  0  0  0  0  0  0  0  0  0
   23.5301  -20.8426  -11.7517 C   0  0  0  0  0  0  0  0  0  0  0  0
   23.5677  -22.0961  -11.8350 O   0  0  0  0  0  0  0  0  0  0  0  0
   25.1301  -20.2342   -8.4599 C   0  0  0  0  0  0  0  0  0  0  0  0
   24.1410  -20.9657   -9.3736 C   0  0  2  0  0  0  0  0  0  0  0  0
   24.0398  -20.1968  -10.5664 N   0  0  0  0  0  0  0  0  0  0  0  0
   22.8704  -21.1318   -8.6404 C   0  0  0  0  0  0  0  0  0  0  0  0
   21.9115  -20.3365   -8.6500 O   0  0  0  0  0  0  0  0  0  0  0  0
   22.4979  -24.6678   -6.5372 O   0  0  0  0  0  0  0  0  0  0  0  0
   21.3413  -24.0881   -7.0729 C   0  0  0  0  0  0  0  0  0  0  0  0
   21.4816  -22.5613   -7.1093 C   0  0  2  0  0  0  0  0  0  0  0  0
   22.7133  -22.3060   -7.8441 N   0  0  0  0  0  0  0  0  0  0  0  0
   21.5955  -22.1063   -5.7117 C   0  0  0  0  0  0  0  0  0  0  0  0
   20.5784  -22.1273   -4.7984 O   0  0  0  0  0  0  0  0  0  0  0  0
   22.7278  -21.6606   -5.3293 O   0  0  0  0  0  0  0  0  0  0  0  0
  2  1  1  6
  3  2  1  0
  3  4  1  0
  4 12  1  0
  5  4  2  0
  5  6  1  0
  6  7  1  0
  7  8  1  0
  8  9  2  0
 10  9  1  0
 11 10  2  0
 12  7  2  0
 12 11  1  0
 13  2  1  0
 13 14  2  0
 16 15  1  1
 16 18  1  0
 16 17  1  0
 17 13  1  0
 18 23  1  0
 19 18  2  0
 21 20  1  0
 22 21  1  1
 22 24  1  0
 23 22  1  0
 24 26  2  0
 24 25  1  0
M  END
$$$$
