WAS.pdb
     RDKit          3D

 26 27  0  0  1  0  0  0  0  0999 V2000
   25.9210  -23.2095  -12.2847 N   0  0  0  0  0  0  0  0  0  0  0  0
   25.3756  -21.9898  -11.7382 C   0  0  1  0  0  0  0  0  0  0  0  0
   26.3294  -20.8115  -11.8229 C   0  0  0  0  0  0  0  0  0  0  0  0
   27.4919  -20.9216  -10.9293 C   0  0  0  0  0  0  0  0  0  0  0  0
   28.7527  -21.3594  -11.2667 C   0  0  0  0  0  0  0  0  0  0  0  0
   29.5551  -21.3466  -10.1888 N   0  0  0  0  0  0  0  0  0  0  0  0
   28.8411  -20.9032   -9.1335 C   0  0  0  0  0  0  0  0  0  0  0  0
   29.2392  -20.7163   -7.8224 C   0  0  0  0  0  0  0  0  0  0  0  0
   28.2911  -20.2354   -6.9271 C   0  0  0  0  0  0  0  0  0  0  0  0
   27.0095  -19.9623   -7.3533 C   0  0  0  0  0  0  0  0  0  0  0  0
   26.6370  -20.1566   -8.6636 C   0  0  0  0  0  0  0  0  0  0  0  0
   27.5611  -20.6329   -9.5654 C   0  0  0  0  0  0  0  0  0  0  0  0
   24.1036  -21.6910  -12.4153 C   0  0  0  0  0  0  0  0  0  0  0  0
   23.9319  -22.1020  -13.5906 O   0  0  0  0  0  0  0  0  0  0  0  0
   20.8492  -20.1148  -11.4812 C   0  0  0  0  0  0  0  0  0  0  0  0
   21.8289  -20.7598  -12.4673 C   0  0  2  0  0  0  0  0  0  0  0  0
   23.0537  -20.9433  -11.7668 N   0  0  0  0  0  0  0  0  0  0  0  0
   21.9261  -19.8913  -13.6572 C   0  0  0  0  0  0  0  0  0  0  0  0
   22.6309  -18.8692  -13.7606 O   0  0  0  0  0  0  0  0  0  0  0  0
   20.3906  -19.5559  -18.2791 O   0  0  0  0  0  0  0  0  0  0  0  0
   20.3594  -20.2137  -17.0433 C   0  0  0  0  0  0  0  0  0  0  0  0
   21.1403  -19.4108  -15.9956 C   0  0  2  0  0  0  0  0  0  0  0  0
   21.1467  -20.2433  -14.8001 N   0  0  0  0  0  0  0  0  0  0  0  0
   20.3927  -18.1612  -15.7660 C   0  0  0  0  0  0  0  0  0  0  0  0
   20.5955  -16.9935  -16.4475 O   0  0  0  0  0  0  0  0  0  0  0  0
   19.4905  -18.1734  -14.8643 O   0  0  0  0  0  0  0  0  0  0  0  0
  2  1  1  6
  3  2  1  0
  3  4  1  0
  4 12  1  0
  5  4  2  0
  5  6  1  0
  6  7  1  0
  7  8  1  0
  8  9  2  0
 10  9  1  0
 11 10  2  0
 12  7  2  0
 12 11  1  0
 13  2  1  0
 13 14  2  0
 16 15  1  1
 16 18  1  0
 16 17  1  0
 17 13  1  0
 18 23  1  0
 19 18  2  0
 21 20  1  0
 22 21  1  6
 22 24  1  0
 23 22  1  0
 24 26  2  0
 24 25  1  0
M  END
$$$$
