WAS.pdb
     RDKit          3D

 26 27  0  0  1  0  0  0  0  0999 V2000
   28.3664  -21.5617  -10.8849 N   0  0  0  0  0  0  0  0  0  0  0  0
   27.1053  -21.2713  -10.2452 C   0  0  1  0  0  0  0  0  0  0  0  0
   27.2090  -20.2155   -9.1590 C   0  0  0  0  0  0  0  0  0  0  0  0
   28.2450  -20.4956   -8.1540 C   0  0  0  0  0  0  0  0  0  0  0  0
   29.4790  -21.0631   -8.3779 C   0  0  0  0  0  0  0  0  0  0  0  0
   30.1526  -21.1868   -7.2216 N   0  0  0  0  0  0  0  0  0  0  0  0
   29.3790  -20.7059   -6.2264 C   0  0  0  0  0  0  0  0  0  0  0  0
   29.6465  -20.6190   -4.8725 C   0  0  0  0  0  0  0  0  0  0  0  0
   28.6638  -20.0672   -4.0590 C   0  0  0  0  0  0  0  0  0  0  0  0
   27.4762  -19.6302   -4.6042 C   0  0  0  0  0  0  0  0  0  0  0  0
   27.2329  -19.7274   -5.9550 C   0  0  0  0  0  0  0  0  0  0  0  0
   28.1932  -20.2715   -6.7772 C   0  0  0  0  0  0  0  0  0  0  0  0
   26.1283  -20.8789  -11.2735 C   0  0  0  0  0  0  0  0  0  0  0  0
   26.3988  -19.9105  -12.0277 O   0  0  0  0  0  0  0  0  0  0  0  0
   23.8147  -22.3692  -13.4053 C   0  0  0  0  0  0  0  0  0  0  0  0
   24.0081  -21.1585  -12.4859 C   0  0  2  0  0  0  0  0  0  0  0  0
   24.8751  -21.5749  -11.4375 N   0  0  0  0  0  0  0  0  0  0  0  0
   22.6778  -20.7013  -12.0377 C   0  0  0  0  0  0  0  0  0  0  0  0
   22.0620  -21.1143  -11.0365 O   0  0  0  0  0  0  0  0  0  0  0  0
   19.0334  -17.7196  -13.3598 O   0  0  0  0  0  0  0  0  0  0  0  0
   20.3306  -18.2067  -13.5618 C   0  0  0  0  0  0  0  0  0  0  0  0
   20.6835  -19.2381  -12.4829 C   0  0  2  0  0  0  0  0  0  0  0  0
   22.0268  -19.6951  -12.8131 N   0  0  0  0  0  0  0  0  0  0  0  0
   19.7072  -20.3362  -12.6016 C   0  0  0  0  0  0  0  0  0  0  0  0
   18.6335  -20.5190  -11.7752 O   0  0  0  0  0  0  0  0  0  0  0  0
   19.8794  -21.1761  -13.5459 O   0  0  0  0  0  0  0  0  0  0  0  0
  2  1  1  6
  3  2  1  0
  3  4  1  0
  4 12  1  0
  5  4  2  0
  5  6  1  0
  6  7  1  0
  7  8  1  0
  8  9  2  0
 10  9  1  0
 11 10  2  0
 12  7  2  0
 12 11  1  0
 13  2  1  0
 13 14  2  0
 16 15  1  6
 16 18  1  0
 16 17  1  0
 17 13  1  0
 18 23  1  0
 19 18  2  0
 21 20  1  0
 22 21  1  6
 22 24  1  0
 23 22  1  0
 24 26  2  0
 24 25  1  0
M  END
$$$$
