WAS.pdb
     RDKit          3D

 26 27  0  0  1  0  0  0  0  0999 V2000
   26.5141  -22.9047  -10.6893 N   0  0  0  0  0  0  0  0  0  0  0  0
   26.0092  -21.5523  -10.6989 C   0  0  1  0  0  0  0  0  0  0  0  0
   27.0849  -20.5086  -10.9412 C   0  0  0  0  0  0  0  0  0  0  0  0
   28.1535  -20.5098   -9.9313 C   0  0  0  0  0  0  0  0  0  0  0  0
   29.4103  -21.0563  -10.0614 C   0  0  0  0  0  0  0  0  0  0  0  0
   30.1120  -20.8879   -8.9277 N   0  0  0  0  0  0  0  0  0  0  0  0
   29.3346  -20.2328   -8.0408 C   0  0  0  0  0  0  0  0  0  0  0  0
   29.6240  -19.8337   -6.7487 C   0  0  0  0  0  0  0  0  0  0  0  0
   28.6306  -19.1597   -6.0483 C   0  0  0  0  0  0  0  0  0  0  0  0
   27.4116  -18.9099   -6.6403 C   0  0  0  0  0  0  0  0  0  0  0  0
   27.1471  -19.3171   -7.9278 C   0  0  0  0  0  0  0  0  0  0  0  0
   28.1175  -19.9867   -8.6377 C   0  0  0  0  0  0  0  0  0  0  0  0
   24.9373  -21.4506  -11.7021 C   0  0  0  0  0  0  0  0  0  0  0  0
   25.0966  -22.0081  -12.8173 O   0  0  0  0  0  0  0  0  0  0  0  0
   21.4970  -20.0010  -11.8600 C   0  0  0  0  0  0  0  0  0  0  0  0
   22.7263  -20.6901  -12.4618 C   0  0  2  0  0  0  0  0  0  0  0  0
   23.7140  -20.7322  -11.4386 N   0  0  0  0  0  0  0  0  0  0  0  0
   23.1271  -19.9460  -13.6722 C   0  0  0  0  0  0  0  0  0  0  0  0
   23.3262  -18.7181  -13.7430 O   0  0  0  0  0  0  0  0  0  0  0  0
   23.9494  -20.6083  -18.4468 O   0  0  0  0  0  0  0  0  0  0  0  0
   23.5680  -21.1217  -17.2011 C   0  0  0  0  0  0  0  0  0  0  0  0
   23.6415  -20.0255  -16.1310 C   0  0  2  0  0  0  0  0  0  0  0  0
   23.3062  -20.6886  -14.8779 N   0  0  0  0  0  0  0  0  0  0  0  0
   22.6285  -19.0135  -16.4814 C   0  0  0  0  0  0  0  0  0  0  0  0
   22.9031  -17.7896  -17.0253 O   0  0  0  0  0  0  0  0  0  0  0  0
   21.4064  -19.3040  -16.2597 O   0  0  0  0  0  0  0  0  0  0  0  0
  2  1  1  6
  3  2  1  0
  3  4  1  0
  4 12  1  0
  5  4  2  0
  5  6  1  0
  6  7  1  0
  7  8  1  0
  8  9  2  0
 10  9  1  0
 11 10  2  0
 12  7  2  0
 12 11  1  0
 13  2  1  0
 13 14  2  0
 16 15  1  1
 16 18  1  0
 16 17  1  0
 17 13  1  0
 18 23  1  0
 19 18  2  0
 21 20  1  0
 22 21  1  6
 22 24  1  0
 23 22  1  0
 24 26  2  0
 24 25  1  0
M  END
$$$$
