WAS.pdb
     RDKit          3D

 26 27  0  0  1  0  0  0  0  0999 V2000
   24.2354  -21.6505   -8.0157 N   0  0  0  0  0  0  0  0  0  0  0  0
   25.0955  -20.7104   -8.6942 C   0  0  1  0  0  0  0  0  0  0  0  0
   26.5023  -20.6607   -8.1250 C   0  0  0  0  0  0  0  0  0  0  0  0
   26.5484  -20.4538   -6.6700 C   0  0  0  0  0  0  0  0  0  0  0  0
   25.6069  -20.8557   -5.7498 C   0  0  0  0  0  0  0  0  0  0  0  0
   25.9712  -20.4762   -4.5131 N   0  0  0  0  0  0  0  0  0  0  0  0
   27.1491  -19.8242   -4.5992 C   0  0  0  0  0  0  0  0  0  0  0  0
   27.9128  -19.2581   -3.5948 C   0  0  0  0  0  0  0  0  0  0  0  0
   29.1044  -18.6452   -3.9638 C   0  0  0  0  0  0  0  0  0  0  0  0
   29.4893  -18.6158   -5.2866 C   0  0  0  0  0  0  0  0  0  0  0  0
   28.7121  -19.1861   -6.2684 C   0  0  0  0  0  0  0  0  0  0  0  0
   27.5281  -19.7971   -5.9235 C   0  0  0  0  0  0  0  0  0  0  0  0
   25.1164  -21.0336  -10.1298 C   0  0  0  0  0  0  0  0  0  0  0  0
   25.6502  -22.1093  -10.5008 O   0  0  0  0  0  0  0  0  0  0  0  0
   23.4822  -19.9001  -13.2243 C   0  0  0  0  0  0  0  0  0  0  0  0
   24.6890  -20.4938  -12.4898 C   0  0  2  0  0  0  0  0  0  0  0  0
   24.5413  -20.1519  -11.1166 N   0  0  0  0  0  0  0  0  0  0  0  0
   25.9171  -19.9745  -13.1235 C   0  0  0  0  0  0  0  0  0  0  0  0
   26.4373  -18.8632  -12.9075 O   0  0  0  0  0  0  0  0  0  0  0  0
   27.8148  -22.6257  -15.6116 O   0  0  0  0  0  0  0  0  0  0  0  0
   28.6087  -21.6753  -14.9579 C   0  0  0  0  0  0  0  0  0  0  0  0
   27.8097  -20.3871  -14.7248 C   0  0  2  0  0  0  0  0  0  0  0  0
   26.5785  -20.8115  -14.0718 N   0  0  0  0  0  0  0  0  0  0  0  0
   27.5320  -19.8070  -16.0513 C   0  0  0  0  0  0  0  0  0  0  0  0
   28.4838  -19.3351  -16.9119 O   0  0  0  0  0  0  0  0  0  0  0  0
   26.3129  -19.7419  -16.4207 O   0  0  0  0  0  0  0  0  0  0  0  0
  2  1  1  1
  3  2  1  0
  3  4  1  0
  4 12  1  0
  5  4  2  0
  5  6  1  0
  6  7  1  0
  7  8  1  0
  8  9  2  0
 10  9  1  0
 11 10  2  0
 12  7  2  0
 12 11  1  0
 13  2  1  0
 13 14  2  0
 16 15  1  6
 16 18  1  0
 16 17  1  0
 17 13  1  0
 18 23  1  0
 19 18  2  0
 21 20  1  0
 22 21  1  6
 22 24  1  0
 23 22  1  0
 24 26  2  0
 24 25  1  0
M  END
$$$$
