WAS.pdb
     RDKit          3D

 26 27  0  0  1  0  0  0  0  0999 V2000
   28.6148  -21.3118  -11.0724 N   0  0  0  0  0  0  0  0  0  0  0  0
   27.3400  -21.2735  -10.3961 C   0  0  1  0  0  0  0  0  0  0  0  0
   27.3012  -20.2931   -9.2374 C   0  0  0  0  0  0  0  0  0  0  0  0
   28.3634  -20.5048   -8.2430 C   0  0  0  0  0  0  0  0  0  0  0  0
   29.5915  -21.0877   -8.4598 C   0  0  0  0  0  0  0  0  0  0  0  0
   30.2952  -21.1326   -7.3158 N   0  0  0  0  0  0  0  0  0  0  0  0
   29.5476  -20.5838   -6.3360 C   0  0  0  0  0  0  0  0  0  0  0  0
   29.8506  -20.4046   -4.9986 C   0  0  0  0  0  0  0  0  0  0  0  0
   28.8892  -19.7974   -4.1994 C   0  0  0  0  0  0  0  0  0  0  0  0
   27.6874  -19.3974   -4.7420 C   0  0  0  0  0  0  0  0  0  0  0  0
   27.4088  -19.5867   -6.0761 C   0  0  0  0  0  0  0  0  0  0  0  0
   28.3475  -20.1869   -6.8840 C   0  0  0  0  0  0  0  0  0  0  0  0
   26.2874  -20.9727  -11.3796 C   0  0  0  0  0  0  0  0  0  0  0  0
   26.3216  -19.8723  -11.9860 O   0  0  0  0  0  0  0  0  0  0  0  0
   23.8536  -22.9301  -13.3079 C   0  0  0  0  0  0  0  0  0  0  0  0
   24.3244  -21.5943  -12.7228 C   0  0  2  0  0  0  0  0  0  0  0  0
   25.2236  -21.9048  -11.6648 N   0  0  0  0  0  0  0  0  0  0  0  0
   23.1336  -20.8248  -12.3108 C   0  0  0  0  0  0  0  0  0  0  0  0
   22.5931  -20.8595  -11.1889 O   0  0  0  0  0  0  0  0  0  0  0  0
   21.5024  -18.8414  -15.3647 O   0  0  0  0  0  0  0  0  0  0  0  0
   21.1049  -18.2733  -14.1481 C   0  0  0  0  0  0  0  0  0  0  0  0
   21.2723  -19.2875  -13.0099 C   0  0  2  0  0  0  0  0  0  0  0  0
   22.5376  -19.9587  -13.2762 N   0  0  0  0  0  0  0  0  0  0  0  0
   20.1432  -20.2306  -13.1044 C   0  0  0  0  0  0  0  0  0  0  0  0
   20.2321  -21.5101  -13.5777 O   0  0  0  0  0  0  0  0  0  0  0  0
   19.0002  -19.8196  -12.7150 O   0  0  0  0  0  0  0  0  0  0  0  0
  2  1  1  6
  3  2  1  0
  3  4  1  0
  4 12  1  0
  5  4  2  0
  5  6  1  0
  6  7  1  0
  7  8  1  0
  8  9  2  0
 10  9  1  0
 11 10  2  0
 12  7  2  0
 12 11  1  0
 13  2  1  0
 13 14  2  0
 16 15  1  1
 16 18  1  0
 16 17  1  0
 17 13  1  0
 18 23  1  0
 19 18  2  0
 21 20  1  0
 22 21  1  6
 22 24  1  0
 23 22  1  0
 24 26  2  0
 24 25  1  0
M  END
$$$$
