WAS.pdb
     RDKit          3D

 26 27  0  0  1  0  0  0  0  0999 V2000
   25.6180  -18.7172   -9.0333 N   0  0  0  0  0  0  0  0  0  0  0  0
   26.3564  -19.8780   -9.4706 C   0  0  1  0  0  0  0  0  0  0  0  0
   26.0974  -21.1117   -8.6243 C   0  0  0  0  0  0  0  0  0  0  0  0
   26.3140  -20.9022   -7.1851 C   0  0  0  0  0  0  0  0  0  0  0  0
   25.4067  -21.1238   -6.1739 C   0  0  0  0  0  0  0  0  0  0  0  0
   25.9449  -20.8023   -4.9852 N   0  0  0  0  0  0  0  0  0  0  0  0
   27.2051  -20.3679   -5.1936 C   0  0  0  0  0  0  0  0  0  0  0  0
   28.1456  -19.9349   -4.2769 C   0  0  0  0  0  0  0  0  0  0  0  0
   29.3860  -19.5441   -4.7673 C   0  0  0  0  0  0  0  0  0  0  0  0
   29.6453  -19.5954   -6.1196 C   0  0  0  0  0  0  0  0  0  0  0  0
   28.6929  -20.0299   -7.0126 C   0  0  0  0  0  0  0  0  0  0  0  0
   27.4581  -20.4204   -6.5469 C   0  0  0  0  0  0  0  0  0  0  0  0
   26.0484  -20.1333  -10.8868 C   0  0  0  0  0  0  0  0  0  0  0  0
   24.8934  -19.8770  -11.3112 O   0  0  0  0  0  0  0  0  0  0  0  0
   27.9371  -21.2864  -13.9000 C   0  0  0  0  0  0  0  0  0  0  0  0
   26.6908  -20.7706  -13.1727 C   0  0  2  0  0  0  0  0  0  0  0  0
   27.0340  -20.6665  -11.7958 N   0  0  0  0  0  0  0  0  0  0  0  0
   25.5737  -21.6922  -13.4593 C   0  0  0  0  0  0  0  0  0  0  0  0
   25.4716  -22.8657  -13.0533 O   0  0  0  0  0  0  0  0  0  0  0  0
   21.7901  -20.9076  -16.0202 O   0  0  0  0  0  0  0  0  0  0  0  0
   22.1698  -21.0444  -14.6794 C   0  0  0  0  0  0  0  0  0  0  0  0
   23.3384  -22.0301  -14.5573 C   0  0  2  0  0  0  0  0  0  0  0  0
   24.5070  -21.2076  -14.2745 N   0  0  0  0  0  0  0  0  0  0  0  0
   23.4698  -22.7053  -15.8612 C   0  0  0  0  0  0  0  0  0  0  0  0
   22.7427  -23.7948  -16.2530 O   0  0  0  0  0  0  0  0  0  0  0  0
   24.3257  -22.2362  -16.6823 O   0  0  0  0  0  0  0  0  0  0  0  0
  2  1  1  1
  3  2  1  0
  3  4  1  0
  4 12  1  0
  5  4  2  0
  5  6  1  0
  6  7  1  0
  7  8  1  0
  8  9  2  0
 10  9  1  0
 11 10  2  0
 12  7  2  0
 12 11  1  0
 13  2  1  0
 13 14  2  0
 16 15  1  6
 16 18  1  0
 16 17  1  0
 17 13  1  0
 18 23  1  0
 19 18  2  0
 21 20  1  0
 22 21  1  6
 22 24  1  0
 23 22  1  0
 24 26  2  0
 24 25  1  0
M  END
$$$$
