WAS.pdb
     RDKit          3D

 26 27  0  0  1  0  0  0  0  0999 V2000
   24.6970  -18.6067  -17.2093 N   0  0  0  0  0  0  0  0  0  0  0  0
   25.5969  -19.3008  -16.3191 C   0  0  1  0  0  0  0  0  0  0  0  0
   25.9129  -18.5229  -15.0541 C   0  0  0  0  0  0  0  0  0  0  0  0
   26.6628  -17.2807  -15.2911 C   0  0  0  0  0  0  0  0  0  0  0  0
   26.4345  -16.0554  -14.7066 C   0  0  0  0  0  0  0  0  0  0  0  0
   27.3022  -15.1442  -15.1787 N   0  0  0  0  0  0  0  0  0  0  0  0
   28.1091  -15.7506  -16.0738 C   0  0  0  0  0  0  0  0  0  0  0  0
   29.1521  -15.2221  -16.8123 C   0  0  0  0  0  0  0  0  0  0  0  0
   29.8319  -16.0815  -17.6675 C   0  0  0  0  0  0  0  0  0  0  0  0
   29.4623  -17.4058  -17.7585 C   0  0  0  0  0  0  0  0  0  0  0  0
   28.4205  -17.9085  -17.0133 C   0  0  0  0  0  0  0  0  0  0  0  0
   27.7344  -17.0734  -16.1613 C   0  0  0  0  0  0  0  0  0  0  0  0
   25.0291  -20.6207  -16.0011 C   0  0  0  0  0  0  0  0  0  0  0  0
   23.7794  -20.7488  -15.9610 O   0  0  0  0  0  0  0  0  0  0  0  0
   26.2572  -24.0842  -15.4215 C   0  0  0  0  0  0  0  0  0  0  0  0
   25.2519  -22.9439  -15.2284 C   0  0  2  0  0  0  0  0  0  0  0  0
   25.8663  -21.7657  -15.7370 N   0  0  0  0  0  0  0  0  0  0  0  0
   24.8934  -22.8811  -13.7976 C   0  0  0  0  0  0  0  0  0  0  0  0
   24.1038  -23.6431  -13.2078 O   0  0  0  0  0  0  0  0  0  0  0  0
   26.5665  -19.7324  -11.7154 O   0  0  0  0  0  0  0  0  0  0  0  0
   26.2842  -20.8911  -10.9818 C   0  0  0  0  0  0  0  0  0  0  0  0
   25.1125  -21.6490  -11.6181 C   0  0  2  0  0  0  0  0  0  0  0  0
   25.4994  -21.8590  -13.0067 N   0  0  0  0  0  0  0  0  0  0  0  0
   23.9313  -20.7719  -11.5249 C   0  0  0  0  0  0  0  0  0  0  0  0
   23.2981  -20.4360  -10.3607 O   0  0  0  0  0  0  0  0  0  0  0  0
   23.4683  -20.2923  -12.6124 O   0  0  0  0  0  0  0  0  0  0  0  0
  2  1  1  6
  3  2  1  0
  3  4  1  0
  4 12  1  0
  5  4  2  0
  5  6  1  0
  6  7  1  0
  7  8  1  0
  8  9  2  0
 10  9  1  0
 11 10  2  0
 12  7  2  0
 12 11  1  0
 13  2  1  0
 13 14  2  0
 16 15  1  1
 16 18  1  0
 16 17  1  0
 17 13  1  0
 18 23  1  0
 19 18  2  0
 21 20  1  0
 22 21  1  1
 22 24  1  0
 23 22  1  0
 24 26  2  0
 24 25  1  0
M  END
$$$$
