NLM.pdb
     RDKit          3D

 25 24  0  0  1  0  0  0  0  0999 V2000
   15.7553   -9.3650  -17.1401 N   0  0  0  0  0  0  0  0  0  0  0  0
   14.8330   -9.3554  -16.0778 C   0  0  0  0  0  0  0  0  0  0  0  0
   13.6129   -9.3800  -16.3134 O   0  0  0  0  0  0  0  0  0  0  0  0
   15.3135   -9.3163  -14.6870 C   0  0  0  0  0  0  0  0  0  0  0  0
   16.8166   -9.3826  -14.5766 C   0  0  2  0  0  0  0  0  0  0  0  0
   17.3086  -10.7404  -14.6866 N   0  0  0  0  0  0  0  0  0  0  0  0
   17.2989   -8.8359  -13.2803 C   0  0  0  0  0  0  0  0  0  0  0  0
   17.2640   -9.5402  -12.2125 O   0  0  0  0  0  0  0  0  0  0  0  0
   21.3605   -6.9514  -10.7933 C   0  0  0  0  0  0  0  0  0  0  0  0
   20.9099   -6.6412  -12.1721 C   0  0  2  0  0  0  0  0  0  0  0  0
   21.7793   -5.4582  -12.6652 C   0  0  0  0  0  0  0  0  0  0  0  0
   19.5224   -6.2193  -12.2935 C   0  0  0  0  0  0  0  0  0  0  0  0
   18.3853   -7.0656  -11.8181 C   0  0  2  0  0  0  0  0  0  0  0  0
   17.8148   -7.5413  -13.1317 N   0  0  0  0  0  0  0  0  0  0  0  0
   17.2891   -6.3120  -11.2257 C   0  0  0  0  0  0  0  0  0  0  0  0
   16.5903   -5.5517  -11.9935 O   0  0  0  0  0  0  0  0  0  0  0  0
   13.0157   -8.1434   -6.5279 C   0  0  0  0  0  0  0  0  0  0  0  0
   12.9540   -6.3536   -6.4114 S   0  0  0  0  0  0  0  0  0  0  0  0
   13.8091   -5.5354   -7.7638 C   0  0  0  0  0  0  0  0  0  0  0  0
   15.0088   -6.2654   -8.2717 C   0  0  0  0  0  0  0  0  0  0  0  0
   15.6739   -5.5838   -9.4693 C   0  0  2  0  0  0  0  0  0  0  0  0
   16.8541   -6.3053   -9.8733 N   0  0  0  0  0  0  0  0  0  0  0  0
   15.9873   -4.2213   -9.0252 C   0  0  0  0  0  0  0  0  0  0  0  0
   15.0666   -3.3610   -8.8216 O   0  0  0  0  0  0  0  0  0  0  0  0
   17.2762   -3.8137   -8.8088 O   0  0  0  0  0  0  0  0  0  0  0  0
  1  2  1  0
  2  3  2  0
  2  4  1  0
  5  6  1  1
  5  4  1  0
  7  5  1  0
  8  7  2  0
 10  9  1  1
 10 12  1  0
 11 10  1  0
 13 12  1  6
 13 14  1  0
 14  7  1  0
 15 13  1  0
 15 16  2  0
 18 17  1  0
 19 20  1  0
 19 18  1  0
 21 20  1  1
 21 22  1  0
 22 15  1  0
 23 21  1  0
 24 23  2  0
 25 23  1  0
M  END
$$$$
