NLM.pdb
     RDKit          3D

 25 24  0  0  1  0  0  0  0  0999 V2000
   27.5337  -16.2165  -23.1264 N   0  0  0  0  0  0  0  0  0  0  0  0
   26.4169  -15.3622  -23.0830 C   0  0  0  0  0  0  0  0  0  0  0  0
   25.6609  -15.2766  -24.0658 O   0  0  0  0  0  0  0  0  0  0  0  0
   26.1438  -14.5695  -21.8732 C   0  0  0  0  0  0  0  0  0  0  0  0
   27.1493  -14.8014  -20.7726 C   0  0  2  0  0  0  0  0  0  0  0  0
   26.8077  -15.9506  -19.9600 N   0  0  0  0  0  0  0  0  0  0  0  0
   27.2542  -13.6276  -19.8654 C   0  0  0  0  0  0  0  0  0  0  0  0
   26.3506  -13.3843  -18.9927 O   0  0  0  0  0  0  0  0  0  0  0  0
   29.4232  -12.5050  -15.9444 C   0  0  0  0  0  0  0  0  0  0  0  0
   29.9960  -12.8470  -17.2693 C   0  0  2  0  0  0  0  0  0  0  0  0
   31.5280  -12.9588  -17.0727 C   0  0  0  0  0  0  0  0  0  0  0  0
   29.7798  -11.8581  -18.3149 C   0  0  0  0  0  0  0  0  0  0  0  0
   28.4286  -11.5937  -18.8978 C   0  0  2  0  0  0  0  0  0  0  0  0
   28.3226  -12.7209  -19.8955 N   0  0  0  0  0  0  0  0  0  0  0  0
   28.3616  -10.3990  -19.7277 C   0  0  0  0  0  0  0  0  0  0  0  0
   29.1406  -10.3249  -20.7492 O   0  0  0  0  0  0  0  0  0  0  0  0
   22.9541   -7.0559  -20.0969 C   0  0  0  0  0  0  0  0  0  0  0  0
   23.5165   -7.9624  -21.5402 S   0  0  0  0  0  0  0  0  0  0  0  0
   25.2009   -8.5661  -21.3736 C   0  0  0  0  0  0  0  0  0  0  0  0
   26.1434   -7.6057  -20.7258 C   0  0  0  0  0  0  0  0  0  0  0  0
   27.5474   -8.1773  -20.5183 C   0  0  2  0  0  0  0  0  0  0  0  0
   27.5179   -9.2663  -19.5749 N   0  0  0  0  0  0  0  0  0  0  0  0
   28.3640   -7.0568  -20.0395 C   0  0  0  0  0  0  0  0  0  0  0  0
   28.4566   -6.7865  -18.7954 O   0  0  0  0  0  0  0  0  0  0  0  0
   29.0618   -6.2549  -20.9022 O   0  0  0  0  0  0  0  0  0  0  0  0
  1  2  1  0
  2  3  2  0
  2  4  1  0
  5  6  1  1
  5  4  1  0
  7  5  1  0
  8  7  2  0
 10  9  1  1
 10 12  1  0
 11 10  1  0
 13 12  1  6
 13 14  1  0
 14  7  1  0
 15 13  1  0
 15 16  2  0
 18 17  1  0
 19 20  1  0
 19 18  1  0
 21 20  1  1
 21 22  1  0
 22 15  1  0
 23 21  1  0
 24 23  2  0
 25 23  1  0
M  END
$$$$
