NLM.pdb
     RDKit          3D

 25 24  0  0  1  0  0  0  0  0999 V2000
   29.0139  -18.2730  -17.7111 N   0  0  0  0  0  0  0  0  0  0  0  0
   27.9021  -18.9838  -18.1987 C   0  0  0  0  0  0  0  0  0  0  0  0
   27.6850  -19.0366  -19.4213 O   0  0  0  0  0  0  0  0  0  0  0  0
   26.9957  -19.6653  -17.2601 C   0  0  0  0  0  0  0  0  0  0  0  0
   27.7173  -20.5575  -16.2807 C   0  0  2  0  0  0  0  0  0  0  0  0
   28.3823  -21.6614  -16.9416 N   0  0  0  0  0  0  0  0  0  0  0  0
   26.7883  -21.1341  -15.2725 C   0  0  0  0  0  0  0  0  0  0  0  0
   26.1136  -22.1916  -15.5246 O   0  0  0  0  0  0  0  0  0  0  0  0
   25.8232  -19.8002   -9.3863 C   0  0  0  0  0  0  0  0  0  0  0  0
   25.3187  -20.6302  -10.5075 C   0  0  2  0  0  0  0  0  0  0  0  0
   25.3932  -22.1031  -10.0350 C   0  0  0  0  0  0  0  0  0  0  0  0
   26.0889  -20.5469  -11.7395 C   0  0  0  0  0  0  0  0  0  0  0  0
   25.6498  -21.2145  -13.0031 C   0  0  2  0  0  0  0  0  0  0  0  0
   26.5853  -20.5784  -14.0019 N   0  0  0  0  0  0  0  0  0  0  0  0
   24.3311  -20.8054  -13.4656 C   0  0  0  0  0  0  0  0  0  0  0  0
   24.1517  -19.5684  -13.7714 O   0  0  0  0  0  0  0  0  0  0  0  0
   17.6728  -21.8406  -17.5433 C   0  0  0  0  0  0  0  0  0  0  0  0
   19.1994  -22.5274  -16.8963 S   0  0  0  0  0  0  0  0  0  0  0  0
   19.9832  -21.4637  -15.6782 C   0  0  0  0  0  0  0  0  0  0  0  0
   21.2571  -22.0008  -15.1132 C   0  0  0  0  0  0  0  0  0  0  0  0
   21.9392  -21.0438  -14.1334 C   0  0  2  0  0  0  0  0  0  0  0  0
   23.1733  -21.6081  -13.6485 N   0  0  0  0  0  0  0  0  0  0  0  0
   20.9711  -20.8276  -13.0527 C   0  0  0  0  0  0  0  0  0  0  0  0
   20.9040  -21.6186  -12.0532 O   0  0  0  0  0  0  0  0  0  0  0  0
   20.1007  -19.7709  -13.0672 O   0  0  0  0  0  0  0  0  0  0  0  0
  1  2  1  0
  2  3  2  0
  2  4  1  0
  5  6  1  6
  5  4  1  0
  7  5  1  0
  8  7  2  0
 10  9  1  1
 10 12  1  0
 11 10  1  0
 13 12  1  1
 13 14  1  0
 14  7  1  0
 15 13  1  0
 15 16  2  0
 18 17  1  0
 19 20  1  0
 19 18  1  0
 21 20  1  6
 21 22  1  0
 22 15  1  0
 23 21  1  0
 24 23  2  0
 25 23  1  0
M  END
$$$$
