NLM.pdb
     RDKit          3D

 25 24  0  0  1  0  0  0  0  0999 V2000
   24.7261  -21.9709  -21.2589 N   0  0  0  0  0  0  0  0  0  0  0  0
   26.0033  -21.8020  -20.6937 C   0  0  0  0  0  0  0  0  0  0  0  0
   27.0191  -22.0041  -21.3808 O   0  0  0  0  0  0  0  0  0  0  0  0
   26.1363  -21.3855  -19.2882 C   0  0  0  0  0  0  0  0  0  0  0  0
   24.8084  -21.1823  -18.6015 C   0  0  2  0  0  0  0  0  0  0  0  0
   24.0265  -20.1387  -19.2320 N   0  0  0  0  0  0  0  0  0  0  0  0
   24.9785  -20.8114  -17.1713 C   0  0  0  0  0  0  0  0  0  0  0  0
   25.5968  -21.5818  -16.3581 O   0  0  0  0  0  0  0  0  0  0  0  0
   27.7719  -18.5643  -15.3572 C   0  0  0  0  0  0  0  0  0  0  0  0
   26.6435  -17.7935  -15.9342 C   0  0  2  0  0  0  0  0  0  0  0  0
   27.0197  -16.2967  -15.8060 C   0  0  0  0  0  0  0  0  0  0  0  0
   25.3649  -17.9623  -15.2598 C   0  0  0  0  0  0  0  0  0  0  0  0
   24.6836  -19.2893  -15.1591 C   0  0  2  0  0  0  0  0  0  0  0  0
   24.4874  -19.6209  -16.6182 N   0  0  0  0  0  0  0  0  0  0  0  0
   23.3244  -19.2230  -14.6408 C   0  0  0  0  0  0  0  0  0  0  0  0
   23.1529  -18.7951  -13.4395 O   0  0  0  0  0  0  0  0  0  0  0  0
   18.2937  -18.3298  -18.3017 C   0  0  0  0  0  0  0  0  0  0  0  0
   19.2674  -16.9998  -17.5920 S   0  0  0  0  0  0  0  0  0  0  0  0
   20.2062  -17.5143  -16.1486 C   0  0  0  0  0  0  0  0  0  0  0  0
   19.7970  -18.8332  -15.5798 C   0  0  0  0  0  0  0  0  0  0  0  0
   20.8390  -19.4389  -14.6372 C   0  0  2  0  0  0  0  0  0  0  0  0
   22.1126  -19.5623  -15.3000 N   0  0  0  0  0  0  0  0  0  0  0  0
   20.2992  -20.7424  -14.2359 C   0  0  0  0  0  0  0  0  0  0  0  0
   20.8893  -21.8303  -14.5484 O   0  0  0  0  0  0  0  0  0  0  0  0
   19.1436  -20.8500  -13.5098 O   0  0  0  0  0  0  0  0  0  0  0  0
  1  2  1  0
  2  3  2  0
  2  4  1  0
  5  6  1  6
  5  4  1  0
  7  5  1  0
  8  7  2  0
 10  9  1  1
 10 12  1  0
 11 10  1  0
 13 12  1  6
 13 14  1  0
 14  7  1  0
 15 13  1  0
 15 16  2  0
 18 17  1  0
 19 20  1  0
 19 18  1  0
 21 20  1  6
 21 22  1  0
 22 15  1  0
 23 21  1  0
 24 23  2  0
 25 23  1  0
M  END
$$$$
