NLM.pdb
     RDKit          3D

 25 24  0  0  1  0  0  0  0  0999 V2000
   18.7119  -16.1488  -14.2203 N   0  0  0  0  0  0  0  0  0  0  0  0
   17.9575  -15.0874  -14.7527 C   0  0  0  0  0  0  0  0  0  0  0  0
   16.7178  -15.1654  -14.7949 O   0  0  0  0  0  0  0  0  0  0  0  0
   18.6369  -13.8840  -15.2597 C   0  0  0  0  0  0  0  0  0  0  0  0
   18.1030  -13.4181  -16.5915 C   0  0  2  0  0  0  0  0  0  0  0  0
   18.4569  -14.3246  -17.6642 N   0  0  0  0  0  0  0  0  0  0  0  0
   18.6228  -12.0725  -16.9536 C   0  0  0  0  0  0  0  0  0  0  0  0
   19.6942  -11.9411  -17.6407 O   0  0  0  0  0  0  0  0  0  0  0  0
   17.2186   -8.1323  -19.6963 C   0  0  0  0  0  0  0  0  0  0  0  0
   16.4687   -8.8156  -18.6140 C   0  0  2  0  0  0  0  0  0  0  0  0
   15.1587   -8.0149  -18.4109 C   0  0  0  0  0  0  0  0  0  0  0  0
   17.1382   -8.8563  -17.3225 C   0  0  0  0  0  0  0  0  0  0  0  0
   18.4509   -9.5438  -17.1241 C   0  0  2  0  0  0  0  0  0  0  0  0
   17.9961  -10.8759  -16.5799 N   0  0  0  0  0  0  0  0  0  0  0  0
   19.2546   -8.9923  -16.0424 C   0  0  0  0  0  0  0  0  0  0  0  0
   18.7594   -8.9971  -14.8547 O   0  0  0  0  0  0  0  0  0  0  0  0
   24.8559  -12.1474  -14.9614 C   0  0  0  0  0  0  0  0  0  0  0  0
   24.6535  -10.3644  -14.9889 S   0  0  0  0  0  0  0  0  0  0  0  0
   22.9336   -9.8547  -14.8807 C   0  0  0  0  0  0  0  0  0  0  0  0
   22.7174   -8.3790  -14.9584 C   0  0  0  0  0  0  0  0  0  0  0  0
   21.2413   -7.9777  -14.9253 C   0  0  2  0  0  0  0  0  0  0  0  0
   20.5624   -8.4413  -16.1089 N   0  0  0  0  0  0  0  0  0  0  0  0
   21.2313   -6.5144  -14.8230 C   0  0  0  0  0  0  0  0  0  0  0  0
   20.8413   -5.7835  -15.7940 O   0  0  0  0  0  0  0  0  0  0  0  0
   21.6368   -5.8700  -13.6852 O   0  0  0  0  0  0  0  0  0  0  0  0
  1  2  1  0
  2  3  2  0
  2  4  1  0
  5  6  1  6
  5  4  1  0
  7  5  1  0
  8  7  2  0
 10  9  1  6
 10 12  1  0
 11 10  1  0
 13 12  1  1
 13 14  1  0
 14  7  1  0
 15 13  1  0
 15 16  2  0
 18 17  1  0
 19 20  1  0
 19 18  1  0
 21 20  1  6
 21 22  1  0
 22 15  1  0
 23 21  1  0
 24 23  2  0
 25 23  1  0
M  END
$$$$
