NLM.pdb
     RDKit          3D

 25 24  0  0  1  0  0  0  0  0999 V2000
   20.5622  -21.3838   -9.5927 N   0  0  0  0  0  0  0  0  0  0  0  0
   21.3670  -20.3052   -9.1827 C   0  0  0  0  0  0  0  0  0  0  0  0
   21.1904  -19.7862   -8.0673 O   0  0  0  0  0  0  0  0  0  0  0  0
   22.4186  -19.7913  -10.0754 C   0  0  0  0  0  0  0  0  0  0  0  0
   22.4259  -20.4581  -11.4287 C   0  0  2  0  0  0  0  0  0  0  0  0
   22.8361  -21.8447  -11.3474 N   0  0  0  0  0  0  0  0  0  0  0  0
   23.3469  -19.7741  -12.3752 C   0  0  0  0  0  0  0  0  0  0  0  0
   23.1356  -18.5683  -12.7475 O   0  0  0  0  0  0  0  0  0  0  0  0
   28.6376  -21.4481  -14.9737 C   0  0  0  0  0  0  0  0  0  0  0  0
   27.6109  -20.3777  -14.9517 C   0  0  2  0  0  0  0  0  0  0  0  0
   28.3374  -19.0775  -14.5273 C   0  0  0  0  0  0  0  0  0  0  0  0
   26.5238  -20.5771  -14.0050 C   0  0  0  0  0  0  0  0  0  0  0  0
   25.3139  -19.6991  -13.9808 C   0  0  2  0  0  0  0  0  0  0  0  0
   24.4872  -20.3815  -12.9186 N   0  0  0  0  0  0  0  0  0  0  0  0
   24.4828  -19.7976  -15.1724 C   0  0  0  0  0  0  0  0  0  0  0  0
   24.7233  -18.9943  -16.1485 O   0  0  0  0  0  0  0  0  0  0  0  0
   18.9926  -23.3694  -19.7645 C   0  0  0  0  0  0  0  0  0  0  0  0
   19.8151  -23.2884  -18.1715 S   0  0  0  0  0  0  0  0  0  0  0  0
   21.0138  -21.9533  -18.0711 C   0  0  0  0  0  0  0  0  0  0  0  0
   21.7732  -21.8961  -16.7863 C   0  0  0  0  0  0  0  0  0  0  0  0
   22.7271  -20.7033  -16.6960 C   0  0  2  0  0  0  0  0  0  0  0  0
   23.4128  -20.6963  -15.4286 N   0  0  0  0  0  0  0  0  0  0  0  0
   21.8895  -19.5124  -16.8748 C   0  0  0  0  0  0  0  0  0  0  0  0
   21.6589  -19.0306  -18.0341 O   0  0  0  0  0  0  0  0  0  0  0  0
   21.3187  -18.8679  -15.8103 O   0  0  0  0  0  0  0  0  0  0  0  0
  1  2  1  0
  2  3  2  0
  2  4  1  0
  5  6  1  1
  5  4  1  0
  7  5  1  0
  8  7  2  0
 10  9  1  1
 10 12  1  0
 11 10  1  0
 13 12  1  6
 13 14  1  0
 14  7  1  0
 15 13  1  0
 15 16  2  0
 18 17  1  0
 19 20  1  0
 19 18  1  0
 21 20  1  1
 21 22  1  0
 22 15  1  0
 23 21  1  0
 24 23  2  0
 25 23  1  0
M  END
$$$$
