NLM.pdb
     RDKit          3D

 25 24  0  0  1  0  0  0  0  0999 V2000
   26.2872  -25.8482  -17.9032 N   0  0  0  0  0  0  0  0  0  0  0  0
   26.7249  -25.0019  -16.8681 C   0  0  0  0  0  0  0  0  0  0  0  0
   27.8974  -25.0715  -16.4619 O   0  0  0  0  0  0  0  0  0  0  0  0
   25.7936  -24.0338  -16.2663 C   0  0  0  0  0  0  0  0  0  0  0  0
   25.1628  -24.5322  -14.9897 C   0  0  2  0  0  0  0  0  0  0  0  0
   24.1610  -25.5476  -15.2408 N   0  0  0  0  0  0  0  0  0  0  0  0
   24.5056  -23.4329  -14.2338 C   0  0  0  0  0  0  0  0  0  0  0  0
   23.2985  -23.0893  -14.4832 O   0  0  0  0  0  0  0  0  0  0  0  0
   26.1914  -20.1907   -9.3173 C   0  0  0  0  0  0  0  0  0  0  0  0
   25.1436  -20.3119  -10.3602 C   0  0  2  0  0  0  0  0  0  0  0  0
   23.8271  -20.6643   -9.6247 C   0  0  0  0  0  0  0  0  0  0  0  0
   25.3647  -21.3591  -11.3463 C   0  0  0  0  0  0  0  0  0  0  0  0
   24.4461  -21.5711  -12.5067 C   0  0  2  0  0  0  0  0  0  0  0  0
   25.1408  -22.7072  -13.2167 N   0  0  0  0  0  0  0  0  0  0  0  0
   24.4674  -20.4949  -13.4874 C   0  0  0  0  0  0  0  0  0  0  0  0
   25.6028  -20.1490  -13.9845 O   0  0  0  0  0  0  0  0  0  0  0  0
   26.2645  -20.9133  -18.7416 C   0  0  0  0  0  0  0  0  0  0  0  0
   24.6799  -20.1252  -19.0395 S   0  0  0  0  0  0  0  0  0  0  0  0
   24.1302  -19.1169  -17.6573 C   0  0  0  0  0  0  0  0  0  0  0  0
   23.9924  -19.8552  -16.3664 C   0  0  0  0  0  0  0  0  0  0  0  0
   23.4961  -18.9790  -15.2144 C   0  0  2  0  0  0  0  0  0  0  0  0
   23.3722  -19.7527  -14.0050 N   0  0  0  0  0  0  0  0  0  0  0  0
   22.2061  -18.4382  -15.6560 C   0  0  0  0  0  0  0  0  0  0  0  0
   21.1092  -18.8226  -15.1282 O   0  0  0  0  0  0  0  0  0  0  0  0
   22.1213  -17.4997  -16.6491 O   0  0  0  0  0  0  0  0  0  0  0  0
  1  2  1  0
  2  3  2  0
  2  4  1  0
  5  6  1  6
  5  4  1  0
  7  5  1  0
  8  7  2  0
 10  9  1  1
 10 12  1  0
 11 10  1  0
 13 12  1  1
 13 14  1  0
 14  7  1  0
 15 13  1  0
 15 16  2  0
 18 17  1  0
 19 20  1  0
 19 18  1  0
 21 20  1  6
 21 22  1  0
 22 15  1  0
 23 21  1  0
 24 23  2  0
 25 23  1  0
M  END
$$$$
