NLM.pdb
     RDKit          3D

 25 24  0  0  1  0  0  0  0  0999 V2000
   19.9711  -19.5325  -17.8801 N   0  0  0  0  0  0  0  0  0  0  0  0
   19.6440  -18.1795  -18.0839 C   0  0  0  0  0  0  0  0  0  0  0  0
   18.7926  -17.8667  -18.9336 O   0  0  0  0  0  0  0  0  0  0  0  0
   20.3103  -17.1342  -17.2901 C   0  0  0  0  0  0  0  0  0  0  0  0
   21.3603  -17.6791  -16.3539 C   0  0  2  0  0  0  0  0  0  0  0  0
   20.7733  -18.3788  -15.2298 N   0  0  0  0  0  0  0  0  0  0  0  0
   22.2247  -16.5996  -15.8067 C   0  0  0  0  0  0  0  0  0  0  0  0
   22.0964  -16.1994  -14.5981 O   0  0  0  0  0  0  0  0  0  0  0  0
   26.4918  -16.2912  -14.5531 C   0  0  0  0  0  0  0  0  0  0  0  0
   26.1279  -16.3202  -15.9909 C   0  0  2  0  0  0  0  0  0  0  0  0
   27.4582  -16.3644  -16.7824 C   0  0  0  0  0  0  0  0  0  0  0  0
   25.3943  -15.1586  -16.4709 C   0  0  0  0  0  0  0  0  0  0  0  0
   24.0260  -14.8165  -15.9748 C   0  0  2  0  0  0  0  0  0  0  0  0
   23.2202  -15.9540  -16.5527 N   0  0  0  0  0  0  0  0  0  0  0  0
   23.4437  -13.6370  -16.5995 C   0  0  0  0  0  0  0  0  0  0  0  0
   23.9185  -12.4843  -16.2807 O   0  0  0  0  0  0  0  0  0  0  0  0
   19.3272   -9.8160  -22.2413 C   0  0  0  0  0  0  0  0  0  0  0  0
   19.7991  -11.3886  -21.5168 S   0  0  0  0  0  0  0  0  0  0  0  0
   20.7579  -11.2033  -20.0082 C   0  0  0  0  0  0  0  0  0  0  0  0
   21.2112  -12.4892  -19.3988 C   0  0  0  0  0  0  0  0  0  0  0  0
   21.9035  -12.3108  -18.0460 C   0  0  2  0  0  0  0  0  0  0  0  0
   22.3966  -13.5736  -17.5575 N   0  0  0  0  0  0  0  0  0  0  0  0
   20.8898  -11.7346  -17.1559 C   0  0  0  0  0  0  0  0  0  0  0  0
   20.1087  -12.4762  -16.4709 O   0  0  0  0  0  0  0  0  0  0  0  0
   20.7379  -10.3809  -17.0195 O   0  0  0  0  0  0  0  0  0  0  0  0
  1  2  1  0
  2  3  2  0
  2  4  1  0
  5  6  1  1
  5  4  1  0
  7  5  1  0
  8  7  2  0
 10  9  1  1
 10 12  1  0
 11 10  1  0
 13 12  1  6
 13 14  1  0
 14  7  1  0
 15 13  1  0
 15 16  2  0
 18 17  1  0
 19 20  1  0
 19 18  1  0
 21 20  1  6
 21 22  1  0
 22 15  1  0
 23 21  1  0
 24 23  2  0
 25 23  1  0
M  END
$$$$
