NLM.pdb
     RDKit          3D

 25 24  0  0  1  0  0  0  0  0999 V2000
   14.9958   -9.2314  -19.2632 N   0  0  0  0  0  0  0  0  0  0  0  0
   16.3495   -9.6138  -19.2440 C   0  0  0  0  0  0  0  0  0  0  0  0
   16.8299  -10.2488  -20.1982 O   0  0  0  0  0  0  0  0  0  0  0  0
   17.1970   -9.2615  -18.0931 C   0  0  0  0  0  0  0  0  0  0  0  0
   17.8385  -10.4605  -17.4398 C   0  0  2  0  0  0  0  0  0  0  0  0
   16.8725  -11.2706  -16.7267 N   0  0  0  0  0  0  0  0  0  0  0  0
   18.8913  -10.0614  -16.4682 C   0  0  0  0  0  0  0  0  0  0  0  0
   18.5883   -9.6844  -15.2836 O   0  0  0  0  0  0  0  0  0  0  0  0
   24.7294  -11.5124  -16.0544 C   0  0  0  0  0  0  0  0  0  0  0  0
   23.7259  -10.5682  -15.5048 C   0  0  2  0  0  0  0  0  0  0  0  0
   23.5627  -10.9204  -14.0056 C   0  0  0  0  0  0  0  0  0  0  0  0
   22.4008  -10.6517  -16.1005 C   0  0  0  0  0  0  0  0  0  0  0  0
   21.2963   -9.7156  -15.7271 C   0  0  2  0  0  0  0  0  0  0  0  0
   20.2606  -10.0670  -16.7670 N   0  0  0  0  0  0  0  0  0  0  0  0
   21.5863   -8.3145  -15.9975 C   0  0  0  0  0  0  0  0  0  0  0  0
   21.5397   -7.9094  -17.2180 O   0  0  0  0  0  0  0  0  0  0  0  0
   19.6104   -1.5574  -17.7787 C   0  0  0  0  0  0  0  0  0  0  0  0
   19.4197   -3.2634  -17.2552 S   0  0  0  0  0  0  0  0  0  0  0  0
   20.9101   -3.9364  -16.5100 C   0  0  0  0  0  0  0  0  0  0  0  0
   20.8268   -5.3846  -16.1544 C   0  0  0  0  0  0  0  0  0  0  0  0
   22.1000   -5.9245  -15.4997 C   0  0  2  0  0  0  0  0  0  0  0  0
   21.9120   -7.2875  -15.0715 N   0  0  0  0  0  0  0  0  0  0  0  0
   22.3765   -5.0271  -14.3728 C   0  0  0  0  0  0  0  0  0  0  0  0
   22.1324   -5.3771  -13.1698 O   0  0  0  0  0  0  0  0  0  0  0  0
   22.9079   -3.7794  -14.5602 O   0  0  0  0  0  0  0  0  0  0  0  0
  1  2  1  0
  2  3  2  0
  2  4  1  0
  5  6  1  1
  5  4  1  0
  7  5  1  0
  8  7  2  0
 10  9  1  6
 10 12  1  0
 11 10  1  0
 13 12  1  6
 13 14  1  0
 14  7  1  0
 15 13  1  0
 15 16  2  0
 18 17  1  0
 19 20  1  0
 19 18  1  0
 21 20  1  1
 21 22  1  0
 22 15  1  0
 23 21  1  0
 24 23  2  0
 25 23  1  0
M  END
$$$$
