NLM.pdb
     RDKit          3D

 25 24  0  0  1  0  0  0  0  0999 V2000
   21.8724  -22.3034  -13.3242 N   0  0  0  0  0  0  0  0  0  0  0  0
   21.2589  -21.7310  -12.1951 C   0  0  0  0  0  0  0  0  0  0  0  0
   20.0200  -21.7252  -12.0964 O   0  0  0  0  0  0  0  0  0  0  0  0
   22.0848  -21.1387  -11.1303 C   0  0  0  0  0  0  0  0  0  0  0  0
   23.5654  -21.3114  -11.3626 C   0  0  2  0  0  0  0  0  0  0  0  0
   24.0219  -22.6340  -10.9883 N   0  0  0  0  0  0  0  0  0  0  0  0
   24.3639  -20.3262  -10.5857 C   0  0  0  0  0  0  0  0  0  0  0  0
   24.2226  -19.0681  -10.7713 O   0  0  0  0  0  0  0  0  0  0  0  0
   26.9388  -21.6169   -5.6776 C   0  0  0  0  0  0  0  0  0  0  0  0
   27.2541  -20.7893   -6.8676 C   0  0  2  0  0  0  0  0  0  0  0  0
   28.1760  -19.6452   -6.3782 C   0  0  0  0  0  0  0  0  0  0  0  0
   26.1097  -20.1588   -7.5084 C   0  0  0  0  0  0  0  0  0  0  0  0
   26.1579  -19.6576   -8.9162 C   0  0  2  0  0  0  0  0  0  0  0  0
   25.3082  -20.6899   -9.6159 N   0  0  0  0  0  0  0  0  0  0  0  0
   27.4588  -19.8000   -9.5548 C   0  0  0  0  0  0  0  0  0  0  0  0
   28.4999  -19.4140   -8.9044 O   0  0  0  0  0  0  0  0  0  0  0  0
   32.7257  -21.6496   -8.3260 C   0  0  0  0  0  0  0  0  0  0  0  0
   32.4438  -22.4326   -9.9160 S   0  0  0  0  0  0  0  0  0  0  0  0
   31.3621  -21.4748  -10.9846 C   0  0  0  0  0  0  0  0  0  0  0  0
   29.9705  -21.3067  -10.4692 C   0  0  0  0  0  0  0  0  0  0  0  0
   29.1094  -20.3824  -11.3325 C   0  0  2  0  0  0  0  0  0  0  0  0
   27.7575  -20.3372  -10.8356 N   0  0  0  0  0  0  0  0  0  0  0  0
   29.1781  -20.9322  -12.6907 C   0  0  0  0  0  0  0  0  0  0  0  0
   28.1266  -21.3089  -13.3086 O   0  0  0  0  0  0  0  0  0  0  0  0
   30.3683  -21.0639  -13.3542 O   0  0  0  0  0  0  0  0  0  0  0  0
  1  2  1  0
  2  3  2  0
  2  4  1  0
  5  6  1  1
  5  4  1  0
  7  5  1  0
  8  7  2  0
 10  9  1  1
 10 12  1  0
 11 10  1  0
 13 12  1  1
 13 14  1  0
 14  7  1  0
 15 13  1  0
 15 16  2  0
 18 17  1  0
 19 20  1  0
 19 18  1  0
 21 20  1  1
 21 22  1  0
 22 15  1  0
 23 21  1  0
 24 23  2  0
 25 23  1  0
M  END
$$$$
