NLM.pdb
     RDKit          3D

 25 24  0  0  1  0  0  0  0  0999 V2000
   22.9626  -23.0005  -19.9817 N   0  0  0  0  0  0  0  0  0  0  0  0
   23.2824  -21.6433  -19.7945 C   0  0  0  0  0  0  0  0  0  0  0  0
   23.5713  -20.9319  -20.7717 O   0  0  0  0  0  0  0  0  0  0  0  0
   23.2746  -21.0660  -18.4404 C   0  0  0  0  0  0  0  0  0  0  0  0
   24.5512  -20.3384  -18.0985 C   0  0  2  0  0  0  0  0  0  0  0  0
   25.6296  -21.2536  -17.7866 N   0  0  0  0  0  0  0  0  0  0  0  0
   24.3760  -19.4383  -16.9276 C   0  0  0  0  0  0  0  0  0  0  0  0
   24.4215  -19.8928  -15.7323 O   0  0  0  0  0  0  0  0  0  0  0  0
   26.7013  -16.5248  -17.3149 C   0  0  0  0  0  0  0  0  0  0  0  0
   25.9517  -15.6396  -16.3903 C   0  0  2  0  0  0  0  0  0  0  0  0
   26.5267  -15.8914  -14.9745 C   0  0  0  0  0  0  0  0  0  0  0  0
   24.5205  -15.8912  -16.3109 C   0  0  0  0  0  0  0  0  0  0  0  0
   23.9632  -17.1892  -15.8213 C   0  0  2  0  0  0  0  0  0  0  0  0
   24.1533  -18.0591  -17.0398 N   0  0  0  0  0  0  0  0  0  0  0  0
   22.5195  -17.1834  -15.6310 C   0  0  0  0  0  0  0  0  0  0  0  0
   22.0457  -16.5792  -14.5983 O   0  0  0  0  0  0  0  0  0  0  0  0
   16.9082  -16.2523  -19.7456 C   0  0  0  0  0  0  0  0  0  0  0  0
   16.7829  -17.6598  -18.6392 S   0  0  0  0  0  0  0  0  0  0  0  0
   17.8152  -17.4937  -17.1776 C   0  0  0  0  0  0  0  0  0  0  0  0
   19.2693  -17.7399  -17.4134 C   0  0  0  0  0  0  0  0  0  0  0  0
   20.1189  -17.6261  -16.1460 C   0  0  2  0  0  0  0  0  0  0  0  0
   21.5192  -17.7583  -16.4598 N   0  0  0  0  0  0  0  0  0  0  0  0
   19.6508  -18.6960  -15.2584 C   0  0  0  0  0  0  0  0  0  0  0  0
   20.3313  -19.7623  -15.0873 O   0  0  0  0  0  0  0  0  0  0  0  0
   18.4683  -18.5985  -14.5755 O   0  0  0  0  0  0  0  0  0  0  0  0
  1  2  1  0
  2  3  2  0
  2  4  1  0
  5  6  1  1
  5  4  1  0
  7  5  1  0
  8  7  2  0
 10  9  1  6
 10 12  1  0
 11 10  1  0
 13 12  1  6
 13 14  1  0
 14  7  1  0
 15 13  1  0
 15 16  2  0
 18 17  1  0
 19 20  1  0
 19 18  1  0
 21 20  1  6
 21 22  1  0
 22 15  1  0
 23 21  1  0
 24 23  2  0
 25 23  1  0
M  END
$$$$
