NLM.pdb
     RDKit          3D

 25 24  0  0  1  0  0  0  0  0999 V2000
   26.6316  -15.5604  -16.0818 N   0  0  0  0  0  0  0  0  0  0  0  0
   27.1623  -16.3307  -17.1325 C   0  0  0  0  0  0  0  0  0  0  0  0
   27.6893  -15.7712  -18.1092 O   0  0  0  0  0  0  0  0  0  0  0  0
   27.0934  -17.8000  -17.0749 C   0  0  0  0  0  0  0  0  0  0  0  0
   26.3645  -18.3123  -15.8574 C   0  0  2  0  0  0  0  0  0  0  0  0
   26.3329  -17.3314  -14.7922 N   0  0  0  0  0  0  0  0  0  0  0  0
   26.9976  -19.5431  -15.3132 C   0  0  0  0  0  0  0  0  0  0  0  0
   27.0700  -20.6128  -16.0115 O   0  0  0  0  0  0  0  0  0  0  0  0
   30.5181  -20.7369  -10.4904 C   0  0  0  0  0  0  0  0  0  0  0  0
   29.6653  -21.3843  -11.5170 C   0  0  2  0  0  0  0  0  0  0  0  0
   30.5962  -22.2972  -12.3527 C   0  0  0  0  0  0  0  0  0  0  0  0
   29.0201  -20.4760  -12.4533 C   0  0  0  0  0  0  0  0  0  0  0  0
   28.0029  -20.9409  -13.4455 C   0  0  2  0  0  0  0  0  0  0  0  0
   27.5491  -19.6244  -14.0272 N   0  0  0  0  0  0  0  0  0  0  0  0
   26.7911  -21.4825  -12.8467 C   0  0  0  0  0  0  0  0  0  0  0  0
   26.8336  -22.6737  -12.3618 O   0  0  0  0  0  0  0  0  0  0  0  0
   26.5956  -19.2204   -7.8005 C   0  0  0  0  0  0  0  0  0  0  0  0
   25.0743  -20.1407   -7.5568 S   0  0  0  0  0  0  0  0  0  0  0  0
   24.4120  -20.8135   -9.0859 C   0  0  0  0  0  0  0  0  0  0  0  0
   25.2720  -20.5899  -10.2863 C   0  0  0  0  0  0  0  0  0  0  0  0
   24.6694  -21.1452  -11.5784 C   0  0  2  0  0  0  0  0  0  0  0  0
   25.5240  -20.8566  -12.7022 N   0  0  0  0  0  0  0  0  0  0  0  0
   23.3553  -20.5066  -11.7084 C   0  0  0  0  0  0  0  0  0  0  0  0
   22.4164  -20.7440  -10.8769 O   0  0  0  0  0  0  0  0  0  0  0  0
   23.0786  -19.6297  -12.7227 O   0  0  0  0  0  0  0  0  0  0  0  0
  1  2  1  0
  2  3  2  0
  2  4  1  0
  5  6  1  1
  5  4  1  0
  7  5  1  0
  8  7  2  0
 10  9  1  1
 10 12  1  0
 11 10  1  0
 13 12  1  1
 13 14  1  0
 14  7  1  0
 15 13  1  0
 15 16  2  0
 18 17  1  0
 19 20  1  0
 19 18  1  0
 21 20  1  1
 21 22  1  0
 22 15  1  0
 23 21  1  0
 24 23  2  0
 25 23  1  0
M  END
$$$$
