NLM.pdb
     RDKit          3D

 25 24  0  0  1  0  0  0  0  0999 V2000
   24.9191  -15.0179  -17.0851 N   0  0  0  0  0  0  0  0  0  0  0  0
   23.5782  -15.4259  -16.9637 C   0  0  0  0  0  0  0  0  0  0  0  0
   22.6616  -14.5971  -17.0957 O   0  0  0  0  0  0  0  0  0  0  0  0
   23.2611  -16.8352  -16.6804 C   0  0  0  0  0  0  0  0  0  0  0  0
   24.4845  -17.6760  -16.4115 C   0  0  2  0  0  0  0  0  0  0  0  0
   25.1033  -18.1394  -17.6363 N   0  0  0  0  0  0  0  0  0  0  0  0
   24.1605  -18.8747  -15.5929 C   0  0  0  0  0  0  0  0  0  0  0  0
   23.4972  -19.8516  -16.0858 O   0  0  0  0  0  0  0  0  0  0  0  0
   26.0079  -20.6451  -10.0497 C   0  0  0  0  0  0  0  0  0  0  0  0
   25.1305  -21.0365  -11.1799 C   0  0  2  0  0  0  0  0  0  0  0  0
   25.6059  -22.4353  -11.6443 C   0  0  0  0  0  0  0  0  0  0  0  0
   25.1906  -20.1665  -12.3449 C   0  0  0  0  0  0  0  0  0  0  0  0
   24.2105  -20.2678  -13.4694 C   0  0  2  0  0  0  0  0  0  0  0  0
   24.5463  -19.0230  -14.2537 N   0  0  0  0  0  0  0  0  0  0  0  0
   22.8255  -20.0554  -13.0731 C   0  0  0  0  0  0  0  0  0  0  0  0
   22.4352  -18.8492  -12.8527 O   0  0  0  0  0  0  0  0  0  0  0  0
   19.0778  -15.8599  -13.0454 C   0  0  0  0  0  0  0  0  0  0  0  0
   18.5052  -17.1724  -14.1272 S   0  0  0  0  0  0  0  0  0  0  0  0
   18.7777  -18.8113  -13.4422 C   0  0  0  0  0  0  0  0  0  0  0  0
   20.1952  -19.2786  -13.4956 C   0  0  0  0  0  0  0  0  0  0  0  0
   20.4122  -20.6404  -12.8329 C   0  0  2  0  0  0  0  0  0  0  0  0
   21.7998  -21.0233  -12.9018 N   0  0  0  0  0  0  0  0  0  0  0  0
   19.5468  -21.5762  -13.5590 C   0  0  0  0  0  0  0  0  0  0  0  0
   20.0285  -22.4223  -14.3843 O   0  0  0  0  0  0  0  0  0  0  0  0
   18.1891  -21.5846  -13.3834 O   0  0  0  0  0  0  0  0  0  0  0  0
  1  2  1  0
  2  3  2  0
  2  4  1  0
  5  6  1  6
  5  4  1  0
  7  5  1  0
  8  7  2  0
 10  9  1  1
 10 12  1  0
 11 10  1  0
 13 12  1  1
 13 14  1  0
 14  7  1  0
 15 13  1  0
 15 16  2  0
 18 17  1  0
 19 20  1  0
 19 18  1  0
 21 20  1  6
 21 22  1  0
 22 15  1  0
 23 21  1  0
 24 23  2  0
 25 23  1  0
M  END
$$$$
