GYI.pdb
     RDKit          3D

 25 25  0  0  1  0  0  0  0  0999 V2000
   29.3303  -23.1817  -17.8287 N   0  0  0  0  0  0  0  0  0  0  0  0
   28.9902  -21.9142  -17.2243 C   0  0  0  0  0  0  0  0  0  0  0  0
   28.0370  -22.1131  -16.1122 C   0  0  0  0  0  0  0  0  0  0  0  0
   27.5326  -23.2485  -15.9236 O   0  0  0  0  0  0  0  0  0  0  0  0
   23.6776  -20.5733   -8.4926 O   0  0  0  0  0  0  0  0  0  0  0  0
   24.4953  -20.5162   -9.6139 C   0  0  0  0  0  0  0  0  0  0  0  0
   25.7755  -21.0266   -9.5927 C   0  0  0  0  0  0  0  0  0  0  0  0
   26.6221  -20.9923  -10.6802 C   0  0  0  0  0  0  0  0  0  0  0  0
   26.2146  -20.4306  -11.8720 C   0  0  0  0  0  0  0  0  0  0  0  0
   27.0542  -20.3781  -13.0583 C   0  0  0  0  0  0  0  0  0  0  0  0
   26.6907  -21.2692  -14.2101 C   0  0  2  0  0  0  0  0  0  0  0  0
   27.7079  -21.0233  -15.2787 N   0  0  0  0  0  0  0  0  0  0  0  0
   25.3543  -20.9838  -14.7568 C   0  0  0  0  0  0  0  0  0  0  0  0
   25.2843  -19.9518  -15.5271 O   0  0  0  0  0  0  0  0  0  0  0  0
   24.9099  -19.9124  -11.8869 C   0  0  0  0  0  0  0  0  0  0  0  0
   24.0750  -19.9510  -10.7991 C   0  0  0  0  0  0  0  0  0  0  0  0
   20.7817  -22.4934  -18.0338 C   0  0  0  0  0  0  0  0  0  0  0  0
   21.1951  -21.6747  -16.8538 C   0  0  0  0  0  0  0  0  0  0  0  0
   22.4937  -22.1645  -16.2445 C   0  0  2  0  0  0  0  0  0  0  0  0
   22.3428  -23.5317  -15.6262 C   0  0  0  0  0  0  0  0  0  0  0  0
   22.9459  -21.2306  -15.1205 C   0  0  2  0  0  0  0  0  0  0  0  0
   24.1702  -21.7305  -14.5228 N   0  0  0  0  0  0  0  0  0  0  0  0
   21.8662  -21.2760  -14.1158 C   0  0  0  0  0  0  0  0  0  0  0  0
   21.9518  -22.0953  -13.1704 O   0  0  0  0  0  0  0  0  0  0  0  0
   20.7513  -20.4207  -14.2010 O   0  0  0  0  0  0  0  0  0  0  0  0
  2  3  1  0
  2  1  1  0
  3  4  2  0
  6  7  2  0
  6  5  1  0
  8  7  1  0
  9  8  2  0
 10  9  1  0
 11 10  1  1
 12 11  1  0
 12  3  1  0
 13 22  1  0
 13 11  1  0
 14 13  2  0
 15  9  1  0
 15 16  2  0
 16  6  1  0
 18 17  1  0
 19 20  1  1
 19 18  1  0
 21 19  1  0
 21 22  1  1
 23 25  1  0
 23 21  1  0
 24 23  2  0
M  END
$$$$
