GYI.pdb
     RDKit          3D

 25 25  0  0  1  0  0  0  0  0999 V2000
   27.5831  -24.7426  -16.9232 N   0  0  0  0  0  0  0  0  0  0  0  0
   27.4739  -23.3577  -16.5262 C   0  0  0  0  0  0  0  0  0  0  0  0
   26.3803  -23.1871  -15.5466 C   0  0  0  0  0  0  0  0  0  0  0  0
   25.5749  -24.1307  -15.3462 O   0  0  0  0  0  0  0  0  0  0  0  0
   22.2846  -19.9358   -8.2986 O   0  0  0  0  0  0  0  0  0  0  0  0
   23.1130  -20.1888   -9.3843 C   0  0  0  0  0  0  0  0  0  0  0  0
   22.7615  -19.7991  -10.6588 C   0  0  0  0  0  0  0  0  0  0  0  0
   23.5510  -20.0284  -11.7654 C   0  0  0  0  0  0  0  0  0  0  0  0
   24.7626  -20.6759  -11.6435 C   0  0  0  0  0  0  0  0  0  0  0  0
   25.6471  -20.9334  -12.7689 C   0  0  0  0  0  0  0  0  0  0  0  0
   25.1621  -21.8692  -13.8374 C   0  0  2  0  0  0  0  0  0  0  0  0
   26.2576  -21.9659  -14.8510 N   0  0  0  0  0  0  0  0  0  0  0  0
   23.9412  -21.3921  -14.5069 C   0  0  0  0  0  0  0  0  0  0  0  0
   24.0958  -20.3560  -15.2592 O   0  0  0  0  0  0  0  0  0  0  0  0
   25.1147  -21.0704  -10.3431 C   0  0  0  0  0  0  0  0  0  0  0  0
   24.3218  -20.8377   -9.2481 C   0  0  0  0  0  0  0  0  0  0  0  0
   21.4561  -23.2691  -18.3401 C   0  0  0  0  0  0  0  0  0  0  0  0
   21.9735  -22.3517  -17.2799 C   0  0  0  0  0  0  0  0  0  0  0  0
   20.9651  -22.1351  -16.1691 C   0  0  2  0  0  0  0  0  0  0  0  0
   19.7332  -21.4181  -16.6615 C   0  0  0  0  0  0  0  0  0  0  0  0
   21.5612  -21.2595  -15.0653 C   0  0  2  0  0  0  0  0  0  0  0  0
   22.6457  -21.9629  -14.4057 N   0  0  0  0  0  0  0  0  0  0  0  0
   20.4663  -21.0484  -14.0991 C   0  0  0  0  0  0  0  0  0  0  0  0
   19.7473  -20.0272  -14.2111 O   0  0  0  0  0  0  0  0  0  0  0  0
   20.2180  -21.9680  -13.0624 O   0  0  0  0  0  0  0  0  0  0  0  0
  2  3  1  0
  2  1  1  0
  3  4  2  0
  6  7  2  0
  6  5  1  0
  8  7  1  0
  9  8  2  0
 10  9  1  0
 11 10  1  1
 12 11  1  0
 12  3  1  0
 13 22  1  0
 13 11  1  0
 14 13  2  0
 15  9  1  0
 15 16  2  0
 16  6  1  0
 18 17  1  0
 19 20  1  6
 19 18  1  0
 21 19  1  0
 21 22  1  1
 23 25  1  0
 23 21  1  0
 24 23  2  0
M  END
$$$$
