GYI.pdb
     RDKit          3D

 25 25  0  0  1  0  0  0  0  0999 V2000
   19.2630  -14.4859  -19.5437 N   0  0  0  0  0  0  0  0  0  0  0  0
   18.5753  -13.5895  -18.6431 C   0  0  0  0  0  0  0  0  0  0  0  0
   19.1763  -12.2404  -18.7005 C   0  0  0  0  0  0  0  0  0  0  0  0
   20.3651  -12.1072  -19.0855 O   0  0  0  0  0  0  0  0  0  0  0  0
   18.3291   -8.0536  -24.5643 O   0  0  0  0  0  0  0  0  0  0  0  0
   18.2818   -8.2288  -23.1873 C   0  0  0  0  0  0  0  0  0  0  0  0
   17.4200   -9.1369  -22.6106 C   0  0  0  0  0  0  0  0  0  0  0  0
   17.3384   -9.3446  -21.2502 C   0  0  0  0  0  0  0  0  0  0  0  0
   18.1384   -8.6336  -20.3805 C   0  0  0  0  0  0  0  0  0  0  0  0
   18.1106   -8.8179  -18.9381 C   0  0  0  0  0  0  0  0  0  0  0  0
   19.0855   -9.7899  -18.3403 C   0  0  2  0  0  0  0  0  0  0  0  0
   18.4047  -11.1216  -18.3216 N   0  0  0  0  0  0  0  0  0  0  0  0
   19.4741   -9.4399  -16.9645 C   0  0  0  0  0  0  0  0  0  0  0  0
   18.6090   -9.7389  -16.0558 O   0  0  0  0  0  0  0  0  0  0  0  0
   19.0136   -7.7102  -20.9740 C   0  0  0  0  0  0  0  0  0  0  0  0
   19.0872   -7.5106  -22.3292 C   0  0  0  0  0  0  0  0  0  0  0  0
   23.5690  -11.3404  -14.7252 C   0  0  0  0  0  0  0  0  0  0  0  0
   22.2558  -10.7141  -15.0669 C   0  0  0  0  0  0  0  0  0  0  0  0
   22.2093   -9.2449  -14.6970 C   0  0  2  0  0  0  0  0  0  0  0  0
   22.3007   -9.0386  -13.2059 C   0  0  0  0  0  0  0  0  0  0  0  0
   20.8838   -8.6214  -15.1379 C   0  0  2  0  0  0  0  0  0  0  0  0
   20.6886   -8.8262  -16.5613 N   0  0  0  0  0  0  0  0  0  0  0  0
   21.0242   -7.1764  -14.8743 C   0  0  0  0  0  0  0  0  0  0  0  0
   21.0193   -6.7734  -13.6870 O   0  0  0  0  0  0  0  0  0  0  0  0
   21.1630   -6.2510  -15.9261 O   0  0  0  0  0  0  0  0  0  0  0  0
  2  3  1  0
  2  1  1  0
  3  4  2  0
  6  7  2  0
  6  5  1  0
  8  7  1  0
  9  8  2  0
 10  9  1  0
 11 10  1  1
 12 11  1  0
 12  3  1  0
 13 22  1  0
 13 11  1  0
 14 13  2  0
 15  9  1  0
 15 16  2  0
 16  6  1  0
 18 17  1  0
 19 20  1  1
 19 18  1  0
 21 19  1  0
 21 22  1  6
 23 25  1  0
 23 21  1  0
 24 23  2  0
M  END
$$$$
