GYI.pdb
     RDKit          3D

 25 25  0  0  1  0  0  0  0  0999 V2000
   27.6591  -20.3013  -14.5273 N   0  0  0  0  0  0  0  0  0  0  0  0
   28.0405  -20.9546  -13.2963 C   0  0  0  0  0  0  0  0  0  0  0  0
   27.3078  -20.3691  -12.1539 C   0  0  0  0  0  0  0  0  0  0  0  0
   27.0801  -19.1335  -12.1312 O   0  0  0  0  0  0  0  0  0  0  0  0
   21.4796  -19.6657  -14.5365 O   0  0  0  0  0  0  0  0  0  0  0  0
   22.2584  -20.0246  -13.4439 C   0  0  0  0  0  0  0  0  0  0  0  0
   23.0180  -21.1747  -13.4533 C   0  0  0  0  0  0  0  0  0  0  0  0
   23.8054  -21.5706  -12.3932 C   0  0  0  0  0  0  0  0  0  0  0  0
   23.8708  -20.8120  -11.2433 C   0  0  0  0  0  0  0  0  0  0  0  0
   24.6938  -21.1673  -10.0981 C   0  0  0  0  0  0  0  0  0  0  0  0
   26.0696  -20.5731  -10.0167 C   0  0  2  0  0  0  0  0  0  0  0  0
   26.8750  -21.2080  -11.1054 N   0  0  0  0  0  0  0  0  0  0  0  0
   26.7315  -20.8330   -8.7280 C   0  0  0  0  0  0  0  0  0  0  0  0
   27.2155  -22.0202   -8.5880 O   0  0  0  0  0  0  0  0  0  0  0  0
   23.0947  -19.6422  -11.2399 C   0  0  0  0  0  0  0  0  0  0  0  0
   22.3140  -19.2569  -12.3000 C   0  0  0  0  0  0  0  0  0  0  0  0
   29.7138  -17.3824   -5.6524 C   0  0  0  0  0  0  0  0  0  0  0  0
   29.1894  -18.5804   -6.3757 C   0  0  0  0  0  0  0  0  0  0  0  0
   28.0614  -19.2557   -5.6212 C   0  0  2  0  0  0  0  0  0  0  0  0
   28.5338  -19.8467   -4.3167 C   0  0  0  0  0  0  0  0  0  0  0  0
   27.4877  -20.4155   -6.4372 C   0  0  2  0  0  0  0  0  0  0  0  0
   26.8863  -19.9128   -7.6585 N   0  0  0  0  0  0  0  0  0  0  0  0
   26.4344  -21.0068   -5.5898 C   0  0  0  0  0  0  0  0  0  0  0  0
   25.2475  -20.6361   -5.7508 O   0  0  0  0  0  0  0  0  0  0  0  0
   26.7387  -21.9730   -4.6121 O   0  0  0  0  0  0  0  0  0  0  0  0
  2  3  1  0
  2  1  1  0
  3  4  2  0
  6  7  2  0
  6  5  1  0
  8  7  1  0
  9  8  2  0
 10  9  1  0
 11 10  1  1
 12 11  1  0
 12  3  1  0
 13 22  1  0
 13 11  1  0
 14 13  2  0
 15  9  1  0
 15 16  2  0
 16  6  1  0
 18 17  1  0
 19 20  1  1
 19 18  1  0
 21 19  1  0
 21 22  1  6
 23 25  1  0
 23 21  1  0
 24 23  2  0
M  END
$$$$
