GYI.pdb
     RDKit          3D

 25 25  0  0  1  0  0  0  0  0999 V2000
   27.9452  -18.6856  -14.4618 N   0  0  0  0  0  0  0  0  0  0  0  0
   28.0021  -19.8384  -13.5927 C   0  0  0  0  0  0  0  0  0  0  0  0
   27.1916  -19.6084  -12.3782 C   0  0  0  0  0  0  0  0  0  0  0  0
   26.6580  -18.4859  -12.1923 O   0  0  0  0  0  0  0  0  0  0  0  0
   21.1072  -19.6015  -14.4135 O   0  0  0  0  0  0  0  0  0  0  0  0
   22.0413  -20.0110  -13.4707 C   0  0  0  0  0  0  0  0  0  0  0  0
   22.0271  -19.5123  -12.1858 C   0  0  0  0  0  0  0  0  0  0  0  0
   22.9332  -19.8891  -11.2175 C   0  0  0  0  0  0  0  0  0  0  0  0
   23.9221  -20.8082  -11.4986 C   0  0  0  0  0  0  0  0  0  0  0  0
   24.8968  -21.2577  -10.5172 C   0  0  0  0  0  0  0  0  0  0  0  0
   26.1086  -20.4006  -10.2944 C   0  0  2  0  0  0  0  0  0  0  0  0
   27.0295  -20.6544  -11.4454 N   0  0  0  0  0  0  0  0  0  0  0  0
   26.8165  -20.7217   -9.0446 C   0  0  0  0  0  0  0  0  0  0  0  0
   27.4927  -21.8198   -9.0622 O   0  0  0  0  0  0  0  0  0  0  0  0
   23.9314  -21.3120  -12.8089 C   0  0  0  0  0  0  0  0  0  0  0  0
   23.0254  -20.9305  -13.7657 C   0  0  0  0  0  0  0  0  0  0  0  0
   29.2449  -17.3314   -5.4995 C   0  0  0  0  0  0  0  0  0  0  0  0
   28.9019  -18.4947   -6.3726 C   0  0  0  0  0  0  0  0  0  0  0  0
   27.8910  -19.4187   -5.7233 C   0  0  2  0  0  0  0  0  0  0  0  0
   28.4613  -20.1112   -4.5111 C   0  0  0  0  0  0  0  0  0  0  0  0
   27.4721  -20.5243   -6.6941 C   0  0  2  0  0  0  0  0  0  0  0  0
   26.8260  -19.9445   -7.8570 N   0  0  0  0  0  0  0  0  0  0  0  0
   26.4907  -21.3422   -5.9559 C   0  0  0  0  0  0  0  0  0  0  0  0
   26.8962  -22.0939   -5.0378 O   0  0  0  0  0  0  0  0  0  0  0  0
   25.1178  -21.2919   -6.2633 O   0  0  0  0  0  0  0  0  0  0  0  0
  2  3  1  0
  2  1  1  0
  3  4  2  0
  6  7  2  0
  6  5  1  0
  8  7  1  0
  9  8  2  0
 10  9  1  0
 11 10  1  6
 12 11  1  0
 12  3  1  0
 13 22  1  0
 13 11  1  0
 14 13  2  0
 15  9  1  0
 15 16  2  0
 16  6  1  0
 18 17  1  0
 19 20  1  1
 19 18  1  0
 21 19  1  0
 21 22  1  6
 23 25  1  0
 23 21  1  0
 24 23  2  0
M  END
$$$$
