GYI.pdb
     RDKit          3D

 25 25  0  0  1  0  0  0  0  0999 V2000
   16.2804  -12.2651  -17.4961 N   0  0  0  0  0  0  0  0  0  0  0  0
   16.6394  -11.6822  -18.7684 C   0  0  0  0  0  0  0  0  0  0  0  0
   17.5230  -10.5142  -18.5690 C   0  0  0  0  0  0  0  0  0  0  0  0
   18.6862  -10.5285  -19.0445 O   0  0  0  0  0  0  0  0  0  0  0  0
   16.1388   -4.6508  -22.8382 O   0  0  0  0  0  0  0  0  0  0  0  0
   16.3849   -5.2189  -21.5949 C   0  0  0  0  0  0  0  0  0  0  0  0
   15.3625   -5.7391  -20.8308 C   0  0  0  0  0  0  0  0  0  0  0  0
   15.5591   -6.3121  -19.5924 C   0  0  0  0  0  0  0  0  0  0  0  0
   16.8232   -6.3934  -19.0472 C   0  0  0  0  0  0  0  0  0  0  0  0
   17.0976   -6.9995  -17.7540 C   0  0  0  0  0  0  0  0  0  0  0  0
   17.9637   -8.2250  -17.7276 C   0  0  2  0  0  0  0  0  0  0  0  0
   17.0460   -9.4000  -17.8469 N   0  0  0  0  0  0  0  0  0  0  0  0
   18.7363   -8.3549  -16.4816 C   0  0  0  0  0  0  0  0  0  0  0  0
   18.0502   -8.6870  -15.4413 O   0  0  0  0  0  0  0  0  0  0  0  0
   17.8600   -5.8616  -19.8303 C   0  0  0  0  0  0  0  0  0  0  0  0
   17.6541   -5.2931  -21.0616 C   0  0  0  0  0  0  0  0  0  0  0  0
   23.2289  -11.0598  -13.8002 C   0  0  0  0  0  0  0  0  0  0  0  0
   22.2871   -9.9002  -13.7581 C   0  0  0  0  0  0  0  0  0  0  0  0
   21.6548   -9.6276  -15.1084 C   0  0  2  0  0  0  0  0  0  0  0  0
   22.6866   -9.2758  -16.1504 C   0  0  0  0  0  0  0  0  0  0  0  0
   20.7022   -8.4336  -15.0246 C   0  0  2  0  0  0  0  0  0  0  0  0
   20.1341   -8.1597  -16.3316 N   0  0  0  0  0  0  0  0  0  0  0  0
   21.5417   -7.2912  -14.6156 C   0  0  0  0  0  0  0  0  0  0  0  0
   21.9580   -6.4994  -15.4942 O   0  0  0  0  0  0  0  0  0  0  0  0
   21.8793   -7.0778  -13.2656 O   0  0  0  0  0  0  0  0  0  0  0  0
  2  3  1  0
  2  1  1  0
  3  4  2  0
  6  7  2  0
  6  5  1  0
  8  7  1  0
  9  8  2  0
 10  9  1  0
 11 10  1  1
 12 11  1  0
 12  3  1  0
 13 22  1  0
 13 11  1  0
 14 13  2  0
 15  9  1  0
 15 16  2  0
 16  6  1  0
 18 17  1  0
 19 20  1  6
 19 18  1  0
 21 19  1  0
 21 22  1  6
 23 25  1  0
 23 21  1  0
 24 23  2  0
M  END
$$$$
