GYI.pdb
     RDKit          3D

 25 25  0  0  1  0  0  0  0  0999 V2000
   24.1905  -25.3080  -15.2632 N   0  0  0  0  0  0  0  0  0  0  0  0
   25.2464  -24.4993  -14.6988 C   0  0  0  0  0  0  0  0  0  0  0  0
   24.8203  -23.0869  -14.6065 C   0  0  0  0  0  0  0  0  0  0  0  0
   23.7164  -22.7392  -15.0962 O   0  0  0  0  0  0  0  0  0  0  0  0
   22.9368  -21.1823   -7.8476 O   0  0  0  0  0  0  0  0  0  0  0  0
   23.6265  -20.9295   -9.0264 C   0  0  0  0  0  0  0  0  0  0  0  0
   22.9762  -20.4703  -10.1516 C   0  0  0  0  0  0  0  0  0  0  0  0
   23.6187  -20.2059  -11.3423 C   0  0  0  0  0  0  0  0  0  0  0  0
   24.9795  -20.3937  -11.4646 C   0  0  0  0  0  0  0  0  0  0  0  0
   25.7169  -20.1183  -12.6875 C   0  0  0  0  0  0  0  0  0  0  0  0
   25.2061  -20.7252  -13.9617 C   0  0  2  0  0  0  0  0  0  0  0  0
   25.6609  -22.1500  -13.9692 N   0  0  0  0  0  0  0  0  0  0  0  0
   25.7283  -20.0574  -15.1649 C   0  0  0  0  0  0  0  0  0  0  0  0
   27.0140  -19.9921  -15.2433 O   0  0  0  0  0  0  0  0  0  0  0  0
   25.6358  -20.8617  -10.3153 C   0  0  0  0  0  0  0  0  0  0  0  0
   24.9874  -21.1222   -9.1348 C   0  0  0  0  0  0  0  0  0  0  0  0
   25.9346  -19.8929  -21.0468 C   0  0  0  0  0  0  0  0  0  0  0  0
   26.1165  -19.0966  -19.7954 C   0  0  0  0  0  0  0  0  0  0  0  0
   25.4651  -19.7576  -18.5970 C   0  0  2  0  0  0  0  0  0  0  0  0
   23.9713  -19.8777  -18.7655 C   0  0  0  0  0  0  0  0  0  0  0  0
   25.6908  -18.9237  -17.3345 C   0  0  2  0  0  0  0  0  0  0  0  0
   24.9606  -19.5016  -16.2214 N   0  0  0  0  0  0  0  0  0  0  0  0
   25.1305  -17.5932  -17.6390 C   0  0  0  0  0  0  0  0  0  0  0  0
   24.0058  -17.2884  -17.1759 O   0  0  0  0  0  0  0  0  0  0  0  0
   25.8332  -16.6680  -18.4342 O   0  0  0  0  0  0  0  0  0  0  0  0
  2  3  1  0
  2  1  1  0
  3  4  2  0
  6  7  2  0
  6  5  1  0
  8  7  1  0
  9  8  2  0
 10  9  1  0
 11 10  1  1
 12 11  1  0
 12  3  1  0
 13 22  1  0
 13 11  1  0
 14 13  2  0
 15  9  1  0
 15 16  2  0
 16  6  1  0
 18 17  1  0
 19 20  1  6
 19 18  1  0
 21 19  1  0
 21 22  1  1
 23 25  1  0
 23 21  1  0
 24 23  2  0
M  END
$$$$
