GYI.pdb
     RDKit          3D

 25 25  0  0  1  0  0  0  0  0999 V2000
   17.0984   -7.7738  -13.9095 N   0  0  0  0  0  0  0  0  0  0  0  0
   17.2642   -6.6131  -13.0652 C   0  0  0  0  0  0  0  0  0  0  0  0
   16.1749   -6.5410  -12.0687 C   0  0  0  0  0  0  0  0  0  0  0  0
   14.9843   -6.4403  -12.4579 O   0  0  0  0  0  0  0  0  0  0  0  0
   14.0973  -12.8754  -11.0243 O   0  0  0  0  0  0  0  0  0  0  0  0
   14.4552  -11.6386  -10.5032 C   0  0  0  0  0  0  0  0  0  0  0  0
   13.5016  -10.7281  -10.1015 C   0  0  0  0  0  0  0  0  0  0  0  0
   13.8096   -9.4900   -9.5792 C   0  0  0  0  0  0  0  0  0  0  0  0
   15.1227   -9.0958   -9.4304 C   0  0  0  0  0  0  0  0  0  0  0  0
   15.5122   -7.8107   -8.8720 C   0  0  0  0  0  0  0  0  0  0  0  0
   15.3418   -6.5947   -9.7351 C   0  0  2  0  0  0  0  0  0  0  0  0
   16.4895   -6.5865  -10.6941 N   0  0  0  0  0  0  0  0  0  0  0  0
   15.3599   -5.3391   -8.9674 C   0  0  0  0  0  0  0  0  0  0  0  0
   16.4420   -5.1174   -8.3014 O   0  0  0  0  0  0  0  0  0  0  0  0
   16.0890  -10.0275   -9.8416 C   0  0  0  0  0  0  0  0  0  0  0  0
   15.7724  -11.2572  -10.3605 C   0  0  0  0  0  0  0  0  0  0  0  0
   14.7412   -0.5906  -10.8914 C   0  0  0  0  0  0  0  0  0  0  0  0
   15.0684   -1.8118  -10.0946 C   0  0  0  0  0  0  0  0  0  0  0  0
   14.2040   -1.9348   -8.8555 C   0  0  2  0  0  0  0  0  0  0  0  0
   14.4167   -0.7824   -7.9064 C   0  0  0  0  0  0  0  0  0  0  0  0
   14.5566   -3.2042   -8.0781 C   0  0  2  0  0  0  0  0  0  0  0  0
   14.3216   -4.3735   -8.9049 N   0  0  0  0  0  0  0  0  0  0  0  0
   13.6287   -3.2312   -6.9312 C   0  0  0  0  0  0  0  0  0  0  0  0
   12.5641   -3.8864   -7.0279 O   0  0  0  0  0  0  0  0  0  0  0  0
   13.9179   -2.5390   -5.7399 O   0  0  0  0  0  0  0  0  0  0  0  0
  2  3  1  0
  2  1  1  0
  3  4  2  0
  6  7  2  0
  6  5  1  0
  8  7  1  0
  9  8  2  0
 10  9  1  0
 11 10  1  1
 12 11  1  0
 12  3  1  0
 13 22  1  0
 13 11  1  0
 14 13  2  0
 15  9  1  0
 15 16  2  0
 16  6  1  0
 18 17  1  0
 19 20  1  1
 19 18  1  0
 21 19  1  0
 21 22  1  6
 23 25  1  0
 23 21  1  0
 24 23  2  0
M  END
$$$$
