GYI.pdb
     RDKit          3D

 25 25  0  0  1  0  0  0  0  0999 V2000
   29.9295  -23.1379  -15.6471 N   0  0  0  0  0  0  0  0  0  0  0  0
   28.9406  -22.7423  -16.6233 C   0  0  0  0  0  0  0  0  0  0  0  0
   28.0094  -21.7528  -16.0414 C   0  0  0  0  0  0  0  0  0  0  0  0
   28.4244  -20.9493  -15.1688 O   0  0  0  0  0  0  0  0  0  0  0  0
   20.2940  -17.1981  -15.3030 O   0  0  0  0  0  0  0  0  0  0  0  0
   21.3811  -17.9704  -15.6916 C   0  0  0  0  0  0  0  0  0  0  0  0
   21.3248  -19.3474  -15.6702 C   0  0  0  0  0  0  0  0  0  0  0  0
   22.3775  -20.1540  -16.0465 C   0  0  0  0  0  0  0  0  0  0  0  0
   23.5678  -19.6039  -16.4739 C   0  0  0  0  0  0  0  0  0  0  0  0
   24.7084  -20.4000  -16.8984 C   0  0  0  0  0  0  0  0  0  0  0  0
   25.7851  -20.6704  -15.8883 C   0  0  2  0  0  0  0  0  0  0  0  0
   26.6672  -21.7259  -16.4755 N   0  0  0  0  0  0  0  0  0  0  0  0
   25.2572  -21.1582  -14.6038 C   0  0  0  0  0  0  0  0  0  0  0  0
   24.9580  -22.4124  -14.5730 O   0  0  0  0  0  0  0  0  0  0  0  0
   23.6188  -18.2011  -16.4930 C   0  0  0  0  0  0  0  0  0  0  0  0
   22.5656  -17.4070  -16.1163 C   0  0  0  0  0  0  0  0  0  0  0  0
   27.4285  -20.7637   -9.7996 C   0  0  0  0  0  0  0  0  0  0  0  0
   26.6366  -21.2463  -10.9715 C   0  0  0  0  0  0  0  0  0  0  0  0
   25.2432  -20.6506  -11.0046 C   0  0  2  0  0  0  0  0  0  0  0  0
   24.4026  -21.1246   -9.8458 C   0  0  0  0  0  0  0  0  0  0  0  0
   24.5061  -21.0779  -12.2751 C   0  0  2  0  0  0  0  0  0  0  0  0
   25.0621  -20.3907  -13.4260 N   0  0  0  0  0  0  0  0  0  0  0  0
   23.1096  -20.6422  -12.0826 C   0  0  0  0  0  0  0  0  0  0  0  0
   22.2972  -21.4306  -11.5434 O   0  0  0  0  0  0  0  0  0  0  0  0
   22.6787  -19.3657  -12.4911 O   0  0  0  0  0  0  0  0  0  0  0  0
  2  3  1  0
  2  1  1  0
  3  4  2  0
  6  7  2  0
  6  5  1  0
  8  7  1  0
  9  8  2  0
 10  9  1  0
 11 10  1  6
 12 11  1  0
 12  3  1  0
 13 22  1  0
 13 11  1  0
 14 13  2  0
 15  9  1  0
 15 16  2  0
 16  6  1  0
 18 17  1  0
 19 20  1  1
 19 18  1  0
 21 19  1  0
 21 22  1  6
 23 25  1  0
 23 21  1  0
 24 23  2  0
M  END
$$$$
