GYI.pdb
     RDKit          3D

 25 25  0  0  1  0  0  0  0  0999 V2000
   27.9328  -20.8120  -14.8394 N   0  0  0  0  0  0  0  0  0  0  0  0
   27.3954  -21.6822  -13.8189 C   0  0  0  0  0  0  0  0  0  0  0  0
   26.9193  -20.8905  -12.6651 C   0  0  0  0  0  0  0  0  0  0  0  0
   27.0551  -19.6413  -12.6721 O   0  0  0  0  0  0  0  0  0  0  0  0
   21.1699  -19.5189  -15.0459 O   0  0  0  0  0  0  0  0  0  0  0  0
   21.9260  -19.8890  -13.9412 C   0  0  0  0  0  0  0  0  0  0  0  0
   22.1754  -19.0029  -12.9153 C   0  0  0  0  0  0  0  0  0  0  0  0
   22.9197  -19.3254  -11.8006 C   0  0  0  0  0  0  0  0  0  0  0  0
   23.4630  -20.5848  -11.6573 C   0  0  0  0  0  0  0  0  0  0  0  0
   24.2433  -20.9909  -10.4991 C   0  0  0  0  0  0  0  0  0  0  0  0
   25.7138  -20.6908  -10.5088 C   0  0  2  0  0  0  0  0  0  0  0  0
   26.3189  -21.5509  -11.5724 N   0  0  0  0  0  0  0  0  0  0  0  0
   26.3699  -20.9949   -9.2269 C   0  0  0  0  0  0  0  0  0  0  0  0
   26.5654  -22.2481   -8.9929 O   0  0  0  0  0  0  0  0  0  0  0  0
   23.2056  -21.4825  -12.7056 C   0  0  0  0  0  0  0  0  0  0  0  0
   22.4638  -21.1518  -13.8112 C   0  0  0  0  0  0  0  0  0  0  0  0
   29.6401  -18.9736   -4.3609 C   0  0  0  0  0  0  0  0  0  0  0  0
   28.8313  -20.0128   -5.0674 C   0  0  0  0  0  0  0  0  0  0  0  0
   28.1933  -19.4777   -6.3340 C   0  0  2  0  0  0  0  0  0  0  0  0
   27.2009  -18.3804   -6.0420 C   0  0  0  0  0  0  0  0  0  0  0  0
   27.4158  -20.5822   -7.0521 C   0  0  2  0  0  0  0  0  0  0  0  0
   26.8016  -20.0538   -8.2561 N   0  0  0  0  0  0  0  0  0  0  0  0
   26.3558  -20.9904   -6.1104 C   0  0  0  0  0  0  0  0  0  0  0  0
   25.1772  -20.6214   -6.3270 O   0  0  0  0  0  0  0  0  0  0  0  0
   26.6446  -21.7815   -4.9822 O   0  0  0  0  0  0  0  0  0  0  0  0
  2  3  1  0
  2  1  1  0
  3  4  2  0
  6  7  2  0
  6  5  1  0
  8  7  1  0
  9  8  2  0
 10  9  1  0
 11 10  1  1
 12 11  1  0
 12  3  1  0
 13 22  1  0
 13 11  1  0
 14 13  2  0
 15  9  1  0
 15 16  2  0
 16  6  1  0
 18 17  1  0
 19 20  1  1
 19 18  1  0
 21 19  1  0
 21 22  1  6
 23 25  1  0
 23 21  1  0
 24 23  2  0
M  END
$$$$
