GYI.pdb
     RDKit          3D

 25 25  0  0  1  0  0  0  0  0999 V2000
   17.2564  -19.8214  -17.1765 N   0  0  0  0  0  0  0  0  0  0  0  0
   16.6961  -18.5113  -17.4157 C   0  0  0  0  0  0  0  0  0  0  0  0
   17.7272  -17.4685  -17.2310 C   0  0  0  0  0  0  0  0  0  0  0  0
   18.9108  -17.8052  -16.9763 O   0  0  0  0  0  0  0  0  0  0  0  0
   21.6979  -10.8202  -20.7677 O   0  0  0  0  0  0  0  0  0  0  0  0
   21.1690  -11.9194  -20.1036 C   0  0  0  0  0  0  0  0  0  0  0  0
   20.1313  -12.6496  -20.6419 C   0  0  0  0  0  0  0  0  0  0  0  0
   19.5750  -13.7467  -20.0195 C   0  0  0  0  0  0  0  0  0  0  0  0
   20.0454  -14.1755  -18.7961 C   0  0  0  0  0  0  0  0  0  0  0  0
   19.5118  -15.3337  -18.0968 C   0  0  0  0  0  0  0  0  0  0  0  0
   18.4354  -15.0984  -17.0777 C   0  0  2  0  0  0  0  0  0  0  0  0
   17.3658  -16.1094  -17.3438 N   0  0  0  0  0  0  0  0  0  0  0  0
   17.8451  -13.7530  -17.1669 C   0  0  0  0  0  0  0  0  0  0  0  0
   16.9979  -13.5868  -18.1250 O   0  0  0  0  0  0  0  0  0  0  0  0
   21.1020  -13.4275  -18.2531 C   0  0  0  0  0  0  0  0  0  0  0  0
   21.6487  -12.3368  -18.8802 C   0  0  0  0  0  0  0  0  0  0  0  0
   14.5121   -9.6971  -14.6731 C   0  0  0  0  0  0  0  0  0  0  0  0
   15.5869   -9.9137  -15.6885 C   0  0  0  0  0  0  0  0  0  0  0  0
   16.3200  -11.2231  -15.4750 C   0  0  2  0  0  0  0  0  0  0  0  0
   17.0489  -11.2493  -14.1551 C   0  0  0  0  0  0  0  0  0  0  0  0
   17.3813  -11.4276  -16.5576 C   0  0  2  0  0  0  0  0  0  0  0  0
   18.1139  -12.6553  -16.3083 N   0  0  0  0  0  0  0  0  0  0  0  0
   18.3019  -10.2822  -16.4245 C   0  0  0  0  0  0  0  0  0  0  0  0
   19.3969  -10.4495  -15.8372 O   0  0  0  0  0  0  0  0  0  0  0  0
   17.9729   -9.0153  -16.9429 O   0  0  0  0  0  0  0  0  0  0  0  0
  2  3  1  0
  2  1  1  0
  3  4  2  0
  6  7  2  0
  6  5  1  0
  8  7  1  0
  9  8  2  0
 10  9  1  0
 11 10  1  6
 12 11  1  0
 12  3  1  0
 13 22  1  0
 13 11  1  0
 14 13  2  0
 15  9  1  0
 15 16  2  0
 16  6  1  0
 18 17  1  0
 19 20  1  1
 19 18  1  0
 21 19  1  0
 21 22  1  1
 23 25  1  0
 23 21  1  0
 24 23  2  0
M  END
$$$$
