GYI.pdb
     RDKit          3D

 25 25  0  0  1  0  0  0  0  0999 V2000
   26.0122  -23.7341  -16.5616 N   0  0  0  0  0  0  0  0  0  0  0  0
   25.2750  -23.2228  -15.4290 C   0  0  0  0  0  0  0  0  0  0  0  0
   26.1659  -22.4433  -14.5439 C   0  0  0  0  0  0  0  0  0  0  0  0
   27.3925  -22.7138  -14.5050 O   0  0  0  0  0  0  0  0  0  0  0  0
   28.2220  -17.3091  -18.2050 O   0  0  0  0  0  0  0  0  0  0  0  0
   27.7678  -17.7769  -16.9786 C   0  0  0  0  0  0  0  0  0  0  0  0
   28.6469  -18.1684  -15.9919 C   0  0  0  0  0  0  0  0  0  0  0  0
   28.2424  -18.6387  -14.7607 C   0  0  0  0  0  0  0  0  0  0  0  0
   26.9022  -18.7409  -14.4520 C   0  0  0  0  0  0  0  0  0  0  0  0
   26.4127  -19.2140  -13.1669 C   0  0  0  0  0  0  0  0  0  0  0  0
   26.5684  -20.6740  -12.8556 C   0  0  2  0  0  0  0  0  0  0  0  0
   25.6243  -21.4063  -13.7553 N   0  0  0  0  0  0  0  0  0  0  0  0
   26.2383  -21.0013  -11.4592 C   0  0  0  0  0  0  0  0  0  0  0  0
   25.1976  -21.7465  -11.3004 O   0  0  0  0  0  0  0  0  0  0  0  0
   26.0121  -18.3409  -15.4612 C   0  0  0  0  0  0  0  0  0  0  0  0
   26.4245  -17.8745  -16.6836 C   0  0  0  0  0  0  0  0  0  0  0  0
   29.6231  -20.4916   -6.9741 C   0  0  0  0  0  0  0  0  0  0  0  0
   28.6572  -21.1255   -7.9220 C   0  0  0  0  0  0  0  0  0  0  0  0
   27.2997  -20.4518   -7.8910 C   0  0  2  0  0  0  0  0  0  0  0  0
   26.5652  -20.7286   -6.6034 C   0  0  0  0  0  0  0  0  0  0  0  0
   26.4106  -20.9823   -9.0171 C   0  0  2  0  0  0  0  0  0  0  0  0
   26.9512  -20.5862  -10.3043 N   0  0  0  0  0  0  0  0  0  0  0  0
   25.1018  -20.3292   -8.8230 C   0  0  0  0  0  0  0  0  0  0  0  0
   24.9440  -19.1542   -9.2315 O   0  0  0  0  0  0  0  0  0  0  0  0
   24.0363  -20.9991   -8.1923 O   0  0  0  0  0  0  0  0  0  0  0  0
  2  3  1  0
  2  1  1  0
  3  4  2  0
  6  7  2  0
  6  5  1  0
  8  7  1  0
  9  8  2  0
 10  9  1  0
 11 10  1  1
 12 11  1  0
 12  3  1  0
 13 22  1  0
 13 11  1  0
 14 13  2  0
 15  9  1  0
 15 16  2  0
 16  6  1  0
 18 17  1  0
 19 20  1  1
 19 18  1  0
 21 19  1  0
 21 22  1  6
 23 25  1  0
 23 21  1  0
 24 23  2  0
M  END
$$$$
