WKH.pdb
     RDKit          3D

 34 36  0  0  1  0  0  0  0  0999 V2000
    6.2797  -17.2793   23.9456 N   0  0  0  0  0  0  0  0  0  0  0  0
    7.2263  -16.1957   23.8633 C   0  0  1  0  0  0  0  0  0  0  0  0
    7.7442  -15.8751   25.2253 C   0  0  0  0  0  0  0  0  0  0  0  0
    6.8904  -14.8346   25.8387 C   0  0  0  0  0  0  0  0  0  0  0  0
    5.6894  -15.0551   26.5131 C   0  0  0  0  0  0  0  0  0  0  0  0
    5.2076  -13.8945   26.9658 N   0  0  0  0  0  0  0  0  0  0  0  0
    6.0383  -12.9051   26.6205 C   0  0  0  0  0  0  0  0  0  0  0  0
    5.9966  -11.5418   26.8347 C   0  0  0  0  0  0  0  0  0  0  0  0
    6.9784  -10.6908   26.3697 C   0  0  0  0  0  0  0  0  0  0  0  0
    8.0223  -11.2625   25.6699 C   0  0  0  0  0  0  0  0  0  0  0  0
    8.0736  -12.6282   25.4501 C   0  0  0  0  0  0  0  0  0  0  0  0
    7.0886  -13.4713   25.9194 C   0  0  0  0  0  0  0  0  0  0  0  0
    8.2905  -16.5500   22.9017 C   0  0  0  0  0  0  0  0  0  0  0  0
    8.7130  -17.7299   22.8868 O   0  0  0  0  0  0  0  0  0  0  0  0
    8.8715  -15.6385   21.9868 N   0  0  0  0  0  0  0  0  0  0  0  0
   10.0355  -16.0010   21.2137 C   0  0  1  0  0  0  0  0  0  0  0  0
   10.3727  -14.9751   20.1661 C   0  0  0  0  0  0  0  0  0  0  0  0
    9.6999  -15.2188   18.8483 C   0  0  0  0  0  0  0  0  0  0  0  0
    8.6852  -14.1905   18.4779 C   0  0  0  0  0  0  0  0  0  0  0  0
    8.0842  -14.6103   17.1406 C   0  0  0  0  0  0  0  0  0  0  0  0
    7.0468  -13.7022   16.7157 N   0  0  0  0  0  0  0  0  0  0  0  0
   11.2218  -16.0604   22.1421 C   0  0  0  0  0  0  0  0  0  0  0  0
   11.6036  -14.9530   22.6086 O   0  0  0  0  0  0  0  0  0  0  0  0
   11.8552  -17.2850   22.4604 N   0  0  0  0  0  0  0  0  0  0  0  0
   13.0918  -17.2867   23.2021 C   0  0  1  0  0  0  0  0  0  0  0  0
   13.0173  -18.4358   24.2067 C   0  0  0  0  0  0  0  0  0  0  0  0
   12.0324  -18.1397   25.2668 C   0  0  0  0  0  0  0  0  0  0  0  0
   12.2176  -17.2150   26.2982 C   0  0  0  0  0  0  0  0  0  0  0  0
   11.0850  -17.2640   27.0281 N   0  0  0  0  0  0  0  0  0  0  0  0
   10.2344  -18.1561   26.5022 C   0  0  0  0  0  0  0  0  0  0  0  0
   10.8171  -18.6903   25.4244 N   0  0  0  0  0  0  0  0  0  0  0  0
   14.2492  -17.4630   22.2915 C   0  0  0  0  0  0  0  0  0  0  0  0
   15.5783  -17.4316   22.7365 O   0  0  0  0  0  0  0  0  0  0  0  0
   14.0833  -17.6511   21.0642 O   0  0  0  0  0  0  0  0  0  0  0  0
  2  1  1  1
  2 13  1  0
  2  3  1  0
  3  4  1  0
  4  5  2  0
  6  5  1  0
  7  6  1  0
  8  7  2  0
  9  8  1  0
 10  9  2  0
 10 11  1  0
 11 12  2  0
 12  7  1  0
 12  4  1  0
 13 14  2  0
 15 13  1  0
 16 22  1  0
 16 15  1  0
 16 17  1  6
 18 17  1  0
 19 18  1  0
 20 19  1  0
 21 20  1  0
 22 23  2  0
 24 25  1  0
 24 22  1  0
 25 32  1  0
 25 26  1  1
 27 26  1  0
 27 28  2  0
 29 28  1  0
 30 31  2  0
 30 29  1  0
 31 27  1  0
 32 34  2  0
 32 33  1  0
M  END
$$$$
