WKH.pdb
     RDKit          3D

 34 36  0  0  1  0  0  0  0  0999 V2000
    8.3421  -16.0793   23.8118 N   0  0  0  0  0  0  0  0  0  0  0  0
    9.3826  -16.0475   24.8084 C   0  0  1  0  0  0  0  0  0  0  0  0
    8.7752  -16.0659   26.1710 C   0  0  0  0  0  0  0  0  0  0  0  0
    7.5507  -15.2361   26.1699 C   0  0  0  0  0  0  0  0  0  0  0  0
    6.2467  -15.7028   26.0031 C   0  0  0  0  0  0  0  0  0  0  0  0
    5.3887  -14.6831   26.0929 N   0  0  0  0  0  0  0  0  0  0  0  0
    6.0667  -13.5516   26.3125 C   0  0  0  0  0  0  0  0  0  0  0  0
    5.6591  -12.2421   26.4713 C   0  0  0  0  0  0  0  0  0  0  0  0
    6.5518  -11.2111   26.6825 C   0  0  0  0  0  0  0  0  0  0  0  0
    7.8913  -11.5429   26.7298 C   0  0  0  0  0  0  0  0  0  0  0  0
    8.3102  -12.8527   26.5721 C   0  0  0  0  0  0  0  0  0  0  0  0
    7.4110  -13.8768   26.3627 C   0  0  0  0  0  0  0  0  0  0  0  0
   10.3196  -17.1648   24.5710 C   0  0  0  0  0  0  0  0  0  0  0  0
   11.0489  -17.5436   25.5172 O   0  0  0  0  0  0  0  0  0  0  0  0
   10.4513  -17.8435   23.3351 N   0  0  0  0  0  0  0  0  0  0  0  0
   11.4068  -18.9133   23.1722 C   0  0  1  0  0  0  0  0  0  0  0  0
   11.0992  -19.7834   21.9839 C   0  0  0  0  0  0  0  0  0  0  0  0
    9.6604  -20.1971   21.8989 C   0  0  0  0  0  0  0  0  0  0  0  0
    9.3052  -20.9289   20.6489 C   0  0  0  0  0  0  0  0  0  0  0  0
    7.8214  -21.2714   20.7323 C   0  0  0  0  0  0  0  0  0  0  0  0
    7.3369  -21.8395   19.4978 N   0  0  0  0  0  0  0  0  0  0  0  0
   12.7604  -18.3040   22.9088 C   0  0  0  0  0  0  0  0  0  0  0  0
   12.8922  -17.7332   21.7924 O   0  0  0  0  0  0  0  0  0  0  0  0
   13.8048  -18.3753   23.8608 N   0  0  0  0  0  0  0  0  0  0  0  0
   15.0821  -17.7686   23.5780 C   0  0  1  0  0  0  0  0  0  0  0  0
   14.8344  -16.2801   23.3367 C   0  0  0  0  0  0  0  0  0  0  0  0
   14.6537  -16.0074   21.8964 C   0  0  0  0  0  0  0  0  0  0  0  0
   14.7482  -16.9631   20.8810 C   0  0  0  0  0  0  0  0  0  0  0  0
   14.5162  -16.2903   19.7360 N   0  0  0  0  0  0  0  0  0  0  0  0
   14.2891  -14.9958   19.9983 C   0  0  0  0  0  0  0  0  0  0  0  0
   14.3739  -14.8260   21.3214 N   0  0  0  0  0  0  0  0  0  0  0  0
   16.0186  -17.9655   24.7111 C   0  0  0  0  0  0  0  0  0  0  0  0
   17.3308  -17.4723   24.7074 O   0  0  0  0  0  0  0  0  0  0  0  0
   15.6684  -18.5925   25.7376 O   0  0  0  0  0  0  0  0  0  0  0  0
  2  1  1  6
  2 13  1  0
  2  3  1  0
  3  4  1  0
  4  5  2  0
  6  5  1  0
  7  6  1  0
  8  7  2  0
  9  8  1  0
 10  9  2  0
 10 11  1  0
 11 12  2  0
 12  7  1  0
 12  4  1  0
 13 14  2  0
 15 13  1  0
 16 22  1  0
 16 15  1  0
 16 17  1  6
 18 17  1  0
 19 18  1  0
 20 19  1  0
 21 20  1  0
 22 23  2  0
 24 25  1  0
 24 22  1  0
 25 32  1  0
 25 26  1  1
 27 26  1  0
 27 28  2  0
 29 28  1  0
 30 31  2  0
 30 29  1  0
 31 27  1  0
 32 34  2  0
 32 33  1  0
M  END
$$$$
