WKH.pdb
     RDKit          3D

 34 36  0  0  1  0  0  0  0  0999 V2000
    6.3089  -18.2673   24.8385 N   0  0  0  0  0  0  0  0  0  0  0  0
    6.6941  -16.8967   24.6147 C   0  0  1  0  0  0  0  0  0  0  0  0
    7.4251  -16.3781   25.8074 C   0  0  0  0  0  0  0  0  0  0  0  0
    6.7339  -15.1737   26.3169 C   0  0  0  0  0  0  0  0  0  0  0  0
    5.5108  -15.1548   26.9873 C   0  0  0  0  0  0  0  0  0  0  0  0
    5.2059  -13.9011   27.3327 N   0  0  0  0  0  0  0  0  0  0  0  0
    6.1765  -13.0793   26.9194 C   0  0  0  0  0  0  0  0  0  0  0  0
    6.3380  -11.7116   27.0175 C   0  0  0  0  0  0  0  0  0  0  0  0
    7.4378  -11.0587   26.4991 C   0  0  0  0  0  0  0  0  0  0  0  0
    8.3874  -11.8370   25.8673 C   0  0  0  0  0  0  0  0  0  0  0  0
    8.2350  -13.2088   25.7640 C   0  0  0  0  0  0  0  0  0  0  0  0
    7.1332  -13.8531   26.2860 C   0  0  0  0  0  0  0  0  0  0  0  0
    7.4771  -16.8081   23.3650 C   0  0  0  0  0  0  0  0  0  0  0  0
    8.2965  -17.7209   23.1079 O   0  0  0  0  0  0  0  0  0  0  0  0
    7.3640  -15.7517   22.4287 N   0  0  0  0  0  0  0  0  0  0  0  0
    8.1650  -15.7333   21.2278 C   0  0  1  0  0  0  0  0  0  0  0  0
    7.8410  -14.5642   20.3380 C   0  0  0  0  0  0  0  0  0  0  0  0
    8.5693  -14.5870   19.0274 C   0  0  0  0  0  0  0  0  0  0  0  0
    8.1174  -13.5494   18.0561 C   0  0  0  0  0  0  0  0  0  0  0  0
    8.5844  -13.9914   16.6732 C   0  0  0  0  0  0  0  0  0  0  0  0
    8.2457  -13.0196   15.6622 N   0  0  0  0  0  0  0  0  0  0  0  0
    9.6106  -15.5728   21.6244 C   0  0  0  0  0  0  0  0  0  0  0  0
    9.8733  -14.5572   22.3238 O   0  0  0  0  0  0  0  0  0  0  0  0
   10.5969  -16.5079   21.2307 N   0  0  0  0  0  0  0  0  0  0  0  0
   11.9888  -16.2462   21.5018 C   0  0  1  0  0  0  0  0  0  0  0  0
   12.5757  -17.5116   22.1261 C   0  0  0  0  0  0  0  0  0  0  0  0
   12.2662  -17.5740   23.5689 C   0  0  0  0  0  0  0  0  0  0  0  0
   11.6531  -16.5547   24.3027 C   0  0  0  0  0  0  0  0  0  0  0  0
   11.5639  -17.0268   25.5624 N   0  0  0  0  0  0  0  0  0  0  0  0
   12.0826  -18.2606   25.6315 C   0  0  0  0  0  0  0  0  0  0  0  0
   12.5115  -18.5926   24.4098 N   0  0  0  0  0  0  0  0  0  0  0  0
   12.7095  -15.8969   20.2534 C   0  0  0  0  0  0  0  0  0  0  0  0
   12.0921  -15.8933   18.9948 O   0  0  0  0  0  0  0  0  0  0  0  0
   13.9224  -15.5845   20.2731 O   0  0  0  0  0  0  0  0  0  0  0  0
  2  1  1  1
  2 13  1  0
  2  3  1  0
  3  4  1  0
  4  5  2  0
  6  5  1  0
  7  6  1  0
  8  7  2  0
  9  8  1  0
 10  9  2  0
 10 11  1  0
 11 12  2  0
 12  7  1  0
 12  4  1  0
 13 14  2  0
 15 13  1  0
 16 22  1  0
 16 15  1  0
 16 17  1  6
 18 17  1  0
 19 18  1  0
 20 19  1  0
 21 20  1  0
 22 23  2  0
 24 25  1  0
 24 22  1  0
 25 32  1  0
 25 26  1  6
 27 26  1  0
 27 28  2  0
 29 28  1  0
 30 31  2  0
 30 29  1  0
 31 27  1  0
 32 34  2  0
 32 33  1  0
M  END
$$$$
