WKH.pdb
     RDKit          3D

 34 36  0  0  1  0  0  0  0  0999 V2000
    6.4132  -17.9112   24.2588 N   0  0  0  0  0  0  0  0  0  0  0  0
    7.3806  -16.9115   23.8823 C   0  0  1  0  0  0  0  0  0  0  0  0
    8.0521  -16.3761   25.1023 C   0  0  0  0  0  0  0  0  0  0  0  0
    7.2167  -15.3052   25.6881 C   0  0  0  0  0  0  0  0  0  0  0  0
    6.0984  -15.4923   26.5006 C   0  0  0  0  0  0  0  0  0  0  0  0
    5.6117  -14.3067   26.8768 N   0  0  0  0  0  0  0  0  0  0  0  0
    6.3598  -13.3327   26.3477 C   0  0  0  0  0  0  0  0  0  0  0  0
    6.2783  -11.9565   26.4222 C   0  0  0  0  0  0  0  0  0  0  0  0
    7.1709  -11.1276   25.7736 C   0  0  0  0  0  0  0  0  0  0  0  0
    8.1660  -11.7357   25.0343 C   0  0  0  0  0  0  0  0  0  0  0  0
    8.2565  -13.1146   24.9535 C   0  0  0  0  0  0  0  0  0  0  0  0
    7.3608  -13.9352   25.6060 C   0  0  0  0  0  0  0  0  0  0  0  0
    8.3231  -17.4895   22.9024 C   0  0  0  0  0  0  0  0  0  0  0  0
    8.8387  -18.6035   23.1554 O   0  0  0  0  0  0  0  0  0  0  0  0
    8.6873  -16.8647   21.6848 N   0  0  0  0  0  0  0  0  0  0  0  0
    9.7362  -17.4078   20.8549 C   0  0  1  0  0  0  0  0  0  0  0  0
    9.8786  -16.6700   19.5514 C   0  0  0  0  0  0  0  0  0  0  0  0
   10.9224  -17.2497   18.6441 C   0  0  0  0  0  0  0  0  0  0  0  0
   10.4165  -17.6384   17.2961 C   0  0  0  0  0  0  0  0  0  0  0  0
   11.5811  -18.2713   16.5418 C   0  0  0  0  0  0  0  0  0  0  0  0
   11.1758  -18.7489   15.2422 N   0  0  0  0  0  0  0  0  0  0  0  0
   11.0481  -17.2406   21.5787 C   0  0  0  0  0  0  0  0  0  0  0  0
   11.2439  -16.1074   22.0953 O   0  0  0  0  0  0  0  0  0  0  0  0
   11.9882  -18.2946   21.6651 N   0  0  0  0  0  0  0  0  0  0  0  0
   13.2699  -18.0697   22.2863 C   0  0  1  0  0  0  0  0  0  0  0  0
   13.6343  -19.3424   23.0496 C   0  0  0  0  0  0  0  0  0  0  0  0
   12.8407  -19.4525   24.2904 C   0  0  0  0  0  0  0  0  0  0  0  0
   12.5329  -18.3886   25.1429 C   0  0  0  0  0  0  0  0  0  0  0  0
   11.8019  -18.9297   26.1381 N   0  0  0  0  0  0  0  0  0  0  0  0
   11.6516  -20.2464   25.9382 C   0  0  0  0  0  0  0  0  0  0  0  0
   12.2885  -20.5631   24.8065 N   0  0  0  0  0  0  0  0  0  0  0  0
   14.3002  -17.7596   21.2655 C   0  0  0  0  0  0  0  0  0  0  0  0
   15.6346  -17.4805   21.5925 O   0  0  0  0  0  0  0  0  0  0  0  0
   14.0147  -17.7340   20.0460 O   0  0  0  0  0  0  0  0  0  0  0  0
  2  1  1  1
  2 13  1  0
  2  3  1  0
  3  4  1  0
  4  5  2  0
  6  5  1  0
  7  6  1  0
  8  7  2  0
  9  8  1  0
 10  9  2  0
 10 11  1  0
 11 12  2  0
 12  7  1  0
 12  4  1  0
 13 14  2  0
 15 13  1  0
 16 22  1  0
 16 15  1  0
 16 17  1  6
 18 17  1  0
 19 18  1  0
 20 19  1  0
 21 20  1  0
 22 23  2  0
 24 25  1  0
 24 22  1  0
 25 32  1  0
 25 26  1  6
 27 26  1  0
 27 28  2  0
 29 28  1  0
 30 31  2  0
 30 29  1  0
 31 27  1  0
 32 34  2  0
 32 33  1  0
M  END
$$$$
