WKH.pdb
     RDKit          3D

 34 36  0  0  1  0  0  0  0  0999 V2000
    9.2403  -15.7319   22.6641 N   0  0  0  0  0  0  0  0  0  0  0  0
    8.8469  -15.9658   24.0307 C   0  0  1  0  0  0  0  0  0  0  0  0
    7.3621  -15.8791   24.1490 C   0  0  0  0  0  0  0  0  0  0  0  0
    6.9342  -14.4850   23.9014 C   0  0  0  0  0  0  0  0  0  0  0  0
    6.6358  -13.9298   22.6570 C   0  0  0  0  0  0  0  0  0  0  0  0
    6.2505  -12.6602   22.8111 N   0  0  0  0  0  0  0  0  0  0  0  0
    6.2797  -12.3430   24.1099 C   0  0  0  0  0  0  0  0  0  0  0  0
    5.9866  -11.1755   24.7861 C   0  0  0  0  0  0  0  0  0  0  0  0
    6.0989  -11.0683   26.1574 C   0  0  0  0  0  0  0  0  0  0  0  0
    6.5228  -12.1909   26.8404 C   0  0  0  0  0  0  0  0  0  0  0  0
    6.8189  -13.3661   26.1718 C   0  0  0  0  0  0  0  0  0  0  0  0
    6.7027  -13.4647   24.8013 C   0  0  0  0  0  0  0  0  0  0  0  0
    9.3944  -17.2622   24.4806 C   0  0  0  0  0  0  0  0  0  0  0  0
    8.9476  -17.7641   25.5386 O   0  0  0  0  0  0  0  0  0  0  0  0
   10.3993  -17.9835   23.7913 N   0  0  0  0  0  0  0  0  0  0  0  0
   10.9268  -19.2174   24.3235 C   0  0  1  0  0  0  0  0  0  0  0  0
   11.5152  -20.0994   23.2561 C   0  0  0  0  0  0  0  0  0  0  0  0
   12.0103  -21.4176   23.7717 C   0  0  0  0  0  0  0  0  0  0  0  0
   12.5648  -22.3186   22.7206 C   0  0  0  0  0  0  0  0  0  0  0  0
   12.9632  -23.6211   23.4065 C   0  0  0  0  0  0  0  0  0  0  0  0
   11.8093  -24.3510   23.8725 N   0  0  0  0  0  0  0  0  0  0  0  0
   12.0569  -18.8834   25.2639 C   0  0  0  0  0  0  0  0  0  0  0  0
   12.7086  -17.8414   24.9828 O   0  0  0  0  0  0  0  0  0  0  0  0
   12.3551  -19.6947   26.3842 N   0  0  0  0  0  0  0  0  0  0  0  0
   12.3861  -19.1179   27.7054 C   0  0  1  0  0  0  0  0  0  0  0  0
   11.0285  -18.4586   27.9452 C   0  0  0  0  0  0  0  0  0  0  0  0
   11.1492  -16.9870   27.9108 C   0  0  0  0  0  0  0  0  0  0  0  0
   12.3379  -16.2844   27.6953 C   0  0  0  0  0  0  0  0  0  0  0  0
   11.9954  -14.9813   27.7440 N   0  0  0  0  0  0  0  0  0  0  0  0
   10.6810  -14.8572   27.9742 C   0  0  0  0  0  0  0  0  0  0  0  0
   10.1660  -16.0864   28.0758 N   0  0  0  0  0  0  0  0  0  0  0  0
   12.6481  -20.1608   28.7269 C   0  0  0  0  0  0  0  0  0  0  0  0
   13.1742  -19.8695   29.9933 O   0  0  0  0  0  0  0  0  0  0  0  0
   12.4052  -21.3678   28.4954 O   0  0  0  0  0  0  0  0  0  0  0  0
  2  1  1  6
  2 13  1  0
  2  3  1  0
  3  4  1  0
  4  5  2  0
  6  5  1  0
  7  6  1  0
  8  7  2  0
  9  8  1  0
 10  9  2  0
 10 11  1  0
 11 12  2  0
 12  7  1  0
 12  4  1  0
 13 14  2  0
 15 13  1  0
 16 22  1  0
 16 15  1  0
 16 17  1  6
 18 17  1  0
 19 18  1  0
 20 19  1  0
 21 20  1  0
 22 23  2  0
 24 25  1  0
 24 22  1  0
 25 32  1  0
 25 26  1  1
 27 26  1  0
 27 28  2  0
 29 28  1  0
 30 31  2  0
 30 29  1  0
 31 27  1  0
 32 34  2  0
 32 33  1  0
M  END
$$$$
