WKH.pdb
     RDKit          3D

 34 36  0  0  1  0  0  0  0  0999 V2000
    6.7758  -17.7098   25.3362 N   0  0  0  0  0  0  0  0  0  0  0  0
    7.2137  -16.4513   24.7870 C   0  0  1  0  0  0  0  0  0  0  0  0
    8.3600  -15.9257   25.5844 C   0  0  0  0  0  0  0  0  0  0  0  0
    7.8774  -14.8561   26.4849 C   0  0  0  0  0  0  0  0  0  0  0  0
    7.5930  -14.9969   27.8433 C   0  0  0  0  0  0  0  0  0  0  0  0
    7.2148  -13.8197   28.3485 N   0  0  0  0  0  0  0  0  0  0  0  0
    7.2340  -12.8960   27.3817 C   0  0  0  0  0  0  0  0  0  0  0  0
    6.9281  -11.5497   27.3793 C   0  0  0  0  0  0  0  0  0  0  0  0
    7.0110  -10.7756   26.2398 C   0  0  0  0  0  0  0  0  0  0  0  0
    7.4180  -11.4079   25.0818 C   0  0  0  0  0  0  0  0  0  0  0  0
    7.7273  -12.7571   25.0738 C   0  0  0  0  0  0  0  0  0  0  0  0
    7.6428  -13.5227   26.2175 C   0  0  0  0  0  0  0  0  0  0  0  0
    7.5302  -16.6280   23.3548 C   0  0  0  0  0  0  0  0  0  0  0  0
    7.5386  -17.7895   22.8841 O   0  0  0  0  0  0  0  0  0  0  0  0
    7.8278  -15.5641   22.4688 N   0  0  0  0  0  0  0  0  0  0  0  0
    8.1214  -15.8146   21.0778 C   0  0  1  0  0  0  0  0  0  0  0  0
    8.0806  -14.5614   20.2464 C   0  0  0  0  0  0  0  0  0  0  0  0
    8.3881  -14.7920   18.7969 C   0  0  0  0  0  0  0  0  0  0  0  0
    8.3084  -13.5668   17.9502 C   0  0  0  0  0  0  0  0  0  0  0  0
    8.5597  -13.9969   16.5088 C   0  0  0  0  0  0  0  0  0  0  0  0
    8.5150  -12.8742   15.6038 N   0  0  0  0  0  0  0  0  0  0  0  0
    9.5307  -16.3406   20.9778 C   0  0  0  0  0  0  0  0  0  0  0  0
    9.8638  -16.7932   19.8493 O   0  0  0  0  0  0  0  0  0  0  0  0
   10.4109  -16.3213   22.0856 N   0  0  0  0  0  0  0  0  0  0  0  0
   11.7667  -16.7898   21.9386 C   0  0  1  0  0  0  0  0  0  0  0  0
   12.6672  -15.5575   21.8609 C   0  0  0  0  0  0  0  0  0  0  0  0
   12.6390  -14.9749   20.5040 C   0  0  0  0  0  0  0  0  0  0  0  0
   12.1002  -13.7274   20.1777 C   0  0  0  0  0  0  0  0  0  0  0  0
   12.2841  -13.5966   18.8485 N   0  0  0  0  0  0  0  0  0  0  0  0
   12.8972  -14.6826   18.3576 C   0  0  0  0  0  0  0  0  0  0  0  0
   13.1130  -15.5242   19.3733 N   0  0  0  0  0  0  0  0  0  0  0  0
   12.1524  -17.6473   23.0857 C   0  0  0  0  0  0  0  0  0  0  0  0
   11.2423  -18.0521   24.0722 O   0  0  0  0  0  0  0  0  0  0  0  0
   13.3298  -18.0528   23.2224 O   0  0  0  0  0  0  0  0  0  0  0  0
  2  1  1  1
  2 13  1  0
  2  3  1  0
  3  4  1  0
  4  5  2  0
  6  5  1  0
  7  6  1  0
  8  7  2  0
  9  8  1  0
 10  9  2  0
 10 11  1  0
 11 12  2  0
 12  7  1  0
 12  4  1  0
 13 14  2  0
 15 13  1  0
 16 22  1  0
 16 15  1  0
 16 17  1  6
 18 17  1  0
 19 18  1  0
 20 19  1  0
 21 20  1  0
 22 23  2  0
 24 25  1  0
 24 22  1  0
 25 32  1  0
 25 26  1  1
 27 26  1  0
 27 28  2  0
 29 28  1  0
 30 31  2  0
 30 29  1  0
 31 27  1  0
 32 34  2  0
 32 33  1  0
M  END
$$$$
