WKH.pdb
     RDKit          3D

 34 36  0  0  1  0  0  0  0  0999 V2000
    6.4143  -17.9333   24.2722 N   0  0  0  0  0  0  0  0  0  0  0  0
    7.0482  -16.6640   24.0190 C   0  0  1  0  0  0  0  0  0  0  0  0
    7.7076  -16.1733   25.2641 C   0  0  0  0  0  0  0  0  0  0  0  0
    6.8732  -15.1143   25.8725 C   0  0  0  0  0  0  0  0  0  0  0  0
    5.6309  -15.2994   26.4795 C   0  0  0  0  0  0  0  0  0  0  0  0
    5.1812  -14.1329   26.9497 N   0  0  0  0  0  0  0  0  0  0  0  0
    6.0732  -13.1736   26.6811 C   0  0  0  0  0  0  0  0  0  0  0  0
    6.0839  -11.8178   26.9419 C   0  0  0  0  0  0  0  0  0  0  0  0
    7.1261  -10.9997   26.5561 C   0  0  0  0  0  0  0  0  0  0  0  0
    8.1763  -11.5970   25.8876 C   0  0  0  0  0  0  0  0  0  0  0  0
    8.1753  -12.9553   25.6215 C   0  0  0  0  0  0  0  0  0  0  0  0
    7.1300  -13.7656   26.0118 C   0  0  0  0  0  0  0  0  0  0  0  0
    7.9791  -16.8024   22.8801 C   0  0  0  0  0  0  0  0  0  0  0  0
    8.4486  -17.9366   22.6274 O   0  0  0  0  0  0  0  0  0  0  0  0
    8.3811  -15.7305   22.0466 N   0  0  0  0  0  0  0  0  0  0  0  0
    9.3112  -15.9397   20.9626 C   0  0  1  0  0  0  0  0  0  0  0  0
    9.4215  -14.7413   20.0597 C   0  0  0  0  0  0  0  0  0  0  0  0
    8.3665  -14.6923   18.9952 C   0  0  0  0  0  0  0  0  0  0  0  0
    8.6969  -13.8033   17.8443 C   0  0  0  0  0  0  0  0  0  0  0  0
    7.5437  -13.9027   16.8512 C   0  0  0  0  0  0  0  0  0  0  0  0
    7.8414  -13.2118   15.6202 N   0  0  0  0  0  0  0  0  0  0  0  0
   10.6835  -16.1524   21.5496 C   0  0  0  0  0  0  0  0  0  0  0  0
   11.0301  -15.3255   22.4359 O   0  0  0  0  0  0  0  0  0  0  0  0
   11.5167  -17.2141   21.1246 N   0  0  0  0  0  0  0  0  0  0  0  0
   12.8552  -17.3349   21.6471 C   0  0  1  0  0  0  0  0  0  0  0  0
   13.1467  -18.8262   21.8093 C   0  0  0  0  0  0  0  0  0  0  0  0
   12.4338  -19.3732   22.9815 C   0  0  0  0  0  0  0  0  0  0  0  0
   11.8145  -18.6073   23.9730 C   0  0  0  0  0  0  0  0  0  0  0  0
   11.2941  -19.4997   24.8393 N   0  0  0  0  0  0  0  0  0  0  0  0
   11.5606  -20.7485   24.4324 C   0  0  0  0  0  0  0  0  0  0  0  0
   12.2582  -20.6676   23.2952 N   0  0  0  0  0  0  0  0  0  0  0  0
   13.8356  -16.7079   20.7276 C   0  0  0  0  0  0  0  0  0  0  0  0
   13.4585  -16.0449   19.5513 O   0  0  0  0  0  0  0  0  0  0  0  0
   15.0642  -16.7457   20.9692 O   0  0  0  0  0  0  0  0  0  0  0  0
  2  1  1  1
  2 13  1  0
  2  3  1  0
  3  4  1  0
  4  5  2  0
  6  5  1  0
  7  6  1  0
  8  7  2  0
  9  8  1  0
 10  9  2  0
 10 11  1  0
 11 12  2  0
 12  7  1  0
 12  4  1  0
 13 14  2  0
 15 13  1  0
 16 22  1  0
 16 15  1  0
 16 17  1  6
 18 17  1  0
 19 18  1  0
 20 19  1  0
 21 20  1  0
 22 23  2  0
 24 25  1  0
 24 22  1  0
 25 32  1  0
 25 26  1  6
 27 26  1  0
 27 28  2  0
 29 28  1  0
 30 31  2  0
 30 29  1  0
 31 27  1  0
 32 34  2  0
 32 33  1  0
M  END
$$$$
