WKH.pdb
     RDKit          3D

 34 36  0  0  1  0  0  0  0  0999 V2000
    6.5375  -18.1769   24.9448 N   0  0  0  0  0  0  0  0  0  0  0  0
    6.7686  -16.7881   24.6369 C   0  0  1  0  0  0  0  0  0  0  0  0
    7.5188  -16.1431   25.7537 C   0  0  0  0  0  0  0  0  0  0  0  0
    6.7433  -14.9894   26.2593 C   0  0  0  0  0  0  0  0  0  0  0  0
    5.4866  -15.0497   26.8617 C   0  0  0  0  0  0  0  0  0  0  0  0
    5.1028  -13.8233   27.2262 N   0  0  0  0  0  0  0  0  0  0  0  0
    6.0528  -12.9439   26.8911 C   0  0  0  0  0  0  0  0  0  0  0  0
    6.1418  -11.5740   27.0378 C   0  0  0  0  0  0  0  0  0  0  0  0
    7.2345  -10.8538   26.5999 C   0  0  0  0  0  0  0  0  0  0  0  0
    8.2535  -11.5658   25.9989 C   0  0  0  0  0  0  0  0  0  0  0  0
    8.1740  -12.9394   25.8473 C   0  0  0  0  0  0  0  0  0  0  0  0
    7.0787  -13.6512   26.2890 C   0  0  0  0  0  0  0  0  0  0  0  0
    7.4576  -16.6855   23.3340 C   0  0  0  0  0  0  0  0  0  0  0  0
    8.3786  -17.4967   23.0802 O   0  0  0  0  0  0  0  0  0  0  0  0
    7.1452  -15.7237   22.3427 N   0  0  0  0  0  0  0  0  0  0  0  0
    8.0529  -15.4581   21.2520 C   0  0  1  0  0  0  0  0  0  0  0  0
    7.6021  -14.3060   20.3959 C   0  0  0  0  0  0  0  0  0  0  0  0
    8.4575  -14.0877   19.1838 C   0  0  0  0  0  0  0  0  0  0  0  0
    7.7119  -13.6070   17.9850 C   0  0  0  0  0  0  0  0  0  0  0  0
    8.7010  -13.5646   16.8249 C   0  0  0  0  0  0  0  0  0  0  0  0
    8.0985  -13.0201   15.6324 N   0  0  0  0  0  0  0  0  0  0  0  0
    9.3855  -15.0562   21.8312 C   0  0  0  0  0  0  0  0  0  0  0  0
    9.3346  -14.3543   22.8772 O   0  0  0  0  0  0  0  0  0  0  0  0
   10.6051  -15.4481   21.2302 N   0  0  0  0  0  0  0  0  0  0  0  0
   11.6764  -15.9678   22.0435 C   0  0  1  0  0  0  0  0  0  0  0  0
   11.1367  -17.1963   22.7747 C   0  0  0  0  0  0  0  0  0  0  0  0
   12.2003  -17.8370   23.5746 C   0  0  0  0  0  0  0  0  0  0  0  0
   13.5063  -17.3567   23.7039 C   0  0  0  0  0  0  0  0  0  0  0  0
   14.1308  -18.2363   24.5127 N   0  0  0  0  0  0  0  0  0  0  0  0
   13.2856  -19.2108   24.8760 C   0  0  0  0  0  0  0  0  0  0  0  0
   12.1050  -18.9635   24.3003 N   0  0  0  0  0  0  0  0  0  0  0  0
   12.8438  -16.3306   21.2035 C   0  0  0  0  0  0  0  0  0  0  0  0
   14.1682  -16.1927   21.6421 O   0  0  0  0  0  0  0  0  0  0  0  0
   12.6911  -16.7841   20.0458 O   0  0  0  0  0  0  0  0  0  0  0  0
  2  1  1  1
  2 13  1  0
  2  3  1  0
  3  4  1  0
  4  5  2  0
  6  5  1  0
  7  6  1  0
  8  7  2  0
  9  8  1  0
 10  9  2  0
 10 11  1  0
 11 12  2  0
 12  7  1  0
 12  4  1  0
 13 14  2  0
 15 13  1  0
 16 22  1  0
 16 15  1  0
 16 17  1  6
 18 17  1  0
 19 18  1  0
 20 19  1  0
 21 20  1  0
 22 23  2  0
 24 25  1  0
 24 22  1  0
 25 32  1  0
 25 26  1  6
 27 26  1  0
 27 28  2  0
 29 28  1  0
 30 31  2  0
 30 29  1  0
 31 27  1  0
 32 34  2  0
 32 33  1  0
M  END
$$$$
