WKH.pdb
     RDKit          3D

 34 36  0  0  1  0  0  0  0  0999 V2000
    7.3657  -14.6187   23.3716 N   0  0  0  0  0  0  0  0  0  0  0  0
    8.3813  -15.5122   23.8688 C   0  0  1  0  0  0  0  0  0  0  0  0
    8.0058  -15.9932   25.2303 C   0  0  0  0  0  0  0  0  0  0  0  0
    7.1013  -15.0085   25.8627 C   0  0  0  0  0  0  0  0  0  0  0  0
    5.7730  -15.2327   26.2248 C   0  0  0  0  0  0  0  0  0  0  0  0
    5.2725  -14.1370   26.8018 N   0  0  0  0  0  0  0  0  0  0  0  0
    6.2132  -13.1874   26.8399 C   0  0  0  0  0  0  0  0  0  0  0  0
    6.2045  -11.8921   27.3176 C   0  0  0  0  0  0  0  0  0  0  0  0
    7.3103  -11.0698   27.2426 C   0  0  0  0  0  0  0  0  0  0  0  0
    8.4456  -11.5991   26.6617 C   0  0  0  0  0  0  0  0  0  0  0  0
    8.4646  -12.8966   26.1799 C   0  0  0  0  0  0  0  0  0  0  0  0
    7.3553  -13.7117   26.2603 C   0  0  0  0  0  0  0  0  0  0  0  0
    8.5856  -16.6068   22.8978 C   0  0  0  0  0  0  0  0  0  0  0  0
    9.0675  -17.6880   23.3097 O   0  0  0  0  0  0  0  0  0  0  0  0
    8.2709  -16.5169   21.5200 N   0  0  0  0  0  0  0  0  0  0  0  0
    9.1895  -15.9114   20.5854 C   0  0  1  0  0  0  0  0  0  0  0  0
    8.9130  -14.4478   20.3733 C   0  0  0  0  0  0  0  0  0  0  0  0
    9.4218  -13.9240   19.0636 C   0  0  0  0  0  0  0  0  0  0  0  0
    8.3733  -13.7736   18.0138 C   0  0  0  0  0  0  0  0  0  0  0  0
    9.0806  -13.3745   16.7229 C   0  0  0  0  0  0  0  0  0  0  0  0
    8.1676  -13.3367   15.6065 N   0  0  0  0  0  0  0  0  0  0  0  0
   10.5794  -15.9980   21.1628 C   0  0  0  0  0  0  0  0  0  0  0  0
   10.8718  -15.1134   22.0122 O   0  0  0  0  0  0  0  0  0  0  0  0
   11.4856  -17.0107   20.7684 N   0  0  0  0  0  0  0  0  0  0  0  0
   12.9053  -16.7600   20.7968 C   0  0  1  0  0  0  0  0  0  0  0  0
   13.1022  -15.2492   20.6790 C   0  0  0  0  0  0  0  0  0  0  0  0
   13.6260  -14.8933   19.3446 C   0  0  0  0  0  0  0  0  0  0  0  0
   13.5039  -15.6832   18.1981 C   0  0  0  0  0  0  0  0  0  0  0  0
   14.1154  -14.9868   17.2190 N   0  0  0  0  0  0  0  0  0  0  0  0
   14.5952  -13.8328   17.7029 C   0  0  0  0  0  0  0  0  0  0  0  0
   14.2939  -13.7786   19.0040 N   0  0  0  0  0  0  0  0  0  0  0  0
   13.5024  -17.2680   22.0559 C   0  0  0  0  0  0  0  0  0  0  0  0
   14.8638  -17.1308   22.3612 O   0  0  0  0  0  0  0  0  0  0  0  0
   12.8012  -17.8515   22.9144 O   0  0  0  0  0  0  0  0  0  0  0  0
  2  1  1  6
  2 13  1  0
  2  3  1  0
  3  4  1  0
  4  5  2  0
  6  5  1  0
  7  6  1  0
  8  7  2  0
  9  8  1  0
 10  9  2  0
 10 11  1  0
 11 12  2  0
 12  7  1  0
 12  4  1  0
 13 14  2  0
 15 13  1  0
 16 22  1  0
 16 15  1  0
 16 17  1  1
 18 17  1  0
 19 18  1  0
 20 19  1  0
 21 20  1  0
 22 23  2  0
 24 25  1  0
 24 22  1  0
 25 32  1  0
 25 26  1  1
 27 26  1  0
 27 28  2  0
 29 28  1  0
 30 31  2  0
 30 29  1  0
 31 27  1  0
 32 34  2  0
 32 33  1  0
M  END
$$$$
