WKH.pdb
     RDKit          3D

 34 36  0  0  1  0  0  0  0  0999 V2000
    6.1939  -17.3586   23.9195 N   0  0  0  0  0  0  0  0  0  0  0  0
    7.1222  -16.2751   23.7160 C   0  0  1  0  0  0  0  0  0  0  0  0
    7.8521  -15.9923   24.9861 C   0  0  0  0  0  0  0  0  0  0  0  0
    7.0574  -15.0518   25.8057 C   0  0  0  0  0  0  0  0  0  0  0  0
    6.0306  -15.3985   26.6840 C   0  0  0  0  0  0  0  0  0  0  0  0
    5.5593  -14.3008   27.2815 N   0  0  0  0  0  0  0  0  0  0  0  0
    6.2296  -13.2323   26.8374 C   0  0  0  0  0  0  0  0  0  0  0  0
    6.1269  -11.8865   27.1280 C   0  0  0  0  0  0  0  0  0  0  0  0
    6.9321  -10.9383   26.5304 C   0  0  0  0  0  0  0  0  0  0  0  0
    7.8604  -11.3928   25.6149 C   0  0  0  0  0  0  0  0  0  0  0  0
    7.9715  -12.7399   25.3168 C   0  0  0  0  0  0  0  0  0  0  0  0
    7.1634  -13.6806   25.9197 C   0  0  0  0  0  0  0  0  0  0  0  0
    8.0177  -16.6056   22.5884 C   0  0  0  0  0  0  0  0  0  0  0  0
    8.4783  -17.7688   22.5129 O   0  0  0  0  0  0  0  0  0  0  0  0
    8.3950  -15.6889   21.5771 N   0  0  0  0  0  0  0  0  0  0  0  0
    9.4092  -16.0273   20.6072 C   0  0  1  0  0  0  0  0  0  0  0  0
    9.6268  -14.9339   19.5969 C   0  0  0  0  0  0  0  0  0  0  0  0
    8.5873  -14.8988   18.5167 C   0  0  0  0  0  0  0  0  0  0  0  0
    8.8217  -13.8595   17.4730 C   0  0  0  0  0  0  0  0  0  0  0  0
    7.6946  -13.9816   16.4529 C   0  0  0  0  0  0  0  0  0  0  0  0
    7.8615  -13.0515   15.3628 N   0  0  0  0  0  0  0  0  0  0  0  0
   10.7202  -16.1981   21.3318 C   0  0  0  0  0  0  0  0  0  0  0  0
   10.9687  -15.3357   22.2172 O   0  0  0  0  0  0  0  0  0  0  0  0
   11.6037  -17.2608   21.0280 N   0  0  0  0  0  0  0  0  0  0  0  0
   12.9139  -17.3044   21.6286 C   0  0  1  0  0  0  0  0  0  0  0  0
   13.3183  -18.7745   21.7302 C   0  0  0  0  0  0  0  0  0  0  0  0
   12.6848  -19.4106   22.9032 C   0  0  0  0  0  0  0  0  0  0  0  0
   12.0036  -18.7286   23.9152 C   0  0  0  0  0  0  0  0  0  0  0  0
   11.5932  -19.6834   24.7741 N   0  0  0  0  0  0  0  0  0  0  0  0
   11.9832  -20.8911   24.3436 C   0  0  0  0  0  0  0  0  0  0  0  0
   12.6510  -20.7207   23.1983 N   0  0  0  0  0  0  0  0  0  0  0  0
   13.8920  -16.5489   20.8087 C   0  0  0  0  0  0  0  0  0  0  0  0
   15.2177  -16.3354   21.2117 O   0  0  0  0  0  0  0  0  0  0  0  0
   13.5674  -16.0615   19.7013 O   0  0  0  0  0  0  0  0  0  0  0  0
  2  1  1  1
  2 13  1  0
  2  3  1  0
  3  4  1  0
  4  5  2  0
  6  5  1  0
  7  6  1  0
  8  7  2  0
  9  8  1  0
 10  9  2  0
 10 11  1  0
 11 12  2  0
 12  7  1  0
 12  4  1  0
 13 14  2  0
 15 13  1  0
 16 22  1  0
 16 15  1  0
 16 17  1  6
 18 17  1  0
 19 18  1  0
 20 19  1  0
 21 20  1  0
 22 23  2  0
 24 25  1  0
 24 22  1  0
 25 32  1  0
 25 26  1  6
 27 26  1  0
 27 28  2  0
 29 28  1  0
 30 31  2  0
 30 29  1  0
 31 27  1  0
 32 34  2  0
 32 33  1  0
M  END
$$$$
