WKH.pdb
     RDKit          3D

 34 36  0  0  1  0  0  0  0  0999 V2000
    6.2794  -17.2625   24.0702 N   0  0  0  0  0  0  0  0  0  0  0  0
    7.4916  -16.4992   23.9124 C   0  0  1  0  0  0  0  0  0  0  0  0
    7.8836  -15.9008   25.2217 C   0  0  0  0  0  0  0  0  0  0  0  0
    6.9818  -14.7696   25.5300 C   0  0  0  0  0  0  0  0  0  0  0  0
    5.6777  -14.8718   26.0144 C   0  0  0  0  0  0  0  0  0  0  0  0
    5.1739  -13.6507   26.2123 N   0  0  0  0  0  0  0  0  0  0  0  0
    6.0891  -12.7345   25.8790 C   0  0  0  0  0  0  0  0  0  0  0  0
    6.0666  -11.3541   25.8909 C   0  0  0  0  0  0  0  0  0  0  0  0
    7.1450  -10.5943   25.4857 C   0  0  0  0  0  0  0  0  0  0  0  0
    8.2671  -11.2772   25.0602 C   0  0  0  0  0  0  0  0  0  0  0  0
    8.2999  -12.6609   25.0447 C   0  0  0  0  0  0  0  0  0  0  0  0
    7.2179  -13.4122   25.4525 C   0  0  0  0  0  0  0  0  0  0  0  0
    8.5384  -17.3619   23.3271 C   0  0  0  0  0  0  0  0  0  0  0  0
    8.6543  -18.5340   23.7553 O   0  0  0  0  0  0  0  0  0  0  0  0
    9.4285  -16.9507   22.3054 N   0  0  0  0  0  0  0  0  0  0  0  0
   10.6665  -17.6549   22.0697 C   0  0  1  0  0  0  0  0  0  0  0  0
   11.4772  -17.0385   20.9622 C   0  0  0  0  0  0  0  0  0  0  0  0
   12.7996  -17.7099   20.7408 C   0  0  0  0  0  0  0  0  0  0  0  0
   13.5907  -17.1485   19.6080 C   0  0  0  0  0  0  0  0  0  0  0  0
   14.8539  -17.9929   19.4772 C   0  0  0  0  0  0  0  0  0  0  0  0
   15.7679  -17.4356   18.5101 N   0  0  0  0  0  0  0  0  0  0  0  0
   11.5116  -17.5579   23.3144 C   0  0  0  0  0  0  0  0  0  0  0  0
   11.7955  -16.3881   23.6894 O   0  0  0  0  0  0  0  0  0  0  0  0
   11.9502  -18.7117   24.0061 N   0  0  0  0  0  0  0  0  0  0  0  0
   12.3505  -18.6164   25.3881 C   0  0  1  0  0  0  0  0  0  0  0  0
   11.3064  -19.3643   26.2161 C   0  0  0  0  0  0  0  0  0  0  0  0
   11.6691  -19.3525   27.6479 C   0  0  0  0  0  0  0  0  0  0  0  0
   12.2510  -18.2736   28.3191 C   0  0  0  0  0  0  0  0  0  0  0  0
   12.4097  -18.6896   29.5917 N   0  0  0  0  0  0  0  0  0  0  0  0
   11.9615  -19.9454   29.7268 C   0  0  0  0  0  0  0  0  0  0  0  0
   11.5089  -20.3482   28.5354 N   0  0  0  0  0  0  0  0  0  0  0  0
   13.6961  -19.2080   25.5863 C   0  0  0  0  0  0  0  0  0  0  0  0
   14.4633  -19.7223   24.5316 O   0  0  0  0  0  0  0  0  0  0  0  0
   14.2120  -19.2733   26.7259 O   0  0  0  0  0  0  0  0  0  0  0  0
  2  1  1  1
  2 13  1  0
  2  3  1  0
  3  4  1  0
  4  5  2  0
  6  5  1  0
  7  6  1  0
  8  7  2  0
  9  8  1  0
 10  9  2  0
 10 11  1  0
 11 12  2  0
 12  7  1  0
 12  4  1  0
 13 14  2  0
 15 13  1  0
 16 22  1  0
 16 15  1  0
 16 17  1  6
 18 17  1  0
 19 18  1  0
 20 19  1  0
 21 20  1  0
 22 23  2  0
 24 25  1  0
 24 22  1  0
 25 32  1  0
 25 26  1  1
 27 26  1  0
 27 28  2  0
 29 28  1  0
 30 31  2  0
 30 29  1  0
 31 27  1  0
 32 34  2  0
 32 33  1  0
M  END
$$$$
