WKH.pdb
     RDKit          3D

 34 36  0  0  1  0  0  0  0  0999 V2000
    6.6821  -17.7470   24.9162 N   0  0  0  0  0  0  0  0  0  0  0  0
    7.2989  -16.7963   24.0258 C   0  0  1  0  0  0  0  0  0  0  0  0
    8.2380  -15.9256   24.7913 C   0  0  0  0  0  0  0  0  0  0  0  0
    7.4595  -14.9726   25.6121 C   0  0  0  0  0  0  0  0  0  0  0  0
    6.4552  -15.3062   26.5209 C   0  0  0  0  0  0  0  0  0  0  0  0
    5.9941  -14.1991   27.1089 N   0  0  0  0  0  0  0  0  0  0  0  0
    6.6497  -13.1369   26.6292 C   0  0  0  0  0  0  0  0  0  0  0  0
    6.5489  -11.7863   26.8972 C   0  0  0  0  0  0  0  0  0  0  0  0
    7.3362  -10.8468   26.2631 C   0  0  0  0  0  0  0  0  0  0  0  0
    8.2442  -11.3152   25.3343 C   0  0  0  0  0  0  0  0  0  0  0  0
    8.3532  -12.6673   25.0587 C   0  0  0  0  0  0  0  0  0  0  0  0
    7.5631  -13.5992   25.6981 C   0  0  0  0  0  0  0  0  0  0  0  0
    7.9481  -17.5200   22.9134 C   0  0  0  0  0  0  0  0  0  0  0  0
    8.5510  -18.5889   23.1678 O   0  0  0  0  0  0  0  0  0  0  0  0
    7.9354  -17.0842   21.5661 N   0  0  0  0  0  0  0  0  0  0  0  0
    8.6839  -17.7857   20.5504 C   0  0  1  0  0  0  0  0  0  0  0  0
    8.2194  -17.4509   19.1591 C   0  0  0  0  0  0  0  0  0  0  0  0
    8.7748  -16.1604   18.6348 C   0  0  0  0  0  0  0  0  0  0  0  0
    7.8616  -15.4306   17.7087 C   0  0  0  0  0  0  0  0  0  0  0  0
    8.5237  -14.0967   17.3797 C   0  0  0  0  0  0  0  0  0  0  0  0
    7.7699  -13.3575   16.3965 N   0  0  0  0  0  0  0  0  0  0  0  0
   10.1230  -17.3437   20.6316 C   0  0  0  0  0  0  0  0  0  0  0  0
   10.5442  -16.6783   19.6471 O   0  0  0  0  0  0  0  0  0  0  0  0
   10.9358  -17.6616   21.7454 N   0  0  0  0  0  0  0  0  0  0  0  0
   12.1934  -16.9830   21.9385 C   0  0  1  0  0  0  0  0  0  0  0  0
   11.8820  -15.5030   22.1571 C   0  0  0  0  0  0  0  0  0  0  0  0
   11.9407  -14.7629   20.8803 C   0  0  0  0  0  0  0  0  0  0  0  0
   12.2306  -15.3306   19.6366 C   0  0  0  0  0  0  0  0  0  0  0  0
   12.1784  -14.3093   18.7580 N   0  0  0  0  0  0  0  0  0  0  0  0
   11.8764  -13.1683   19.3929 C   0  0  0  0  0  0  0  0  0  0  0  0
   11.7316  -13.4493   20.6916 N   0  0  0  0  0  0  0  0  0  0  0  0
   12.9174  -17.5426   23.1058 C   0  0  0  0  0  0  0  0  0  0  0  0
   14.1892  -17.0998   23.4953 O   0  0  0  0  0  0  0  0  0  0  0  0
   12.4123  -18.4512   23.8048 O   0  0  0  0  0  0  0  0  0  0  0  0
  2  1  1  1
  2 13  1  0
  2  3  1  0
  3  4  1  0
  4  5  2  0
  6  5  1  0
  7  6  1  0
  8  7  2  0
  9  8  1  0
 10  9  2  0
 10 11  1  0
 11 12  2  0
 12  7  1  0
 12  4  1  0
 13 14  2  0
 15 13  1  0
 16 22  1  0
 16 15  1  0
 16 17  1  6
 18 17  1  0
 19 18  1  0
 20 19  1  0
 21 20  1  0
 22 23  2  0
 24 25  1  0
 24 22  1  0
 25 32  1  0
 25 26  1  1
 27 26  1  0
 27 28  2  0
 29 28  1  0
 30 31  2  0
 30 29  1  0
 31 27  1  0
 32 34  2  0
 32 33  1  0
M  END
$$$$
