WKH.pdb
     RDKit          3D

 34 36  0  0  1  0  0  0  0  0999 V2000
    6.4388  -17.3788   23.8848 N   0  0  0  0  0  0  0  0  0  0  0  0
    7.1873  -16.2014   23.5234 C   0  0  1  0  0  0  0  0  0  0  0  0
    8.0131  -15.7543   24.6828 C   0  0  0  0  0  0  0  0  0  0  0  0
    7.1995  -14.8748   25.5503 C   0  0  0  0  0  0  0  0  0  0  0  0
    6.2497  -15.2961   26.4810 C   0  0  0  0  0  0  0  0  0  0  0  0
    5.7348  -14.2362   27.1100 N   0  0  0  0  0  0  0  0  0  0  0  0
    6.3021  -13.1215   26.6368 C   0  0  0  0  0  0  0  0  0  0  0  0
    6.1199  -11.7872   26.9409 C   0  0  0  0  0  0  0  0  0  0  0  0
    6.8217  -10.7825   26.3063 C   0  0  0  0  0  0  0  0  0  0  0  0
    7.7285  -11.1674   25.3387 C   0  0  0  0  0  0  0  0  0  0  0  0
    7.9187  -12.5025   25.0267 C   0  0  0  0  0  0  0  0  0  0  0  0
    7.2138  -13.4999   25.6669 C   0  0  0  0  0  0  0  0  0  0  0  0
    7.9845  -16.4831   22.3119 C   0  0  0  0  0  0  0  0  0  0  0  0
    8.3470  -17.6634   22.0970 O   0  0  0  0  0  0  0  0  0  0  0  0
    8.3709  -15.5009   21.3678 N   0  0  0  0  0  0  0  0  0  0  0  0
    9.1747  -15.8481   20.2200 C   0  0  1  0  0  0  0  0  0  0  0  0
    9.1048  -14.8098   19.1334 C   0  0  0  0  0  0  0  0  0  0  0  0
    7.7216  -14.5957   18.5954 C   0  0  0  0  0  0  0  0  0  0  0  0
    7.6325  -13.5602   17.5259 C   0  0  0  0  0  0  0  0  0  0  0  0
    8.2251  -14.1676   16.2587 C   0  0  0  0  0  0  0  0  0  0  0  0
    8.1911  -13.2367   15.1570 N   0  0  0  0  0  0  0  0  0  0  0  0
   10.6177  -15.9085   20.6525 C   0  0  0  0  0  0  0  0  0  0  0  0
   11.3609  -14.9980   20.1964 O   0  0  0  0  0  0  0  0  0  0  0  0
   11.0928  -16.9256   21.5138 N   0  0  0  0  0  0  0  0  0  0  0  0
   12.4982  -17.0093   21.8256 C   0  0  1  0  0  0  0  0  0  0  0  0
   12.6478  -17.9884   22.9893 C   0  0  0  0  0  0  0  0  0  0  0  0
   11.8390  -17.5527   24.1457 C   0  0  0  0  0  0  0  0  0  0  0  0
   11.1576  -16.3357   24.2351 C   0  0  0  0  0  0  0  0  0  0  0  0
   10.5586  -16.3508   25.4429 N   0  0  0  0  0  0  0  0  0  0  0  0
   10.8360  -17.4955   26.0822 C   0  0  0  0  0  0  0  0  0  0  0  0
   11.6197  -18.2289   25.2856 N   0  0  0  0  0  0  0  0  0  0  0  0
   13.2697  -17.4758   20.6478 C   0  0  0  0  0  0  0  0  0  0  0  0
   14.6704  -17.5308   20.6297 O   0  0  0  0  0  0  0  0  0  0  0  0
   12.6900  -17.8469   19.6011 O   0  0  0  0  0  0  0  0  0  0  0  0
  2  1  1  1
  2 13  1  0
  2  3  1  0
  3  4  1  0
  4  5  2  0
  6  5  1  0
  7  6  1  0
  8  7  2  0
  9  8  1  0
 10  9  2  0
 10 11  1  0
 11 12  2  0
 12  7  1  0
 12  4  1  0
 13 14  2  0
 15 13  1  0
 16 22  1  0
 16 15  1  0
 16 17  1  6
 18 17  1  0
 19 18  1  0
 20 19  1  0
 21 20  1  0
 22 23  2  0
 24 25  1  0
 24 22  1  0
 25 32  1  0
 25 26  1  1
 27 26  1  0
 27 28  2  0
 29 28  1  0
 30 31  2  0
 30 29  1  0
 31 27  1  0
 32 34  2  0
 32 33  1  0
M  END
$$$$
