WKH.pdb
     RDKit          3D

 34 36  0  0  1  0  0  0  0  0999 V2000
    5.7080  -18.3215   24.5577 N   0  0  0  0  0  0  0  0  0  0  0  0
    6.1536  -16.9641   24.3680 C   0  0  1  0  0  0  0  0  0  0  0  0
    6.8833  -16.4994   25.5836 C   0  0  0  0  0  0  0  0  0  0  0  0
    6.2895  -15.2282   26.0521 C   0  0  0  0  0  0  0  0  0  0  0  0
    4.9886  -15.0589   26.5263 C   0  0  0  0  0  0  0  0  0  0  0  0
    4.8057  -13.7883   26.8953 N   0  0  0  0  0  0  0  0  0  0  0  0
    5.9328  -13.0997   26.6862 C   0  0  0  0  0  0  0  0  0  0  0  0
    6.2609  -11.7741   26.8898 C   0  0  0  0  0  0  0  0  0  0  0  0
    7.5082  -11.2671   26.5867 C   0  0  0  0  0  0  0  0  0  0  0  0
    8.4321  -12.1494   26.0629 C   0  0  0  0  0  0  0  0  0  0  0  0
    8.1131  -13.4802   25.8553 C   0  0  0  0  0  0  0  0  0  0  0  0
    6.8645  -13.9785   26.1622 C   0  0  0  0  0  0  0  0  0  0  0  0
    6.9627  -16.8844   23.1344 C   0  0  0  0  0  0  0  0  0  0  0  0
    7.6632  -17.8733   22.8151 O   0  0  0  0  0  0  0  0  0  0  0  0
    7.0010  -15.7558   22.2799 N   0  0  0  0  0  0  0  0  0  0  0  0
    7.9296  -15.6895   21.1766 C   0  0  1  0  0  0  0  0  0  0  0  0
    7.8132  -14.4043   20.4031 C   0  0  0  0  0  0  0  0  0  0  0  0
    8.6750  -14.3613   19.1767 C   0  0  0  0  0  0  0  0  0  0  0  0
    8.2578  -13.3444   18.1688 C   0  0  0  0  0  0  0  0  0  0  0  0
    9.0347  -13.6323   16.8884 C   0  0  0  0  0  0  0  0  0  0  0  0
    8.7993  -12.6224   15.8854 N   0  0  0  0  0  0  0  0  0  0  0  0
    9.3303  -15.7206   21.7331 C   0  0  0  0  0  0  0  0  0  0  0  0
   10.2533  -15.5374   20.8941 O   0  0  0  0  0  0  0  0  0  0  0  0
    9.5782  -15.9418   23.1086 N   0  0  0  0  0  0  0  0  0  0  0  0
   10.9190  -15.8303   23.6275 C   0  0  1  0  0  0  0  0  0  0  0  0
   10.8332  -15.9875   25.1451 C   0  0  0  0  0  0  0  0  0  0  0  0
   12.1753  -15.9018   25.7557 C   0  0  0  0  0  0  0  0  0  0  0  0
   13.2267  -15.1165   25.2749 C   0  0  0  0  0  0  0  0  0  0  0  0
   14.2519  -15.3362   26.1224 N   0  0  0  0  0  0  0  0  0  0  0  0
   13.8842  -16.2005   27.0784 C   0  0  0  0  0  0  0  0  0  0  0  0
   12.6128  -16.5447   26.8512 N   0  0  0  0  0  0  0  0  0  0  0  0
   11.7960  -16.8737   23.0428 C   0  0  0  0  0  0  0  0  0  0  0  0
   11.2975  -18.0510   22.4677 O   0  0  0  0  0  0  0  0  0  0  0  0
   13.0419  -16.7431   23.0388 O   0  0  0  0  0  0  0  0  0  0  0  0
  2  1  1  1
  2 13  1  0
  2  3  1  0
  3  4  1  0
  4  5  2  0
  6  5  1  0
  7  6  1  0
  8  7  2  0
  9  8  1  0
 10  9  2  0
 10 11  1  0
 11 12  2  0
 12  7  1  0
 12  4  1  0
 13 14  2  0
 15 13  1  0
 16 22  1  0
 16 15  1  0
 16 17  1  1
 18 17  1  0
 19 18  1  0
 20 19  1  0
 21 20  1  0
 22 23  2  0
 24 25  1  0
 24 22  1  0
 25 32  1  0
 25 26  1  1
 27 26  1  0
 27 28  2  0
 29 28  1  0
 30 31  2  0
 30 29  1  0
 31 27  1  0
 32 34  2  0
 32 33  1  0
M  END
$$$$
