WKH.pdb
     RDKit          3D

 34 36  0  0  1  0  0  0  0  0999 V2000
    6.4638  -18.3439   24.8307 N   0  0  0  0  0  0  0  0  0  0  0  0
    6.7048  -16.9358   24.6402 C   0  0  1  0  0  0  0  0  0  0  0  0
    7.2656  -16.3474   25.8913 C   0  0  0  0  0  0  0  0  0  0  0  0
    6.5349  -15.1026   26.2145 C   0  0  0  0  0  0  0  0  0  0  0  0
    5.2157  -15.0210   26.6605 C   0  0  0  0  0  0  0  0  0  0  0  0
    4.8952  -13.7443   26.8871 N   0  0  0  0  0  0  0  0  0  0  0  0
    5.9477  -12.9674   26.6098 C   0  0  0  0  0  0  0  0  0  0  0  0
    6.1325  -11.6005   26.6686 C   0  0  0  0  0  0  0  0  0  0  0  0
    7.3250  -11.0007   26.3184 C   0  0  0  0  0  0  0  0  0  0  0  0
    8.3445  -11.8322   25.8993 C   0  0  0  0  0  0  0  0  0  0  0  0
    8.1694  -13.2039   25.8371 C   0  0  0  0  0  0  0  0  0  0  0  0
    6.9746  -13.7948   26.1901 C   0  0  0  0  0  0  0  0  0  0  0  0
    7.5764  -16.7451   23.4627 C   0  0  0  0  0  0  0  0  0  0  0  0
    8.4547  -17.6068   23.2243 O   0  0  0  0  0  0  0  0  0  0  0  0
    7.4864  -15.6444   22.5763 N   0  0  0  0  0  0  0  0  0  0  0  0
    8.3035  -15.5775   21.3881 C   0  0  1  0  0  0  0  0  0  0  0  0
    7.8070  -14.5521   20.4054 C   0  0  0  0  0  0  0  0  0  0  0  0
    8.5338  -14.5758   19.0940 C   0  0  0  0  0  0  0  0  0  0  0  0
    7.9596  -13.6700   18.0577 C   0  0  0  0  0  0  0  0  0  0  0  0
    8.6757  -13.9733   16.7458 C   0  0  0  0  0  0  0  0  0  0  0  0
    8.1624  -13.1709   15.6623 N   0  0  0  0  0  0  0  0  0  0  0  0
    9.6891  -15.1398   21.7895 C   0  0  0  0  0  0  0  0  0  0  0  0
    9.8233  -13.9089   22.0273 O   0  0  0  0  0  0  0  0  0  0  0  0
   10.7591  -16.0603   21.8889 N   0  0  0  0  0  0  0  0  0  0  0  0
   11.5417  -16.1297   23.0981 C   0  0  1  0  0  0  0  0  0  0  0  0
   10.5798  -16.4391   24.2445 C   0  0  0  0  0  0  0  0  0  0  0  0
   11.2942  -16.4492   25.5372 C   0  0  0  0  0  0  0  0  0  0  0  0
   12.6419  -16.1227   25.7116 C   0  0  0  0  0  0  0  0  0  0  0  0
   12.8744  -16.2632   27.0322 N   0  0  0  0  0  0  0  0  0  0  0  0
   11.7558  -16.6519   27.6597 C   0  0  0  0  0  0  0  0  0  0  0  0
   10.7906  -16.7648   26.7420 N   0  0  0  0  0  0  0  0  0  0  0  0
   12.5815  -17.1819   22.9900 C   0  0  0  0  0  0  0  0  0  0  0  0
   12.2746  -18.5410   22.8348 O   0  0  0  0  0  0  0  0  0  0  0  0
   13.7998  -16.8936   23.0338 O   0  0  0  0  0  0  0  0  0  0  0  0
  2  1  1  1
  2 13  1  0
  2  3  1  0
  3  4  1  0
  4  5  2  0
  6  5  1  0
  7  6  1  0
  8  7  2  0
  9  8  1  0
 10  9  2  0
 10 11  1  0
 11 12  2  0
 12  7  1  0
 12  4  1  0
 13 14  2  0
 15 13  1  0
 16 22  1  0
 16 15  1  0
 16 17  1  6
 18 17  1  0
 19 18  1  0
 20 19  1  0
 21 20  1  0
 22 23  2  0
 24 25  1  0
 24 22  1  0
 25 32  1  0
 25 26  1  1
 27 26  1  0
 27 28  2  0
 29 28  1  0
 30 31  2  0
 30 29  1  0
 31 27  1  0
 32 34  2  0
 32 33  1  0
M  END
$$$$
