GNI.pdb
     RDKit          3D

 21 20  0  0  1  0  0  0  0  0999 V2000
   16.9788  -12.4940  -15.3229 N   0  0  0  0  0  0  0  0  0  0  0  0
   17.0309  -11.2108  -15.9566 C   0  0  0  0  0  0  0  0  0  0  0  0
   18.2688  -10.5029  -15.5701 C   0  0  0  0  0  0  0  0  0  0  0  0
   18.9229  -10.8844  -14.5704 O   0  0  0  0  0  0  0  0  0  0  0  0
   23.3484   -8.4747  -16.5094 N   0  0  0  0  0  0  0  0  0  0  0  0
   22.1420   -7.7848  -16.7419 C   0  0  0  0  0  0  0  0  0  0  0  0
   22.1119   -6.5442  -16.6431 O   0  0  0  0  0  0  0  0  0  0  0  0
   20.9248   -8.5266  -17.0993 C   0  0  0  0  0  0  0  0  0  0  0  0
   19.9932   -8.7160  -15.9238 C   0  0  2  0  0  0  0  0  0  0  0  0
   18.7778   -9.3832  -16.2833 N   0  0  0  0  0  0  0  0  0  0  0  0
   19.7374   -7.4247  -15.2273 C   0  0  0  0  0  0  0  0  0  0  0  0
   18.7906   -6.7132  -15.6518 O   0  0  0  0  0  0  0  0  0  0  0  0
   19.0389   -5.2705   -9.7447 C   0  0  0  0  0  0  0  0  0  0  0  0
   19.4089   -4.9611  -11.1744 C   0  0  0  0  0  0  0  0  0  0  0  0
   19.8561   -6.1626  -11.9432 C   0  0  2  0  0  0  0  0  0  0  0  0
   21.0936   -6.7258  -11.2757 C   0  0  0  0  0  0  0  0  0  0  0  0
   20.2043   -5.8702  -13.3799 C   0  0  2  0  0  0  0  0  0  0  0  0
   20.5431   -7.0349  -14.1317 N   0  0  0  0  0  0  0  0  0  0  0  0
   21.3971   -4.9684  -13.3418 C   0  0  0  0  0  0  0  0  0  0  0  0
   22.5455   -5.3841  -13.6360 O   0  0  0  0  0  0  0  0  0  0  0  0
   21.2645   -3.6378  -12.9772 O   0  0  0  0  0  0  0  0  0  0  0  0
  1  2  1  0
  3  4  2  0
  3  2  1  0
  6  8  1  0
  6  5  1  0
  7  6  2  0
  9  8  1  6
  9 11  1  0
  9 10  1  0
 10  3  1  0
 11 12  2  0
 13 14  1  0
 15 14  1  0
 15 16  1  1
 17 15  1  0
 17 18  1  6
 18 11  1  0
 19 17  1  0
 20 19  2  0
 21 19  1  0
M  END
$$$$
