GNI.pdb
     RDKit          3D

 21 20  0  0  1  0  0  0  0  0999 V2000
   27.8792  -25.0387  -17.1239 N   0  0  0  0  0  0  0  0  0  0  0  0
   27.1985  -23.8364  -17.5007 C   0  0  0  0  0  0  0  0  0  0  0  0
   27.1517  -22.8997  -16.3590 C   0  0  0  0  0  0  0  0  0  0  0  0
   27.6355  -23.2362  -15.2520 O   0  0  0  0  0  0  0  0  0  0  0  0
   26.0977  -17.1776  -14.5634 N   0  0  0  0  0  0  0  0  0  0  0  0
   26.9720  -18.2556  -14.8063 C   0  0  0  0  0  0  0  0  0  0  0  0
   27.9968  -18.3871  -14.1120 O   0  0  0  0  0  0  0  0  0  0  0  0
   26.6751  -19.2202  -15.8744 C   0  0  0  0  0  0  0  0  0  0  0  0
   26.6463  -20.6476  -15.3770 C   0  0  2  0  0  0  0  0  0  0  0  0
   26.5748  -21.6029  -16.4419 N   0  0  0  0  0  0  0  0  0  0  0  0
   25.5630  -20.8456  -14.3744 C   0  0  0  0  0  0  0  0  0  0  0  0
   24.4016  -21.0589  -14.8083 O   0  0  0  0  0  0  0  0  0  0  0  0
   25.8030  -19.4412   -8.7093 C   0  0  0  0  0  0  0  0  0  0  0  0
   25.3739  -19.5820  -10.1491 C   0  0  0  0  0  0  0  0  0  0  0  0
   25.3032  -21.0026  -10.6092 C   0  0  2  0  0  0  0  0  0  0  0  0
   26.6838  -21.6142  -10.4910 C   0  0  0  0  0  0  0  0  0  0  0  0
   24.8556  -21.1566  -12.0398 C   0  0  2  0  0  0  0  0  0  0  0  0
   25.8546  -20.7911  -12.9911 N   0  0  0  0  0  0  0  0  0  0  0  0
   23.6847  -20.2412  -12.2084 C   0  0  0  0  0  0  0  0  0  0  0  0
   22.5952  -20.4516  -11.6195 O   0  0  0  0  0  0  0  0  0  0  0  0
   23.7729  -19.1261  -13.0270 O   0  0  0  0  0  0  0  0  0  0  0  0
  1  2  1  0
  3  4  2  0
  3  2  1  0
  6  8  1  0
  6  5  1  0
  7  6  2  0
  9  8  1  6
  9 11  1  0
  9 10  1  0
 10  3  1  0
 11 12  2  0
 13 14  1  0
 15 14  1  0
 15 16  1  6
 17 15  1  0
 17 18  1  6
 18 11  1  0
 19 17  1  0
 20 19  2  0
 21 19  1  0
M  END
$$$$
