GNI.pdb
     RDKit          3D

 21 20  0  0  1  0  0  0  0  0999 V2000
   25.4995  -24.2380  -15.3189 N   0  0  0  0  0  0  0  0  0  0  0  0
   25.2922  -23.2356  -14.3173 C   0  0  0  0  0  0  0  0  0  0  0  0
   23.9889  -22.5715  -14.5251 C   0  0  0  0  0  0  0  0  0  0  0  0
   23.3502  -22.7627  -15.5873 O   0  0  0  0  0  0  0  0  0  0  0  0
   20.1739  -22.8667  -13.1563 N   0  0  0  0  0  0  0  0  0  0  0  0
   20.3829  -21.8258  -12.2299 C   0  0  0  0  0  0  0  0  0  0  0  0
   19.7110  -21.7881  -11.1826 O   0  0  0  0  0  0  0  0  0  0  0  0
   21.3895  -20.7895  -12.4990 C   0  0  0  0  0  0  0  0  0  0  0  0
   22.1492  -21.0365  -13.7825 C   0  0  2  0  0  0  0  0  0  0  0  0
   23.3980  -21.7038  -13.5662 N   0  0  0  0  0  0  0  0  0  0  0  0
   22.3154  -19.7769  -14.5595 C   0  0  0  0  0  0  0  0  0  0  0  0
   23.0873  -18.9018  -14.0894 O   0  0  0  0  0  0  0  0  0  0  0  0
   23.0553  -17.6902  -20.1306 C   0  0  0  0  0  0  0  0  0  0  0  0
   22.4312  -17.4366  -18.7804 C   0  0  0  0  0  0  0  0  0  0  0  0
   22.3136  -18.6688  -17.9421 C   0  0  2  0  0  0  0  0  0  0  0  0
   21.3282  -19.6082  -18.6058 C   0  0  0  0  0  0  0  0  0  0  0  0
   21.8236  -18.4067  -16.5415 C   0  0  2  0  0  0  0  0  0  0  0  0
   21.6201  -19.5952  -15.7782 N   0  0  0  0  0  0  0  0  0  0  0  0
   20.5094  -17.7071  -16.6865 C   0  0  0  0  0  0  0  0  0  0  0  0
   19.4204  -18.3178  -16.5484 O   0  0  0  0  0  0  0  0  0  0  0  0
   20.4593  -16.3534  -16.9799 O   0  0  0  0  0  0  0  0  0  0  0  0
  1  2  1  0
  3  4  2  0
  3  2  1  0
  6  8  1  0
  6  5  1  0
  7  6  2  0
  9  8  1  1
  9 11  1  0
  9 10  1  0
 10  3  1  0
 11 12  2  0
 13 14  1  0
 15 14  1  0
 15 16  1  6
 17 15  1  0
 17 18  1  1
 18 11  1  0
 19 17  1  0
 20 19  2  0
 21 19  1  0
M  END
$$$$
