GNI.pdb
     RDKit          3D

 21 20  0  0  1  0  0  0  0  0999 V2000
   27.6278  -20.0973  -14.6400 N   0  0  0  0  0  0  0  0  0  0  0  0
   27.7247  -21.0085  -13.5394 C   0  0  0  0  0  0  0  0  0  0  0  0
   27.0824  -20.4291  -12.3417 C   0  0  0  0  0  0  0  0  0  0  0  0
   27.3728  -19.2652  -11.9758 O   0  0  0  0  0  0  0  0  0  0  0  0
   23.9249  -19.4344  -12.2872 N   0  0  0  0  0  0  0  0  0  0  0  0
   23.2773  -20.1818  -11.2835 C   0  0  0  0  0  0  0  0  0  0  0  0
   22.0344  -20.2517  -11.2716 O   0  0  0  0  0  0  0  0  0  0  0  0
   24.0656  -20.8756  -10.2556 C   0  0  0  0  0  0  0  0  0  0  0  0
   25.5458  -20.5880  -10.3656 C   0  0  2  0  0  0  0  0  0  0  0  0
   26.1277  -21.1312  -11.5562 N   0  0  0  0  0  0  0  0  0  0  0  0
   26.2704  -21.0239   -9.1397 C   0  0  0  0  0  0  0  0  0  0  0  0
   26.6099  -22.2329   -9.0645 O   0  0  0  0  0  0  0  0  0  0  0  0
   29.7552  -18.7598   -4.5613 C   0  0  0  0  0  0  0  0  0  0  0  0
   28.9053  -19.8574   -5.1526 C   0  0  0  0  0  0  0  0  0  0  0  0
   28.1146  -19.4175   -6.3426 C   0  0  2  0  0  0  0  0  0  0  0  0
   27.1749  -18.3106   -5.9114 C   0  0  0  0  0  0  0  0  0  0  0  0
   27.2807  -20.5120   -6.9568 C   0  0  2  0  0  0  0  0  0  0  0  0
   26.5547  -20.0940   -8.1121 N   0  0  0  0  0  0  0  0  0  0  0  0
   26.2998  -20.9250   -5.9057 C   0  0  0  0  0  0  0  0  0  0  0  0
   26.6747  -21.4286   -4.8177 O   0  0  0  0  0  0  0  0  0  0  0  0
   24.9384  -20.7608   -6.1075 O   0  0  0  0  0  0  0  0  0  0  0  0
  1  2  1  0
  3  4  2  0
  3  2  1  0
  6  8  1  0
  6  5  1  0
  7  6  2  0
  9  8  1  1
  9 11  1  0
  9 10  1  0
 10  3  1  0
 11 12  2  0
 13 14  1  0
 15 14  1  0
 15 16  1  1
 17 15  1  0
 17 18  1  6
 18 11  1  0
 19 17  1  0
 20 19  2  0
 21 19  1  0
M  END
$$$$
