GNI.pdb
     RDKit          3D

 21 20  0  0  1  0  0  0  0  0999 V2000
   28.9283  -20.8382  -14.3169 N   0  0  0  0  0  0  0  0  0  0  0  0
   27.8836  -19.8810  -14.5251 C   0  0  0  0  0  0  0  0  0  0  0  0
   26.5824  -20.4531  -14.1221 C   0  0  0  0  0  0  0  0  0  0  0  0
   26.0413  -21.3378  -14.8272 O   0  0  0  0  0  0  0  0  0  0  0  0
   26.2489  -20.5105   -9.2532 N   0  0  0  0  0  0  0  0  0  0  0  0
   25.6007  -21.2191  -10.2843 C   0  0  0  0  0  0  0  0  0  0  0  0
   25.9772  -22.3701  -10.5728 O   0  0  0  0  0  0  0  0  0  0  0  0
   24.4853  -20.6021  -11.0156 C   0  0  0  0  0  0  0  0  0  0  0  0
   24.6681  -20.6645  -12.5150 C   0  0  2  0  0  0  0  0  0  0  0  0
   25.8866  -20.0498  -12.9496 N   0  0  0  0  0  0  0  0  0  0  0  0
   23.4799  -20.1142  -13.2245 C   0  0  0  0  0  0  0  0  0  0  0  0
   23.2904  -18.8720  -13.1634 O   0  0  0  0  0  0  0  0  0  0  0  0
   23.1078  -21.6566  -17.6763 C   0  0  0  0  0  0  0  0  0  0  0  0
   22.4667  -20.5098  -16.9343 C   0  0  0  0  0  0  0  0  0  0  0  0
   21.3489  -20.9363  -16.0378 C   0  0  2  0  0  0  0  0  0  0  0  0
   20.0512  -20.3902  -16.5962 C   0  0  0  0  0  0  0  0  0  0  0  0
   21.4823  -20.4397  -14.6214 C   0  0  2  0  0  0  0  0  0  0  0  0
   22.6117  -20.9769  -13.9341 N   0  0  0  0  0  0  0  0  0  0  0  0
   20.2424  -20.8795  -13.9096 C   0  0  0  0  0  0  0  0  0  0  0  0
   19.3017  -20.0813  -13.6730 O   0  0  0  0  0  0  0  0  0  0  0  0
   20.0984  -22.1922  -13.4888 O   0  0  0  0  0  0  0  0  0  0  0  0
  1  2  1  0
  3  4  2  0
  3  2  1  0
  6  8  1  0
  6  5  1  0
  7  6  2  0
  9  8  1  1
  9 11  1  0
  9 10  1  0
 10  3  1  0
 11 12  2  0
 13 14  1  0
 15 14  1  0
 15 16  1  6
 17 15  1  0
 17 18  1  1
 18 11  1  0
 19 17  1  0
 20 19  2  0
 21 19  1  0
M  END
$$$$
