GNI.pdb
     RDKit          3D

 21 20  0  0  1  0  0  0  0  0999 V2000
   20.4763  -18.0562  -15.7622 N   0  0  0  0  0  0  0  0  0  0  0  0
   21.7779  -17.6421  -15.3317 C   0  0  0  0  0  0  0  0  0  0  0  0
   22.4242  -18.7214  -14.5569 C   0  0  0  0  0  0  0  0  0  0  0  0
   22.0442  -18.9673  -13.3873 O   0  0  0  0  0  0  0  0  0  0  0  0
   22.9872  -23.0711  -14.1045 N   0  0  0  0  0  0  0  0  0  0  0  0
   24.0674  -22.9401  -14.9998 C   0  0  0  0  0  0  0  0  0  0  0  0
   24.4691  -23.9347  -15.6314 O   0  0  0  0  0  0  0  0  0  0  0  0
   24.7165  -21.6351  -15.1870 C   0  0  0  0  0  0  0  0  0  0  0  0
   24.1165  -20.5568  -14.3136 C   0  0  2  0  0  0  0  0  0  0  0  0
   23.4811  -19.5210  -15.0717 N   0  0  0  0  0  0  0  0  0  0  0  0
   25.1243  -20.0144  -13.3606 C   0  0  0  0  0  0  0  0  0  0  0  0
   25.7554  -18.9828  -13.7072 O   0  0  0  0  0  0  0  0  0  0  0  0
   26.4728  -19.5435   -7.4151 C   0  0  0  0  0  0  0  0  0  0  0  0
   26.9529  -19.6403   -8.8422 C   0  0  0  0  0  0  0  0  0  0  0  0
   25.9137  -20.1619   -9.7819 C   0  0  2  0  0  0  0  0  0  0  0  0
   25.6038  -21.5960   -9.4061 C   0  0  0  0  0  0  0  0  0  0  0  0
   26.3400  -20.1497  -11.2272 C   0  0  2  0  0  0  0  0  0  0  0  0
   25.3455  -20.6536  -12.1180 N   0  0  0  0  0  0  0  0  0  0  0  0
   27.5428  -21.0348  -11.3119 C   0  0  0  0  0  0  0  0  0  0  0  0
   27.4565  -22.2266  -11.6996 O   0  0  0  0  0  0  0  0  0  0  0  0
   28.7961  -20.5578  -10.9612 O   0  0  0  0  0  0  0  0  0  0  0  0
  1  2  1  0
  3  4  2  0
  3  2  1  0
  6  8  1  0
  6  5  1  0
  7  6  2  0
  9  8  1  6
  9 11  1  0
  9 10  1  0
 10  3  1  0
 11 12  2  0
 13 14  1  0
 15 14  1  0
 15 16  1  1
 17 15  1  0
 17 18  1  6
 18 11  1  0
 19 17  1  0
 20 19  2  0
 21 19  1  0
M  END
$$$$
