GNI.pdb
     RDKit          3D

 21 20  0  0  1  0  0  0  0  0999 V2000
   23.2889  -21.8966  -18.6333 N   0  0  0  0  0  0  0  0  0  0  0  0
   23.4516  -22.6771  -17.4436 C   0  0  0  0  0  0  0  0  0  0  0  0
   23.7166  -21.7943  -16.2889 C   0  0  0  0  0  0  0  0  0  0  0  0
   24.7980  -21.1633  -16.2175 O   0  0  0  0  0  0  0  0  0  0  0  0
   21.5716  -18.9281  -15.5276 N   0  0  0  0  0  0  0  0  0  0  0  0
   21.0912  -19.2651  -14.2465 C   0  0  0  0  0  0  0  0  0  0  0  0
   20.0665  -18.7117  -13.8067 O   0  0  0  0  0  0  0  0  0  0  0  0
   21.7967  -20.2654  -13.4334 C   0  0  0  0  0  0  0  0  0  0  0  0
   23.0589  -20.7682  -14.0966 C   0  0  2  0  0  0  0  0  0  0  0  0
   22.7932  -21.6117  -15.2233 N   0  0  0  0  0  0  0  0  0  0  0  0
   23.9611  -21.4223  -13.1086 C   0  0  0  0  0  0  0  0  0  0  0  0
   23.6058  -22.5370  -12.6462 O   0  0  0  0  0  0  0  0  0  0  0  0
   29.8363  -21.4628  -11.1756 C   0  0  0  0  0  0  0  0  0  0  0  0
   28.3742  -21.7630  -10.9548 C   0  0  0  0  0  0  0  0  0  0  0  0
   27.4774  -21.1026  -11.9521 C   0  0  2  0  0  0  0  0  0  0  0  0
   27.6444  -19.6023  -11.8277 C   0  0  0  0  0  0  0  0  0  0  0  0
   26.0167  -21.4178  -11.7586 C   0  0  2  0  0  0  0  0  0  0  0  0
   25.1675  -20.7932  -12.7205 N   0  0  0  0  0  0  0  0  0  0  0  0
   25.6569  -20.8989  -10.4026 C   0  0  0  0  0  0  0  0  0  0  0  0
   25.1109  -19.7777  -10.2510 O   0  0  0  0  0  0  0  0  0  0  0  0
   25.9194  -21.6494   -9.2673 O   0  0  0  0  0  0  0  0  0  0  0  0
  1  2  1  0
  3  4  2  0
  3  2  1  0
  6  8  1  0
  6  5  1  0
  7  6  2  0
  9  8  1  1
  9 11  1  0
  9 10  1  0
 10  3  1  0
 11 12  2  0
 13 14  1  0
 15 14  1  0
 15 16  1  1
 17 15  1  0
 17 18  1  6
 18 11  1  0
 19 17  1  0
 20 19  2  0
 21 19  1  0
M  END
$$$$
