GNI.pdb
     RDKit          3D

 21 20  0  0  1  0  0  0  0  0999 V2000
   29.3260  -19.8251  -17.9491 N   0  0  0  0  0  0  0  0  0  0  0  0
   28.9169  -18.5183  -17.5298 C   0  0  0  0  0  0  0  0  0  0  0  0
   28.0543  -18.6149  -16.3342 C   0  0  0  0  0  0  0  0  0  0  0  0
   28.2561  -17.8603  -15.3531 O   0  0  0  0  0  0  0  0  0  0  0  0
   24.0580  -17.6139  -14.5194 N   0  0  0  0  0  0  0  0  0  0  0  0
   23.6413  -18.6974  -15.3180 C   0  0  0  0  0  0  0  0  0  0  0  0
   22.4607  -18.7579  -15.7082 O   0  0  0  0  0  0  0  0  0  0  0  0
   24.5962  -19.7511  -15.6886 C   0  0  0  0  0  0  0  0  0  0  0  0
   25.9946  -19.4710  -15.1869 C   0  0  2  0  0  0  0  0  0  0  0  0
   26.9785  -19.5382  -16.2255 N   0  0  0  0  0  0  0  0  0  0  0  0
   26.3377  -20.3489  -14.0338 C   0  0  0  0  0  0  0  0  0  0  0  0
   26.6859  -21.5309  -14.2869 O   0  0  0  0  0  0  0  0  0  0  0  0
   27.1406  -20.1112   -7.8338 C   0  0  0  0  0  0  0  0  0  0  0  0
   27.0011  -20.8586   -9.1371 C   0  0  0  0  0  0  0  0  0  0  0  0
   26.6744  -19.9719  -10.2956 C   0  0  2  0  0  0  0  0  0  0  0  0
   25.3285  -19.3258  -10.0404 C   0  0  0  0  0  0  0  0  0  0  0  0
   26.5904  -20.6988  -11.6128 C   0  0  2  0  0  0  0  0  0  0  0  0
   26.2668  -19.8486  -12.7123 N   0  0  0  0  0  0  0  0  0  0  0  0
   25.4985  -21.7096  -11.4593 C   0  0  0  0  0  0  0  0  0  0  0  0
   24.3104  -21.4469  -11.7716 O   0  0  0  0  0  0  0  0  0  0  0  0
   25.7725  -22.9747  -10.9636 O   0  0  0  0  0  0  0  0  0  0  0  0
  1  2  1  0
  3  4  2  0
  3  2  1  0
  6  8  1  0
  6  5  1  0
  7  6  2  0
  9  8  1  6
  9 11  1  0
  9 10  1  0
 10  3  1  0
 11 12  2  0
 13 14  1  0
 15 14  1  0
 15 16  1  1
 17 15  1  0
 17 18  1  6
 18 11  1  0
 19 17  1  0
 20 19  2  0
 21 19  1  0
M  END
$$$$
