GNI.pdb
     RDKit          3D

 21 20  0  0  1  0  0  0  0  0999 V2000
   15.3543  -10.4059  -14.0015 N   0  0  0  0  0  0  0  0  0  0  0  0
   15.5044   -9.9278  -15.3431 C   0  0  0  0  0  0  0  0  0  0  0  0
   16.8130   -9.2603  -15.5014 C   0  0  0  0  0  0  0  0  0  0  0  0
   17.8719   -9.9003  -15.2968 O   0  0  0  0  0  0  0  0  0  0  0  0
   16.7170   -5.7830  -19.1070 N   0  0  0  0  0  0  0  0  0  0  0  0
   17.7823   -6.4197  -18.4397 C   0  0  0  0  0  0  0  0  0  0  0  0
   18.4573   -7.2795  -19.0353 O   0  0  0  0  0  0  0  0  0  0  0  0
   18.0948   -6.0702  -17.0470 C   0  0  0  0  0  0  0  0  0  0  0  0
   18.2141   -7.2853  -16.1554 C   0  0  2  0  0  0  0  0  0  0  0  0
   16.9482   -7.8973  -15.8825 N   0  0  0  0  0  0  0  0  0  0  0  0
   18.9612   -6.9650  -14.9076 C   0  0  0  0  0  0  0  0  0  0  0  0
   18.2978   -6.5437  -13.9252 O   0  0  0  0  0  0  0  0  0  0  0  0
   23.7525   -9.6986  -13.9640 C   0  0  0  0  0  0  0  0  0  0  0  0
   22.9040   -8.5045  -14.3259 C   0  0  0  0  0  0  0  0  0  0  0  0
   21.9436   -8.1129  -13.2493 C   0  0  2  0  0  0  0  0  0  0  0  0
   21.0500   -9.2985  -12.9493 C   0  0  0  0  0  0  0  0  0  0  0  0
   21.0558   -6.9529  -13.6191 C   0  0  2  0  0  0  0  0  0  0  0  0
   20.3645   -7.1365  -14.8540 N   0  0  0  0  0  0  0  0  0  0  0  0
   21.9578   -5.7673  -13.7538 C   0  0  0  0  0  0  0  0  0  0  0  0
   22.5879   -5.3051  -12.7703 O   0  0  0  0  0  0  0  0  0  0  0  0
   22.1231   -5.1421  -14.9798 O   0  0  0  0  0  0  0  0  0  0  0  0
  1  2  1  0
  3  4  2  0
  3  2  1  0
  6  8  1  0
  6  5  1  0
  7  6  2  0
  9  8  1  1
  9 11  1  0
  9 10  1  0
 10  3  1  0
 11 12  2  0
 13 14  1  0
 15 14  1  0
 15 16  1  6
 17 15  1  0
 17 18  1  6
 18 11  1  0
 19 17  1  0
 20 19  2  0
 21 19  1  0
M  END
$$$$
