GNI.pdb
     RDKit          3D

 21 20  0  0  1  0  0  0  0  0999 V2000
   14.0537  -13.1934  -13.9558 N   0  0  0  0  0  0  0  0  0  0  0  0
   13.9467  -11.7701  -14.0724 C   0  0  0  0  0  0  0  0  0  0  0  0
   15.0131  -11.1142  -13.2878 C   0  0  0  0  0  0  0  0  0  0  0  0
   15.3119  -11.5491  -12.1501 O   0  0  0  0  0  0  0  0  0  0  0  0
   18.6101   -8.0091  -11.4351 N   0  0  0  0  0  0  0  0  0  0  0  0
   18.7757   -7.9900  -12.8343 C   0  0  0  0  0  0  0  0  0  0  0  0
   19.7859   -7.4565  -13.3287 O   0  0  0  0  0  0  0  0  0  0  0  0
   17.7602   -8.5973  -13.7058 C   0  0  0  0  0  0  0  0  0  0  0  0
   16.6292   -9.2301  -12.9272 C   0  0  2  0  0  0  0  0  0  0  0  0
   15.7420   -9.9877  -13.7581 N   0  0  0  0  0  0  0  0  0  0  0  0
   15.9037   -8.2158  -12.1132 C   0  0  0  0  0  0  0  0  0  0  0  0
   15.1023   -7.4542  -12.7135 O   0  0  0  0  0  0  0  0  0  0  0  0
   12.3901   -8.8521   -8.4451 C   0  0  0  0  0  0  0  0  0  0  0  0
   13.2449   -8.1451   -9.4680 C   0  0  0  0  0  0  0  0  0  0  0  0
   14.5379   -7.6412   -8.9120 C   0  0  2  0  0  0  0  0  0  0  0  0
   14.2378   -6.5133   -7.9467 C   0  0  0  0  0  0  0  0  0  0  0  0
   15.4830   -7.1088   -9.9579 C   0  0  2  0  0  0  0  0  0  0  0  0
   16.1249   -8.1317  -10.7184 N   0  0  0  0  0  0  0  0  0  0  0  0
   16.5319   -6.3421   -9.2167 C   0  0  0  0  0  0  0  0  0  0  0  0
   17.6040   -6.8827   -8.8472 O   0  0  0  0  0  0  0  0  0  0  0  0
   16.3459   -5.0019   -8.9157 O   0  0  0  0  0  0  0  0  0  0  0  0
  1  2  1  0
  3  4  2  0
  3  2  1  0
  6  8  1  0
  6  5  1  0
  7  6  2  0
  9  8  1  6
  9 11  1  0
  9 10  1  0
 10  3  1  0
 11 12  2  0
 13 14  1  0
 15 14  1  0
 15 16  1  1
 17 15  1  0
 17 18  1  1
 18 11  1  0
 19 17  1  0
 20 19  2  0
 21 19  1  0
M  END
$$$$
