GNI.pdb
     RDKit          3D

 21 20  0  0  1  0  0  0  0  0999 V2000
   16.9783  -13.5294  -15.7243 N   0  0  0  0  0  0  0  0  0  0  0  0
   16.2037  -12.7087  -16.6061 C   0  0  0  0  0  0  0  0  0  0  0  0
   16.7483  -11.3356  -16.6320 C   0  0  0  0  0  0  0  0  0  0  0  0
   17.4818  -10.9700  -17.5812 O   0  0  0  0  0  0  0  0  0  0  0  0
   14.6720   -6.2724  -16.0146 N   0  0  0  0  0  0  0  0  0  0  0  0
   14.9289   -7.6399  -15.7920 C   0  0  0  0  0  0  0  0  0  0  0  0
   14.1858   -8.4982  -16.3026 O   0  0  0  0  0  0  0  0  0  0  0  0
   16.0690   -8.0507  -14.9607 C   0  0  0  0  0  0  0  0  0  0  0  0
   16.9778   -9.0326  -15.6648 C   0  0  2  0  0  0  0  0  0  0  0  0
   16.4835  -10.3760  -15.6168 N   0  0  0  0  0  0  0  0  0  0  0  0
   18.3741   -8.9319  -15.1568 C   0  0  0  0  0  0  0  0  0  0  0  0
   18.6116   -9.4000  -14.0135 O   0  0  0  0  0  0  0  0  0  0  0  0
   21.8934  -10.6931  -17.0023 C   0  0  0  0  0  0  0  0  0  0  0  0
   21.6356   -9.3300  -17.5958 C   0  0  0  0  0  0  0  0  0  0  0  0
   21.7423   -8.2209  -16.5992 C   0  0  2  0  0  0  0  0  0  0  0  0
   23.1193   -8.2721  -15.9703 C   0  0  0  0  0  0  0  0  0  0  0  0
   20.7284   -8.3028  -15.4876 C   0  0  2  0  0  0  0  0  0  0  0  0
   19.3784   -8.3280  -15.9495 N   0  0  0  0  0  0  0  0  0  0  0  0
   20.9217   -7.0725  -14.6590 C   0  0  0  0  0  0  0  0  0  0  0  0
   20.2642   -6.0240  -14.8749 O   0  0  0  0  0  0  0  0  0  0  0  0
   21.8405   -7.0577  -13.6214 O   0  0  0  0  0  0  0  0  0  0  0  0
  1  2  1  0
  3  4  2  0
  3  2  1  0
  6  8  1  0
  6  5  1  0
  7  6  2  0
  9  8  1  1
  9 11  1  0
  9 10  1  0
 10  3  1  0
 11 12  2  0
 13 14  1  0
 15 14  1  0
 15 16  1  1
 17 15  1  0
 17 18  1  6
 18 11  1  0
 19 17  1  0
 20 19  2  0
 21 19  1  0
M  END
$$$$
