SWG.pdb
     RDKit          3D

 25 26  0  0  1  0  0  0  0  0999 V2000
   10.8145  -20.3046   20.6786 O   0  0  0  0  0  0  0  0  0  0  0  0
   10.6466  -19.7941   19.4103 C   0  0  0  0  0  0  0  0  0  0  0  0
    9.6557  -18.6254   19.4398 C   0  0  2  0  0  0  0  0  0  0  0  0
    9.4368  -18.2331   18.0803 N   0  0  0  0  0  0  0  0  0  0  0  0
   10.2322  -17.5072   20.2654 C   0  0  0  0  0  0  0  0  0  0  0  0
   11.0884  -16.7805   19.7784 O   0  0  0  0  0  0  0  0  0  0  0  0
    9.7678  -17.3186   21.5939 N   0  0  0  0  0  0  0  0  0  0  0  0
   10.1968  -16.3891   22.5585 C   0  0  1  0  0  0  0  0  0  0  0  0
    9.1315  -15.7155   23.4044 C   0  0  0  0  0  0  0  0  0  0  0  0
    7.9378  -15.3134   22.5913 C   0  0  0  0  0  0  0  0  0  0  0  0
    6.6895  -15.8638   22.5047 C   0  0  0  0  0  0  0  0  0  0  0  0
    5.9998  -15.1501   21.6036 N   0  0  0  0  0  0  0  0  0  0  0  0
    6.7671  -14.1736   21.1219 C   0  0  0  0  0  0  0  0  0  0  0  0
    6.5000  -13.1872   20.1704 C   0  0  0  0  0  0  0  0  0  0  0  0
    7.4680  -12.2779   19.8256 C   0  0  0  0  0  0  0  0  0  0  0  0
    8.6962  -12.3521   20.4273 C   0  0  0  0  0  0  0  0  0  0  0  0
    8.9874  -13.3240   21.3770 C   0  0  0  0  0  0  0  0  0  0  0  0
    8.0099  -14.2322   21.7166 C   0  0  0  0  0  0  0  0  0  0  0  0
   11.4071  -16.6454   23.3189 C   0  0  0  0  0  0  0  0  0  0  0  0
   11.8057  -15.7028   24.1050 O   0  0  0  0  0  0  0  0  0  0  0  0
   12.2052  -17.8161   23.2987 N   0  0  0  0  0  0  0  0  0  0  0  0
   13.3094  -17.8982   24.2480 C   0  0  0  0  0  0  0  0  0  0  0  0
   14.0876  -19.1187   23.9278 C   0  0  0  0  0  0  0  0  0  0  0  0
   13.6648  -20.0323   23.1476 O   0  0  0  0  0  0  0  0  0  0  0  0
   15.3351  -19.2878   24.4975 O   0  0  0  0  0  0  0  0  0  0  0  0
  2  1  1  0
  2  3  1  0
  3  4  1  6
  5  7  1  0
  5  3  1  0
  6  5  2  0
  8  7  1  0
  8  9  1  1
  9 10  1  0
 10 11  2  0
 10 18  1  0
 11 12  1  0
 12 13  1  0
 13 14  2  0
 15 14  1  0
 16 15  2  0
 17 18  2  0
 17 16  1  0
 18 13  1  0
 19  8  1  0
 20 19  2  0
 21 19  1  0
 22 23  1  0
 22 21  1  0
 23 25  1  0
 24 23  2  0
M  END
$$$$
