SWG.pdb
     RDKit          3D

 25 26  0  0  1  0  0  0  0  0999 V2000
    9.4477  -18.3744   21.1096 O   0  0  0  0  0  0  0  0  0  0  0  0
    8.2539  -17.7162   21.3068 C   0  0  0  0  0  0  0  0  0  0  0  0
    8.4964  -16.2070   21.4169 C   0  0  2  0  0  0  0  0  0  0  0  0
    8.9605  -15.7671   20.1358 N   0  0  0  0  0  0  0  0  0  0  0  0
    9.5033  -15.9445   22.5040 C   0  0  0  0  0  0  0  0  0  0  0  0
   10.6357  -15.5914   22.2016 O   0  0  0  0  0  0  0  0  0  0  0  0
    9.1159  -16.1113   23.8597 N   0  0  0  0  0  0  0  0  0  0  0  0
    9.9004  -16.0152   25.0233 C   0  0  1  0  0  0  0  0  0  0  0  0
    9.1787  -15.7724   26.3364 C   0  0  0  0  0  0  0  0  0  0  0  0
    7.8288  -15.1533   26.1309 C   0  0  0  0  0  0  0  0  0  0  0  0
    6.6174  -15.7234   25.8545 C   0  0  0  0  0  0  0  0  0  0  0  0
    5.7277  -14.7288   25.7268 N   0  0  0  0  0  0  0  0  0  0  0  0
    6.3341  -13.5573   25.9125 C   0  0  0  0  0  0  0  0  0  0  0  0
    5.8344  -12.2542   25.8750 C   0  0  0  0  0  0  0  0  0  0  0  0
    6.6678  -11.1866   26.0956 C   0  0  0  0  0  0  0  0  0  0  0  0
    7.9930  -11.4182   26.3526 C   0  0  0  0  0  0  0  0  0  0  0  0
    8.5152  -12.7053   26.3953 C   0  0  0  0  0  0  0  0  0  0  0  0
    7.6715  -13.7704   26.1727 C   0  0  0  0  0  0  0  0  0  0  0  0
   11.0495  -16.8868   25.1924 C   0  0  0  0  0  0  0  0  0  0  0  0
   11.7604  -16.7056   26.2541 O   0  0  0  0  0  0  0  0  0  0  0  0
   11.4829  -17.9188   24.3236 N   0  0  0  0  0  0  0  0  0  0  0  0
   12.6078  -18.7398   24.7570 C   0  0  0  0  0  0  0  0  0  0  0  0
   12.9261  -19.6824   23.6580 C   0  0  0  0  0  0  0  0  0  0  0  0
   13.7638  -20.6346   23.7748 O   0  0  0  0  0  0  0  0  0  0  0  0
   12.2908  -19.5323   22.4401 O   0  0  0  0  0  0  0  0  0  0  0  0
  2  1  1  0
  2  3  1  0
  3  4  1  6
  5  7  1  0
  5  3  1  0
  6  5  2  0
  8  7  1  0
  8  9  1  1
  9 10  1  0
 10 11  2  0
 10 18  1  0
 11 12  1  0
 12 13  1  0
 13 14  2  0
 15 14  1  0
 16 15  2  0
 17 18  2  0
 17 16  1  0
 18 13  1  0
 19  8  1  0
 20 19  2  0
 21 19  1  0
 22 23  1  0
 22 21  1  0
 23 25  1  0
 24 23  2  0
M  END
$$$$
