SWG.pdb
     RDKit          3D

 25 26  0  0  1  0  0  0  0  0999 V2000
    7.0567  -16.8512   19.3096 O   0  0  0  0  0  0  0  0  0  0  0  0
    7.9166  -16.6703   20.3705 C   0  0  0  0  0  0  0  0  0  0  0  0
    7.4942  -15.4447   21.1879 C   0  0  2  0  0  0  0  0  0  0  0  0
    7.2721  -14.3810   20.2556 N   0  0  0  0  0  0  0  0  0  0  0  0
    8.5772  -15.1120   22.1782 C   0  0  0  0  0  0  0  0  0  0  0  0
    9.4187  -14.2716   21.8886 O   0  0  0  0  0  0  0  0  0  0  0  0
    8.5980  -15.7811   23.4304 N   0  0  0  0  0  0  0  0  0  0  0  0
    9.5833  -15.7521   24.4339 C   0  0  1  0  0  0  0  0  0  0  0  0
    9.1151  -15.6137   25.8712 C   0  0  0  0  0  0  0  0  0  0  0  0
    7.7750  -14.9483   25.9653 C   0  0  0  0  0  0  0  0  0  0  0  0
    6.5129  -15.4621   25.8557 C   0  0  0  0  0  0  0  0  0  0  0  0
    5.6536  -14.4407   25.9795 N   0  0  0  0  0  0  0  0  0  0  0  0
    6.3278  -13.3065   26.1625 C   0  0  0  0  0  0  0  0  0  0  0  0
    5.8798  -11.9953   26.3344 C   0  0  0  0  0  0  0  0  0  0  0  0
    6.7794  -10.9728   26.5020 C   0  0  0  0  0  0  0  0  0  0  0  0
    8.1192  -11.2572   26.4985 C   0  0  0  0  0  0  0  0  0  0  0  0
    8.5908  -12.5534   26.3293 C   0  0  0  0  0  0  0  0  0  0  0  0
    7.6808  -13.5730   26.1617 C   0  0  0  0  0  0  0  0  0  0  0  0
   10.7478  -16.6129   24.3263 C   0  0  0  0  0  0  0  0  0  0  0  0
   11.5759  -16.5904   25.3159 O   0  0  0  0  0  0  0  0  0  0  0  0
   11.0823  -17.4796   23.2564 N   0  0  0  0  0  0  0  0  0  0  0  0
   12.2994  -18.2730   23.3840 C   0  0  0  0  0  0  0  0  0  0  0  0
   13.2656  -17.7796   22.3737 C   0  0  0  0  0  0  0  0  0  0  0  0
   13.9802  -18.5510   21.6551 O   0  0  0  0  0  0  0  0  0  0  0  0
   13.4097  -16.4174   22.1922 O   0  0  0  0  0  0  0  0  0  0  0  0
  2  1  1  0
  2  3  1  0
  3  4  1  6
  5  7  1  0
  5  3  1  0
  6  5  2  0
  8  7  1  0
  8  9  1  1
  9 10  1  0
 10 11  2  0
 10 18  1  0
 11 12  1  0
 12 13  1  0
 13 14  2  0
 15 14  1  0
 16 15  2  0
 17 18  2  0
 17 16  1  0
 18 13  1  0
 19  8  1  0
 20 19  2  0
 21 19  1  0
 22 23  1  0
 22 21  1  0
 23 25  1  0
 24 23  2  0
M  END
$$$$
