SWG.pdb
     RDKit          3D

 25 26  0  0  1  0  0  0  0  0999 V2000
    8.7956  -17.7998   20.3566 O   0  0  0  0  0  0  0  0  0  0  0  0
    7.4983  -17.6253   20.7854 C   0  0  0  0  0  0  0  0  0  0  0  0
    7.2287  -16.1416   21.0586 C   0  0  2  0  0  0  0  0  0  0  0  0
    7.1905  -15.4861   19.7863 N   0  0  0  0  0  0  0  0  0  0  0  0
    8.3157  -15.5951   21.9442 C   0  0  0  0  0  0  0  0  0  0  0  0
    8.9970  -14.6575   21.5503 O   0  0  0  0  0  0  0  0  0  0  0  0
    8.5262  -16.1797   23.2209 N   0  0  0  0  0  0  0  0  0  0  0  0
    9.4596  -15.8283   24.2128 C   0  0  1  0  0  0  0  0  0  0  0  0
    9.0056  -15.9028   25.6594 C   0  0  0  0  0  0  0  0  0  0  0  0
    7.6789  -15.2365   25.8682 C   0  0  0  0  0  0  0  0  0  0  0  0
    6.4076  -15.7327   25.7879 C   0  0  0  0  0  0  0  0  0  0  0  0
    5.5663  -14.7167   26.0264 N   0  0  0  0  0  0  0  0  0  0  0  0
    6.2607  -13.6027   26.2532 C   0  0  0  0  0  0  0  0  0  0  0  0
    5.8356  -12.3037   26.5388 C   0  0  0  0  0  0  0  0  0  0  0  0
    6.7531  -11.3017   26.7309 C   0  0  0  0  0  0  0  0  0  0  0  0
    8.0880  -11.5943   26.6389 C   0  0  0  0  0  0  0  0  0  0  0  0
    8.5370  -12.8786   26.3559 C   0  0  0  0  0  0  0  0  0  0  0  0
    7.6090  -13.8777   26.1646 C   0  0  0  0  0  0  0  0  0  0  0  0
   10.8511  -16.2157   24.0636 C   0  0  0  0  0  0  0  0  0  0  0  0
   11.5943  -16.1152   25.1138 O   0  0  0  0  0  0  0  0  0  0  0  0
   11.4911  -16.6942   22.8934 N   0  0  0  0  0  0  0  0  0  0  0  0
   12.8722  -17.1467   23.0150 C   0  0  0  0  0  0  0  0  0  0  0  0
   13.3143  -17.6056   21.6765 C   0  0  0  0  0  0  0  0  0  0  0  0
   12.5570  -18.2337   20.8678 O   0  0  0  0  0  0  0  0  0  0  0  0
   14.6103  -17.3471   21.2728 O   0  0  0  0  0  0  0  0  0  0  0  0
  2  1  1  0
  2  3  1  0
  3  4  1  6
  5  7  1  0
  5  3  1  0
  6  5  2  0
  8  7  1  0
  8  9  1  1
  9 10  1  0
 10 11  2  0
 10 18  1  0
 11 12  1  0
 12 13  1  0
 13 14  2  0
 15 14  1  0
 16 15  2  0
 17 18  2  0
 17 16  1  0
 18 13  1  0
 19  8  1  0
 20 19  2  0
 21 19  1  0
 22 23  1  0
 22 21  1  0
 23 25  1  0
 24 23  2  0
M  END
$$$$
