SWG.pdb
     RDKit          3D

 25 26  0  0  1  0  0  0  0  0999 V2000
    8.5829  -17.3761   20.0855 O   0  0  0  0  0  0  0  0  0  0  0  0
    7.2855  -17.2543   20.5322 C   0  0  0  0  0  0  0  0  0  0  0  0
    7.0115  -15.8106   20.9671 C   0  0  2  0  0  0  0  0  0  0  0  0
    6.8836  -15.0344   19.7708 N   0  0  0  0  0  0  0  0  0  0  0  0
    8.1437  -15.3306   21.8344 C   0  0  0  0  0  0  0  0  0  0  0  0
    8.8976  -14.4633   21.4128 O   0  0  0  0  0  0  0  0  0  0  0  0
    8.3117  -15.8950   23.1264 N   0  0  0  0  0  0  0  0  0  0  0  0
    9.2768  -15.5956   24.1050 C   0  0  1  0  0  0  0  0  0  0  0  0
    8.8884  -15.8019   25.5578 C   0  0  0  0  0  0  0  0  0  0  0  0
    7.5877  -15.1358   25.8929 C   0  0  0  0  0  0  0  0  0  0  0  0
    6.3154  -15.6335   25.9401 C   0  0  0  0  0  0  0  0  0  0  0  0
    5.5002  -14.6172   26.2555 N   0  0  0  0  0  0  0  0  0  0  0  0
    6.2120  -13.5015   26.4081 C   0  0  0  0  0  0  0  0  0  0  0  0
    5.8153  -12.2017   26.7282 C   0  0  0  0  0  0  0  0  0  0  0  0
    6.7460  -11.1980   26.8249 C   0  0  0  0  0  0  0  0  0  0  0  0
    8.0657  -11.4898   26.6036 C   0  0  0  0  0  0  0  0  0  0  0  0
    8.4864  -12.7750   26.2835 C   0  0  0  0  0  0  0  0  0  0  0  0
    7.5455  -13.7758   26.1887 C   0  0  0  0  0  0  0  0  0  0  0  0
   10.6711  -15.9250   23.8674 C   0  0  0  0  0  0  0  0  0  0  0  0
   11.5076  -15.5983   24.7942 O   0  0  0  0  0  0  0  0  0  0  0  0
   11.2228  -16.5670   22.7311 N   0  0  0  0  0  0  0  0  0  0  0  0
   12.6578  -16.8277   22.7319 C   0  0  0  0  0  0  0  0  0  0  0  0
   12.9872  -17.5330   21.4703 C   0  0  0  0  0  0  0  0  0  0  0  0
   14.1687  -17.8918   21.1584 O   0  0  0  0  0  0  0  0  0  0  0  0
   11.9722  -17.8215   20.5781 O   0  0  0  0  0  0  0  0  0  0  0  0
  2  1  1  0
  2  3  1  0
  3  4  1  6
  5  7  1  0
  5  3  1  0
  6  5  2  0
  8  7  1  0
  8  9  1  1
  9 10  1  0
 10 11  2  0
 10 18  1  0
 11 12  1  0
 12 13  1  0
 13 14  2  0
 15 14  1  0
 16 15  2  0
 17 18  2  0
 17 16  1  0
 18 13  1  0
 19  8  1  0
 20 19  2  0
 21 19  1  0
 22 23  1  0
 22 21  1  0
 23 25  1  0
 24 23  2  0
M  END
$$$$
