SWG.pdb
     RDKit          3D

 25 26  0  0  1  0  0  0  0  0999 V2000
    7.5062  -18.0299   19.3665 O   0  0  0  0  0  0  0  0  0  0  0  0
    8.3795  -17.3781   20.2090 C   0  0  0  0  0  0  0  0  0  0  0  0
    7.6523  -16.2539   20.9545 C   0  0  2  0  0  0  0  0  0  0  0  0
    7.1908  -15.3298   19.9629 N   0  0  0  0  0  0  0  0  0  0  0  0
    8.6011  -15.6105   21.9293 C   0  0  0  0  0  0  0  0  0  0  0  0
    9.2127  -14.6036   21.5969 O   0  0  0  0  0  0  0  0  0  0  0  0
    8.7651  -16.1865   23.2167 N   0  0  0  0  0  0  0  0  0  0  0  0
    9.6628  -15.8293   24.2389 C   0  0  1  0  0  0  0  0  0  0  0  0
    9.1523  -15.8773   25.6676 C   0  0  0  0  0  0  0  0  0  0  0  0
    7.7974  -15.2500   25.8028 C   0  0  0  0  0  0  0  0  0  0  0  0
    6.5472  -15.7923   25.6948 C   0  0  0  0  0  0  0  0  0  0  0  0
    5.6644  -14.7979   25.8643 N   0  0  0  0  0  0  0  0  0  0  0  0
    6.3124  -13.6532   26.0745 C   0  0  0  0  0  0  0  0  0  0  0  0
    5.8342  -12.3602   26.2956 C   0  0  0  0  0  0  0  0  0  0  0  0
    6.7102  -11.3208   26.4835 C   0  0  0  0  0  0  0  0  0  0  0  0
    8.0565  -11.5704   26.4513 C   0  0  0  0  0  0  0  0  0  0  0  0
    8.5580  -12.8479   26.2330 C   0  0  0  0  0  0  0  0  0  0  0  0
    7.6716  -13.8846   26.0454 C   0  0  0  0  0  0  0  0  0  0  0  0
   11.0550  -16.2327   24.1496 C   0  0  0  0  0  0  0  0  0  0  0  0
   11.2826  -17.4954   24.0111 O   0  0  0  0  0  0  0  0  0  0  0  0
   12.1984  -15.3971   24.1966 N   0  0  0  0  0  0  0  0  0  0  0  0
   13.1819  -15.5362   23.1285 C   0  0  0  0  0  0  0  0  0  0  0  0
   14.1124  -16.6241   23.5132 C   0  0  0  0  0  0  0  0  0  0  0  0
   13.7614  -17.8452   23.6015 O   0  0  0  0  0  0  0  0  0  0  0  0
   15.4292  -16.3130   23.7938 O   0  0  0  0  0  0  0  0  0  0  0  0
  2  1  1  0
  2  3  1  0
  3  4  1  6
  5  7  1  0
  5  3  1  0
  6  5  2  0
  8  7  1  0
  8  9  1  1
  9 10  1  0
 10 11  2  0
 10 18  1  0
 11 12  1  0
 12 13  1  0
 13 14  2  0
 15 14  1  0
 16 15  2  0
 17 18  2  0
 17 16  1  0
 18 13  1  0
 19  8  1  0
 20 19  2  0
 21 19  1  0
 22 23  1  0
 22 21  1  0
 23 25  1  0
 24 23  2  0
M  END
$$$$
