SWG.pdb
     RDKit          3D

 25 26  0  0  1  0  0  0  0  0999 V2000
    8.8625  -15.8399   17.8550 O   0  0  0  0  0  0  0  0  0  0  0  0
    7.5973  -15.3044   17.7544 C   0  0  0  0  0  0  0  0  0  0  0  0
    7.5271  -13.9733   18.5105 C   0  0  2  0  0  0  0  0  0  0  0  0
    8.1319  -12.9858   17.6684 N   0  0  0  0  0  0  0  0  0  0  0  0
    8.2450  -14.1116   19.8258 C   0  0  0  0  0  0  0  0  0  0  0  0
    9.3711  -13.6474   19.9473 O   0  0  0  0  0  0  0  0  0  0  0  0
    7.5977  -14.7779   20.8996 N   0  0  0  0  0  0  0  0  0  0  0  0
    7.9705  -14.8439   22.2543 C   0  0  1  0  0  0  0  0  0  0  0  0
    6.8900  -14.5947   23.2909 C   0  0  0  0  0  0  0  0  0  0  0  0
    7.4519  -14.4948   24.6772 C   0  0  0  0  0  0  0  0  0  0  0  0
    8.1950  -15.3812   25.4058 C   0  0  0  0  0  0  0  0  0  0  0  0
    8.4124  -14.8275   26.6072 N   0  0  0  0  0  0  0  0  0  0  0  0
    7.8345  -13.6284   26.6601 C   0  0  0  0  0  0  0  0  0  0  0  0
    7.7798  -12.6856   27.6884 C   0  0  0  0  0  0  0  0  0  0  0  0
    7.1077  -11.5029   27.5081 C   0  0  0  0  0  0  0  0  0  0  0  0
    6.4936  -11.2621   26.3077 C   0  0  0  0  0  0  0  0  0  0  0  0
    6.5332  -12.1839   25.2686 C   0  0  0  0  0  0  0  0  0  0  0  0
    7.2099  -13.3679   25.4586 C   0  0  0  0  0  0  0  0  0  0  0  0
    8.9167  -15.8541   22.6936 C   0  0  0  0  0  0  0  0  0  0  0  0
    8.5133  -17.0794   22.6539 O   0  0  0  0  0  0  0  0  0  0  0  0
   10.2382  -15.6504   23.1626 N   0  0  0  0  0  0  0  0  0  0  0  0
   11.2072  -16.7172   22.9387 C   0  0  0  0  0  0  0  0  0  0  0  0
   12.4851  -16.3025   23.5653 C   0  0  0  0  0  0  0  0  0  0  0  0
   13.3978  -15.6720   22.9396 O   0  0  0  0  0  0  0  0  0  0  0  0
   12.7119  -16.6091   24.8934 O   0  0  0  0  0  0  0  0  0  0  0  0
  2  1  1  0
  2  3  1  0
  3  4  1  6
  5  7  1  0
  5  3  1  0
  6  5  2  0
  8  7  1  0
  8  9  1  1
  9 10  1  0
 10 11  2  0
 10 18  1  0
 11 12  1  0
 12 13  1  0
 13 14  2  0
 15 14  1  0
 16 15  2  0
 17 18  2  0
 17 16  1  0
 18 13  1  0
 19  8  1  0
 20 19  2  0
 21 19  1  0
 22 23  1  0
 22 21  1  0
 23 25  1  0
 24 23  2  0
M  END
$$$$
