SWG.pdb
     RDKit          3D

 25 26  0  0  1  0  0  0  0  0999 V2000
    8.5486  -17.6648   19.9132 O   0  0  0  0  0  0  0  0  0  0  0  0
    7.3321  -17.6881   20.5590 C   0  0  0  0  0  0  0  0  0  0  0  0
    6.9222  -16.2674   20.9618 C   0  0  2  0  0  0  0  0  0  0  0  0
    6.6117  -15.5669   19.7524 N   0  0  0  0  0  0  0  0  0  0  0  0
    8.0522  -15.6204   21.7162 C   0  0  0  0  0  0  0  0  0  0  0  0
    8.7125  -14.7440   21.1739 O   0  0  0  0  0  0  0  0  0  0  0  0
    8.3267  -16.0411   23.0443 N   0  0  0  0  0  0  0  0  0  0  0  0
    9.3080  -15.5727   23.9366 C   0  0  1  0  0  0  0  0  0  0  0  0
    9.0100  -15.6744   25.4215 C   0  0  0  0  0  0  0  0  0  0  0  0
    7.6912  -15.0550   25.7749 C   0  0  0  0  0  0  0  0  0  0  0  0
    6.4435  -15.6050   25.8718 C   0  0  0  0  0  0  0  0  0  0  0  0
    5.5938  -14.6157   26.1821 N   0  0  0  0  0  0  0  0  0  0  0  0
    6.2604  -13.4668   26.2837 C   0  0  0  0  0  0  0  0  0  0  0  0
    5.8164  -12.1764   26.5791 C   0  0  0  0  0  0  0  0  0  0  0  0
    6.7049  -11.1316   26.6217 C   0  0  0  0  0  0  0  0  0  0  0  0
    8.0296  -11.3731   26.3712 C   0  0  0  0  0  0  0  0  0  0  0  0
    8.4969  -12.6478   26.0748 C   0  0  0  0  0  0  0  0  0  0  0  0
    7.5981  -13.6901   26.0342 C   0  0  0  0  0  0  0  0  0  0  0  0
   10.7126  -15.8056   23.6511 C   0  0  0  0  0  0  0  0  0  0  0  0
   11.5640  -15.1921   24.4022 O   0  0  0  0  0  0  0  0  0  0  0  0
   11.2602  -16.6327   22.6392 N   0  0  0  0  0  0  0  0  0  0  0  0
   12.7109  -16.6485   22.4902 C   0  0  0  0  0  0  0  0  0  0  0  0
   13.2567  -17.5830   23.5033 C   0  0  0  0  0  0  0  0  0  0  0  0
   12.5274  -18.2223   24.3289 O   0  0  0  0  0  0  0  0  0  0  0  0
   14.6230  -17.7797   23.5677 O   0  0  0  0  0  0  0  0  0  0  0  0
  2  1  1  0
  2  3  1  0
  3  4  1  6
  5  7  1  0
  5  3  1  0
  6  5  2  0
  8  7  1  0
  8  9  1  1
  9 10  1  0
 10 11  2  0
 10 18  1  0
 11 12  1  0
 12 13  1  0
 13 14  2  0
 15 14  1  0
 16 15  2  0
 17 18  2  0
 17 16  1  0
 18 13  1  0
 19  8  1  0
 20 19  2  0
 21 19  1  0
 22 23  1  0
 22 21  1  0
 23 25  1  0
 24 23  2  0
M  END
$$$$
