SWG.pdb
     RDKit          3D

 25 26  0  0  1  0  0  0  0  0999 V2000
    7.8971  -16.6740   19.0768 O   0  0  0  0  0  0  0  0  0  0  0  0
    7.4557  -16.7389   20.3800 C   0  0  0  0  0  0  0  0  0  0  0  0
    7.2524  -15.3263   20.9384 C   0  0  2  0  0  0  0  0  0  0  0  0
    7.2454  -14.4348   19.8181 N   0  0  0  0  0  0  0  0  0  0  0  0
    8.3616  -15.0110   21.9053 C   0  0  0  0  0  0  0  0  0  0  0  0
    9.2207  -14.1981   21.5898 O   0  0  0  0  0  0  0  0  0  0  0  0
    8.3859  -15.6640   23.1659 N   0  0  0  0  0  0  0  0  0  0  0  0
    9.3625  -15.6026   24.1763 C   0  0  1  0  0  0  0  0  0  0  0  0
    8.9094  -15.8485   25.6040 C   0  0  0  0  0  0  0  0  0  0  0  0
    7.6274  -15.1374   25.9183 C   0  0  0  0  0  0  0  0  0  0  0  0
    6.3402  -15.5952   25.9644 C   0  0  0  0  0  0  0  0  0  0  0  0
    5.5544  -14.5492   26.2567 N   0  0  0  0  0  0  0  0  0  0  0  0
    6.2989  -13.4534   26.3957 C   0  0  0  0  0  0  0  0  0  0  0  0
    5.9400  -12.1368   26.6910 C   0  0  0  0  0  0  0  0  0  0  0  0
    6.9003  -11.1604   26.7776 C   0  0  0  0  0  0  0  0  0  0  0  0
    8.2120  -11.4961   26.5710 C   0  0  0  0  0  0  0  0  0  0  0  0
    8.5953  -12.7988   26.2757 C   0  0  0  0  0  0  0  0  0  0  0  0
    7.6249  -13.7719   26.1908 C   0  0  0  0  0  0  0  0  0  0  0  0
   10.6888  -16.1407   23.9312 C   0  0  0  0  0  0  0  0  0  0  0  0
   11.5307  -16.0686   24.9067 O   0  0  0  0  0  0  0  0  0  0  0  0
   11.1687  -16.7392   22.7398 N   0  0  0  0  0  0  0  0  0  0  0  0
   12.5039  -17.3254   22.7678 C   0  0  0  0  0  0  0  0  0  0  0  0
   12.8358  -17.7538   21.3880 C   0  0  0  0  0  0  0  0  0  0  0  0
   12.0727  -17.5467   20.3895 O   0  0  0  0  0  0  0  0  0  0  0  0
   14.0286  -18.4125   21.1584 O   0  0  0  0  0  0  0  0  0  0  0  0
  2  1  1  0
  2  3  1  0
  3  4  1  6
  5  7  1  0
  5  3  1  0
  6  5  2  0
  8  7  1  0
  8  9  1  1
  9 10  1  0
 10 11  2  0
 10 18  1  0
 11 12  1  0
 12 13  1  0
 13 14  2  0
 15 14  1  0
 16 15  2  0
 17 18  2  0
 17 16  1  0
 18 13  1  0
 19  8  1  0
 20 19  2  0
 21 19  1  0
 22 23  1  0
 22 21  1  0
 23 25  1  0
 24 23  2  0
M  END
$$$$
