SWG.pdb
     RDKit          3D

 25 26  0  0  1  0  0  0  0  0999 V2000
    8.9811  -15.4477   18.0415 O   0  0  0  0  0  0  0  0  0  0  0  0
    7.6605  -15.0646   18.1233 C   0  0  0  0  0  0  0  0  0  0  0  0
    7.5401  -13.7532   18.9073 C   0  0  2  0  0  0  0  0  0  0  0  0
    8.2055  -12.7468   18.1363 N   0  0  0  0  0  0  0  0  0  0  0  0
    8.1627  -13.9288   20.2659 C   0  0  0  0  0  0  0  0  0  0  0  0
    9.3084  -13.5422   20.4563 O   0  0  0  0  0  0  0  0  0  0  0  0
    7.4048  -14.5392   21.2998 N   0  0  0  0  0  0  0  0  0  0  0  0
    7.7907  -14.8479   22.6168 C   0  0  1  0  0  0  0  0  0  0  0  0
    6.6904  -15.0008   23.6513 C   0  0  0  0  0  0  0  0  0  0  0  0
    7.2038  -14.8272   25.0491 C   0  0  0  0  0  0  0  0  0  0  0  0
    7.8507  -15.7008   25.8780 C   0  0  0  0  0  0  0  0  0  0  0  0
    8.0613  -15.0671   27.0404 N   0  0  0  0  0  0  0  0  0  0  0  0
    7.5716  -13.8301   26.9725 C   0  0  0  0  0  0  0  0  0  0  0  0
    7.5465  -12.8046   27.9196 C   0  0  0  0  0  0  0  0  0  0  0  0
    6.9708  -11.5964   27.6165 C   0  0  0  0  0  0  0  0  0  0  0  0
    6.4234  -11.4123   26.3746 C   0  0  0  0  0  0  0  0  0  0  0  0
    6.4354  -12.4168   25.4143 C   0  0  0  0  0  0  0  0  0  0  0  0
    7.0152  -13.6258   25.7274 C   0  0  0  0  0  0  0  0  0  0  0  0
    8.8827  -15.7763   22.8495 C   0  0  0  0  0  0  0  0  0  0  0  0
    8.7296  -16.9739   22.3934 O   0  0  0  0  0  0  0  0  0  0  0  0
   10.1032  -15.5193   23.5219 N   0  0  0  0  0  0  0  0  0  0  0  0
   11.0378  -16.6285   23.6746 C   0  0  0  0  0  0  0  0  0  0  0  0
   12.2779  -16.2753   22.9431 C   0  0  0  0  0  0  0  0  0  0  0  0
   12.4559  -16.5270   21.7074 O   0  0  0  0  0  0  0  0  0  0  0  0
   13.3007  -15.6420   23.6230 O   0  0  0  0  0  0  0  0  0  0  0  0
  2  1  1  0
  2  3  1  0
  3  4  1  6
  5  7  1  0
  5  3  1  0
  6  5  2  0
  8  7  1  0
  8  9  1  1
  9 10  1  0
 10 11  2  0
 10 18  1  0
 11 12  1  0
 12 13  1  0
 13 14  2  0
 15 14  1  0
 16 15  2  0
 17 18  2  0
 17 16  1  0
 18 13  1  0
 19  8  1  0
 20 19  2  0
 21 19  1  0
 22 23  1  0
 22 21  1  0
 23 25  1  0
 24 23  2  0
M  END
$$$$
