SWG.pdb
     RDKit          3D

 25 26  0  0  1  0  0  0  0  0999 V2000
    8.7047  -19.7296   21.2389 O   0  0  0  0  0  0  0  0  0  0  0  0
    7.5184  -19.1272   20.8823 C   0  0  0  0  0  0  0  0  0  0  0  0
    7.7924  -17.9088   19.9941 C   0  0  2  0  0  0  0  0  0  0  0  0
    8.3936  -18.3996   18.7909 N   0  0  0  0  0  0  0  0  0  0  0  0
    8.6938  -16.9530   20.7278 C   0  0  0  0  0  0  0  0  0  0  0  0
    9.8561  -16.8252   20.3658 O   0  0  0  0  0  0  0  0  0  0  0  0
    8.1741  -16.2176   21.8256 N   0  0  0  0  0  0  0  0  0  0  0  0
    8.8124  -15.2548   22.6283 C   0  0  1  0  0  0  0  0  0  0  0  0
    7.9970  -14.0482   23.0565 C   0  0  0  0  0  0  0  0  0  0  0  0
    7.2656  -14.2905   24.3426 C   0  0  0  0  0  0  0  0  0  0  0  0
    6.6567  -15.4151   24.8256 C   0  0  0  0  0  0  0  0  0  0  0  0
    6.1125  -15.0978   26.0089 N   0  0  0  0  0  0  0  0  0  0  0  0
    6.3565  -13.8180   26.2865 C   0  0  0  0  0  0  0  0  0  0  0  0
    5.9946  -13.0368   27.3858 C   0  0  0  0  0  0  0  0  0  0  0  0
    6.3620  -11.7162   27.4474 C   0  0  0  0  0  0  0  0  0  0  0  0
    7.0870  -11.1778   26.4177 C   0  0  0  0  0  0  0  0  0  0  0  0
    7.4597  -11.9336   25.3127 C   0  0  0  0  0  0  0  0  0  0  0  0
    7.0865  -13.2579   25.2594 C   0  0  0  0  0  0  0  0  0  0  0  0
    9.7351  -15.6783   23.6665 C   0  0  0  0  0  0  0  0  0  0  0  0
    9.6998  -15.0182   24.7749 O   0  0  0  0  0  0  0  0  0  0  0  0
   10.6741  -16.7377   23.6044 N   0  0  0  0  0  0  0  0  0  0  0  0
   11.9839  -16.5166   24.2067 C   0  0  0  0  0  0  0  0  0  0  0  0
   13.0081  -16.9522   23.2275 C   0  0  0  0  0  0  0  0  0  0  0  0
   12.9349  -18.0464   22.5798 O   0  0  0  0  0  0  0  0  0  0  0  0
   14.1030  -16.1415   22.9961 O   0  0  0  0  0  0  0  0  0  0  0  0
  2  1  1  0
  2  3  1  0
  3  4  1  6
  5  7  1  0
  5  3  1  0
  6  5  2  0
  8  7  1  0
  8  9  1  1
  9 10  1  0
 10 11  2  0
 10 18  1  0
 11 12  1  0
 12 13  1  0
 13 14  2  0
 15 14  1  0
 16 15  2  0
 17 18  2  0
 17 16  1  0
 18 13  1  0
 19  8  1  0
 20 19  2  0
 21 19  1  0
 22 23  1  0
 22 21  1  0
 23 25  1  0
 24 23  2  0
M  END
$$$$
