SWG.pdb
     RDKit          3D

 25 26  0  0  1  0  0  0  0  0999 V2000
    8.2650  -17.9797   19.9732 O   0  0  0  0  0  0  0  0  0  0  0  0
    7.0643  -17.8016   20.6244 C   0  0  0  0  0  0  0  0  0  0  0  0
    6.8487  -16.3164   20.9349 C   0  0  2  0  0  0  0  0  0  0  0  0
    6.6055  -15.6626   19.6845 N   0  0  0  0  0  0  0  0  0  0  0  0
    8.0679  -15.7730   21.6296 C   0  0  0  0  0  0  0  0  0  0  0  0
    8.8392  -15.0503   21.0122 O   0  0  0  0  0  0  0  0  0  0  0  0
    8.2961  -16.1103   22.9899 N   0  0  0  0  0  0  0  0  0  0  0  0
    9.3914  -15.7865   23.8109 C   0  0  1  0  0  0  0  0  0  0  0  0
    9.1519  -15.7327   25.3088 C   0  0  0  0  0  0  0  0  0  0  0  0
    7.8056  -15.1643   25.6438 C   0  0  0  0  0  0  0  0  0  0  0  0
    6.5709  -15.7504   25.6736 C   0  0  0  0  0  0  0  0  0  0  0  0
    5.6846  -14.7984   25.9979 N   0  0  0  0  0  0  0  0  0  0  0  0
    6.3155  -13.6383   26.1726 C   0  0  0  0  0  0  0  0  0  0  0  0
    5.8267  -12.3744   26.5090 C   0  0  0  0  0  0  0  0  0  0  0  0
    6.6842  -11.3098   26.6279 C   0  0  0  0  0  0  0  0  0  0  0  0
    8.0226  -11.5052   26.4125 C   0  0  0  0  0  0  0  0  0  0  0  0
    8.5343  -12.7528   26.0765 C   0  0  0  0  0  0  0  0  0  0  0  0
    7.6664  -13.8153   25.9595 C   0  0  0  0  0  0  0  0  0  0  0  0
   10.7093  -16.3072   23.4937 C   0  0  0  0  0  0  0  0  0  0  0  0
   10.8543  -17.5881   23.5550 O   0  0  0  0  0  0  0  0  0  0  0  0
   11.8604  -15.5691   23.1222 N   0  0  0  0  0  0  0  0  0  0  0  0
   13.0068  -16.3143   22.6146 C   0  0  0  0  0  0  0  0  0  0  0  0
   13.8389  -16.7059   23.7773 C   0  0  0  0  0  0  0  0  0  0  0  0
   13.4509  -16.5899   24.9849 O   0  0  0  0  0  0  0  0  0  0  0  0
   15.1008  -17.2233   23.5556 O   0  0  0  0  0  0  0  0  0  0  0  0
  2  1  1  0
  2  3  1  0
  3  4  1  6
  5  7  1  0
  5  3  1  0
  6  5  2  0
  8  7  1  0
  8  9  1  1
  9 10  1  0
 10 11  2  0
 10 18  1  0
 11 12  1  0
 12 13  1  0
 13 14  2  0
 15 14  1  0
 16 15  2  0
 17 18  2  0
 17 16  1  0
 18 13  1  0
 19  8  1  0
 20 19  2  0
 21 19  1  0
 22 23  1  0
 22 21  1  0
 23 25  1  0
 24 23  2  0
M  END
$$$$
