SWG.pdb
     RDKit          3D

 25 26  0  0  1  0  0  0  0  0999 V2000
    8.8321  -17.6682   19.9748 O   0  0  0  0  0  0  0  0  0  0  0  0
    7.5238  -17.7890   20.3887 C   0  0  0  0  0  0  0  0  0  0  0  0
    7.0004  -16.4360   20.8826 C   0  0  2  0  0  0  0  0  0  0  0  0
    6.6531  -15.6763   19.7197 N   0  0  0  0  0  0  0  0  0  0  0  0
    8.0671  -15.7607   21.7016 C   0  0  0  0  0  0  0  0  0  0  0  0
    8.7262  -14.8579   21.2028 O   0  0  0  0  0  0  0  0  0  0  0  0
    8.2846  -16.1861   23.0387 N   0  0  0  0  0  0  0  0  0  0  0  0
    9.2587  -15.7556   23.9576 C   0  0  1  0  0  0  0  0  0  0  0  0
    8.9164  -15.8439   25.4338 C   0  0  0  0  0  0  0  0  0  0  0  0
    7.6284  -15.1475   25.7558 C   0  0  0  0  0  0  0  0  0  0  0  0
    6.3456  -15.6178   25.8006 C   0  0  0  0  0  0  0  0  0  0  0  0
    5.5505  -14.5816   26.1024 N   0  0  0  0  0  0  0  0  0  0  0  0
    6.2849  -13.4799   26.2486 C   0  0  0  0  0  0  0  0  0  0  0  0
    5.9141  -12.1690   26.5547 C   0  0  0  0  0  0  0  0  0  0  0  0
    6.8652  -11.1843   26.6471 C   0  0  0  0  0  0  0  0  0  0  0  0
    8.1796  -11.5059   26.4356 C   0  0  0  0  0  0  0  0  0  0  0  0
    8.5748  -12.8026   26.1296 C   0  0  0  0  0  0  0  0  0  0  0  0
    7.6134  -13.7842   26.0389 C   0  0  0  0  0  0  0  0  0  0  0  0
   10.6604  -16.0438   23.7107 C   0  0  0  0  0  0  0  0  0  0  0  0
   11.4995  -15.6367   24.6027 O   0  0  0  0  0  0  0  0  0  0  0  0
   11.2170  -16.7240   22.5993 N   0  0  0  0  0  0  0  0  0  0  0  0
   12.6564  -16.9593   22.6019 C   0  0  0  0  0  0  0  0  0  0  0  0
   12.9898  -17.7200   21.3740 C   0  0  0  0  0  0  0  0  0  0  0  0
   12.1160  -18.1008   20.5292 O   0  0  0  0  0  0  0  0  0  0  0  0
   14.3099  -18.0399   21.1204 O   0  0  0  0  0  0  0  0  0  0  0  0
  2  1  1  0
  2  3  1  0
  3  4  1  6
  5  7  1  0
  5  3  1  0
  6  5  2  0
  8  7  1  0
  8  9  1  1
  9 10  1  0
 10 11  2  0
 10 18  1  0
 11 12  1  0
 12 13  1  0
 13 14  2  0
 15 14  1  0
 16 15  2  0
 17 18  2  0
 17 16  1  0
 18 13  1  0
 19  8  1  0
 20 19  2  0
 21 19  1  0
 22 23  1  0
 22 21  1  0
 23 25  1  0
 24 23  2  0
M  END
$$$$
