SWG.pdb
     RDKit          3D

 25 26  0  0  1  0  0  0  0  0999 V2000
    8.6603  -17.4034   19.8555 O   0  0  0  0  0  0  0  0  0  0  0  0
    7.4758  -17.4743   20.5551 C   0  0  0  0  0  0  0  0  0  0  0  0
    7.0811  -16.0839   21.0647 C   0  0  2  0  0  0  0  0  0  0  0  0
    6.7764  -15.2910   19.9122 N   0  0  0  0  0  0  0  0  0  0  0  0
    8.2186  -15.5072   21.8635 C   0  0  0  0  0  0  0  0  0  0  0  0
    8.9465  -14.6665   21.3519 O   0  0  0  0  0  0  0  0  0  0  0  0
    8.4217  -15.9513   23.1968 N   0  0  0  0  0  0  0  0  0  0  0  0
    9.4142  -15.5672   24.1166 C   0  0  1  0  0  0  0  0  0  0  0  0
    9.0608  -15.6224   25.5918 C   0  0  0  0  0  0  0  0  0  0  0  0
    7.7206  -15.0119   25.8729 C   0  0  0  0  0  0  0  0  0  0  0  0
    6.4690  -15.5617   25.8636 C   0  0  0  0  0  0  0  0  0  0  0  0
    5.5999  -14.5813   26.1472 N   0  0  0  0  0  0  0  0  0  0  0  0
    6.2579  -13.4382   26.3341 C   0  0  0  0  0  0  0  0  0  0  0  0
    5.7947  -12.1574   26.6414 C   0  0  0  0  0  0  0  0  0  0  0  0
    6.6782  -11.1169   26.7816 C   0  0  0  0  0  0  0  0  0  0  0  0
    8.0171  -11.3532   26.6162 C   0  0  0  0  0  0  0  0  0  0  0  0
    8.5037  -12.6183   26.3101 C   0  0  0  0  0  0  0  0  0  0  0  0
    7.6098  -13.6563   26.1714 C   0  0  0  0  0  0  0  0  0  0  0  0
   10.7987  -15.9355   23.8795 C   0  0  0  0  0  0  0  0  0  0  0  0
   11.6611  -15.5311   24.7502 O   0  0  0  0  0  0  0  0  0  0  0  0
   11.3157  -16.6915   22.7983 N   0  0  0  0  0  0  0  0  0  0  0  0
   12.7362  -17.0213   22.8219 C   0  0  0  0  0  0  0  0  0  0  0  0
   13.0462  -17.7628   21.5762 C   0  0  0  0  0  0  0  0  0  0  0  0
   12.1560  -18.3148   20.8517 O   0  0  0  0  0  0  0  0  0  0  0  0
   14.3623  -17.8697   21.1688 O   0  0  0  0  0  0  0  0  0  0  0  0
  2  1  1  0
  2  3  1  0
  3  4  1  6
  5  7  1  0
  5  3  1  0
  6  5  2  0
  8  7  1  0
  8  9  1  1
  9 10  1  0
 10 11  2  0
 10 18  1  0
 11 12  1  0
 12 13  1  0
 13 14  2  0
 15 14  1  0
 16 15  2  0
 17 18  2  0
 17 16  1  0
 18 13  1  0
 19  8  1  0
 20 19  2  0
 21 19  1  0
 22 23  1  0
 22 21  1  0
 23 25  1  0
 24 23  2  0
M  END
$$$$
