SWG.pdb
     RDKit          3D

 25 26  0  0  1  0  0  0  0  0999 V2000
    7.9437  -17.3295   19.0195 O   0  0  0  0  0  0  0  0  0  0  0  0
    8.6869  -16.8424   20.0720 C   0  0  0  0  0  0  0  0  0  0  0  0
    7.8723  -15.8098   20.8587 C   0  0  2  0  0  0  0  0  0  0  0  0
    7.4862  -14.7912   19.9296 N   0  0  0  0  0  0  0  0  0  0  0  0
    8.7148  -15.2632   21.9795 C   0  0  0  0  0  0  0  0  0  0  0  0
    9.3343  -14.2209   21.8122 O   0  0  0  0  0  0  0  0  0  0  0  0
    8.7711  -15.9700   23.2097 N   0  0  0  0  0  0  0  0  0  0  0  0
    9.6121  -15.7553   24.3166 C   0  0  1  0  0  0  0  0  0  0  0  0
    9.0193  -15.9673   25.6979 C   0  0  0  0  0  0  0  0  0  0  0  0
    7.6803  -15.3087   25.8431 C   0  0  0  0  0  0  0  0  0  0  0  0
    6.4172  -15.8133   25.7065 C   0  0  0  0  0  0  0  0  0  0  0  0
    5.5596  -14.8018   25.9023 N   0  0  0  0  0  0  0  0  0  0  0  0
    6.2359  -13.6826   26.1565 C   0  0  0  0  0  0  0  0  0  0  0  0
    5.7901  -12.3854   26.4174 C   0  0  0  0  0  0  0  0  0  0  0  0
    6.6916  -11.3769   26.6477 C   0  0  0  0  0  0  0  0  0  0  0  0
    8.0311  -11.6613   26.6181 C   0  0  0  0  0  0  0  0  0  0  0  0
    8.5005  -12.9437   26.3608 C   0  0  0  0  0  0  0  0  0  0  0  0
    7.5886  -13.9494   26.1308 C   0  0  0  0  0  0  0  0  0  0  0  0
   11.0026  -16.1696   24.2570 C   0  0  0  0  0  0  0  0  0  0  0  0
   11.3947  -17.0075   25.1569 O   0  0  0  0  0  0  0  0  0  0  0  0
   11.9841  -15.7594   23.3209 N   0  0  0  0  0  0  0  0  0  0  0  0
   13.3457  -16.2461   23.5115 C   0  0  0  0  0  0  0  0  0  0  0  0
   13.7296  -16.9967   22.2922 C   0  0  0  0  0  0  0  0  0  0  0  0
   13.0509  -17.9692   21.8277 O   0  0  0  0  0  0  0  0  0  0  0  0
   14.8791  -16.6353   21.6158 O   0  0  0  0  0  0  0  0  0  0  0  0
  2  1  1  0
  2  3  1  0
  3  4  1  6
  5  7  1  0
  5  3  1  0
  6  5  2  0
  8  7  1  0
  8  9  1  1
  9 10  1  0
 10 11  2  0
 10 18  1  0
 11 12  1  0
 12 13  1  0
 13 14  2  0
 15 14  1  0
 16 15  2  0
 17 18  2  0
 17 16  1  0
 18 13  1  0
 19  8  1  0
 20 19  2  0
 21 19  1  0
 22 23  1  0
 22 21  1  0
 23 25  1  0
 24 23  2  0
M  END
$$$$
