SWG.pdb
     RDKit          3D

 25 26  0  0  1  0  0  0  0  0999 V2000
    8.4481  -17.2752   20.3035 O   0  0  0  0  0  0  0  0  0  0  0  0
    7.9767  -16.1140   19.7317 C   0  0  0  0  0  0  0  0  0  0  0  0
    7.3546  -15.2134   20.8044 C   0  0  2  0  0  0  0  0  0  0  0  0
    6.8880  -14.0356   20.1372 N   0  0  0  0  0  0  0  0  0  0  0  0
    8.3906  -14.8987   21.8494 C   0  0  0  0  0  0  0  0  0  0  0  0
    9.1150  -13.9231   21.7026 O   0  0  0  0  0  0  0  0  0  0  0  0
    8.5038  -15.7420   22.9862 N   0  0  0  0  0  0  0  0  0  0  0  0
    9.3689  -15.6295   24.0896 C   0  0  1  0  0  0  0  0  0  0  0  0
    8.7944  -15.9266   25.4629 C   0  0  0  0  0  0  0  0  0  0  0  0
    7.5365  -15.1546   25.7262 C   0  0  0  0  0  0  0  0  0  0  0  0
    6.2265  -15.5441   25.6959 C   0  0  0  0  0  0  0  0  0  0  0  0
    5.4820  -14.4637   25.9701 N   0  0  0  0  0  0  0  0  0  0  0  0
    6.2742  -13.4118   26.1713 C   0  0  0  0  0  0  0  0  0  0  0  0
    5.9693  -12.0839   26.4764 C   0  0  0  0  0  0  0  0  0  0  0  0
    6.9732  -11.1618   26.6338 C   0  0  0  0  0  0  0  0  0  0  0  0
    8.2747  -11.5627   26.4877 C   0  0  0  0  0  0  0  0  0  0  0  0
    8.6047  -12.8780   26.1841 C   0  0  0  0  0  0  0  0  0  0  0  0
    7.5908  -13.7963   26.0280 C   0  0  0  0  0  0  0  0  0  0  0  0
   10.7469  -16.0727   23.9739 C   0  0  0  0  0  0  0  0  0  0  0  0
   11.4353  -16.1093   25.0649 O   0  0  0  0  0  0  0  0  0  0  0  0
   11.4271  -16.4721   22.7969 N   0  0  0  0  0  0  0  0  0  0  0  0
   12.8250  -16.8679   22.9249 C   0  0  0  0  0  0  0  0  0  0  0  0
   13.3614  -17.0721   21.5581 C   0  0  0  0  0  0  0  0  0  0  0  0
   12.6485  -16.9800   20.5068 O   0  0  0  0  0  0  0  0  0  0  0  0
   14.6996  -17.3791   21.4013 O   0  0  0  0  0  0  0  0  0  0  0  0
  2  1  1  0
  2  3  1  0
  3  4  1  6
  5  7  1  0
  5  3  1  0
  6  5  2  0
  8  7  1  0
  8  9  1  1
  9 10  1  0
 10 11  2  0
 10 18  1  0
 11 12  1  0
 12 13  1  0
 13 14  2  0
 15 14  1  0
 16 15  2  0
 17 18  2  0
 17 16  1  0
 18 13  1  0
 19  8  1  0
 20 19  2  0
 21 19  1  0
 22 23  1  0
 22 21  1  0
 23 25  1  0
 24 23  2  0
M  END
$$$$
