EQA.pdb
     RDKit          3D

 24 23  0  0  1  0  0  0  0  0999 V2000
   13.7675  -17.1273   15.0754 N   0  0  0  0  0  0  0  0  0  0  0  0
   13.9786  -18.2186   15.9581 C   0  0  1  0  0  0  0  0  0  0  0  0
   15.3836  -18.4383   16.3571 C   0  0  0  0  0  0  0  0  0  0  0  0
   15.9700  -17.2900   17.0977 C   0  0  0  0  0  0  0  0  0  0  0  0
   17.3414  -17.4755   17.5740 C   0  0  0  0  0  0  0  0  0  0  0  0
   18.3024  -16.7045   17.4025 O   0  0  0  0  0  0  0  0  0  0  0  0
   13.0541  -18.0971   17.1364 C   0  0  0  0  0  0  0  0  0  0  0  0
   12.5467  -16.9682   17.4243 O   0  0  0  0  0  0  0  0  0  0  0  0
   17.5593  -18.6815   18.3096 O   0  0  0  0  0  0  0  0  0  0  0  0
    9.9673  -22.8316   19.8194 N   0  0  0  0  0  0  0  0  0  0  0  0
    9.3379  -21.6846   20.3769 C   0  0  0  0  0  0  0  0  0  0  0  0
    8.2768  -21.8615   21.0204 O   0  0  0  0  0  0  0  0  0  0  0  0
    9.9563  -20.3587   20.1736 C   0  0  0  0  0  0  0  0  0  0  0  0
   11.1798  -20.5406   19.2996 C   0  0  0  0  0  0  0  0  0  0  0  0
   11.7689  -19.2022   19.0314 C   0  0  2  0  0  0  0  0  0  0  0  0
   12.7351  -19.2156   17.9372 N   0  0  0  0  0  0  0  0  0  0  0  0
   12.3688  -18.6374   20.2708 C   0  0  0  0  0  0  0  0  0  0  0  0
   13.5644  -18.7611   20.6154 O   0  0  0  0  0  0  0  0  0  0  0  0
   10.9011  -16.4185   22.8875 C   0  0  0  0  0  0  0  0  0  0  0  0
   12.0478  -17.2170   22.2851 C   0  0  2  0  0  0  0  0  0  0  0  0
   11.5146  -17.8974   21.1322 N   0  0  0  0  0  0  0  0  0  0  0  0
   12.5620  -18.2241   23.2371 C   0  0  0  0  0  0  0  0  0  0  0  0
   13.4564  -17.8291   24.2150 O   0  0  0  0  0  0  0  0  0  0  0  0
   12.2253  -19.4327   23.2035 O   0  0  0  0  0  0  0  0  0  0  0  0
  2  3  1  0
  2  1  1  1
  4  3  1  0
  5  4  1  0
  5  6  2  0
  7  8  2  0
  7  2  1  0
  9  5  1  0
 10 11  1  0
 11 13  1  0
 12 11  2  0
 13 14  1  0
 15 14  1  1
 15 16  1  0
 16  7  1  0
 17 15  1  0
 18 17  2  0
 20 19  1  1
 20 22  1  0
 20 21  1  0
 21 17  1  0
 22 23  1  0
 24 22  2  0
M  END
$$$$
