EQA.pdb
     RDKit          3D

 24 23  0  0  1  0  0  0  0  0999 V2000
   11.7756  -16.5720   21.0283 N   0  0  0  0  0  0  0  0  0  0  0  0
   10.4846  -15.9820   21.0354 C   0  0  1  0  0  0  0  0  0  0  0  0
    9.5769  -16.4494   19.9681 C   0  0  0  0  0  0  0  0  0  0  0  0
   10.2165  -17.4135   19.0339 C   0  0  0  0  0  0  0  0  0  0  0  0
    9.3685  -17.8997   17.9447 C   0  0  0  0  0  0  0  0  0  0  0  0
    9.6771  -18.7303   17.0716 O   0  0  0  0  0  0  0  0  0  0  0  0
    9.8818  -16.1103   22.4058 C   0  0  0  0  0  0  0  0  0  0  0  0
    8.7252  -15.6345   22.6315 O   0  0  0  0  0  0  0  0  0  0  0  0
    8.0548  -17.3371   17.9148 O   0  0  0  0  0  0  0  0  0  0  0  0
   12.9792  -20.4180   24.3447 N   0  0  0  0  0  0  0  0  0  0  0  0
   12.1104  -19.9204   25.3547 C   0  0  0  0  0  0  0  0  0  0  0  0
   11.6163  -20.7500   26.1539 O   0  0  0  0  0  0  0  0  0  0  0  0
   11.8360  -18.4702   25.4123 C   0  0  0  0  0  0  0  0  0  0  0  0
   10.3349  -18.2744   25.3664 C   0  0  0  0  0  0  0  0  0  0  0  0
   10.0537  -16.9256   24.8078 C   0  0  2  0  0  0  0  0  0  0  0  0
   10.5758  -16.7504   23.4559 N   0  0  0  0  0  0  0  0  0  0  0  0
   10.5610  -15.8656   25.7211 C   0  0  0  0  0  0  0  0  0  0  0  0
   11.7581  -15.5226   25.8343 O   0  0  0  0  0  0  0  0  0  0  0  0
    8.8937  -13.1240   27.4634 C   0  0  0  0  0  0  0  0  0  0  0  0
   10.0236  -14.1426   27.4300 C   0  0  2  0  0  0  0  0  0  0  0  0
    9.6087  -15.1883   26.5294 N   0  0  0  0  0  0  0  0  0  0  0  0
   10.2596  -14.7301   28.7657 C   0  0  0  0  0  0  0  0  0  0  0  0
   10.8396  -13.9504   29.7496 O   0  0  0  0  0  0  0  0  0  0  0  0
    9.9575  -15.9131   29.0564 O   0  0  0  0  0  0  0  0  0  0  0  0
  2  3  1  0
  2  1  1  1
  4  3  1  0
  5  4  1  0
  5  6  2  0
  7  8  2  0
  7  2  1  0
  9  5  1  0
 10 11  1  0
 11 13  1  0
 12 11  2  0
 13 14  1  0
 15 14  1  1
 15 16  1  0
 16  7  1  0
 17 15  1  0
 18 17  2  0
 20 19  1  1
 20 22  1  0
 20 21  1  0
 21 17  1  0
 22 23  1  0
 24 22  2  0
M  END
$$$$
