EQA.pdb
     RDKit          3D

 24 23  0  0  1  0  0  0  0  0999 V2000
   10.4826  -19.1045   16.7094 N   0  0  0  0  0  0  0  0  0  0  0  0
   11.7314  -18.6690   17.2247 C   0  0  1  0  0  0  0  0  0  0  0  0
   12.6826  -18.1619   16.2149 C   0  0  0  0  0  0  0  0  0  0  0  0
   12.0180  -17.4839   15.0706 C   0  0  0  0  0  0  0  0  0  0  0  0
   12.9121  -16.9568   14.0387 C   0  0  0  0  0  0  0  0  0  0  0  0
   13.3653  -15.8009   13.9624 O   0  0  0  0  0  0  0  0  0  0  0  0
   11.4999  -17.6934   18.3438 C   0  0  0  0  0  0  0  0  0  0  0  0
   12.4938  -17.1795   18.9463 O   0  0  0  0  0  0  0  0  0  0  0  0
   13.2804  -17.9002   13.0300 O   0  0  0  0  0  0  0  0  0  0  0  0
    7.0541  -13.5627   19.7404 N   0  0  0  0  0  0  0  0  0  0  0  0
    7.7724  -13.7377   18.5256 C   0  0  0  0  0  0  0  0  0  0  0  0
    7.6631  -12.8433   17.6541 O   0  0  0  0  0  0  0  0  0  0  0  0
    8.6011  -14.9479   18.3518 C   0  0  0  0  0  0  0  0  0  0  0  0
    8.5737  -15.7260   19.6509 C   0  0  0  0  0  0  0  0  0  0  0  0
    9.8883  -16.3985   19.8238 C   0  0  2  0  0  0  0  0  0  0  0  0
   10.1948  -17.3328   18.7448 N   0  0  0  0  0  0  0  0  0  0  0  0
    9.9625  -17.0676   21.1510 C   0  0  0  0  0  0  0  0  0  0  0  0
    9.4513  -18.1738   21.4314 O   0  0  0  0  0  0  0  0  0  0  0  0
   12.2371  -17.0262   23.8556 C   0  0  0  0  0  0  0  0  0  0  0  0
   10.7579  -16.9663   23.5037 C   0  0  2  0  0  0  0  0  0  0  0  0
   10.6717  -16.3960   22.1831 N   0  0  0  0  0  0  0  0  0  0  0  0
   10.0143  -16.1027   24.4451 C   0  0  0  0  0  0  0  0  0  0  0  0
    9.8070  -16.5424   25.7396 O   0  0  0  0  0  0  0  0  0  0  0  0
    9.5561  -14.9783   24.1267 O   0  0  0  0  0  0  0  0  0  0  0  0
  2  3  1  0
  2  1  1  6
  4  3  1  0
  5  4  1  0
  5  6  2  0
  7  8  2  0
  7  2  1  0
  9  5  1  0
 10 11  1  0
 11 13  1  0
 12 11  2  0
 13 14  1  0
 15 14  1  6
 15 16  1  0
 16  7  1  0
 17 15  1  0
 18 17  2  0
 20 19  1  1
 20 22  1  0
 20 21  1  0
 21 17  1  0
 22 23  1  0
 24 22  2  0
M  END
$$$$
