EQA.pdb
     RDKit          3D

 24 23  0  0  1  0  0  0  0  0999 V2000
   11.9174  -17.0144   18.5173 N   0  0  0  0  0  0  0  0  0  0  0  0
   12.9053  -16.5741   19.4365 C   0  0  1  0  0  0  0  0  0  0  0  0
   14.1423  -16.0500   18.8227 C   0  0  0  0  0  0  0  0  0  0  0  0
   13.8961  -14.9496   17.8534 C   0  0  0  0  0  0  0  0  0  0  0  0
   15.0793  -14.4363   17.1618 C   0  0  0  0  0  0  0  0  0  0  0  0
   15.7598  -13.4451   17.4809 O   0  0  0  0  0  0  0  0  0  0  0  0
   12.2897  -15.6109   20.4118 C   0  0  0  0  0  0  0  0  0  0  0  0
   12.9966  -15.1286   21.3512 O   0  0  0  0  0  0  0  0  0  0  0  0
   15.4616  -15.1793   16.0021 O   0  0  0  0  0  0  0  0  0  0  0  0
    7.3491  -12.1950   19.1589 N   0  0  0  0  0  0  0  0  0  0  0  0
    8.0683  -13.1636   18.4060 C   0  0  0  0  0  0  0  0  0  0  0  0
    7.7567  -13.3084   17.2005 O   0  0  0  0  0  0  0  0  0  0  0  0
    9.1329  -13.9417   19.0716 C   0  0  0  0  0  0  0  0  0  0  0  0
    9.2230  -13.4782   20.5107 C   0  0  0  0  0  0  0  0  0  0  0  0
   10.2726  -14.2770   21.1968 C   0  0  2  0  0  0  0  0  0  0  0  0
   10.9344  -15.2278   20.3086 N   0  0  0  0  0  0  0  0  0  0  0  0
    9.7103  -14.9610   22.3929 C   0  0  0  0  0  0  0  0  0  0  0  0
    8.5360  -14.8439   22.8060 O   0  0  0  0  0  0  0  0  0  0  0  0
    9.1033  -17.5382   23.8379 C   0  0  0  0  0  0  0  0  0  0  0  0
   10.1097  -16.4972   24.3057 C   0  0  2  0  0  0  0  0  0  0  0  0
   10.5772  -15.8168   23.1246 N   0  0  0  0  0  0  0  0  0  0  0  0
   11.2637  -17.1280   24.9805 C   0  0  0  0  0  0  0  0  0  0  0  0
   12.5079  -17.0684   24.3800 O   0  0  0  0  0  0  0  0  0  0  0  0
   11.1717  -17.7216   26.0825 O   0  0  0  0  0  0  0  0  0  0  0  0
  2  3  1  0
  2  1  1  6
  4  3  1  0
  5  4  1  0
  5  6  2  0
  7  8  2  0
  7  2  1  0
  9  5  1  0
 10 11  1  0
 11 13  1  0
 12 11  2  0
 13 14  1  0
 15 14  1  6
 15 16  1  0
 16  7  1  0
 17 15  1  0
 18 17  2  0
 20 19  1  6
 20 22  1  0
 20 21  1  0
 21 17  1  0
 22 23  1  0
 24 22  2  0
M  END
$$$$
