EQA.pdb
     RDKit          3D

 24 23  0  0  1  0  0  0  0  0999 V2000
    9.5882  -15.7748   20.6223 N   0  0  0  0  0  0  0  0  0  0  0  0
    8.5150  -14.8460   20.6398 C   0  0  1  0  0  0  0  0  0  0  0  0
    7.6562  -14.8591   19.4382 C   0  0  0  0  0  0  0  0  0  0  0  0
    8.3960  -14.5561   18.1845 C   0  0  0  0  0  0  0  0  0  0  0  0
    7.6249  -14.6795   16.9467 C   0  0  0  0  0  0  0  0  0  0  0  0
    7.1165  -13.7549   16.2881 O   0  0  0  0  0  0  0  0  0  0  0  0
    7.7328  -15.0069   21.9126 C   0  0  0  0  0  0  0  0  0  0  0  0
    6.7062  -14.2859   22.1157 O   0  0  0  0  0  0  0  0  0  0  0  0
    7.4607  -16.0196   16.4774 O   0  0  0  0  0  0  0  0  0  0  0  0
    6.6946  -19.8031   26.3567 N   0  0  0  0  0  0  0  0  0  0  0  0
    7.3751  -18.6661   26.8728 C   0  0  0  0  0  0  0  0  0  0  0  0
    8.1471  -18.8445   27.8441 O   0  0  0  0  0  0  0  0  0  0  0  0
    7.1427  -17.3479   26.2481 C   0  0  0  0  0  0  0  0  0  0  0  0
    7.7559  -17.3702   24.8635 C   0  0  0  0  0  0  0  0  0  0  0  0
    7.5089  -16.0534   24.2188 C   0  0  2  0  0  0  0  0  0  0  0  0
    8.1153  -15.9461   22.8953 N   0  0  0  0  0  0  0  0  0  0  0  0
    7.9558  -14.9452   25.1060 C   0  0  0  0  0  0  0  0  0  0  0  0
    9.1459  -14.6683   25.3714 O   0  0  0  0  0  0  0  0  0  0  0  0
    6.1157  -12.0634   26.5073 C   0  0  0  0  0  0  0  0  0  0  0  0
    7.3067  -13.0103   26.5246 C   0  0  2  0  0  0  0  0  0  0  0  0
    6.9495  -14.1361   25.6990 N   0  0  0  0  0  0  0  0  0  0  0  0
    7.5915  -13.4935   27.8922 C   0  0  0  0  0  0  0  0  0  0  0  0
    8.0639  -12.5998   28.8357 O   0  0  0  0  0  0  0  0  0  0  0  0
    7.4249  -14.6864   28.2453 O   0  0  0  0  0  0  0  0  0  0  0  0
  2  3  1  0
  2  1  1  6
  4  3  1  0
  5  4  1  0
  5  6  2  0
  7  8  2  0
  7  2  1  0
  9  5  1  0
 10 11  1  0
 11 13  1  0
 12 11  2  0
 13 14  1  0
 15 14  1  1
 15 16  1  0
 16  7  1  0
 17 15  1  0
 18 17  2  0
 20 19  1  1
 20 22  1  0
 20 21  1  0
 21 17  1  0
 22 23  1  0
 24 22  2  0
M  END
$$$$
