EQA.pdb
     RDKit          3D

 24 23  0  0  1  0  0  0  0  0999 V2000
    6.8842  -15.9815   20.5439 N   0  0  0  0  0  0  0  0  0  0  0  0
    7.5209  -14.8855   21.1827 C   0  0  1  0  0  0  0  0  0  0  0  0
    7.1812  -13.5572   20.6333 C   0  0  0  0  0  0  0  0  0  0  0  0
    8.2877  -12.9450   19.8510 C   0  0  0  0  0  0  0  0  0  0  0  0
    8.6179  -13.6109   18.5903 C   0  0  0  0  0  0  0  0  0  0  0  0
    7.8178  -14.0788   17.7607 O   0  0  0  0  0  0  0  0  0  0  0  0
    7.3003  -14.9722   22.6665 C   0  0  0  0  0  0  0  0  0  0  0  0
    6.4279  -14.2303   23.2174 O   0  0  0  0  0  0  0  0  0  0  0  0
   10.0176  -13.7151   18.3196 O   0  0  0  0  0  0  0  0  0  0  0  0
    5.7487  -20.4261   23.5889 N   0  0  0  0  0  0  0  0  0  0  0  0
    6.5632  -19.6239   24.4347 C   0  0  0  0  0  0  0  0  0  0  0  0
    7.1186  -20.1865   25.4074 O   0  0  0  0  0  0  0  0  0  0  0  0
    6.7132  -18.1863   24.1304 C   0  0  0  0  0  0  0  0  0  0  0  0
    7.6248  -17.5781   25.1759 C   0  0  0  0  0  0  0  0  0  0  0  0
    7.7797  -16.1296   24.8789 C   0  0  2  0  0  0  0  0  0  0  0  0
    8.0458  -15.8640   23.4683 N   0  0  0  0  0  0  0  0  0  0  0  0
    8.8289  -15.5277   25.7460 C   0  0  0  0  0  0  0  0  0  0  0  0
   10.0533  -15.5121   25.4927 O   0  0  0  0  0  0  0  0  0  0  0  0
    8.6730  -13.3125   28.6871 C   0  0  0  0  0  0  0  0  0  0  0  0
    9.3716  -14.4108   27.8991 C   0  0  2  0  0  0  0  0  0  0  0  0
    8.4058  -14.9212   26.9593 N   0  0  0  0  0  0  0  0  0  0  0  0
    9.8068  -15.5140   28.7815 C   0  0  0  0  0  0  0  0  0  0  0  0
   10.8739  -15.3090   29.6368 O   0  0  0  0  0  0  0  0  0  0  0  0
    9.2519  -16.6397   28.7947 O   0  0  0  0  0  0  0  0  0  0  0  0
  2  3  1  0
  2  1  1  6
  4  3  1  0
  5  4  1  0
  5  6  2  0
  7  8  2  0
  7  2  1  0
  9  5  1  0
 10 11  1  0
 11 13  1  0
 12 11  2  0
 13 14  1  0
 15 14  1  6
 15 16  1  0
 16  7  1  0
 17 15  1  0
 18 17  2  0
 20 19  1  1
 20 22  1  0
 20 21  1  0
 21 17  1  0
 22 23  1  0
 24 22  2  0
M  END
$$$$
