EQA.pdb
     RDKit          3D

 24 23  0  0  1  0  0  0  0  0999 V2000
   10.4050  -18.5736   17.4908 N   0  0  0  0  0  0  0  0  0  0  0  0
   11.7182  -18.1992   17.8782 C   0  0  1  0  0  0  0  0  0  0  0  0
   12.5417  -17.6048   16.8058 C   0  0  0  0  0  0  0  0  0  0  0  0
   12.0064  -17.8633   15.4429 C   0  0  0  0  0  0  0  0  0  0  0  0
   12.8943  -17.5096   14.3345 C   0  0  0  0  0  0  0  0  0  0  0  0
   13.6266  -16.5073   14.2547 O   0  0  0  0  0  0  0  0  0  0  0  0
   11.6520  -17.3337   19.1048 C   0  0  0  0  0  0  0  0  0  0  0  0
   12.7269  -16.9203   19.6419 O   0  0  0  0  0  0  0  0  0  0  0  0
   12.8915  -18.4387   13.2482 O   0  0  0  0  0  0  0  0  0  0  0  0
    7.6821  -12.3671   19.1364 N   0  0  0  0  0  0  0  0  0  0  0  0
    7.7888  -13.5909   19.8528 C   0  0  0  0  0  0  0  0  0  0  0  0
    6.7570  -14.0225   20.4189 O   0  0  0  0  0  0  0  0  0  0  0  0
    9.0920  -14.2848   19.8946 C   0  0  0  0  0  0  0  0  0  0  0  0
    9.0012  -15.3922   20.9238 C   0  0  0  0  0  0  0  0  0  0  0  0
   10.2686  -16.1687   20.8917 C   0  0  2  0  0  0  0  0  0  0  0  0
   10.4148  -16.9678   19.6789 N   0  0  0  0  0  0  0  0  0  0  0  0
   10.3947  -17.0139   22.1102 C   0  0  0  0  0  0  0  0  0  0  0  0
    9.8610  -18.1332   22.2708 O   0  0  0  0  0  0  0  0  0  0  0  0
   12.8816  -17.0755   24.7415 C   0  0  0  0  0  0  0  0  0  0  0  0
   11.4297  -17.3089   24.3507 C   0  0  2  0  0  0  0  0  0  0  0  0
   11.1855  -16.5088   23.1773 N   0  0  0  0  0  0  0  0  0  0  0  0
   10.5070  -16.8776   25.4220 C   0  0  0  0  0  0  0  0  0  0  0  0
   10.4897  -17.5761   26.6153 O   0  0  0  0  0  0  0  0  0  0  0  0
    9.7296  -15.8994   25.3032 O   0  0  0  0  0  0  0  0  0  0  0  0
  2  3  1  0
  2  1  1  6
  4  3  1  0
  5  4  1  0
  5  6  2  0
  7  8  2  0
  7  2  1  0
  9  5  1  0
 10 11  1  0
 11 13  1  0
 12 11  2  0
 13 14  1  0
 15 14  1  6
 15 16  1  0
 16  7  1  0
 17 15  1  0
 18 17  2  0
 20 19  1  1
 20 22  1  0
 20 21  1  0
 21 17  1  0
 22 23  1  0
 24 22  2  0
M  END
$$$$
