EQA.pdb
     RDKit          3D

 24 23  0  0  1  0  0  0  0  0999 V2000
   13.9910  -18.4931   22.9917 N   0  0  0  0  0  0  0  0  0  0  0  0
   12.7926  -18.0022   22.4108 C   0  0  1  0  0  0  0  0  0  0  0  0
   12.2048  -18.8642   21.3654 C   0  0  0  0  0  0  0  0  0  0  0  0
   10.9266  -18.3362   20.8192 C   0  0  0  0  0  0  0  0  0  0  0  0
   10.2895  -19.1569   19.7885 C   0  0  0  0  0  0  0  0  0  0  0  0
   10.7129  -20.2284   19.3193 O   0  0  0  0  0  0  0  0  0  0  0  0
   11.8126  -17.6585   23.4967 C   0  0  0  0  0  0  0  0  0  0  0  0
   10.7140  -17.0941   23.1974 O   0  0  0  0  0  0  0  0  0  0  0  0
    9.0523  -18.6392   19.2940 O   0  0  0  0  0  0  0  0  0  0  0  0
   12.0228  -19.7013   29.4620 N   0  0  0  0  0  0  0  0  0  0  0  0
   10.8621  -18.8797   29.4775 C   0  0  0  0  0  0  0  0  0  0  0  0
   10.2050  -18.8256   30.5436 O   0  0  0  0  0  0  0  0  0  0  0  0
   10.4920  -18.1401   28.2537 C   0  0  0  0  0  0  0  0  0  0  0  0
   11.5284  -18.4420   27.1914 C   0  0  0  0  0  0  0  0  0  0  0  0
   11.1623  -17.7033   25.9542 C   0  0  2  0  0  0  0  0  0  0  0  0
   12.0864  -17.9490   24.8512 N   0  0  0  0  0  0  0  0  0  0  0  0
   11.0345  -16.2471   26.2336 C   0  0  0  0  0  0  0  0  0  0  0  0
   11.9872  -15.4411   26.3137 O   0  0  0  0  0  0  0  0  0  0  0  0
    8.0503  -14.0449   26.4028 C   0  0  0  0  0  0  0  0  0  0  0  0
    9.5204  -14.3263   26.6765 C   0  0  2  0  0  0  0  0  0  0  0  0
    9.7247  -15.7304   26.4243 N   0  0  0  0  0  0  0  0  0  0  0  0
    9.8716  -14.0389   28.0833 C   0  0  0  0  0  0  0  0  0  0  0  0
    9.9713  -12.7227   28.4954 O   0  0  0  0  0  0  0  0  0  0  0  0
   10.0864  -14.9377   28.9327 O   0  0  0  0  0  0  0  0  0  0  0  0
  2  3  1  0
  2  1  1  1
  4  3  1  0
  5  4  1  0
  5  6  2  0
  7  8  2  0
  7  2  1  0
  9  5  1  0
 10 11  1  0
 11 13  1  0
 12 11  2  0
 13 14  1  0
 15 14  1  1
 15 16  1  0
 16  7  1  0
 17 15  1  0
 18 17  2  0
 20 19  1  1
 20 22  1  0
 20 21  1  0
 21 17  1  0
 22 23  1  0
 24 22  2  0
M  END
$$$$
