EQA.pdb
     RDKit          3D

 24 23  0  0  1  0  0  0  0  0999 V2000
    8.5558  -14.3626   19.1760 N   0  0  0  0  0  0  0  0  0  0  0  0
    9.3321  -14.9265   20.2220 C   0  0  1  0  0  0  0  0  0  0  0  0
   10.7113  -14.4086   20.3271 C   0  0  0  0  0  0  0  0  0  0  0  0
   11.5557  -14.7445   19.1502 C   0  0  0  0  0  0  0  0  0  0  0  0
   12.9992  -14.5974   19.3418 C   0  0  0  0  0  0  0  0  0  0  0  0
   13.5718  -13.9552   20.2401 O   0  0  0  0  0  0  0  0  0  0  0  0
    8.5762  -14.8282   21.5170 C   0  0  0  0  0  0  0  0  0  0  0  0
    7.8095  -13.8362   21.7243 O   0  0  0  0  0  0  0  0  0  0  0  0
   13.8017  -15.2780   18.3744 O   0  0  0  0  0  0  0  0  0  0  0  0
    6.1037  -19.3749   24.5963 N   0  0  0  0  0  0  0  0  0  0  0  0
    5.7992  -18.7711   23.3452 C   0  0  0  0  0  0  0  0  0  0  0  0
    4.9911  -19.3679   22.5955 O   0  0  0  0  0  0  0  0  0  0  0  0
    6.4409  -17.4878   22.9945 C   0  0  0  0  0  0  0  0  0  0  0  0
    7.3638  -17.0987   24.1305 C   0  0  0  0  0  0  0  0  0  0  0  0
    7.9981  -15.7964   23.7957 C   0  0  2  0  0  0  0  0  0  0  0  0
    8.7000  -15.8186   22.5159 N   0  0  0  0  0  0  0  0  0  0  0  0
    8.8994  -15.3561   24.8951 C   0  0  0  0  0  0  0  0  0  0  0  0
   10.1010  -15.6800   25.0169 O   0  0  0  0  0  0  0  0  0  0  0  0
    8.3900  -12.9398   27.6791 C   0  0  0  0  0  0  0  0  0  0  0  0
    9.1434  -14.0836   27.0162 C   0  0  2  0  0  0  0  0  0  0  0  0
    8.3510  -14.4982   25.8862 N   0  0  0  0  0  0  0  0  0  0  0  0
    9.2993  -15.2308   27.9353 C   0  0  0  0  0  0  0  0  0  0  0  0
   10.2638  -15.1728   28.9245 O   0  0  0  0  0  0  0  0  0  0  0  0
    8.5938  -16.2664   27.8636 O   0  0  0  0  0  0  0  0  0  0  0  0
  2  3  1  0
  2  1  1  6
  4  3  1  0
  5  4  1  0
  5  6  2  0
  7  8  2  0
  7  2  1  0
  9  5  1  0
 10 11  1  0
 11 13  1  0
 12 11  2  0
 13 14  1  0
 15 14  1  1
 15 16  1  0
 16  7  1  0
 17 15  1  0
 18 17  2  0
 20 19  1  1
 20 22  1  0
 20 21  1  0
 21 17  1  0
 22 23  1  0
 24 22  2  0
M  END
$$$$
