EQA.pdb
     RDKit          3D

 24 23  0  0  1  0  0  0  0  0999 V2000
    6.5335  -15.4779   20.3482 N   0  0  0  0  0  0  0  0  0  0  0  0
    7.5926  -14.7860   20.9917 C   0  0  1  0  0  0  0  0  0  0  0  0
    7.5246  -13.3134   20.9011 C   0  0  0  0  0  0  0  0  0  0  0  0
    7.6051  -12.8067   19.5055 C   0  0  0  0  0  0  0  0  0  0  0  0
    8.6869  -13.3610   18.6904 C   0  0  0  0  0  0  0  0  0  0  0  0
    9.9066  -13.3004   18.9268 O   0  0  0  0  0  0  0  0  0  0  0  0
    7.7240  -15.2738   22.4069 C   0  0  0  0  0  0  0  0  0  0  0  0
    6.6968  -15.3228   23.1535 O   0  0  0  0  0  0  0  0  0  0  0  0
    8.2559  -14.0355   17.5061 O   0  0  0  0  0  0  0  0  0  0  0  0
   11.7139  -19.4394   24.5705 N   0  0  0  0  0  0  0  0  0  0  0  0
   11.2231  -18.9158   25.7983 C   0  0  0  0  0  0  0  0  0  0  0  0
   11.6062  -19.4664   26.8572 O   0  0  0  0  0  0  0  0  0  0  0  0
   10.2983  -17.7644   25.7669 C   0  0  0  0  0  0  0  0  0  0  0  0
   10.1107  -17.3525   24.3216 C   0  0  0  0  0  0  0  0  0  0  0  0
    9.1734  -16.1992   24.2796 C   0  0  2  0  0  0  0  0  0  0  0  0
    8.9709  -15.6805   22.9302 N   0  0  0  0  0  0  0  0  0  0  0  0
    9.6244  -15.1252   25.2059 C   0  0  0  0  0  0  0  0  0  0  0  0
   10.6835  -14.4706   25.0910 O   0  0  0  0  0  0  0  0  0  0  0  0
    7.7950  -13.1339   27.6626 C   0  0  0  0  0  0  0  0  0  0  0  0
    9.1143  -13.7375   27.2039 C   0  0  2  0  0  0  0  0  0  0  0  0
    8.7839  -14.8181   26.3096 N   0  0  0  0  0  0  0  0  0  0  0  0
    9.8839  -14.2803   28.3432 C   0  0  0  0  0  0  0  0  0  0  0  0
   10.0695  -15.6473   28.4382 O   0  0  0  0  0  0  0  0  0  0  0  0
   10.3831  -13.5566   29.2390 O   0  0  0  0  0  0  0  0  0  0  0  0
  2  3  1  0
  2  1  1  1
  4  3  1  0
  5  4  1  0
  5  6  2  0
  7  8  2  0
  7  2  1  0
  9  5  1  0
 10 11  1  0
 11 13  1  0
 12 11  2  0
 13 14  1  0
 15 14  1  6
 15 16  1  0
 16  7  1  0
 17 15  1  0
 18 17  2  0
 20 19  1  1
 20 22  1  0
 20 21  1  0
 21 17  1  0
 22 23  1  0
 24 22  2  0
M  END
$$$$
