EQA.pdb
     RDKit          3D

 24 23  0  0  1  0  0  0  0  0999 V2000
   -4.2172  -26.6893   30.0691 N   0  0  0  0  0  0  0  0  0  0  0  0
   -3.6769  -25.5733   30.7601 C   0  0  1  0  0  0  0  0  0  0  0  0
   -2.2030  -25.4793   30.7418 C   0  0  0  0  0  0  0  0  0  0  0  0
   -1.5287  -26.7770   31.0108 C   0  0  0  0  0  0  0  0  0  0  0  0
   -0.0751  -26.7843   30.8406 C   0  0  0  0  0  0  0  0  0  0  0  0
    0.6425  -25.8252   30.5049 O   0  0  0  0  0  0  0  0  0  0  0  0
   -4.3436  -24.3151   30.2801 C   0  0  0  0  0  0  0  0  0  0  0  0
   -4.0830  -23.2088   30.8485 O   0  0  0  0  0  0  0  0  0  0  0  0
    0.5490  -28.0446   31.0960 O   0  0  0  0  0  0  0  0  0  0  0  0
   -4.9294  -23.1787   24.4820 N   0  0  0  0  0  0  0  0  0  0  0  0
   -3.8104  -23.2643   25.3555 C   0  0  0  0  0  0  0  0  0  0  0  0
   -2.6772  -23.3901   24.8345 O   0  0  0  0  0  0  0  0  0  0  0  0
   -4.0343  -23.2017   26.8142 C   0  0  0  0  0  0  0  0  0  0  0  0
   -5.5287  -23.1727   27.0587 C   0  0  0  0  0  0  0  0  0  0  0  0
   -5.7642  -23.1445   28.5264 C   0  0  2  0  0  0  0  0  0  0  0  0
   -5.2598  -24.3340   29.2058 N   0  0  0  0  0  0  0  0  0  0  0  0
   -7.2073  -22.9294   28.8200 C   0  0  0  0  0  0  0  0  0  0  0  0
   -7.8867  -21.9562   28.4268 O   0  0  0  0  0  0  0  0  0  0  0  0
   -9.7729  -25.1181   30.3515 C   0  0  0  0  0  0  0  0  0  0  0  0
   -9.2463  -23.7371   29.9897 C   0  0  2  0  0  0  0  0  0  0  0  0
   -7.8667  -23.9089   29.6106 N   0  0  0  0  0  0  0  0  0  0  0  0
   -9.3121  -22.8157   31.1437 C   0  0  0  0  0  0  0  0  0  0  0  0
   -8.1372  -22.4261   31.7602 O   0  0  0  0  0  0  0  0  0  0  0  0
  -10.3912  -22.3635   31.5981 O   0  0  0  0  0  0  0  0  0  0  0  0
  2  3  1  0
  2  1  1  6
  4  3  1  0
  5  4  1  0
  5  6  2  0
  7  8  2  0
  7  2  1  0
  9  5  1  0
 10 11  1  0
 11 13  1  0
 12 11  2  0
 13 14  1  0
 15 14  1  6
 15 16  1  0
 16  7  1  0
 17 15  1  0
 18 17  2  0
 20 19  1  1
 20 22  1  0
 20 21  1  0
 21 17  1  0
 22 23  1  0
 24 22  2  0
M  END
$$$$
