EQA.pdb
     RDKit          3D

 24 23  0  0  1  0  0  0  0  0999 V2000
   10.1163  -14.1686   19.6373 N   0  0  0  0  0  0  0  0  0  0  0  0
    8.7633  -13.7424   19.6888 C   0  0  1  0  0  0  0  0  0  0  0  0
    7.9413  -14.1264   18.5233 C   0  0  0  0  0  0  0  0  0  0  0  0
    8.6763  -14.0432   17.2335 C   0  0  0  0  0  0  0  0  0  0  0  0
    7.9147  -14.4238   16.0431 C   0  0  0  0  0  0  0  0  0  0  0  0
    7.5995  -15.5756   15.6946 O   0  0  0  0  0  0  0  0  0  0  0  0
    8.1524  -14.1680   20.9940 C   0  0  0  0  0  0  0  0  0  0  0  0
    6.9659  -13.8130   21.2788 O   0  0  0  0  0  0  0  0  0  0  0  0
    7.5083  -13.3285   15.2196 O   0  0  0  0  0  0  0  0  0  0  0  0
   10.0064  -18.9902   24.4605 N   0  0  0  0  0  0  0  0  0  0  0  0
   10.8216  -17.8326   24.5940 C   0  0  0  0  0  0  0  0  0  0  0  0
   11.9573  -17.9797   25.1037 O   0  0  0  0  0  0  0  0  0  0  0  0
   10.2980  -16.5310   24.1321 C   0  0  0  0  0  0  0  0  0  0  0  0
    8.8995  -16.7519   23.5943 C   0  0  0  0  0  0  0  0  0  0  0  0
    8.3382  -15.4359   23.1899 C   0  0  2  0  0  0  0  0  0  0  0  0
    8.8715  -14.9575   21.9180 N   0  0  0  0  0  0  0  0  0  0  0  0
    8.5367  -14.4295   24.2681 C   0  0  0  0  0  0  0  0  0  0  0  0
    9.6084  -13.8325   24.5100 O   0  0  0  0  0  0  0  0  0  0  0  0
    6.1476  -12.4787   26.2427 C   0  0  0  0  0  0  0  0  0  0  0  0
    7.5211  -13.1226   26.1224 C   0  0  2  0  0  0  0  0  0  0  0  0
    7.4184  -14.1215   25.0889 N   0  0  0  0  0  0  0  0  0  0  0  0
    7.9199  -13.7815   27.3840 C   0  0  0  0  0  0  0  0  0  0  0  0
    8.2136  -13.0001   28.4864 O   0  0  0  0  0  0  0  0  0  0  0  0
    8.0069  -15.0275   27.5079 O   0  0  0  0  0  0  0  0  0  0  0  0
  2  3  1  0
  2  1  1  6
  4  3  1  0
  5  4  1  0
  5  6  2  0
  7  8  2  0
  7  2  1  0
  9  5  1  0
 10 11  1  0
 11 13  1  0
 12 11  2  0
 13 14  1  0
 15 14  1  1
 15 16  1  0
 16  7  1  0
 17 15  1  0
 18 17  2  0
 20 19  1  1
 20 22  1  0
 20 21  1  0
 21 17  1  0
 22 23  1  0
 24 22  2  0
M  END
$$$$
