EQA.pdb
     RDKit          3D

 24 23  0  0  1  0  0  0  0  0999 V2000
   13.0681  -15.8300   14.3995 N   0  0  0  0  0  0  0  0  0  0  0  0
   12.2272  -15.5795   15.5152 C   0  0  1  0  0  0  0  0  0  0  0  0
   10.8726  -16.1605   15.4211 C   0  0  0  0  0  0  0  0  0  0  0  0
    9.9801  -15.4212   14.4897 C   0  0  0  0  0  0  0  0  0  0  0  0
    8.6054  -15.9155   14.4011 C   0  0  0  0  0  0  0  0  0  0  0  0
    7.8933  -15.9643   13.3823 O   0  0  0  0  0  0  0  0  0  0  0  0
   12.9394  -15.9722   16.7787 C   0  0  0  0  0  0  0  0  0  0  0  0
   13.6370  -17.0341   16.8038 O   0  0  0  0  0  0  0  0  0  0  0  0
    8.0588  -16.3828   15.6364 O   0  0  0  0  0  0  0  0  0  0  0  0
   16.5818  -13.0706   20.3163 N   0  0  0  0  0  0  0  0  0  0  0  0
   16.7681  -13.8338   19.1309 C   0  0  0  0  0  0  0  0  0  0  0  0
   17.8509  -13.6926   18.5153 O   0  0  0  0  0  0  0  0  0  0  0  0
   15.6918  -14.7433   18.6883 C   0  0  0  0  0  0  0  0  0  0  0  0
   14.5248  -14.5881   19.6412 C   0  0  0  0  0  0  0  0  0  0  0  0
   13.4531  -15.5328   19.2297 C   0  0  2  0  0  0  0  0  0  0  0  0
   12.8499  -15.1840   17.9469 N   0  0  0  0  0  0  0  0  0  0  0  0
   12.4205  -15.6480   20.2952 C   0  0  0  0  0  0  0  0  0  0  0  0
   11.4915  -14.8344   20.4911 O   0  0  0  0  0  0  0  0  0  0  0  0
   11.5272  -18.4670   22.5154 C   0  0  0  0  0  0  0  0  0  0  0  0
   11.4969  -16.9838   22.1768 C   0  0  2  0  0  0  0  0  0  0  0  0
   12.4957  -16.7733   21.1596 N   0  0  0  0  0  0  0  0  0  0  0  0
   11.8335  -16.1552   23.3537 C   0  0  0  0  0  0  0  0  0  0  0  0
   10.8845  -15.9774   24.3437 O   0  0  0  0  0  0  0  0  0  0  0  0
   12.9483  -15.5982   23.5027 O   0  0  0  0  0  0  0  0  0  0  0  0
  2  3  1  0
  2  1  1  6
  4  3  1  0
  5  4  1  0
  5  6  2  0
  7  8  2  0
  7  2  1  0
  9  5  1  0
 10 11  1  0
 11 13  1  0
 12 11  2  0
 13 14  1  0
 15 14  1  1
 15 16  1  0
 16  7  1  0
 17 15  1  0
 18 17  2  0
 20 19  1  1
 20 22  1  0
 20 21  1  0
 21 17  1  0
 22 23  1  0
 24 22  2  0
M  END
$$$$
