EQA.pdb
     RDKit          3D

 24 23  0  0  1  0  0  0  0  0999 V2000
    9.3890  -17.1937   19.9277 N   0  0  0  0  0  0  0  0  0  0  0  0
   10.0453  -17.1852   21.1862 C   0  0  1  0  0  0  0  0  0  0  0  0
   11.3750  -16.5422   21.1945 C   0  0  0  0  0  0  0  0  0  0  0  0
   11.9984  -16.4656   19.8467 C   0  0  0  0  0  0  0  0  0  0  0  0
   13.2985  -15.7963   19.7858 C   0  0  0  0  0  0  0  0  0  0  0  0
   14.3980  -16.3213   19.5353 O   0  0  0  0  0  0  0  0  0  0  0  0
    9.1227  -16.6212   22.2295 C   0  0  0  0  0  0  0  0  0  0  0  0
    8.2849  -15.7212   21.9084 O   0  0  0  0  0  0  0  0  0  0  0  0
   13.2589  -14.3916   20.0474 O   0  0  0  0  0  0  0  0  0  0  0  0
    6.9566  -19.9453   26.7874 N   0  0  0  0  0  0  0  0  0  0  0  0
    6.4998  -19.8755   25.4425 C   0  0  0  0  0  0  0  0  0  0  0  0
    5.7428  -20.7899   25.0397 O   0  0  0  0  0  0  0  0  0  0  0  0
    6.9333  -18.7447   24.5969 C   0  0  0  0  0  0  0  0  0  0  0  0
    7.7754  -17.8177   25.4485 C   0  0  0  0  0  0  0  0  0  0  0  0
    8.2174  -16.6762   24.6047 C   0  0  2  0  0  0  0  0  0  0  0  0
    9.1662  -17.0701   23.5676 N   0  0  0  0  0  0  0  0  0  0  0  0
    8.7697  -15.5838   25.4511 C   0  0  0  0  0  0  0  0  0  0  0  0
    9.9643  -15.4786   25.8052 O   0  0  0  0  0  0  0  0  0  0  0  0
    7.1204  -12.6169   27.0051 C   0  0  0  0  0  0  0  0  0  0  0  0
    8.3002  -13.5585   26.8135 C   0  0  2  0  0  0  0  0  0  0  0  0
    7.8673  -14.5787   25.8924 N   0  0  0  0  0  0  0  0  0  0  0  0
    8.6900  -14.2004   28.0867 C   0  0  0  0  0  0  0  0  0  0  0  0
    9.4346  -13.4795   29.0021 O   0  0  0  0  0  0  0  0  0  0  0  0
    8.3767  -15.3791   28.3832 O   0  0  0  0  0  0  0  0  0  0  0  0
  2  3  1  0
  2  1  1  6
  4  3  1  0
  5  4  1  0
  5  6  2  0
  7  8  2  0
  7  2  1  0
  9  5  1  0
 10 11  1  0
 11 13  1  0
 12 11  2  0
 13 14  1  0
 15 14  1  1
 15 16  1  0
 16  7  1  0
 17 15  1  0
 18 17  2  0
 20 19  1  1
 20 22  1  0
 20 21  1  0
 21 17  1  0
 22 23  1  0
 24 22  2  0
M  END
$$$$
