KCK.pdb
     RDKit          3D

 25 24  0  0  1  0  0  0  0  0999 V2000
   10.2234  -16.2940   18.1978 N   0  0  0  0  0  0  0  0  0  0  0  0
    9.0038  -15.6007   18.4737 C   0  0  1  0  0  0  0  0  0  0  0  0
    7.9444  -15.7473   17.4289 C   0  0  0  0  0  0  0  0  0  0  0  0
    8.2840  -16.7461   16.3664 C   0  0  0  0  0  0  0  0  0  0  0  0
    7.1719  -16.9165   15.3517 C   0  0  0  0  0  0  0  0  0  0  0  0
    7.7196  -17.8790   14.2914 C   0  0  0  0  0  0  0  0  0  0  0  0
    6.6740  -18.1571   13.3337 N   0  0  0  0  0  0  0  0  0  0  0  0
    8.4818  -16.0466   19.7851 C   0  0  0  0  0  0  0  0  0  0  0  0
    7.3572  -15.6584   20.1968 O   0  0  0  0  0  0  0  0  0  0  0  0
    9.1919  -16.9182   20.6462 N   0  0  0  0  0  0  0  0  0  0  0  0
    8.5904  -17.4336   21.8842 C   0  0  1  0  0  0  0  0  0  0  0  0
    8.8502  -18.9005   21.8901 C   0  0  0  0  0  0  0  0  0  0  0  0
    8.5837  -19.7160   23.4635 S   0  0  0  0  0  0  0  0  0  0  0  0
    9.0726  -16.6912   23.0513 C   0  0  0  0  0  0  0  0  0  0  0  0
   10.3134  -16.3778   23.1064 O   0  0  0  0  0  0  0  0  0  0  0  0
    8.3046  -16.2758   24.1408 N   0  0  0  0  0  0  0  0  0  0  0  0
    8.8387  -15.5838   25.3035 C   0  0  1  0  0  0  0  0  0  0  0  0
    7.7803  -14.8687   26.0678 C   0  0  0  0  0  0  0  0  0  0  0  0
    7.4827  -13.4835   25.6246 C   0  0  0  0  0  0  0  0  0  0  0  0
    6.3575  -12.8329   26.3998 C   0  0  0  0  0  0  0  0  0  0  0  0
    6.1497  -11.4112   25.8801 C   0  0  0  0  0  0  0  0  0  0  0  0
    5.0601  -10.7513   26.5730 N   0  0  0  0  0  0  0  0  0  0  0  0
    9.4712  -16.5981   26.1630 C   0  0  0  0  0  0  0  0  0  0  0  0
   10.4932  -16.2871   27.0351 O   0  0  0  0  0  0  0  0  0  0  0  0
    9.0802  -17.7853   26.1108 O   0  0  0  0  0  0  0  0  0  0  0  0
  2  8  1  0
  2  1  1  6
  3  2  1  0
  4  3  1  0
  5  4  1  0
  6  5  1  0
  6  7  1  0
  8  9  2  0
 10 11  1  0
 10  8  1  0
 11 12  1  1
 12 13  1  0
 14 15  2  0
 14 11  1  0
 16 14  1  0
 17 23  1  0
 17 16  1  0
 17 18  1  1
 19 20  1  0
 19 18  1  0
 20 21  1  0
 22 21  1  0
 23 24  1  0
 25 23  2  0
M  END
$$$$
