KCK.pdb
     RDKit          3D

 25 24  0  0  1  0  0  0  0  0999 V2000
    7.8440  -14.3695   20.1671 N   0  0  0  0  0  0  0  0  0  0  0  0
    7.3506  -15.0376   21.3308 C   0  0  1  0  0  0  0  0  0  0  0  0
    7.5853  -16.5140   21.3580 C   0  0  0  0  0  0  0  0  0  0  0  0
    7.1320  -17.2163   20.1158 C   0  0  0  0  0  0  0  0  0  0  0  0
    7.3562  -18.7134   20.1796 C   0  0  0  0  0  0  0  0  0  0  0  0
    6.8976  -19.2611   18.8229 C   0  0  0  0  0  0  0  0  0  0  0  0
    5.4534  -19.2421   18.7798 N   0  0  0  0  0  0  0  0  0  0  0  0
    7.9440  -14.4120   22.5340 C   0  0  0  0  0  0  0  0  0  0  0  0
    9.1836  -14.2053   22.6079 O   0  0  0  0  0  0  0  0  0  0  0  0
    7.1791  -14.0123   23.6568 N   0  0  0  0  0  0  0  0  0  0  0  0
    7.8184  -13.5919   24.9117 C   0  0  1  0  0  0  0  0  0  0  0  0
    6.8186  -12.7455   25.6211 C   0  0  0  0  0  0  0  0  0  0  0  0
    7.2355  -12.3289   27.3135 S   0  0  0  0  0  0  0  0  0  0  0  0
    8.3254  -14.7472   25.6558 C   0  0  0  0  0  0  0  0  0  0  0  0
    7.5512  -15.7537   25.8238 O   0  0  0  0  0  0  0  0  0  0  0  0
    9.5974  -14.8742   26.2174 N   0  0  0  0  0  0  0  0  0  0  0  0
   10.0448  -16.0294   26.9799 C   0  0  1  0  0  0  0  0  0  0  0  0
   11.2677  -16.6479   26.3985 C   0  0  0  0  0  0  0  0  0  0  0  0
   11.8494  -17.7796   27.1631 C   0  0  0  0  0  0  0  0  0  0  0  0
   13.1320  -18.3140   26.5635 C   0  0  0  0  0  0  0  0  0  0  0  0
   13.6629  -19.4434   27.4449 C   0  0  0  0  0  0  0  0  0  0  0  0
   14.9315  -19.9440   26.9521 N   0  0  0  0  0  0  0  0  0  0  0  0
   10.3265  -15.5666   28.3489 C   0  0  0  0  0  0  0  0  0  0  0  0
   10.4918  -14.2316   28.6528 O   0  0  0  0  0  0  0  0  0  0  0  0
   10.4231  -16.3998   29.2770 O   0  0  0  0  0  0  0  0  0  0  0  0
  2  8  1  0
  2  1  1  6
  3  2  1  0
  4  3  1  0
  5  4  1  0
  6  5  1  0
  6  7  1  0
  8  9  2  0
 10 11  1  0
 10  8  1  0
 11 12  1  1
 12 13  1  0
 14 15  2  0
 14 11  1  0
 16 14  1  0
 17 23  1  0
 17 16  1  0
 17 18  1  6
 19 20  1  0
 19 18  1  0
 20 21  1  0
 22 21  1  0
 23 24  1  0
 25 23  2  0
M  END
$$$$
