KCK.pdb
     RDKit          3D

 25 24  0  0  1  0  0  0  0  0999 V2000
    7.8868  -15.2612   19.0203 N   0  0  0  0  0  0  0  0  0  0  0  0
    7.4247  -15.9249   20.1993 C   0  0  1  0  0  0  0  0  0  0  0  0
    7.3662  -17.4158   20.1023 C   0  0  0  0  0  0  0  0  0  0  0  0
    7.0817  -17.9161   18.7201 C   0  0  0  0  0  0  0  0  0  0  0  0
    5.7743  -18.6771   18.6348 C   0  0  0  0  0  0  0  0  0  0  0  0
    5.5663  -18.9817   17.1466 C   0  0  0  0  0  0  0  0  0  0  0  0
    4.2821  -19.6229   16.9800 N   0  0  0  0  0  0  0  0  0  0  0  0
    8.2785  -15.5285   21.3417 C   0  0  0  0  0  0  0  0  0  0  0  0
    9.5333  -15.5870   21.2592 O   0  0  0  0  0  0  0  0  0  0  0  0
    7.7576  -15.0678   22.5753 N   0  0  0  0  0  0  0  0  0  0  0  0
    8.6264  -14.8368   23.7380 C   0  0  1  0  0  0  0  0  0  0  0  0
    7.8222  -14.0344   24.7017 C   0  0  0  0  0  0  0  0  0  0  0  0
    6.2655  -14.7721   25.1960 S   0  0  0  0  0  0  0  0  0  0  0  0
    9.1683  -16.0986   24.2479 C   0  0  0  0  0  0  0  0  0  0  0  0
    8.5294  -17.1814   24.0031 O   0  0  0  0  0  0  0  0  0  0  0  0
   10.3391  -16.2535   24.9926 N   0  0  0  0  0  0  0  0  0  0  0  0
   10.9139  -17.5389   25.3578 C   0  0  1  0  0  0  0  0  0  0  0  0
   12.2532  -17.7511   24.7437 C   0  0  0  0  0  0  0  0  0  0  0  0
   12.9212  -19.0360   25.0704 C   0  0  0  0  0  0  0  0  0  0  0  0
   14.3083  -19.1600   24.4780 C   0  0  0  0  0  0  0  0  0  0  0  0
   14.9099  -20.5021   24.8918 C   0  0  0  0  0  0  0  0  0  0  0  0
   16.1661  -20.7485   24.2104 N   0  0  0  0  0  0  0  0  0  0  0  0
   11.0320  -17.5634   26.8251 C   0  0  0  0  0  0  0  0  0  0  0  0
   11.3030  -18.7231   27.5204 O   0  0  0  0  0  0  0  0  0  0  0  0
   10.8829  -16.5056   27.4763 O   0  0  0  0  0  0  0  0  0  0  0  0
  2  8  1  0
  2  1  1  6
  3  2  1  0
  4  3  1  0
  5  4  1  0
  6  5  1  0
  6  7  1  0
  8  9  2  0
 10 11  1  0
 10  8  1  0
 11 12  1  1
 12 13  1  0
 14 15  2  0
 14 11  1  0
 16 14  1  0
 17 23  1  0
 17 16  1  0
 17 18  1  6
 19 20  1  0
 19 18  1  0
 20 21  1  0
 22 21  1  0
 23 24  1  0
 25 23  2  0
M  END
$$$$
