KCK.pdb
     RDKit          3D

 25 24  0  0  1  0  0  0  0  0999 V2000
    8.0682  -14.5362   20.2327 N   0  0  0  0  0  0  0  0  0  0  0  0
    7.3694  -15.0547   21.3672 C   0  0  1  0  0  0  0  0  0  0  0  0
    7.3022  -16.5466   21.4392 C   0  0  0  0  0  0  0  0  0  0  0  0
    6.6907  -17.1785   20.2274 C   0  0  0  0  0  0  0  0  0  0  0  0
    7.5205  -18.3261   19.6887 C   0  0  0  0  0  0  0  0  0  0  0  0
    6.7154  -18.9100   18.5217 C   0  0  0  0  0  0  0  0  0  0  0  0
    7.4273  -20.0507   17.9926 N   0  0  0  0  0  0  0  0  0  0  0  0
    7.9882  -14.5192   22.6007 C   0  0  0  0  0  0  0  0  0  0  0  0
    9.2398  -14.4444   22.7136 O   0  0  0  0  0  0  0  0  0  0  0  0
    7.2357  -14.0652   23.7111 N   0  0  0  0  0  0  0  0  0  0  0  0
    7.8883  -13.6001   24.9431 C   0  0  1  0  0  0  0  0  0  0  0  0
    6.9244  -12.6702   25.5954 C   0  0  0  0  0  0  0  0  0  0  0  0
    7.3516  -12.1759   27.2641 S   0  0  0  0  0  0  0  0  0  0  0  0
    8.3409  -14.7308   25.7570 C   0  0  0  0  0  0  0  0  0  0  0  0
    7.5227  -15.6912   25.9778 O   0  0  0  0  0  0  0  0  0  0  0  0
    9.6035  -14.8797   26.3341 N   0  0  0  0  0  0  0  0  0  0  0  0
    9.9906  -15.9971   27.1813 C   0  0  1  0  0  0  0  0  0  0  0  0
   11.1733  -16.7255   26.6461 C   0  0  0  0  0  0  0  0  0  0  0  0
   11.6227  -17.9013   27.4331 C   0  0  0  0  0  0  0  0  0  0  0  0
   12.8704  -18.5543   26.8791 C   0  0  0  0  0  0  0  0  0  0  0  0
   13.1685  -19.8213   27.6792 C   0  0  0  0  0  0  0  0  0  0  0  0
   14.3646  -20.4817   27.1934 N   0  0  0  0  0  0  0  0  0  0  0  0
   10.3062  -15.4484   28.5106 C   0  0  0  0  0  0  0  0  0  0  0  0
   10.6044  -14.1157   28.7025 O   0  0  0  0  0  0  0  0  0  0  0  0
   10.3092  -16.2038   29.5078 O   0  0  0  0  0  0  0  0  0  0  0  0
  2  8  1  0
  2  1  1  6
  3  2  1  0
  4  3  1  0
  5  4  1  0
  6  5  1  0
  6  7  1  0
  8  9  2  0
 10 11  1  0
 10  8  1  0
 11 12  1  1
 12 13  1  0
 14 15  2  0
 14 11  1  0
 16 14  1  0
 17 23  1  0
 17 16  1  0
 17 18  1  6
 19 20  1  0
 19 18  1  0
 20 21  1  0
 22 21  1  0
 23 24  1  0
 25 23  2  0
M  END
$$$$
