KCK.pdb
     RDKit          3D

 25 24  0  0  1  0  0  0  0  0999 V2000
    8.0082  -16.0135   17.0699 N   0  0  0  0  0  0  0  0  0  0  0  0
    8.8183  -16.9222   17.8197 C   0  0  1  0  0  0  0  0  0  0  0  0
    9.9383  -17.5492   17.0531 C   0  0  0  0  0  0  0  0  0  0  0  0
    9.4805  -18.3853   15.8985 C   0  0  0  0  0  0  0  0  0  0  0  0
   10.6346  -18.9457   15.0926 C   0  0  0  0  0  0  0  0  0  0  0  0
    9.9957  -19.7424   13.9489 C   0  0  0  0  0  0  0  0  0  0  0  0
    9.7345  -21.0866   14.4102 N   0  0  0  0  0  0  0  0  0  0  0  0
    9.3532  -16.2222   19.0093 C   0  0  0  0  0  0  0  0  0  0  0  0
    9.6447  -14.9985   18.9600 O   0  0  0  0  0  0  0  0  0  0  0  0
    9.5690  -16.8629   20.2536 N   0  0  0  0  0  0  0  0  0  0  0  0
    9.6796  -16.0972   21.5032 C   0  0  1  0  0  0  0  0  0  0  0  0
    8.4335  -15.2870   21.6028 C   0  0  0  0  0  0  0  0  0  0  0  0
    8.2534  -14.3476   23.1183 S   0  0  0  0  0  0  0  0  0  0  0  0
    9.9640  -16.9801   22.6370 C   0  0  0  0  0  0  0  0  0  0  0  0
    9.1086  -17.8851   22.9365 O   0  0  0  0  0  0  0  0  0  0  0  0
   11.0989  -16.9413   23.4494 N   0  0  0  0  0  0  0  0  0  0  0  0
   11.5662  -18.0565   24.2581 C   0  0  1  0  0  0  0  0  0  0  0  0
   13.0512  -18.1593   24.2701 C   0  0  0  0  0  0  0  0  0  0  0  0
   13.6156  -19.3258   24.9943 C   0  0  0  0  0  0  0  0  0  0  0  0
   15.1250  -19.4066   24.9202 C   0  0  0  0  0  0  0  0  0  0  0  0
   15.5865  -20.7190   25.5518 C   0  0  0  0  0  0  0  0  0  0  0  0
   17.0228  -20.8825   25.4363 N   0  0  0  0  0  0  0  0  0  0  0  0
   11.0733  -17.8389   25.6283 C   0  0  0  0  0  0  0  0  0  0  0  0
   10.4292  -16.6779   26.0008 O   0  0  0  0  0  0  0  0  0  0  0  0
   11.2379  -18.7268   26.4941 O   0  0  0  0  0  0  0  0  0  0  0  0
  2  8  1  0
  2  1  1  6
  3  2  1  0
  4  3  1  0
  5  4  1  0
  6  5  1  0
  6  7  1  0
  8  9  2  0
 10 11  1  0
 10  8  1  0
 11 12  1  1
 12 13  1  0
 14 15  2  0
 14 11  1  0
 16 14  1  0
 17 23  1  0
 17 16  1  0
 17 18  1  1
 19 20  1  0
 19 18  1  0
 20 21  1  0
 22 21  1  0
 23 24  1  0
 25 23  2  0
M  END
$$$$
