KCK.pdb
     RDKit          3D

 25 24  0  0  1  0  0  0  0  0999 V2000
   11.2647  -19.1465   18.0814 N   0  0  0  0  0  0  0  0  0  0  0  0
   10.2798  -18.1396   18.3267 C   0  0  1  0  0  0  0  0  0  0  0  0
    9.2091  -18.0378   17.2881 C   0  0  0  0  0  0  0  0  0  0  0  0
    9.6767  -18.3852   15.9088 C   0  0  0  0  0  0  0  0  0  0  0  0
    9.4664  -17.2550   14.9217 C   0  0  0  0  0  0  0  0  0  0  0  0
    9.9057  -17.8049   13.5595 C   0  0  0  0  0  0  0  0  0  0  0  0
    9.7992  -16.7500   12.5779 N   0  0  0  0  0  0  0  0  0  0  0  0
    9.6708  -18.3745   19.6553 C   0  0  0  0  0  0  0  0  0  0  0  0
    8.8941  -19.3469   19.8453 O   0  0  0  0  0  0  0  0  0  0  0  0
    9.9126  -17.5439   20.7764 N   0  0  0  0  0  0  0  0  0  0  0  0
    9.2848  -17.8088   22.0786 C   0  0  1  0  0  0  0  0  0  0  0  0
    9.8602  -19.0955   22.5606 C   0  0  0  0  0  0  0  0  0  0  0  0
    9.6312  -19.4270   24.3067 S   0  0  0  0  0  0  0  0  0  0  0  0
    9.4346  -16.6616   22.9771 C   0  0  0  0  0  0  0  0  0  0  0  0
   10.6154  -16.2384   23.2364 O   0  0  0  0  0  0  0  0  0  0  0  0
    8.4004  -15.9592   23.5989 N   0  0  0  0  0  0  0  0  0  0  0  0
    8.5958  -14.7931   24.4464 C   0  0  1  0  0  0  0  0  0  0  0  0
    7.3204  -14.0750   24.7179 C   0  0  0  0  0  0  0  0  0  0  0  0
    7.4196  -12.8871   25.6026 C   0  0  0  0  0  0  0  0  0  0  0  0
    6.0877  -12.2161   25.8597 C   0  0  0  0  0  0  0  0  0  0  0  0
    6.3017  -11.0191   26.7847 C   0  0  0  0  0  0  0  0  0  0  0  0
    5.0409  -10.3994   27.1444 N   0  0  0  0  0  0  0  0  0  0  0  0
    9.1773  -15.2666   25.7133 C   0  0  0  0  0  0  0  0  0  0  0  0
   10.1114  -14.5312   26.4122 O   0  0  0  0  0  0  0  0  0  0  0  0
    8.8233  -16.3706   26.1831 O   0  0  0  0  0  0  0  0  0  0  0  0
  2  8  1  0
  2  1  1  6
  3  2  1  0
  4  3  1  0
  5  4  1  0
  6  5  1  0
  6  7  1  0
  8  9  2  0
 10 11  1  0
 10  8  1  0
 11 12  1  1
 12 13  1  0
 14 15  2  0
 14 11  1  0
 16 14  1  0
 17 23  1  0
 17 16  1  0
 17 18  1  1
 19 20  1  0
 19 18  1  0
 20 21  1  0
 22 21  1  0
 23 24  1  0
 25 23  2  0
M  END
$$$$
