KCK.pdb
     RDKit          3D

 25 24  0  0  1  0  0  0  0  0999 V2000
    8.3393  -12.8752   18.5968 N   0  0  0  0  0  0  0  0  0  0  0  0
    7.8970  -14.0410   19.2962 C   0  0  1  0  0  0  0  0  0  0  0  0
    8.3589  -15.3388   18.7150 C   0  0  0  0  0  0  0  0  0  0  0  0
    7.9639  -15.5291   17.2833 C   0  0  0  0  0  0  0  0  0  0  0  0
    7.4258  -16.9185   17.0083 C   0  0  0  0  0  0  0  0  0  0  0  0
    6.9275  -16.8925   15.5585 C   0  0  0  0  0  0  0  0  0  0  0  0
    6.4034  -18.1972   15.2253 N   0  0  0  0  0  0  0  0  0  0  0  0
    8.3213  -13.9444   20.7110 C   0  0  0  0  0  0  0  0  0  0  0  0
    9.5350  -13.7970   21.0111 O   0  0  0  0  0  0  0  0  0  0  0  0
    7.4158  -14.0093   21.7978 N   0  0  0  0  0  0  0  0  0  0  0  0
    7.8872  -14.0530   23.1892 C   0  0  1  0  0  0  0  0  0  0  0  0
    6.8312  -13.3896   24.0041 C   0  0  0  0  0  0  0  0  0  0  0  0
    7.0361  -13.5306   25.7789 S   0  0  0  0  0  0  0  0  0  0  0  0
    8.2381  -15.4197   23.5824 C   0  0  0  0  0  0  0  0  0  0  0  0
    7.4390  -16.3703   23.2684 O   0  0  0  0  0  0  0  0  0  0  0  0
    9.3818  -15.8099   24.2817 N   0  0  0  0  0  0  0  0  0  0  0  0
    9.7040  -17.1870   24.6222 C   0  0  1  0  0  0  0  0  0  0  0  0
   10.9133  -17.6756   23.9047 C   0  0  0  0  0  0  0  0  0  0  0  0
   11.3714  -19.0422   24.2601 C   0  0  0  0  0  0  0  0  0  0  0  0
   12.5673  -19.5036   23.4556 C   0  0  0  0  0  0  0  0  0  0  0  0
   12.9699  -20.9033   23.9172 C   0  0  0  0  0  0  0  0  0  0  0  0
   14.0879  -21.4110   23.1456 N   0  0  0  0  0  0  0  0  0  0  0  0
    9.9370  -17.2345   26.0752 C   0  0  0  0  0  0  0  0  0  0  0  0
    9.8728  -18.4117   26.7907 O   0  0  0  0  0  0  0  0  0  0  0  0
   10.2015  -16.1805   26.6950 O   0  0  0  0  0  0  0  0  0  0  0  0
  2  8  1  0
  2  1  1  6
  3  2  1  0
  4  3  1  0
  5  4  1  0
  6  5  1  0
  6  7  1  0
  8  9  2  0
 10 11  1  0
 10  8  1  0
 11 12  1  1
 12 13  1  0
 14 15  2  0
 14 11  1  0
 16 14  1  0
 17 23  1  0
 17 16  1  0
 17 18  1  6
 19 20  1  0
 19 18  1  0
 20 21  1  0
 22 21  1  0
 23 24  1  0
 25 23  2  0
M  END
$$$$
