KCK.pdb
     RDKit          3D

 25 24  0  0  1  0  0  0  0  0999 V2000
    6.0079  -18.1741   19.7109 N   0  0  0  0  0  0  0  0  0  0  0  0
    5.8682  -17.9088   21.1087 C   0  0  1  0  0  0  0  0  0  0  0  0
    5.5091  -19.0960   21.9437 C   0  0  0  0  0  0  0  0  0  0  0  0
    4.0431  -19.2094   22.2258 C   0  0  0  0  0  0  0  0  0  0  0  0
    3.3128  -20.0334   21.1850 C   0  0  0  0  0  0  0  0  0  0  0  0
    1.8439  -20.0520   21.6244 C   0  0  0  0  0  0  0  0  0  0  0  0
    1.0362  -19.4926   20.5649 N   0  0  0  0  0  0  0  0  0  0  0  0
    7.1206  -17.3007   21.6116 C   0  0  0  0  0  0  0  0  0  0  0  0
    8.2263  -17.5605   21.0687 O   0  0  0  0  0  0  0  0  0  0  0  0
    7.1619  -16.4075   22.7097 N   0  0  0  0  0  0  0  0  0  0  0  0
    8.4187  -15.7816   23.1442 C   0  0  1  0  0  0  0  0  0  0  0  0
    8.0409  -14.4755   23.7530 C   0  0  0  0  0  0  0  0  0  0  0  0
    6.9861  -14.5840   25.1977 S   0  0  0  0  0  0  0  0  0  0  0  0
    9.1899  -16.6888   23.9975 C   0  0  0  0  0  0  0  0  0  0  0  0
    8.5562  -17.4551   24.8048 O   0  0  0  0  0  0  0  0  0  0  0  0
   10.5803  -16.8127   24.0267 N   0  0  0  0  0  0  0  0  0  0  0  0
   11.3009  -17.7646   24.8578 C   0  0  1  0  0  0  0  0  0  0  0  0
   12.6089  -18.1534   24.2631 C   0  0  0  0  0  0  0  0  0  0  0  0
   12.5575  -18.7073   22.8868 C   0  0  0  0  0  0  0  0  0  0  0  0
   13.9247  -18.9614   22.2896 C   0  0  0  0  0  0  0  0  0  0  0  0
   13.7588  -19.4430   20.8491 C   0  0  0  0  0  0  0  0  0  0  0  0
   15.0432  -19.5921   20.1926 N   0  0  0  0  0  0  0  0  0  0  0  0
   11.5216  -17.1236   26.1648 C   0  0  0  0  0  0  0  0  0  0  0  0
   11.1695  -15.8126   26.4080 O   0  0  0  0  0  0  0  0  0  0  0  0
   12.0458  -17.7765   27.0943 O   0  0  0  0  0  0  0  0  0  0  0  0
  2  8  1  0
  2  1  1  6
  3  2  1  0
  4  3  1  0
  5  4  1  0
  6  5  1  0
  6  7  1  0
  8  9  2  0
 10 11  1  0
 10  8  1  0
 11 12  1  1
 12 13  1  0
 14 15  2  0
 14 11  1  0
 16 14  1  0
 17 23  1  0
 17 16  1  0
 17 18  1  6
 19 20  1  0
 19 18  1  0
 20 21  1  0
 22 21  1  0
 23 24  1  0
 25 23  2  0
M  END
$$$$
