KCK.pdb
     RDKit          3D

 25 24  0  0  1  0  0  0  0  0999 V2000
    8.7509  -17.4468   16.3694 N   0  0  0  0  0  0  0  0  0  0  0  0
    7.7940  -17.1841   17.3986 C   0  0  1  0  0  0  0  0  0  0  0  0
    7.0188  -18.3769   17.8589 C   0  0  0  0  0  0  0  0  0  0  0  0
    7.8685  -19.5837   18.1105 C   0  0  0  0  0  0  0  0  0  0  0  0
    7.0535  -20.7937   18.5197 C   0  0  0  0  0  0  0  0  0  0  0  0
    8.0509  -21.9542   18.6161 C   0  0  0  0  0  0  0  0  0  0  0  0
    7.3361  -23.1483   19.0050 N   0  0  0  0  0  0  0  0  0  0  0  0
    8.4830  -16.5577   18.5492 C   0  0  0  0  0  0  0  0  0  0  0  0
    9.6575  -16.8911   18.8564 O   0  0  0  0  0  0  0  0  0  0  0  0
    7.8855  -15.5653   19.3638 N   0  0  0  0  0  0  0  0  0  0  0  0
    8.6319  -14.9070   20.4453 C   0  0  1  0  0  0  0  0  0  0  0  0
    7.7686  -13.7909   20.9231 C   0  0  0  0  0  0  0  0  0  0  0  0
    7.4823  -12.4839   19.7310 S   0  0  0  0  0  0  0  0  0  0  0  0
    9.0495  -15.8763   21.4611 C   0  0  0  0  0  0  0  0  0  0  0  0
    8.2953  -16.8863   21.6887 O   0  0  0  0  0  0  0  0  0  0  0  0
   10.2136  -15.8172   22.2297 N   0  0  0  0  0  0  0  0  0  0  0  0
   10.6194  -16.8393   23.1819 C   0  0  1  0  0  0  0  0  0  0  0  0
   12.0118  -17.3088   22.9438 C   0  0  0  0  0  0  0  0  0  0  0  0
   12.5372  -18.3019   23.9142 C   0  0  0  0  0  0  0  0  0  0  0  0
   13.9783  -18.6873   23.6592 C   0  0  0  0  0  0  0  0  0  0  0  0
   14.4191  -19.6991   24.7158 C   0  0  0  0  0  0  0  0  0  0  0  0
   15.7771  -20.1494   24.4794 N   0  0  0  0  0  0  0  0  0  0  0  0
   10.5190  -16.2479   24.5265 C   0  0  0  0  0  0  0  0  0  0  0  0
   10.4870  -17.0212   25.6679 O   0  0  0  0  0  0  0  0  0  0  0  0
   10.4586  -15.0048   24.6536 O   0  0  0  0  0  0  0  0  0  0  0  0
  2  8  1  0
  2  1  1  6
  3  2  1  0
  4  3  1  0
  5  4  1  0
  6  5  1  0
  6  7  1  0
  8  9  2  0
 10 11  1  0
 10  8  1  0
 11 12  1  1
 12 13  1  0
 14 15  2  0
 14 11  1  0
 16 14  1  0
 17 23  1  0
 17 16  1  0
 17 18  1  6
 19 20  1  0
 19 18  1  0
 20 21  1  0
 22 21  1  0
 23 24  1  0
 25 23  2  0
M  END
$$$$
