KCK.pdb
     RDKit          3D

 25 24  0  0  1  0  0  0  0  0999 V2000
   10.0626  -16.6890   14.1910 N   0  0  0  0  0  0  0  0  0  0  0  0
    9.2785  -16.4330   15.3588 C   0  0  1  0  0  0  0  0  0  0  0  0
    8.5950  -17.6314   15.9352 C   0  0  0  0  0  0  0  0  0  0  0  0
    7.8467  -18.4403   14.9215 C   0  0  0  0  0  0  0  0  0  0  0  0
    7.2516  -19.7034   15.5099 C   0  0  0  0  0  0  0  0  0  0  0  0
    6.5530  -20.4159   14.3458 C   0  0  0  0  0  0  0  0  0  0  0  0
    6.0140  -21.6679   14.8254 N   0  0  0  0  0  0  0  0  0  0  0  0
   10.1360  -15.8007   16.3863 C   0  0  0  0  0  0  0  0  0  0  0  0
   11.3823  -15.9789   16.3842 O   0  0  0  0  0  0  0  0  0  0  0  0
    9.6284  -14.9725   17.4168 N   0  0  0  0  0  0  0  0  0  0  0  0
   10.5162  -14.3443   18.4053 C   0  0  1  0  0  0  0  0  0  0  0  0
    9.9048  -13.0254   18.7304 C   0  0  0  0  0  0  0  0  0  0  0  0
   10.6714  -12.1433   20.0890 S   0  0  0  0  0  0  0  0  0  0  0  0
   10.7550  -15.2389   19.5404 C   0  0  0  0  0  0  0  0  0  0  0  0
    9.7462  -15.7806   20.1145 O   0  0  0  0  0  0  0  0  0  0  0  0
   11.9983  -15.5751   20.0795 N   0  0  0  0  0  0  0  0  0  0  0  0
   12.1821  -16.4032   21.2613 C   0  0  1  0  0  0  0  0  0  0  0  0
   12.5573  -17.8016   20.9155 C   0  0  0  0  0  0  0  0  0  0  0  0
   11.4406  -18.6929   20.5125 C   0  0  0  0  0  0  0  0  0  0  0  0
   11.8979  -20.0634   20.0621 C   0  0  0  0  0  0  0  0  0  0  0  0
   10.6741  -20.9070   19.7083 C   0  0  0  0  0  0  0  0  0  0  0  0
   11.0612  -22.2019   19.1828 N   0  0  0  0  0  0  0  0  0  0  0  0
   13.2515  -15.7872   22.0641 C   0  0  0  0  0  0  0  0  0  0  0  0
   13.4250  -16.0769   23.4012 O   0  0  0  0  0  0  0  0  0  0  0  0
   14.0355  -14.9716   21.5300 O   0  0  0  0  0  0  0  0  0  0  0  0
  2  8  1  0
  2  1  1  6
  3  2  1  0
  4  3  1  0
  5  4  1  0
  6  5  1  0
  6  7  1  0
  8  9  2  0
 10 11  1  0
 10  8  1  0
 11 12  1  1
 12 13  1  0
 14 15  2  0
 14 11  1  0
 16 14  1  0
 17 23  1  0
 17 16  1  0
 17 18  1  6
 19 20  1  0
 19 18  1  0
 20 21  1  0
 22 21  1  0
 23 24  1  0
 25 23  2  0
M  END
$$$$
