SYD.pdb
     RDKit          3D

 27 27  0  0  1  0  0  0  0  0999 V2000
    7.0074  -16.6083   19.0774 O   0  0  0  0  0  0  0  0  0  0  0  0
    7.5289  -16.5827   20.3838 C   0  0  0  0  0  0  0  0  0  0  0  0
    7.4231  -15.1919   20.9759 C   0  0  2  0  0  0  0  0  0  0  0  0
    7.7112  -14.2047   19.9782 N   0  0  0  0  0  0  0  0  0  0  0  0
    8.3176  -15.0045   22.1253 C   0  0  0  0  0  0  0  0  0  0  0  0
    9.4005  -14.3869   22.0113 O   0  0  0  0  0  0  0  0  0  0  0  0
    5.7467  -10.0004   26.8997 O   0  0  0  0  0  0  0  0  0  0  0  0
    6.2803  -11.2570   26.6323 C   0  0  0  0  0  0  0  0  0  0  0  0
    7.6242  -11.4392   26.3607 C   0  0  0  0  0  0  0  0  0  0  0  0
    8.1238  -12.6972   26.0993 C   0  0  0  0  0  0  0  0  0  0  0  0
    7.3328  -13.8332   26.0915 C   0  0  0  0  0  0  0  0  0  0  0  0
    7.9179  -15.1571   25.7962 C   0  0  0  0  0  0  0  0  0  0  0  0
    8.8009  -15.1976   24.5974 C   0  0  2  0  0  0  0  0  0  0  0  0
    8.0029  -15.5153   23.4347 N   0  0  0  0  0  0  0  0  0  0  0  0
    9.9685  -16.0837   24.7417 C   0  0  0  0  0  0  0  0  0  0  0  0
   10.7963  -15.8140   25.6533 O   0  0  0  0  0  0  0  0  0  0  0  0
    5.9834  -13.6311   26.3667 C   0  0  0  0  0  0  0  0  0  0  0  0
    5.4758  -12.3757   26.6293 C   0  0  0  0  0  0  0  0  0  0  0  0
   10.2248  -17.2030   23.9398 N   0  0  0  0  0  0  0  0  0  0  0  0
   11.4369  -18.0305   24.1496 C   0  0  1  0  0  0  0  0  0  0  0  0
   12.6002  -17.0933   24.1435 C   0  0  0  0  0  0  0  0  0  0  0  0
   13.5663  -17.3945   23.0839 C   0  0  0  0  0  0  0  0  0  0  0  0
   13.2210  -17.4097   21.8823 O   0  0  0  0  0  0  0  0  0  0  0  0
   11.2579  -18.6294   25.5044 C   0  0  0  0  0  0  0  0  0  0  0  0
   11.8215  -19.8211   25.8651 O   0  0  0  0  0  0  0  0  0  0  0  0
   14.9075  -17.6761   23.3684 O   0  0  0  0  0  0  0  0  0  0  0  0
   10.5628  -18.0444   26.3876 O   0  0  0  0  0  0  0  0  0  0  0  0
  2  1  1  0
  3  2  1  0
  3  5  1  0
  3  4  1  6
  5 14  1  0
  5  6  2  0
  8  7  1  0
  8 18  2  0
  9  8  1  0
 10  9  2  0
 10 11  1  0
 11 17  2  0
 12 11  1  0
 13 12  1  1
 14 13  1  0
 15 13  1  0
 15 16  2  0
 17 18  1  0
 19 15  1  0
 20 19  1  0
 20 21  1  1
 22 21  1  0
 22 26  1  0
 23 22  2  0
 24 20  1  0
 25 24  1  0
 27 24  2  0
M  END
$$$$
