SYD.pdb
     RDKit          3D

 27 27  0  0  1  0  0  0  0  0999 V2000
    6.4988  -16.9421   20.5231 O   0  0  0  0  0  0  0  0  0  0  0  0
    5.8346  -15.7058   20.4229 C   0  0  0  0  0  0  0  0  0  0  0  0
    6.8260  -14.5605   20.4595 C   0  0  2  0  0  0  0  0  0  0  0  0
    7.6109  -14.5452   19.2609 N   0  0  0  0  0  0  0  0  0  0  0  0
    7.7137  -14.6271   21.6274 C   0  0  0  0  0  0  0  0  0  0  0  0
    8.8956  -15.0262   21.5226 O   0  0  0  0  0  0  0  0  0  0  0  0
   10.1950  -14.3849   30.2442 O   0  0  0  0  0  0  0  0  0  0  0  0
    9.5354  -14.2252   29.0297 C   0  0  0  0  0  0  0  0  0  0  0  0
    9.8868  -13.2351   28.1302 C   0  0  0  0  0  0  0  0  0  0  0  0
    9.2142  -13.1017   26.9342 C   0  0  0  0  0  0  0  0  0  0  0  0
    8.1685  -13.9296   26.5637 C   0  0  0  0  0  0  0  0  0  0  0  0
    7.4756  -13.7372   25.2733 C   0  0  0  0  0  0  0  0  0  0  0  0
    8.1096  -14.4250   24.1142 C   0  0  2  0  0  0  0  0  0  0  0  0
    7.2794  -14.2411   22.9452 N   0  0  0  0  0  0  0  0  0  0  0  0
    8.4344  -15.8403   24.3606 C   0  0  0  0  0  0  0  0  0  0  0  0
    7.4971  -16.6783   24.2690 O   0  0  0  0  0  0  0  0  0  0  0  0
    7.8286  -14.9200   27.4809 C   0  0  0  0  0  0  0  0  0  0  0  0
    8.4965  -15.0601   28.6795 C   0  0  0  0  0  0  0  0  0  0  0  0
    9.7080  -16.3213   24.6891 N   0  0  0  0  0  0  0  0  0  0  0  0
    9.9407  -17.7667   24.9233 C   0  0  1  0  0  0  0  0  0  0  0  0
   11.0634  -18.1698   24.0240 C   0  0  0  0  0  0  0  0  0  0  0  0
   10.9110  -19.5296   23.5001 C   0  0  0  0  0  0  0  0  0  0  0  0
    9.9634  -20.2586   23.8659 O   0  0  0  0  0  0  0  0  0  0  0  0
   10.3602  -17.8571   26.3523 C   0  0  0  0  0  0  0  0  0  0  0  0
   10.1245  -18.9613   27.1223 O   0  0  0  0  0  0  0  0  0  0  0  0
   11.8126  -20.0677   22.5746 O   0  0  0  0  0  0  0  0  0  0  0  0
   10.9613  -16.8947   26.9160 O   0  0  0  0  0  0  0  0  0  0  0  0
  2  1  1  0
  3  2  1  0
  3  5  1  0
  3  4  1  6
  5 14  1  0
  5  6  2  0
  8  7  1  0
  8 18  2  0
  9  8  1  0
 10  9  2  0
 10 11  1  0
 11 17  2  0
 12 11  1  0
 13 12  1  1
 14 13  1  0
 15 13  1  0
 15 16  2  0
 17 18  1  0
 19 15  1  0
 20 19  1  0
 20 21  1  6
 22 21  1  0
 22 26  1  0
 23 22  2  0
 24 20  1  0
 25 24  1  0
 27 24  2  0
M  END
$$$$
