SYD.pdb
     RDKit          3D

 27 27  0  0  1  0  0  0  0  0999 V2000
    6.5977  -15.9601   17.9126 O   0  0  0  0  0  0  0  0  0  0  0  0
    7.7598  -15.3787   18.4518 C   0  0  0  0  0  0  0  0  0  0  0  0
    7.4317  -14.0758   19.1523 C   0  0  2  0  0  0  0  0  0  0  0  0
    7.7749  -12.9633   18.3171 N   0  0  0  0  0  0  0  0  0  0  0  0
    8.1160  -13.9489   20.4454 C   0  0  0  0  0  0  0  0  0  0  0  0
    9.2570  -13.4407   20.5290 O   0  0  0  0  0  0  0  0  0  0  0  0
    9.1409  -13.3429   29.2836 O   0  0  0  0  0  0  0  0  0  0  0  0
    8.6590  -13.6071   28.0056 C   0  0  0  0  0  0  0  0  0  0  0  0
    8.9677  -14.7760   27.3338 C   0  0  0  0  0  0  0  0  0  0  0  0
    8.4749  -15.0096   26.0675 C   0  0  0  0  0  0  0  0  0  0  0  0
    7.6588  -14.1117   25.4013 C   0  0  0  0  0  0  0  0  0  0  0  0
    7.1651  -14.4077   24.0408 C   0  0  0  0  0  0  0  0  0  0  0  0
    8.1688  -14.2198   22.9565 C   0  0  2  0  0  0  0  0  0  0  0  0
    7.5196  -14.3973   21.6772 N   0  0  0  0  0  0  0  0  0  0  0  0
    9.3723  -15.0564   23.1012 C   0  0  0  0  0  0  0  0  0  0  0  0
   10.4879  -14.5193   22.8649 O   0  0  0  0  0  0  0  0  0  0  0  0
    7.3587  -12.9412   26.0923 C   0  0  0  0  0  0  0  0  0  0  0  0
    7.8477  -12.7000   27.3593 C   0  0  0  0  0  0  0  0  0  0  0  0
    9.3662  -16.4042   23.4818 N   0  0  0  0  0  0  0  0  0  0  0  0
   10.6223  -17.1905   23.5249 C   0  0  1  0  0  0  0  0  0  0  0  0
   11.7056  -16.2930   23.0224 C   0  0  0  0  0  0  0  0  0  0  0  0
   13.0293  -16.9194   23.0695 C   0  0  0  0  0  0  0  0  0  0  0  0
   13.3774  -17.7560   22.2080 O   0  0  0  0  0  0  0  0  0  0  0  0
   10.8289  -17.4970   24.9705 C   0  0  0  0  0  0  0  0  0  0  0  0
   10.1845  -16.8206   25.9680 O   0  0  0  0  0  0  0  0  0  0  0  0
   13.9548  -16.6109   24.0732 O   0  0  0  0  0  0  0  0  0  0  0  0
   11.6253  -18.4130   25.3339 O   0  0  0  0  0  0  0  0  0  0  0  0
  2  1  1  0
  3  2  1  0
  3  5  1  0
  3  4  1  6
  5 14  1  0
  5  6  2  0
  8  7  1  0
  8 18  2  0
  9  8  1  0
 10  9  2  0
 10 11  1  0
 11 17  2  0
 12 11  1  0
 13 12  1  1
 14 13  1  0
 15 13  1  0
 15 16  2  0
 17 18  1  0
 19 15  1  0
 20 19  1  0
 20 21  1  1
 22 21  1  0
 22 26  1  0
 23 22  2  0
 24 20  1  0
 25 24  1  0
 27 24  2  0
M  END
$$$$
