SYD.pdb
     RDKit          3D

 27 27  0  0  1  0  0  0  0  0999 V2000
    7.8319  -16.1580   19.5677 O   0  0  0  0  0  0  0  0  0  0  0  0
    6.7721  -15.3134   19.9458 C   0  0  0  0  0  0  0  0  0  0  0  0
    7.3005  -14.0050   20.4978 C   0  0  2  0  0  0  0  0  0  0  0  0
    7.9871  -13.2755   19.4734 N   0  0  0  0  0  0  0  0  0  0  0  0
    8.1966  -14.2035   21.6442 C   0  0  0  0  0  0  0  0  0  0  0  0
    9.4407  -14.1704   21.5091 O   0  0  0  0  0  0  0  0  0  0  0  0
   10.7367  -15.1184   30.1933 O   0  0  0  0  0  0  0  0  0  0  0  0
   10.0330  -14.9099   29.0115 C   0  0  0  0  0  0  0  0  0  0  0  0
   10.1096  -13.7180   28.3142 C   0  0  0  0  0  0  0  0  0  0  0  0
    9.4002  -13.5409   27.1454 C   0  0  0  0  0  0  0  0  0  0  0  0
    8.5844  -14.5205   26.6058 C   0  0  0  0  0  0  0  0  0  0  0  0
    7.8388  -14.2754   25.3543 C   0  0  0  0  0  0  0  0  0  0  0  0
    8.5822  -14.6093   24.1076 C   0  0  2  0  0  0  0  0  0  0  0  0
    7.7000  -14.4449   22.9744 N   0  0  0  0  0  0  0  0  0  0  0  0
    9.2318  -15.9309   24.1320 C   0  0  0  0  0  0  0  0  0  0  0  0
    8.5246  -16.9338   23.8438 O   0  0  0  0  0  0  0  0  0  0  0  0
    8.5194  -15.7131   27.3207 C   0  0  0  0  0  0  0  0  0  0  0  0
    9.2260  -15.8981   28.4908 C   0  0  0  0  0  0  0  0  0  0  0  0
   10.5770  -16.1532   24.4522 N   0  0  0  0  0  0  0  0  0  0  0  0
   11.1541  -17.5183   24.4175 C   0  0  1  0  0  0  0  0  0  0  0  0
   12.5444  -17.3811   23.8886 C   0  0  0  0  0  0  0  0  0  0  0  0
   12.5787  -17.0196   22.4691 C   0  0  0  0  0  0  0  0  0  0  0  0
   11.9495  -17.6865   21.6189 O   0  0  0  0  0  0  0  0  0  0  0  0
   11.1805  -17.9558   25.8438 C   0  0  0  0  0  0  0  0  0  0  0  0
   11.6104  -19.1949   26.2280 O   0  0  0  0  0  0  0  0  0  0  0  0
   13.3114  -15.9205   22.0064 O   0  0  0  0  0  0  0  0  0  0  0  0
   10.7972  -17.1800   26.7694 O   0  0  0  0  0  0  0  0  0  0  0  0
  2  1  1  0
  3  2  1  0
  3  5  1  0
  3  4  1  6
  5 14  1  0
  5  6  2  0
  8  7  1  0
  8 18  2  0
  9  8  1  0
 10  9  2  0
 10 11  1  0
 11 17  2  0
 12 11  1  0
 13 12  1  1
 14 13  1  0
 15 13  1  0
 15 16  2  0
 17 18  1  0
 19 15  1  0
 20 19  1  0
 20 21  1  1
 22 21  1  0
 22 26  1  0
 23 22  2  0
 24 20  1  0
 25 24  1  0
 27 24  2  0
M  END
$$$$
