SYD.pdb
     RDKit          3D

 27 27  0  0  1  0  0  0  0  0999 V2000
    8.7486  -18.1706   20.2584 O   0  0  0  0  0  0  0  0  0  0  0  0
    7.9150  -17.0377   20.2235 C   0  0  0  0  0  0  0  0  0  0  0  0
    8.7291  -15.7685   20.3727 C   0  0  2  0  0  0  0  0  0  0  0  0
    9.6752  -15.6573   19.3024 N   0  0  0  0  0  0  0  0  0  0  0  0
    9.4334  -15.7046   21.6597 C   0  0  0  0  0  0  0  0  0  0  0  0
   10.6668  -15.9052   21.7356 O   0  0  0  0  0  0  0  0  0  0  0  0
   10.5283  -14.8371   30.5296 O   0  0  0  0  0  0  0  0  0  0  0  0
   10.0605  -14.7974   29.2200 C   0  0  0  0  0  0  0  0  0  0  0  0
   10.2981  -13.7168   28.3900 C   0  0  0  0  0  0  0  0  0  0  0  0
    9.8214  -13.7064   27.0965 C   0  0  0  0  0  0  0  0  0  0  0  0
    9.0914  -14.7510   26.5562 C   0  0  0  0  0  0  0  0  0  0  0  0
    8.5962  -14.6848   25.1660 C   0  0  0  0  0  0  0  0  0  0  0  0
    9.4353  -15.4050   24.1681 C   0  0  2  0  0  0  0  0  0  0  0  0
    8.7523  -15.4106   22.8941 N   0  0  0  0  0  0  0  0  0  0  0  0
    9.8501  -16.7526   24.5938 C   0  0  0  0  0  0  0  0  0  0  0  0
    8.9895  -17.6721   24.5395 O   0  0  0  0  0  0  0  0  0  0  0  0
    8.8618  -15.8297   27.4055 C   0  0  0  0  0  0  0  0  0  0  0  0
    9.3354  -15.8479   28.7009 C   0  0  0  0  0  0  0  0  0  0  0  0
   11.1303  -17.0854   25.0541 N   0  0  0  0  0  0  0  0  0  0  0  0
   11.4800  -18.4863   25.3901 C   0  0  1  0  0  0  0  0  0  0  0  0
   12.8610  -18.7184   24.8699 C   0  0  0  0  0  0  0  0  0  0  0  0
   12.8764  -19.1296   23.4636 C   0  0  0  0  0  0  0  0  0  0  0  0
   11.8119  -19.2903   22.8276 O   0  0  0  0  0  0  0  0  0  0  0  0
   11.4707  -18.5328   26.8814 C   0  0  0  0  0  0  0  0  0  0  0  0
   11.2418  -19.6833   27.5826 O   0  0  0  0  0  0  0  0  0  0  0  0
   14.0739  -19.3585   22.7762 O   0  0  0  0  0  0  0  0  0  0  0  0
   11.6780  -17.4871   27.5661 O   0  0  0  0  0  0  0  0  0  0  0  0
  2  1  1  0
  3  2  1  0
  3  5  1  0
  3  4  1  6
  5 14  1  0
  5  6  2  0
  8  7  1  0
  8 18  2  0
  9  8  1  0
 10  9  2  0
 10 11  1  0
 11 17  2  0
 12 11  1  0
 13 12  1  1
 14 13  1  0
 15 13  1  0
 15 16  2  0
 17 18  1  0
 19 15  1  0
 20 19  1  0
 20 21  1  1
 22 21  1  0
 22 26  1  0
 23 22  2  0
 24 20  1  0
 25 24  1  0
 27 24  2  0
M  END
$$$$
