SYD.pdb
     RDKit          3D

 27 27  0  0  1  0  0  0  0  0999 V2000
    9.7648  -19.0701   20.5416 O   0  0  0  0  0  0  0  0  0  0  0  0
    8.9075  -18.3050   19.7298 C   0  0  0  0  0  0  0  0  0  0  0  0
    9.3953  -16.8736   19.6350 C   0  0  2  0  0  0  0  0  0  0  0  0
   10.6852  -16.8293   19.0128 N   0  0  0  0  0  0  0  0  0  0  0  0
    9.4599  -16.2173   20.9471 C   0  0  0  0  0  0  0  0  0  0  0  0
   10.5520  -16.0471   21.5348 O   0  0  0  0  0  0  0  0  0  0  0  0
    6.7989  -11.5204   28.0878 O   0  0  0  0  0  0  0  0  0  0  0  0
    6.8597  -12.2138   26.8832 C   0  0  0  0  0  0  0  0  0  0  0  0
    6.2689  -13.4538   26.7215 C   0  0  0  0  0  0  0  0  0  0  0  0
    6.3462  -14.1169   25.5153 C   0  0  0  0  0  0  0  0  0  0  0  0
    7.0040  -13.5980   24.4134 C   0  0  0  0  0  0  0  0  0  0  0  0
    7.0644  -14.3548   23.1461 C   0  0  0  0  0  0  0  0  0  0  0  0
    8.3503  -15.0658   22.9027 C   0  0  2  0  0  0  0  0  0  0  0  0
    8.2830  -15.7376   21.6246 N   0  0  0  0  0  0  0  0  0  0  0  0
    8.7536  -15.9674   23.9954 C   0  0  0  0  0  0  0  0  0  0  0  0
    8.1270  -17.0546   24.1157 O   0  0  0  0  0  0  0  0  0  0  0  0
    7.5924  -12.3495   24.5942 C   0  0  0  0  0  0  0  0  0  0  0  0
    7.5196  -11.6797   25.7978 C   0  0  0  0  0  0  0  0  0  0  0  0
    9.7817  -15.7038   24.9091 N   0  0  0  0  0  0  0  0  0  0  0  0
   10.1801  -16.7115   25.9209 C   0  0  1  0  0  0  0  0  0  0  0  0
   11.6733  -16.7565   25.9141 C   0  0  0  0  0  0  0  0  0  0  0  0
   12.2119  -17.5684   24.8199 C   0  0  0  0  0  0  0  0  0  0  0  0
   11.4538  -18.1121   23.9874 O   0  0  0  0  0  0  0  0  0  0  0  0
    9.6816  -16.1659   27.2170 C   0  0  0  0  0  0  0  0  0  0  0  0
    9.7064  -16.8849   28.3791 O   0  0  0  0  0  0  0  0  0  0  0  0
   13.5878  -17.7693   24.6599 O   0  0  0  0  0  0  0  0  0  0  0  0
    9.2068  -14.9934   27.2897 O   0  0  0  0  0  0  0  0  0  0  0  0
  2  1  1  0
  3  2  1  0
  3  5  1  0
  3  4  1  1
  5 14  1  0
  5  6  2  0
  8  7  1  0
  8 18  2  0
  9  8  1  0
 10  9  2  0
 10 11  1  0
 11 17  2  0
 12 11  1  0
 13 12  1  1
 14 13  1  0
 15 13  1  0
 15 16  2  0
 17 18  1  0
 19 15  1  0
 20 19  1  0
 20 21  1  1
 22 21  1  0
 22 26  1  0
 23 22  2  0
 24 20  1  0
 25 24  1  0
 27 24  2  0
M  END
$$$$
