SYD.pdb
     RDKit          3D

 27 27  0  0  1  0  0  0  0  0999 V2000
    6.4482  -15.4647   18.0573 O   0  0  0  0  0  0  0  0  0  0  0  0
    7.5630  -15.2359   18.8845 C   0  0  0  0  0  0  0  0  0  0  0  0
    7.3975  -13.9461   19.6622 C   0  0  2  0  0  0  0  0  0  0  0  0
    7.8394  -12.8326   18.8762 N   0  0  0  0  0  0  0  0  0  0  0  0
    8.1241  -13.9660   20.9382 C   0  0  0  0  0  0  0  0  0  0  0  0
    9.3728  -13.8847   20.9756 O   0  0  0  0  0  0  0  0  0  0  0  0
    9.5452  -14.7809   29.7427 O   0  0  0  0  0  0  0  0  0  0  0  0
    8.9859  -14.5774   28.4852 C   0  0  0  0  0  0  0  0  0  0  0  0
    8.2498  -15.5571   27.8439 C   0  0  0  0  0  0  0  0  0  0  0  0
    7.7078  -15.3258   26.5976 C   0  0  0  0  0  0  0  0  0  0  0  0
    7.8607  -14.1271   25.9223 C   0  0  0  0  0  0  0  0  0  0  0  0
    7.2660  -13.9348   24.5838 C   0  0  0  0  0  0  0  0  0  0  0  0
    8.1650  -14.2728   23.4454 C   0  0  2  0  0  0  0  0  0  0  0  0
    7.4484  -14.0788   22.2051 N   0  0  0  0  0  0  0  0  0  0  0  0
    8.7786  -15.6083   23.5414 C   0  0  0  0  0  0  0  0  0  0  0  0
    8.3009  -16.5231   22.8176 O   0  0  0  0  0  0  0  0  0  0  0  0
    8.6041  -13.1529   26.5825 C   0  0  0  0  0  0  0  0  0  0  0  0
    9.1497  -13.3765   27.8295 C   0  0  0  0  0  0  0  0  0  0  0  0
    9.8532  -15.9345   24.3783 N   0  0  0  0  0  0  0  0  0  0  0  0
   10.7358  -17.0860   24.0731 C   0  0  1  0  0  0  0  0  0  0  0  0
   11.5565  -16.6929   22.8883 C   0  0  0  0  0  0  0  0  0  0  0  0
   12.4954  -17.7393   22.4756 C   0  0  0  0  0  0  0  0  0  0  0  0
   13.7041  -17.6809   22.7899 O   0  0  0  0  0  0  0  0  0  0  0  0
   11.6005  -17.2320   25.2801 C   0  0  0  0  0  0  0  0  0  0  0  0
   12.0674  -18.4418   25.7118 O   0  0  0  0  0  0  0  0  0  0  0  0
   12.0833  -18.8414   21.7176 O   0  0  0  0  0  0  0  0  0  0  0  0
   11.9401  -16.2204   25.9634 O   0  0  0  0  0  0  0  0  0  0  0  0
  2  1  1  0
  3  2  1  0
  3  5  1  0
  3  4  1  6
  5 14  1  0
  5  6  2  0
  8  7  1  0
  8 18  2  0
  9  8  1  0
 10  9  2  0
 10 11  1  0
 11 17  2  0
 12 11  1  0
 13 12  1  1
 14 13  1  0
 15 13  1  0
 15 16  2  0
 17 18  1  0
 19 15  1  0
 20 19  1  0
 20 21  1  6
 22 21  1  0
 22 26  1  0
 23 22  2  0
 24 20  1  0
 25 24  1  0
 27 24  2  0
M  END
$$$$
