SYD.pdb
     RDKit          3D

 27 27  0  0  1  0  0  0  0  0999 V2000
    8.5882  -18.9016   20.7465 O   0  0  0  0  0  0  0  0  0  0  0  0
    9.6525  -18.5139   19.9120 C   0  0  0  0  0  0  0  0  0  0  0  0
    9.7002  -17.0061   19.7701 C   0  0  2  0  0  0  0  0  0  0  0  0
   10.8426  -16.6163   18.9980 N   0  0  0  0  0  0  0  0  0  0  0  0
    9.7294  -16.3232   21.0698 C   0  0  0  0  0  0  0  0  0  0  0  0
   10.7726  -16.2870   21.7609 O   0  0  0  0  0  0  0  0  0  0  0  0
    6.5952  -12.0780   28.3186 O   0  0  0  0  0  0  0  0  0  0  0  0
    6.7874  -12.5917   27.0400 C   0  0  0  0  0  0  0  0  0  0  0  0
    6.0666  -13.6744   26.5699 C   0  0  0  0  0  0  0  0  0  0  0  0
    6.2795  -14.1611   25.2977 C   0  0  0  0  0  0  0  0  0  0  0  0
    7.2060  -13.6117   24.4282 C   0  0  0  0  0  0  0  0  0  0  0  0
    7.4008  -14.1781   23.0778 C   0  0  0  0  0  0  0  0  0  0  0  0
    8.5651  -15.0978   22.9472 C   0  0  2  0  0  0  0  0  0  0  0  0
    8.5720  -15.6637   21.6171 N   0  0  0  0  0  0  0  0  0  0  0  0
    8.6391  -16.1254   23.9997 C   0  0  0  0  0  0  0  0  0  0  0  0
    7.7689  -17.0373   23.9867 O   0  0  0  0  0  0  0  0  0  0  0  0
    7.9220  -12.5231   24.9180 C   0  0  0  0  0  0  0  0  0  0  0  0
    7.7150  -12.0302   26.1895 C   0  0  0  0  0  0  0  0  0  0  0  0
    9.6055  -16.1620   25.0128 N   0  0  0  0  0  0  0  0  0  0  0  0
    9.5890  -17.2262   26.0449 C   0  0  1  0  0  0  0  0  0  0  0  0
   10.4826  -18.3159   25.5492 C   0  0  0  0  0  0  0  0  0  0  0  0
   11.8132  -17.8317   25.1726 C   0  0  0  0  0  0  0  0  0  0  0  0
   12.1358  -16.6358   25.3428 O   0  0  0  0  0  0  0  0  0  0  0  0
   10.1729  -16.5861   27.2596 C   0  0  0  0  0  0  0  0  0  0  0  0
   10.4887  -15.2575   27.3144 O   0  0  0  0  0  0  0  0  0  0  0  0
   12.7739  -18.6803   24.6104 O   0  0  0  0  0  0  0  0  0  0  0  0
   10.4026  -17.2637   28.3053 O   0  0  0  0  0  0  0  0  0  0  0  0
  2  1  1  0
  3  2  1  0
  3  5  1  0
  3  4  1  6
  5 14  1  0
  5  6  2  0
  8  7  1  0
  8 18  2  0
  9  8  1  0
 10  9  2  0
 10 11  1  0
 11 17  2  0
 12 11  1  0
 13 12  1  1
 14 13  1  0
 15 13  1  0
 15 16  2  0
 17 18  1  0
 19 15  1  0
 20 19  1  0
 20 21  1  6
 22 21  1  0
 22 26  1  0
 23 22  2  0
 24 20  1  0
 25 24  1  0
 27 24  2  0
M  END
$$$$
