SYD.pdb
     RDKit          3D

 27 27  0  0  1  0  0  0  0  0999 V2000
    7.1439  -16.2723   19.1699 O   0  0  0  0  0  0  0  0  0  0  0  0
    7.4405  -15.0764   18.4906 C   0  0  0  0  0  0  0  0  0  0  0  0
    7.0948  -13.8744   19.3459 C   0  0  2  0  0  0  0  0  0  0  0  0
    7.4231  -12.6629   18.6549 N   0  0  0  0  0  0  0  0  0  0  0  0
    7.7772  -13.8990   20.6460 C   0  0  0  0  0  0  0  0  0  0  0  0
    8.9793  -13.5668   20.7546 O   0  0  0  0  0  0  0  0  0  0  0  0
    8.8946  -14.1274   29.5058 O   0  0  0  0  0  0  0  0  0  0  0  0
    8.3792  -14.0964   28.2139 C   0  0  0  0  0  0  0  0  0  0  0  0
    7.7085  -15.1752   27.6671 C   0  0  0  0  0  0  0  0  0  0  0  0
    7.2088  -15.1146   26.3836 C   0  0  0  0  0  0  0  0  0  0  0  0
    7.3423  -13.9974   25.5772 C   0  0  0  0  0  0  0  0  0  0  0  0
    6.7953  -13.9885   24.2050 C   0  0  0  0  0  0  0  0  0  0  0  0
    7.7797  -14.3188   23.1370 C   0  0  2  0  0  0  0  0  0  0  0  0
    7.1093  -14.3022   21.8565 N   0  0  0  0  0  0  0  0  0  0  0  0
    8.5219  -15.5693   23.3711 C   0  0  0  0  0  0  0  0  0  0  0  0
    7.9280  -16.6543   23.1279 O   0  0  0  0  0  0  0  0  0  0  0  0
    8.0199  -12.9215   26.1438 C   0  0  0  0  0  0  0  0  0  0  0  0
    8.5227  -12.9742   27.4271 C   0  0  0  0  0  0  0  0  0  0  0  0
    9.8383  -15.6394   23.8439 N   0  0  0  0  0  0  0  0  0  0  0  0
   10.4767  -16.9459   24.1329 C   0  0  1  0  0  0  0  0  0  0  0  0
   11.9246  -16.7975   23.7965 C   0  0  0  0  0  0  0  0  0  0  0  0
   12.1729  -16.7780   22.3527 C   0  0  0  0  0  0  0  0  0  0  0  0
   11.3678  -17.3031   21.5532 O   0  0  0  0  0  0  0  0  0  0  0  0
   10.3004  -17.1379   25.6020 C   0  0  0  0  0  0  0  0  0  0  0  0
    9.9978  -16.1096   26.4498 O   0  0  0  0  0  0  0  0  0  0  0  0
   13.3134  -16.1752   21.8096 O   0  0  0  0  0  0  0  0  0  0  0  0
   10.4280  -18.2834   26.1283 O   0  0  0  0  0  0  0  0  0  0  0  0
  2  1  1  0
  3  2  1  0
  3  5  1  0
  3  4  1  6
  5 14  1  0
  5  6  2  0
  8  7  1  0
  8 18  2  0
  9  8  1  0
 10  9  2  0
 10 11  1  0
 11 17  2  0
 12 11  1  0
 13 12  1  1
 14 13  1  0
 15 13  1  0
 15 16  2  0
 17 18  1  0
 19 15  1  0
 20 19  1  0
 20 21  1  1
 22 21  1  0
 22 26  1  0
 23 22  2  0
 24 20  1  0
 25 24  1  0
 27 24  2  0
M  END
$$$$
