SYD.pdb
     RDKit          3D

 27 27  0  0  1  0  0  0  0  0999 V2000
    9.1054  -19.0948   20.5424 O   0  0  0  0  0  0  0  0  0  0  0  0
    9.7944  -18.4772   19.4824 C   0  0  0  0  0  0  0  0  0  0  0  0
    9.3531  -17.0364   19.3238 C   0  0  2  0  0  0  0  0  0  0  0  0
   10.1360  -16.3859   18.3154 N   0  0  0  0  0  0  0  0  0  0  0  0
    9.4458  -16.2822   20.5804 C   0  0  0  0  0  0  0  0  0  0  0  0
   10.5475  -15.8747   21.0133 O   0  0  0  0  0  0  0  0  0  0  0  0
    6.8514  -12.0822   28.0557 O   0  0  0  0  0  0  0  0  0  0  0  0
    6.9090  -12.7169   26.8190 C   0  0  0  0  0  0  0  0  0  0  0  0
    7.4422  -12.0986   25.7027 C   0  0  0  0  0  0  0  0  0  0  0  0
    7.4854  -12.7534   24.4903 C   0  0  0  0  0  0  0  0  0  0  0  0
    7.0096  -14.0414   24.3145 C   0  0  0  0  0  0  0  0  0  0  0  0
    7.0720  -14.6940   22.9906 C   0  0  0  0  0  0  0  0  0  0  0  0
    8.3878  -15.3071   22.6568 C   0  0  2  0  0  0  0  0  0  0  0  0
    8.2869  -15.9721   21.3773 N   0  0  0  0  0  0  0  0  0  0  0  0
    8.9251  -16.1852   23.7102 C   0  0  0  0  0  0  0  0  0  0  0  0
    8.4194  -17.3340   23.8260 O   0  0  0  0  0  0  0  0  0  0  0  0
    6.4766  -14.6480   25.4483 C   0  0  0  0  0  0  0  0  0  0  0  0
    6.4297  -13.9997   26.6649 C   0  0  0  0  0  0  0  0  0  0  0  0
    9.9561  -15.8358   24.5914 N   0  0  0  0  0  0  0  0  0  0  0  0
   10.4457  -16.7941   25.6111 C   0  0  1  0  0  0  0  0  0  0  0  0
   11.9326  -16.6552   25.6487 C   0  0  0  0  0  0  0  0  0  0  0  0
   12.5819  -17.1730   24.4417 C   0  0  0  0  0  0  0  0  0  0  0  0
   12.0228  -18.0341   23.7281 O   0  0  0  0  0  0  0  0  0  0  0  0
    9.8461  -16.3230   26.8936 C   0  0  0  0  0  0  0  0  0  0  0  0
    9.9510  -17.0274   28.0601 O   0  0  0  0  0  0  0  0  0  0  0  0
   13.8466  -16.7298   24.0378 O   0  0  0  0  0  0  0  0  0  0  0  0
    9.2046  -15.2319   26.9498 O   0  0  0  0  0  0  0  0  0  0  0  0
  2  1  1  0
  3  2  1  0
  3  5  1  0
  3  4  1  6
  5 14  1  0
  5  6  2  0
  8  7  1  0
  8 18  2  0
  9  8  1  0
 10  9  2  0
 10 11  1  0
 11 17  2  0
 12 11  1  0
 13 12  1  1
 14 13  1  0
 15 13  1  0
 15 16  2  0
 17 18  1  0
 19 15  1  0
 20 19  1  0
 20 21  1  1
 22 21  1  0
 22 26  1  0
 23 22  2  0
 24 20  1  0
 25 24  1  0
 27 24  2  0
M  END
$$$$
