SYD.pdb
     RDKit          3D

 27 27  0  0  1  0  0  0  0  0999 V2000
    8.9621  -19.2579   20.5077 O   0  0  0  0  0  0  0  0  0  0  0  0
    9.8763  -18.6968   19.5973 C   0  0  0  0  0  0  0  0  0  0  0  0
    9.6355  -17.2086   19.4446 C   0  0  2  0  0  0  0  0  0  0  0  0
   10.5937  -16.6409   18.5432 N   0  0  0  0  0  0  0  0  0  0  0  0
    9.6890  -16.4993   20.7293 C   0  0  0  0  0  0  0  0  0  0  0  0
   10.7823  -16.2068   21.2644 O   0  0  0  0  0  0  0  0  0  0  0  0
    6.9911  -11.6145   27.7122 O   0  0  0  0  0  0  0  0  0  0  0  0
    7.0631  -12.3595   26.5395 C   0  0  0  0  0  0  0  0  0  0  0  0
    7.7155  -11.8914   25.4134 C   0  0  0  0  0  0  0  0  0  0  0  0
    7.7699  -12.6529   24.2655 C   0  0  0  0  0  0  0  0  0  0  0  0
    7.1895  -13.9057   24.1666 C   0  0  0  0  0  0  0  0  0  0  0  0
    7.2698  -14.6766   22.9090 C   0  0  0  0  0  0  0  0  0  0  0  0
    8.5531  -15.4038   22.7020 C   0  0  2  0  0  0  0  0  0  0  0  0
    8.4994  -16.1044   21.4387 N   0  0  0  0  0  0  0  0  0  0  0  0
    8.9317  -16.2833   23.8211 C   0  0  0  0  0  0  0  0  0  0  0  0
    8.3373  -17.3905   23.9198 O   0  0  0  0  0  0  0  0  0  0  0  0
    6.5374  -14.3607   25.3092 C   0  0  0  0  0  0  0  0  0  0  0  0
    6.4784  -13.6049   26.4615 C   0  0  0  0  0  0  0  0  0  0  0  0
    9.9034  -15.9781   24.7824 N   0  0  0  0  0  0  0  0  0  0  0  0
   10.2700  -16.9566   25.8342 C   0  0  1  0  0  0  0  0  0  0  0  0
   11.7586  -17.0783   25.8043 C   0  0  0  0  0  0  0  0  0  0  0  0
   12.2343  -17.9689   24.7425 C   0  0  0  0  0  0  0  0  0  0  0  0
   11.4471  -18.7308   24.1398 O   0  0  0  0  0  0  0  0  0  0  0  0
    9.8246  -16.3262   27.1111 C   0  0  0  0  0  0  0  0  0  0  0  0
    9.8458  -16.9871   28.3072 O   0  0  0  0  0  0  0  0  0  0  0  0
   13.5800  -18.0054   24.3596 O   0  0  0  0  0  0  0  0  0  0  0  0
    9.4015  -15.1322   27.1342 O   0  0  0  0  0  0  0  0  0  0  0  0
  2  1  1  0
  3  2  1  0
  3  5  1  0
  3  4  1  6
  5 14  1  0
  5  6  2  0
  8  7  1  0
  8 18  2  0
  9  8  1  0
 10  9  2  0
 10 11  1  0
 11 17  2  0
 12 11  1  0
 13 12  1  1
 14 13  1  0
 15 13  1  0
 15 16  2  0
 17 18  1  0
 19 15  1  0
 20 19  1  0
 20 21  1  1
 22 21  1  0
 22 26  1  0
 23 22  2  0
 24 20  1  0
 25 24  1  0
 27 24  2  0
M  END
$$$$
