YSK.pdb
     RDKit          3D

 28 28  0  0  1  0  0  0  0  0999 V2000
   11.5324  -25.7550   13.3596 O   0  0  0  0  0  0  0  0  0  0  0  0
   12.1229  -25.0168   14.3746 C   0  0  0  0  0  0  0  0  0  0  0  0
   11.4049  -24.8675   15.5519 C   0  0  0  0  0  0  0  0  0  0  0  0
   11.9844  -24.1343   16.5682 C   0  0  0  0  0  0  0  0  0  0  0  0
   13.2220  -23.5775   16.4144 C   0  0  0  0  0  0  0  0  0  0  0  0
   13.8443  -22.7883   17.5096 C   0  0  0  0  0  0  0  0  0  0  0  0
   13.1915  -21.4236   17.4942 C   0  0  2  0  0  0  0  0  0  0  0  0
   13.5403  -20.6805   16.3125 N   0  0  0  0  0  0  0  0  0  0  0  0
   13.4927  -20.6632   18.7371 C   0  0  0  0  0  0  0  0  0  0  0  0
   14.5619  -19.9789   18.8337 O   0  0  0  0  0  0  0  0  0  0  0  0
   13.9184  -23.7433   15.2240 C   0  0  0  0  0  0  0  0  0  0  0  0
   13.3554  -24.4662   14.2123 C   0  0  0  0  0  0  0  0  0  0  0  0
   10.5529  -20.2087   21.5600 O   0  0  0  0  0  0  0  0  0  0  0  0
   11.5270  -19.2259   21.4883 C   0  0  0  0  0  0  0  0  0  0  0  0
   12.8259  -19.8736   21.0587 C   0  0  2  0  0  0  0  0  0  0  0  0
   12.6207  -20.6656   19.8483 N   0  0  0  0  0  0  0  0  0  0  0  0
   13.3642  -20.7665   22.0848 C   0  0  0  0  0  0  0  0  0  0  0  0
   12.9820  -21.9808   22.1850 O   0  0  0  0  0  0  0  0  0  0  0  0
   14.3374  -20.3071   23.0079 N   0  0  0  0  0  0  0  0  0  0  0  0
   14.8149  -21.1572   24.1130 C   0  0  1  0  0  0  0  0  0  0  0  0
   16.2853  -20.8904   24.3311 C   0  0  0  0  0  0  0  0  0  0  0  0
   17.1772  -21.5210   23.3267 C   0  0  0  0  0  0  0  0  0  0  0  0
   18.6322  -21.2150   23.5058 C   0  0  0  0  0  0  0  0  0  0  0  0
   19.5153  -21.8592   22.4907 C   0  0  0  0  0  0  0  0  0  0  0  0
   20.9209  -21.5953   22.7075 N   0  0  0  0  0  0  0  0  0  0  0  0
   13.9734  -20.8780   25.2757 C   0  0  0  0  0  0  0  0  0  0  0  0
   13.3707  -19.7931   25.3836 O   0  0  0  0  0  0  0  0  0  0  0  0
   13.8298  -21.8198   26.2838 O   0  0  0  0  0  0  0  0  0  0  0  0
  2 12  2  0
  2  1  1  0
  3  2  1  0
  4  5  1  0
  4  3  2  0
  5 11  2  0
  6  5  1  0
  7  9  1  0
  7  6  1  0
  7  8  1  6
  9 16  1  0
  9 10  2  0
 11 12  1  0
 13 14  1  0
 15 14  1  1
 15 17  1  0
 16 15  1  0
 17 18  2  0
 19 17  1  0
 19 20  1  0
 20 26  1  0
 20 21  1  1
 22 21  1  0
 23 22  1  0
 24 23  1  0
 25 24  1  0
 26 28  1  0
 27 26  2  0
M  END
$$$$
