YSK.pdb
     RDKit          3D

 28 28  0  0  1  0  0  0  0  0999 V2000
    4.7972  -10.2609   26.8554 O   0  0  0  0  0  0  0  0  0  0  0  0
    5.6051  -11.3314   26.5018 C   0  0  0  0  0  0  0  0  0  0  0  0
    5.3934  -12.5325   27.1626 C   0  0  0  0  0  0  0  0  0  0  0  0
    6.1927  -13.6041   26.8177 C   0  0  0  0  0  0  0  0  0  0  0  0
    7.1569  -13.4804   25.8584 C   0  0  0  0  0  0  0  0  0  0  0  0
    8.0166  -14.6352   25.4883 C   0  0  0  0  0  0  0  0  0  0  0  0
    7.2099  -15.4993   24.5442 C   0  0  2  0  0  0  0  0  0  0  0  0
    6.1888  -16.2369   25.2396 N   0  0  0  0  0  0  0  0  0  0  0  0
    8.0880  -16.3910   23.7394 C   0  0  0  0  0  0  0  0  0  0  0  0
    8.4082  -17.5450   24.1715 O   0  0  0  0  0  0  0  0  0  0  0  0
    7.3468  -12.2652   25.2129 C   0  0  0  0  0  0  0  0  0  0  0  0
    6.5625  -11.1988   25.5456 C   0  0  0  0  0  0  0  0  0  0  0  0
   10.2210  -14.6975   20.5985 O   0  0  0  0  0  0  0  0  0  0  0  0
    9.9435  -16.0463   20.4440 C   0  0  0  0  0  0  0  0  0  0  0  0
    9.7289  -16.6483   21.8161 C   0  0  2  0  0  0  0  0  0  0  0  0
    8.5979  -16.0045   22.4802 N   0  0  0  0  0  0  0  0  0  0  0  0
   10.8985  -16.4869   22.6797 C   0  0  0  0  0  0  0  0  0  0  0  0
   11.1272  -15.3955   23.3022 O   0  0  0  0  0  0  0  0  0  0  0  0
   11.8225  -17.5477   22.8552 N   0  0  0  0  0  0  0  0  0  0  0  0
   12.8037  -17.5428   23.9547 C   0  0  1  0  0  0  0  0  0  0  0  0
   12.5662  -18.7550   24.8237 C   0  0  0  0  0  0  0  0  0  0  0  0
   13.5907  -18.9632   25.8768 C   0  0  0  0  0  0  0  0  0  0  0  0
   13.3616  -20.1652   26.7402 C   0  0  0  0  0  0  0  0  0  0  0  0
   14.3706  -20.3311   27.8263 C   0  0  0  0  0  0  0  0  0  0  0  0
   14.0103  -21.3485   28.7894 N   0  0  0  0  0  0  0  0  0  0  0  0
   14.1353  -17.4846   23.3534 C   0  0  0  0  0  0  0  0  0  0  0  0
   15.0801  -16.9277   23.9439 O   0  0  0  0  0  0  0  0  0  0  0  0
   14.3719  -18.0510   22.1095 O   0  0  0  0  0  0  0  0  0  0  0  0
  2 12  2  0
  2  1  1  0
  3  2  1  0
  4  5  1  0
  4  3  2  0
  5 11  2  0
  6  5  1  0
  7  9  1  0
  7  6  1  0
  7  8  1  1
  9 16  1  0
  9 10  2  0
 11 12  1  0
 13 14  1  0
 15 14  1  6
 15 17  1  0
 16 15  1  0
 17 18  2  0
 19 17  1  0
 19 20  1  0
 20 26  1  0
 20 21  1  6
 22 21  1  0
 23 22  1  0
 24 23  1  0
 25 24  1  0
 26 28  1  0
 27 26  2  0
M  END
$$$$
