YSK.pdb
     RDKit          3D

 28 28  0  0  1  0  0  0  0  0999 V2000
   21.1121  -27.5972   23.4511 O   0  0  0  0  0  0  0  0  0  0  0  0
   20.6128  -26.8819   24.5294 C   0  0  0  0  0  0  0  0  0  0  0  0
   21.5343  -26.3322   25.4085 C   0  0  0  0  0  0  0  0  0  0  0  0
   21.0469  -25.6184   26.4851 C   0  0  0  0  0  0  0  0  0  0  0  0
   19.7033  -25.4619   26.6733 C   0  0  0  0  0  0  0  0  0  0  0  0
   19.1804  -24.6930   27.8331 C   0  0  0  0  0  0  0  0  0  0  0  0
   18.8130  -23.3181   27.3197 C   0  0  2  0  0  0  0  0  0  0  0  0
   19.9391  -22.6578   26.7147 N   0  0  0  0  0  0  0  0  0  0  0  0
   18.1903  -22.4883   28.3863 C   0  0  0  0  0  0  0  0  0  0  0  0
   18.9156  -21.8388   29.2066 O   0  0  0  0  0  0  0  0  0  0  0  0
   18.8033  -26.0235   25.7767 C   0  0  0  0  0  0  0  0  0  0  0  0
   19.2735  -26.7314   24.7086 C   0  0  0  0  0  0  0  0  0  0  0  0
   14.1059  -22.0938   28.4493 O   0  0  0  0  0  0  0  0  0  0  0  0
   14.8135  -21.0140   28.9529 C   0  0  0  0  0  0  0  0  0  0  0  0
   16.1256  -21.5230   29.5102 C   0  0  2  0  0  0  0  0  0  0  0  0
   16.7895  -22.3850   28.5350 N   0  0  0  0  0  0  0  0  0  0  0  0
   15.9412  -22.3017   30.7347 C   0  0  0  0  0  0  0  0  0  0  0  0
   15.9298  -23.5786   30.7224 O   0  0  0  0  0  0  0  0  0  0  0  0
   15.7691  -21.6566   31.9854 N   0  0  0  0  0  0  0  0  0  0  0  0
   15.6190  -22.4231   33.2351 C   0  0  1  0  0  0  0  0  0  0  0  0
   16.3833  -21.7198   34.3316 C   0  0  0  0  0  0  0  0  0  0  0  0
   17.8469  -21.6375   34.1014 C   0  0  0  0  0  0  0  0  0  0  0  0
   18.5909  -20.8156   35.1083 C   0  0  0  0  0  0  0  0  0  0  0  0
   20.0287  -20.6033   34.7725 C   0  0  0  0  0  0  0  0  0  0  0  0
   20.7458  -19.8542   35.7810 N   0  0  0  0  0  0  0  0  0  0  0  0
   14.1868  -22.5630   33.4939 C   0  0  0  0  0  0  0  0  0  0  0  0
   13.3496  -21.9426   32.8113 O   0  0  0  0  0  0  0  0  0  0  0  0
   13.7319  -23.3929   34.5080 O   0  0  0  0  0  0  0  0  0  0  0  0
  2 12  2  0
  2  1  1  0
  3  2  1  0
  4  5  1  0
  4  3  2  0
  5 11  2  0
  6  5  1  0
  7  9  1  0
  7  6  1  0
  7  8  1  1
  9 16  1  0
  9 10  2  0
 11 12  1  0
 13 14  1  0
 15 14  1  6
 15 17  1  0
 16 15  1  0
 17 18  2  0
 19 17  1  0
 19 20  1  0
 20 26  1  0
 20 21  1  1
 22 21  1  0
 23 22  1  0
 24 23  1  0
 25 24  1  0
 26 28  1  0
 27 26  2  0
M  END
$$$$
