YSK.pdb
     RDKit          3D

 28 28  0  0  1  0  0  0  0  0999 V2000
    5.3196  -10.4730   27.0846 O   0  0  0  0  0  0  0  0  0  0  0  0
    6.0316  -11.6111   26.7359 C   0  0  0  0  0  0  0  0  0  0  0  0
    5.6445  -12.8071   27.3224 C   0  0  0  0  0  0  0  0  0  0  0  0
    6.3471  -13.9457   26.9816 C   0  0  0  0  0  0  0  0  0  0  0  0
    7.3864  -13.8907   26.0972 C   0  0  0  0  0  0  0  0  0  0  0  0
    8.1418  -15.1176   25.7315 C   0  0  0  0  0  0  0  0  0  0  0  0
    7.4527  -15.7150   24.5244 C   0  0  2  0  0  0  0  0  0  0  0  0
    6.2059  -16.3395   24.8786 N   0  0  0  0  0  0  0  0  0  0  0  0
    8.3517  -16.6469   23.7914 C   0  0  0  0  0  0  0  0  0  0  0  0
    8.4849  -17.8533   24.1756 O   0  0  0  0  0  0  0  0  0  0  0  0
    7.7522  -12.6790   25.5252 C   0  0  0  0  0  0  0  0  0  0  0  0
    7.0648  -11.5467   25.8546 C   0  0  0  0  0  0  0  0  0  0  0  0
   11.1437  -15.1828   20.9698 O   0  0  0  0  0  0  0  0  0  0  0  0
   10.5631  -16.4157   20.7189 C   0  0  0  0  0  0  0  0  0  0  0  0
   10.1550  -17.0277   22.0418 C   0  0  2  0  0  0  0  0  0  0  0  0
    9.0861  -16.2424   22.6547 N   0  0  0  0  0  0  0  0  0  0  0  0
   11.2655  -17.0801   22.9926 C   0  0  0  0  0  0  0  0  0  0  0  0
   11.5616  -16.0832   23.7338 O   0  0  0  0  0  0  0  0  0  0  0  0
   12.0540  -18.2511   23.1229 N   0  0  0  0  0  0  0  0  0  0  0  0
   13.1067  -18.3627   24.1481 C   0  0  1  0  0  0  0  0  0  0  0  0
   12.8953  -19.6404   24.9250 C   0  0  0  0  0  0  0  0  0  0  0  0
   13.3132  -19.5683   26.3470 C   0  0  0  0  0  0  0  0  0  0  0  0
   13.1546  -20.8479   27.1088 C   0  0  0  0  0  0  0  0  0  0  0  0
   13.6072  -20.7671   28.5279 C   0  0  0  0  0  0  0  0  0  0  0  0
   13.2216  -21.9171   29.3162 N   0  0  0  0  0  0  0  0  0  0  0  0
   14.3959  -18.2808   23.4632 C   0  0  0  0  0  0  0  0  0  0  0  0
   15.3679  -17.7115   23.9949 O   0  0  0  0  0  0  0  0  0  0  0  0
   14.5611  -18.8381   22.2037 O   0  0  0  0  0  0  0  0  0  0  0  0
  2 12  2  0
  2  1  1  0
  3  2  1  0
  4  5  1  0
  4  3  2  0
  5 11  2  0
  6  5  1  0
  7  9  1  0
  7  6  1  0
  7  8  1  1
  9 16  1  0
  9 10  2  0
 11 12  1  0
 13 14  1  0
 15 14  1  6
 15 17  1  0
 16 15  1  0
 17 18  2  0
 19 17  1  0
 19 20  1  0
 20 26  1  0
 20 21  1  6
 22 21  1  0
 23 22  1  0
 24 23  1  0
 25 24  1  0
 26 28  1  0
 27 26  2  0
M  END
$$$$
