YSK.pdb
     RDKit          3D

 28 28  0  0  1  0  0  0  0  0999 V2000
   -1.7362  -20.2912   21.4613 O   0  0  0  0  0  0  0  0  0  0  0  0
   -0.4127  -20.2777   21.8759 C   0  0  0  0  0  0  0  0  0  0  0  0
    0.0641  -19.1040   22.4408 C   0  0  0  0  0  0  0  0  0  0  0  0
    1.3804  -19.0807   22.8567 C   0  0  0  0  0  0  0  0  0  0  0  0
    2.1810  -20.1780   22.7144 C   0  0  0  0  0  0  0  0  0  0  0  0
    3.5980  -20.1511   23.1627 C   0  0  0  0  0  0  0  0  0  0  0  0
    4.3334  -19.2046   22.2395 C   0  0  2  0  0  0  0  0  0  0  0  0
    4.3765  -19.7036   20.8907 N   0  0  0  0  0  0  0  0  0  0  0  0
    5.6916  -18.8865   22.7573 C   0  0  0  0  0  0  0  0  0  0  0  0
    6.7200  -19.4556   22.2681 O   0  0  0  0  0  0  0  0  0  0  0  0
    1.6766  -21.3403   22.1450 C   0  0  0  0  0  0  0  0  0  0  0  0
    0.3767  -21.3750   21.7302 C   0  0  0  0  0  0  0  0  0  0  0  0
    6.0872  -16.4130   26.0227 O   0  0  0  0  0  0  0  0  0  0  0  0
    7.1114  -16.2820   25.0986 C   0  0  0  0  0  0  0  0  0  0  0  0
    7.2113  -17.5719   24.3129 C   0  0  2  0  0  0  0  0  0  0  0  0
    5.8986  -17.9540   23.7978 N   0  0  0  0  0  0  0  0  0  0  0  0
    7.7048  -18.6802   25.1303 C   0  0  0  0  0  0  0  0  0  0  0  0
    6.9109  -19.4352   25.7864 O   0  0  0  0  0  0  0  0  0  0  0  0
    9.0930  -18.9539   25.2191 N   0  0  0  0  0  0  0  0  0  0  0  0
    9.6117  -20.0500   26.0566 C   0  0  1  0  0  0  0  0  0  0  0  0
   10.9516  -20.4853   25.5125 C   0  0  0  0  0  0  0  0  0  0  0  0
   11.6297  -21.5297   26.3195 C   0  0  0  0  0  0  0  0  0  0  0  0
   12.9270  -22.0137   25.7491 C   0  0  0  0  0  0  0  0  0  0  0  0
   13.5281  -23.1558   26.4970 C   0  0  0  0  0  0  0  0  0  0  0  0
   14.6518  -23.7577   25.8131 N   0  0  0  0  0  0  0  0  0  0  0  0
    9.6502  -19.5668   27.4360 C   0  0  0  0  0  0  0  0  0  0  0  0
    9.8129  -18.3573   27.6860 O   0  0  0  0  0  0  0  0  0  0  0  0
    9.5054  -20.4497   28.4960 O   0  0  0  0  0  0  0  0  0  0  0  0
  2 12  2  0
  2  1  1  0
  3  2  1  0
  4  5  1  0
  4  3  2  0
  5 11  2  0
  6  5  1  0
  7  9  1  0
  7  6  1  0
  7  8  1  6
  9 16  1  0
  9 10  2  0
 11 12  1  0
 13 14  1  0
 15 14  1  1
 15 17  1  0
 16 15  1  0
 17 18  2  0
 19 17  1  0
 19 20  1  0
 20 26  1  0
 20 21  1  6
 22 21  1  0
 23 22  1  0
 24 23  1  0
 25 24  1  0
 26 28  1  0
 27 26  2  0
M  END
$$$$
