YSK.pdb
     RDKit          3D

 28 28  0  0  1  0  0  0  0  0999 V2000
   10.4684  -13.9065   30.4212 O   0  0  0  0  0  0  0  0  0  0  0  0
   10.1186  -14.3881   29.1685 C   0  0  0  0  0  0  0  0  0  0  0  0
    9.5154  -13.4985   28.2916 C   0  0  0  0  0  0  0  0  0  0  0  0
    9.1634  -13.9686   27.0420 C   0  0  0  0  0  0  0  0  0  0  0  0
    9.4031  -15.2654   26.6868 C   0  0  0  0  0  0  0  0  0  0  0  0
    9.0234  -15.7697   25.3410 C   0  0  0  0  0  0  0  0  0  0  0  0
   10.2885  -16.2863   24.6919 C   0  0  2  0  0  0  0  0  0  0  0  0
   11.1742  -15.2134   24.3247 N   0  0  0  0  0  0  0  0  0  0  0  0
    9.9834  -17.1738   23.5373 C   0  0  0  0  0  0  0  0  0  0  0  0
    9.1098  -18.0939   23.6419 O   0  0  0  0  0  0  0  0  0  0  0  0
   10.0087  -16.1343   27.5855 C   0  0  0  0  0  0  0  0  0  0  0  0
   10.3611  -15.6807   28.8237 C   0  0  0  0  0  0  0  0  0  0  0  0
   11.6038  -16.4003   19.7507 O   0  0  0  0  0  0  0  0  0  0  0  0
   10.3453  -16.9674   19.8707 C   0  0  0  0  0  0  0  0  0  0  0  0
   10.3315  -17.8377   21.1092 C   0  0  2  0  0  0  0  0  0  0  0  0
   10.6382  -17.0385   22.2931 N   0  0  0  0  0  0  0  0  0  0  0  0
   11.3166  -18.9168   21.0374 C   0  0  0  0  0  0  0  0  0  0  0  0
   12.5333  -18.7384   21.3818 O   0  0  0  0  0  0  0  0  0  0  0  0
   10.9470  -20.2070   20.5802 N   0  0  0  0  0  0  0  0  0  0  0  0
   11.9163  -21.3160   20.5327 C   0  0  1  0  0  0  0  0  0  0  0  0
   11.1647  -22.6228   20.6249 C   0  0  0  0  0  0  0  0  0  0  0  0
   10.4857  -22.8478   21.9250 C   0  0  0  0  0  0  0  0  0  0  0  0
    9.6981  -24.1190   22.0050 C   0  0  0  0  0  0  0  0  0  0  0  0
    9.0229  -24.3308   23.3182 C   0  0  0  0  0  0  0  0  0  0  0  0
    8.2466  -25.5502   23.3706 N   0  0  0  0  0  0  0  0  0  0  0  0
   12.7026  -21.1587   19.3101 C   0  0  0  0  0  0  0  0  0  0  0  0
   12.1541  -20.8724   18.2290 O   0  0  0  0  0  0  0  0  0  0  0  0
   14.0795  -21.3257   19.3317 O   0  0  0  0  0  0  0  0  0  0  0  0
  2 12  2  0
  2  1  1  0
  3  2  1  0
  4  5  1  0
  4  3  2  0
  5 11  2  0
  6  5  1  0
  7  9  1  0
  7  6  1  0
  7  8  1  6
  9 16  1  0
  9 10  2  0
 11 12  1  0
 13 14  1  0
 15 14  1  6
 15 17  1  0
 16 15  1  0
 17 18  2  0
 19 17  1  0
 19 20  1  0
 20 26  1  0
 20 21  1  6
 22 21  1  0
 23 22  1  0
 24 23  1  0
 25 24  1  0
 26 28  1  0
 27 26  2  0
M  END
$$$$
