YSK.pdb
     RDKit          3D

 28 28  0  0  1  0  0  0  0  0999 V2000
    8.1263  -12.7552   16.9356 O   0  0  0  0  0  0  0  0  0  0  0  0
    8.0926  -13.2201   18.2419 C   0  0  0  0  0  0  0  0  0  0  0  0
    6.8523  -13.2922   18.8587 C   0  0  0  0  0  0  0  0  0  0  0  0
    6.8084  -13.7538   20.1592 C   0  0  0  0  0  0  0  0  0  0  0  0
    7.9496  -14.1253   20.8110 C   0  0  0  0  0  0  0  0  0  0  0  0
    7.9005  -14.6220   22.2112 C   0  0  0  0  0  0  0  0  0  0  0  0
    8.0226  -16.1286   22.1479 C   0  0  2  0  0  0  0  0  0  0  0  0
    6.8293  -16.7374   21.6230 N   0  0  0  0  0  0  0  0  0  0  0  0
    8.4018  -16.6989   23.4689 C   0  0  0  0  0  0  0  0  0  0  0  0
    7.5325  -16.8322   24.3894 O   0  0  0  0  0  0  0  0  0  0  0  0
    9.1783  -14.0425   20.1685 C   0  0  0  0  0  0  0  0  0  0  0  0
    9.2339  -13.5876   18.8828 C   0  0  0  0  0  0  0  0  0  0  0  0
   12.3289  -17.9031   24.1870 O   0  0  0  0  0  0  0  0  0  0  0  0
   11.3264  -18.5855   24.8575 C   0  0  0  0  0  0  0  0  0  0  0  0
   10.1550  -17.6456   25.0462 C   0  0  2  0  0  0  0  0  0  0  0  0
    9.7215  -17.1116   23.7571 N   0  0  0  0  0  0  0  0  0  0  0  0
   10.4904  -16.5095   25.9046 C   0  0  0  0  0  0  0  0  0  0  0  0
   11.2667  -15.5760   25.5088 O   0  0  0  0  0  0  0  0  0  0  0  0
    9.9578  -16.4082   27.2146 N   0  0  0  0  0  0  0  0  0  0  0  0
   10.3638  -15.3283   28.1315 C   0  0  1  0  0  0  0  0  0  0  0  0
    9.2165  -14.3569   28.2767 C   0  0  0  0  0  0  0  0  0  0  0  0
    8.7810  -13.7296   27.0044 C   0  0  0  0  0  0  0  0  0  0  0  0
    7.5899  -12.8304   27.1285 C   0  0  0  0  0  0  0  0  0  0  0  0
    7.1532  -12.2232   25.8379 C   0  0  0  0  0  0  0  0  0  0  0  0
    6.0330  -11.3194   25.9826 N   0  0  0  0  0  0  0  0  0  0  0  0
   10.7862  -15.9528   29.3842 C   0  0  0  0  0  0  0  0  0  0  0  0
   11.2623  -15.2699   30.3109 O   0  0  0  0  0  0  0  0  0  0  0  0
   10.6637  -17.3226   29.5648 O   0  0  0  0  0  0  0  0  0  0  0  0
  2 12  2  0
  2  1  1  0
  3  2  1  0
  4  5  1  0
  4  3  2  0
  5 11  2  0
  6  5  1  0
  7  9  1  0
  7  6  1  0
  7  8  1  1
  9 16  1  0
  9 10  2  0
 11 12  1  0
 13 14  1  0
 15 14  1  6
 15 17  1  0
 16 15  1  0
 17 18  2  0
 19 17  1  0
 19 20  1  0
 20 26  1  0
 20 21  1  1
 22 21  1  0
 23 22  1  0
 24 23  1  0
 25 24  1  0
 26 28  1  0
 27 26  2  0
M  END
$$$$
