YSK.pdb
     RDKit          3D

 28 28  0  0  1  0  0  0  0  0999 V2000
    4.3844  -19.4243   13.0867 O   0  0  0  0  0  0  0  0  0  0  0  0
    5.2423  -19.1587   14.1438 C   0  0  0  0  0  0  0  0  0  0  0  0
    5.3599  -20.1309   15.1262 C   0  0  0  0  0  0  0  0  0  0  0  0
    6.2114  -19.8758   16.1825 C   0  0  0  0  0  0  0  0  0  0  0  0
    6.9114  -18.7051   16.2529 C   0  0  0  0  0  0  0  0  0  0  0  0
    7.8277  -18.4321   17.3911 C   0  0  0  0  0  0  0  0  0  0  0  0
    8.4289  -17.0643   17.1533 C   0  0  2  0  0  0  0  0  0  0  0  0
    9.4493  -17.1007   16.1396 N   0  0  0  0  0  0  0  0  0  0  0  0
    8.9261  -16.4617   18.4197 C   0  0  0  0  0  0  0  0  0  0  0  0
   10.1553  -16.5499   18.7391 O   0  0  0  0  0  0  0  0  0  0  0  0
    6.7740  -17.7491   15.2546 C   0  0  0  0  0  0  0  0  0  0  0  0
    5.9349  -17.9904   14.2054 C   0  0  0  0  0  0  0  0  0  0  0  0
    6.3626  -15.3398   21.5615 O   0  0  0  0  0  0  0  0  0  0  0  0
    7.3583  -14.4374   21.2235 C   0  0  0  0  0  0  0  0  0  0  0  0
    8.4976  -15.2027   20.5852 C   0  0  2  0  0  0  0  0  0  0  0  0
    8.0712  -15.7758   19.3106 N   0  0  0  0  0  0  0  0  0  0  0  0
    8.9664  -16.3019   21.4289 C   0  0  0  0  0  0  0  0  0  0  0  0
    8.8382  -17.5219   21.0738 O   0  0  0  0  0  0  0  0  0  0  0  0
    9.5848  -16.0443   22.6784 N   0  0  0  0  0  0  0  0  0  0  0  0
   10.5305  -16.9992   23.2831 C   0  0  1  0  0  0  0  0  0  0  0  0
   11.7213  -17.1505   22.3666 C   0  0  0  0  0  0  0  0  0  0  0  0
   12.7743  -18.0628   22.8772 C   0  0  0  0  0  0  0  0  0  0  0  0
   13.9698  -18.1960   21.9850 C   0  0  0  0  0  0  0  0  0  0  0  0
   14.9992  -19.1495   22.4912 C   0  0  0  0  0  0  0  0  0  0  0  0
   16.1409  -19.2763   21.6121 N   0  0  0  0  0  0  0  0  0  0  0  0
   10.8582  -16.5045   24.6195 C   0  0  0  0  0  0  0  0  0  0  0  0
   10.8033  -17.2563   25.6112 O   0  0  0  0  0  0  0  0  0  0  0  0
   11.2380  -15.1839   24.8083 O   0  0  0  0  0  0  0  0  0  0  0  0
  2 12  2  0
  2  1  1  0
  3  2  1  0
  4  5  1  0
  4  3  2  0
  5 11  2  0
  6  5  1  0
  7  9  1  0
  7  6  1  0
  7  8  1  6
  9 16  1  0
  9 10  2  0
 11 12  1  0
 13 14  1  0
 15 14  1  1
 15 17  1  0
 16 15  1  0
 17 18  2  0
 19 17  1  0
 19 20  1  0
 20 26  1  0
 20 21  1  6
 22 21  1  0
 23 22  1  0
 24 23  1  0
 25 24  1  0
 26 28  1  0
 27 26  2  0
M  END
$$$$
