YSK.pdb
     RDKit          3D

 28 28  0  0  1  0  0  0  0  0999 V2000
    4.8189  -10.3043   26.4724 O   0  0  0  0  0  0  0  0  0  0  0  0
    5.7049  -11.3323   26.1862 C   0  0  0  0  0  0  0  0  0  0  0  0
    6.0276  -12.1991   27.2200 C   0  0  0  0  0  0  0  0  0  0  0  0
    6.9088  -13.2257   26.9449 C   0  0  0  0  0  0  0  0  0  0  0  0
    7.4414  -13.3781   25.6965 C   0  0  0  0  0  0  0  0  0  0  0  0
    8.3901  -14.4840   25.4022 C   0  0  0  0  0  0  0  0  0  0  0  0
    7.5804  -15.6077   24.7936 C   0  0  2  0  0  0  0  0  0  0  0  0
    6.7532  -16.2589   25.7744 N   0  0  0  0  0  0  0  0  0  0  0  0
    8.4504  -16.5747   24.0710 C   0  0  0  0  0  0  0  0  0  0  0  0
    8.9288  -17.5893   24.6730 O   0  0  0  0  0  0  0  0  0  0  0  0
    7.1003  -12.4949   24.6801 C   0  0  0  0  0  0  0  0  0  0  0  0
    6.2301  -11.4761   24.9404 C   0  0  0  0  0  0  0  0  0  0  0  0
    9.7824  -15.4888   20.4112 O   0  0  0  0  0  0  0  0  0  0  0  0
    9.7725  -16.8699   20.5241 C   0  0  0  0  0  0  0  0  0  0  0  0
    9.7627  -17.2271   21.9950 C   0  0  2  0  0  0  0  0  0  0  0  0
    8.7797  -16.4138   22.7070 N   0  0  0  0  0  0  0  0  0  0  0  0
   11.0627  -17.0026   22.6271 C   0  0  0  0  0  0  0  0  0  0  0  0
   11.4366  -15.8390   22.9973 O   0  0  0  0  0  0  0  0  0  0  0  0
   11.9558  -18.0806   22.8516 N   0  0  0  0  0  0  0  0  0  0  0  0
   13.2139  -17.8982   23.5969 C   0  0  1  0  0  0  0  0  0  0  0  0
   13.3767  -19.0464   24.5645 C   0  0  0  0  0  0  0  0  0  0  0  0
   12.4768  -18.9859   25.7428 C   0  0  0  0  0  0  0  0  0  0  0  0
   12.4971  -20.2095   26.6060 C   0  0  0  0  0  0  0  0  0  0  0  0
   11.5188  -20.1721   27.7315 C   0  0  0  0  0  0  0  0  0  0  0  0
   11.4443  -21.4171   28.4643 N   0  0  0  0  0  0  0  0  0  0  0  0
   14.2915  -17.7804   22.6156 C   0  0  0  0  0  0  0  0  0  0  0  0
   14.1908  -18.3024   21.4891 O   0  0  0  0  0  0  0  0  0  0  0  0
   15.4502  -17.0823   22.9221 O   0  0  0  0  0  0  0  0  0  0  0  0
  2 12  2  0
  2  1  1  0
  3  2  1  0
  4  5  1  0
  4  3  2  0
  5 11  2  0
  6  5  1  0
  7  9  1  0
  7  6  1  0
  7  8  1  1
  9 16  1  0
  9 10  2  0
 11 12  1  0
 13 14  1  0
 15 14  1  6
 15 17  1  0
 16 15  1  0
 17 18  2  0
 19 17  1  0
 19 20  1  0
 20 26  1  0
 20 21  1  1
 22 21  1  0
 23 22  1  0
 24 23  1  0
 25 24  1  0
 26 28  1  0
 27 26  2  0
M  END
$$$$
