YSK.pdb
     RDKit          3D

 28 28  0  0  1  0  0  0  0  0999 V2000
    7.2494  -12.5625   14.8373 O   0  0  0  0  0  0  0  0  0  0  0  0
    7.3209  -13.3323   15.9889 C   0  0  0  0  0  0  0  0  0  0  0  0
    7.6920  -12.6894   17.1607 C   0  0  0  0  0  0  0  0  0  0  0  0
    7.7660  -13.4472   18.3124 C   0  0  0  0  0  0  0  0  0  0  0  0
    7.4827  -14.7831   18.2930 C   0  0  0  0  0  0  0  0  0  0  0  0
    7.5630  -15.5974   19.5340 C   0  0  0  0  0  0  0  0  0  0  0  0
    9.0315  -15.7566   19.8613 C   0  0  2  0  0  0  0  0  0  0  0  0
    9.7689  -16.2951   18.7494 N   0  0  0  0  0  0  0  0  0  0  0  0
    9.2284  -16.5589   21.0988 C   0  0  0  0  0  0  0  0  0  0  0  0
    8.6194  -16.2506   22.1734 O   0  0  0  0  0  0  0  0  0  0  0  0
    7.1137  -15.4008   17.1048 C   0  0  0  0  0  0  0  0  0  0  0  0
    7.0371  -14.6616   15.9599 C   0  0  0  0  0  0  0  0  0  0  0  0
   12.3936  -19.2542   21.5007 O   0  0  0  0  0  0  0  0  0  0  0  0
   11.1710  -19.6998   21.9768 C   0  0  0  0  0  0  0  0  0  0  0  0
   10.3282  -18.4923   22.3278 C   0  0  2  0  0  0  0  0  0  0  0  0
   10.0859  -17.6807   21.1373 N   0  0  0  0  0  0  0  0  0  0  0  0
   10.9757  -17.6363   23.3217 C   0  0  0  0  0  0  0  0  0  0  0  0
   11.7396  -16.6715   22.9804 O   0  0  0  0  0  0  0  0  0  0  0  0
   10.7720  -17.8525   24.7080 N   0  0  0  0  0  0  0  0  0  0  0  0
   11.4268  -17.0106   25.7249 C   0  0  1  0  0  0  0  0  0  0  0  0
   10.3631  -16.2808   26.5102 C   0  0  0  0  0  0  0  0  0  0  0  0
   10.8770  -15.5192   27.6754 C   0  0  0  0  0  0  0  0  0  0  0  0
    9.8200  -14.8455   28.4950 C   0  0  0  0  0  0  0  0  0  0  0  0
   10.3566  -14.0376   29.6283 C   0  0  0  0  0  0  0  0  0  0  0  0
    9.6477  -14.2554   30.8703 N   0  0  0  0  0  0  0  0  0  0  0  0
   12.2797  -17.8818   26.5320 C   0  0  0  0  0  0  0  0  0  0  0  0
   13.4389  -17.5406   26.8345 O   0  0  0  0  0  0  0  0  0  0  0  0
   11.8118  -19.1092   26.9778 O   0  0  0  0  0  0  0  0  0  0  0  0
  2 12  2  0
  2  1  1  0
  3  2  1  0
  4  5  1  0
  4  3  2  0
  5 11  2  0
  6  5  1  0
  7  9  1  0
  7  6  1  0
  7  8  1  6
  9 16  1  0
  9 10  2  0
 11 12  1  0
 13 14  1  0
 15 14  1  6
 15 17  1  0
 16 15  1  0
 17 18  2  0
 19 17  1  0
 19 20  1  0
 20 26  1  0
 20 21  1  1
 22 21  1  0
 23 22  1  0
 24 23  1  0
 25 24  1  0
 26 28  1  0
 27 26  2  0
M  END
$$$$
