YSK.pdb
     RDKit          3D

 28 28  0  0  1  0  0  0  0  0999 V2000
    7.2990  -11.5978   18.4248 O   0  0  0  0  0  0  0  0  0  0  0  0
    7.6854  -12.6040   19.2977 C   0  0  0  0  0  0  0  0  0  0  0  0
    9.0108  -13.0108   19.2514 C   0  0  0  0  0  0  0  0  0  0  0  0
    9.4051  -14.0120   20.1166 C   0  0  0  0  0  0  0  0  0  0  0  0
    8.5170  -14.5787   20.9857 C   0  0  0  0  0  0  0  0  0  0  0  0
    8.9433  -15.6565   21.9164 C   0  0  0  0  0  0  0  0  0  0  0  0
    8.8970  -16.9532   21.1384 C   0  0  2  0  0  0  0  0  0  0  0  0
    7.5451  -17.3532   20.8513 N   0  0  0  0  0  0  0  0  0  0  0  0
    9.6593  -18.0285   21.8287 C   0  0  0  0  0  0  0  0  0  0  0  0
    9.1552  -18.6420   22.8239 O   0  0  0  0  0  0  0  0  0  0  0  0
    7.1955  -14.1514   21.0102 C   0  0  0  0  0  0  0  0  0  0  0  0
    6.7943  -13.1623   20.1595 C   0  0  0  0  0  0  0  0  0  0  0  0
   12.8052  -21.5357   21.1760 O   0  0  0  0  0  0  0  0  0  0  0  0
   12.2150  -20.3756   20.7008 C   0  0  0  0  0  0  0  0  0  0  0  0
   11.6435  -19.6155   21.8784 C   0  0  2  0  0  0  0  0  0  0  0  0
   10.9554  -18.4115   21.4182 N   0  0  0  0  0  0  0  0  0  0  0  0
   12.6799  -19.1983   22.8227 C   0  0  0  0  0  0  0  0  0  0  0  0
   13.5429  -20.0218   23.2785 O   0  0  0  0  0  0  0  0  0  0  0  0
   12.7600  -17.8534   23.2642 N   0  0  0  0  0  0  0  0  0  0  0  0
   13.7018  -17.4425   24.3205 C   0  0  1  0  0  0  0  0  0  0  0  0
   13.8876  -18.5933   25.2807 C   0  0  0  0  0  0  0  0  0  0  0  0
   12.9914  -18.5548   26.4627 C   0  0  0  0  0  0  0  0  0  0  0  0
   13.2007  -19.6700   27.4401 C   0  0  0  0  0  0  0  0  0  0  0  0
   12.3645  -19.5608   28.6706 C   0  0  0  0  0  0  0  0  0  0  0  0
   12.6781  -20.5639   29.6645 N   0  0  0  0  0  0  0  0  0  0  0  0
   14.9316  -17.0017   23.6637 C   0  0  0  0  0  0  0  0  0  0  0  0
   15.0650  -17.0920   22.4285 O   0  0  0  0  0  0  0  0  0  0  0  0
   15.9764  -16.4726   24.4069 O   0  0  0  0  0  0  0  0  0  0  0  0
  2 12  2  0
  2  1  1  0
  3  2  1  0
  4  5  1  0
  4  3  2  0
  5 11  2  0
  6  5  1  0
  7  9  1  0
  7  6  1  0
  7  8  1  1
  9 16  1  0
  9 10  2  0
 11 12  1  0
 13 14  1  0
 15 14  1  6
 15 17  1  0
 16 15  1  0
 17 18  2  0
 19 17  1  0
 19 20  1  0
 20 26  1  0
 20 21  1  1
 22 21  1  0
 23 22  1  0
 24 23  1  0
 25 24  1  0
 26 28  1  0
 27 26  2  0
M  END
$$$$
