YSK.pdb
     RDKit          3D

 28 28  0  0  1  0  0  0  0  0999 V2000
    5.6461  -10.3550   27.5995 O   0  0  0  0  0  0  0  0  0  0  0  0
    6.2310  -11.4770   27.0314 C   0  0  0  0  0  0  0  0  0  0  0  0
    6.1941  -12.6533   27.7656 C   0  0  0  0  0  0  0  0  0  0  0  0
    6.7737  -13.7757   27.2084 C   0  0  0  0  0  0  0  0  0  0  0  0
    7.3617  -13.7241   25.9768 C   0  0  0  0  0  0  0  0  0  0  0  0
    7.9853  -14.9336   25.3785 C   0  0  0  0  0  0  0  0  0  0  0  0
    6.9222  -15.6066   24.5384 C   0  0  2  0  0  0  0  0  0  0  0  0
    6.0760  -16.4571   25.3326 N   0  0  0  0  0  0  0  0  0  0  0  0
    7.5204  -16.3369   23.3882 C   0  0  0  0  0  0  0  0  0  0  0  0
    7.7446  -17.5880   23.4624 O   0  0  0  0  0  0  0  0  0  0  0  0
    7.3839  -12.5322   25.2638 C   0  0  0  0  0  0  0  0  0  0  0  0
    6.8140  -11.4161   25.8047 C   0  0  0  0  0  0  0  0  0  0  0  0
    9.1846  -14.3155   20.1328 O   0  0  0  0  0  0  0  0  0  0  0  0
    8.4206  -15.4283   19.8196 C   0  0  0  0  0  0  0  0  0  0  0  0
    8.4240  -16.3592   21.0132 C   0  0  2  0  0  0  0  0  0  0  0  0
    7.8611  -15.6865   22.1817 N   0  0  0  0  0  0  0  0  0  0  0  0
    9.7732  -16.8015   21.3655 C   0  0  0  0  0  0  0  0  0  0  0  0
   10.4419  -16.2386   22.2965 O   0  0  0  0  0  0  0  0  0  0  0  0
   10.3854  -17.8800   20.6784 N   0  0  0  0  0  0  0  0  0  0  0  0
   11.7304  -18.3617   21.0402 C   0  0  1  0  0  0  0  0  0  0  0  0
   12.0104  -19.6371   20.2813 C   0  0  0  0  0  0  0  0  0  0  0  0
   13.3624  -20.2030   20.5135 C   0  0  0  0  0  0  0  0  0  0  0  0
   13.6223  -21.5024   19.8158 C   0  0  0  0  0  0  0  0  0  0  0  0
   14.9724  -22.0754   20.0876 C   0  0  0  0  0  0  0  0  0  0  0  0
   15.1964  -23.3448   19.4311 N   0  0  0  0  0  0  0  0  0  0  0  0
   12.6726  -17.2780   20.7649 C   0  0  0  0  0  0  0  0  0  0  0  0
   13.6454  -17.0701   21.5147 O   0  0  0  0  0  0  0  0  0  0  0  0
   12.5002  -16.4585   19.6591 O   0  0  0  0  0  0  0  0  0  0  0  0
  2 12  2  0
  2  1  1  0
  3  2  1  0
  4  5  1  0
  4  3  2  0
  5 11  2  0
  6  5  1  0
  7  9  1  0
  7  6  1  0
  7  8  1  1
  9 16  1  0
  9 10  2  0
 11 12  1  0
 13 14  1  0
 15 14  1  6
 15 17  1  0
 16 15  1  0
 17 18  2  0
 19 17  1  0
 19 20  1  0
 20 26  1  0
 20 21  1  6
 22 21  1  0
 23 22  1  0
 24 23  1  0
 25 24  1  0
 26 28  1  0
 27 26  2  0
M  END
$$$$
