YSK.pdb
     RDKit          3D

 28 28  0  0  1  0  0  0  0  0999 V2000
    6.3809  -11.4745   20.5307 O   0  0  0  0  0  0  0  0  0  0  0  0
    7.3651  -12.3778   20.1576 C   0  0  0  0  0  0  0  0  0  0  0  0
    7.8396  -13.2399   21.1352 C   0  0  0  0  0  0  0  0  0  0  0  0
    8.8195  -14.1429   20.7736 C   0  0  0  0  0  0  0  0  0  0  0  0
    9.3013  -14.1817   19.4962 C   0  0  0  0  0  0  0  0  0  0  0  0
   10.3563  -15.1545   19.1086 C   0  0  0  0  0  0  0  0  0  0  0  0
   11.6819  -14.5534   19.5215 C   0  0  2  0  0  0  0  0  0  0  0  0
   11.9790  -13.3586   18.7769 N   0  0  0  0  0  0  0  0  0  0  0  0
   12.7822  -15.5510   19.4322 C   0  0  0  0  0  0  0  0  0  0  0  0
   12.6926  -16.6685   20.0356 O   0  0  0  0  0  0  0  0  0  0  0  0
    8.8074  -13.3062   18.5375 C   0  0  0  0  0  0  0  0  0  0  0  0
    7.8386  -12.4091   18.8835 C   0  0  0  0  0  0  0  0  0  0  0  0
   16.5694  -14.6140   17.9079 O   0  0  0  0  0  0  0  0  0  0  0  0
   16.0012  -15.7889   17.4423 C   0  0  0  0  0  0  0  0  0  0  0  0
   15.0208  -16.2881   18.4819 C   0  0  2  0  0  0  0  0  0  0  0  0
   13.9568  -15.3080   18.6863 N   0  0  0  0  0  0  0  0  0  0  0  0
   15.6599  -16.5228   19.7767 C   0  0  0  0  0  0  0  0  0  0  0  0
   15.9140  -15.5654   20.5827 O   0  0  0  0  0  0  0  0  0  0  0  0
   16.0191  -17.8333   20.1813 N   0  0  0  0  0  0  0  0  0  0  0  0
   16.5941  -18.1001   21.5116 C   0  0  1  0  0  0  0  0  0  0  0  0
   16.0036  -19.3824   22.0483 C   0  0  0  0  0  0  0  0  0  0  0  0
   14.5597  -19.2993   22.3800 C   0  0  0  0  0  0  0  0  0  0  0  0
   13.9232  -20.6102   22.7255 C   0  0  0  0  0  0  0  0  0  0  0  0
   12.4379  -20.5477   22.8485 C   0  0  0  0  0  0  0  0  0  0  0  0
   11.8212  -21.8491   22.9844 N   0  0  0  0  0  0  0  0  0  0  0  0
   18.0486  -18.1226   21.3638 C   0  0  0  0  0  0  0  0  0  0  0  0
   18.5759  -18.2303   20.2404 O   0  0  0  0  0  0  0  0  0  0  0  0
   18.8714  -18.0237   22.4761 O   0  0  0  0  0  0  0  0  0  0  0  0
  2 12  2  0
  2  1  1  0
  3  2  1  0
  4  5  1  0
  4  3  2  0
  5 11  2  0
  6  5  1  0
  7  9  1  0
  7  6  1  0
  7  8  1  6
  9 16  1  0
  9 10  2  0
 11 12  1  0
 13 14  1  0
 15 14  1  6
 15 17  1  0
 16 15  1  0
 17 18  2  0
 19 17  1  0
 19 20  1  0
 20 26  1  0
 20 21  1  6
 22 21  1  0
 23 22  1  0
 24 23  1  0
 25 24  1  0
 26 28  1  0
 27 26  2  0
M  END
$$$$
