YSK.pdb
     RDKit          3D

 28 28  0  0  1  0  0  0  0  0999 V2000
    8.8330  -12.8373   17.1187 O   0  0  0  0  0  0  0  0  0  0  0  0
    8.4291  -13.3821   18.3286 C   0  0  0  0  0  0  0  0  0  0  0  0
    7.0722  -13.3562   18.6155 C   0  0  0  0  0  0  0  0  0  0  0  0
    6.6603  -13.8961   19.8176 C   0  0  0  0  0  0  0  0  0  0  0  0
    7.5617  -14.4357   20.6903 C   0  0  0  0  0  0  0  0  0  0  0  0
    7.1164  -15.0166   21.9842 C   0  0  0  0  0  0  0  0  0  0  0  0
    7.1654  -16.5209   21.8310 C   0  0  2  0  0  0  0  0  0  0  0  0
    6.1318  -16.9999   20.9521 N   0  0  0  0  0  0  0  0  0  0  0  0
    7.1302  -17.2030   23.1528 C   0  0  0  0  0  0  0  0  0  0  0  0
    6.0195  -17.4492   23.7243 O   0  0  0  0  0  0  0  0  0  0  0  0
    8.9148  -14.4480   20.3767 C   0  0  0  0  0  0  0  0  0  0  0  0
    9.3337  -13.9171   19.1911 C   0  0  0  0  0  0  0  0  0  0  0  0
    9.9388  -19.6979   24.5804 O   0  0  0  0  0  0  0  0  0  0  0  0
    8.7291  -19.5453   25.2389 C   0  0  0  0  0  0  0  0  0  0  0  0
    8.3490  -18.0805   25.2028 C   0  0  2  0  0  0  0  0  0  0  0  0
    8.3078  -17.6020   23.8229 N   0  0  0  0  0  0  0  0  0  0  0  0
    9.3020  -17.2440   25.9322 C   0  0  0  0  0  0  0  0  0  0  0  0
   10.4807  -17.0287   25.4906 O   0  0  0  0  0  0  0  0  0  0  0  0
    8.9424  -16.6394   27.1632 N   0  0  0  0  0  0  0  0  0  0  0  0
    9.9020  -15.8300   27.9350 C   0  0  1  0  0  0  0  0  0  0  0  0
    9.3172  -14.4539   28.1473 C   0  0  0  0  0  0  0  0  0  0  0  0
    8.6219  -13.8948   26.9615 C   0  0  0  0  0  0  0  0  0  0  0  0
    8.0031  -12.5486   27.1792 C   0  0  0  0  0  0  0  0  0  0  0  0
    7.3691  -11.9698   25.9593 C   0  0  0  0  0  0  0  0  0  0  0  0
    6.8307  -10.6439   26.1703 N   0  0  0  0  0  0  0  0  0  0  0  0
   10.1950  -16.5568   29.1694 C   0  0  0  0  0  0  0  0  0  0  0  0
    9.4952  -17.5244   29.5237 O   0  0  0  0  0  0  0  0  0  0  0  0
   11.2621  -16.1807   29.9719 O   0  0  0  0  0  0  0  0  0  0  0  0
  2 12  2  0
  2  1  1  0
  3  2  1  0
  4  5  1  0
  4  3  2  0
  5 11  2  0
  6  5  1  0
  7  9  1  0
  7  6  1  0
  7  8  1  6
  9 16  1  0
  9 10  2  0
 11 12  1  0
 13 14  1  0
 15 14  1  6
 15 17  1  0
 16 15  1  0
 17 18  2  0
 19 17  1  0
 19 20  1  0
 20 26  1  0
 20 21  1  1
 22 21  1  0
 23 22  1  0
 24 23  1  0
 25 24  1  0
 26 28  1  0
 27 26  2  0
M  END
$$$$
