YSK.pdb
     RDKit          3D

 28 28  0  0  1  0  0  0  0  0999 V2000
    7.3120  -17.7139   14.7378 O   0  0  0  0  0  0  0  0  0  0  0  0
    7.7543  -17.6872   16.0521 C   0  0  0  0  0  0  0  0  0  0  0  0
    6.8622  -17.2354   17.0135 C   0  0  0  0  0  0  0  0  0  0  0  0
    7.2932  -17.2052   18.3248 C   0  0  0  0  0  0  0  0  0  0  0  0
    8.5551  -17.6073   18.6584 C   0  0  0  0  0  0  0  0  0  0  0  0
    9.0174  -17.5741   20.0708 C   0  0  0  0  0  0  0  0  0  0  0  0
    9.4854  -16.1622   20.3471 C   0  0  2  0  0  0  0  0  0  0  0  0
   10.6227  -15.8110   19.5387 N   0  0  0  0  0  0  0  0  0  0  0  0
    9.7481  -15.9508   21.7964 C   0  0  0  0  0  0  0  0  0  0  0  0
   10.8756  -16.2589   22.3010 O   0  0  0  0  0  0  0  0  0  0  0  0
    9.4274  -18.0552   17.6745 C   0  0  0  0  0  0  0  0  0  0  0  0
    9.0123  -18.0895   16.3747 C   0  0  0  0  0  0  0  0  0  0  0  0
    6.6994  -15.2462   24.5909 O   0  0  0  0  0  0  0  0  0  0  0  0
    7.8031  -14.4121   24.6698 C   0  0  0  0  0  0  0  0  0  0  0  0
    8.9933  -15.1410   24.0838 C   0  0  2  0  0  0  0  0  0  0  0  0
    8.7748  -15.4077   22.6640 N   0  0  0  0  0  0  0  0  0  0  0  0
    9.2345  -16.4247   24.7424 C   0  0  0  0  0  0  0  0  0  0  0  0
    8.5594  -17.4676   24.4468 O   0  0  0  0  0  0  0  0  0  0  0  0
   10.2359  -16.5523   25.7379 N   0  0  0  0  0  0  0  0  0  0  0  0
   10.4157  -17.8031   26.4960 C   0  0  1  0  0  0  0  0  0  0  0  0
   11.6915  -18.4696   26.0386 C   0  0  0  0  0  0  0  0  0  0  0  0
   11.6937  -19.9470   26.1770 C   0  0  0  0  0  0  0  0  0  0  0  0
   12.9653  -20.6113   25.7475 C   0  0  0  0  0  0  0  0  0  0  0  0
   13.0099  -22.0747   26.0333 C   0  0  0  0  0  0  0  0  0  0  0  0
   14.1726  -22.7300   25.4756 N   0  0  0  0  0  0  0  0  0  0  0  0
   10.3911  -17.4615   27.9175 C   0  0  0  0  0  0  0  0  0  0  0  0
   10.4214  -18.3502   28.7897 O   0  0  0  0  0  0  0  0  0  0  0  0
   10.3335  -16.1361   28.3225 O   0  0  0  0  0  0  0  0  0  0  0  0
  2 12  2  0
  2  1  1  0
  3  2  1  0
  4  5  1  0
  4  3  2  0
  5 11  2  0
  6  5  1  0
  7  9  1  0
  7  6  1  0
  7  8  1  6
  9 16  1  0
  9 10  2  0
 11 12  1  0
 13 14  1  0
 15 14  1  1
 15 17  1  0
 16 15  1  0
 17 18  2  0
 19 17  1  0
 19 20  1  0
 20 26  1  0
 20 21  1  6
 22 21  1  0
 23 22  1  0
 24 23  1  0
 25 24  1  0
 26 28  1  0
 27 26  2  0
M  END
$$$$
