YSK.pdb
     RDKit          3D

 28 28  0  0  1  0  0  0  0  0999 V2000
    8.1145  -12.4418   17.0031 O   0  0  0  0  0  0  0  0  0  0  0  0
    7.9692  -13.0841   18.2238 C   0  0  0  0  0  0  0  0  0  0  0  0
    9.0623  -13.7901   18.7043 C   0  0  0  0  0  0  0  0  0  0  0  0
    8.9274  -14.4328   19.9187 C   0  0  0  0  0  0  0  0  0  0  0  0
    7.7561  -14.3725   20.6186 C   0  0  0  0  0  0  0  0  0  0  0  0
    7.6127  -15.0652   21.9260 C   0  0  0  0  0  0  0  0  0  0  0  0
    7.1501  -16.4746   21.6285 C   0  0  2  0  0  0  0  0  0  0  0  0
    5.7640  -16.5094   21.2442 N   0  0  0  0  0  0  0  0  0  0  0  0
    7.4339  -17.3910   22.7658 C   0  0  0  0  0  0  0  0  0  0  0  0
    6.7490  -17.3240   23.8369 O   0  0  0  0  0  0  0  0  0  0  0  0
    6.6775  -13.6579   20.1131 C   0  0  0  0  0  0  0  0  0  0  0  0
    6.7993  -13.0184   18.9134 C   0  0  0  0  0  0  0  0  0  0  0  0
   10.6833  -19.9470   22.5476 O   0  0  0  0  0  0  0  0  0  0  0  0
    9.6458  -20.3964   23.3487 C   0  0  0  0  0  0  0  0  0  0  0  0
    8.8677  -19.1940   23.8387 C   0  0  2  0  0  0  0  0  0  0  0  0
    8.4591  -18.3610   22.7101 N   0  0  0  0  0  0  0  0  0  0  0  0
    9.6558  -18.3568   24.7431 C   0  0  0  0  0  0  0  0  0  0  0  0
   10.3235  -17.3544   24.3185 O   0  0  0  0  0  0  0  0  0  0  0  0
    9.7019  -18.6341   26.1328 N   0  0  0  0  0  0  0  0  0  0  0  0
   10.4465  -17.7719   27.0676 C   0  0  1  0  0  0  0  0  0  0  0  0
    9.4635  -17.0984   27.9956 C   0  0  0  0  0  0  0  0  0  0  0  0
   10.0875  -16.2122   29.0092 C   0  0  0  0  0  0  0  0  0  0  0  0
    9.9988  -14.7500   28.6978 C   0  0  0  0  0  0  0  0  0  0  0  0
   10.7123  -13.8788   29.6761 C   0  0  0  0  0  0  0  0  0  0  0  0
   10.6245  -12.4708   29.3564 N   0  0  0  0  0  0  0  0  0  0  0  0
   11.4355  -18.6101   27.7437 C   0  0  0  0  0  0  0  0  0  0  0  0
   11.2129  -19.8171   27.9567 O   0  0  0  0  0  0  0  0  0  0  0  0
   12.6450  -18.0748   28.1617 O   0  0  0  0  0  0  0  0  0  0  0  0
  2 12  2  0
  2  1  1  0
  3  2  1  0
  4  5  1  0
  4  3  2  0
  5 11  2  0
  6  5  1  0
  7  9  1  0
  7  6  1  0
  7  8  1  1
  9 16  1  0
  9 10  2  0
 11 12  1  0
 13 14  1  0
 15 14  1  6
 15 17  1  0
 16 15  1  0
 17 18  2  0
 19 17  1  0
 19 20  1  0
 20 26  1  0
 20 21  1  1
 22 21  1  0
 23 22  1  0
 24 23  1  0
 25 24  1  0
 26 28  1  0
 27 26  2  0
M  END
$$$$
