YSK.pdb
     RDKit          3D

 28 28  0  0  1  0  0  0  0  0999 V2000
    4.9012  -10.5132   27.4441 O   0  0  0  0  0  0  0  0  0  0  0  0
    5.7092  -11.4724   26.8518 C   0  0  0  0  0  0  0  0  0  0  0  0
    6.7117  -12.0286   27.6327 C   0  0  0  0  0  0  0  0  0  0  0  0
    7.5213  -12.9844   27.0520 C   0  0  0  0  0  0  0  0  0  0  0  0
    7.3373  -13.3653   25.7534 C   0  0  0  0  0  0  0  0  0  0  0  0
    8.2101  -14.3945   25.1299 C   0  0  0  0  0  0  0  0  0  0  0  0
    7.3022  -15.4962   24.6291 C   0  0  2  0  0  0  0  0  0  0  0  0
    6.5992  -16.1377   25.7082 N   0  0  0  0  0  0  0  0  0  0  0  0
    8.0468  -16.4753   23.7920 C   0  0  0  0  0  0  0  0  0  0  0  0
    8.2330  -17.6664   24.2012 O   0  0  0  0  0  0  0  0  0  0  0  0
    6.3252  -12.7912   24.9949 C   0  0  0  0  0  0  0  0  0  0  0  0
    5.5185  -11.8453   25.5583 C   0  0  0  0  0  0  0  0  0  0  0  0
    9.7395  -15.0175   20.4580 O   0  0  0  0  0  0  0  0  0  0  0  0
    9.7171  -16.4012   20.3869 C   0  0  0  0  0  0  0  0  0  0  0  0
    9.5353  -16.9468   21.7871 C   0  0  2  0  0  0  0  0  0  0  0  0
    8.5723  -16.1338   22.5262 N   0  0  0  0  0  0  0  0  0  0  0  0
   10.7859  -16.9494   22.5460 C   0  0  0  0  0  0  0  0  0  0  0  0
   11.1919  -15.9139   23.1735 O   0  0  0  0  0  0  0  0  0  0  0  0
   11.5929  -18.1133   22.6103 N   0  0  0  0  0  0  0  0  0  0  0  0
   12.8056  -18.1666   23.4459 C   0  0  1  0  0  0  0  0  0  0  0  0
   12.6768  -19.3162   24.4168 C   0  0  0  0  0  0  0  0  0  0  0  0
   11.8790  -19.0069   25.6291 C   0  0  0  0  0  0  0  0  0  0  0  0
   11.6417  -20.1762   26.5342 C   0  0  0  0  0  0  0  0  0  0  0  0
   10.9507  -19.8244   27.8085 C   0  0  0  0  0  0  0  0  0  0  0  0
   10.7883  -20.9521   28.6998 N   0  0  0  0  0  0  0  0  0  0  0  0
   13.9538  -18.2644   22.5459 C   0  0  0  0  0  0  0  0  0  0  0  0
   14.1093  -19.2594   21.8128 O   0  0  0  0  0  0  0  0  0  0  0  0
   14.8947  -17.2466   22.4913 O   0  0  0  0  0  0  0  0  0  0  0  0
  2 12  2  0
  2  1  1  0
  3  2  1  0
  4  5  1  0
  4  3  2  0
  5 11  2  0
  6  5  1  0
  7  9  1  0
  7  6  1  0
  7  8  1  1
  9 16  1  0
  9 10  2  0
 11 12  1  0
 13 14  1  0
 15 14  1  6
 15 17  1  0
 16 15  1  0
 17 18  2  0
 19 17  1  0
 19 20  1  0
 20 26  1  0
 20 21  1  1
 22 21  1  0
 23 22  1  0
 24 23  1  0
 25 24  1  0
 26 28  1  0
 27 26  2  0
M  END
$$$$
