WHA.pdb
     RDKit          3D

 30 32  0  0  1  0  0  0  0  0999 V2000
    6.2274  -17.0652   23.6169 N   0  0  0  0  0  0  0  0  0  0  0  0
    7.3779  -16.1980   23.4607 C   0  0  1  0  0  0  0  0  0  0  0  0
    8.0555  -15.8914   24.7639 C   0  0  0  0  0  0  0  0  0  0  0  0
    7.1438  -15.0499   25.5701 C   0  0  0  0  0  0  0  0  0  0  0  0
    5.9961  -15.4075   26.2485 C   0  0  0  0  0  0  0  0  0  0  0  0
    5.4989  -14.3287   26.8356 N   0  0  0  0  0  0  0  0  0  0  0  0
    6.2814  -13.2633   26.5685 C   0  0  0  0  0  0  0  0  0  0  0  0
    6.1609  -11.9486   26.9610 C   0  0  0  0  0  0  0  0  0  0  0  0
    7.1119  -11.0408   26.5442 C   0  0  0  0  0  0  0  0  0  0  0  0
    8.1814  -11.4232   25.7420 C   0  0  0  0  0  0  0  0  0  0  0  0
    8.2589  -12.7544   25.3741 C   0  0  0  0  0  0  0  0  0  0  0  0
    7.3310  -13.6924   25.7684 C   0  0  0  0  0  0  0  0  0  0  0  0
    8.2861  -16.7314   22.4272 C   0  0  0  0  0  0  0  0  0  0  0  0
    8.3399  -17.9525   22.1499 O   0  0  0  0  0  0  0  0  0  0  0  0
    9.1328  -15.8475   21.7151 N   0  0  0  0  0  0  0  0  0  0  0  0
   10.2666  -16.3177   20.9432 C   0  0  1  0  0  0  0  0  0  0  0  0
   10.4747  -15.3940   19.7711 C   0  0  0  0  0  0  0  0  0  0  0  0
    9.2200  -14.8334   19.2635 C   0  0  0  0  0  0  0  0  0  0  0  0
    7.9702  -15.1579   19.7531 C   0  0  0  0  0  0  0  0  0  0  0  0
    7.0742  -14.4572   19.0515 N   0  0  0  0  0  0  0  0  0  0  0  0
    7.6996  -13.6997   18.1353 C   0  0  0  0  0  0  0  0  0  0  0  0
    9.0149  -13.9459   18.2828 N   0  0  0  0  0  0  0  0  0  0  0  0
   11.4535  -16.3165   21.8154 C   0  0  0  0  0  0  0  0  0  0  0  0
   12.5327  -15.8270   21.3952 O   0  0  0  0  0  0  0  0  0  0  0  0
   12.0907  -17.9126   25.1615 C   0  0  0  0  0  0  0  0  0  0  0  0
   12.4957  -17.0622   23.9520 C   0  0  2  0  0  0  0  0  0  0  0  0
   11.3416  -16.8781   23.1286 N   0  0  0  0  0  0  0  0  0  0  0  0
   13.5819  -17.7696   23.2677 C   0  0  0  0  0  0  0  0  0  0  0  0
   13.3799  -18.9630   22.5790 O   0  0  0  0  0  0  0  0  0  0  0  0
   14.7489  -17.3092   23.2838 O   0  0  0  0  0  0  0  0  0  0  0  0
  2  1  1  1
  2 13  1  0
  2  3  1  0
  3  4  1  0
  4  5  2  0
  5  6  1  0
  7  6  1  0
  8  7  2  0
  9  8  1  0
 10 11  1  0
 10  9  2  0
 11 12  2  0
 12  4  1  0
 12  7  1  0
 13 14  2  0
 15 13  1  0
 15 16  1  0
 16 17  1  6
 18 17  1  0
 19 18  2  0
 20 21  1  0
 20 19  1  0
 21 22  2  0
 22 18  1  0
 23 24  2  0
 23 16  1  0
 26 25  1  1
 26 27  1  0
 27 23  1  0
 28 29  1  0
 28 26  1  0
 30 28  2  0
M  END
$$$$
