WHA.pdb
     RDKit          3D

 30 32  0  0  1  0  0  0  0  0999 V2000
    8.1797  -16.4686   21.7922 N   0  0  0  0  0  0  0  0  0  0  0  0
    8.6649  -16.2997   23.1472 C   0  0  1  0  0  0  0  0  0  0  0  0
    7.5559  -16.1625   24.1486 C   0  0  0  0  0  0  0  0  0  0  0  0
    7.0151  -14.7887   24.0516 C   0  0  0  0  0  0  0  0  0  0  0  0
    6.1771  -14.2451   23.0989 C   0  0  0  0  0  0  0  0  0  0  0  0
    5.9508  -12.9771   23.4093 N   0  0  0  0  0  0  0  0  0  0  0  0
    6.6130  -12.6599   24.5405 C   0  0  0  0  0  0  0  0  0  0  0  0
    6.6750  -11.4710   25.2332 C   0  0  0  0  0  0  0  0  0  0  0  0
    7.4371  -11.4096   26.3809 C   0  0  0  0  0  0  0  0  0  0  0  0
    8.1387  -12.5150   26.8492 C   0  0  0  0  0  0  0  0  0  0  0  0
    8.0450  -13.6861   26.1191 C   0  0  0  0  0  0  0  0  0  0  0  0
    7.2956  -13.7899   24.9685 C   0  0  0  0  0  0  0  0  0  0  0  0
    9.6404  -17.3561   23.4785 C   0  0  0  0  0  0  0  0  0  0  0  0
    9.3731  -18.5746   23.3583 O   0  0  0  0  0  0  0  0  0  0  0  0
   10.9270  -16.9984   23.9499 N   0  0  0  0  0  0  0  0  0  0  0  0
   11.9001  -17.9894   24.3664 C   0  0  1  0  0  0  0  0  0  0  0  0
   13.2411  -17.6320   23.7795 C   0  0  0  0  0  0  0  0  0  0  0  0
   13.2826  -17.7947   22.3241 C   0  0  0  0  0  0  0  0  0  0  0  0
   13.4783  -19.0020   21.6830 C   0  0  0  0  0  0  0  0  0  0  0  0
   13.4558  -18.7623   20.3684 N   0  0  0  0  0  0  0  0  0  0  0  0
   13.2540  -17.4533   20.1442 C   0  0  0  0  0  0  0  0  0  0  0  0
   13.1505  -16.8787   21.3572 N   0  0  0  0  0  0  0  0  0  0  0  0
   11.9656  -17.9847   25.8378 C   0  0  0  0  0  0  0  0  0  0  0  0
   12.3074  -16.9358   26.4411 O   0  0  0  0  0  0  0  0  0  0  0  0
   10.4139  -20.0877   28.4046 C   0  0  0  0  0  0  0  0  0  0  0  0
   11.5980  -19.2149   27.9730 C   0  0  2  0  0  0  0  0  0  0  0  0
   11.6347  -19.1864   26.5441 N   0  0  0  0  0  0  0  0  0  0  0  0
   12.8055  -19.7965   28.5665 C   0  0  0  0  0  0  0  0  0  0  0  0
   13.0206  -19.8311   29.9419 O   0  0  0  0  0  0  0  0  0  0  0  0
   13.6979  -20.2900   27.8356 O   0  0  0  0  0  0  0  0  0  0  0  0
  2  1  1  6
  2 13  1  0
  2  3  1  0
  3  4  1  0
  4  5  2  0
  5  6  1  0
  7  6  1  0
  8  7  2  0
  9  8  1  0
 10 11  1  0
 10  9  2  0
 11 12  2  0
 12  4  1  0
 12  7  1  0
 13 14  2  0
 15 13  1  0
 15 16  1  0
 16 17  1  6
 18 17  1  0
 19 18  2  0
 20 21  1  0
 20 19  1  0
 21 22  2  0
 22 18  1  0
 23 24  2  0
 23 16  1  0
 26 25  1  6
 26 27  1  0
 27 23  1  0
 28 29  1  0
 28 26  1  0
 30 28  2  0
M  END
$$$$
