WHA.pdb
     RDKit          3D

 30 32  0  0  1  0  0  0  0  0999 V2000
    6.0554  -17.9078   24.5410 N   0  0  0  0  0  0  0  0  0  0  0  0
    6.6528  -16.6369   24.1834 C   0  0  1  0  0  0  0  0  0  0  0  0
    7.6888  -16.1838   25.1698 C   0  0  0  0  0  0  0  0  0  0  0  0
    7.0614  -15.1961   26.0754 C   0  0  0  0  0  0  0  0  0  0  0  0
    6.2362  -15.4076   27.1615 C   0  0  0  0  0  0  0  0  0  0  0  0
    5.9096  -14.2324   27.6792 N   0  0  0  0  0  0  0  0  0  0  0  0
    6.4929  -13.2445   26.9702 C   0  0  0  0  0  0  0  0  0  0  0  0
    6.4402  -11.8782   27.1358 C   0  0  0  0  0  0  0  0  0  0  0  0
    7.1392  -11.0751   26.2592 C   0  0  0  0  0  0  0  0  0  0  0  0
    7.8902  -11.6128   25.2198 C   0  0  0  0  0  0  0  0  0  0  0  0
    7.9120  -12.9902   25.0947 C   0  0  0  0  0  0  0  0  0  0  0  0
    7.2286  -13.8275   25.9480 C   0  0  0  0  0  0  0  0  0  0  0  0
    7.1318  -16.6695   22.7880 C   0  0  0  0  0  0  0  0  0  0  0  0
    7.4215  -17.7406   22.2054 O   0  0  0  0  0  0  0  0  0  0  0  0
    7.2748  -15.4584   22.0683 N   0  0  0  0  0  0  0  0  0  0  0  0
    7.7054  -15.4287   20.6840 C   0  0  1  0  0  0  0  0  0  0  0  0
    7.2532  -14.1335   20.0608 C   0  0  0  0  0  0  0  0  0  0  0  0
    7.6848  -13.9956   18.6676 C   0  0  0  0  0  0  0  0  0  0  0  0
    8.6362  -13.0929   18.2352 C   0  0  0  0  0  0  0  0  0  0  0  0
    8.7666  -13.2547   16.9149 N   0  0  0  0  0  0  0  0  0  0  0  0
    7.9388  -14.2224   16.4874 C   0  0  0  0  0  0  0  0  0  0  0  0
    7.2849  -14.6630   17.5785 N   0  0  0  0  0  0  0  0  0  0  0  0
    9.1747  -15.5280   20.6536 C   0  0  0  0  0  0  0  0  0  0  0  0
    9.7731  -15.5508   19.5480 O   0  0  0  0  0  0  0  0  0  0  0  0
   11.7846  -15.2399   23.3199 C   0  0  0  0  0  0  0  0  0  0  0  0
   11.3120  -15.6695   21.9262 C   0  0  2  0  0  0  0  0  0  0  0  0
    9.8846  -15.5962   21.8961 N   0  0  0  0  0  0  0  0  0  0  0  0
   11.8220  -17.0237   21.6927 C   0  0  0  0  0  0  0  0  0  0  0  0
   10.9824  -18.1277   21.5674 O   0  0  0  0  0  0  0  0  0  0  0  0
   13.0558  -17.2299   21.5973 O   0  0  0  0  0  0  0  0  0  0  0  0
  2  1  1  1
  2 13  1  0
  2  3  1  0
  3  4  1  0
  4  5  2  0
  5  6  1  0
  7  6  1  0
  8  7  2  0
  9  8  1  0
 10 11  1  0
 10  9  2  0
 11 12  2  0
 12  4  1  0
 12  7  1  0
 13 14  2  0
 15 13  1  0
 15 16  1  0
 16 17  1  1
 18 17  1  0
 19 18  2  0
 20 21  1  0
 20 19  1  0
 21 22  2  0
 22 18  1  0
 23 24  2  0
 23 16  1  0
 26 25  1  1
 26 27  1  0
 27 23  1  0
 28 29  1  0
 28 26  1  0
 30 28  2  0
M  END
$$$$
