WHA.pdb
     RDKit          3D

 30 32  0  0  1  0  0  0  0  0999 V2000
    6.3193  -17.3647   23.6614 N   0  0  0  0  0  0  0  0  0  0  0  0
    7.3875  -16.3872   23.7212 C   0  0  1  0  0  0  0  0  0  0  0  0
    7.8594  -16.1271   25.1215 C   0  0  0  0  0  0  0  0  0  0  0  0
    6.9382  -15.1510   25.7442 C   0  0  0  0  0  0  0  0  0  0  0  0
    5.7481  -15.3732   26.4074 C   0  0  0  0  0  0  0  0  0  0  0  0
    5.2589  -14.2061   26.7999 N   0  0  0  0  0  0  0  0  0  0  0  0
    6.0877  -13.2132   26.4180 C   0  0  0  0  0  0  0  0  0  0  0  0
    5.9917  -11.8517   26.6029 C   0  0  0  0  0  0  0  0  0  0  0  0
    6.9908  -11.0414   26.1056 C   0  0  0  0  0  0  0  0  0  0  0  0
    8.0844  -11.5671   25.4266 C   0  0  0  0  0  0  0  0  0  0  0  0
    8.1358  -12.9401   25.2662 C   0  0  0  0  0  0  0  0  0  0  0  0
    7.1599  -13.7843   25.7470 C   0  0  0  0  0  0  0  0  0  0  0  0
    8.4688  -16.7506   22.7851 C   0  0  0  0  0  0  0  0  0  0  0  0
    8.7728  -17.9425   22.5450 O   0  0  0  0  0  0  0  0  0  0  0  0
    9.1979  -15.7304   22.1273 N   0  0  0  0  0  0  0  0  0  0  0  0
   10.3206  -16.0216   21.2571 C   0  0  1  0  0  0  0  0  0  0  0  0
   10.5532  -14.8410   20.3503 C   0  0  0  0  0  0  0  0  0  0  0  0
    9.3571  -14.4668   19.5914 C   0  0  0  0  0  0  0  0  0  0  0  0
    8.5377  -15.3674   18.9399 C   0  0  0  0  0  0  0  0  0  0  0  0
    7.5571  -14.6668   18.3622 N   0  0  0  0  0  0  0  0  0  0  0  0
    7.7167  -13.3577   18.6177 C   0  0  0  0  0  0  0  0  0  0  0  0
    8.8265  -13.2576   19.3730 N   0  0  0  0  0  0  0  0  0  0  0  0
   11.5061  -16.2661   22.0964 C   0  0  0  0  0  0  0  0  0  0  0  0
   12.4584  -15.4452   22.0809 O   0  0  0  0  0  0  0  0  0  0  0  0
   12.2999  -18.8087   24.7349 C   0  0  0  0  0  0  0  0  0  0  0  0
   12.7031  -17.7820   23.6702 C   0  0  2  0  0  0  0  0  0  0  0  0
   11.5389  -17.4429   22.9130 N   0  0  0  0  0  0  0  0  0  0  0  0
   13.7592  -18.3916   22.8567 C   0  0  0  0  0  0  0  0  0  0  0  0
   15.0459  -18.6093   23.3428 O   0  0  0  0  0  0  0  0  0  0  0  0
   13.5278  -18.7416   21.6744 O   0  0  0  0  0  0  0  0  0  0  0  0
  2  1  1  1
  2 13  1  0
  2  3  1  0
  3  4  1  0
  4  5  2  0
  5  6  1  0
  7  6  1  0
  8  7  2  0
  9  8  1  0
 10 11  1  0
 10  9  2  0
 11 12  2  0
 12  4  1  0
 12  7  1  0
 13 14  2  0
 15 13  1  0
 15 16  1  0
 16 17  1  6
 18 17  1  0
 19 18  2  0
 20 21  1  0
 20 19  1  0
 21 22  2  0
 22 18  1  0
 23 24  2  0
 23 16  1  0
 26 25  1  1
 26 27  1  0
 27 23  1  0
 28 29  1  0
 28 26  1  0
 30 28  2  0
M  END
$$$$
