WHA.pdb
     RDKit          3D

 30 32  0  0  1  0  0  0  0  0999 V2000
    6.1983  -17.1618   23.6791 N   0  0  0  0  0  0  0  0  0  0  0  0
    7.3294  -16.2572   23.6321 C   0  0  1  0  0  0  0  0  0  0  0  0
    7.9567  -16.0409   24.9779 C   0  0  0  0  0  0  0  0  0  0  0  0
    7.0601  -15.1695   25.7692 C   0  0  0  0  0  0  0  0  0  0  0  0
    5.8945  -15.4905   26.4353 C   0  0  0  0  0  0  0  0  0  0  0  0
    5.4217  -14.3950   27.0113 N   0  0  0  0  0  0  0  0  0  0  0  0
    6.2377  -13.3539   26.7489 C   0  0  0  0  0  0  0  0  0  0  0  0
    6.1506  -12.0344   27.1339 C   0  0  0  0  0  0  0  0  0  0  0  0
    7.1323  -11.1565   26.7245 C   0  0  0  0  0  0  0  0  0  0  0  0
    8.1998  -11.5734   25.9370 C   0  0  0  0  0  0  0  0  0  0  0  0
    8.2432  -12.9081   25.5762 C   0  0  0  0  0  0  0  0  0  0  0  0
    7.2840  -13.8170   25.9635 C   0  0  0  0  0  0  0  0  0  0  0  0
    8.2841  -16.6829   22.5905 C   0  0  0  0  0  0  0  0  0  0  0  0
    8.3311  -17.8619   22.1681 O   0  0  0  0  0  0  0  0  0  0  0  0
    9.1850  -15.7399   22.0388 N   0  0  0  0  0  0  0  0  0  0  0  0
   10.1876  -16.1109   21.0592 C   0  0  1  0  0  0  0  0  0  0  0  0
   10.4349  -14.9376   20.1468 C   0  0  0  0  0  0  0  0  0  0  0  0
    9.2300  -14.5174   19.4271 C   0  0  0  0  0  0  0  0  0  0  0  0
    8.5791  -15.2897   18.4854 C   0  0  0  0  0  0  0  0  0  0  0  0
    7.5318  -14.5840   18.0478 N   0  0  0  0  0  0  0  0  0  0  0  0
    7.4874  -13.3947   18.6705 C   0  0  0  0  0  0  0  0  0  0  0  0
    8.5380  -13.3749   19.5120 N   0  0  0  0  0  0  0  0  0  0  0  0
   11.4226  -16.4743   21.7750 C   0  0  0  0  0  0  0  0  0  0  0  0
   12.4501  -16.7879   21.1215 O   0  0  0  0  0  0  0  0  0  0  0  0
   12.4943  -16.1916   25.3359 C   0  0  0  0  0  0  0  0  0  0  0  0
   12.5712  -16.8503   23.9537 C   0  0  2  0  0  0  0  0  0  0  0  0
   11.4161  -16.4593   23.2076 N   0  0  0  0  0  0  0  0  0  0  0  0
   12.6539  -18.2982   24.1664 C   0  0  0  0  0  0  0  0  0  0  0  0
   13.7638  -18.9065   24.7475 O   0  0  0  0  0  0  0  0  0  0  0  0
   11.7064  -19.0455   23.8234 O   0  0  0  0  0  0  0  0  0  0  0  0
  2  1  1  1
  2 13  1  0
  2  3  1  0
  3  4  1  0
  4  5  2  0
  5  6  1  0
  7  6  1  0
  8  7  2  0
  9  8  1  0
 10 11  1  0
 10  9  2  0
 11 12  2  0
 12  4  1  0
 12  7  1  0
 13 14  2  0
 15 13  1  0
 15 16  1  0
 16 17  1  6
 18 17  1  0
 19 18  2  0
 20 21  1  0
 20 19  1  0
 21 22  2  0
 22 18  1  0
 23 24  2  0
 23 16  1  0
 26 25  1  1
 26 27  1  0
 27 23  1  0
 28 29  1  0
 28 26  1  0
 30 28  2  0
M  END
$$$$
