WHA.pdb
     RDKit          3D

 30 32  0  0  1  0  0  0  0  0999 V2000
    6.4305  -17.7435   24.8326 N   0  0  0  0  0  0  0  0  0  0  0  0
    7.1613  -16.7644   24.0533 C   0  0  1  0  0  0  0  0  0  0  0  0
    7.9598  -15.8222   24.9054 C   0  0  0  0  0  0  0  0  0  0  0  0
    7.0241  -14.8624   25.5319 C   0  0  0  0  0  0  0  0  0  0  0  0
    5.8901  -15.1093   26.2794 C   0  0  0  0  0  0  0  0  0  0  0  0
    5.3605  -13.9493   26.6393 N   0  0  0  0  0  0  0  0  0  0  0  0
    6.1080  -12.9372   26.1539 C   0  0  0  0  0  0  0  0  0  0  0  0
    5.9469  -11.5744   26.2719 C   0  0  0  0  0  0  0  0  0  0  0  0
    6.8674  -10.7419   25.6705 C   0  0  0  0  0  0  0  0  0  0  0  0
    7.9463  -11.2467   24.9530 C   0  0  0  0  0  0  0  0  0  0  0  0
    8.0650  -12.6219   24.8629 C   0  0  0  0  0  0  0  0  0  0  0  0
    7.1686  -13.4879   25.4482 C   0  0  0  0  0  0  0  0  0  0  0  0
    7.9513  -17.4320   23.0009 C   0  0  0  0  0  0  0  0  0  0  0  0
    8.3010  -18.6324   23.0873 O   0  0  0  0  0  0  0  0  0  0  0  0
    8.3360  -16.7063   21.8473 N   0  0  0  0  0  0  0  0  0  0  0  0
    9.1933  -17.2764   20.8263 C   0  0  1  0  0  0  0  0  0  0  0  0
    9.0570  -16.4625   19.5656 C   0  0  0  0  0  0  0  0  0  0  0  0
    9.8121  -17.0268   18.4441 C   0  0  0  0  0  0  0  0  0  0  0  0
   10.5187  -18.2119   18.5017 C   0  0  0  0  0  0  0  0  0  0  0  0
   11.0736  -18.4026   17.3010 N   0  0  0  0  0  0  0  0  0  0  0  0
   10.7508  -17.3894   16.4802 C   0  0  0  0  0  0  0  0  0  0  0  0
    9.9767  -16.5571   17.2016 N   0  0  0  0  0  0  0  0  0  0  0  0
   10.5826  -17.2392   21.3141 C   0  0  0  0  0  0  0  0  0  0  0  0
   11.5126  -17.6471   20.5726 O   0  0  0  0  0  0  0  0  0  0  0  0
   12.1968  -15.7182   24.3270 C   0  0  0  0  0  0  0  0  0  0  0  0
   12.1557  -16.7331   23.1788 C   0  0  2  0  0  0  0  0  0  0  0  0
   10.8351  -16.7347   22.6310 N   0  0  0  0  0  0  0  0  0  0  0  0
   12.5486  -18.0321   23.7328 C   0  0  0  0  0  0  0  0  0  0  0  0
   13.7958  -18.2515   24.3122 O   0  0  0  0  0  0  0  0  0  0  0  0
   11.7548  -19.0030   23.6994 O   0  0  0  0  0  0  0  0  0  0  0  0
  2  1  1  1
  2 13  1  0
  2  3  1  0
  3  4  1  0
  4  5  2  0
  5  6  1  0
  7  6  1  0
  8  7  2  0
  9  8  1  0
 10 11  1  0
 10  9  2  0
 11 12  2  0
 12  4  1  0
 12  7  1  0
 13 14  2  0
 15 13  1  0
 15 16  1  0
 16 17  1  6
 18 17  1  0
 19 18  2  0
 20 21  1  0
 20 19  1  0
 21 22  2  0
 22 18  1  0
 23 24  2  0
 23 16  1  0
 26 25  1  1
 26 27  1  0
 27 23  1  0
 28 29  1  0
 28 26  1  0
 30 28  2  0
M  END
$$$$
