WHA.pdb
     RDKit          3D

 30 32  0  0  1  0  0  0  0  0999 V2000
    9.7163  -16.0495   22.4171 N   0  0  0  0  0  0  0  0  0  0  0  0
    8.9809  -15.7150   23.6202 C   0  0  1  0  0  0  0  0  0  0  0  0
    7.5191  -15.4927   23.3648 C   0  0  0  0  0  0  0  0  0  0  0  0
    7.2976  -14.0400   23.1919 C   0  0  0  0  0  0  0  0  0  0  0  0
    7.3483  -13.2795   22.0410 C   0  0  0  0  0  0  0  0  0  0  0  0
    7.0831  -12.0199   22.3550 N   0  0  0  0  0  0  0  0  0  0  0  0
    6.8571  -11.9188   23.6806 C   0  0  0  0  0  0  0  0  0  0  0  0
    6.5477  -10.8194   24.4505 C   0  0  0  0  0  0  0  0  0  0  0  0
    6.3633  -10.9884   25.8067 C   0  0  0  0  0  0  0  0  0  0  0  0
    6.4826  -12.2366   26.4079 C   0  0  0  0  0  0  0  0  0  0  0  0
    6.7946  -13.3098   25.5930 C   0  0  0  0  0  0  0  0  0  0  0  0
    6.9867  -13.1844   24.2352 C   0  0  0  0  0  0  0  0  0  0  0  0
    9.2576  -16.7018   24.6819 C   0  0  0  0  0  0  0  0  0  0  0  0
    8.7270  -16.6312   25.8151 O   0  0  0  0  0  0  0  0  0  0  0  0
   10.1508  -17.7710   24.4286 N   0  0  0  0  0  0  0  0  0  0  0  0
   10.5503  -18.7054   25.4630 C   0  0  1  0  0  0  0  0  0  0  0  0
   11.3941  -19.7882   24.8419 C   0  0  0  0  0  0  0  0  0  0  0  0
   11.7777  -20.8264   25.8018 C   0  0  0  0  0  0  0  0  0  0  0  0
   11.4430  -20.8072   27.1414 C   0  0  0  0  0  0  0  0  0  0  0  0
   11.9611  -21.9071   27.6964 N   0  0  0  0  0  0  0  0  0  0  0  0
   12.6119  -22.6267   26.7673 C   0  0  0  0  0  0  0  0  0  0  0  0
   12.4868  -21.9457   25.6129 N   0  0  0  0  0  0  0  0  0  0  0  0
   11.3238  -17.9700   26.4781 C   0  0  0  0  0  0  0  0  0  0  0  0
   12.4842  -17.5699   26.2055 O   0  0  0  0  0  0  0  0  0  0  0  0
   10.7318  -16.0323   29.4548 C   0  0  0  0  0  0  0  0  0  0  0  0
   11.4950  -17.2144   28.8461 C   0  0  2  0  0  0  0  0  0  0  0  0
   10.7252  -17.7303   27.7574 N   0  0  0  0  0  0  0  0  0  0  0  0
   11.7038  -18.1941   29.9161 C   0  0  0  0  0  0  0  0  0  0  0  0
   10.6882  -19.0301   30.3732 O   0  0  0  0  0  0  0  0  0  0  0  0
   12.8278  -18.3089   30.4615 O   0  0  0  0  0  0  0  0  0  0  0  0
  2  1  1  6
  2 13  1  0
  2  3  1  0
  3  4  1  0
  4  5  2  0
  5  6  1  0
  7  6  1  0
  8  7  2  0
  9  8  1  0
 10 11  1  0
 10  9  2  0
 11 12  2  0
 12  4  1  0
 12  7  1  0
 13 14  2  0
 15 13  1  0
 15 16  1  0
 16 17  1  6
 18 17  1  0
 19 18  2  0
 20 21  1  0
 20 19  1  0
 21 22  2  0
 22 18  1  0
 23 24  2  0
 23 16  1  0
 26 25  1  1
 26 27  1  0
 27 23  1  0
 28 29  1  0
 28 26  1  0
 30 28  2  0
M  END
$$$$
