WHA.pdb
     RDKit          3D

 30 32  0  0  1  0  0  0  0  0999 V2000
    6.8592  -16.9516   23.4515 N   0  0  0  0  0  0  0  0  0  0  0  0
    8.0437  -16.1303   23.6020 C   0  0  1  0  0  0  0  0  0  0  0  0
    8.5087  -16.0366   25.0255 C   0  0  0  0  0  0  0  0  0  0  0  0
    7.4881  -15.2914   25.7952 C   0  0  0  0  0  0  0  0  0  0  0  0
    6.3984  -15.7710   26.4938 C   0  0  0  0  0  0  0  0  0  0  0  0
    5.7565  -14.7444   27.0320 N   0  0  0  0  0  0  0  0  0  0  0  0
    6.3863  -13.5954   26.7129 C   0  0  0  0  0  0  0  0  0  0  0  0
    6.0858  -12.2928   27.0444 C   0  0  0  0  0  0  0  0  0  0  0  0
    6.9045  -11.2837   26.5825 C   0  0  0  0  0  0  0  0  0  0  0  0
    8.0184  -11.5527   25.7949 C   0  0  0  0  0  0  0  0  0  0  0  0
    8.2786  -12.8764   25.4889 C   0  0  0  0  0  0  0  0  0  0  0  0
    7.4870  -13.9133   25.9296 C   0  0  0  0  0  0  0  0  0  0  0  0
    9.0925  -16.5646   22.6593 C   0  0  0  0  0  0  0  0  0  0  0  0
    9.3323  -17.7744   22.4367 O   0  0  0  0  0  0  0  0  0  0  0  0
    9.8639  -15.5944   21.9744 N   0  0  0  0  0  0  0  0  0  0  0  0
   10.8571  -15.9570   20.9821 C   0  0  1  0  0  0  0  0  0  0  0  0
   11.1303  -14.7614   20.1068 C   0  0  0  0  0  0  0  0  0  0  0  0
    9.9668  -14.3677   19.3084 C   0  0  0  0  0  0  0  0  0  0  0  0
    9.1884  -15.2485   18.5835 C   0  0  0  0  0  0  0  0  0  0  0  0
    8.2281  -14.5339   17.9891 N   0  0  0  0  0  0  0  0  0  0  0  0
    8.3612  -13.2349   18.3043 C   0  0  0  0  0  0  0  0  0  0  0  0
    9.4336  -13.1555   19.1142 N   0  0  0  0  0  0  0  0  0  0  0  0
   12.0840  -16.3708   21.6843 C   0  0  0  0  0  0  0  0  0  0  0  0
   12.6124  -15.5952   22.5211 O   0  0  0  0  0  0  0  0  0  0  0  0
   14.1021  -19.5531   21.5880 C   0  0  0  0  0  0  0  0  0  0  0  0
   13.7795  -18.1469   22.1063 C   0  0  2  0  0  0  0  0  0  0  0  0
   12.6436  -17.6564   21.3901 N   0  0  0  0  0  0  0  0  0  0  0  0
   14.9786  -17.3265   21.9117 C   0  0  0  0  0  0  0  0  0  0  0  0
   16.0289  -17.3088   22.8260 O   0  0  0  0  0  0  0  0  0  0  0  0
   15.0940  -16.6021   20.8940 O   0  0  0  0  0  0  0  0  0  0  0  0
  2  1  1  1
  2 13  1  0
  2  3  1  0
  3  4  1  0
  4  5  2  0
  5  6  1  0
  7  6  1  0
  8  7  2  0
  9  8  1  0
 10 11  1  0
 10  9  2  0
 11 12  2  0
 12  4  1  0
 12  7  1  0
 13 14  2  0
 15 13  1  0
 15 16  1  0
 16 17  1  6
 18 17  1  0
 19 18  2  0
 20 21  1  0
 20 19  1  0
 21 22  2  0
 22 18  1  0
 23 24  2  0
 23 16  1  0
 26 25  1  6
 26 27  1  0
 27 23  1  0
 28 29  1  0
 28 26  1  0
 30 28  2  0
M  END
$$$$
