WHA.pdb
     RDKit          3D

 30 32  0  0  1  0  0  0  0  0999 V2000
    6.7272  -17.1641   24.1227 N   0  0  0  0  0  0  0  0  0  0  0  0
    7.8610  -16.3961   24.5966 C   0  0  1  0  0  0  0  0  0  0  0  0
    7.6969  -15.9322   26.0141 C   0  0  0  0  0  0  0  0  0  0  0  0
    6.6785  -14.8590   26.0323 C   0  0  0  0  0  0  0  0  0  0  0  0
    5.3162  -14.9509   26.2352 C   0  0  0  0  0  0  0  0  0  0  0  0
    4.7958  -13.7343   26.1666 N   0  0  0  0  0  0  0  0  0  0  0  0
    5.7709  -12.8348   25.9241 C   0  0  0  0  0  0  0  0  0  0  0  0
    5.7044  -11.4673   25.7737 C   0  0  0  0  0  0  0  0  0  0  0  0
    6.8677  -10.7685   25.5280 C   0  0  0  0  0  0  0  0  0  0  0  0
    8.0966  -11.4116   25.4297 C   0  0  0  0  0  0  0  0  0  0  0  0
    8.1120  -12.7856   25.5880 C   0  0  0  0  0  0  0  0  0  0  0  0
    6.9740  -13.5208   25.8344 C   0  0  0  0  0  0  0  0  0  0  0  0
    9.1171  -17.1306   24.3511 C   0  0  0  0  0  0  0  0  0  0  0  0
    9.2247  -18.3611   24.5631 O   0  0  0  0  0  0  0  0  0  0  0  0
   10.2494  -16.4367   23.8593 N   0  0  0  0  0  0  0  0  0  0  0  0
   11.5738  -17.0269   23.8514 C   0  0  1  0  0  0  0  0  0  0  0  0
   12.4168  -16.3183   22.8230 C   0  0  0  0  0  0  0  0  0  0  0  0
   11.9365  -16.5299   21.4552 C   0  0  0  0  0  0  0  0  0  0  0  0
   11.1314  -17.5834   21.0692 C   0  0  0  0  0  0  0  0  0  0  0  0
   10.8999  -17.4478   19.7599 N   0  0  0  0  0  0  0  0  0  0  0  0
   11.5232  -16.3525   19.2949 C   0  0  0  0  0  0  0  0  0  0  0  0
   12.1528  -15.8048   20.3512 N   0  0  0  0  0  0  0  0  0  0  0  0
   12.1597  -16.8687   25.1934 C   0  0  0  0  0  0  0  0  0  0  0  0
   13.3779  -17.1226   25.3734 O   0  0  0  0  0  0  0  0  0  0  0  0
   11.3112  -14.9462   28.1541 C   0  0  0  0  0  0  0  0  0  0  0  0
   11.8269  -16.2753   27.5903 C   0  0  2  0  0  0  0  0  0  0  0  0
   11.3162  -16.4259   26.2635 N   0  0  0  0  0  0  0  0  0  0  0  0
   11.3820  -17.3350   28.5000 C   0  0  0  0  0  0  0  0  0  0  0  0
   10.5249  -18.3558   28.0967 O   0  0  0  0  0  0  0  0  0  0  0  0
   11.7698  -17.3519   29.6930 O   0  0  0  0  0  0  0  0  0  0  0  0
  2  1  1  1
  2 13  1  0
  2  3  1  0
  3  4  1  0
  4  5  2  0
  5  6  1  0
  7  6  1  0
  8  7  2  0
  9  8  1  0
 10 11  1  0
 10  9  2  0
 11 12  2  0
 12  4  1  0
 12  7  1  0
 13 14  2  0
 15 13  1  0
 15 16  1  0
 16 17  1  6
 18 17  1  0
 19 18  2  0
 20 21  1  0
 20 19  1  0
 21 22  2  0
 22 18  1  0
 23 24  2  0
 23 16  1  0
 26 25  1  1
 26 27  1  0
 27 23  1  0
 28 29  1  0
 28 26  1  0
 30 28  2  0
M  END
$$$$
