WHA.pdb
     RDKit          3D

 30 32  0  0  1  0  0  0  0  0999 V2000
    7.9619  -15.5217   20.8065 N   0  0  0  0  0  0  0  0  0  0  0  0
    7.9548  -15.6043   22.2533 C   0  0  1  0  0  0  0  0  0  0  0  0
    6.5770  -15.7898   22.8179 C   0  0  0  0  0  0  0  0  0  0  0  0
    6.5504  -15.1946   24.1722 C   0  0  0  0  0  0  0  0  0  0  0  0
    6.1548  -15.7607   25.3675 C   0  0  0  0  0  0  0  0  0  0  0  0
    6.2988  -14.8607   26.3292 N   0  0  0  0  0  0  0  0  0  0  0  0
    6.7786  -13.7122   25.8102 C   0  0  0  0  0  0  0  0  0  0  0  0
    7.0827  -12.5164   26.4222 C   0  0  0  0  0  0  0  0  0  0  0  0
    7.5667  -11.4798   25.6519 C   0  0  0  0  0  0  0  0  0  0  0  0
    7.7523  -11.6166   24.2806 C   0  0  0  0  0  0  0  0  0  0  0  0
    7.4327  -12.8364   23.7122 C   0  0  0  0  0  0  0  0  0  0  0  0
    6.9470  -13.8964   24.4449 C   0  0  0  0  0  0  0  0  0  0  0  0
    8.9291  -16.6120   22.7146 C   0  0  0  0  0  0  0  0  0  0  0  0
    8.6052  -17.8017   22.9388 O   0  0  0  0  0  0  0  0  0  0  0  0
   10.2802  -16.2389   22.9162 N   0  0  0  0  0  0  0  0  0  0  0  0
   11.2921  -17.1929   23.3265 C   0  0  1  0  0  0  0  0  0  0  0  0
   12.6333  -16.7280   22.8212 C   0  0  0  0  0  0  0  0  0  0  0  0
   12.7575  -16.8365   21.3655 C   0  0  0  0  0  0  0  0  0  0  0  0
   12.9725  -15.7641   20.5225 C   0  0  0  0  0  0  0  0  0  0  0  0
   13.0298  -16.2434   19.2762 N   0  0  0  0  0  0  0  0  0  0  0  0
   12.8605  -17.5758   19.2889 C   0  0  0  0  0  0  0  0  0  0  0  0
   12.6952  -17.9186   20.5802 N   0  0  0  0  0  0  0  0  0  0  0  0
   11.2934  -17.2628   24.7978 C   0  0  0  0  0  0  0  0  0  0  0  0
   11.6347  -16.2547   25.4674 O   0  0  0  0  0  0  0  0  0  0  0  0
   10.0581  -19.8511   27.2152 C   0  0  0  0  0  0  0  0  0  0  0  0
   10.8851  -18.6124   26.8519 C   0  0  2  0  0  0  0  0  0  0  0  0
   10.9021  -18.4886   25.4277 N   0  0  0  0  0  0  0  0  0  0  0  0
   12.2204  -18.7972   27.4277 C   0  0  0  0  0  0  0  0  0  0  0  0
   12.4488  -18.7974   28.8015 O   0  0  0  0  0  0  0  0  0  0  0  0
   13.2158  -18.9640   26.6825 O   0  0  0  0  0  0  0  0  0  0  0  0
  2  1  1  6
  2 13  1  0
  2  3  1  0
  3  4  1  0
  4  5  2  0
  5  6  1  0
  7  6  1  0
  8  7  2  0
  9  8  1  0
 10 11  1  0
 10  9  2  0
 11 12  2  0
 12  4  1  0
 12  7  1  0
 13 14  2  0
 15 13  1  0
 15 16  1  0
 16 17  1  1
 18 17  1  0
 19 18  2  0
 20 21  1  0
 20 19  1  0
 21 22  2  0
 22 18  1  0
 23 24  2  0
 23 16  1  0
 26 25  1  6
 26 27  1  0
 27 23  1  0
 28 29  1  0
 28 26  1  0
 30 28  2  0
M  END
$$$$
