WHA.pdb
     RDKit          3D

 30 32  0  0  1  0  0  0  0  0999 V2000
    6.2787  -18.2413   24.9238 N   0  0  0  0  0  0  0  0  0  0  0  0
    6.7184  -16.8744   24.7281 C   0  0  1  0  0  0  0  0  0  0  0  0
    7.4857  -16.3373   25.9003 C   0  0  0  0  0  0  0  0  0  0  0  0
    6.7306  -15.1950   26.4607 C   0  0  0  0  0  0  0  0  0  0  0  0
    5.5440  -15.1940   27.1660 C   0  0  0  0  0  0  0  0  0  0  0  0
    5.2353  -13.9424   27.4719 N   0  0  0  0  0  0  0  0  0  0  0  0
    6.1810  -13.1096   26.9914 C   0  0  0  0  0  0  0  0  0  0  0  0
    6.2815  -11.7379   27.0656 C   0  0  0  0  0  0  0  0  0  0  0  0
    7.3664  -11.1185   26.4813 C   0  0  0  0  0  0  0  0  0  0  0  0
    8.3530  -11.8452   25.8239 C   0  0  0  0  0  0  0  0  0  0  0  0
    8.2075  -13.2199   25.7760 C   0  0  0  0  0  0  0  0  0  0  0  0
    7.1403  -13.8774   26.3461 C   0  0  0  0  0  0  0  0  0  0  0  0
    7.4269  -16.7426   23.4404 C   0  0  0  0  0  0  0  0  0  0  0  0
    8.2021  -17.6283   23.0100 O   0  0  0  0  0  0  0  0  0  0  0  0
    7.2361  -15.5821   22.6517 N   0  0  0  0  0  0  0  0  0  0  0  0
    7.8628  -15.4181   21.3544 C   0  0  1  0  0  0  0  0  0  0  0  0
    7.4194  -14.1058   20.7616 C   0  0  0  0  0  0  0  0  0  0  0  0
    7.9734  -13.8732   19.4254 C   0  0  0  0  0  0  0  0  0  0  0  0
    8.7358  -12.7744   19.0814 C   0  0  0  0  0  0  0  0  0  0  0  0
    9.0595  -12.9033   17.7911 N   0  0  0  0  0  0  0  0  0  0  0  0
    8.5358  -14.0377   17.2980 C   0  0  0  0  0  0  0  0  0  0  0  0
    7.8739  -14.6169   18.3171 N   0  0  0  0  0  0  0  0  0  0  0  0
    9.3238  -15.4300   21.5408 C   0  0  0  0  0  0  0  0  0  0  0  0
    9.8630  -14.5674   22.2797 O   0  0  0  0  0  0  0  0  0  0  0  0
   12.0051  -17.8853   20.8013 C   0  0  0  0  0  0  0  0  0  0  0  0
   11.5219  -16.4369   20.9388 C   0  0  2  0  0  0  0  0  0  0  0  0
   10.0940  -16.4336   20.8683 N   0  0  0  0  0  0  0  0  0  0  0  0
   12.1512  -15.6650   19.8633 C   0  0  0  0  0  0  0  0  0  0  0  0
   11.7124  -15.7268   18.5431 O   0  0  0  0  0  0  0  0  0  0  0  0
   13.1235  -14.9109   20.1080 O   0  0  0  0  0  0  0  0  0  0  0  0
  2  1  1  1
  2 13  1  0
  2  3  1  0
  3  4  1  0
  4  5  2  0
  5  6  1  0
  7  6  1  0
  8  7  2  0
  9  8  1  0
 10 11  1  0
 10  9  2  0
 11 12  2  0
 12  4  1  0
 12  7  1  0
 13 14  2  0
 15 13  1  0
 15 16  1  0
 16 17  1  1
 18 17  1  0
 19 18  2  0
 20 21  1  0
 20 19  1  0
 21 22  2  0
 22 18  1  0
 23 24  2  0
 23 16  1  0
 26 25  1  6
 26 27  1  0
 27 23  1  0
 28 29  1  0
 28 26  1  0
 30 28  2  0
M  END
$$$$
