WHA.pdb
     RDKit          3D

 30 32  0  0  1  0  0  0  0  0999 V2000
    6.4505  -17.1822   23.2567 N   0  0  0  0  0  0  0  0  0  0  0  0
    7.4993  -16.1829   23.2182 C   0  0  1  0  0  0  0  0  0  0  0  0
    8.1423  -15.9637   24.5562 C   0  0  0  0  0  0  0  0  0  0  0  0
    7.1795  -15.2415   25.4169 C   0  0  0  0  0  0  0  0  0  0  0  0
    6.1351  -15.7407   26.1689 C   0  0  0  0  0  0  0  0  0  0  0  0
    5.5368  -14.7309   26.7836 N   0  0  0  0  0  0  0  0  0  0  0  0
    6.1516  -13.5740   26.4635 C   0  0  0  0  0  0  0  0  0  0  0  0
    5.8821  -12.2826   26.8590 C   0  0  0  0  0  0  0  0  0  0  0  0
    6.6751  -11.2613   26.3790 C   0  0  0  0  0  0  0  0  0  0  0  0
    7.7329  -11.5074   25.5107 C   0  0  0  0  0  0  0  0  0  0  0  0
    7.9637  -12.8206   25.1426 C   0  0  0  0  0  0  0  0  0  0  0  0
    7.1962  -13.8690   25.5986 C   0  0  0  0  0  0  0  0  0  0  0  0
    8.4581  -16.4864   22.1383 C   0  0  0  0  0  0  0  0  0  0  0  0
    8.6999  -17.6593   21.7689 O   0  0  0  0  0  0  0  0  0  0  0  0
    9.1368  -15.4281   21.4867 N   0  0  0  0  0  0  0  0  0  0  0  0
   10.0602  -15.6601   20.3930 C   0  0  1  0  0  0  0  0  0  0  0  0
   10.1312  -14.4178   19.5434 C   0  0  0  0  0  0  0  0  0  0  0  0
    9.0614  -14.3543   18.5444 C   0  0  0  0  0  0  0  0  0  0  0  0
    8.1699  -15.3790   18.2952 C   0  0  0  0  0  0  0  0  0  0  0  0
    7.3470  -14.9635   17.3277 N   0  0  0  0  0  0  0  0  0  0  0  0
    7.6760  -13.7172   16.9495 C   0  0  0  0  0  0  0  0  0  0  0  0
    8.7299  -13.3630   17.7084 N   0  0  0  0  0  0  0  0  0  0  0  0
   11.3832  -15.9699   20.9615 C   0  0  0  0  0  0  0  0  0  0  0  0
   11.8687  -15.2228   21.8487 O   0  0  0  0  0  0  0  0  0  0  0  0
   12.7025  -18.0590   22.6052 C   0  0  0  0  0  0  0  0  0  0  0  0
   13.1907  -17.6673   21.2057 C   0  0  2  0  0  0  0  0  0  0  0  0
   12.0838  -17.1240   20.4822 N   0  0  0  0  0  0  0  0  0  0  0  0
   13.7451  -18.8741   20.5853 C   0  0  0  0  0  0  0  0  0  0  0  0
   15.0205  -19.3486   20.8813 O   0  0  0  0  0  0  0  0  0  0  0  0
   13.0711  -19.5268   19.7526 O   0  0  0  0  0  0  0  0  0  0  0  0
  2  1  1  1
  2 13  1  0
  2  3  1  0
  3  4  1  0
  4  5  2  0
  5  6  1  0
  7  6  1  0
  8  7  2  0
  9  8  1  0
 10 11  1  0
 10  9  2  0
 11 12  2  0
 12  4  1  0
 12  7  1  0
 13 14  2  0
 15 13  1  0
 15 16  1  0
 16 17  1  6
 18 17  1  0
 19 18  2  0
 20 21  1  0
 20 19  1  0
 21 22  2  0
 22 18  1  0
 23 24  2  0
 23 16  1  0
 26 25  1  1
 26 27  1  0
 27 23  1  0
 28 29  1  0
 28 26  1  0
 30 28  2  0
M  END
$$$$
