WHA.pdb
     RDKit          3D

 30 32  0  0  1  0  0  0  0  0999 V2000
    6.1411  -17.3194   23.6489 N   0  0  0  0  0  0  0  0  0  0  0  0
    7.1992  -16.3324   23.7277 C   0  0  1  0  0  0  0  0  0  0  0  0
    7.6232  -16.0466   25.1384 C   0  0  0  0  0  0  0  0  0  0  0  0
    6.6941  -15.0436   25.7042 C   0  0  0  0  0  0  0  0  0  0  0  0
    5.4711  -15.2329   26.3155 C   0  0  0  0  0  0  0  0  0  0  0  0
    4.9877  -14.0508   26.6684 N   0  0  0  0  0  0  0  0  0  0  0  0
    5.8525  -13.0798   26.3105 C   0  0  0  0  0  0  0  0  0  0  0  0
    5.7751  -11.7141   26.4712 C   0  0  0  0  0  0  0  0  0  0  0  0
    6.8115  -10.9307   26.0084 C   0  0  0  0  0  0  0  0  0  0  0  0
    7.9242  -11.4876   25.3876 C   0  0  0  0  0  0  0  0  0  0  0  0
    7.9557  -12.8635   25.2496 C   0  0  0  0  0  0  0  0  0  0  0  0
    6.9425  -13.6815   25.6974 C   0  0  0  0  0  0  0  0  0  0  0  0
    8.3133  -16.7018   22.8333 C   0  0  0  0  0  0  0  0  0  0  0  0
    8.5667  -17.8931   22.5377 O   0  0  0  0  0  0  0  0  0  0  0  0
    9.1340  -15.6882   22.2816 N   0  0  0  0  0  0  0  0  0  0  0  0
   10.2011  -15.9828   21.3451 C   0  0  1  0  0  0  0  0  0  0  0  0
   10.4438  -14.7692   20.4856 C   0  0  0  0  0  0  0  0  0  0  0  0
    9.2543  -14.3622   19.7334 C   0  0  0  0  0  0  0  0  0  0  0  0
    8.3723  -15.2430   19.1391 C   0  0  0  0  0  0  0  0  0  0  0  0
    7.4199  -14.5145   18.5489 N   0  0  0  0  0  0  0  0  0  0  0  0
    7.6572  -13.2065   18.7419 C   0  0  0  0  0  0  0  0  0  0  0  0
    8.7869  -13.1358   19.4707 N   0  0  0  0  0  0  0  0  0  0  0  0
   11.4121  -16.3188   22.1132 C   0  0  0  0  0  0  0  0  0  0  0  0
   12.4908  -16.5411   21.5067 O   0  0  0  0  0  0  0  0  0  0  0  0
   12.2337  -16.3298   25.7628 C   0  0  0  0  0  0  0  0  0  0  0  0
   12.4283  -16.8353   24.3287 C   0  0  2  0  0  0  0  0  0  0  0  0
   11.3238  -16.3828   23.5417 N   0  0  0  0  0  0  0  0  0  0  0  0
   12.5268  -18.2964   24.3926 C   0  0  0  0  0  0  0  0  0  0  0  0
   11.5768  -19.1358   23.8160 O   0  0  0  0  0  0  0  0  0  0  0  0
   13.4906  -18.8427   24.9812 O   0  0  0  0  0  0  0  0  0  0  0  0
  2  1  1  1
  2 13  1  0
  2  3  1  0
  3  4  1  0
  4  5  2  0
  5  6  1  0
  7  6  1  0
  8  7  2  0
  9  8  1  0
 10 11  1  0
 10  9  2  0
 11 12  2  0
 12  4  1  0
 12  7  1  0
 13 14  2  0
 15 13  1  0
 15 16  1  0
 16 17  1  1
 18 17  1  0
 19 18  2  0
 20 21  1  0
 20 19  1  0
 21 22  2  0
 22 18  1  0
 23 24  2  0
 23 16  1  0
 26 25  1  1
 26 27  1  0
 27 23  1  0
 28 29  1  0
 28 26  1  0
 30 28  2  0
M  END
$$$$
