WHA.pdb
     RDKit          3D

 30 32  0  0  1  0  0  0  0  0999 V2000
    6.4938  -17.8183   24.4143 N   0  0  0  0  0  0  0  0  0  0  0  0
    7.4290  -16.7384   24.1710 C   0  0  1  0  0  0  0  0  0  0  0  0
    7.9406  -16.1165   25.4370 C   0  0  0  0  0  0  0  0  0  0  0  0
    6.9422  -15.1278   25.9007 C   0  0  0  0  0  0  0  0  0  0  0  0
    5.7289  -15.3384   26.5244 C   0  0  0  0  0  0  0  0  0  0  0  0
    5.1653  -14.1626   26.7599 N   0  0  0  0  0  0  0  0  0  0  0  0
    5.9670  -13.1752   26.3117 C   0  0  0  0  0  0  0  0  0  0  0  0
    5.7980  -11.8086   26.3390 C   0  0  0  0  0  0  0  0  0  0  0  0
    6.7844  -11.0061   25.8050 C   0  0  0  0  0  0  0  0  0  0  0  0
    7.9370  -11.5448   25.2439 C   0  0  0  0  0  0  0  0  0  0  0  0
    8.0608  -12.9225   25.2400 C   0  0  0  0  0  0  0  0  0  0  0  0
    7.1000  -13.7592   25.7625 C   0  0  0  0  0  0  0  0  0  0  0  0
    8.4944  -17.1797   23.2503 C   0  0  0  0  0  0  0  0  0  0  0  0
    8.8331  -18.3819   23.1469 O   0  0  0  0  0  0  0  0  0  0  0  0
    9.1674  -16.2255   22.4492 N   0  0  0  0  0  0  0  0  0  0  0  0
   10.3287  -16.5680   21.6515 C   0  0  1  0  0  0  0  0  0  0  0  0
   10.5955  -15.4517   20.6752 C   0  0  0  0  0  0  0  0  0  0  0  0
   11.7496  -15.7186   19.8130 C   0  0  0  0  0  0  0  0  0  0  0  0
   12.9682  -16.1819   20.2682 C   0  0  0  0  0  0  0  0  0  0  0  0
   13.7690  -16.3049   19.2052 N   0  0  0  0  0  0  0  0  0  0  0  0
   13.1125  -15.9397   18.0917 C   0  0  0  0  0  0  0  0  0  0  0  0
   11.8759  -15.5838   18.4874 N   0  0  0  0  0  0  0  0  0  0  0  0
   11.4772  -16.7440   22.5568 C   0  0  0  0  0  0  0  0  0  0  0  0
   12.5880  -17.1020   22.0889 O   0  0  0  0  0  0  0  0  0  0  0  0
   12.0584  -16.0042   26.1771 C   0  0  0  0  0  0  0  0  0  0  0  0
   12.3194  -16.8121   24.9007 C   0  0  2  0  0  0  0  0  0  0  0  0
   11.2925  -16.4998   23.9564 N   0  0  0  0  0  0  0  0  0  0  0  0
   12.3394  -18.2281   25.2792 C   0  0  0  0  0  0  0  0  0  0  0  0
   11.4400  -19.1544   24.7572 O   0  0  0  0  0  0  0  0  0  0  0  0
   13.1858  -18.6536   26.1016 O   0  0  0  0  0  0  0  0  0  0  0  0
  2  1  1  1
  2 13  1  0
  2  3  1  0
  3  4  1  0
  4  5  2  0
  5  6  1  0
  7  6  1  0
  8  7  2  0
  9  8  1  0
 10 11  1  0
 10  9  2  0
 11 12  2  0
 12  4  1  0
 12  7  1  0
 13 14  2  0
 15 13  1  0
 15 16  1  0
 16 17  1  6
 18 17  1  0
 19 18  2  0
 20 21  1  0
 20 19  1  0
 21 22  2  0
 22 18  1  0
 23 24  2  0
 23 16  1  0
 26 25  1  1
 26 27  1  0
 27 23  1  0
 28 29  1  0
 28 26  1  0
 30 28  2  0
M  END
$$$$
