RHH.pdb
     RDKit          3D

 32 33  0  0  1  0  0  0  0  0999 V2000
   29.0688  -22.3543  -15.9864 N   0  0  0  0  0  0  0  0  0  0  0  0
   28.3619  -22.0596  -17.1645 C   0  0  0  0  0  0  0  0  0  0  0  0
   27.9845  -23.0075  -17.9388 N   0  0  0  0  0  0  0  0  0  0  0  0
   28.0751  -20.7164  -17.4963 N   0  0  0  0  0  0  0  0  0  0  0  0
   28.1066  -19.6833  -16.5261 C   0  0  0  0  0  0  0  0  0  0  0  0
   27.7645  -20.1446  -15.1445 C   0  0  0  0  0  0  0  0  0  0  0  0
   26.9376  -19.2138  -14.3233 C   0  0  0  0  0  0  0  0  0  0  0  0
   25.5349  -19.7613  -14.1669 C   0  0  2  0  0  0  0  0  0  0  0  0
   25.5729  -21.2299  -14.3006 N   0  0  0  0  0  0  0  0  0  0  0  0
   24.6630  -19.1983  -15.2198 C   0  0  0  0  0  0  0  0  0  0  0  0
   24.3235  -17.9975  -15.3222 O   0  0  0  0  0  0  0  0  0  0  0  0
   27.5464  -22.8391  -18.8562 N   0  0  0  0  0  0  0  0  0  0  0  0
   24.1049  -20.0233  -16.2647 C   0  0  1  0  0  0  0  0  0  0  0  0
   23.1998  -19.5106  -17.2603 C   0  0  0  0  0  0  0  0  0  0  0  0
   23.4136  -20.1152  -18.6118 C   0  0  0  0  0  0  0  0  0  0  0  0
   22.5923  -19.4607  -19.6521 C   0  0  0  0  0  0  0  0  0  0  0  0
   21.6897  -18.4362  -19.5152 N   0  0  0  0  0  0  0  0  0  0  0  0
   21.1675  -18.1503  -20.7210 C   0  0  0  0  0  0  0  0  0  0  0  0
   21.7228  -18.9731  -21.6111 N   0  0  0  0  0  0  0  0  0  0  0  0
   22.6026  -19.7826  -20.9510 C   0  0  0  0  0  0  0  0  0  0  0  0
   21.8447  -19.6155  -16.7361 O   0  0  0  0  0  0  0  0  0  0  0  0
   21.5878  -20.4412  -15.8256 N   0  0  0  0  0  0  0  0  0  0  0  0
   20.7504  -18.8233  -17.1956 C   0  0  1  0  0  0  0  0  0  0  0  0
   19.4012  -18.9299  -16.6490 C   0  0  0  0  0  0  0  0  0  0  0  0
   19.3793  -18.6870  -15.1831 C   0  0  0  0  0  0  0  0  0  0  0  0
   19.2015  -19.9311  -14.3870 C   0  0  0  0  0  0  0  0  0  0  0  0
   19.0939  -21.2090  -14.9577 N   0  0  0  0  0  0  0  0  0  0  0  0
   18.9444  -22.0645  -13.9636 C   0  0  0  0  0  0  0  0  0  0  0  0
   18.9528  -21.3906  -12.8044 N   0  0  0  0  0  0  0  0  0  0  0  0
   19.1094  -20.0812  -13.0480 C   0  0  0  0  0  0  0  0  0  0  0  0
   18.6169  -17.8745  -17.3895 O   0  0  0  0  0  0  0  0  0  0  0  0
   19.0445  -16.7197  -17.6114 O   0  0  0  0  0  0  0  0  0  0  0  0
  2  3  2  0
  2  1  1  0
  4  2  1  0
  5  4  1  0
  6  5  1  0
  7  6  1  0
  8  7  1  0
  8  9  1  6
 10  8  1  0
 10 12  1  0
 11 10  2  0
 13 12  1  0
 13 14  1  6
 14 15  1  0
 15 16  2  0
 16 17  1  0
 18 17  1  0
 19 15  1  0
 19 18  2  0
 20 13  1  0
 21 20  2  0
 22 20  1  0
 23 22  1  0
 23 30  1  0
 23 24  1  6
 25 24  1  0
 26 25  2  0
 27 26  1  0
 28 27  1  0
 28 29  2  0
 29 25  1  0
 30 32  1  0
 31 30  2  0
M  END
$$$$
