RHH.pdb
     RDKit          3D

 32 33  0  0  1  0  0  0  0  0999 V2000
   16.4572  -13.1826  -14.9528 N   0  0  0  0  0  0  0  0  0  0  0  0
   15.0938  -12.8829  -15.1135 C   0  0  0  0  0  0  0  0  0  0  0  0
   14.4080  -13.4836  -16.0132 N   0  0  0  0  0  0  0  0  0  0  0  0
   14.4836  -11.9132  -14.2866 N   0  0  0  0  0  0  0  0  0  0  0  0
   15.2285  -11.1543  -13.3490 C   0  0  0  0  0  0  0  0  0  0  0  0
   14.9652  -11.5308  -11.9251 C   0  0  0  0  0  0  0  0  0  0  0  0
   15.7838  -10.8294  -10.8944 C   0  0  0  0  0  0  0  0  0  0  0  0
   14.8844  -10.0787   -9.9355 C   0  0  2  0  0  0  0  0  0  0  0  0
   13.4770  -10.3822  -10.2567 N   0  0  0  0  0  0  0  0  0  0  0  0
   15.1140   -8.6250  -10.0761 C   0  0  0  0  0  0  0  0  0  0  0  0
   14.5788   -7.8800  -10.9283 O   0  0  0  0  0  0  0  0  0  0  0  0
   13.3860  -13.3821  -16.0977 N   0  0  0  0  0  0  0  0  0  0  0  0
   16.0154   -7.9109   -9.2036 C   0  0  1  0  0  0  0  0  0  0  0  0
   16.2845   -6.5036   -9.3468 C   0  0  0  0  0  0  0  0  0  0  0  0
   16.0574   -5.7333   -8.0847 C   0  0  0  0  0  0  0  0  0  0  0  0
   14.6202   -5.5845   -7.7728 C   0  0  0  0  0  0  0  0  0  0  0  0
   13.5401   -6.1296   -8.4202 N   0  0  0  0  0  0  0  0  0  0  0  0
   12.4141   -5.7332   -7.8009 C   0  0  0  0  0  0  0  0  0  0  0  0
   12.7645   -4.9513   -6.7793 N   0  0  0  0  0  0  0  0  0  0  0  0
   14.1269   -4.8592   -6.7620 C   0  0  0  0  0  0  0  0  0  0  0  0
   17.6064   -6.3543   -9.9406 O   0  0  0  0  0  0  0  0  0  0  0  0
   18.5644   -7.0475   -9.5180 N   0  0  0  0  0  0  0  0  0  0  0  0
   17.9039   -5.4487  -11.0025 C   0  0  1  0  0  0  0  0  0  0  0  0
   19.1110   -5.5416  -11.8178 C   0  0  0  0  0  0  0  0  0  0  0  0
   19.2712   -6.8934  -12.4138 C   0  0  0  0  0  0  0  0  0  0  0  0
   20.3514   -6.9578  -13.4348 C   0  0  0  0  0  0  0  0  0  0  0  0
   21.4437   -6.0768  -13.4657 N   0  0  0  0  0  0  0  0  0  0  0  0
   22.1906   -6.4238  -14.4973 C   0  0  0  0  0  0  0  0  0  0  0  0
   21.6243   -7.4726  -15.1115 N   0  0  0  0  0  0  0  0  0  0  0  0
   20.4955   -7.8112  -14.4715 C   0  0  0  0  0  0  0  0  0  0  0  0
   18.9183   -4.4929  -12.8858 O   0  0  0  0  0  0  0  0  0  0  0  0
   17.7983   -4.0695  -13.2489 O   0  0  0  0  0  0  0  0  0  0  0  0
  2  3  2  0
  2  1  1  0
  4  2  1  0
  5  4  1  0
  6  5  1  0
  7  6  1  0
  8  7  1  0
  8  9  1  6
 10  8  1  0
 10 12  1  0
 11 10  2  0
 13 12  1  0
 13 14  1  6
 14 15  1  0
 15 16  2  0
 16 17  1  0
 18 17  1  0
 19 15  1  0
 19 18  2  0
 20 13  1  0
 21 20  2  0
 22 20  1  0
 23 22  1  0
 23 30  1  0
 23 24  1  1
 25 24  1  0
 26 25  2  0
 27 26  1  0
 28 27  1  0
 28 29  2  0
 29 25  1  0
 30 32  1  0
 31 30  2  0
M  END
$$$$
