RHH.pdb
     RDKit          3D

 32 33  0  0  1  0  0  0  0  0999 V2000
   48.6155  -15.2335   -5.9534 N   0  0  0  0  0  0  0  0  0  0  0  0
   49.0387  -14.2398   -6.8524 C   0  0  0  0  0  0  0  0  0  0  0  0
   50.2880  -13.9970   -6.9968 N   0  0  0  0  0  0  0  0  0  0  0  0
   48.0837  -13.5048   -7.5902 N   0  0  0  0  0  0  0  0  0  0  0  0
   46.6907  -13.6831   -7.3970 C   0  0  0  0  0  0  0  0  0  0  0  0
   45.8453  -12.8463   -8.3047 C   0  0  0  0  0  0  0  0  0  0  0  0
   44.3731  -12.9010   -8.0725 C   0  0  0  0  0  0  0  0  0  0  0  0
   43.6470  -12.1027   -9.1342 C   0  0  2  0  0  0  0  0  0  0  0  0
   44.6050  -11.7188  -10.1882 N   0  0  0  0  0  0  0  0  0  0  0  0
   43.0722  -10.8820   -8.5297 C   0  0  0  0  0  0  0  0  0  0  0  0
   42.2964  -10.8490   -7.5476 O   0  0  0  0  0  0  0  0  0  0  0  0
   50.6498  -13.3163   -7.6806 N   0  0  0  0  0  0  0  0  0  0  0  0
   43.3706   -9.5669   -9.0448 C   0  0  1  0  0  0  0  0  0  0  0  0
   42.7760   -8.3692   -8.5108 C   0  0  0  0  0  0  0  0  0  0  0  0
   43.7878   -7.3806   -8.0244 C   0  0  0  0  0  0  0  0  0  0  0  0
   43.1655   -6.2662   -7.2788 C   0  0  0  0  0  0  0  0  0  0  0  0
   41.8437   -6.0767   -6.9630 N   0  0  0  0  0  0  0  0  0  0  0  0
   41.7195   -4.9278   -6.2752 C   0  0  0  0  0  0  0  0  0  0  0  0
   42.9346   -4.3927   -6.1528 N   0  0  0  0  0  0  0  0  0  0  0  0
   43.8277   -5.2191   -6.7728 C   0  0  0  0  0  0  0  0  0  0  0  0
   41.8263   -7.8602   -9.4912 O   0  0  0  0  0  0  0  0  0  0  0  0
   42.2158   -7.5743  -10.6503 N   0  0  0  0  0  0  0  0  0  0  0  0
   40.4397   -7.6555   -9.2238 C   0  0  1  0  0  0  0  0  0  0  0  0
   39.5047   -7.1258  -10.2116 C   0  0  0  0  0  0  0  0  0  0  0  0
   38.3878   -8.0699  -10.4756 C   0  0  0  0  0  0  0  0  0  0  0  0
   38.7474   -9.1463  -11.4375 C   0  0  0  0  0  0  0  0  0  0  0  0
   40.0149   -9.2679  -12.0280 N   0  0  0  0  0  0  0  0  0  0  0  0
   39.9724  -10.3230  -12.8200 C   0  0  0  0  0  0  0  0  0  0  0  0
   38.7482  -10.8663  -12.7559 N   0  0  0  0  0  0  0  0  0  0  0  0
   37.9857  -10.1554  -11.9123 C   0  0  0  0  0  0  0  0  0  0  0  0
   39.0019   -5.8432   -9.5954 O   0  0  0  0  0  0  0  0  0  0  0  0
   39.2551   -5.4908   -8.4219 O   0  0  0  0  0  0  0  0  0  0  0  0
  2  3  2  0
  2  1  1  0
  4  2  1  0
  5  4  1  0
  6  5  1  0
  7  6  1  0
  8  7  1  0
  8  9  1  6
 10  8  1  0
 10 12  1  0
 11 10  2  0
 13 12  1  0
 13 14  1  1
 14 15  1  0
 15 16  2  0
 16 17  1  0
 18 17  1  0
 19 15  1  0
 19 18  2  0
 20 13  1  0
 21 20  2  0
 22 20  1  0
 23 22  1  0
 23 30  1  0
 23 24  1  6
 25 24  1  0
 26 25  2  0
 27 26  1  0
 28 27  1  0
 28 29  2  0
 29 25  1  0
 30 32  1  0
 31 30  2  0
M  END
$$$$
