RHH.pdb
     RDKit          3D

 32 33  0  0  1  0  0  0  0  0999 V2000
   47.8586  -15.6345   -6.9751 N   0  0  0  0  0  0  0  0  0  0  0  0
   48.1311  -14.8193   -8.0868 C   0  0  0  0  0  0  0  0  0  0  0  0
   48.8027  -15.2850   -9.0730 N   0  0  0  0  0  0  0  0  0  0  0  0
   47.6696  -13.4840   -8.1108 N   0  0  0  0  0  0  0  0  0  0  0  0
   46.9492  -12.9220   -7.0269 C   0  0  0  0  0  0  0  0  0  0  0  0
   46.4526  -11.5351   -7.2889 C   0  0  0  0  0  0  0  0  0  0  0  0
   45.7805  -10.8480   -6.1485 C   0  0  0  0  0  0  0  0  0  0  0  0
   44.2919  -10.7455   -6.4046 C   0  0  2  0  0  0  0  0  0  0  0  0
   43.8958  -11.7886   -7.3696 N   0  0  0  0  0  0  0  0  0  0  0  0
   43.9764   -9.4154   -6.9675 C   0  0  0  0  0  0  0  0  0  0  0  0
   44.1629   -8.3173   -6.3955 O   0  0  0  0  0  0  0  0  0  0  0  0
   48.9505  -14.7590   -9.9467 N   0  0  0  0  0  0  0  0  0  0  0  0
   43.4007   -9.2647   -8.2826 C   0  0  1  0  0  0  0  0  0  0  0  0
   42.9929   -7.9891   -8.8115 C   0  0  0  0  0  0  0  0  0  0  0  0
   43.0603   -7.9264  -10.3046 C   0  0  0  0  0  0  0  0  0  0  0  0
   42.6732   -6.5982  -10.8253 C   0  0  0  0  0  0  0  0  0  0  0  0
   43.3553   -5.4105  -10.7405 N   0  0  0  0  0  0  0  0  0  0  0  0
   42.6379   -4.4506  -11.3507 C   0  0  0  0  0  0  0  0  0  0  0  0
   41.5209   -5.0102  -11.8161 N   0  0  0  0  0  0  0  0  0  0  0  0
   41.5425   -6.3365  -11.4915 C   0  0  0  0  0  0  0  0  0  0  0  0
   41.7009   -7.6508   -8.2296 O   0  0  0  0  0  0  0  0  0  0  0  0
   40.7811   -8.5054   -8.2076 N   0  0  0  0  0  0  0  0  0  0  0  0
   41.3922   -6.3778   -7.6636 C   0  0  1  0  0  0  0  0  0  0  0  0
   40.0537   -6.0052   -7.2161 C   0  0  0  0  0  0  0  0  0  0  0  0
   40.0414   -5.6091   -5.7839 C   0  0  0  0  0  0  0  0  0  0  0  0
   38.7105   -5.1323   -5.3207 C   0  0  0  0  0  0  0  0  0  0  0  0
   37.5185   -5.8468   -5.5175 N   0  0  0  0  0  0  0  0  0  0  0  0
   36.5462   -5.1299   -4.9853 C   0  0  0  0  0  0  0  0  0  0  0  0
   37.0662   -4.0077   -4.4674 N   0  0  0  0  0  0  0  0  0  0  0  0
   38.3924   -3.9949   -4.6656 C   0  0  0  0  0  0  0  0  0  0  0  0
   39.6743   -4.8474   -8.1065 O   0  0  0  0  0  0  0  0  0  0  0  0
   40.5034   -4.0533   -8.6040 O   0  0  0  0  0  0  0  0  0  0  0  0
  2  3  2  0
  2  1  1  0
  4  2  1  0
  5  4  1  0
  6  5  1  0
  7  6  1  0
  8  7  1  0
  8  9  1  6
 10  8  1  0
 10 12  1  0
 11 10  2  0
 13 12  1  0
 13 14  1  1
 14 15  1  0
 15 16  2  0
 16 17  1  0
 18 17  1  0
 19 15  1  0
 19 18  2  0
 20 13  1  0
 21 20  2  0
 22 20  1  0
 23 22  1  0
 23 30  1  0
 23 24  1  6
 25 24  1  0
 26 25  2  0
 27 26  1  0
 28 27  1  0
 28 29  2  0
 29 25  1  0
 30 32  1  0
 31 30  2  0
M  END
$$$$
