RHH.pdb
     RDKit          3D

 32 33  0  0  1  0  0  0  0  0999 V2000
   48.9158   -9.8281   -6.3086 N   0  0  0  0  0  0  0  0  0  0  0  0
   48.5239  -10.5470   -5.1666 C   0  0  0  0  0  0  0  0  0  0  0  0
   48.9540  -10.1982   -4.0117 N   0  0  0  0  0  0  0  0  0  0  0  0
   47.6614  -11.6587   -5.2959 N   0  0  0  0  0  0  0  0  0  0  0  0
   47.5793  -12.4057   -6.4980 C   0  0  0  0  0  0  0  0  0  0  0  0
   46.1894  -12.5241   -7.0393 C   0  0  0  0  0  0  0  0  0  0  0  0
   45.7812  -11.4976   -8.0412 C   0  0  0  0  0  0  0  0  0  0  0  0
   44.7159  -10.5936   -7.4583 C   0  0  2  0  0  0  0  0  0  0  0  0
   43.9226  -11.3552   -6.4751 N   0  0  0  0  0  0  0  0  0  0  0  0
   43.8260  -10.1163   -8.5381 C   0  0  0  0  0  0  0  0  0  0  0  0
   44.1537   -9.3425   -9.4663 O   0  0  0  0  0  0  0  0  0  0  0  0
   48.6959  -10.6939   -3.1459 N   0  0  0  0  0  0  0  0  0  0  0  0
   42.4423  -10.5205   -8.6158 C   0  0  2  0  0  0  0  0  0  0  0  0
   41.5525  -10.0535   -9.6470 C   0  0  0  0  0  0  0  0  0  0  0  0
   40.4089  -10.9845   -9.8985 C   0  0  0  0  0  0  0  0  0  0  0  0
   39.5660  -10.5403  -11.0286 C   0  0  0  0  0  0  0  0  0  0  0  0
   39.7841   -9.5116  -11.9102 N   0  0  0  0  0  0  0  0  0  0  0  0
   38.7612   -9.4590  -12.7816 C   0  0  0  0  0  0  0  0  0  0  0  0
   37.9063  -10.4322  -12.4657 N   0  0  0  0  0  0  0  0  0  0  0  0
   38.4031  -11.0999  -11.3829 C   0  0  0  0  0  0  0  0  0  0  0  0
   41.1827   -8.6791   -9.3366 O   0  0  0  0  0  0  0  0  0  0  0  0
   40.8038   -8.3793   -8.1775 N   0  0  0  0  0  0  0  0  0  0  0  0
   41.2203   -7.6120  -10.2832 C   0  0  1  0  0  0  0  0  0  0  0  0
   40.7240   -6.2699   -9.9950 C   0  0  0  0  0  0  0  0  0  0  0  0
   41.8031   -5.2521  -10.0837 C   0  0  0  0  0  0  0  0  0  0  0  0
   41.3141   -3.8622   -9.8774 C   0  0  0  0  0  0  0  0  0  0  0  0
   40.7372   -3.4122   -8.6796 N   0  0  0  0  0  0  0  0  0  0  0  0
   40.4220   -2.1426   -8.8559 C   0  0  0  0  0  0  0  0  0  0  0  0
   40.7705   -1.7760  -10.0977 N   0  0  0  0  0  0  0  0  0  0  0  0
   41.3187   -2.8200  -10.7363 C   0  0  0  0  0  0  0  0  0  0  0  0
   39.6633   -6.0343  -11.0423 O   0  0  0  0  0  0  0  0  0  0  0  0
   38.5637   -5.4862  -10.8058 O   0  0  0  0  0  0  0  0  0  0  0  0
  2  3  2  0
  2  1  1  0
  4  2  1  0
  5  4  1  0
  6  5  1  0
  7  6  1  0
  8  7  1  0
  8  9  1  1
 10  8  1  0
 10 12  1  0
 11 10  2  0
 13 12  1  0
 13 14  1  6
 14 15  1  0
 15 16  2  0
 16 17  1  0
 18 17  1  0
 19 15  1  0
 19 18  2  0
 20 13  1  0
 21 20  2  0
 22 20  1  0
 23 22  1  0
 23 30  1  0
 23 24  1  6
 25 24  1  0
 26 25  2  0
 27 26  1  0
 28 27  1  0
 28 29  2  0
 29 25  1  0
 30 32  1  0
 31 30  2  0
M  END
$$$$
