RHH.pdb
     RDKit          3D

 32 33  0  0  1  0  0  0  0  0999 V2000
   27.3664  -25.2496  -16.7056 N   0  0  0  0  0  0  0  0  0  0  0  0
   26.0611  -25.4516  -17.1852 C   0  0  0  0  0  0  0  0  0  0  0  0
   25.5205  -26.6098  -17.1021 N   0  0  0  0  0  0  0  0  0  0  0  0
   25.3500  -24.3773  -17.7655 N   0  0  0  0  0  0  0  0  0  0  0  0
   25.8850  -23.0654  -17.8133 C   0  0  0  0  0  0  0  0  0  0  0  0
   25.9056  -22.3750  -16.4860 C   0  0  0  0  0  0  0  0  0  0  0  0
   24.8378  -21.3602  -16.2527 C   0  0  0  0  0  0  0  0  0  0  0  0
   25.1447  -20.0931  -17.0221 C   0  0  2  0  0  0  0  0  0  0  0  0
   26.5677  -19.7501  -16.8384 N   0  0  0  0  0  0  0  0  0  0  0  0
   24.3068  -18.9876  -16.5106 C   0  0  0  0  0  0  0  0  0  0  0  0
   24.1413  -18.6942  -15.3047 O   0  0  0  0  0  0  0  0  0  0  0  0
   24.5720  -26.8103  -17.4515 N   0  0  0  0  0  0  0  0  0  0  0  0
   23.5762  -18.1151  -17.3987 C   0  0  1  0  0  0  0  0  0  0  0  0
   22.7744  -17.0172  -16.9245 C   0  0  0  0  0  0  0  0  0  0  0  0
   23.2917  -15.6835  -17.3619 C   0  0  0  0  0  0  0  0  0  0  0  0
   24.6442  -15.4086  -16.8326 C   0  0  0  0  0  0  0  0  0  0  0  0
   24.9987  -14.8488  -15.6309 N   0  0  0  0  0  0  0  0  0  0  0  0
   26.3399  -14.7835  -15.5585 C   0  0  0  0  0  0  0  0  0  0  0  0
   26.8343  -15.2899  -16.6884 N   0  0  0  0  0  0  0  0  0  0  0  0
   25.7871  -15.6758  -17.4755 C   0  0  0  0  0  0  0  0  0  0  0  0
   21.3851  -17.2913  -17.2665 O   0  0  0  0  0  0  0  0  0  0  0  0
   21.1156  -18.0573  -18.2243 N   0  0  0  0  0  0  0  0  0  0  0  0
   20.2700  -16.7357  -16.5707 C   0  0  1  0  0  0  0  0  0  0  0  0
   19.1295  -17.5299  -16.1247 C   0  0  0  0  0  0  0  0  0  0  0  0
   19.5436  -18.6224  -15.2064 C   0  0  0  0  0  0  0  0  0  0  0  0
   18.3960  -19.4060  -14.6752 C   0  0  0  0  0  0  0  0  0  0  0  0
   17.1219  -18.8615  -14.4509 N   0  0  0  0  0  0  0  0  0  0  0  0
   16.3639  -19.8338  -13.9792 C   0  0  0  0  0  0  0  0  0  0  0  0
   17.0951  -20.9548  -13.8971 N   0  0  0  0  0  0  0  0  0  0  0  0
   18.3435  -20.7080  -14.3202 C   0  0  0  0  0  0  0  0  0  0  0  0
   18.2370  -16.5354  -15.4234 O   0  0  0  0  0  0  0  0  0  0  0  0
   18.6086  -15.3914  -15.0788 O   0  0  0  0  0  0  0  0  0  0  0  0
  2  3  2  0
  2  1  1  0
  4  2  1  0
  5  4  1  0
  6  5  1  0
  7  6  1  0
  8  7  1  0
  8  9  1  1
 10  8  1  0
 10 12  1  0
 11 10  2  0
 13 12  1  0
 13 14  1  1
 14 15  1  0
 15 16  2  0
 16 17  1  0
 18 17  1  0
 19 15  1  0
 19 18  2  0
 20 13  1  0
 21 20  2  0
 22 20  1  0
 23 22  1  0
 23 30  1  0
 23 24  1  6
 25 24  1  0
 26 25  2  0
 27 26  1  0
 28 27  1  0
 28 29  2  0
 29 25  1  0
 30 32  1  0
 31 30  2  0
M  END
$$$$
