RHH.pdb
     RDKit          3D

 32 33  0  0  1  0  0  0  0  0999 V2000
   22.5272  -14.1827  -21.6115 N   0  0  0  0  0  0  0  0  0  0  0  0
   22.7622  -12.8182  -21.3718 C   0  0  0  0  0  0  0  0  0  0  0  0
   22.8437  -12.0003  -22.3541 N   0  0  0  0  0  0  0  0  0  0  0  0
   22.9158  -12.3522  -20.0467 N   0  0  0  0  0  0  0  0  0  0  0  0
   22.8843  -13.2325  -18.9360 C   0  0  0  0  0  0  0  0  0  0  0  0
   24.1587  -13.2588  -18.1525 C   0  0  0  0  0  0  0  0  0  0  0  0
   24.1962  -14.1840  -16.9833 C   0  0  0  0  0  0  0  0  0  0  0  0
   24.8668  -15.4854  -17.3687 C   0  0  2  0  0  0  0  0  0  0  0  0
   25.5109  -15.3244  -18.6860 N   0  0  0  0  0  0  0  0  0  0  0  0
   23.8543  -16.5597  -17.4491 C   0  0  0  0  0  0  0  0  0  0  0  0
   22.9772  -16.6719  -18.3354 O   0  0  0  0  0  0  0  0  0  0  0  0
   23.0325  -10.9948  -22.2302 N   0  0  0  0  0  0  0  0  0  0  0  0
   23.7892  -17.6166  -16.4679 C   0  0  2  0  0  0  0  0  0  0  0  0
   22.8526  -18.7063  -16.5597 C   0  0  0  0  0  0  0  0  0  0  0  0
   23.4133  -20.0026  -16.0667 C   0  0  0  0  0  0  0  0  0  0  0  0
   22.4682  -21.1245  -16.2488 C   0  0  0  0  0  0  0  0  0  0  0  0
   22.1823  -21.8295  -17.3908 N   0  0  0  0  0  0  0  0  0  0  0  0
   21.2612  -22.7671  -17.1059 C   0  0  0  0  0  0  0  0  0  0  0  0
   20.9632  -22.6653  -15.8104 N   0  0  0  0  0  0  0  0  0  0  0  0
   21.7085  -21.6507  -15.2809 C   0  0  0  0  0  0  0  0  0  0  0  0
   21.6068  -18.2856  -15.9326 O   0  0  0  0  0  0  0  0  0  0  0  0
   21.6357  -17.5808  -14.8937 N   0  0  0  0  0  0  0  0  0  0  0  0
   20.3124  -18.6260  -16.4275 C   0  0  1  0  0  0  0  0  0  0  0  0
   19.0761  -18.2988  -15.7240 C   0  0  0  0  0  0  0  0  0  0  0  0
   18.2341  -17.3515  -16.5000 C   0  0  0  0  0  0  0  0  0  0  0  0
   16.9128  -17.0911  -15.8678 C   0  0  0  0  0  0  0  0  0  0  0  0
   16.7580  -16.4492  -14.6292 N   0  0  0  0  0  0  0  0  0  0  0  0
   15.4625  -16.3933  -14.3825 C   0  0  0  0  0  0  0  0  0  0  0  0
   14.8008  -16.9650  -15.3989 N   0  0  0  0  0  0  0  0  0  0  0  0
   15.6768  -17.3980  -16.3173 C   0  0  0  0  0  0  0  0  0  0  0  0
   18.3848  -19.6291  -15.5516 O   0  0  0  0  0  0  0  0  0  0  0  0
   17.3444  -19.7885  -14.8750 O   0  0  0  0  0  0  0  0  0  0  0  0
  2  3  2  0
  2  1  1  0
  4  2  1  0
  5  4  1  0
  6  5  1  0
  7  6  1  0
  8  7  1  0
  8  9  1  6
 10  8  1  0
 10 12  1  0
 11 10  2  0
 13 12  1  0
 13 14  1  1
 14 15  1  0
 15 16  2  0
 16 17  1  0
 18 17  1  0
 19 15  1  0
 19 18  2  0
 20 13  1  0
 21 20  2  0
 22 20  1  0
 23 22  1  0
 23 30  1  0
 23 24  1  1
 25 24  1  0
 26 25  2  0
 27 26  1  0
 28 27  1  0
 28 29  2  0
 29 25  1  0
 30 32  1  0
 31 30  2  0
M  END
$$$$
