RHH.pdb
     RDKit          3D

 32 33  0  0  1  0  0  0  0  0999 V2000
   16.3644  -15.8995  -20.0558 N   0  0  0  0  0  0  0  0  0  0  0  0
   17.5613  -16.4078  -19.5233 C   0  0  0  0  0  0  0  0  0  0  0  0
   17.6989  -17.6688  -19.3467 N   0  0  0  0  0  0  0  0  0  0  0  0
   18.6086  -15.5249  -19.1764 N   0  0  0  0  0  0  0  0  0  0  0  0
   18.4823  -14.1205  -19.3233 C   0  0  0  0  0  0  0  0  0  0  0  0
   19.2307  -13.5683  -20.4954 C   0  0  0  0  0  0  0  0  0  0  0  0
   18.9273  -12.1561  -20.8668 C   0  0  0  0  0  0  0  0  0  0  0  0
   20.0852  -11.2567  -20.4897 C   0  0  2  0  0  0  0  0  0  0  0  0
   21.3238  -12.0570  -20.4484 N   0  0  0  0  0  0  0  0  0  0  0  0
   19.8409  -10.6674  -19.1560 C   0  0  0  0  0  0  0  0  0  0  0  0
   18.8148  -10.0373  -18.8127 O   0  0  0  0  0  0  0  0  0  0  0  0
   18.5539  -18.0882  -18.9527 N   0  0  0  0  0  0  0  0  0  0  0  0
   20.8087  -10.7735  -18.0903 C   0  0  2  0  0  0  0  0  0  0  0  0
   20.6024  -10.1878  -16.7912 C   0  0  0  0  0  0  0  0  0  0  0  0
   20.6239  -11.1949  -15.6854 C   0  0  0  0  0  0  0  0  0  0  0  0
   19.4419  -12.0821  -15.7156 C   0  0  0  0  0  0  0  0  0  0  0  0
   19.3620  -13.3927  -16.1142 N   0  0  0  0  0  0  0  0  0  0  0  0
   18.0920  -13.8137  -15.9782 C   0  0  0  0  0  0  0  0  0  0  0  0
   17.3739  -12.7958  -15.5031 N   0  0  0  0  0  0  0  0  0  0  0  0
   18.2074  -11.7262  -15.3410 C   0  0  0  0  0  0  0  0  0  0  0  0
   21.5334   -9.0772  -16.6431 O   0  0  0  0  0  0  0  0  0  0  0  0
   22.6644   -9.1318  -17.1859 N   0  0  0  0  0  0  0  0  0  0  0  0
   21.2464   -7.8918  -15.9023 C   0  0  1  0  0  0  0  0  0  0  0  0
   22.1585   -6.7547  -15.8284 C   0  0  0  0  0  0  0  0  0  0  0  0
   22.5538   -6.2762  -17.1787 C   0  0  0  0  0  0  0  0  0  0  0  0
   23.4043   -5.0562  -17.1407 C   0  0  0  0  0  0  0  0  0  0  0  0
   24.5056   -4.9043  -16.2838 N   0  0  0  0  0  0  0  0  0  0  0  0
   25.0155   -3.7096  -16.5185 C   0  0  0  0  0  0  0  0  0  0  0  0
   24.2930   -3.1081  -17.4746 N   0  0  0  0  0  0  0  0  0  0  0  0
   23.3012   -3.9216  -17.8659 C   0  0  0  0  0  0  0  0  0  0  0  0
   21.3773   -5.7009  -15.0824 O   0  0  0  0  0  0  0  0  0  0  0  0
   20.1910   -5.8478  -14.7127 O   0  0  0  0  0  0  0  0  0  0  0  0
  2  3  2  0
  2  1  1  0
  4  2  1  0
  5  4  1  0
  6  5  1  0
  7  6  1  0
  8  7  1  0
  8  9  1  1
 10  8  1  0
 10 12  1  0
 11 10  2  0
 13 12  1  0
 13 14  1  6
 14 15  1  0
 15 16  2  0
 16 17  1  0
 18 17  1  0
 19 15  1  0
 19 18  2  0
 20 13  1  0
 21 20  2  0
 22 20  1  0
 23 22  1  0
 23 30  1  0
 23 24  1  1
 25 24  1  0
 26 25  2  0
 27 26  1  0
 28 27  1  0
 28 29  2  0
 29 25  1  0
 30 32  1  0
 31 30  2  0
M  END
$$$$
