RHH.pdb
     RDKit          3D

 32 33  0  0  1  0  0  0  0  0999 V2000
   23.9743  -16.4161  -19.3545 N   0  0  0  0  0  0  0  0  0  0  0  0
   24.0486  -16.1163  -20.7253 C   0  0  0  0  0  0  0  0  0  0  0  0
   24.2637  -17.0509  -21.5743 N   0  0  0  0  0  0  0  0  0  0  0  0
   23.8931  -14.7821  -21.1638 N   0  0  0  0  0  0  0  0  0  0  0  0
   23.1717  -13.8252  -20.4064 C   0  0  0  0  0  0  0  0  0  0  0  0
   23.1194  -12.4710  -21.0406 C   0  0  0  0  0  0  0  0  0  0  0  0
   22.4203  -11.4055  -20.2658 C   0  0  0  0  0  0  0  0  0  0  0  0
   21.2388  -11.9908  -19.5219 C   0  0  2  0  0  0  0  0  0  0  0  0
   20.2368  -12.4569  -20.4991 N   0  0  0  0  0  0  0  0  0  0  0  0
   20.6332  -10.9538  -18.6596 C   0  0  0  0  0  0  0  0  0  0  0  0
   20.1695   -9.8583  -19.0503 O   0  0  0  0  0  0  0  0  0  0  0  0
   24.4250  -16.8700  -22.5759 N   0  0  0  0  0  0  0  0  0  0  0  0
   20.5213  -11.1251  -17.2306 C   0  0  1  0  0  0  0  0  0  0  0  0
   19.8710  -10.1620  -16.3805 C   0  0  0  0  0  0  0  0  0  0  0  0
   19.3068  -10.7681  -15.1347 C   0  0  0  0  0  0  0  0  0  0  0  0
   18.0683  -11.5312  -15.3968 C   0  0  0  0  0  0  0  0  0  0  0  0
   17.3874  -11.6836  -16.5783 N   0  0  0  0  0  0  0  0  0  0  0  0
   16.3106  -12.4604  -16.3647 C   0  0  0  0  0  0  0  0  0  0  0  0
   16.3013  -12.7983  -15.0750 N   0  0  0  0  0  0  0  0  0  0  0  0
   17.3867  -12.2244  -14.4770 C   0  0  0  0  0  0  0  0  0  0  0  0
   20.7882   -9.0492  -16.1740 O   0  0  0  0  0  0  0  0  0  0  0  0
   21.9860   -9.2732  -15.8706 N   0  0  0  0  0  0  0  0  0  0  0  0
   20.4146   -7.6773  -16.2949 C   0  0  1  0  0  0  0  0  0  0  0  0
   21.3765   -6.5803  -16.2542 C   0  0  0  0  0  0  0  0  0  0  0  0
   21.3985   -5.8185  -17.5300 C   0  0  0  0  0  0  0  0  0  0  0  0
   22.7008   -5.9106  -18.2434 C   0  0  0  0  0  0  0  0  0  0  0  0
   22.9129   -6.7202  -19.3702 N   0  0  0  0  0  0  0  0  0  0  0  0
   24.1716   -6.5560  -19.7322 C   0  0  0  0  0  0  0  0  0  0  0  0
   24.7562   -5.6885  -18.8933 N   0  0  0  0  0  0  0  0  0  0  0  0
   23.8667   -5.2843  -17.9747 C   0  0  0  0  0  0  0  0  0  0  0  0
   20.9051   -5.7164  -15.1101 O   0  0  0  0  0  0  0  0  0  0  0  0
   19.8365   -5.9098  -14.4886 O   0  0  0  0  0  0  0  0  0  0  0  0
  2  3  2  0
  2  1  1  0
  4  2  1  0
  5  4  1  0
  6  5  1  0
  7  6  1  0
  8  7  1  0
  8  9  1  6
 10  8  1  0
 10 12  1  0
 11 10  2  0
 13 12  1  0
 13 14  1  6
 14 15  1  0
 15 16  2  0
 16 17  1  0
 18 17  1  0
 19 15  1  0
 19 18  2  0
 20 13  1  0
 21 20  2  0
 22 20  1  0
 23 22  1  0
 23 30  1  0
 23 24  1  1
 25 24  1  0
 26 25  2  0
 27 26  1  0
 28 27  1  0
 28 29  2  0
 29 25  1  0
 30 32  1  0
 31 30  2  0
M  END
$$$$
