RHH.pdb
     RDKit          3D

 32 33  0  0  1  0  0  0  0  0999 V2000
   20.8214  -19.2842  -17.5145 N   0  0  0  0  0  0  0  0  0  0  0  0
   19.8328  -19.0431  -18.4836 C   0  0  0  0  0  0  0  0  0  0  0  0
   18.9989  -19.9654  -18.7907 N   0  0  0  0  0  0  0  0  0  0  0  0
   19.7657  -17.7849  -19.1231 N   0  0  0  0  0  0  0  0  0  0  0  0
   20.4507  -16.6515  -18.6175 C   0  0  0  0  0  0  0  0  0  0  0  0
   20.1961  -15.3983  -19.3943 C   0  0  0  0  0  0  0  0  0  0  0  0
   20.9563  -14.1891  -18.9648 C   0  0  0  0  0  0  0  0  0  0  0  0
   20.6241  -13.8465  -17.5281 C   0  0  2  0  0  0  0  0  0  0  0  0
   19.4188  -14.5932  -17.1207 N   0  0  0  0  0  0  0  0  0  0  0  0
   20.3614  -12.3962  -17.4126 C   0  0  0  0  0  0  0  0  0  0  0  0
   21.1274  -11.4825  -17.7947 O   0  0  0  0  0  0  0  0  0  0  0  0
   18.2531  -19.8346  -19.4898 N   0  0  0  0  0  0  0  0  0  0  0  0
   19.1452  -11.8896  -16.8227 C   0  0  1  0  0  0  0  0  0  0  0  0
   18.8283  -10.4858  -16.7787 C   0  0  0  0  0  0  0  0  0  0  0  0
   17.3914  -10.2203  -16.4583 C   0  0  0  0  0  0  0  0  0  0  0  0
   17.0621   -8.7807  -16.5232 C   0  0  0  0  0  0  0  0  0  0  0  0
   17.8515   -7.7369  -16.9358 N   0  0  0  0  0  0  0  0  0  0  0  0
   17.1523   -6.5929  -16.8316 C   0  0  0  0  0  0  0  0  0  0  0  0
   15.9417   -6.8965  -16.3626 N   0  0  0  0  0  0  0  0  0  0  0  0
   15.8859   -8.2475  -16.1719 C   0  0  0  0  0  0  0  0  0  0  0  0
   19.7943   -9.8315  -15.9064 O   0  0  0  0  0  0  0  0  0  0  0  0
   20.0182  -10.2952  -14.7611 N   0  0  0  0  0  0  0  0  0  0  0  0
   20.5299   -8.6635  -16.2684 C   0  0  1  0  0  0  0  0  0  0  0  0
   21.4262   -7.9669  -15.3509 C   0  0  0  0  0  0  0  0  0  0  0  0
   22.8042   -7.8644  -15.8977 C   0  0  0  0  0  0  0  0  0  0  0  0
   23.6121   -9.0947  -15.6809 C   0  0  0  0  0  0  0  0  0  0  0  0
   23.1430  -10.2183  -14.9827 N   0  0  0  0  0  0  0  0  0  0  0  0
   24.1177  -11.1084  -14.9838 C   0  0  0  0  0  0  0  0  0  0  0  0
   25.1689  -10.6019  -15.6444 N   0  0  0  0  0  0  0  0  0  0  0  0
   24.8739   -9.3674  -16.0775 C   0  0  0  0  0  0  0  0  0  0  0  0
   20.8010   -6.6034  -15.1859 O   0  0  0  0  0  0  0  0  0  0  0  0
   19.8466   -6.1886  -15.8805 O   0  0  0  0  0  0  0  0  0  0  0  0
  2  3  2  0
  2  1  1  0
  4  2  1  0
  5  4  1  0
  6  5  1  0
  7  6  1  0
  8  7  1  0
  8  9  1  6
 10  8  1  0
 10 12  1  0
 11 10  2  0
 13 12  1  0
 13 14  1  6
 14 15  1  0
 15 16  2  0
 16 17  1  0
 18 17  1  0
 19 15  1  0
 19 18  2  0
 20 13  1  0
 21 20  2  0
 22 20  1  0
 23 22  1  0
 23 30  1  0
 23 24  1  1
 25 24  1  0
 26 25  2  0
 27 26  1  0
 28 27  1  0
 28 29  2  0
 29 25  1  0
 30 32  1  0
 31 30  2  0
M  END
$$$$
