DNN.pdb
     RDKit          3D

 25 24  0  0  1  0  0  0  0  0999 V2000
   22.0016  -10.5303  -17.5447 N   0  0  0  0  0  0  0  0  0  0  0  0
   22.7024   -9.3324  -17.1544 C   0  0  1  0  0  0  0  0  0  0  0  0
   23.5336   -8.8254  -18.2693 C   0  0  0  0  0  0  0  0  0  0  0  0
   24.6361   -9.7468  -18.5938 C   0  0  0  0  0  0  0  0  0  0  0  0
   24.5226  -10.8114  -19.2443 O   0  0  0  0  0  0  0  0  0  0  0  0
   21.7014   -8.3378  -16.6739 C   0  0  0  0  0  0  0  0  0  0  0  0
   21.0120   -7.6417  -17.4621 O   0  0  0  0  0  0  0  0  0  0  0  0
   25.9552   -9.4718  -18.1694 O   0  0  0  0  0  0  0  0  0  0  0  0
   18.3601   -9.2236  -14.6801 N   0  0  0  0  0  0  0  0  0  0  0  0
   18.9141   -8.6719  -13.5074 C   0  0  0  0  0  0  0  0  0  0  0  0
   18.4318   -9.0377  -12.3862 O   0  0  0  0  0  0  0  0  0  0  0  0
   20.0102   -7.7009  -13.4474 C   0  0  0  0  0  0  0  0  0  0  0  0
   20.4595   -7.2120  -14.7993 C   0  0  2  0  0  0  0  0  0  0  0  0
   21.4861   -8.1352  -15.2864 N   0  0  0  0  0  0  0  0  0  0  0  0
   21.1395   -5.8839  -14.5850 C   0  0  0  0  0  0  0  0  0  0  0  0
   22.3159   -5.8049  -14.1342 O   0  0  0  0  0  0  0  0  0  0  0  0
   22.7499   -1.1053  -14.9206 N   0  0  0  0  0  0  0  0  0  0  0  0
   22.9270   -2.1200  -15.9027 C   0  0  0  0  0  0  0  0  0  0  0  0
   23.7517   -1.9632  -16.8661 O   0  0  0  0  0  0  0  0  0  0  0  0
   22.1923   -3.3797  -15.8680 C   0  0  0  0  0  0  0  0  0  0  0  0
   21.1777   -3.3802  -14.7509 C   0  0  2  0  0  0  0  0  0  0  0  0
   20.4598   -4.6738  -14.8907 N   0  0  0  0  0  0  0  0  0  0  0  0
   20.1869   -2.2847  -15.0543 C   0  0  0  0  0  0  0  0  0  0  0  0
   18.9640   -2.6112  -15.6399 O   0  0  0  0  0  0  0  0  0  0  0  0
   20.3709   -1.0763  -14.8203 O   0  0  0  0  0  0  0  0  0  0  0  0
  2  3  1  0
  2  1  1  6
  3  4  1  0
  4  8  1  0
  4  5  2  0
  6  2  1  0
  7  6  2  0
  9 10  1  0
 10 12  1  0
 11 10  2  0
 13 12  1  1
 13 14  1  0
 14  6  1  0
 15 13  1  0
 15 22  1  0
 16 15  2  0
 18 17  1  0
 18 19  2  0
 20 18  1  0
 21 20  1  6
 21 22  1  0
 21 23  1  0
 23 24  1  0
 25 23  2  0
M  END
$$$$
