DNN.pdb
     RDKit          3D

 25 24  0  0  1  0  0  0  0  0999 V2000
   27.9982  -22.2373  -15.6417 N   0  0  0  0  0  0  0  0  0  0  0  0
   27.2761  -21.5605  -16.6899 C   0  0  1  0  0  0  0  0  0  0  0  0
   27.8967  -21.8241  -18.0077 C   0  0  0  0  0  0  0  0  0  0  0  0
   29.2931  -21.3579  -18.0587 C   0  0  0  0  0  0  0  0  0  0  0  0
   30.3039  -22.0979  -18.0663 O   0  0  0  0  0  0  0  0  0  0  0  0
   25.8475  -21.9809  -16.6235 C   0  0  0  0  0  0  0  0  0  0  0  0
   24.9436  -21.3998  -17.2765 O   0  0  0  0  0  0  0  0  0  0  0  0
   29.5921  -19.9779  -18.1043 O   0  0  0  0  0  0  0  0  0  0  0  0
   24.6649  -26.9962  -16.4893 N   0  0  0  0  0  0  0  0  0  0  0  0
   23.8275  -25.8889  -16.2458 C   0  0  0  0  0  0  0  0  0  0  0  0
   22.8137  -25.7257  -17.0002 O   0  0  0  0  0  0  0  0  0  0  0  0
   24.0097  -24.8873  -15.1916 C   0  0  0  0  0  0  0  0  0  0  0  0
   24.0430  -23.4708  -15.7025 C   0  0  2  0  0  0  0  0  0  0  0  0
   25.4472  -23.0696  -15.8068 N   0  0  0  0  0  0  0  0  0  0  0  0
   23.4236  -22.6024  -14.6375 C   0  0  0  0  0  0  0  0  0  0  0  0
   24.1246  -21.8625  -13.8928 O   0  0  0  0  0  0  0  0  0  0  0  0
   20.9575  -17.9197  -13.5603 N   0  0  0  0  0  0  0  0  0  0  0  0
   21.2087  -19.2485  -13.1170 C   0  0  0  0  0  0  0  0  0  0  0  0
   20.9851  -19.5889  -11.9058 O   0  0  0  0  0  0  0  0  0  0  0  0
   21.7254  -20.2851  -14.0038 C   0  0  0  0  0  0  0  0  0  0  0  0
   21.4169  -21.6594  -13.4622 C   0  0  2  0  0  0  0  0  0  0  0  0
   22.0154  -22.5984  -14.4462 N   0  0  0  0  0  0  0  0  0  0  0  0
   19.9207  -21.8349  -13.5304 C   0  0  0  0  0  0  0  0  0  0  0  0
   19.1727  -21.7938  -12.3541 O   0  0  0  0  0  0  0  0  0  0  0  0
   19.2747  -22.0191  -14.5780 O   0  0  0  0  0  0  0  0  0  0  0  0
  2  3  1  0
  2  1  1  1
  3  4  1  0
  4  8  1  0
  4  5  2  0
  6  2  1  0
  7  6  2  0
  9 10  1  0
 10 12  1  0
 11 10  2  0
 13 12  1  1
 13 14  1  0
 14  6  1  0
 15 13  1  0
 15 22  1  0
 16 15  2  0
 18 17  1  0
 18 19  2  0
 20 18  1  0
 21 20  1  6
 21 22  1  0
 21 23  1  0
 23 24  1  0
 25 23  2  0
M  END
$$$$
