DNN.pdb
     RDKit          3D

 25 24  0  0  1  0  0  0  0  0999 V2000
   18.8954  -22.5751  -12.2808 N   0  0  0  0  0  0  0  0  0  0  0  0
   19.1067  -21.3350  -11.5767 C   0  0  1  0  0  0  0  0  0  0  0  0
   19.3113  -21.5817  -10.1316 C   0  0  0  0  0  0  0  0  0  0  0  0
   18.3039  -22.5075   -9.5858 C   0  0  0  0  0  0  0  0  0  0  0  0
   17.0894  -22.5194   -9.8929 O   0  0  0  0  0  0  0  0  0  0  0  0
   20.2497  -20.6214  -12.2142 C   0  0  0  0  0  0  0  0  0  0  0  0
   20.6179  -19.4765  -11.8469 O   0  0  0  0  0  0  0  0  0  0  0  0
   18.6647  -23.4877   -8.6345 O   0  0  0  0  0  0  0  0  0  0  0  0
   25.5834  -21.5777  -15.0654 N   0  0  0  0  0  0  0  0  0  0  0  0
   24.3578  -20.9220  -14.8316 C   0  0  0  0  0  0  0  0  0  0  0  0
   24.2303  -19.7232  -15.2440 O   0  0  0  0  0  0  0  0  0  0  0  0
   23.1933  -21.4919  -14.1483 C   0  0  0  0  0  0  0  0  0  0  0  0
   22.0703  -20.5089  -13.9453 C   0  0  2  0  0  0  0  0  0  0  0  0
   20.9765  -21.2166  -13.2773 N   0  0  0  0  0  0  0  0  0  0  0  0
   21.5656  -20.1263  -15.3131 C   0  0  0  0  0  0  0  0  0  0  0  0
   21.0077  -20.9649  -16.0740 O   0  0  0  0  0  0  0  0  0  0  0  0
   18.4855  -18.3714  -18.8809 N   0  0  0  0  0  0  0  0  0  0  0  0
   18.9800  -17.4750  -17.8923 C   0  0  0  0  0  0  0  0  0  0  0  0
   18.8057  -16.2141  -18.0044 O   0  0  0  0  0  0  0  0  0  0  0  0
   19.7013  -17.9338  -16.7103 C   0  0  0  0  0  0  0  0  0  0  0  0
   21.0878  -18.4045  -17.0751 C   0  0  2  0  0  0  0  0  0  0  0  0
   21.7094  -18.7926  -15.7824 N   0  0  0  0  0  0  0  0  0  0  0  0
   21.8405  -17.2033  -17.5896 C   0  0  0  0  0  0  0  0  0  0  0  0
   22.4040  -16.3082  -16.6806 O   0  0  0  0  0  0  0  0  0  0  0  0
   22.0080  -16.9324  -18.7927 O   0  0  0  0  0  0  0  0  0  0  0  0
  2  3  1  0
  2  1  1  6
  3  4  1  0
  4  8  1  0
  4  5  2  0
  6  2  1  0
  7  6  2  0
  9 10  1  0
 10 12  1  0
 11 10  2  0
 13 12  1  6
 13 14  1  0
 14  6  1  0
 15 13  1  0
 15 22  1  0
 16 15  2  0
 18 17  1  0
 18 19  2  0
 20 18  1  0
 21 20  1  1
 21 22  1  0
 21 23  1  0
 23 24  1  0
 25 23  2  0
M  END
$$$$
