DNN.pdb
     RDKit          3D

 25 24  0  0  1  0  0  0  0  0999 V2000
   21.0268  -13.3061  -15.9325 N   0  0  0  0  0  0  0  0  0  0  0  0
   20.0388  -13.3166  -16.9822 C   0  0  1  0  0  0  0  0  0  0  0  0
   18.9604  -14.2835  -16.6767 C   0  0  0  0  0  0  0  0  0  0  0  0
   19.4977  -15.6019  -16.2986 C   0  0  0  0  0  0  0  0  0  0  0  0
   20.4757  -16.1677  -16.8395 O   0  0  0  0  0  0  0  0  0  0  0  0
   19.5384  -11.9251  -17.1705 C   0  0  0  0  0  0  0  0  0  0  0  0
   18.4968  -11.6670  -17.8260 O   0  0  0  0  0  0  0  0  0  0  0  0
   18.9127  -16.3459  -15.2497 O   0  0  0  0  0  0  0  0  0  0  0  0
   18.4060   -6.8719  -16.4476 N   0  0  0  0  0  0  0  0  0  0  0  0
   17.8288   -8.0470  -15.9255 C   0  0  0  0  0  0  0  0  0  0  0  0
   16.6827   -7.9596  -15.3756 O   0  0  0  0  0  0  0  0  0  0  0  0
   18.4264   -9.3849  -15.9522 C   0  0  0  0  0  0  0  0  0  0  0  0
   19.7156   -9.4559  -16.7277 C   0  0  2  0  0  0  0  0  0  0  0  0
   20.2304  -10.8214  -16.6087 N   0  0  0  0  0  0  0  0  0  0  0  0
   20.7033   -8.5593  -16.0257 C   0  0  0  0  0  0  0  0  0  0  0  0
   21.1729   -8.8487  -14.8903 O   0  0  0  0  0  0  0  0  0  0  0  0
   23.8103   -4.5155  -14.9734 N   0  0  0  0  0  0  0  0  0  0  0  0
   23.3544   -4.4171  -16.3179 C   0  0  0  0  0  0  0  0  0  0  0  0
   23.7633   -3.4781  -17.0819 O   0  0  0  0  0  0  0  0  0  0  0  0
   22.4105   -5.3675  -16.8959 C   0  0  0  0  0  0  0  0  0  0  0  0
   22.0958   -6.4743  -15.9198 C   0  0  2  0  0  0  0  0  0  0  0  0
   21.1331   -7.3504  -16.6368 N   0  0  0  0  0  0  0  0  0  0  0  0
   21.3547   -5.8474  -14.7657 C   0  0  0  0  0  0  0  0  0  0  0  0
   22.0535   -5.5079  -13.6075 O   0  0  0  0  0  0  0  0  0  0  0  0
   20.1354   -5.5986  -14.7563 O   0  0  0  0  0  0  0  0  0  0  0  0
  2  3  1  0
  2  1  1  1
  3  4  1  0
  4  8  1  0
  4  5  2  0
  6  2  1  0
  7  6  2  0
  9 10  1  0
 10 12  1  0
 11 10  2  0
 13 12  1  1
 13 14  1  0
 14  6  1  0
 15 13  1  0
 15 22  1  0
 16 15  2  0
 18 17  1  0
 18 19  2  0
 20 18  1  0
 21 20  1  6
 21 22  1  0
 21 23  1  0
 23 24  1  0
 25 23  2  0
M  END
$$$$
