DNN.pdb
     RDKit          3D

 25 24  0  0  1  0  0  0  0  0999 V2000
   15.2010   -9.8977   -9.3026 N   0  0  0  0  0  0  0  0  0  0  0  0
   14.6623   -9.3446  -10.5201 C   0  0  1  0  0  0  0  0  0  0  0  0
   13.1930   -9.5168  -10.5681 C   0  0  0  0  0  0  0  0  0  0  0  0
   12.8138  -10.9079  -10.8692 C   0  0  0  0  0  0  0  0  0  0  0  0
   12.4748  -11.3387  -11.9956 O   0  0  0  0  0  0  0  0  0  0  0  0
   15.0861   -7.9187  -10.6162 C   0  0  0  0  0  0  0  0  0  0  0  0
   14.8696   -7.2194  -11.6386 O   0  0  0  0  0  0  0  0  0  0  0  0
   12.8093  -11.8906   -9.8542 O   0  0  0  0  0  0  0  0  0  0  0  0
   13.5600   -4.6018   -9.2696 N   0  0  0  0  0  0  0  0  0  0  0  0
   14.4781   -4.6898   -8.2038 C   0  0  0  0  0  0  0  0  0  0  0  0
   14.1191   -4.2466   -7.0643 O   0  0  0  0  0  0  0  0  0  0  0  0
   15.8301   -5.2506   -8.2763 C   0  0  0  0  0  0  0  0  0  0  0  0
   16.1539   -5.8779   -9.6068 C   0  0  2  0  0  0  0  0  0  0  0  0
   15.7614   -7.2868   -9.5405 N   0  0  0  0  0  0  0  0  0  0  0  0
   17.6540   -5.8539   -9.7530 C   0  0  0  0  0  0  0  0  0  0  0  0
   18.4107   -6.4484   -8.9362 O   0  0  0  0  0  0  0  0  0  0  0  0
   22.0187   -6.2904  -12.3963 N   0  0  0  0  0  0  0  0  0  0  0  0
   20.9544   -7.2250  -12.2580 C   0  0  0  0  0  0  0  0  0  0  0  0
   21.1069   -8.4474  -12.5977 O   0  0  0  0  0  0  0  0  0  0  0  0
   19.6483   -6.8510  -11.7270 C   0  0  0  0  0  0  0  0  0  0  0  0
   19.6696   -5.4410  -11.1897 C   0  0  2  0  0  0  0  0  0  0  0  0
   18.2573   -5.1503  -10.8303 N   0  0  0  0  0  0  0  0  0  0  0  0
   20.0330   -4.5360  -12.3399 C   0  0  0  0  0  0  0  0  0  0  0  0
   21.3521   -4.1061  -12.4819 O   0  0  0  0  0  0  0  0  0  0  0  0
   19.2332   -4.1262  -13.2008 O   0  0  0  0  0  0  0  0  0  0  0  0
  2  3  1  0
  2  1  1  1
  3  4  1  0
  4  8  1  0
  4  5  2  0
  6  2  1  0
  7  6  2  0
  9 10  1  0
 10 12  1  0
 11 10  2  0
 13 12  1  1
 13 14  1  0
 14  6  1  0
 15 13  1  0
 15 22  1  0
 16 15  2  0
 18 17  1  0
 18 19  2  0
 20 18  1  0
 21 20  1  6
 21 22  1  0
 21 23  1  0
 23 24  1  0
 25 23  2  0
M  END
$$$$
