DNN.pdb
     RDKit          3D

 25 24  0  0  1  0  0  0  0  0999 V2000
   25.9387  -24.0068  -15.7692 N   0  0  0  0  0  0  0  0  0  0  0  0
   24.5255  -24.2644  -15.8919 C   0  0  1  0  0  0  0  0  0  0  0  0
   24.2687  -25.7144  -16.0412 C   0  0  0  0  0  0  0  0  0  0  0  0
   24.7875  -26.2341  -17.3181 C   0  0  0  0  0  0  0  0  0  0  0  0
   24.8572  -25.5872  -18.3886 O   0  0  0  0  0  0  0  0  0  0  0  0
   23.8351  -23.6680  -14.7131 C   0  0  0  0  0  0  0  0  0  0  0  0
   24.2870  -23.7723  -13.5442 O   0  0  0  0  0  0  0  0  0  0  0  0
   25.2617  -27.5612  -17.4180 O   0  0  0  0  0  0  0  0  0  0  0  0
   24.2495  -20.6641  -12.9273 N   0  0  0  0  0  0  0  0  0  0  0  0
   23.1348  -20.0924  -13.5733 C   0  0  0  0  0  0  0  0  0  0  0  0
   23.1474  -18.8375  -13.7939 O   0  0  0  0  0  0  0  0  0  0  0  0
   21.9399  -20.8106  -14.0253 C   0  0  0  0  0  0  0  0  0  0  0  0
   21.9755  -22.2877  -13.7329 C   0  0  2  0  0  0  0  0  0  0  0  0
   22.6219  -22.9492  -14.8679 N   0  0  0  0  0  0  0  0  0  0  0  0
   20.5469  -22.7678  -13.7095 C   0  0  0  0  0  0  0  0  0  0  0  0
   19.8306  -22.7730  -14.7489 O   0  0  0  0  0  0  0  0  0  0  0  0
   15.9301  -24.3911  -11.9137 N   0  0  0  0  0  0  0  0  0  0  0  0
   16.9295  -24.6276  -10.9284 C   0  0  0  0  0  0  0  0  0  0  0  0
   16.6495  -25.2459   -9.8458 O   0  0  0  0  0  0  0  0  0  0  0  0
   18.3107  -24.1881  -11.0932 C   0  0  0  0  0  0  0  0  0  0  0  0
   18.5490  -23.6759  -12.4925 C   0  0  2  0  0  0  0  0  0  0  0  0
   19.9671  -23.2319  -12.4978 N   0  0  0  0  0  0  0  0  0  0  0  0
   17.6951  -22.4447  -12.6631 C   0  0  0  0  0  0  0  0  0  0  0  0
   18.2108  -21.1994  -12.3047 O   0  0  0  0  0  0  0  0  0  0  0  0
   16.5336  -22.4427  -13.1100 O   0  0  0  0  0  0  0  0  0  0  0  0
  2  3  1  0
  2  1  1  1
  3  4  1  0
  4  8  1  0
  4  5  2  0
  6  2  1  0
  7  6  2  0
  9 10  1  0
 10 12  1  0
 11 10  2  0
 13 12  1  6
 13 14  1  0
 14  6  1  0
 15 13  1  0
 15 22  1  0
 16 15  2  0
 18 17  1  0
 18 19  2  0
 20 18  1  0
 21 20  1  1
 21 22  1  0
 21 23  1  0
 23 24  1  0
 25 23  2  0
M  END
$$$$
