DNN.pdb
     RDKit          3D

 25 24  0  0  1  0  0  0  0  0999 V2000
   25.8356  -21.5410  -17.5869 N   0  0  0  0  0  0  0  0  0  0  0  0
   26.6653  -22.0990  -16.5483 C   0  0  1  0  0  0  0  0  0  0  0  0
   27.8089  -21.2061  -16.2555 C   0  0  0  0  0  0  0  0  0  0  0  0
   28.6547  -20.9919  -17.4423 C   0  0  0  0  0  0  0  0  0  0  0  0
   29.6664  -21.6670  -17.7421 O   0  0  0  0  0  0  0  0  0  0  0  0
   25.8111  -22.3632  -15.3556 C   0  0  0  0  0  0  0  0  0  0  0  0
   26.2956  -22.6056  -14.2208 O   0  0  0  0  0  0  0  0  0  0  0  0
   28.3613  -19.9594  -18.3609 O   0  0  0  0  0  0  0  0  0  0  0  0
   22.1224  -21.6674  -11.8070 N   0  0  0  0  0  0  0  0  0  0  0  0
   23.0572  -20.7658  -12.3547 C   0  0  0  0  0  0  0  0  0  0  0  0
   23.2550  -19.6634  -11.7471 O   0  0  0  0  0  0  0  0  0  0  0  0
   23.8394  -20.9733  -13.5766 C   0  0  0  0  0  0  0  0  0  0  0  0
   23.5448  -22.2781  -14.2688 C   0  0  2  0  0  0  0  0  0  0  0  0
   24.3962  -22.3518  -15.4577 N   0  0  0  0  0  0  0  0  0  0  0  0
   22.1217  -22.2058  -14.7605 C   0  0  0  0  0  0  0  0  0  0  0  0
   21.8192  -21.6169  -15.8352 O   0  0  0  0  0  0  0  0  0  0  0  0
   17.1820  -25.2894  -14.7291 N   0  0  0  0  0  0  0  0  0  0  0  0
   17.6014  -24.0571  -14.1537 C   0  0  0  0  0  0  0  0  0  0  0  0
   16.7865  -23.0808  -14.0289 O   0  0  0  0  0  0  0  0  0  0  0  0
   18.9629  -23.8387  -13.6778 C   0  0  0  0  0  0  0  0  0  0  0  0
   19.7295  -22.9525  -14.6286 C   0  0  2  0  0  0  0  0  0  0  0  0
   21.0742  -22.8085  -14.0127 N   0  0  0  0  0  0  0  0  0  0  0  0
   19.0741  -21.5949  -14.5921 C   0  0  0  0  0  0  0  0  0  0  0  0
   18.1034  -21.2780  -15.5421 O   0  0  0  0  0  0  0  0  0  0  0  0
   19.3319  -20.7043  -13.7619 O   0  0  0  0  0  0  0  0  0  0  0  0
  2  3  1  0
  2  1  1  6
  3  4  1  0
  4  8  1  0
  4  5  2  0
  6  2  1  0
  7  6  2  0
  9 10  1  0
 10 12  1  0
 11 10  2  0
 13 12  1  6
 13 14  1  0
 14  6  1  0
 15 13  1  0
 15 22  1  0
 16 15  2  0
 18 17  1  0
 18 19  2  0
 20 18  1  0
 21 20  1  1
 21 22  1  0
 21 23  1  0
 23 24  1  0
 25 23  2  0
M  END
$$$$
