DNN.pdb
     RDKit          3D

 25 24  0  0  1  0  0  0  0  0999 V2000
   17.6289  -12.9938  -15.4279 N   0  0  0  0  0  0  0  0  0  0  0  0
   17.2124  -11.6137  -15.4463 C   0  0  1  0  0  0  0  0  0  0  0  0
   15.7501  -11.5108  -15.6520 C   0  0  0  0  0  0  0  0  0  0  0  0
   15.3358  -12.0928  -16.9402 C   0  0  0  0  0  0  0  0  0  0  0  0
   15.9717  -11.9988  -18.0154 O   0  0  0  0  0  0  0  0  0  0  0  0
   17.6707  -10.9678  -14.1834 C   0  0  0  0  0  0  0  0  0  0  0  0
   17.6687  -11.5703  -13.0797 O   0  0  0  0  0  0  0  0  0  0  0  0
   14.1351  -12.8296  -17.0464 O   0  0  0  0  0  0  0  0  0  0  0  0
   20.0155   -7.4137  -10.9363 N   0  0  0  0  0  0  0  0  0  0  0  0
   20.3880   -7.3265  -12.2928 C   0  0  0  0  0  0  0  0  0  0  0  0
   21.3456   -6.5453  -12.6032 O   0  0  0  0  0  0  0  0  0  0  0  0
   19.7725   -8.0585  -13.4033 C   0  0  0  0  0  0  0  0  0  0  0  0
   18.6921   -9.0150  -12.9719 C   0  0  2  0  0  0  0  0  0  0  0  0
   18.1329   -9.6266  -14.1790 N   0  0  0  0  0  0  0  0  0  0  0  0
   17.5913   -8.1895  -12.3563 C   0  0  0  0  0  0  0  0  0  0  0  0
   16.8932   -7.3941  -13.0444 O   0  0  0  0  0  0  0  0  0  0  0  0
   14.7464   -7.1532   -7.1476 N   0  0  0  0  0  0  0  0  0  0  0  0
   14.6548   -7.5863   -8.5001 C   0  0  0  0  0  0  0  0  0  0  0  0
   13.5920   -7.3883   -9.1814 O   0  0  0  0  0  0  0  0  0  0  0  0
   15.7507   -8.2684   -9.1796 C   0  0  0  0  0  0  0  0  0  0  0  0
   16.2073   -7.4843  -10.3854 C   0  0  2  0  0  0  0  0  0  0  0  0
   17.3118   -8.2908  -10.9666 N   0  0  0  0  0  0  0  0  0  0  0  0
   16.8126   -6.2013   -9.8740 C   0  0  0  0  0  0  0  0  0  0  0  0
   16.0330   -5.0456   -9.8332 O   0  0  0  0  0  0  0  0  0  0  0  0
   17.9843   -6.0798   -9.4725 O   0  0  0  0  0  0  0  0  0  0  0  0
  2  3  1  0
  2  1  1  1
  3  4  1  0
  4  8  1  0
  4  5  2  0
  6  2  1  0
  7  6  2  0
  9 10  1  0
 10 12  1  0
 11 10  2  0
 13 12  1  6
 13 14  1  0
 14  6  1  0
 15 13  1  0
 15 22  1  0
 16 15  2  0
 18 17  1  0
 18 19  2  0
 20 18  1  0
 21 20  1  1
 21 22  1  0
 21 23  1  0
 23 24  1  0
 25 23  2  0
M  END
$$$$
