DNN.pdb
     RDKit          3D

 25 24  0  0  1  0  0  0  0  0999 V2000
   21.2610  -13.2233  -15.4787 N   0  0  0  0  0  0  0  0  0  0  0  0
   21.1841  -12.0190  -16.2675 C   0  0  1  0  0  0  0  0  0  0  0  0
   19.7761  -11.5974  -16.4434 C   0  0  0  0  0  0  0  0  0  0  0  0
   18.9578  -12.6604  -17.0519 C   0  0  0  0  0  0  0  0  0  0  0  0
   19.3427  -13.4481  -17.9467 O   0  0  0  0  0  0  0  0  0  0  0  0
   22.0283  -10.9767  -15.6172 C   0  0  0  0  0  0  0  0  0  0  0  0
   21.9241  -10.6906  -14.3971 O   0  0  0  0  0  0  0  0  0  0  0  0
   17.6215  -12.8662  -16.6424 O   0  0  0  0  0  0  0  0  0  0  0  0
   26.8277  -10.2966  -14.7556 N   0  0  0  0  0  0  0  0  0  0  0  0
   26.0008  -10.3255  -15.8967 C   0  0  0  0  0  0  0  0  0  0  0  0
   25.9659  -11.3968  -16.5856 O   0  0  0  0  0  0  0  0  0  0  0  0
   25.1612   -9.2255  -16.3794 C   0  0  0  0  0  0  0  0  0  0  0  0
   23.7924   -9.1895  -15.7520 C   0  0  2  0  0  0  0  0  0  0  0  0
   22.9961  -10.2557  -16.3628 N   0  0  0  0  0  0  0  0  0  0  0  0
   23.1539   -7.8862  -16.1595 C   0  0  0  0  0  0  0  0  0  0  0  0
   23.0372   -7.5539  -17.3716 O   0  0  0  0  0  0  0  0  0  0  0  0
   19.5883   -6.8181  -16.1173 N   0  0  0  0  0  0  0  0  0  0  0  0
   19.7412   -6.0540  -14.9265 C   0  0  0  0  0  0  0  0  0  0  0  0
   18.7664   -5.9036  -14.1142 O   0  0  0  0  0  0  0  0  0  0  0  0
   20.9993   -5.4095  -14.5662 C   0  0  0  0  0  0  0  0  0  0  0  0
   22.0650   -5.6969  -15.5952 C   0  0  2  0  0  0  0  0  0  0  0  0
   22.6624   -6.9900  -15.1720 N   0  0  0  0  0  0  0  0  0  0  0  0
   23.1289   -4.6401  -15.4355 C   0  0  0  0  0  0  0  0  0  0  0  0
   22.9735   -3.4107  -16.0752 O   0  0  0  0  0  0  0  0  0  0  0  0
   24.1664   -4.7736  -14.7612 O   0  0  0  0  0  0  0  0  0  0  0  0
  2  3  1  0
  2  1  1  1
  3  4  1  0
  4  8  1  0
  4  5  2  0
  6  2  1  0
  7  6  2  0
  9 10  1  0
 10 12  1  0
 11 10  2  0
 13 12  1  6
 13 14  1  0
 14  6  1  0
 15 13  1  0
 15 22  1  0
 16 15  2  0
 18 17  1  0
 18 19  2  0
 20 18  1  0
 21 20  1  1
 21 22  1  0
 21 23  1  0
 23 24  1  0
 25 23  2  0
M  END
$$$$
