DNN.pdb
     RDKit          3D

 25 24  0  0  1  0  0  0  0  0999 V2000
   19.6257  -25.2150  -11.8447 N   0  0  0  0  0  0  0  0  0  0  0  0
   18.6433  -24.4158  -11.1558 C   0  0  1  0  0  0  0  0  0  0  0  0
   18.9907  -24.2792   -9.7234 C   0  0  0  0  0  0  0  0  0  0  0  0
   18.9287  -25.5714   -9.0189 C   0  0  0  0  0  0  0  0  0  0  0  0
   18.5570  -26.6553   -9.5252 O   0  0  0  0  0  0  0  0  0  0  0  0
   18.5292  -23.1048  -11.8559 C   0  0  0  0  0  0  0  0  0  0  0  0
   17.7772  -22.1849  -11.4443 O   0  0  0  0  0  0  0  0  0  0  0  0
   19.3036  -25.6716   -7.6605 O   0  0  0  0  0  0  0  0  0  0  0  0
   21.2927  -20.9151  -11.5757 N   0  0  0  0  0  0  0  0  0  0  0  0
   21.6449  -20.9527  -12.9400 C   0  0  0  0  0  0  0  0  0  0  0  0
   22.8574  -20.7182  -13.2535 O   0  0  0  0  0  0  0  0  0  0  0  0
   20.7386  -21.2401  -14.0553 C   0  0  0  0  0  0  0  0  0  0  0  0
   19.3188  -21.5046  -13.6280 C   0  0  2  0  0  0  0  0  0  0  0  0
   19.2763  -22.8417  -13.0328 N   0  0  0  0  0  0  0  0  0  0  0  0
   18.4839  -21.5632  -14.8816 C   0  0  0  0  0  0  0  0  0  0  0  0
   18.7250  -22.3923  -15.8024 O   0  0  0  0  0  0  0  0  0  0  0  0
   13.2440  -22.2108  -17.1568 N   0  0  0  0  0  0  0  0  0  0  0  0
   14.5116  -21.5647  -17.1902 C   0  0  0  0  0  0  0  0  0  0  0  0
   14.9448  -21.0257  -18.2647 O   0  0  0  0  0  0  0  0  0  0  0  0
   15.3771  -21.4783  -16.0191 C   0  0  0  0  0  0  0  0  0  0  0  0
   16.6288  -20.6955  -16.3318 C   0  0  2  0  0  0  0  0  0  0  0  0
   17.3906  -20.6721  -15.0562 N   0  0  0  0  0  0  0  0  0  0  0  0
   16.2020  -19.2787  -16.6229 C   0  0  0  0  0  0  0  0  0  0  0  0
   15.9471  -18.4094  -15.5626 O   0  0  0  0  0  0  0  0  0  0  0  0
   16.0527  -18.8024  -17.7630 O   0  0  0  0  0  0  0  0  0  0  0  0
  2  3  1  0
  2  1  1  6
  3  4  1  0
  4  8  1  0
  4  5  2  0
  6  2  1  0
  7  6  2  0
  9 10  1  0
 10 12  1  0
 11 10  2  0
 13 12  1  6
 13 14  1  0
 14  6  1  0
 15 13  1  0
 15 22  1  0
 16 15  2  0
 18 17  1  0
 18 19  2  0
 20 18  1  0
 21 20  1  1
 21 22  1  0
 21 23  1  0
 23 24  1  0
 25 23  2  0
M  END
$$$$
