DNN.pdb
     RDKit          3D

 25 24  0  0  1  0  0  0  0  0999 V2000
   12.6277  -11.5532  -10.8622 N   0  0  0  0  0  0  0  0  0  0  0  0
   13.8912  -11.2028  -10.2629 C   0  0  1  0  0  0  0  0  0  0  0  0
   15.0071  -11.8819  -10.9591 C   0  0  0  0  0  0  0  0  0  0  0  0
   14.9573  -13.3429  -10.7786 C   0  0  0  0  0  0  0  0  0  0  0  0
   14.0645  -13.9662  -10.1590 O   0  0  0  0  0  0  0  0  0  0  0  0
   14.0179   -9.7175  -10.2683 C   0  0  0  0  0  0  0  0  0  0  0  0
   13.6853   -9.0169  -11.2581 O   0  0  0  0  0  0  0  0  0  0  0  0
   15.9646  -14.1719  -11.3208 O   0  0  0  0  0  0  0  0  0  0  0  0
   14.6065   -4.7218   -8.4816 N   0  0  0  0  0  0  0  0  0  0  0  0
   14.5965   -5.6949   -7.4620 C   0  0  0  0  0  0  0  0  0  0  0  0
   14.5340   -5.2970   -6.2532 O   0  0  0  0  0  0  0  0  0  0  0  0
   14.6519   -7.1464   -7.6569 C   0  0  0  0  0  0  0  0  0  0  0  0
   14.5941   -7.5650   -9.1025 C   0  0  2  0  0  0  0  0  0  0  0  0
   14.5279   -9.0272   -9.1387 N   0  0  0  0  0  0  0  0  0  0  0  0
   15.9096   -7.1767   -9.7277 C   0  0  0  0  0  0  0  0  0  0  0  0
   17.0129   -7.5426   -9.2355 O   0  0  0  0  0  0  0  0  0  0  0  0
   18.7840   -8.2215  -11.2290 N   0  0  0  0  0  0  0  0  0  0  0  0
   18.1789   -7.9333  -12.4845 C   0  0  0  0  0  0  0  0  0  0  0  0
   18.2789   -8.7487  -13.4632 O   0  0  0  0  0  0  0  0  0  0  0  0
   17.4189   -6.7115  -12.7249 C   0  0  0  0  0  0  0  0  0  0  0  0
   17.2429   -5.9273  -11.4478 C   0  0  2  0  0  0  0  0  0  0  0  0
   15.9359   -6.3778  -10.9028 N   0  0  0  0  0  0  0  0  0  0  0  0
   17.0887   -4.4786  -11.8373 C   0  0  0  0  0  0  0  0  0  0  0  0
   18.2200   -3.7376  -12.1778 O   0  0  0  0  0  0  0  0  0  0  0  0
   16.0056   -3.8672  -11.8829 O   0  0  0  0  0  0  0  0  0  0  0  0
  2  3  1  0
  2  1  1  6
  3  4  1  0
  4  8  1  0
  4  5  2  0
  6  2  1  0
  7  6  2  0
  9 10  1  0
 10 12  1  0
 11 10  2  0
 13 12  1  1
 13 14  1  0
 14  6  1  0
 15 13  1  0
 15 22  1  0
 16 15  2  0
 18 17  1  0
 18 19  2  0
 20 18  1  0
 21 20  1  6
 21 22  1  0
 21 23  1  0
 23 24  1  0
 25 23  2  0
M  END
$$$$
