DEG.pdb
     RDKit          3D

 22 21  0  0  1  0  0  0  0  0999 V2000
   20.5103  -12.1001   21.9554 N   0  0  0  0  0  0  0  0  0  0  0  0
   21.0524  -12.5752   23.2724 C   0  0  1  0  0  0  0  0  0  0  0  0
   21.7558  -13.8487   22.9301 C   0  0  0  0  0  0  0  0  0  0  0  0
   20.9353  -15.0376   22.7232 C   0  0  0  0  0  0  0  0  0  0  0  0
   20.8895  -16.0713   23.4067 O   0  0  0  0  0  0  0  0  0  0  0  0
   21.9305  -11.4701   23.6995 C   0  0  0  0  0  0  0  0  0  0  0  0
   23.1549  -11.7215   24.0029 O   0  0  0  0  0  0  0  0  0  0  0  0
   20.0556  -15.0604   21.6018 O   0  0  0  0  0  0  0  0  0  0  0  0
   21.5812  -10.1110   23.8192 N   0  0  0  0  0  0  0  0  0  0  0  0
   22.5478   -9.0758   24.1814 C   0  0  1  0  0  0  0  0  0  0  0  0
   22.4016   -7.8518   23.3425 C   0  0  0  0  0  0  0  0  0  0  0  0
   23.0401   -7.9087   21.9998 C   0  0  0  0  0  0  0  0  0  0  0  0
   22.8737   -6.6825   21.1983 C   0  0  0  0  0  0  0  0  0  0  0  0
   22.1659   -5.7165   21.5809 O   0  0  0  0  0  0  0  0  0  0  0  0
   22.1852   -8.6759   25.5887 C   0  0  0  0  0  0  0  0  0  0  0  0
   22.8540   -7.8900   26.2765 O   0  0  0  0  0  0  0  0  0  0  0  0
   23.4975   -6.5326   19.9678 O   0  0  0  0  0  0  0  0  0  0  0  0
   21.0033   -9.2517   26.1247 N   0  0  0  0  0  0  0  0  0  0  0  0
   20.6209   -9.0162   27.4955 C   0  0  0  0  0  0  0  0  0  0  0  0
   20.1956   -7.6196   27.7219 C   0  0  0  0  0  0  0  0  0  0  0  0
   20.3151   -6.6946   26.8856 O   0  0  0  0  0  0  0  0  0  0  0  0
   19.6224   -7.3236   28.9575 O   0  0  0  0  0  0  0  0  0  0  0  0
  2  6  1  0
  2  1  1  6
  2  3  1  0
  3  4  1  0
  4  5  2  0
  4  8  1  0
  6  7  2  0
  9 10  1  0
  9  6  1  0
 10 15  1  0
 10 11  1  6
 12 11  1  0
 13 14  2  0
 13 12  1  0
 15 16  2  0
 15 18  1  0
 17 13  1  0
 18 19  1  0
 20 19  1  0
 20 22  1  0
 21 20  2  0
M  END
$$$$
