DEG.pdb
     RDKit          3D

 22 21  0  0  1  0  0  0  0  0999 V2000
   13.5034  -16.0342   17.8325 N   0  0  0  0  0  0  0  0  0  0  0  0
   14.1616  -15.3065   18.9689 C   0  0  1  0  0  0  0  0  0  0  0  0
   14.8830  -14.1806   18.3013 C   0  0  0  0  0  0  0  0  0  0  0  0
   16.0421  -14.5149   17.4803 C   0  0  0  0  0  0  0  0  0  0  0  0
   16.7491  -15.5328   17.5224 O   0  0  0  0  0  0  0  0  0  0  0  0
   13.0269  -14.9056   19.8211 C   0  0  0  0  0  0  0  0  0  0  0  0
   13.2546  -14.2451   20.9011 O   0  0  0  0  0  0  0  0  0  0  0  0
   16.4537  -13.5799   16.4861 O   0  0  0  0  0  0  0  0  0  0  0  0
   11.6623  -15.1644   19.5884 N   0  0  0  0  0  0  0  0  0  0  0  0
   10.6185  -14.8304   20.5559 C   0  0  1  0  0  0  0  0  0  0  0  0
    9.3024  -14.5827   19.9003 C   0  0  0  0  0  0  0  0  0  0  0  0
    9.2584  -13.4369   18.9522 C   0  0  0  0  0  0  0  0  0  0  0  0
    8.5107  -13.7073   17.7107 C   0  0  0  0  0  0  0  0  0  0  0  0
    7.9575  -14.8130   17.4828 O   0  0  0  0  0  0  0  0  0  0  0  0
   10.4514  -16.0706   21.3962 C   0  0  0  0  0  0  0  0  0  0  0  0
   10.4024  -17.2185   20.9295 O   0  0  0  0  0  0  0  0  0  0  0  0
    8.3790  -12.7434   16.7211 O   0  0  0  0  0  0  0  0  0  0  0  0
   10.3476  -15.8745   22.7985 N   0  0  0  0  0  0  0  0  0  0  0  0
   10.1181  -16.9878   23.6867 C   0  0  0  0  0  0  0  0  0  0  0  0
   10.2454  -16.6013   25.1069 C   0  0  0  0  0  0  0  0  0  0  0  0
   10.5385  -15.4513   25.5082 O   0  0  0  0  0  0  0  0  0  0  0  0
   10.0211  -17.5959   26.0574 O   0  0  0  0  0  0  0  0  0  0  0  0
  2  6  1  0
  2  1  1  6
  2  3  1  0
  3  4  1  0
  4  5  2  0
  4  8  1  0
  6  7  2  0
  9 10  1  0
  9  6  1  0
 10 15  1  0
 10 11  1  6
 12 11  1  0
 13 14  2  0
 13 12  1  0
 15 16  2  0
 15 18  1  0
 17 13  1  0
 18 19  1  0
 20 19  1  0
 20 22  1  0
 21 20  2  0
M  END
$$$$
