DEG.pdb
     RDKit          3D

 22 21  0  0  1  0  0  0  0  0999 V2000
   12.1164  -17.2243   20.7188 N   0  0  0  0  0  0  0  0  0  0  0  0
   10.6321  -17.0627   20.8767 C   0  0  1  0  0  0  0  0  0  0  0  0
   10.0645  -18.2123   20.1086 C   0  0  0  0  0  0  0  0  0  0  0  0
   10.3407  -18.2688   18.6769 C   0  0  0  0  0  0  0  0  0  0  0  0
   10.4381  -17.3298   17.8727 O   0  0  0  0  0  0  0  0  0  0  0  0
   10.4346  -17.1265   22.3367 C   0  0  0  0  0  0  0  0  0  0  0  0
    9.2531  -16.9649   22.8188 O   0  0  0  0  0  0  0  0  0  0  0  0
   10.5309  -19.5488   18.0790 O   0  0  0  0  0  0  0  0  0  0  0  0
   11.4224  -17.3558   23.3140 N   0  0  0  0  0  0  0  0  0  0  0  0
   11.1056  -17.5430   24.7288 C   0  0  1  0  0  0  0  0  0  0  0  0
   12.0459  -18.4892   25.3951 C   0  0  0  0  0  0  0  0  0  0  0  0
   11.8496  -18.6719   26.8586 C   0  0  0  0  0  0  0  0  0  0  0  0
   12.7797  -19.6332   27.4785 C   0  0  0  0  0  0  0  0  0  0  0  0
   14.0163  -19.4211   27.5579 O   0  0  0  0  0  0  0  0  0  0  0  0
   11.3338  -16.1950   25.3635 C   0  0  0  0  0  0  0  0  0  0  0  0
   11.9291  -15.2615   24.8048 O   0  0  0  0  0  0  0  0  0  0  0  0
   12.3307  -20.8334   28.0112 O   0  0  0  0  0  0  0  0  0  0  0  0
   10.8237  -16.0203   26.6768 N   0  0  0  0  0  0  0  0  0  0  0  0
   10.5877  -14.7008   27.2100 C   0  0  0  0  0  0  0  0  0  0  0  0
   10.0971  -14.7437   28.6029 C   0  0  0  0  0  0  0  0  0  0  0  0
    9.7632  -15.7884   29.2082 O   0  0  0  0  0  0  0  0  0  0  0  0
   10.0036  -13.5289   29.2800 O   0  0  0  0  0  0  0  0  0  0  0  0
  2  6  1  0
  2  1  1  1
  2  3  1  0
  3  4  1  0
  4  5  2  0
  4  8  1  0
  6  7  2  0
  9 10  1  0
  9  6  1  0
 10 15  1  0
 10 11  1  1
 12 11  1  0
 13 14  2  0
 13 12  1  0
 15 16  2  0
 15 18  1  0
 17 13  1  0
 18 19  1  0
 20 19  1  0
 20 22  1  0
 21 20  2  0
M  END
$$$$
