DEG.pdb
     RDKit          3D

 22 21  0  0  1  0  0  0  0  0999 V2000
    8.9763  -15.9283   16.2463 N   0  0  0  0  0  0  0  0  0  0  0  0
    9.6963  -14.7108   16.7498 C   0  0  1  0  0  0  0  0  0  0  0  0
    8.6607  -13.9898   17.5506 C   0  0  0  0  0  0  0  0  0  0  0  0
    7.5383  -13.4008   16.8276 C   0  0  0  0  0  0  0  0  0  0  0  0
    7.2552  -13.5066   15.6249 O   0  0  0  0  0  0  0  0  0  0  0  0
   10.8133  -15.2728   17.5315 C   0  0  0  0  0  0  0  0  0  0  0  0
   10.6038  -16.2979   18.2796 O   0  0  0  0  0  0  0  0  0  0  0  0
    6.6203  -12.5898   17.5566 O   0  0  0  0  0  0  0  0  0  0  0  0
   12.1425  -14.8083   17.5604 N   0  0  0  0  0  0  0  0  0  0  0  0
   13.2158  -15.5267   18.2453 C   0  0  1  0  0  0  0  0  0  0  0  0
   14.3917  -15.7595   17.3586 C   0  0  0  0  0  0  0  0  0  0  0  0
   14.2027  -16.7752   16.2880 C   0  0  0  0  0  0  0  0  0  0  0  0
   15.3612  -16.9300   15.3895 C   0  0  0  0  0  0  0  0  0  0  0  0
   15.7426  -16.0155   14.6157 O   0  0  0  0  0  0  0  0  0  0  0  0
   13.6792  -14.5937   19.3347 C   0  0  0  0  0  0  0  0  0  0  0  0
   13.6397  -13.3573   19.2470 O   0  0  0  0  0  0  0  0  0  0  0  0
   16.0964  -18.1064   15.3534 O   0  0  0  0  0  0  0  0  0  0  0  0
   14.1837  -15.2011   20.5147 N   0  0  0  0  0  0  0  0  0  0  0  0
   14.6421  -14.3987   21.6224 C   0  0  0  0  0  0  0  0  0  0  0  0
   15.1935  -15.2247   22.7163 C   0  0  0  0  0  0  0  0  0  0  0  0
   15.1403  -16.4755   22.7602 O   0  0  0  0  0  0  0  0  0  0  0  0
   15.8142  -14.5522   23.7677 O   0  0  0  0  0  0  0  0  0  0  0  0
  2  6  1  0
  2  1  1  1
  2  3  1  0
  3  4  1  0
  4  5  2  0
  4  8  1  0
  6  7  2  0
  9 10  1  0
  9  6  1  0
 10 15  1  0
 10 11  1  6
 12 11  1  0
 13 14  2  0
 13 12  1  0
 15 16  2  0
 15 18  1  0
 17 13  1  0
 18 19  1  0
 20 19  1  0
 20 22  1  0
 21 20  2  0
M  END
$$$$
