DEG.pdb
     RDKit          3D

 22 21  0  0  1  0  0  0  0  0999 V2000
    9.0241  -15.5108   19.2211 N   0  0  0  0  0  0  0  0  0  0  0  0
    8.8188  -14.0503   19.5015 C   0  0  1  0  0  0  0  0  0  0  0  0
    7.6977  -13.6664   18.5909 C   0  0  0  0  0  0  0  0  0  0  0  0
    7.9096  -13.8259   17.1560 C   0  0  0  0  0  0  0  0  0  0  0  0
    8.9449  -14.1629   16.5622 O   0  0  0  0  0  0  0  0  0  0  0  0
    8.4955  -14.0204   20.9400 C   0  0  0  0  0  0  0  0  0  0  0  0
    7.5166  -13.2933   21.3492 O   0  0  0  0  0  0  0  0  0  0  0  0
    6.8123  -13.5724   16.2821 O   0  0  0  0  0  0  0  0  0  0  0  0
    9.1525  -14.7229   21.9687 N   0  0  0  0  0  0  0  0  0  0  0  0
    8.7252  -14.6613   23.3654 C   0  0  1  0  0  0  0  0  0  0  0  0
    7.4269  -15.3600   23.5876 C   0  0  0  0  0  0  0  0  0  0  0  0
    7.3805  -16.7863   23.1667 C   0  0  0  0  0  0  0  0  0  0  0  0
    6.1102  -17.4676   23.4765 C   0  0  0  0  0  0  0  0  0  0  0  0
    5.8216  -18.6007   23.0146 O   0  0  0  0  0  0  0  0  0  0  0  0
    9.7662  -15.4397   24.1287 C   0  0  0  0  0  0  0  0  0  0  0  0
    9.8294  -15.4769   25.3666 O   0  0  0  0  0  0  0  0  0  0  0  0
    5.1598  -16.8850   24.3029 O   0  0  0  0  0  0  0  0  0  0  0  0
   10.7122  -16.1595   23.3524 N   0  0  0  0  0  0  0  0  0  0  0  0
   12.0984  -16.2231   23.7465 C   0  0  0  0  0  0  0  0  0  0  0  0
   12.3649  -17.3519   24.6617 C   0  0  0  0  0  0  0  0  0  0  0  0
   11.4907  -18.1353   25.0992 O   0  0  0  0  0  0  0  0  0  0  0  0
   13.6866  -17.5480   25.0586 O   0  0  0  0  0  0  0  0  0  0  0  0
  2  6  1  0
  2  1  1  6
  2  3  1  0
  3  4  1  0
  4  5  2  0
  4  8  1  0
  6  7  2  0
  9 10  1  0
  9  6  1  0
 10 15  1  0
 10 11  1  6
 12 11  1  0
 13 14  2  0
 13 12  1  0
 15 16  2  0
 15 18  1  0
 17 13  1  0
 18 19  1  0
 20 19  1  0
 20 22  1  0
 21 20  2  0
M  END
$$$$
