DEG.pdb
     RDKit          3D

 22 21  0  0  1  0  0  0  0  0999 V2000
    8.4346  -16.7301   16.1834 N   0  0  0  0  0  0  0  0  0  0  0  0
    7.6455  -17.7887   16.8981 C   0  0  1  0  0  0  0  0  0  0  0  0
    7.2645  -18.7432   15.8129 C   0  0  0  0  0  0  0  0  0  0  0  0
    6.5518  -18.2034   14.6597 C   0  0  0  0  0  0  0  0  0  0  0  0
    6.9749  -18.0198   13.5085 O   0  0  0  0  0  0  0  0  0  0  0  0
    8.6010  -18.3167   17.8895 C   0  0  0  0  0  0  0  0  0  0  0  0
    8.2472  -19.2969   18.6434 O   0  0  0  0  0  0  0  0  0  0  0  0
    5.1885  -17.8232   14.8296 O   0  0  0  0  0  0  0  0  0  0  0  0
    9.9137  -17.8633   18.1229 N   0  0  0  0  0  0  0  0  0  0  0  0
   10.7980  -18.4781   19.1115 C   0  0  1  0  0  0  0  0  0  0  0  0
   12.1211  -18.8460   18.5307 C   0  0  0  0  0  0  0  0  0  0  0  0
   12.1077  -19.9649   17.5502 C   0  0  0  0  0  0  0  0  0  0  0  0
   13.4303  -20.2914   16.9865 C   0  0  0  0  0  0  0  0  0  0  0  0
   14.4468  -19.5813   17.1942 O   0  0  0  0  0  0  0  0  0  0  0  0
   11.0624  -17.3964   20.1275 C   0  0  0  0  0  0  0  0  0  0  0  0
   11.9904  -16.5786   20.0386 O   0  0  0  0  0  0  0  0  0  0  0  0
   13.6206  -21.4117   16.1901 O   0  0  0  0  0  0  0  0  0  0  0  0
   10.1776  -17.3411   21.2365 N   0  0  0  0  0  0  0  0  0  0  0  0
   10.3151  -16.3168   22.2428 C   0  0  0  0  0  0  0  0  0  0  0  0
   11.3940  -16.6236   23.2044 C   0  0  0  0  0  0  0  0  0  0  0  0
   12.0766  -17.6739   23.1973 O   0  0  0  0  0  0  0  0  0  0  0  0
   11.6610  -15.6684   24.1839 O   0  0  0  0  0  0  0  0  0  0  0  0
  2  6  1  0
  2  1  1  6
  2  3  1  0
  3  4  1  0
  4  5  2  0
  4  8  1  0
  6  7  2  0
  9 10  1  0
  9  6  1  0
 10 15  1  0
 10 11  1  6
 12 11  1  0
 13 14  2  0
 13 12  1  0
 15 16  2  0
 15 18  1  0
 17 13  1  0
 18 19  1  0
 20 19  1  0
 20 22  1  0
 21 20  2  0
M  END
$$$$
