DEG.pdb
     RDKit          3D

 22 21  0  0  1  0  0  0  0  0999 V2000
   10.7769  -16.7431   20.2011 N   0  0  0  0  0  0  0  0  0  0  0  0
   10.8460  -18.1760   20.6439 C   0  0  1  0  0  0  0  0  0  0  0  0
   11.4665  -18.8793   19.4803 C   0  0  0  0  0  0  0  0  0  0  0  0
   10.8842  -18.6463   18.1627 C   0  0  0  0  0  0  0  0  0  0  0  0
   11.3626  -18.0142   17.2091 O   0  0  0  0  0  0  0  0  0  0  0  0
   11.6802  -18.1188   21.8586 C   0  0  0  0  0  0  0  0  0  0  0  0
   11.9734  -19.2108   22.4717 O   0  0  0  0  0  0  0  0  0  0  0  0
    9.5984  -19.1976   17.8891 O   0  0  0  0  0  0  0  0  0  0  0  0
   12.2236  -16.9656   22.4571 N   0  0  0  0  0  0  0  0  0  0  0  0
   13.0422  -17.0146   23.6673 C   0  0  1  0  0  0  0  0  0  0  0  0
   14.1939  -16.0696   23.6058 C   0  0  0  0  0  0  0  0  0  0  0  0
   15.4950  -16.6625   23.1945 C   0  0  0  0  0  0  0  0  0  0  0  0
   16.5946  -15.6874   23.0782 C   0  0  0  0  0  0  0  0  0  0  0  0
   17.1705  -15.1962   24.0820 O   0  0  0  0  0  0  0  0  0  0  0  0
   12.1415  -16.5203   24.7703 C   0  0  0  0  0  0  0  0  0  0  0  0
   11.5350  -15.4393   24.7331 O   0  0  0  0  0  0  0  0  0  0  0  0
   17.0535  -15.2589   21.8407 O   0  0  0  0  0  0  0  0  0  0  0  0
   12.0035  -17.3678   25.9010 N   0  0  0  0  0  0  0  0  0  0  0  0
   11.1634  -16.9900   27.0111 C   0  0  0  0  0  0  0  0  0  0  0  0
   11.2415  -17.9601   28.1227 C   0  0  0  0  0  0  0  0  0  0  0  0
   11.8297  -19.0646   28.0636 O   0  0  0  0  0  0  0  0  0  0  0  0
   10.6121  -17.6094   29.3159 O   0  0  0  0  0  0  0  0  0  0  0  0
  2  6  1  0
  2  1  1  6
  2  3  1  0
  3  4  1  0
  4  5  2  0
  4  8  1  0
  6  7  2  0
  9 10  1  0
  9  6  1  0
 10 15  1  0
 10 11  1  6
 12 11  1  0
 13 14  2  0
 13 12  1  0
 15 16  2  0
 15 18  1  0
 17 13  1  0
 18 19  1  0
 20 19  1  0
 20 22  1  0
 21 20  2  0
M  END
$$$$
