DEG.pdb
     RDKit          3D

 22 21  0  0  1  0  0  0  0  0999 V2000
    9.0112  -18.9900   20.6312 N   0  0  0  0  0  0  0  0  0  0  0  0
    8.2714  -17.6875   20.5307 C   0  0  1  0  0  0  0  0  0  0  0  0
    7.7661  -17.6719   19.1242 C   0  0  0  0  0  0  0  0  0  0  0  0
    8.7501  -17.7869   18.0529 C   0  0  0  0  0  0  0  0  0  0  0  0
    8.6868  -18.4665   17.0175 O   0  0  0  0  0  0  0  0  0  0  0  0
    7.2305  -17.8044   21.5688 C   0  0  0  0  0  0  0  0  0  0  0  0
    6.3504  -16.8735   21.6840 O   0  0  0  0  0  0  0  0  0  0  0  0
    9.9583  -17.0391   18.1668 O   0  0  0  0  0  0  0  0  0  0  0  0
    7.0703  -18.8574   22.4901 N   0  0  0  0  0  0  0  0  0  0  0  0
    5.9741  -18.9019   23.4564 C   0  0  1  0  0  0  0  0  0  0  0  0
    5.4000  -20.2712   23.5927 C   0  0  0  0  0  0  0  0  0  0  0  0
    4.3503  -20.6332   22.6024 C   0  0  0  0  0  0  0  0  0  0  0  0
    3.7355  -21.9541   22.8279 C   0  0  0  0  0  0  0  0  0  0  0  0
    2.5962  -22.2525   22.3880 O   0  0  0  0  0  0  0  0  0  0  0  0
    6.6074  -18.5693   24.7832 C   0  0  0  0  0  0  0  0  0  0  0  0
    5.9618  -18.3206   25.8125 O   0  0  0  0  0  0  0  0  0  0  0  0
    4.3918  -22.9445   23.5449 O   0  0  0  0  0  0  0  0  0  0  0  0
    8.0265  -18.5491   24.8188 N   0  0  0  0  0  0  0  0  0  0  0  0
    8.7320  -18.2251   26.0346 C   0  0  0  0  0  0  0  0  0  0  0  0
   10.1975  -18.3042   25.8648 C   0  0  0  0  0  0  0  0  0  0  0  0
   10.7781  -18.4972   24.7716 O   0  0  0  0  0  0  0  0  0  0  0  0
   10.9777  -18.1517   27.0097 O   0  0  0  0  0  0  0  0  0  0  0  0
  2  6  1  0
  2  1  1  6
  2  3  1  0
  3  4  1  0
  4  5  2  0
  4  8  1  0
  6  7  2  0
  9 10  1  0
  9  6  1  0
 10 15  1  0
 10 11  1  1
 12 11  1  0
 13 14  2  0
 13 12  1  0
 15 16  2  0
 15 18  1  0
 17 13  1  0
 18 19  1  0
 20 19  1  0
 20 22  1  0
 21 20  2  0
M  END
$$$$
