DEG.pdb
     RDKit          3D

 22 21  0  0  1  0  0  0  0  0999 V2000
    9.8293  -16.4190   20.5256 N   0  0  0  0  0  0  0  0  0  0  0  0
    8.4370  -15.8616   20.4579 C   0  0  1  0  0  0  0  0  0  0  0  0
    7.6663  -16.9144   19.7291 C   0  0  0  0  0  0  0  0  0  0  0  0
    7.9941  -17.1397   18.3251 C   0  0  0  0  0  0  0  0  0  0  0  0
    8.9034  -16.6291   17.6540 O   0  0  0  0  0  0  0  0  0  0  0  0
    8.0699  -15.6850   21.8752 C   0  0  0  0  0  0  0  0  0  0  0  0
    6.8502  -15.4125   22.1793 O   0  0  0  0  0  0  0  0  0  0  0  0
    7.1923  -18.0584   17.5867 O   0  0  0  0  0  0  0  0  0  0  0  0
    8.9263  -15.7851   22.9888 N   0  0  0  0  0  0  0  0  0  0  0  0
    8.4615  -15.5982   24.3622 C   0  0  1  0  0  0  0  0  0  0  0  0
    9.3952  -16.1977   25.3582 C   0  0  0  0  0  0  0  0  0  0  0  0
    9.3299  -17.6776   25.4959 C   0  0  0  0  0  0  0  0  0  0  0  0
   10.3388  -18.2454   26.4088 C   0  0  0  0  0  0  0  0  0  0  0  0
   10.0879  -18.5102   27.6120 O   0  0  0  0  0  0  0  0  0  0  0  0
    8.4939  -14.1082   24.5878 C   0  0  0  0  0  0  0  0  0  0  0  0
    9.3456  -13.3542   24.0940 O   0  0  0  0  0  0  0  0  0  0  0  0
   11.6299  -18.5190   25.9800 O   0  0  0  0  0  0  0  0  0  0  0  0
    7.4749  -13.5726   25.4188 N   0  0  0  0  0  0  0  0  0  0  0  0
    7.3155  -12.1468   25.5691 C   0  0  0  0  0  0  0  0  0  0  0  0
    6.0988  -11.8010   26.3325 C   0  0  0  0  0  0  0  0  0  0  0  0
    5.2628  -12.6330   26.7549 O   0  0  0  0  0  0  0  0  0  0  0  0
    5.8771  -10.4500   26.5945 O   0  0  0  0  0  0  0  0  0  0  0  0
  2  6  1  0
  2  1  1  1
  2  3  1  0
  3  4  1  0
  4  5  2  0
  4  8  1  0
  6  7  2  0
  9 10  1  0
  9  6  1  0
 10 15  1  0
 10 11  1  1
 12 11  1  0
 13 14  2  0
 13 12  1  0
 15 16  2  0
 15 18  1  0
 17 13  1  0
 18 19  1  0
 20 19  1  0
 20 22  1  0
 21 20  2  0
M  END
$$$$
