DEG.pdb
     RDKit          3D

 22 21  0  0  1  0  0  0  0  0999 V2000
    9.1930  -15.5744   21.3896 N   0  0  0  0  0  0  0  0  0  0  0  0
    8.2400  -14.4802   21.7749 C   0  0  1  0  0  0  0  0  0  0  0  0
    7.1444  -14.5891   20.7642 C   0  0  0  0  0  0  0  0  0  0  0  0
    7.5222  -14.5658   19.3550 C   0  0  0  0  0  0  0  0  0  0  0  0
    8.6558  -14.4662   18.8621 O   0  0  0  0  0  0  0  0  0  0  0  0
    7.8562  -14.8312   23.1548 C   0  0  0  0  0  0  0  0  0  0  0  0
    6.9008  -14.1859   23.7250 O   0  0  0  0  0  0  0  0  0  0  0  0
    6.4875  -14.6681   18.3798 O   0  0  0  0  0  0  0  0  0  0  0  0
    8.4291  -15.8326   23.9626 N   0  0  0  0  0  0  0  0  0  0  0  0
    7.9680  -16.1112   25.3217 C   0  0  1  0  0  0  0  0  0  0  0  0
    7.9842  -17.5693   25.6331 C   0  0  0  0  0  0  0  0  0  0  0  0
    6.7677  -18.0999   26.3053 C   0  0  0  0  0  0  0  0  0  0  0  0
    6.7534  -19.5659   26.4614 C   0  0  0  0  0  0  0  0  0  0  0  0
    6.9439  -20.3495   25.4969 O   0  0  0  0  0  0  0  0  0  0  0  0
    8.9924  -15.4698   26.2225 C   0  0  0  0  0  0  0  0  0  0  0  0
   10.2126  -15.4881   26.0021 O   0  0  0  0  0  0  0  0  0  0  0  0
    6.5266  -20.1598   27.6949 O   0  0  0  0  0  0  0  0  0  0  0  0
    8.4947  -14.8160   27.3804 N   0  0  0  0  0  0  0  0  0  0  0  0
    9.3904  -14.1696   28.3081 C   0  0  0  0  0  0  0  0  0  0  0  0
    9.9460  -15.1170   29.2962 C   0  0  0  0  0  0  0  0  0  0  0  0
    9.7641  -16.3563   29.2746 O   0  0  0  0  0  0  0  0  0  0  0  0
   10.7258  -14.5812   30.3198 O   0  0  0  0  0  0  0  0  0  0  0  0
  2  6  1  0
  2  1  1  6
  2  3  1  0
  3  4  1  0
  4  5  2  0
  4  8  1  0
  6  7  2  0
  9 10  1  0
  9  6  1  0
 10 15  1  0
 10 11  1  1
 12 11  1  0
 13 14  2  0
 13 12  1  0
 15 16  2  0
 15 18  1  0
 17 13  1  0
 18 19  1  0
 20 19  1  0
 20 22  1  0
 21 20  2  0
M  END
$$$$
