DEG.pdb
     RDKit          3D

 22 21  0  0  1  0  0  0  0  0999 V2000
   12.0282  -19.3286   19.0776 N   0  0  0  0  0  0  0  0  0  0  0  0
   11.4615  -18.2460   19.9500 C   0  0  1  0  0  0  0  0  0  0  0  0
    9.9978  -18.5459   19.9851 C   0  0  0  0  0  0  0  0  0  0  0  0
    9.2077  -18.1877   18.8117 C   0  0  0  0  0  0  0  0  0  0  0  0
    9.5949  -17.6892   17.7442 O   0  0  0  0  0  0  0  0  0  0  0  0
   12.1698  -18.4323   21.2299 C   0  0  0  0  0  0  0  0  0  0  0  0
   12.1971  -19.5997   21.7691 O   0  0  0  0  0  0  0  0  0  0  0  0
    7.8023  -18.4229   18.8503 O   0  0  0  0  0  0  0  0  0  0  0  0
   12.8543  -17.4475   21.9681 N   0  0  0  0  0  0  0  0  0  0  0  0
   13.4851  -17.7229   23.2579 C   0  0  1  0  0  0  0  0  0  0  0  0
   14.5247  -16.7111   23.6028 C   0  0  0  0  0  0  0  0  0  0  0  0
   15.7798  -16.7771   22.8066 C   0  0  0  0  0  0  0  0  0  0  0  0
   16.7546  -15.7178   23.1248 C   0  0  0  0  0  0  0  0  0  0  0  0
   16.7960  -14.6282   22.4990 O   0  0  0  0  0  0  0  0  0  0  0  0
   12.3830  -17.5678   24.2745 C   0  0  0  0  0  0  0  0  0  0  0  0
   11.5317  -16.6669   24.2369 O   0  0  0  0  0  0  0  0  0  0  0  0
   17.6848  -15.8729   24.1428 O   0  0  0  0  0  0  0  0  0  0  0  0
   12.3489  -18.5268   25.3209 N   0  0  0  0  0  0  0  0  0  0  0  0
   11.3339  -18.4701   26.3443 C   0  0  0  0  0  0  0  0  0  0  0  0
   11.4860  -19.5522   27.3386 C   0  0  0  0  0  0  0  0  0  0  0  0
   12.3326  -20.4727   27.2652 O   0  0  0  0  0  0  0  0  0  0  0  0
   10.6201  -19.5362   28.4308 O   0  0  0  0  0  0  0  0  0  0  0  0
  2  6  1  0
  2  1  1  6
  2  3  1  0
  3  4  1  0
  4  5  2  0
  4  8  1  0
  6  7  2  0
  9 10  1  0
  9  6  1  0
 10 15  1  0
 10 11  1  1
 12 11  1  0
 13 14  2  0
 13 12  1  0
 15 16  2  0
 15 18  1  0
 17 13  1  0
 18 19  1  0
 20 19  1  0
 20 22  1  0
 21 20  2  0
M  END
$$$$
