DEG.pdb
     RDKit          3D

 22 21  0  0  1  0  0  0  0  0999 V2000
   11.2321  -18.6640   16.5657 N   0  0  0  0  0  0  0  0  0  0  0  0
    9.9718  -18.3715   17.3273 C   0  0  1  0  0  0  0  0  0  0  0  0
    8.9827  -19.3412   16.7660 C   0  0  0  0  0  0  0  0  0  0  0  0
    8.5543  -19.1442   15.3851 C   0  0  0  0  0  0  0  0  0  0  0  0
    9.2562  -18.9847   14.3753 O   0  0  0  0  0  0  0  0  0  0  0  0
   10.3568  -18.6112   18.7305 C   0  0  0  0  0  0  0  0  0  0  0  0
    9.5145  -18.3500   19.6668 O   0  0  0  0  0  0  0  0  0  0  0  0
    7.1554  -19.1251   15.1115 O   0  0  0  0  0  0  0  0  0  0  0  0
   11.5866  -19.1165   19.1950 N   0  0  0  0  0  0  0  0  0  0  0  0
   11.8752  -19.3109   20.6149 C   0  0  1  0  0  0  0  0  0  0  0  0
   12.9747  -20.2936   20.8357 C   0  0  0  0  0  0  0  0  0  0  0  0
   13.2933  -20.5981   22.2568 C   0  0  0  0  0  0  0  0  0  0  0  0
   14.3837  -21.5739   22.4367 C   0  0  0  0  0  0  0  0  0  0  0  0
   15.1551  -21.9047   21.5007 O   0  0  0  0  0  0  0  0  0  0  0  0
   12.3892  -17.9783   21.0966 C   0  0  0  0  0  0  0  0  0  0  0  0
   13.1310  -17.2427   20.4284 O   0  0  0  0  0  0  0  0  0  0  0  0
   14.6152  -22.1821   23.6624 O   0  0  0  0  0  0  0  0  0  0  0  0
   11.9795  -17.5747   22.3947 N   0  0  0  0  0  0  0  0  0  0  0  0
   12.3238  -16.2712   22.9078 C   0  0  0  0  0  0  0  0  0  0  0  0
   13.6001  -16.2862   23.6519 C   0  0  0  0  0  0  0  0  0  0  0  0
   14.2712  -17.3160   23.8937 O   0  0  0  0  0  0  0  0  0  0  0  0
   14.0802  -15.0611   24.1121 O   0  0  0  0  0  0  0  0  0  0  0  0
  2  6  1  0
  2  1  1  6
  2  3  1  0
  3  4  1  0
  4  5  2  0
  4  8  1  0
  6  7  2  0
  9 10  1  0
  9  6  1  0
 10 15  1  0
 10 11  1  6
 12 11  1  0
 13 14  2  0
 13 12  1  0
 15 16  2  0
 15 18  1  0
 17 13  1  0
 18 19  1  0
 20 19  1  0
 20 22  1  0
 21 20  2  0
M  END
$$$$
