DEG.pdb
     RDKit          3D

 22 21  0  0  1  0  0  0  0  0999 V2000
    7.8526  -17.6326   16.9665 N   0  0  0  0  0  0  0  0  0  0  0  0
    8.7941  -16.6810   17.6464 C   0  0  1  0  0  0  0  0  0  0  0  0
    8.1578  -15.3439   17.4436 C   0  0  0  0  0  0  0  0  0  0  0  0
    8.2159  -14.7655   16.1052 C   0  0  0  0  0  0  0  0  0  0  0  0
    8.6984  -15.2559   15.0735 O   0  0  0  0  0  0  0  0  0  0  0  0
    8.8157  -17.1593   19.0412 C   0  0  0  0  0  0  0  0  0  0  0  0
    7.7048  -17.4317   19.6295 O   0  0  0  0  0  0  0  0  0  0  0  0
    7.6578  -13.4686   15.9087 O   0  0  0  0  0  0  0  0  0  0  0  0
    9.9527  -17.3676   19.8457 N   0  0  0  0  0  0  0  0  0  0  0  0
    9.8721  -17.8999   21.2048 C   0  0  1  0  0  0  0  0  0  0  0  0
   10.4844  -19.2549   21.3153 C   0  0  0  0  0  0  0  0  0  0  0  0
    9.7169  -20.3639   20.6871 C   0  0  0  0  0  0  0  0  0  0  0  0
    9.5745  -21.5592   21.5383 C   0  0  0  0  0  0  0  0  0  0  0  0
   10.4928  -21.9612   22.2970 O   0  0  0  0  0  0  0  0  0  0  0  0
   10.7230  -16.9765   22.0387 C   0  0  0  0  0  0  0  0  0  0  0  0
   11.5250  -16.1593   21.5622 O   0  0  0  0  0  0  0  0  0  0  0  0
    8.4061  -22.3079   21.5443 O   0  0  0  0  0  0  0  0  0  0  0  0
   10.5707  -17.0760   23.4468 N   0  0  0  0  0  0  0  0  0  0  0  0
   11.2728  -16.1797   24.3325 C   0  0  0  0  0  0  0  0  0  0  0  0
   11.0512  -16.5162   25.7539 C   0  0  0  0  0  0  0  0  0  0  0  0
   10.2469  -17.3853   26.1627 O   0  0  0  0  0  0  0  0  0  0  0  0
   11.7959  -15.8092   26.6966 O   0  0  0  0  0  0  0  0  0  0  0  0
  2  6  1  0
  2  1  1  6
  2  3  1  0
  3  4  1  0
  4  5  2  0
  4  8  1  0
  6  7  2  0
  9 10  1  0
  9  6  1  0
 10 15  1  0
 10 11  1  6
 12 11  1  0
 13 14  2  0
 13 12  1  0
 15 16  2  0
 15 18  1  0
 17 13  1  0
 18 19  1  0
 20 19  1  0
 20 22  1  0
 21 20  2  0
M  END
$$$$
