DEG.pdb
     RDKit          3D

 22 21  0  0  1  0  0  0  0  0999 V2000
   18.6332  -14.1251   17.1404 N   0  0  0  0  0  0  0  0  0  0  0  0
   19.9360  -14.2793   17.8704 C   0  0  1  0  0  0  0  0  0  0  0  0
   20.7749  -13.1604   17.3432 C   0  0  0  0  0  0  0  0  0  0  0  0
   21.1316  -13.1936   15.9286 C   0  0  0  0  0  0  0  0  0  0  0  0
   21.3795  -14.1798   15.2189 O   0  0  0  0  0  0  0  0  0  0  0  0
   19.5499  -14.1582   19.2884 C   0  0  0  0  0  0  0  0  0  0  0  0
   18.5161  -13.4597   19.6010 O   0  0  0  0  0  0  0  0  0  0  0  0
   21.2192  -11.9551   15.2282 O   0  0  0  0  0  0  0  0  0  0  0  0
   20.1994  -14.7410   20.3939 N   0  0  0  0  0  0  0  0  0  0  0  0
   19.7335  -14.5628   21.7681 C   0  0  1  0  0  0  0  0  0  0  0  0
   19.1578  -15.8166   22.3337 C   0  0  0  0  0  0  0  0  0  0  0  0
   17.7508  -16.1116   21.9507 C   0  0  0  0  0  0  0  0  0  0  0  0
   17.2186  -17.3632   22.5197 C   0  0  0  0  0  0  0  0  0  0  0  0
   16.6689  -17.4114   23.6493 O   0  0  0  0  0  0  0  0  0  0  0  0
   20.9759  -14.2636   22.5676 C   0  0  0  0  0  0  0  0  0  0  0  0
   22.0935  -14.7339   22.3074 O   0  0  0  0  0  0  0  0  0  0  0  0
   17.2989  -18.5637   21.8281 O   0  0  0  0  0  0  0  0  0  0  0  0
   20.8194  -13.3890   23.6750 N   0  0  0  0  0  0  0  0  0  0  0  0
   21.9316  -13.0864   24.5423 C   0  0  0  0  0  0  0  0  0  0  0  0
   21.5478  -12.1772   25.6418 C   0  0  0  0  0  0  0  0  0  0  0  0
   22.2918  -11.8651   26.6001 O   0  0  0  0  0  0  0  0  0  0  0  0
   20.2643  -11.6352   25.5977 O   0  0  0  0  0  0  0  0  0  0  0  0
  2  6  1  0
  2  1  1  6
  2  3  1  0
  3  4  1  0
  4  5  2  0
  4  8  1  0
  6  7  2  0
  9 10  1  0
  9  6  1  0
 10 15  1  0
 10 11  1  1
 12 11  1  0
 13 14  2  0
 13 12  1  0
 15 16  2  0
 15 18  1  0
 17 13  1  0
 18 19  1  0
 20 19  1  0
 20 22  1  0
 21 20  2  0
M  END
$$$$
