HGC.pdb
     RDKit          3D

 21 21  0  0  1  0  0  0  0  0999 V2000
   25.5995  -21.1129  -16.2554 N   0  0  0  0  0  0  0  0  0  0  0  0
   24.4281  -21.9394  -16.1472 C   0  0  1  0  0  0  0  0  0  0  0  0
   24.7868  -23.3416  -15.6931 C   0  0  0  0  0  0  0  0  0  0  0  0
   25.8051  -23.9361  -16.5663 C   0  0  0  0  0  0  0  0  0  0  0  0
   27.0646  -24.3222  -16.2078 C   0  0  0  0  0  0  0  0  0  0  0  0
   27.6838  -24.8181  -17.2923 N   0  0  0  0  0  0  0  0  0  0  0  0
   26.8327  -24.7507  -18.3318 C   0  0  0  0  0  0  0  0  0  0  0  0
   25.6821  -24.2084  -17.8786 N   0  0  0  0  0  0  0  0  0  0  0  0
   23.4231  -21.3830  -15.2156 C   0  0  0  0  0  0  0  0  0  0  0  0
   23.8026  -20.5720  -14.3323 O   0  0  0  0  0  0  0  0  0  0  0  0
   22.0421  -21.7150  -15.2620 N   0  0  0  0  0  0  0  0  0  0  0  0
   21.1111  -21.1107  -14.3133 C   0  0  0  0  0  0  0  0  0  0  0  0
   19.7156  -21.4334  -14.6340 C   0  0  0  0  0  0  0  0  0  0  0  0
   19.4686  -22.0959  -15.6726 O   0  0  0  0  0  0  0  0  0  0  0  0
   18.6556  -21.0252  -13.8181 N   0  0  0  0  0  0  0  0  0  0  0  0
   17.2646  -21.2980  -14.0571 C   0  0  1  0  0  0  0  0  0  0  0  0
   16.5473  -21.8586  -12.8584 C   0  0  0  0  0  0  0  0  0  0  0  0
   16.9491  -20.9481  -11.3431 S   0  0  0  0  0  0  0  0  0  0  0  0
   16.5333  -20.0886  -14.5256 C   0  0  0  0  0  0  0  0  0  0  0  0
   16.9998  -18.9532  -14.3674 O   0  0  0  0  0  0  0  0  0  0  0  0
   15.3040  -20.2525  -15.1510 O   0  0  0  0  0  0  0  0  0  0  0  0
  2  1  1  1
  3  2  1  0
  3  4  1  0
  4  5  2  0
  5  6  1  0
  7  6  1  0
  8  4  1  0
  8  7  2  0
  9  2  1  0
  9 10  2  0
 11  9  1  0
 12 11  1  0
 12 13  1  0
 13 15  1  0
 14 13  2  0
 15 16  1  0
 16 17  1  1
 17 18  1  0
 19 16  1  0
 19 21  1  0
 20 19  2  0
M  END
$$$$
