HGC.pdb
     RDKit          3D

 21 21  0  0  1  0  0  0  0  0999 V2000
   15.9792  -13.2141  -15.7275 N   0  0  0  0  0  0  0  0  0  0  0  0
   17.3380  -13.0236  -16.1571 C   0  0  1  0  0  0  0  0  0  0  0  0
   17.6984  -13.9822  -17.2761 C   0  0  0  0  0  0  0  0  0  0  0  0
   17.7622  -15.3645  -16.7885 C   0  0  0  0  0  0  0  0  0  0  0  0
   18.8692  -16.1618  -16.7346 C   0  0  0  0  0  0  0  0  0  0  0  0
   18.5124  -17.3535  -16.2267 N   0  0  0  0  0  0  0  0  0  0  0  0
   17.1947  -17.3205  -15.9587 C   0  0  0  0  0  0  0  0  0  0  0  0
   16.7413  -16.0969  -16.3060 N   0  0  0  0  0  0  0  0  0  0  0  0
   17.6019  -11.6420  -16.6142 C   0  0  0  0  0  0  0  0  0  0  0  0
   16.7700  -11.0900  -17.3791 O   0  0  0  0  0  0  0  0  0  0  0  0
   18.7510  -10.8966  -16.2353 N   0  0  0  0  0  0  0  0  0  0  0  0
   18.9525   -9.5468  -16.7543 C   0  0  0  0  0  0  0  0  0  0  0  0
   19.4062   -8.6203  -15.7102 C   0  0  0  0  0  0  0  0  0  0  0  0
   18.6458   -8.3799  -14.7392 O   0  0  0  0  0  0  0  0  0  0  0  0
   20.6579   -7.9990  -15.7652 N   0  0  0  0  0  0  0  0  0  0  0  0
   21.2314   -7.1828  -14.7304 C   0  0  1  0  0  0  0  0  0  0  0  0
   22.6714   -7.5082  -14.4366 C   0  0  0  0  0  0  0  0  0  0  0  0
   22.9130   -9.2757  -14.1142 S   0  0  0  0  0  0  0  0  0  0  0  0
   21.1272   -5.7312  -15.0453 C   0  0  0  0  0  0  0  0  0  0  0  0
   21.3263   -4.8693  -14.1797 O   0  0  0  0  0  0  0  0  0  0  0  0
   20.7993   -5.3510  -16.3404 O   0  0  0  0  0  0  0  0  0  0  0  0
  2  1  1  6
  3  2  1  0
  3  4  1  0
  4  5  2  0
  5  6  1  0
  7  6  1  0
  8  4  1  0
  8  7  2  0
  9  2  1  0
  9 10  2  0
 11  9  1  0
 12 11  1  0
 12 13  1  0
 13 15  1  0
 14 13  2  0
 15 16  1  0
 16 17  1  6
 17 18  1  0
 19 16  1  0
 19 21  1  0
 20 19  2  0
M  END
$$$$
