HGC.pdb
     RDKit          3D

 21 21  0  0  1  0  0  0  0  0999 V2000
   25.3088  -11.2137  -20.5140 N   0  0  0  0  0  0  0  0  0  0  0  0
   24.2906  -10.2016  -20.4365 C   0  0  1  0  0  0  0  0  0  0  0  0
   22.9149  -10.8197  -20.2738 C   0  0  0  0  0  0  0  0  0  0  0  0
   22.6313  -11.7709  -21.3543 C   0  0  0  0  0  0  0  0  0  0  0  0
   22.5042  -13.1253  -21.2383 C   0  0  0  0  0  0  0  0  0  0  0  0
   22.2456  -13.6353  -22.4542 N   0  0  0  0  0  0  0  0  0  0  0  0
   22.2075  -12.6216  -23.3375 C   0  0  0  0  0  0  0  0  0  0  0  0
   22.4450  -11.4808  -22.6552 N   0  0  0  0  0  0  0  0  0  0  0  0
   24.5165   -9.2509  -19.3262 C   0  0  0  0  0  0  0  0  0  0  0  0
   25.1989   -9.6270  -18.3389 O   0  0  0  0  0  0  0  0  0  0  0  0
   24.0024   -7.9262  -19.3112 N   0  0  0  0  0  0  0  0  0  0  0  0
   24.2879   -7.0423  -18.1846 C   0  0  0  0  0  0  0  0  0  0  0  0
   23.0913   -6.7819  -17.3755 C   0  0  0  0  0  0  0  0  0  0  0  0
   21.9591   -6.9456  -17.8953 O   0  0  0  0  0  0  0  0  0  0  0  0
   23.1754   -6.3578  -16.0455 N   0  0  0  0  0  0  0  0  0  0  0  0
   22.0667   -5.9458  -15.2285 C   0  0  1  0  0  0  0  0  0  0  0  0
   21.8243   -6.8452  -14.0461 C   0  0  0  0  0  0  0  0  0  0  0  0
   20.4403   -6.2660  -13.0285 S   0  0  0  0  0  0  0  0  0  0  0  0
   22.2263   -4.5490  -14.7380 C   0  0  0  0  0  0  0  0  0  0  0  0
   23.2828   -4.1660  -14.2195 O   0  0  0  0  0  0  0  0  0  0  0  0
   21.1601   -3.6689  -14.8715 O   0  0  0  0  0  0  0  0  0  0  0  0
  2  1  1  1
  3  2  1  0
  3  4  1  0
  4  5  2  0
  5  6  1  0
  7  6  1  0
  8  4  1  0
  8  7  2  0
  9  2  1  0
  9 10  2  0
 11  9  1  0
 12 11  1  0
 12 13  1  0
 13 15  1  0
 14 13  2  0
 15 16  1  0
 16 17  1  1
 17 18  1  0
 19 16  1  0
 19 21  1  0
 20 19  2  0
M  END
$$$$
