HGC.pdb
     RDKit          3D

 21 21  0  0  1  0  0  0  0  0999 V2000
   18.9109  -10.9702  -18.0068 N   0  0  0  0  0  0  0  0  0  0  0  0
   17.9806  -10.2979  -17.1410 C   0  0  1  0  0  0  0  0  0  0  0  0
   17.9999  -10.8951  -15.7467 C   0  0  0  0  0  0  0  0  0  0  0  0
   17.6382  -12.3167  -15.7751 C   0  0  0  0  0  0  0  0  0  0  0  0
   18.4907  -13.3790  -15.6809 C   0  0  0  0  0  0  0  0  0  0  0  0
   17.7705  -14.5113  -15.7479 N   0  0  0  0  0  0  0  0  0  0  0  0
   16.4741  -14.1794  -15.8832 C   0  0  0  0  0  0  0  0  0  0  0  0
   16.4007  -12.8312  -15.8991 N   0  0  0  0  0  0  0  0  0  0  0  0
   18.2460   -8.8466  -17.0379 C   0  0  0  0  0  0  0  0  0  0  0  0
   17.4185   -8.1236  -16.4261 O   0  0  0  0  0  0  0  0  0  0  0  0
   19.3918   -8.2174  -17.5952 N   0  0  0  0  0  0  0  0  0  0  0  0
   19.5377   -6.7662  -17.5249 C   0  0  0  0  0  0  0  0  0  0  0  0
   19.8544   -6.3126  -16.1653 C   0  0  0  0  0  0  0  0  0  0  0  0
   18.9179   -6.1647  -15.3408 O   0  0  0  0  0  0  0  0  0  0  0  0
   21.1659   -6.0409  -15.7627 N   0  0  0  0  0  0  0  0  0  0  0  0
   21.5686   -5.6442  -14.4411 C   0  0  1  0  0  0  0  0  0  0  0  0
   22.7060   -6.4607  -13.8887 C   0  0  0  0  0  0  0  0  0  0  0  0
   22.2762   -8.2170  -13.7572 S   0  0  0  0  0  0  0  0  0  0  0  0
   21.9452   -4.2048  -14.3831 C   0  0  0  0  0  0  0  0  0  0  0  0
   22.1343   -3.5473  -15.4144 O   0  0  0  0  0  0  0  0  0  0  0  0
   22.0835   -3.6007  -13.1400 O   0  0  0  0  0  0  0  0  0  0  0  0
  2  1  1  6
  3  2  1  0
  3  4  1  0
  4  5  2  0
  5  6  1  0
  7  6  1  0
  8  4  1  0
  8  7  2  0
  9  2  1  0
  9 10  2  0
 11  9  1  0
 12 11  1  0
 12 13  1  0
 13 15  1  0
 14 13  2  0
 15 16  1  0
 16 17  1  6
 17 18  1  0
 19 16  1  0
 19 21  1  0
 20 19  2  0
M  END
$$$$
