HGC.pdb
     RDKit          3D

 21 21  0  0  1  0  0  0  0  0999 V2000
   24.8859  -18.8647  -16.0083 N   0  0  0  0  0  0  0  0  0  0  0  0
   26.1947  -19.2850  -16.4294 C   0  0  1  0  0  0  0  0  0  0  0  0
   26.9261  -18.1649  -17.1446 C   0  0  0  0  0  0  0  0  0  0  0  0
   26.6594  -16.8692  -16.5100 C   0  0  0  0  0  0  0  0  0  0  0  0
   26.0820  -15.7776  -17.0921 C   0  0  0  0  0  0  0  0  0  0  0  0
   26.0151  -14.7930  -16.1802 N   0  0  0  0  0  0  0  0  0  0  0  0
   26.5425  -15.2474  -15.0293 C   0  0  0  0  0  0  0  0  0  0  0  0
   26.9357  -16.5220  -15.2394 N   0  0  0  0  0  0  0  0  0  0  0  0
   27.0316  -19.7534  -15.3035 C   0  0  0  0  0  0  0  0  0  0  0  0
   28.0688  -20.4177  -15.5579 O   0  0  0  0  0  0  0  0  0  0  0  0
   26.7282  -19.4936  -13.9397 N   0  0  0  0  0  0  0  0  0  0  0  0
   27.5173  -20.1183  -12.8818 C   0  0  0  0  0  0  0  0  0  0  0  0
   26.6896  -20.9477  -11.9979 C   0  0  0  0  0  0  0  0  0  0  0  0
   26.1151  -21.9580  -12.4752 O   0  0  0  0  0  0  0  0  0  0  0  0
   26.5227  -20.6460  -10.6425 N   0  0  0  0  0  0  0  0  0  0  0  0
   25.4082  -21.0477   -9.8285 C   0  0  1  0  0  0  0  0  0  0  0  0
   25.4960  -20.5616   -8.4067 C   0  0  0  0  0  0  0  0  0  0  0  0
   27.1719  -20.0171   -7.9805 S   0  0  0  0  0  0  0  0  0  0  0  0
   24.1097  -20.6008  -10.4040 C   0  0  0  0  0  0  0  0  0  0  0  0
   24.0619  -19.7405  -11.2924 O   0  0  0  0  0  0  0  0  0  0  0  0
   22.9364  -21.1691   -9.9247 O   0  0  0  0  0  0  0  0  0  0  0  0
  2  1  1  1
  3  2  1  0
  3  4  1  0
  4  5  2  0
  5  6  1  0
  7  6  1  0
  8  4  1  0
  8  7  2  0
  9  2  1  0
  9 10  2  0
 11  9  1  0
 12 11  1  0
 12 13  1  0
 13 15  1  0
 14 13  2  0
 15 16  1  0
 16 17  1  1
 17 18  1  0
 19 16  1  0
 19 21  1  0
 20 19  2  0
M  END
$$$$
