HGC.pdb
     RDKit          3D

 21 21  0  0  1  0  0  0  0  0999 V2000
   20.3332  -20.2344  -15.4770 N   0  0  0  0  0  0  0  0  0  0  0  0
   21.2443  -20.2976  -14.3665 C   0  0  1  0  0  0  0  0  0  0  0  0
   21.3550  -21.7116  -13.8285 C   0  0  0  0  0  0  0  0  0  0  0  0
   20.0401  -22.2346  -13.4411 C   0  0  0  0  0  0  0  0  0  0  0  0
   19.2202  -23.0244  -14.1948 C   0  0  0  0  0  0  0  0  0  0  0  0
   18.1103  -23.2874  -13.4848 N   0  0  0  0  0  0  0  0  0  0  0  0
   18.2172  -22.6747  -12.2922 C   0  0  0  0  0  0  0  0  0  0  0  0
   19.4039  -22.0307  -12.2727 N   0  0  0  0  0  0  0  0  0  0  0  0
   22.5989  -19.8160  -14.7137 C   0  0  0  0  0  0  0  0  0  0  0  0
   23.4872  -19.8189  -13.8233 O   0  0  0  0  0  0  0  0  0  0  0  0
   22.9568  -19.3463  -16.0063 N   0  0  0  0  0  0  0  0  0  0  0  0
   24.3119  -18.8663  -16.2620 C   0  0  0  0  0  0  0  0  0  0  0  0
   24.3696  -17.4014  -16.3353 C   0  0  0  0  0  0  0  0  0  0  0  0
   23.2949  -16.7536  -16.3973 O   0  0  0  0  0  0  0  0  0  0  0  0
   25.5842  -16.7081  -16.3379 N   0  0  0  0  0  0  0  0  0  0  0  0
   25.7307  -15.2805  -16.4190 C   0  0  1  0  0  0  0  0  0  0  0  0
   27.0149  -14.7729  -15.8201 C   0  0  0  0  0  0  0  0  0  0  0  0
   27.4102  -15.6083  -14.2604 S   0  0  0  0  0  0  0  0  0  0  0  0
   25.6346  -14.7905  -17.8218 C   0  0  0  0  0  0  0  0  0  0  0  0
   26.0399  -15.4734  -18.7710 O   0  0  0  0  0  0  0  0  0  0  0  0
   25.0766  -13.5401  -18.0552 O   0  0  0  0  0  0  0  0  0  0  0  0
  2  1  1  6
  3  2  1  0
  3  4  1  0
  4  5  2  0
  5  6  1  0
  7  6  1  0
  8  4  1  0
  8  7  2  0
  9  2  1  0
  9 10  2  0
 11  9  1  0
 12 11  1  0
 12 13  1  0
 13 15  1  0
 14 13  2  0
 15 16  1  0
 16 17  1  6
 17 18  1  0
 19 16  1  0
 19 21  1  0
 20 19  2  0
M  END
$$$$
