HGC.pdb
     RDKit          3D

 21 21  0  0  1  0  0  0  0  0999 V2000
   20.7389  -22.1707  -15.0159 N   0  0  0  0  0  0  0  0  0  0  0  0
   20.9561  -20.9030  -14.3734 C   0  0  1  0  0  0  0  0  0  0  0  0
   19.6658  -20.3533  -13.7955 C   0  0  0  0  0  0  0  0  0  0  0  0
   18.8441  -19.7272  -14.8373 C   0  0  0  0  0  0  0  0  0  0  0  0
   18.5636  -18.3974  -14.9678 C   0  0  0  0  0  0  0  0  0  0  0  0
   17.7807  -18.2304  -16.0470 N   0  0  0  0  0  0  0  0  0  0  0  0
   17.5623  -19.4367  -16.6006 C   0  0  0  0  0  0  0  0  0  0  0  0
   18.2179  -20.3501  -15.8528 N   0  0  0  0  0  0  0  0  0  0  0  0
   21.9642  -20.9776  -13.2937 C   0  0  0  0  0  0  0  0  0  0  0  0
   21.6046  -21.3842  -12.1592 O   0  0  0  0  0  0  0  0  0  0  0  0
   23.3268  -20.6131  -13.4665 N   0  0  0  0  0  0  0  0  0  0  0  0
   24.2238  -20.5644  -12.3154 C   0  0  0  0  0  0  0  0  0  0  0  0
   25.5738  -20.1274  -12.6908 C   0  0  0  0  0  0  0  0  0  0  0  0
   25.7123  -19.0351  -13.2961 O   0  0  0  0  0  0  0  0  0  0  0  0
   26.7076  -20.8906  -12.3945 N   0  0  0  0  0  0  0  0  0  0  0  0
   28.0548  -20.5688  -12.7788 C   0  0  1  0  0  0  0  0  0  0  0  0
   29.0955  -21.1220  -11.8426 C   0  0  0  0  0  0  0  0  0  0  0  0
   28.7749  -20.6521  -10.1212 S   0  0  0  0  0  0  0  0  0  0  0  0
   28.3645  -21.0310  -14.1599 C   0  0  0  0  0  0  0  0  0  0  0  0
   27.5842  -21.7613  -14.7840 O   0  0  0  0  0  0  0  0  0  0  0  0
   29.5566  -20.6270  -14.7474 O   0  0  0  0  0  0  0  0  0  0  0  0
  2  1  1  1
  3  2  1  0
  3  4  1  0
  4  5  2  0
  5  6  1  0
  7  6  1  0
  8  4  1  0
  8  7  2  0
  9  2  1  0
  9 10  2  0
 11  9  1  0
 12 11  1  0
 12 13  1  0
 13 15  1  0
 14 13  2  0
 15 16  1  0
 16 17  1  1
 17 18  1  0
 19 16  1  0
 19 21  1  0
 20 19  2  0
M  END
$$$$
