HGC.pdb
     RDKit          3D

 21 21  0  0  1  0  0  0  0  0999 V2000
   21.2146  -25.8133  -16.2286 N   0  0  0  0  0  0  0  0  0  0  0  0
   21.4955  -25.5192  -14.8496 C   0  0  1  0  0  0  0  0  0  0  0  0
   22.4506  -24.3475  -14.7229 C   0  0  0  0  0  0  0  0  0  0  0  0
   23.7832  -24.6941  -15.2296 C   0  0  0  0  0  0  0  0  0  0  0  0
   24.1637  -25.8833  -15.7818 C   0  0  0  0  0  0  0  0  0  0  0  0
   25.4619  -25.8014  -16.1187 N   0  0  0  0  0  0  0  0  0  0  0  0
   25.9073  -24.5763  -15.7870 C   0  0  0  0  0  0  0  0  0  0  0  0
   24.8717  -23.9026  -15.2420 N   0  0  0  0  0  0  0  0  0  0  0  0
   20.2740  -25.2203  -14.0712 C   0  0  0  0  0  0  0  0  0  0  0  0
   19.3809  -24.5092  -14.5988 O   0  0  0  0  0  0  0  0  0  0  0  0
   20.0502  -25.6946  -12.7504 N   0  0  0  0  0  0  0  0  0  0  0  0
   18.8281  -25.3310  -12.0387 C   0  0  0  0  0  0  0  0  0  0  0  0
   18.8015  -25.8822  -10.6786 C   0  0  0  0  0  0  0  0  0  0  0  0
   19.2094  -27.0556  -10.4907 O   0  0  0  0  0  0  0  0  0  0  0  0
   18.3360  -25.1400   -9.5885 N   0  0  0  0  0  0  0  0  0  0  0  0
   18.2432  -25.6132   -8.2344 C   0  0  1  0  0  0  0  0  0  0  0  0
   18.0346  -24.5149   -7.2266 C   0  0  0  0  0  0  0  0  0  0  0  0
   19.0770  -23.0726   -7.5728 S   0  0  0  0  0  0  0  0  0  0  0  0
   17.1588  -26.6204   -8.0706 C   0  0  0  0  0  0  0  0  0  0  0  0
   16.1299  -26.5753   -8.7568 O   0  0  0  0  0  0  0  0  0  0  0  0
   17.3185  -27.6252   -7.1249 O   0  0  0  0  0  0  0  0  0  0  0  0
  2  1  1  6
  3  2  1  0
  3  4  1  0
  4  5  2  0
  5  6  1  0
  7  6  1  0
  8  4  1  0
  8  7  2  0
  9  2  1  0
  9 10  2  0
 11  9  1  0
 12 11  1  0
 12 13  1  0
 13 15  1  0
 14 13  2  0
 15 16  1  0
 16 17  1  1
 17 18  1  0
 19 16  1  0
 19 21  1  0
 20 19  2  0
M  END
$$$$
