HGC.pdb
     RDKit          3D

 21 21  0  0  1  0  0  0  0  0999 V2000
   20.3077  -19.6246  -15.2011 N   0  0  0  0  0  0  0  0  0  0  0  0
   21.5921  -20.0985  -14.7621 C   0  0  1  0  0  0  0  0  0  0  0  0
   22.6061  -18.9712  -14.7173 C   0  0  0  0  0  0  0  0  0  0  0  0
   22.6223  -18.2239  -15.9798 C   0  0  0  0  0  0  0  0  0  0  0  0
   22.8737  -18.7268  -17.2240 C   0  0  0  0  0  0  0  0  0  0  0  0
   22.7946  -17.7232  -18.1139 N   0  0  0  0  0  0  0  0  0  0  0  0
   22.4966  -16.5924  -17.4492 C   0  0  0  0  0  0  0  0  0  0  0  0
   22.3925  -16.9075  -16.1403 N   0  0  0  0  0  0  0  0  0  0  0  0
   21.5376  -20.7390  -13.4301 C   0  0  0  0  0  0  0  0  0  0  0  0
   22.4161  -20.4415  -12.5807 O   0  0  0  0  0  0  0  0  0  0  0  0
   20.5410  -21.6791  -13.0522 N   0  0  0  0  0  0  0  0  0  0  0  0
   20.5275  -22.2284  -11.6994 C   0  0  0  0  0  0  0  0  0  0  0  0
   19.3686  -23.1004  -11.4736 C   0  0  0  0  0  0  0  0  0  0  0  0
   18.4630  -23.1444  -12.3434 O   0  0  0  0  0  0  0  0  0  0  0  0
   19.2442  -23.8818  -10.3204 N   0  0  0  0  0  0  0  0  0  0  0  0
   18.1459  -24.7594  -10.0208 C   0  0  1  0  0  0  0  0  0  0  0  0
   18.3251  -25.5314   -8.7411 C   0  0  0  0  0  0  0  0  0  0  0  0
   18.6168  -24.4364   -7.3260 S   0  0  0  0  0  0  0  0  0  0  0  0
   16.8509  -24.0275   -9.9565 C   0  0  0  0  0  0  0  0  0  0  0  0
   16.8081  -22.8167   -9.7036 O   0  0  0  0  0  0  0  0  0  0  0  0
   15.6750  -24.7300  -10.1871 O   0  0  0  0  0  0  0  0  0  0  0  0
  2  1  1  1
  3  2  1  0
  3  4  1  0
  4  5  2  0
  5  6  1  0
  7  6  1  0
  8  4  1  0
  8  7  2  0
  9  2  1  0
  9 10  2  0
 11  9  1  0
 12 11  1  0
 12 13  1  0
 13 15  1  0
 14 13  2  0
 15 16  1  0
 16 17  1  1
 17 18  1  0
 19 16  1  0
 19 21  1  0
 20 19  2  0
M  END
$$$$
