HGC.pdb
     RDKit          3D

 21 21  0  0  1  0  0  0  0  0999 V2000
   18.1150  -17.4455  -16.6647 N   0  0  0  0  0  0  0  0  0  0  0  0
   18.5593  -17.3269  -18.0269 C   0  0  1  0  0  0  0  0  0  0  0  0
   18.0013  -18.4466  -18.8847 C   0  0  0  0  0  0  0  0  0  0  0  0
   18.3781  -19.7602  -18.3506 C   0  0  0  0  0  0  0  0  0  0  0  0
   17.5323  -20.7723  -17.9982 C   0  0  0  0  0  0  0  0  0  0  0  0
   18.2662  -21.8068  -17.5548 N   0  0  0  0  0  0  0  0  0  0  0  0
   19.5647  -21.4624  -17.6219 C   0  0  0  0  0  0  0  0  0  0  0  0
   19.6255  -20.2052  -18.1112 N   0  0  0  0  0  0  0  0  0  0  0  0
   18.1854  -16.0324  -18.6367 C   0  0  0  0  0  0  0  0  0  0  0  0
   18.5586  -15.7890  -19.8129 O   0  0  0  0  0  0  0  0  0  0  0  0
   17.4225  -15.0399  -17.9641 N   0  0  0  0  0  0  0  0  0  0  0  0
   17.1623  -13.7551  -18.6073 C   0  0  0  0  0  0  0  0  0  0  0  0
   17.3151  -12.6336  -17.6728 C   0  0  0  0  0  0  0  0  0  0  0  0
   17.1314  -12.8355  -16.4464 O   0  0  0  0  0  0  0  0  0  0  0  0
   17.6585  -11.3496  -18.1079 N   0  0  0  0  0  0  0  0  0  0  0  0
   17.6967  -10.1714  -17.2853 C   0  0  1  0  0  0  0  0  0  0  0  0
   18.4760   -9.0373  -17.8954 C   0  0  0  0  0  0  0  0  0  0  0  0
   20.1675   -9.5311  -18.3213 S   0  0  0  0  0  0  0  0  0  0  0  0
   16.3308   -9.6828  -16.9499 C   0  0  0  0  0  0  0  0  0  0  0  0
   15.3285  -10.1340  -17.5187 O   0  0  0  0  0  0  0  0  0  0  0  0
   16.1933   -8.7008  -15.9772 O   0  0  0  0  0  0  0  0  0  0  0  0
  2  1  1  1
  3  2  1  0
  3  4  1  0
  4  5  2  0
  5  6  1  0
  7  6  1  0
  8  4  1  0
  8  7  2  0
  9  2  1  0
  9 10  2  0
 11  9  1  0
 12 11  1  0
 12 13  1  0
 13 15  1  0
 14 13  2  0
 15 16  1  0
 16 17  1  6
 17 18  1  0
 19 16  1  0
 19 21  1  0
 20 19  2  0
M  END
$$$$
