GQD.pdb
     RDKit          3D

 22 21  0  0  1  0  0  0  0  0999 V2000
    7.8681  -13.2698   19.2060 N   0  0  0  0  0  0  0  0  0  0  0  0
    7.1205  -13.8602   20.2693 C   0  0  0  0  0  0  0  0  0  0  0  0
    7.9177  -13.8008   21.5178 C   0  0  0  0  0  0  0  0  0  0  0  0
    9.1092  -13.3853   21.5063 O   0  0  0  0  0  0  0  0  0  0  0  0
    6.1799  -11.0351   27.1481 N   0  0  0  0  0  0  0  0  0  0  0  0
    6.1989  -12.2852   26.4900 C   0  0  0  0  0  0  0  0  0  0  0  0
    5.5698  -13.2213   27.0366 O   0  0  0  0  0  0  0  0  0  0  0  0
    6.9178  -12.5152   25.2133 C   0  0  0  0  0  0  0  0  0  0  0  0
    7.3870  -13.9298   25.1724 C   0  0  0  0  0  0  0  0  0  0  0  0
    8.1500  -14.2930   23.9184 C   0  0  2  0  0  0  0  0  0  0  0  0
    7.3251  -14.2191   22.7384 N   0  0  0  0  0  0  0  0  0  0  0  0
    8.7346  -15.6713   24.0306 C   0  0  0  0  0  0  0  0  0  0  0  0
    8.0458  -16.6844   23.7364 O   0  0  0  0  0  0  0  0  0  0  0  0
   10.0584  -15.8873   24.4630 N   0  0  0  0  0  0  0  0  0  0  0  0
   10.6429  -17.2443   24.5998 C   0  0  1  0  0  0  0  0  0  0  0  0
   12.0759  -17.0948   24.1651 C   0  0  0  0  0  0  0  0  0  0  0  0
   12.2635  -16.8685   22.7404 C   0  0  0  0  0  0  0  0  0  0  0  0
   11.6187  -17.4255   21.8327 O   0  0  0  0  0  0  0  0  0  0  0  0
   10.4897  -17.7024   25.9861 C   0  0  0  0  0  0  0  0  0  0  0  0
   10.1183  -16.8847   26.8720 O   0  0  0  0  0  0  0  0  0  0  0  0
   13.2403  -15.9565   22.3053 O   0  0  0  0  0  0  0  0  0  0  0  0
   10.7298  -18.9908   26.3819 O   0  0  0  0  0  0  0  0  0  0  0  0
  2  1  1  0
  2  3  1  0
  3 11  1  0
  4  3  2  0
  6  7  2  0
  6  5  1  0
  8  6  1  0
  9  8  1  0
 10 12  1  0
 10  9  1  1
 11 10  1  0
 12 14  1  0
 13 12  2  0
 14 15  1  0
 15 19  1  0
 15 16  1  1
 16 17  1  0
 17 18  2  0
 17 21  1  0
 19 20  2  0
 19 22  1  0
M  END
$$$$
