GQD.pdb
     RDKit          3D

 22 21  0  0  1  0  0  0  0  0999 V2000
    4.3007  -19.1982   20.5559 N   0  0  0  0  0  0  0  0  0  0  0  0
    4.8439  -18.0805   21.2585 C   0  0  0  0  0  0  0  0  0  0  0  0
    6.2318  -17.8409   20.7957 C   0  0  0  0  0  0  0  0  0  0  0  0
    6.7847  -18.6229   19.9740 O   0  0  0  0  0  0  0  0  0  0  0  0
    8.6110  -13.1079   18.1787 N   0  0  0  0  0  0  0  0  0  0  0  0
    8.1319  -12.8828   19.4886 C   0  0  0  0  0  0  0  0  0  0  0  0
    7.8828  -11.6954   19.8031 O   0  0  0  0  0  0  0  0  0  0  0  0
    7.9217  -13.9742   20.4706 C   0  0  0  0  0  0  0  0  0  0  0  0
    8.2900  -15.2718   19.8352 C   0  0  0  0  0  0  0  0  0  0  0  0
    8.2645  -16.4527   20.7794 C   0  0  2  0  0  0  0  0  0  0  0  0
    6.9414  -16.7142   21.2888 N   0  0  0  0  0  0  0  0  0  0  0  0
    9.2059  -16.2366   21.9288 C   0  0  0  0  0  0  0  0  0  0  0  0
    8.8338  -15.5982   22.9493 O   0  0  0  0  0  0  0  0  0  0  0  0
   10.5255  -16.7311   21.9155 N   0  0  0  0  0  0  0  0  0  0  0  0
   11.4822  -16.4847   23.0227 C   0  0  1  0  0  0  0  0  0  0  0  0
   11.4334  -17.7329   23.8621 C   0  0  0  0  0  0  0  0  0  0  0  0
   12.3429  -17.7437   24.9973 C   0  0  0  0  0  0  0  0  0  0  0  0
   13.0847  -16.8021   25.3336 O   0  0  0  0  0  0  0  0  0  0  0  0
   12.8093  -16.1986   22.4643 C   0  0  0  0  0  0  0  0  0  0  0  0
   13.1420  -16.7127   21.3614 O   0  0  0  0  0  0  0  0  0  0  0  0
   12.4257  -18.8878   25.8094 O   0  0  0  0  0  0  0  0  0  0  0  0
   13.7251  -15.3897   23.0816 O   0  0  0  0  0  0  0  0  0  0  0  0
  2  1  1  0
  2  3  1  0
  3 11  1  0
  4  3  2  0
  6  7  2  0
  6  5  1  0
  8  6  1  0
  9  8  1  0
 10 12  1  0
 10  9  1  6
 11 10  1  0
 12 14  1  0
 13 12  2  0
 14 15  1  0
 15 19  1  0
 15 16  1  1
 16 17  1  0
 17 18  2  0
 17 21  1  0
 19 20  2  0
 19 22  1  0
M  END
$$$$
