GQD.pdb
     RDKit          3D

 22 21  0  0  1  0  0  0  0  0999 V2000
    8.9164  -19.0986   16.8015 N   0  0  0  0  0  0  0  0  0  0  0  0
    7.9453  -18.7707   17.7953 C   0  0  0  0  0  0  0  0  0  0  0  0
    8.4812  -17.6965   18.6653 C   0  0  0  0  0  0  0  0  0  0  0  0
    9.6989  -17.3692   18.6149 O   0  0  0  0  0  0  0  0  0  0  0  0
    7.9986  -12.8642   19.3357 N   0  0  0  0  0  0  0  0  0  0  0  0
    8.0391  -12.7771   20.7452 C   0  0  0  0  0  0  0  0  0  0  0  0
    8.5175  -11.7263   21.2331 O   0  0  0  0  0  0  0  0  0  0  0  0
    7.5485  -13.8568   21.6358 C   0  0  0  0  0  0  0  0  0  0  0  0
    7.0536  -14.9858   20.7970 C   0  0  0  0  0  0  0  0  0  0  0  0
    8.1292  -15.9619   20.3759 C   0  0  2  0  0  0  0  0  0  0  0  0
    7.6057  -17.0324   19.5644 N   0  0  0  0  0  0  0  0  0  0  0  0
    8.8227  -16.5407   21.5752 C   0  0  0  0  0  0  0  0  0  0  0  0
    8.3075  -17.4979   22.2121 O   0  0  0  0  0  0  0  0  0  0  0  0
   10.0604  -16.0457   22.0323 N   0  0  0  0  0  0  0  0  0  0  0  0
   10.7533  -16.6014   23.2210 C   0  0  1  0  0  0  0  0  0  0  0  0
   12.0872  -15.9054   23.2529 C   0  0  0  0  0  0  0  0  0  0  0  0
   13.0732  -16.4277   22.3195 C   0  0  0  0  0  0  0  0  0  0  0  0
   13.3613  -17.6303   22.1759 O   0  0  0  0  0  0  0  0  0  0  0  0
    9.9339  -16.3654   24.4161 C   0  0  0  0  0  0  0  0  0  0  0  0
   10.2821  -16.8735   25.5169 O   0  0  0  0  0  0  0  0  0  0  0  0
   13.7837  -15.5411   21.4922 O   0  0  0  0  0  0  0  0  0  0  0  0
    8.7921  -15.6102   24.4062 O   0  0  0  0  0  0  0  0  0  0  0  0
  2  1  1  0
  2  3  1  0
  3 11  1  0
  4  3  2  0
  6  7  2  0
  6  5  1  0
  8  6  1  0
  9  8  1  0
 10 12  1  0
 10  9  1  1
 11 10  1  0
 12 14  1  0
 13 12  2  0
 14 15  1  0
 15 19  1  0
 15 16  1  1
 16 17  1  0
 17 18  2  0
 17 21  1  0
 19 20  2  0
 19 22  1  0
M  END
$$$$
