GQD.pdb
     RDKit          3D

 22 21  0  0  1  0  0  0  0  0999 V2000
   13.0943  -27.2344   28.4318 N   0  0  0  0  0  0  0  0  0  0  0  0
   13.2133  -26.9580   29.8273 C   0  0  0  0  0  0  0  0  0  0  0  0
   13.5939  -25.5372   30.0125 C   0  0  0  0  0  0  0  0  0  0  0  0
   14.1601  -24.8924   29.0873 O   0  0  0  0  0  0  0  0  0  0  0  0
   10.3577  -21.0372   32.2783 N   0  0  0  0  0  0  0  0  0  0  0  0
   11.6328  -20.4334   32.2052 C   0  0  0  0  0  0  0  0  0  0  0  0
   11.6855  -19.1976   32.4075 O   0  0  0  0  0  0  0  0  0  0  0  0
   12.8706  -21.1935   31.9057 C   0  0  0  0  0  0  0  0  0  0  0  0
   12.5311  -22.6406   31.7882 C   0  0  0  0  0  0  0  0  0  0  0  0
   13.7033  -23.5240   31.4245 C   0  0  2  0  0  0  0  0  0  0  0  0
   13.3141  -24.9011   31.2507 N   0  0  0  0  0  0  0  0  0  0  0  0
   14.7786  -23.4393   32.4689 C   0  0  0  0  0  0  0  0  0  0  0  0
   14.5804  -23.8885   33.6292 O   0  0  0  0  0  0  0  0  0  0  0  0
   16.0362  -22.8628   32.2000 N   0  0  0  0  0  0  0  0  0  0  0  0
   17.0883  -22.7212   33.2367 C   0  0  1  0  0  0  0  0  0  0  0  0
   18.3080  -23.3727   32.6427 C   0  0  0  0  0  0  0  0  0  0  0  0
   19.4926  -23.3394   33.4864 C   0  0  0  0  0  0  0  0  0  0  0  0
   20.6621  -23.4998   33.0907 O   0  0  0  0  0  0  0  0  0  0  0  0
   17.2715  -21.2994   33.5528 C   0  0  0  0  0  0  0  0  0  0  0  0
   18.1342  -20.9605   34.4084 O   0  0  0  0  0  0  0  0  0  0  0  0
   19.3557  -23.1109   34.8663 O   0  0  0  0  0  0  0  0  0  0  0  0
   16.5474  -20.2995   32.9610 O   0  0  0  0  0  0  0  0  0  0  0  0
  2  1  1  0
  2  3  1  0
  3 11  1  0
  4  3  2  0
  6  7  2  0
  6  5  1  0
  8  6  1  0
  9  8  1  0
 10 12  1  0
 10  9  1  1
 11 10  1  0
 12 14  1  0
 13 12  2  0
 14 15  1  0
 15 19  1  0
 15 16  1  6
 16 17  1  0
 17 18  2  0
 17 21  1  0
 19 20  2  0
 19 22  1  0
M  END
$$$$
