GQD.pdb
     RDKit          3D

 22 21  0  0  1  0  0  0  0  0999 V2000
    5.0280  -19.5955   20.3448 N   0  0  0  0  0  0  0  0  0  0  0  0
    4.9816  -18.4552   21.2026 C   0  0  0  0  0  0  0  0  0  0  0  0
    6.1129  -17.5539   20.8775 C   0  0  0  0  0  0  0  0  0  0  0  0
    7.0095  -17.9076   20.0630 O   0  0  0  0  0  0  0  0  0  0  0  0
    7.6339  -12.8867   18.4793 N   0  0  0  0  0  0  0  0  0  0  0  0
    8.4975  -13.2788   19.5264 C   0  0  0  0  0  0  0  0  0  0  0  0
    9.5859  -13.8044   19.1945 O   0  0  0  0  0  0  0  0  0  0  0  0
    8.1654  -13.0931   20.9599 C   0  0  0  0  0  0  0  0  0  0  0  0
    7.0190  -13.9807   21.3079 C   0  0  0  0  0  0  0  0  0  0  0  0
    7.3433  -15.4571   21.2629 C   0  0  2  0  0  0  0  0  0  0  0  0
    6.1807  -16.2773   21.4953 N   0  0  0  0  0  0  0  0  0  0  0  0
    8.4034  -15.8008   22.2690 C   0  0  0  0  0  0  0  0  0  0  0  0
    8.2344  -15.5419   23.4903 O   0  0  0  0  0  0  0  0  0  0  0  0
    9.6139  -16.4183   21.8957 N   0  0  0  0  0  0  0  0  0  0  0  0
   10.6736  -16.7575   22.8775 C   0  0  1  0  0  0  0  0  0  0  0  0
   10.8670  -18.2438   22.7411 C   0  0  0  0  0  0  0  0  0  0  0  0
   10.4989  -19.0198   23.9151 C   0  0  0  0  0  0  0  0  0  0  0  0
    9.8421  -20.0774   23.9012 O   0  0  0  0  0  0  0  0  0  0  0  0
   11.8795  -15.9742   22.5818 C   0  0  0  0  0  0  0  0  0  0  0  0
   12.7972  -15.8994   23.4440 O   0  0  0  0  0  0  0  0  0  0  0  0
   10.8940  -18.5796   25.1900 O   0  0  0  0  0  0  0  0  0  0  0  0
   12.0710  -15.3078   21.4014 O   0  0  0  0  0  0  0  0  0  0  0  0
  2  1  1  0
  2  3  1  0
  3 11  1  0
  4  3  2  0
  6  7  2  0
  6  5  1  0
  8  6  1  0
  9  8  1  0
 10 12  1  0
 10  9  1  1
 11 10  1  0
 12 14  1  0
 13 12  2  0
 14 15  1  0
 15 19  1  0
 15 16  1  6
 16 17  1  0
 17 18  2  0
 17 21  1  0
 19 20  2  0
 19 22  1  0
M  END
$$$$
