GQD.pdb
     RDKit          3D

 22 21  0  0  1  0  0  0  0  0999 V2000
    4.9165  -19.4536   22.8465 N   0  0  0  0  0  0  0  0  0  0  0  0
    5.3374  -18.1002   23.0169 C   0  0  0  0  0  0  0  0  0  0  0  0
    6.4122  -17.7971   22.0419 C   0  0  0  0  0  0  0  0  0  0  0  0
    6.8274  -18.6792   21.2406 O   0  0  0  0  0  0  0  0  0  0  0  0
    7.5232  -11.5222   19.9415 N   0  0  0  0  0  0  0  0  0  0  0  0
    7.5757  -12.8862   19.5774 C   0  0  0  0  0  0  0  0  0  0  0  0
    8.0302  -13.1505   18.4396 O   0  0  0  0  0  0  0  0  0  0  0  0
    7.1238  -13.9792   20.4723 C   0  0  0  0  0  0  0  0  0  0  0  0
    8.3150  -14.7489   20.9325 C   0  0  0  0  0  0  0  0  0  0  0  0
    8.0649  -16.2299   21.1084 C   0  0  2  0  0  0  0  0  0  0  0  0
    6.9766  -16.4945   22.0161 N   0  0  0  0  0  0  0  0  0  0  0  0
    9.3020  -16.9246   21.5995 C   0  0  0  0  0  0  0  0  0  0  0  0
    9.9351  -17.7120   20.8469 O   0  0  0  0  0  0  0  0  0  0  0  0
    9.8000  -16.7285   22.9032 N   0  0  0  0  0  0  0  0  0  0  0  0
   11.1408  -17.2032   23.3260 C   0  0  1  0  0  0  0  0  0  0  0  0
   12.1107  -16.4503   22.4557 C   0  0  0  0  0  0  0  0  0  0  0  0
   13.5127  -16.6414   22.7934 C   0  0  0  0  0  0  0  0  0  0  0  0
   14.0096  -17.6951   23.2328 O   0  0  0  0  0  0  0  0  0  0  0  0
   11.3155  -16.9515   24.7617 C   0  0  0  0  0  0  0  0  0  0  0  0
   10.5239  -16.1687   25.3549 O   0  0  0  0  0  0  0  0  0  0  0  0
   14.4177  -15.5790   22.6272 O   0  0  0  0  0  0  0  0  0  0  0  0
   12.3060  -17.5288   25.5100 O   0  0  0  0  0  0  0  0  0  0  0  0
  2  1  1  0
  2  3  1  0
  3 11  1  0
  4  3  2  0
  6  7  2  0
  6  5  1  0
  8  6  1  0
  9  8  1  0
 10 12  1  0
 10  9  1  1
 11 10  1  0
 12 14  1  0
 13 12  2  0
 14 15  1  0
 15 19  1  0
 15 16  1  6
 16 17  1  0
 17 18  2  0
 17 21  1  0
 19 20  2  0
 19 22  1  0
M  END
$$$$
