GQD.pdb
     RDKit          3D

 22 21  0  0  1  0  0  0  0  0999 V2000
    7.2478  -19.2754   17.1251 N   0  0  0  0  0  0  0  0  0  0  0  0
    6.7831  -18.9755   18.4413 C   0  0  0  0  0  0  0  0  0  0  0  0
    7.5053  -17.7869   18.9545 C   0  0  0  0  0  0  0  0  0  0  0  0
    8.6171  -17.4436   18.4662 O   0  0  0  0  0  0  0  0  0  0  0  0
    7.5897  -12.9989   19.4166 N   0  0  0  0  0  0  0  0  0  0  0  0
    7.9555  -12.8156   20.7688 C   0  0  0  0  0  0  0  0  0  0  0  0
    8.6119  -11.7834   21.0419 O   0  0  0  0  0  0  0  0  0  0  0  0
    7.5976  -13.7770   21.8400 C   0  0  0  0  0  0  0  0  0  0  0  0
    6.8380  -14.9095   21.2371 C   0  0  0  0  0  0  0  0  0  0  0  0
    7.7087  -15.9721   20.6050 C   0  0  2  0  0  0  0  0  0  0  0  0
    6.9312  -17.0303   20.0100 N   0  0  0  0  0  0  0  0  0  0  0  0
    8.6536  -16.5568   21.6147 C   0  0  0  0  0  0  0  0  0  0  0  0
    8.2574  -17.4313   22.4305 O   0  0  0  0  0  0  0  0  0  0  0  0
   10.0033  -16.1586   21.6916 N   0  0  0  0  0  0  0  0  0  0  0  0
   10.9435  -16.7122   22.6973 C   0  0  1  0  0  0  0  0  0  0  0  0
   12.2833  -16.1286   22.3379 C   0  0  0  0  0  0  0  0  0  0  0  0
   13.3747  -16.5107   23.2205 C   0  0  0  0  0  0  0  0  0  0  0  0
   13.2930  -17.3349   24.1501 O   0  0  0  0  0  0  0  0  0  0  0  0
   10.4830  -16.3517   24.0438 C   0  0  0  0  0  0  0  0  0  0  0  0
    9.8742  -15.2610   24.2198 O   0  0  0  0  0  0  0  0  0  0  0  0
   14.6424  -15.9289   23.0487 O   0  0  0  0  0  0  0  0  0  0  0  0
   10.6781  -17.1461   25.1416 O   0  0  0  0  0  0  0  0  0  0  0  0
  2  1  1  0
  2  3  1  0
  3 11  1  0
  4  3  2  0
  6  7  2  0
  6  5  1  0
  8  6  1  0
  9  8  1  0
 10 12  1  0
 10  9  1  1
 11 10  1  0
 12 14  1  0
 13 12  2  0
 14 15  1  0
 15 19  1  0
 15 16  1  6
 16 17  1  0
 17 18  2  0
 17 21  1  0
 19 20  2  0
 19 22  1  0
M  END
$$$$
