GQD.pdb
     RDKit          3D

 22 21  0  0  1  0  0  0  0  0999 V2000
    7.4817  -13.0647   19.0758 N   0  0  0  0  0  0  0  0  0  0  0  0
    6.9244  -13.7575   20.1927 C   0  0  0  0  0  0  0  0  0  0  0  0
    7.7149  -13.4418   21.4065 C   0  0  0  0  0  0  0  0  0  0  0  0
    8.2121  -12.2943   21.5754 O   0  0  0  0  0  0  0  0  0  0  0  0
    7.2855  -12.1278   26.9243 N   0  0  0  0  0  0  0  0  0  0  0  0
    6.3379  -12.9482   26.2725 C   0  0  0  0  0  0  0  0  0  0  0  0
    5.2591  -13.1550   26.8759 O   0  0  0  0  0  0  0  0  0  0  0  0
    6.5741  -13.5525   24.9387 C   0  0  0  0  0  0  0  0  0  0  0  0
    7.8958  -13.0896   24.4271 C   0  0  0  0  0  0  0  0  0  0  0  0
    8.6292  -14.1140   23.5908 C   0  0  2  0  0  0  0  0  0  0  0  0
    7.9104  -14.4499   22.3871 N   0  0  0  0  0  0  0  0  0  0  0  0
    8.8847  -15.3640   24.3823 C   0  0  0  0  0  0  0  0  0  0  0  0
    7.9497  -16.1752   24.6166 O   0  0  0  0  0  0  0  0  0  0  0  0
   10.1617  -15.6782   24.8890 N   0  0  0  0  0  0  0  0  0  0  0  0
   10.5125  -17.0309   25.3880 C   0  0  1  0  0  0  0  0  0  0  0  0
   12.0052  -17.1296   25.2239 C   0  0  0  0  0  0  0  0  0  0  0  0
   12.4923  -16.8669   23.8785 C   0  0  0  0  0  0  0  0  0  0  0  0
   11.9761  -17.2963   22.8301 O   0  0  0  0  0  0  0  0  0  0  0  0
   10.0595  -17.1694   26.7775 C   0  0  0  0  0  0  0  0  0  0  0  0
    9.6217  -16.1578   27.3908 O   0  0  0  0  0  0  0  0  0  0  0  0
   13.6352  -16.0692   23.6976 O   0  0  0  0  0  0  0  0  0  0  0  0
   10.0836  -18.3558   27.4603 O   0  0  0  0  0  0  0  0  0  0  0  0
  2  1  1  0
  2  3  1  0
  3 11  1  0
  4  3  2  0
  6  7  2  0
  6  5  1  0
  8  6  1  0
  9  8  1  0
 10 12  1  0
 10  9  1  1
 11 10  1  0
 12 14  1  0
 13 12  2  0
 14 15  1  0
 15 19  1  0
 15 16  1  1
 16 17  1  0
 17 18  2  0
 17 21  1  0
 19 20  2  0
 19 22  1  0
M  END
$$$$
