GQD.pdb
     RDKit          3D

 22 21  0  0  1  0  0  0  0  0999 V2000
    7.6003  -19.1030   16.6632 N   0  0  0  0  0  0  0  0  0  0  0  0
    7.0064  -18.6375   17.8751 C   0  0  0  0  0  0  0  0  0  0  0  0
    7.8955  -17.6277   18.4977 C   0  0  0  0  0  0  0  0  0  0  0  0
    9.1321  -17.6108   18.2466 O   0  0  0  0  0  0  0  0  0  0  0  0
    8.7975  -11.8260   18.9822 N   0  0  0  0  0  0  0  0  0  0  0  0
    9.2028  -12.8546   19.8618 C   0  0  0  0  0  0  0  0  0  0  0  0
   10.3472  -13.3334   19.6825 O   0  0  0  0  0  0  0  0  0  0  0  0
    8.3425  -13.3680   20.9554 C   0  0  0  0  0  0  0  0  0  0  0  0
    7.4680  -14.4476   20.4142 C   0  0  0  0  0  0  0  0  0  0  0  0
    8.2138  -15.6901   19.9821 C   0  0  2  0  0  0  0  0  0  0  0  0
    7.3401  -16.6705   19.3872 N   0  0  0  0  0  0  0  0  0  0  0  0
    8.9372  -16.3085   21.1434 C   0  0  0  0  0  0  0  0  0  0  0  0
    8.3098  -16.9855   22.0009 O   0  0  0  0  0  0  0  0  0  0  0  0
   10.3273  -16.1602   21.3210 N   0  0  0  0  0  0  0  0  0  0  0  0
   11.0594  -16.7842   22.4509 C   0  0  1  0  0  0  0  0  0  0  0  0
   12.5019  -16.4175   22.2278 C   0  0  0  0  0  0  0  0  0  0  0  0
   13.4293  -16.9521   23.2128 C   0  0  0  0  0  0  0  0  0  0  0  0
   13.3423  -16.7911   24.4443 O   0  0  0  0  0  0  0  0  0  0  0  0
   10.5118  -16.2871   23.7190 C   0  0  0  0  0  0  0  0  0  0  0  0
   10.1882  -15.0721   23.8209 O   0  0  0  0  0  0  0  0  0  0  0  0
   14.5280  -17.7184   22.7875 O   0  0  0  0  0  0  0  0  0  0  0  0
   10.3268  -17.0805   24.8192 O   0  0  0  0  0  0  0  0  0  0  0  0
  2  1  1  0
  2  3  1  0
  3 11  1  0
  4  3  2  0
  6  7  2  0
  6  5  1  0
  8  6  1  0
  9  8  1  0
 10 12  1  0
 10  9  1  1
 11 10  1  0
 12 14  1  0
 13 12  2  0
 14 15  1  0
 15 19  1  0
 15 16  1  6
 16 17  1  0
 17 18  2  0
 17 21  1  0
 19 20  2  0
 19 22  1  0
M  END
$$$$
