GQD.pdb
     RDKit          3D

 22 21  0  0  1  0  0  0  0  0999 V2000
    6.9238  -19.3689   19.4744 N   0  0  0  0  0  0  0  0  0  0  0  0
    6.6164  -18.3346   20.4092 C   0  0  0  0  0  0  0  0  0  0  0  0
    7.6094  -17.2423   20.2721 C   0  0  0  0  0  0  0  0  0  0  0  0
    8.7233  -17.4456   19.7152 O   0  0  0  0  0  0  0  0  0  0  0  0
    9.3475  -12.5130   18.6813 N   0  0  0  0  0  0  0  0  0  0  0  0
    8.0535  -13.0559   18.5177 C   0  0  0  0  0  0  0  0  0  0  0  0
    7.7523  -13.4635   17.3714 O   0  0  0  0  0  0  0  0  0  0  0  0
    7.0727  -13.1546   19.6259 C   0  0  0  0  0  0  0  0  0  0  0  0
    7.7903  -13.5535   20.8705 C   0  0  0  0  0  0  0  0  0  0  0  0
    8.3397  -14.9622   20.8438 C   0  0  2  0  0  0  0  0  0  0  0  0
    7.2947  -15.9531   20.7771 N   0  0  0  0  0  0  0  0  0  0  0  0
    9.1960  -15.2232   22.0491 C   0  0  0  0  0  0  0  0  0  0  0  0
    8.6861  -15.2589   23.2006 O   0  0  0  0  0  0  0  0  0  0  0  0
   10.5852  -15.4362   21.9453 N   0  0  0  0  0  0  0  0  0  0  0  0
   11.4133  -15.8801   23.0938 C   0  0  1  0  0  0  0  0  0  0  0  0
   10.8012  -17.1831   23.5324 C   0  0  0  0  0  0  0  0  0  0  0  0
   11.4471  -17.8094   24.6755 C   0  0  0  0  0  0  0  0  0  0  0  0
   12.2210  -17.2386   25.4663 O   0  0  0  0  0  0  0  0  0  0  0  0
   12.8131  -15.9978   22.6674 C   0  0  0  0  0  0  0  0  0  0  0  0
   13.6834  -16.3825   23.4956 O   0  0  0  0  0  0  0  0  0  0  0  0
   11.2090  -19.1672   24.9494 O   0  0  0  0  0  0  0  0  0  0  0  0
   13.2380  -15.7099   21.3982 O   0  0  0  0  0  0  0  0  0  0  0  0
  2  1  1  0
  2  3  1  0
  3 11  1  0
  4  3  2  0
  6  7  2  0
  6  5  1  0
  8  6  1  0
  9  8  1  0
 10 12  1  0
 10  9  1  1
 11 10  1  0
 12 14  1  0
 13 12  2  0
 14 15  1  0
 15 19  1  0
 15 16  1  6
 16 17  1  0
 17 18  2  0
 17 21  1  0
 19 20  2  0
 19 22  1  0
M  END
$$$$
