GQD.pdb
     RDKit          3D

 22 21  0  0  1  0  0  0  0  0999 V2000
    8.5896  -17.2646   21.5085 N   0  0  0  0  0  0  0  0  0  0  0  0
    9.3796  -16.0902   21.6956 C   0  0  0  0  0  0  0  0  0  0  0  0
   10.8081  -16.4241   21.4820 C   0  0  0  0  0  0  0  0  0  0  0  0
   11.1725  -17.6164   21.2872 O   0  0  0  0  0  0  0  0  0  0  0  0
   15.6290  -13.4781   18.6557 N   0  0  0  0  0  0  0  0  0  0  0  0
   14.4303  -13.9847   18.1057 C   0  0  0  0  0  0  0  0  0  0  0  0
   14.2922  -13.8862   16.8639 O   0  0  0  0  0  0  0  0  0  0  0  0
   13.3651  -14.6092   18.9273 C   0  0  0  0  0  0  0  0  0  0  0  0
   13.8056  -14.6315   20.3515 C   0  0  0  0  0  0  0  0  0  0  0  0
   13.1432  -15.7034   21.1877 C   0  0  2  0  0  0  0  0  0  0  0  0
   11.7726  -15.3823   21.4985 N   0  0  0  0  0  0  0  0  0  0  0  0
   13.9024  -15.9295   22.4631 C   0  0  0  0  0  0  0  0  0  0  0  0
   13.6714  -15.2213   23.4792 O   0  0  0  0  0  0  0  0  0  0  0  0
   14.8903  -16.9281   22.5763 N   0  0  0  0  0  0  0  0  0  0  0  0
   15.6229  -17.1874   23.8404 C   0  0  1  0  0  0  0  0  0  0  0  0
   15.7364  -18.6859   23.9223 C   0  0  0  0  0  0  0  0  0  0  0  0
   16.4284  -19.1844   25.1007 C   0  0  0  0  0  0  0  0  0  0  0  0
   17.6623  -19.3080   25.2118 O   0  0  0  0  0  0  0  0  0  0  0  0
   16.9180  -16.4971   23.8024 C   0  0  0  0  0  0  0  0  0  0  0  0
   17.4120  -16.1663   22.6898 O   0  0  0  0  0  0  0  0  0  0  0  0
   15.6862  -19.5703   26.2301 O   0  0  0  0  0  0  0  0  0  0  0  0
   17.6349  -16.1838   24.9258 O   0  0  0  0  0  0  0  0  0  0  0  0
  2  1  1  0
  2  3  1  0
  3 11  1  0
  4  3  2  0
  6  7  2  0
  6  5  1  0
  8  6  1  0
  9  8  1  0
 10 12  1  0
 10  9  1  1
 11 10  1  0
 12 14  1  0
 13 12  2  0
 14 15  1  0
 15 19  1  0
 15 16  1  6
 16 17  1  0
 17 18  2  0
 17 21  1  0
 19 20  2  0
 19 22  1  0
M  END
$$$$
