GQD.pdb
     RDKit          3D

 22 21  0  0  1  0  0  0  0  0999 V2000
    7.8291  -15.6169   19.0168 N   0  0  0  0  0  0  0  0  0  0  0  0
    6.9516  -15.4873   20.1354 C   0  0  0  0  0  0  0  0  0  0  0  0
    7.7372  -15.0901   21.3283 C   0  0  0  0  0  0  0  0  0  0  0  0
    8.9988  -15.0812   21.2995 O   0  0  0  0  0  0  0  0  0  0  0  0
    5.4023  -12.3903   26.5905 N   0  0  0  0  0  0  0  0  0  0  0  0
    6.7963  -12.4442   26.8136 C   0  0  0  0  0  0  0  0  0  0  0  0
    7.2221  -11.9067   27.8627 O   0  0  0  0  0  0  0  0  0  0  0  0
    7.7402  -13.0966   25.8738 C   0  0  0  0  0  0  0  0  0  0  0  0
    6.9881  -13.5384   24.6645 C   0  0  0  0  0  0  0  0  0  0  0  0
    7.8265  -14.2883   23.6538 C   0  0  2  0  0  0  0  0  0  0  0  0
    7.0531  -14.7162   22.5149 N   0  0  0  0  0  0  0  0  0  0  0  0
    8.4825  -15.4817   24.2860 C   0  0  0  0  0  0  0  0  0  0  0  0
    7.8250  -16.5351   24.4991 O   0  0  0  0  0  0  0  0  0  0  0  0
    9.8406  -15.4746   24.6621 N   0  0  0  0  0  0  0  0  0  0  0  0
   10.5190  -16.6665   25.2285 C   0  0  1  0  0  0  0  0  0  0  0  0
   11.9620  -16.5184   24.8276 C   0  0  0  0  0  0  0  0  0  0  0  0
   12.3496  -17.2714   23.6448 C   0  0  0  0  0  0  0  0  0  0  0  0
   11.5984  -18.0160   22.9881 O   0  0  0  0  0  0  0  0  0  0  0  0
   10.3090  -16.7013   26.6811 C   0  0  0  0  0  0  0  0  0  0  0  0
   10.0463  -15.6313   27.2954 O   0  0  0  0  0  0  0  0  0  0  0  0
   13.6684  -17.1831   23.1672 O   0  0  0  0  0  0  0  0  0  0  0  0
   10.3818  -17.8496   27.4228 O   0  0  0  0  0  0  0  0  0  0  0  0
  2  1  1  0
  2  3  1  0
  3 11  1  0
  4  3  2  0
  6  7  2  0
  6  5  1  0
  8  6  1  0
  9  8  1  0
 10 12  1  0
 10  9  1  1
 11 10  1  0
 12 14  1  0
 13 12  2  0
 14 15  1  0
 15 19  1  0
 15 16  1  1
 16 17  1  0
 17 18  2  0
 17 21  1  0
 19 20  2  0
 19 22  1  0
M  END
$$$$
