GQD.pdb
     RDKit          3D

 22 21  0  0  1  0  0  0  0  0999 V2000
    7.6569  -18.7716   18.0275 N   0  0  0  0  0  0  0  0  0  0  0  0
    7.0347  -17.9672   19.0296 C   0  0  0  0  0  0  0  0  0  0  0  0
    8.0031  -16.9538   19.5124 C   0  0  0  0  0  0  0  0  0  0  0  0
    9.2160  -17.0008   19.1672 O   0  0  0  0  0  0  0  0  0  0  0  0
    9.9223  -13.0720   19.0762 N   0  0  0  0  0  0  0  0  0  0  0  0
    8.5621  -12.8978   18.7365 C   0  0  0  0  0  0  0  0  0  0  0  0
    8.3137  -12.5514   17.5579 O   0  0  0  0  0  0  0  0  0  0  0  0
    7.4553  -13.1059   19.7016 C   0  0  0  0  0  0  0  0  0  0  0  0
    8.0248  -13.5943   20.9901 C   0  0  0  0  0  0  0  0  0  0  0  0
    8.5234  -15.0212   20.9453 C   0  0  2  0  0  0  0  0  0  0  0  0
    7.5515  -15.9200   20.3745 N   0  0  0  0  0  0  0  0  0  0  0  0
    8.8959  -15.4990   22.3190 C   0  0  0  0  0  0  0  0  0  0  0  0
    8.6531  -14.7890   23.3310 O   0  0  0  0  0  0  0  0  0  0  0  0
    9.5232  -16.7429   22.5316 N   0  0  0  0  0  0  0  0  0  0  0  0
   10.9272  -16.8604   22.9971 C   0  0  1  0  0  0  0  0  0  0  0  0
   11.7335  -16.0737   21.9991 C   0  0  0  0  0  0  0  0  0  0  0  0
   13.1657  -16.0477   22.2529 C   0  0  0  0  0  0  0  0  0  0  0  0
   13.7490  -16.6848   23.1494 O   0  0  0  0  0  0  0  0  0  0  0  0
   11.0282  -16.3531   24.3710 C   0  0  0  0  0  0  0  0  0  0  0  0
   11.1749  -17.1671   25.3234 O   0  0  0  0  0  0  0  0  0  0  0  0
   13.9990  -15.2533   21.4468 O   0  0  0  0  0  0  0  0  0  0  0  0
   10.9728  -15.0218   24.6857 O   0  0  0  0  0  0  0  0  0  0  0  0
  2  1  1  0
  2  3  1  0
  3 11  1  0
  4  3  2  0
  6  7  2  0
  6  5  1  0
  8  6  1  0
  9  8  1  0
 10 12  1  0
 10  9  1  1
 11 10  1  0
 12 14  1  0
 13 12  2  0
 14 15  1  0
 15 19  1  0
 15 16  1  6
 16 17  1  0
 17 18  2  0
 17 21  1  0
 19 20  2  0
 19 22  1  0
M  END
$$$$
