QFK.pdb
     RDKit          3D

 30 30  0  0  1  0  0  0  0  0999 V2000
   25.5311  -21.1117  -20.4486 N   0  0  0  0  0  0  0  0  0  0  0  0
   26.8166  -20.5111  -20.6257 C   0  0  0  0  0  0  0  0  0  0  0  0
   27.1450  -20.1693  -21.7851 O   0  0  0  0  0  0  0  0  0  0  0  0
   27.7427  -20.2891  -19.5008 C   0  0  0  0  0  0  0  0  0  0  0  0
   27.1347  -20.5353  -18.1506 C   0  0  0  0  0  0  0  0  0  0  0  0
   28.0894  -21.1117  -17.1371 C   0  0  2  0  0  0  0  0  0  0  0  0
   28.6289  -22.3303  -17.7183 N   0  0  0  0  0  0  0  0  0  0  0  0
   27.2563  -21.4356  -15.9304 C   0  0  0  0  0  0  0  0  0  0  0  0
   27.0380  -22.6501  -15.6894 O   0  0  0  0  0  0  0  0  0  0  0  0
   26.7307  -20.3921  -15.0861 N   0  0  0  0  0  0  0  0  0  0  0  0
   26.1070  -20.7897  -13.8674 C   0  0  1  0  0  0  0  0  0  0  0  0
   26.2756  -19.8165  -12.7446 C   0  0  0  0  0  0  0  0  0  0  0  0
   25.6471  -20.1895  -11.4896 C   0  0  0  0  0  0  0  0  0  0  0  0
   24.3579  -19.8747  -11.1352 C   0  0  0  0  0  0  0  0  0  0  0  0
   23.8571  -20.2712   -9.9308 C   0  0  0  0  0  0  0  0  0  0  0  0
   24.5944  -20.9967   -9.0120 C   0  0  0  0  0  0  0  0  0  0  0  0
   25.8921  -21.3200   -9.3556 C   0  0  0  0  0  0  0  0  0  0  0  0
   26.4124  -20.9220  -10.5784 C   0  0  0  0  0  0  0  0  0  0  0  0
   24.6240  -20.8549  -14.1448 C   0  0  0  0  0  0  0  0  0  0  0  0
   24.0691  -19.9785  -14.8624 O   0  0  0  0  0  0  0  0  0  0  0  0
   23.8096  -21.8845  -13.6198 N   0  0  0  0  0  0  0  0  0  0  0  0
   22.3835  -21.9881  -13.9180 C   0  0  1  0  0  0  0  0  0  0  0  0
   21.9268  -23.4073  -13.8769 C   0  0  0  0  0  0  0  0  0  0  0  0
   20.4737  -23.5009  -14.2307 C   0  0  0  0  0  0  0  0  0  0  0  0
   19.9158  -24.9083  -14.1178 C   0  0  0  0  0  0  0  0  0  0  0  0
   18.4431  -24.9014  -14.4355 C   0  0  0  0  0  0  0  0  0  0  0  0
   18.0097  -26.3056  -14.2830 N   0  0  0  0  0  0  0  0  0  0  0  0
   21.6821  -21.0778  -12.9936 C   0  0  0  0  0  0  0  0  0  0  0  0
   20.5206  -20.6292  -13.3171 O   0  0  0  0  0  0  0  0  0  0  0  0
   22.1503  -20.6372  -11.7686 O   0  0  0  0  0  0  0  0  0  0  0  0
  1  2  1  0
  2  4  1  0
  3  2  2  0
  4  5  1  0
  6  5  1  0
  6  7  1  6
  8  6  1  0
  8  9  2  0
 10  8  1  0
 11 10  1  0
 11 12  1  1
 13 12  1  0
 13 18  2  0
 14 13  1  0
 15 14  2  0
 15 16  1  0
 16 17  2  0
 17 18  1  0
 19 11  1  0
 20 19  2  0
 21 19  1  0
 22 28  1  0
 22 21  1  0
 22 23  1  1
 24 25  1  0
 24 23  1  0
 26 25  1  0
 26 27  1  0
 28 30  1  0
 29 28  2  0
M  END
$$$$
