QFK.pdb
     RDKit          3D

 30 30  0  0  1  0  0  0  0  0999 V2000
   28.8957  -21.4461  -18.9663 N   0  0  0  0  0  0  0  0  0  0  0  0
   27.7632  -20.7452  -18.4461 C   0  0  0  0  0  0  0  0  0  0  0  0
   27.9096  -19.5354  -18.1566 O   0  0  0  0  0  0  0  0  0  0  0  0
   26.4568  -21.3984  -18.2483 C   0  0  0  0  0  0  0  0  0  0  0  0
   26.0603  -21.5488  -16.8083 C   0  0  0  0  0  0  0  0  0  0  0  0
   27.0591  -22.2999  -15.9661 C   0  0  2  0  0  0  0  0  0  0  0  0
   26.9763  -23.6952  -16.3661 N   0  0  0  0  0  0  0  0  0  0  0  0
   26.5984  -22.1379  -14.5460 C   0  0  0  0  0  0  0  0  0  0  0  0
   25.5891  -22.7967  -14.1884 O   0  0  0  0  0  0  0  0  0  0  0  0
   27.2894  -21.2609  -13.6341 N   0  0  0  0  0  0  0  0  0  0  0  0
   26.8008  -21.1926  -12.2966 C   0  0  1  0  0  0  0  0  0  0  0  0
   27.6968  -20.4576  -11.3516 C   0  0  0  0  0  0  0  0  0  0  0  0
   27.1540  -20.2219  -10.0254 C   0  0  0  0  0  0  0  0  0  0  0  0
   26.4048  -19.1273   -9.6687 C   0  0  0  0  0  0  0  0  0  0  0  0
   25.9388  -18.9957   -8.3943 C   0  0  0  0  0  0  0  0  0  0  0  0
   26.1834  -19.9303   -7.4040 C   0  0  0  0  0  0  0  0  0  0  0  0
   26.9354  -21.0359   -7.7490 C   0  0  0  0  0  0  0  0  0  0  0  0
   27.4149  -21.1805   -9.0427 C   0  0  0  0  0  0  0  0  0  0  0  0
   25.5130  -20.4056  -12.3490 C   0  0  0  0  0  0  0  0  0  0  0  0
   25.4557  -19.3156  -12.9811 O   0  0  0  0  0  0  0  0  0  0  0  0
   24.3374  -20.8511  -11.7021 N   0  0  0  0  0  0  0  0  0  0  0  0
   23.0171  -20.3068  -12.0083 C   0  0  1  0  0  0  0  0  0  0  0  0
   22.4756  -20.8868  -13.2711 C   0  0  0  0  0  0  0  0  0  0  0  0
   21.1257  -20.3117  -13.5755 C   0  0  0  0  0  0  0  0  0  0  0  0
   20.5245  -20.8372  -14.8667 C   0  0  0  0  0  0  0  0  0  0  0  0
   19.2349  -20.1159  -15.1608 C   0  0  0  0  0  0  0  0  0  0  0  0
   18.7903  -20.6396  -16.4689 N   0  0  0  0  0  0  0  0  0  0  0  0
   22.1772  -20.5139  -10.8137 C   0  0  0  0  0  0  0  0  0  0  0  0
   20.9655  -20.0820  -10.8173 O   0  0  0  0  0  0  0  0  0  0  0  0
   22.5607  -21.1477   -9.6453 O   0  0  0  0  0  0  0  0  0  0  0  0
  1  2  1  0
  2  4  1  0
  3  2  2  0
  4  5  1  0
  6  5  1  0
  6  7  1  6
  8  6  1  0
  8  9  2  0
 10  8  1  0
 11 10  1  0
 11 12  1  1
 13 12  1  0
 13 18  2  0
 14 13  1  0
 15 14  2  0
 15 16  1  0
 16 17  2  0
 17 18  1  0
 19 11  1  0
 20 19  2  0
 21 19  1  0
 22 28  1  0
 22 21  1  0
 22 23  1  6
 24 25  1  0
 24 23  1  0
 26 25  1  0
 26 27  1  0
 28 30  1  0
 29 28  2  0
M  END
$$$$
