QFK.pdb
     RDKit          3D

 30 30  0  0  1  0  0  0  0  0999 V2000
   19.5334  -32.8055   -4.6261 N   0  0  0  0  0  0  0  0  0  0  0  0
   18.3634  -33.2086   -5.3424 C   0  0  0  0  0  0  0  0  0  0  0  0
   17.2637  -32.7343   -4.9756 O   0  0  0  0  0  0  0  0  0  0  0  0
   18.4205  -34.1473   -6.4774 C   0  0  0  0  0  0  0  0  0  0  0  0
   19.8092  -34.5922   -6.8335 C   0  0  0  0  0  0  0  0  0  0  0  0
   20.4815  -33.7440   -7.8821 C   0  0  2  0  0  0  0  0  0  0  0  0
   20.1124  -34.3050   -9.1717 N   0  0  0  0  0  0  0  0  0  0  0  0
   21.9568  -33.9017   -7.6496 C   0  0  0  0  0  0  0  0  0  0  0  0
   22.4727  -35.0085   -7.9483 O   0  0  0  0  0  0  0  0  0  0  0  0
   22.7445  -32.8238   -7.1056 N   0  0  0  0  0  0  0  0  0  0  0  0
   24.1454  -33.0458   -6.9630 C   0  0  1  0  0  0  0  0  0  0  0  0
   25.0016  -32.0457   -7.6722 C   0  0  0  0  0  0  0  0  0  0  0  0
   25.0042  -32.1359   -9.1217 C   0  0  0  0  0  0  0  0  0  0  0  0
   24.1593  -31.4396   -9.9513 C   0  0  0  0  0  0  0  0  0  0  0  0
   24.2395  -31.5927  -11.3036 C   0  0  0  0  0  0  0  0  0  0  0  0
   25.1519  -32.4360  -11.9121 C   0  0  0  0  0  0  0  0  0  0  0  0
   26.0074  -33.1421  -11.0897 C   0  0  0  0  0  0  0  0  0  0  0  0
   25.9351  -32.9945   -9.7122 C   0  0  0  0  0  0  0  0  0  0  0  0
   24.4571  -32.8950   -5.4930 C   0  0  0  0  0  0  0  0  0  0  0  0
   24.0207  -31.9043   -4.8458 O   0  0  0  0  0  0  0  0  0  0  0  0
   25.2385  -33.8430   -4.7932 N   0  0  0  0  0  0  0  0  0  0  0  0
   25.4970  -33.7437   -3.3591 C   0  0  1  0  0  0  0  0  0  0  0  0
   24.6408  -34.6931   -2.5909 C   0  0  0  0  0  0  0  0  0  0  0  0
   24.9051  -34.5658   -1.1214 C   0  0  0  0  0  0  0  0  0  0  0  0
   24.0629  -35.5032   -0.2748 C   0  0  0  0  0  0  0  0  0  0  0  0
   24.4059  -35.3241    1.1813 C   0  0  0  0  0  0  0  0  0  0  0  0
   23.4774  -36.2144    1.9081 N   0  0  0  0  0  0  0  0  0  0  0  0
   26.9494  -33.9166   -3.1694 C   0  0  0  0  0  0  0  0  0  0  0  0
   27.6175  -34.5965   -4.0332 O   0  0  0  0  0  0  0  0  0  0  0  0
   27.7035  -33.4071   -2.1274 O   0  0  0  0  0  0  0  0  0  0  0  0
  1  2  1  0
  2  4  1  0
  3  2  2  0
  4  5  1  0
  6  5  1  0
  6  7  1  6
  8  6  1  0
  8  9  2  0
 10  8  1  0
 11 10  1  0
 11 12  1  6
 13 12  1  0
 13 18  2  0
 14 13  1  0
 15 14  2  0
 15 16  1  0
 16 17  2  0
 17 18  1  0
 19 11  1  0
 20 19  2  0
 21 19  1  0
 22 28  1  0
 22 21  1  0
 22 23  1  1
 24 25  1  0
 24 23  1  0
 26 25  1  0
 26 27  1  0
 28 30  1  0
 29 28  2  0
M  END
$$$$
