QFK.pdb
     RDKit          3D

 30 30  0  0  1  0  0  0  0  0999 V2000
   29.1557  -17.8122  -16.6092 N   0  0  0  0  0  0  0  0  0  0  0  0
   27.7888  -18.2212  -16.7031 C   0  0  0  0  0  0  0  0  0  0  0  0
   27.2149  -18.0854  -17.8081 O   0  0  0  0  0  0  0  0  0  0  0  0
   27.0565  -18.7872  -15.5560 C   0  0  0  0  0  0  0  0  0  0  0  0
   27.8507  -18.8262  -14.2828 C   0  0  0  0  0  0  0  0  0  0  0  0
   28.2536  -20.2112  -13.8464 C   0  0  2  0  0  0  0  0  0  0  0  0
   28.3726  -21.0111  -15.0546 N   0  0  0  0  0  0  0  0  0  0  0  0
   27.1224  -20.7163  -12.9976 C   0  0  0  0  0  0  0  0  0  0  0  0
   26.4923  -21.7211  -13.4149 O   0  0  0  0  0  0  0  0  0  0  0  0
   26.7773  -20.0712  -11.7555 N   0  0  0  0  0  0  0  0  0  0  0  0
   25.7512  -20.6729  -10.9697 C   0  0  1  0  0  0  0  0  0  0  0  0
   25.6271  -20.1138   -9.5884 C   0  0  0  0  0  0  0  0  0  0  0  0
   26.7997  -20.2585   -8.7439 C   0  0  0  0  0  0  0  0  0  0  0  0
   27.9035  -21.0131   -9.0587 C   0  0  0  0  0  0  0  0  0  0  0  0
   28.9576  -21.0864   -8.1973 C   0  0  0  0  0  0  0  0  0  0  0  0
   28.9838  -20.4237   -6.9831 C   0  0  0  0  0  0  0  0  0  0  0  0
   27.8805  -19.6614   -6.6541 C   0  0  0  0  0  0  0  0  0  0  0  0
   26.8020  -19.5793   -7.5227 C   0  0  0  0  0  0  0  0  0  0  0  0
   24.4445  -20.3684  -11.6628 C   0  0  0  0  0  0  0  0  0  0  0  0
   24.3147  -19.3175  -12.3482 O   0  0  0  0  0  0  0  0  0  0  0  0
   23.3309  -21.2348  -11.5734 N   0  0  0  0  0  0  0  0  0  0  0  0
   22.2170  -21.1833  -12.5168 C   0  0  1  0  0  0  0  0  0  0  0  0
   22.2035  -22.3853  -13.3997 C   0  0  0  0  0  0  0  0  0  0  0  0
   21.1053  -22.2787  -14.4136 C   0  0  0  0  0  0  0  0  0  0  0  0
   21.0630  -23.4482  -15.3807 C   0  0  0  0  0  0  0  0  0  0  0  0
   19.9560  -23.2436  -16.3820 C   0  0  0  0  0  0  0  0  0  0  0  0
   20.0212  -24.4197  -17.2739 N   0  0  0  0  0  0  0  0  0  0  0  0
   20.9903  -20.9743  -11.7252 C   0  0  0  0  0  0  0  0  0  0  0  0
   19.9657  -20.4370  -12.2876 O   0  0  0  0  0  0  0  0  0  0  0  0
   20.8101  -21.3067  -10.3944 O   0  0  0  0  0  0  0  0  0  0  0  0
  1  2  1  0
  2  4  1  0
  3  2  2  0
  4  5  1  0
  6  5  1  0
  6  7  1  6
  8  6  1  0
  8  9  2  0
 10  8  1  0
 11 10  1  0
 11 12  1  1
 13 12  1  0
 13 18  2  0
 14 13  1  0
 15 14  2  0
 15 16  1  0
 16 17  2  0
 17 18  1  0
 19 11  1  0
 20 19  2  0
 21 19  1  0
 22 28  1  0
 22 21  1  0
 22 23  1  1
 24 25  1  0
 24 23  1  0
 26 25  1  0
 26 27  1  0
 28 30  1  0
 29 28  2  0
M  END
$$$$
