QFK.pdb
     RDKit          3D

 30 30  0  0  1  0  0  0  0  0999 V2000
   27.9834  -19.0797  -17.3451 N   0  0  0  0  0  0  0  0  0  0  0  0
   27.9377  -17.9396  -16.4833 C   0  0  0  0  0  0  0  0  0  0  0  0
   27.4439  -16.8833  -16.9407 O   0  0  0  0  0  0  0  0  0  0  0  0
   28.4456  -17.9783  -15.1002 C   0  0  0  0  0  0  0  0  0  0  0  0
   27.6202  -18.8179  -14.1691 C   0  0  0  0  0  0  0  0  0  0  0  0
   28.4171  -19.5314  -13.1076 C   0  0  2  0  0  0  0  0  0  0  0  0
   29.3106  -20.4454  -13.8006 N   0  0  0  0  0  0  0  0  0  0  0  0
   27.4159  -20.3000  -12.2939 C   0  0  0  0  0  0  0  0  0  0  0  0
   27.2117  -21.4987  -12.6131 O   0  0  0  0  0  0  0  0  0  0  0  0
   26.7201  -19.6830  -11.1923 N   0  0  0  0  0  0  0  0  0  0  0  0
   25.8161  -20.4989  -10.4512 C   0  0  1  0  0  0  0  0  0  0  0  0
   25.4457  -19.9461   -9.1121 C   0  0  0  0  0  0  0  0  0  0  0  0
   26.5161  -19.9036   -8.1315 C   0  0  0  0  0  0  0  0  0  0  0  0
   26.9206  -18.7745   -7.4619 C   0  0  0  0  0  0  0  0  0  0  0  0
   27.9385  -18.8364   -6.5572 C   0  0  0  0  0  0  0  0  0  0  0  0
   28.6122  -20.0083   -6.2624 C   0  0  0  0  0  0  0  0  0  0  0  0
   28.2156  -21.1510   -6.9284 C   0  0  0  0  0  0  0  0  0  0  0  0
   27.1810  -21.1002   -7.8512 C   0  0  0  0  0  0  0  0  0  0  0  0
   24.5351  -20.5553  -11.2490 C   0  0  0  0  0  0  0  0  0  0  0  0
   24.0789  -19.5161  -11.7993 O   0  0  0  0  0  0  0  0  0  0  0  0
   23.8061  -21.7562  -11.4091 N   0  0  0  0  0  0  0  0  0  0  0  0
   22.8001  -21.9318  -12.4533 C   0  0  1  0  0  0  0  0  0  0  0  0
   22.8027  -23.3297  -12.9734 C   0  0  0  0  0  0  0  0  0  0  0  0
   22.4562  -23.3473  -14.4312 C   0  0  0  0  0  0  0  0  0  0  0  0
   22.2966  -24.7477  -14.9953 C   0  0  0  0  0  0  0  0  0  0  0  0
   21.8695  -24.6718  -16.4381 C   0  0  0  0  0  0  0  0  0  0  0  0
   21.6704  -26.0752  -16.8551 N   0  0  0  0  0  0  0  0  0  0  0  0
   21.5141  -21.4740  -11.8951 C   0  0  0  0  0  0  0  0  0  0  0  0
   21.3204  -21.5479  -10.6255 O   0  0  0  0  0  0  0  0  0  0  0  0
   20.4524  -20.9510  -12.6115 O   0  0  0  0  0  0  0  0  0  0  0  0
  1  2  1  0
  2  4  1  0
  3  2  2  0
  4  5  1  0
  6  5  1  0
  6  7  1  6
  8  6  1  0
  8  9  2  0
 10  8  1  0
 11 10  1  0
 11 12  1  1
 13 12  1  0
 13 18  2  0
 14 13  1  0
 15 14  2  0
 15 16  1  0
 16 17  2  0
 17 18  1  0
 19 11  1  0
 20 19  2  0
 21 19  1  0
 22 28  1  0
 22 21  1  0
 22 23  1  1
 24 25  1  0
 24 23  1  0
 26 25  1  0
 26 27  1  0
 28 30  1  0
 29 28  2  0
M  END
$$$$
