QFK.pdb
     RDKit          3D

 30 30  0  0  1  0  0  0  0  0999 V2000
   25.2583   -7.7350  -21.8123 N   0  0  0  0  0  0  0  0  0  0  0  0
   24.6715   -8.6360  -22.7549 C   0  0  0  0  0  0  0  0  0  0  0  0
   25.1198   -8.6285  -23.9244 O   0  0  0  0  0  0  0  0  0  0  0  0
   23.5771   -9.5532  -22.3899 C   0  0  0  0  0  0  0  0  0  0  0  0
   23.1048   -9.4080  -20.9725 C   0  0  0  0  0  0  0  0  0  0  0  0
   23.9233  -10.1740  -19.9653 C   0  0  2  0  0  0  0  0  0  0  0  0
   23.6188  -11.5817  -20.1644 N   0  0  0  0  0  0  0  0  0  0  0  0
   23.4382   -9.7225  -18.6177 C   0  0  0  0  0  0  0  0  0  0  0  0
   22.8603  -10.5755  -17.8973 O   0  0  0  0  0  0  0  0  0  0  0  0
   23.6300   -8.3646  -18.1734 N   0  0  0  0  0  0  0  0  0  0  0  0
   23.2317   -8.0505  -16.8411 C   0  0  1  0  0  0  0  0  0  0  0  0
   24.3595   -7.6702  -15.9359 C   0  0  0  0  0  0  0  0  0  0  0  0
   25.3787   -8.6861  -15.7403 C   0  0  0  0  0  0  0  0  0  0  0  0
   26.5634   -8.7507  -16.4325 C   0  0  0  0  0  0  0  0  0  0  0  0
   27.4588   -9.7462  -16.1761 C   0  0  0  0  0  0  0  0  0  0  0  0
   27.2390  -10.7295  -15.2280 C   0  0  0  0  0  0  0  0  0  0  0  0
   26.0518  -10.6764  -14.5247 C   0  0  0  0  0  0  0  0  0  0  0  0
   25.1331   -9.6681  -14.7770 C   0  0  0  0  0  0  0  0  0  0  0  0
   22.3418   -6.8340  -16.9339 C   0  0  0  0  0  0  0  0  0  0  0  0
   22.7461   -5.7894  -17.5138 O   0  0  0  0  0  0  0  0  0  0  0  0
   21.0396   -6.8162  -16.3834 N   0  0  0  0  0  0  0  0  0  0  0  0
   20.1251   -5.6917  -16.5636 C   0  0  1  0  0  0  0  0  0  0  0  0
   18.7331   -6.1649  -16.8138 C   0  0  0  0  0  0  0  0  0  0  0  0
   18.3310   -5.8858  -18.2301 C   0  0  0  0  0  0  0  0  0  0  0  0
   16.9406   -6.3902  -18.5720 C   0  0  0  0  0  0  0  0  0  0  0  0
   16.5943   -6.0137  -19.9891 C   0  0  0  0  0  0  0  0  0  0  0  0
   15.2071   -6.4832  -20.1844 N   0  0  0  0  0  0  0  0  0  0  0  0
   20.2861   -4.8122  -15.3908 C   0  0  0  0  0  0  0  0  0  0  0  0
   20.1043   -5.2981  -14.2136 O   0  0  0  0  0  0  0  0  0  0  0  0
   20.6267   -3.4715  -15.4155 O   0  0  0  0  0  0  0  0  0  0  0  0
  1  2  1  0
  2  4  1  0
  3  2  2  0
  4  5  1  0
  6  5  1  0
  6  7  1  6
  8  6  1  0
  8  9  2  0
 10  8  1  0
 11 10  1  0
 11 12  1  1
 13 12  1  0
 13 18  2  0
 14 13  1  0
 15 14  2  0
 15 16  1  0
 16 17  2  0
 17 18  1  0
 19 11  1  0
 20 19  2  0
 21 19  1  0
 22 28  1  0
 22 21  1  0
 22 23  1  1
 24 25  1  0
 24 23  1  0
 26 25  1  0
 26 27  1  0
 28 30  1  0
 29 28  2  0
M  END
$$$$
