QFK.pdb
     RDKit          3D

 30 30  0  0  1  0  0  0  0  0999 V2000
   23.8605  -22.6932  -20.0631 N   0  0  0  0  0  0  0  0  0  0  0  0
   25.1775  -22.3666  -20.5140 C   0  0  0  0  0  0  0  0  0  0  0  0
   25.3736  -22.3138  -21.7500 O   0  0  0  0  0  0  0  0  0  0  0  0
   26.2843  -22.0955  -19.5792 C   0  0  0  0  0  0  0  0  0  0  0  0
   25.8958  -22.1779  -18.1316 C   0  0  0  0  0  0  0  0  0  0  0  0
   26.9532  -21.6851  -17.1775 C   0  0  2  0  0  0  0  0  0  0  0  0
   28.0995  -22.5657  -17.3344 N   0  0  0  0  0  0  0  0  0  0  0  0
   26.3653  -21.8366  -15.8040 C   0  0  0  0  0  0  0  0  0  0  0  0
   25.5345  -22.7641  -15.6312 O   0  0  0  0  0  0  0  0  0  0  0  0
   26.7423  -20.9511  -14.7306 N   0  0  0  0  0  0  0  0  0  0  0  0
   26.1082  -21.1469  -13.4689 C   0  0  1  0  0  0  0  0  0  0  0  0
   26.7523  -20.4124  -12.3367 C   0  0  0  0  0  0  0  0  0  0  0  0
   26.1343  -20.5965  -11.0354 C   0  0  0  0  0  0  0  0  0  0  0  0
   26.2876  -21.7099  -10.2458 C   0  0  0  0  0  0  0  0  0  0  0  0
   25.6642  -21.7889   -9.0360 C   0  0  0  0  0  0  0  0  0  0  0  0
   24.8585  -20.7804   -8.5380 C   0  0  0  0  0  0  0  0  0  0  0  0
   24.6957  -19.6552   -9.3217 C   0  0  0  0  0  0  0  0  0  0  0  0
   25.3251  -19.5637  -10.5546 C   0  0  0  0  0  0  0  0  0  0  0  0
   24.7143  -20.5799  -13.5957 C   0  0  0  0  0  0  0  0  0  0  0  0
   24.5368  -19.4159  -14.0481 O   0  0  0  0  0  0  0  0  0  0  0  0
   23.5693  -21.3186  -13.2186 N   0  0  0  0  0  0  0  0  0  0  0  0
   22.2193  -20.7651  -13.2856 C   0  0  1  0  0  0  0  0  0  0  0  0
   21.3362  -21.6031  -14.1472 C   0  0  0  0  0  0  0  0  0  0  0  0
   19.9602  -21.0139  -14.2175 C   0  0  0  0  0  0  0  0  0  0  0  0
   18.9727  -21.8793  -14.9795 C   0  0  0  0  0  0  0  0  0  0  0  0
   17.6315  -21.1955  -15.0363 C   0  0  0  0  0  0  0  0  0  0  0  0
   16.7256  -22.1764  -15.6689 N   0  0  0  0  0  0  0  0  0  0  0  0
   21.7552  -20.5898  -11.8967 C   0  0  0  0  0  0  0  0  0  0  0  0
   20.7993  -19.7635  -11.6551 O   0  0  0  0  0  0  0  0  0  0  0  0
   22.2502  -21.2419  -10.7815 O   0  0  0  0  0  0  0  0  0  0  0  0
  1  2  1  0
  2  4  1  0
  3  2  2  0
  4  5  1  0
  6  5  1  0
  6  7  1  1
  8  6  1  0
  8  9  2  0
 10  8  1  0
 11 10  1  0
 11 12  1  1
 13 12  1  0
 13 18  2  0
 14 13  1  0
 15 14  2  0
 15 16  1  0
 16 17  2  0
 17 18  1  0
 19 11  1  0
 20 19  2  0
 21 19  1  0
 22 28  1  0
 22 21  1  0
 22 23  1  6
 24 25  1  0
 24 23  1  0
 26 25  1  0
 26 27  1  0
 28 30  1  0
 29 28  2  0
M  END
$$$$
