QFK.pdb
     RDKit          3D

 30 30  0  0  1  0  0  0  0  0999 V2000
   27.3658  -21.0007   12.6116 N   0  0  0  0  0  0  0  0  0  0  0  0
   28.4766  -21.7610   13.0939 C   0  0  0  0  0  0  0  0  0  0  0  0
   29.2743  -21.1946   13.8760 O   0  0  0  0  0  0  0  0  0  0  0  0
   28.6988  -23.1643   12.7017 C   0  0  0  0  0  0  0  0  0  0  0  0
   29.9579  -23.3873   11.9155 C   0  0  0  0  0  0  0  0  0  0  0  0
   29.8964  -22.8914   10.4938 C   0  0  2  0  0  0  0  0  0  0  0  0
   29.1677  -23.8939    9.7335 N   0  0  0  0  0  0  0  0  0  0  0  0
   31.3214  -22.8181   10.0256 C   0  0  0  0  0  0  0  0  0  0  0  0
   31.8592  -23.8888    9.6449 O   0  0  0  0  0  0  0  0  0  0  0  0
   32.0388  -21.5677   10.0153 N   0  0  0  0  0  0  0  0  0  0  0  0
   33.3300  -21.5601    9.4112 C   0  0  1  0  0  0  0  0  0  0  0  0
   33.5060  -20.5215    8.3499 C   0  0  0  0  0  0  0  0  0  0  0  0
   32.8639  -20.8065    7.0788 C   0  0  0  0  0  0  0  0  0  0  0  0
   33.3150  -21.7241    6.1616 C   0  0  0  0  0  0  0  0  0  0  0  0
   32.6408  -21.9204    4.9931 C   0  0  0  0  0  0  0  0  0  0  0  0
   31.4896  -21.2272    4.6637 C   0  0  0  0  0  0  0  0  0  0  0  0
   31.0250  -20.3015    5.5769 C   0  0  0  0  0  0  0  0  0  0  0  0
   31.7028  -20.0933    6.7693 C   0  0  0  0  0  0  0  0  0  0  0  0
   34.3135  -21.2125   10.5032 C   0  0  0  0  0  0  0  0  0  0  0  0
   34.0353  -20.3245   11.3546 O   0  0  0  0  0  0  0  0  0  0  0  0
   35.5665  -21.8580   10.6143 N   0  0  0  0  0  0  0  0  0  0  0  0
   36.7017  -21.2569   11.3096 C   0  0  1  0  0  0  0  0  0  0  0  0
   37.9921  -21.6511   10.6741 C   0  0  0  0  0  0  0  0  0  0  0  0
   38.3456  -23.0615   11.0365 C   0  0  0  0  0  0  0  0  0  0  0  0
   39.6094  -23.5588   10.3582 C   0  0  0  0  0  0  0  0  0  0  0  0
   39.3568  -24.9050    9.7306 C   0  0  0  0  0  0  0  0  0  0  0  0
   40.6517  -25.3044    9.1417 N   0  0  0  0  0  0  0  0  0  0  0  0
   36.4513  -19.8047   11.3695 C   0  0  0  0  0  0  0  0  0  0  0  0
   36.9861  -19.0397   10.4843 O   0  0  0  0  0  0  0  0  0  0  0  0
   35.6730  -19.1477   12.3058 O   0  0  0  0  0  0  0  0  0  0  0  0
  1  2  1  0
  2  4  1  0
  3  2  2  0
  4  5  1  0
  6  5  1  0
  6  7  1  6
  8  6  1  0
  8  9  2  0
 10  8  1  0
 11 10  1  0
 11 12  1  6
 13 12  1  0
 13 18  2  0
 14 13  1  0
 15 14  2  0
 15 16  1  0
 16 17  2  0
 17 18  1  0
 19 11  1  0
 20 19  2  0
 21 19  1  0
 22 28  1  0
 22 21  1  0
 22 23  1  6
 24 25  1  0
 24 23  1  0
 26 25  1  0
 26 27  1  0
 28 30  1  0
 29 28  2  0
M  END
$$$$
