QFK.pdb
     RDKit          3D

 30 30  0  0  1  0  0  0  0  0999 V2000
   26.9088  -17.4980  -17.5443 N   0  0  0  0  0  0  0  0  0  0  0  0
   28.1059  -17.6019  -16.7693 C   0  0  0  0  0  0  0  0  0  0  0  0
   29.1718  -17.8575  -17.3755 O   0  0  0  0  0  0  0  0  0  0  0  0
   28.1146  -17.4182  -15.3069 C   0  0  0  0  0  0  0  0  0  0  0  0
   27.2328  -18.3798  -14.5647 C   0  0  0  0  0  0  0  0  0  0  0  0
   27.9678  -19.5354  -13.9360 C   0  0  2  0  0  0  0  0  0  0  0  0
   28.4968  -20.3368  -15.0278 N   0  0  0  0  0  0  0  0  0  0  0  0
   26.9318  -20.3121  -13.1754 C   0  0  0  0  0  0  0  0  0  0  0  0
   26.5003  -21.3685  -13.7032 O   0  0  0  0  0  0  0  0  0  0  0  0
   26.4550  -19.8599  -11.8923 N   0  0  0  0  0  0  0  0  0  0  0  0
   25.5679  -20.7223  -11.1840 C   0  0  1  0  0  0  0  0  0  0  0  0
   25.4174  -20.3920   -9.7333 C   0  0  0  0  0  0  0  0  0  0  0  0
   26.6466  -20.3821   -8.9600 C   0  0  0  0  0  0  0  0  0  0  0  0
   26.9236  -19.5042   -7.9405 C   0  0  0  0  0  0  0  0  0  0  0  0
   28.1097  -19.5751   -7.2722 C   0  0  0  0  0  0  0  0  0  0  0  0
   29.0852  -20.5102   -7.5690 C   0  0  0  0  0  0  0  0  0  0  0  0
   28.8197  -21.3990   -8.5918 C   0  0  0  0  0  0  0  0  0  0  0  0
   27.6162  -21.3364   -9.2789 C   0  0  0  0  0  0  0  0  0  0  0  0
   24.2019  -20.5333  -11.7995 C   0  0  0  0  0  0  0  0  0  0  0  0
   23.7356  -19.3748  -11.9766 O   0  0  0  0  0  0  0  0  0  0  0  0
   23.4022  -21.6298  -12.1963 N   0  0  0  0  0  0  0  0  0  0  0  0
   22.1518  -21.4651  -12.9328 C   0  0  1  0  0  0  0  0  0  0  0  0
   21.8402  -22.6784  -13.7422 C   0  0  0  0  0  0  0  0  0  0  0  0
   22.8568  -22.8595  -14.8281 C   0  0  0  0  0  0  0  0  0  0  0  0
   22.6463  -24.1211  -15.6459 C   0  0  0  0  0  0  0  0  0  0  0  0
   23.7063  -24.2223  -16.7116 C   0  0  0  0  0  0  0  0  0  0  0  0
   23.4863  -25.5364  -17.3502 N   0  0  0  0  0  0  0  0  0  0  0  0
   21.1191  -21.0856  -11.9506 C   0  0  0  0  0  0  0  0  0  0  0  0
   20.1008  -20.4048  -12.3435 O   0  0  0  0  0  0  0  0  0  0  0  0
   21.1216  -21.3942  -10.6020 O   0  0  0  0  0  0  0  0  0  0  0  0
  1  2  1  0
  2  4  1  0
  3  2  2  0
  4  5  1  0
  6  5  1  0
  6  7  1  6
  8  6  1  0
  8  9  2  0
 10  8  1  0
 11 10  1  0
 11 12  1  1
 13 12  1  0
 13 18  2  0
 14 13  1  0
 15 14  2  0
 15 16  1  0
 16 17  2  0
 17 18  1  0
 19 11  1  0
 20 19  2  0
 21 19  1  0
 22 28  1  0
 22 21  1  0
 22 23  1  1
 24 25  1  0
 24 23  1  0
 26 25  1  0
 26 27  1  0
 28 30  1  0
 29 28  2  0
M  END
$$$$
