QFK.pdb
     RDKit          3D

 30 30  0  0  1  0  0  0  0  0999 V2000
   20.0060  -23.4766  -12.9637 N   0  0  0  0  0  0  0  0  0  0  0  0
   19.0171  -23.0630  -13.9101 C   0  0  0  0  0  0  0  0  0  0  0  0
   17.9716  -23.7473  -13.9965 O   0  0  0  0  0  0  0  0  0  0  0  0
   19.1952  -21.8764  -14.7660 C   0  0  0  0  0  0  0  0  0  0  0  0
   20.4581  -21.1115  -14.4955 C   0  0  0  0  0  0  0  0  0  0  0  0
   20.7492  -20.8937  -13.0331 C   0  0  2  0  0  0  0  0  0  0  0  0
   19.8748  -19.8202  -12.5892 N   0  0  0  0  0  0  0  0  0  0  0  0
   22.1845  -20.4576  -12.9636 C   0  0  0  0  0  0  0  0  0  0  0  0
   22.4493  -19.2847  -13.3306 O   0  0  0  0  0  0  0  0  0  0  0  0
   23.2130  -21.3521  -12.4942 N   0  0  0  0  0  0  0  0  0  0  0  0
   24.5441  -20.8449  -12.4378 C   0  0  1  0  0  0  0  0  0  0  0  0
   25.4794  -21.6645  -11.6074 C   0  0  0  0  0  0  0  0  0  0  0  0
   26.8741  -21.2616  -11.6485 C   0  0  0  0  0  0  0  0  0  0  0  0
   27.8443  -21.8737  -12.4040 C   0  0  0  0  0  0  0  0  0  0  0  0
   29.1297  -21.4204  -12.3749 C   0  0  0  0  0  0  0  0  0  0  0  0
   29.5300  -20.3438  -11.6038 C   0  0  0  0  0  0  0  0  0  0  0  0
   28.5646  -19.7191  -10.8393 C   0  0  0  0  0  0  0  0  0  0  0  0
   27.2534  -20.1715  -10.8608 C   0  0  0  0  0  0  0  0  0  0  0  0
   25.0835  -20.8953  -13.8475 C   0  0  0  0  0  0  0  0  0  0  0  0
   24.8656  -21.8992  -14.5793 O   0  0  0  0  0  0  0  0  0  0  0  0
   25.8426  -19.8362  -14.3960 N   0  0  0  0  0  0  0  0  0  0  0  0
   26.2668  -19.8145  -15.7934 C   0  0  1  0  0  0  0  0  0  0  0  0
   26.3896  -18.4160  -16.2969 C   0  0  0  0  0  0  0  0  0  0  0  0
   26.7087  -18.4120  -17.7610 C   0  0  0  0  0  0  0  0  0  0  0  0
   26.8802  -17.0175  -18.3362 C   0  0  0  0  0  0  0  0  0  0  0  0
   27.2220  -17.1072  -19.8008 C   0  0  0  0  0  0  0  0  0  0  0  0
   27.4289  -15.7099  -20.2342 N   0  0  0  0  0  0  0  0  0  0  0  0
   27.4972  -20.6226  -15.8836 C   0  0  0  0  0  0  0  0  0  0  0  0
   28.5597  -20.2154  -15.2834 O   0  0  0  0  0  0  0  0  0  0  0  0
   27.6417  -21.8175  -16.5658 O   0  0  0  0  0  0  0  0  0  0  0  0
  1  2  1  0
  2  4  1  0
  3  2  2  0
  4  5  1  0
  6  5  1  0
  6  7  1  6
  8  6  1  0
  8  9  2  0
 10  8  1  0
 11 10  1  0
 11 12  1  1
 13 12  1  0
 13 18  2  0
 14 13  1  0
 15 14  2  0
 15 16  1  0
 16 17  2  0
 17 18  1  0
 19 11  1  0
 20 19  2  0
 21 19  1  0
 22 28  1  0
 22 21  1  0
 22 23  1  1
 24 25  1  0
 24 23  1  0
 26 25  1  0
 26 27  1  0
 28 30  1  0
 29 28  2  0
M  END
$$$$
