QFK.pdb
     RDKit          3D

 30 30  0  0  1  0  0  0  0  0999 V2000
   15.8311  -11.1176  -17.7422 N   0  0  0  0  0  0  0  0  0  0  0  0
   14.9655  -10.0868  -17.2597 C   0  0  0  0  0  0  0  0  0  0  0  0
   14.1865   -9.5491  -18.0800 O   0  0  0  0  0  0  0  0  0  0  0  0
   14.9680   -9.6531  -15.8511 C   0  0  0  0  0  0  0  0  0  0  0  0
   15.9600  -10.3791  -14.9896 C   0  0  0  0  0  0  0  0  0  0  0  0
   17.3712   -9.8620  -15.0997 C   0  0  2  0  0  0  0  0  0  0  0  0
   18.2328  -11.0259  -15.2307 N   0  0  0  0  0  0  0  0  0  0  0  0
   17.6478   -9.1534  -13.8049 C   0  0  0  0  0  0  0  0  0  0  0  0
   17.4838   -9.8068  -12.7433 O   0  0  0  0  0  0  0  0  0  0  0  0
   18.0837   -7.7795  -13.7859 N   0  0  0  0  0  0  0  0  0  0  0  0
   18.4231   -7.2190  -12.5198 C   0  0  1  0  0  0  0  0  0  0  0  0
   19.7826   -6.5986  -12.4668 C   0  0  0  0  0  0  0  0  0  0  0  0
   20.8993   -7.5211  -12.5721 C   0  0  0  0  0  0  0  0  0  0  0  0
   21.6207   -7.7503  -13.7183 C   0  0  0  0  0  0  0  0  0  0  0  0
   22.6548   -8.6386  -13.7167 C   0  0  0  0  0  0  0  0  0  0  0  0
   23.0348   -9.3479  -12.5913 C   0  0  0  0  0  0  0  0  0  0  0  0
   22.3180   -9.1272  -11.4319 C   0  0  0  0  0  0  0  0  0  0  0  0
   21.2637   -8.2256  -11.4216 C   0  0  0  0  0  0  0  0  0  0  0  0
   17.4423   -6.0985  -12.2688 C   0  0  0  0  0  0  0  0  0  0  0  0
   17.0481   -5.3695  -13.2197 O   0  0  0  0  0  0  0  0  0  0  0  0
   16.9337   -5.8249  -10.9783 N   0  0  0  0  0  0  0  0  0  0  0  0
   15.9600   -4.7661  -10.7252 C   0  0  1  0  0  0  0  0  0  0  0  0
   15.2765   -4.9655   -9.4146 C   0  0  0  0  0  0  0  0  0  0  0  0
   14.3970   -3.7943   -9.0985 C   0  0  0  0  0  0  0  0  0  0  0  0
   13.7561   -3.8759   -7.7246 C   0  0  0  0  0  0  0  0  0  0  0  0
   12.9649   -5.1524   -7.6047 C   0  0  0  0  0  0  0  0  0  0  0  0
   12.4040   -5.1309   -6.2380 N   0  0  0  0  0  0  0  0  0  0  0  0
   16.6706   -3.4822  -10.8716 C   0  0  0  0  0  0  0  0  0  0  0  0
   17.9382   -3.4396  -10.6567 O   0  0  0  0  0  0  0  0  0  0  0  0
   16.1051   -2.2718  -11.2310 O   0  0  0  0  0  0  0  0  0  0  0  0
  1  2  1  0
  2  4  1  0
  3  2  2  0
  4  5  1  0
  6  5  1  0
  6  7  1  1
  8  6  1  0
  8  9  2  0
 10  8  1  0
 11 10  1  0
 11 12  1  6
 13 12  1  0
 13 18  2  0
 14 13  1  0
 15 14  2  0
 15 16  1  0
 16 17  2  0
 17 18  1  0
 19 11  1  0
 20 19  2  0
 21 19  1  0
 22 28  1  0
 22 21  1  0
 22 23  1  1
 24 25  1  0
 24 23  1  0
 26 25  1  0
 26 27  1  0
 28 30  1  0
 29 28  2  0
M  END
$$$$
