QFK.pdb
     RDKit          3D

 30 30  0  0  1  0  0  0  0  0999 V2000
   19.6247  -14.3239  -17.1584 N   0  0  0  0  0  0  0  0  0  0  0  0
   19.2123  -14.6376  -18.4911 C   0  0  0  0  0  0  0  0  0  0  0  0
   19.4656  -15.7852  -18.9242 O   0  0  0  0  0  0  0  0  0  0  0  0
   18.5108  -13.6641  -19.3469 C   0  0  0  0  0  0  0  0  0  0  0  0
   18.2741  -12.3340  -18.6928 C   0  0  0  0  0  0  0  0  0  0  0  0
   19.0646  -11.1996  -19.2921 C   0  0  2  0  0  0  0  0  0  0  0  0
   20.3764  -11.7334  -19.6210 N   0  0  0  0  0  0  0  0  0  0  0  0
   19.1804  -10.1663  -18.2086 C   0  0  0  0  0  0  0  0  0  0  0  0
   18.1120   -9.7423  -17.6994 O   0  0  0  0  0  0  0  0  0  0  0  0
   20.4674   -9.6837  -17.7739 N   0  0  0  0  0  0  0  0  0  0  0  0
   20.4824   -8.7078  -16.7348 C   0  0  1  0  0  0  0  0  0  0  0  0
   21.7068   -8.7419  -15.8771 C   0  0  0  0  0  0  0  0  0  0  0  0
   21.7825   -7.7196  -14.8484 C   0  0  0  0  0  0  0  0  0  0  0  0
   21.2513   -7.8365  -13.5871 C   0  0  0  0  0  0  0  0  0  0  0  0
   21.3746   -6.8180  -12.6894 C   0  0  0  0  0  0  0  0  0  0  0  0
   22.0250   -5.6325  -12.9819 C   0  0  0  0  0  0  0  0  0  0  0  0
   22.5638   -5.5015  -14.2466 C   0  0  0  0  0  0  0  0  0  0  0  0
   22.4445   -6.5313  -15.1684 C   0  0  0  0  0  0  0  0  0  0  0  0
   20.4845   -7.3583  -17.4126 C   0  0  0  0  0  0  0  0  0  0  0  0
   21.2496   -7.1356  -18.3904 O   0  0  0  0  0  0  0  0  0  0  0  0
   19.6424   -6.3058  -16.9859 N   0  0  0  0  0  0  0  0  0  0  0  0
   19.7118   -4.9629  -17.5562 C   0  0  1  0  0  0  0  0  0  0  0  0
   18.4605   -4.6266  -18.2948 C   0  0  0  0  0  0  0  0  0  0  0  0
   18.5183   -3.2211  -18.8112 C   0  0  0  0  0  0  0  0  0  0  0  0
   17.3004   -2.8293  -19.6285 C   0  0  0  0  0  0  0  0  0  0  0  0
   17.4690   -1.4289  -20.1580 C   0  0  0  0  0  0  0  0  0  0  0  0
   16.1762   -1.0987  -20.7924 N   0  0  0  0  0  0  0  0  0  0  0  0
   20.0552   -4.0437  -16.4552 C   0  0  0  0  0  0  0  0  0  0  0  0
   19.4101   -4.1268  -15.3453 O   0  0  0  0  0  0  0  0  0  0  0  0
   21.0333   -3.0656  -16.4825 O   0  0  0  0  0  0  0  0  0  0  0  0
  1  2  1  0
  2  4  1  0
  3  2  2  0
  4  5  1  0
  6  5  1  0
  6  7  1  1
  8  6  1  0
  8  9  2  0
 10  8  1  0
 11 10  1  0
 11 12  1  6
 13 12  1  0
 13 18  2  0
 14 13  1  0
 15 14  2  0
 15 16  1  0
 16 17  2  0
 17 18  1  0
 19 11  1  0
 20 19  2  0
 21 19  1  0
 22 28  1  0
 22 21  1  0
 22 23  1  1
 24 25  1  0
 24 23  1  0
 26 25  1  0
 26 27  1  0
 28 30  1  0
 29 28  2  0
M  END
$$$$
