EIR.pdb
     RDKit          3D

 29 28  0  0  1  0  0  0  0  0999 V2000
   30.7384  -25.5437  -21.5978 N   0  0  0  0  0  0  0  0  0  0  0  0
   30.5227  -24.7725  -20.3605 C   0  0  1  0  0  0  0  0  0  0  0  0
   30.4698  -23.3346  -20.8002 C   0  0  0  0  0  0  0  0  0  0  0  0
   31.7927  -22.6772  -20.9915 C   0  0  0  0  0  0  0  0  0  0  0  0
   32.4413  -22.2587  -19.7317 C   0  0  0  0  0  0  0  0  0  0  0  0
   32.8356  -23.0429  -18.8409 O   0  0  0  0  0  0  0  0  0  0  0  0
   29.2280  -25.1441  -19.7557 C   0  0  0  0  0  0  0  0  0  0  0  0
   28.2333  -25.3672  -20.4860 O   0  0  0  0  0  0  0  0  0  0  0  0
   32.6393  -20.8867  -19.4964 O   0  0  0  0  0  0  0  0  0  0  0  0
   28.9046  -29.2938  -16.9967 C   0  0  0  0  0  0  0  0  0  0  0  0
   28.4445  -28.1578  -17.9335 C   0  0  0  0  0  0  0  0  0  0  0  0
   28.0644  -26.9987  -17.0907 C   0  0  2  0  0  0  0  0  0  0  0  0
   26.9138  -27.4479  -16.1761 C   0  0  0  0  0  0  0  0  0  0  0  0
   27.7399  -25.7203  -17.7821 C   0  0  2  0  0  0  0  0  0  0  0  0
   29.0344  -25.2683  -18.3530 N   0  0  0  0  0  0  0  0  0  0  0  0
   27.1909  -24.6452  -16.9597 C   0  0  0  0  0  0  0  0  0  0  0  0
   27.9273  -24.1255  -16.0436 O   0  0  0  0  0  0  0  0  0  0  0  0
   20.1726  -21.1050  -14.5638 N   0  0  0  0  0  0  0  0  0  0  0  0
   20.9952  -19.9432  -14.4236 C   0  0  0  0  0  0  0  0  0  0  0  0
   20.5491  -18.8896  -13.8432 N   0  0  0  0  0  0  0  0  0  0  0  0
   22.3119  -19.9613  -14.9310 N   0  0  0  0  0  0  0  0  0  0  0  0
   22.8965  -21.1230  -15.5584 C   0  0  0  0  0  0  0  0  0  0  0  0
   24.2889  -20.8307  -16.1186 C   0  0  0  0  0  0  0  0  0  0  0  0
   24.7622  -21.9472  -17.0011 C   0  0  0  0  0  0  0  0  0  0  0  0
   25.4254  -23.0117  -16.2009 C   0  0  2  0  0  0  0  0  0  0  0  0
   25.9115  -24.0937  -17.0599 N   0  0  0  0  0  0  0  0  0  0  0  0
   24.5407  -23.6195  -15.2100 C   0  0  0  0  0  0  0  0  0  0  0  0
   23.7093  -24.4944  -15.5337 O   0  0  0  0  0  0  0  0  0  0  0  0
   24.5758  -23.2634  -13.8753 O   0  0  0  0  0  0  0  0  0  0  0  0
  2  1  1  6
  2  3  1  0
  4  5  1  0
  4  3  1  0
  5  6  2  0
  7  2  1  0
  7  8  2  0
  9  5  1  0
 11 10  1  0
 12 11  1  0
 12 14  1  0
 12 13  1  6
 14 15  1  1
 15  7  1  0
 16 26  1  0
 16 14  1  0
 17 16  2  0
 18 19  1  0
 19 20  2  0
 21 19  1  0
 21 22  1  0
 22 23  1  0
 23 24  1  0
 25 24  1  6
 25 26  1  0
 25 27  1  0
 27 29  1  0
 28 27  2  0
M  END
$$$$
