EIR.pdb
     RDKit          3D

 29 28  0  0  1  0  0  0  0  0999 V2000
   28.6312  -21.2112  -15.0390 N   0  0  0  0  0  0  0  0  0  0  0  0
   28.0376  -20.2495  -14.0932 C   0  0  1  0  0  0  0  0  0  0  0  0
   27.3469  -19.2284  -14.9557 C   0  0  0  0  0  0  0  0  0  0  0  0
   28.1755  -18.0508  -15.3375 C   0  0  0  0  0  0  0  0  0  0  0  0
   28.4847  -17.9785  -16.7804 C   0  0  0  0  0  0  0  0  0  0  0  0
   29.2583  -18.7561  -17.3810 O   0  0  0  0  0  0  0  0  0  0  0  0
   27.0362  -20.9290  -13.2473 C   0  0  0  0  0  0  0  0  0  0  0  0
   26.5697  -22.0403  -13.5939 O   0  0  0  0  0  0  0  0  0  0  0  0
   27.8777  -16.9723  -17.5524 O   0  0  0  0  0  0  0  0  0  0  0  0
   26.9941  -19.9317   -7.8956 C   0  0  0  0  0  0  0  0  0  0  0  0
   26.9317  -20.8190   -9.1558 C   0  0  0  0  0  0  0  0  0  0  0  0
   25.6588  -20.5249   -9.8568 C   0  0  2  0  0  0  0  0  0  0  0  0
   24.5099  -20.9752   -8.9405 C   0  0  0  0  0  0  0  0  0  0  0  0
   25.4922  -21.0588  -11.2371 C   0  0  2  0  0  0  0  0  0  0  0  0
   26.5538  -20.3836  -12.0266 N   0  0  0  0  0  0  0  0  0  0  0  0
   24.2053  -20.8225  -11.8861 C   0  0  0  0  0  0  0  0  0  0  0  0
   23.9583  -19.6585  -12.3715 O   0  0  0  0  0  0  0  0  0  0  0  0
   18.7232  -25.7704  -16.8418 N   0  0  0  0  0  0  0  0  0  0  0  0
   18.0181  -24.5501  -16.5974 C   0  0  0  0  0  0  0  0  0  0  0  0
   16.8404  -24.3664  -17.0719 N   0  0  0  0  0  0  0  0  0  0  0  0
   18.6293  -23.5397  -15.8246 N   0  0  0  0  0  0  0  0  0  0  0  0
   19.9264  -23.6968  -15.2099 C   0  0  0  0  0  0  0  0  0  0  0  0
   20.3430  -22.4510  -14.4272 C   0  0  0  0  0  0  0  0  0  0  0  0
   21.6092  -22.6923  -13.6605 C   0  0  0  0  0  0  0  0  0  0  0  0
   21.9753  -21.4988  -12.8511 C   0  0  2  0  0  0  0  0  0  0  0  0
   23.1747  -21.7512  -12.0494 N   0  0  0  0  0  0  0  0  0  0  0  0
   20.9226  -21.0890  -11.9250 C   0  0  0  0  0  0  0  0  0  0  0  0
   20.9485  -21.4294  -10.7230 O   0  0  0  0  0  0  0  0  0  0  0  0
   19.8530  -20.3107  -12.3244 O   0  0  0  0  0  0  0  0  0  0  0  0
  2  1  1  6
  2  3  1  0
  4  5  1  0
  4  3  1  0
  5  6  2  0
  7  2  1  0
  7  8  2  0
  9  5  1  0
 11 10  1  0
 12 11  1  0
 12 14  1  0
 12 13  1  1
 14 15  1  6
 15  7  1  0
 16 26  1  0
 16 14  1  0
 17 16  2  0
 18 19  1  0
 19 20  2  0
 21 19  1  0
 21 22  1  0
 22 23  1  0
 23 24  1  0
 25 24  1  1
 25 26  1  0
 25 27  1  0
 27 29  1  0
 28 27  2  0
M  END
$$$$
