EIR.pdb
     RDKit          3D

 29 28  0  0  1  0  0  0  0  0999 V2000
   28.3212  -21.8854  -15.6971 N   0  0  0  0  0  0  0  0  0  0  0  0
   27.7734  -20.7110  -14.9951 C   0  0  1  0  0  0  0  0  0  0  0  0
   27.2543  -19.8118  -16.0839 C   0  0  0  0  0  0  0  0  0  0  0  0
   28.2932  -19.2246  -16.9755 C   0  0  0  0  0  0  0  0  0  0  0  0
   27.7484  -18.3540  -18.0376 C   0  0  0  0  0  0  0  0  0  0  0  0
   27.4116  -18.7475  -19.1758 O   0  0  0  0  0  0  0  0  0  0  0  0
   26.6516  -21.1219  -14.1275 C   0  0  0  0  0  0  0  0  0  0  0  0
   25.9631  -22.1275  -14.4232 O   0  0  0  0  0  0  0  0  0  0  0  0
   27.5889  -16.9825  -17.7720 O   0  0  0  0  0  0  0  0  0  0  0  0
   27.3576  -20.2801   -8.8620 C   0  0  0  0  0  0  0  0  0  0  0  0
   26.9716  -21.0772  -10.1251 C   0  0  0  0  0  0  0  0  0  0  0  0
   25.7170  -20.4983  -10.6627 C   0  0  2  0  0  0  0  0  0  0  0  0
   24.6205  -20.7051   -9.6057 C   0  0  0  0  0  0  0  0  0  0  0  0
   25.2672  -20.9550  -12.0069 C   0  0  2  0  0  0  0  0  0  0  0  0
   26.2935  -20.4259  -12.9411 N   0  0  0  0  0  0  0  0  0  0  0  0
   23.9519  -20.5028  -12.4525 C   0  0  0  0  0  0  0  0  0  0  0  0
   23.7257  -19.2408  -12.5415 O   0  0  0  0  0  0  0  0  0  0  0  0
   17.2124  -24.7717  -15.9122 N   0  0  0  0  0  0  0  0  0  0  0  0
   18.3351  -24.8890  -15.0337 C   0  0  0  0  0  0  0  0  0  0  0  0
   18.7713  -26.0415  -14.6768 N   0  0  0  0  0  0  0  0  0  0  0  0
   18.9670  -23.7206  -14.5572 N   0  0  0  0  0  0  0  0  0  0  0  0
   18.5562  -22.3915  -14.9440 C   0  0  0  0  0  0  0  0  0  0  0  0
   19.4021  -21.3119  -14.2680 C   0  0  0  0  0  0  0  0  0  0  0  0
   20.7428  -21.8492  -13.8641 C   0  0  0  0  0  0  0  0  0  0  0  0
   21.5664  -20.7913  -13.2193 C   0  0  2  0  0  0  0  0  0  0  0  0
   22.8721  -21.3136  -12.8099 N   0  0  0  0  0  0  0  0  0  0  0  0
   20.9413  -20.2251  -12.0265 C   0  0  0  0  0  0  0  0  0  0  0  0
   21.0759  -20.7633  -10.9069 O   0  0  0  0  0  0  0  0  0  0  0  0
   20.1758  -19.0756  -12.0721 O   0  0  0  0  0  0  0  0  0  0  0  0
  2  1  1  6
  2  3  1  0
  4  5  1  0
  4  3  1  0
  5  6  2  0
  7  2  1  0
  7  8  2  0
  9  5  1  0
 11 10  1  0
 12 11  1  0
 12 14  1  0
 12 13  1  1
 14 15  1  6
 15  7  1  0
 16 26  1  0
 16 14  1  0
 17 16  2  0
 18 19  1  0
 19 20  2  0
 21 19  1  0
 21 22  1  0
 22 23  1  0
 23 24  1  0
 25 24  1  1
 25 26  1  0
 25 27  1  0
 27 29  1  0
 28 27  2  0
M  END
$$$$
