EIR.pdb
     RDKit          3D

 29 28  0  0  1  0  0  0  0  0999 V2000
   23.2814   -7.8878  -16.7564 N   0  0  0  0  0  0  0  0  0  0  0  0
   22.5255   -8.5219  -15.6616 C   0  0  1  0  0  0  0  0  0  0  0  0
   22.8358   -7.6962  -14.4428 C   0  0  0  0  0  0  0  0  0  0  0  0
   22.6228   -6.2297  -14.5949 C   0  0  0  0  0  0  0  0  0  0  0  0
   21.9348   -5.6023  -13.4478 C   0  0  0  0  0  0  0  0  0  0  0  0
   20.7250   -5.2861  -13.4313 O   0  0  0  0  0  0  0  0  0  0  0  0
   21.0777   -8.4494  -15.9425 C   0  0  0  0  0  0  0  0  0  0  0  0
   20.6340   -7.5907  -16.7413 O   0  0  0  0  0  0  0  0  0  0  0  0
   22.6728   -5.3325  -12.2818 O   0  0  0  0  0  0  0  0  0  0  0  0
   17.1363  -12.6225  -17.0479 C   0  0  0  0  0  0  0  0  0  0  0  0
   17.1213  -11.1265  -16.6719 C   0  0  0  0  0  0  0  0  0  0  0  0
   18.4825  -10.7589  -16.2133 C   0  0  2  0  0  0  0  0  0  0  0  0
   18.8826  -11.7488  -15.1077 C   0  0  0  0  0  0  0  0  0  0  0  0
   18.7099   -9.3500  -15.7877 C   0  0  2  0  0  0  0  0  0  0  0  0
   20.1272   -9.3206  -15.3443 N   0  0  0  0  0  0  0  0  0  0  0  0
   17.8707   -8.8432  -14.7050 C   0  0  0  0  0  0  0  0  0  0  0  0
   18.1380   -9.1903  -13.4969 O   0  0  0  0  0  0  0  0  0  0  0  0
   16.2736   -1.8969  -10.4137 N   0  0  0  0  0  0  0  0  0  0  0  0
   15.1463   -2.6954  -10.0427 C   0  0  0  0  0  0  0  0  0  0  0  0
   14.4285   -2.3851   -9.0257 N   0  0  0  0  0  0  0  0  0  0  0  0
   14.8240   -3.8367  -10.8078 N   0  0  0  0  0  0  0  0  0  0  0  0
   15.7035   -4.3817  -11.8150 C   0  0  0  0  0  0  0  0  0  0  0  0
   15.0351   -5.5024  -12.6121 C   0  0  0  0  0  0  0  0  0  0  0  0
   15.9366   -6.0037  -13.7008 C   0  0  0  0  0  0  0  0  0  0  0  0
   15.9944   -7.4903  -13.6996 C   0  0  2  0  0  0  0  0  0  0  0  0
   16.7724   -7.9901  -14.8355 N   0  0  0  0  0  0  0  0  0  0  0  0
   14.6766   -8.1157  -13.7780 C   0  0  0  0  0  0  0  0  0  0  0  0
   13.9013   -8.1182  -12.7981 O   0  0  0  0  0  0  0  0  0  0  0  0
   14.2214   -8.7313  -14.9284 O   0  0  0  0  0  0  0  0  0  0  0  0
  2  1  1  6
  2  3  1  0
  4  5  1  0
  4  3  1  0
  5  6  2  0
  7  2  1  0
  7  8  2  0
  9  5  1  0
 11 10  1  0
 12 11  1  0
 12 14  1  0
 12 13  1  1
 14 15  1  1
 15  7  1  0
 16 26  1  0
 16 14  1  0
 17 16  2  0
 18 19  1  0
 19 20  2  0
 21 19  1  0
 21 22  1  0
 22 23  1  0
 23 24  1  0
 25 24  1  6
 25 26  1  0
 25 27  1  0
 27 29  1  0
 28 27  2  0
M  END
$$$$
