EIR.pdb
     RDKit          3D

 29 28  0  0  1  0  0  0  0  0999 V2000
   28.5274  -18.9939  -16.2511 N   0  0  0  0  0  0  0  0  0  0  0  0
   27.5230  -18.5860  -15.2527 C   0  0  1  0  0  0  0  0  0  0  0  0
   26.5543  -17.7154  -16.0058 C   0  0  0  0  0  0  0  0  0  0  0  0
   26.3591  -18.0706  -17.4392 C   0  0  0  0  0  0  0  0  0  0  0  0
   25.3782  -17.2162  -18.1398 C   0  0  0  0  0  0  0  0  0  0  0  0
   25.0180  -17.3745  -19.3268 O   0  0  0  0  0  0  0  0  0  0  0  0
   26.8121  -19.7743  -14.7402 C   0  0  0  0  0  0  0  0  0  0  0  0
   26.8864  -20.8653  -15.3540 O   0  0  0  0  0  0  0  0  0  0  0  0
   24.7959  -16.1434  -17.4420 O   0  0  0  0  0  0  0  0  0  0  0  0
   27.0024  -20.5912   -9.5494 C   0  0  0  0  0  0  0  0  0  0  0  0
   27.0291  -20.8655  -11.0672 C   0  0  0  0  0  0  0  0  0  0  0  0
   25.6267  -20.9088  -11.5465 C   0  0  2  0  0  0  0  0  0  0  0  0
   24.9190  -22.0552  -10.8068 C   0  0  0  0  0  0  0  0  0  0  0  0
   25.4025  -20.9921  -13.0164 C   0  0  2  0  0  0  0  0  0  0  0  0
   26.0246  -19.7565  -13.5571 N   0  0  0  0  0  0  0  0  0  0  0  0
   24.0158  -21.0548  -13.4708 C   0  0  0  0  0  0  0  0  0  0  0  0
   23.2362  -20.0628  -13.2263 O   0  0  0  0  0  0  0  0  0  0  0  0
   16.8960  -22.9457  -10.6282 N   0  0  0  0  0  0  0  0  0  0  0  0
   16.5768  -23.2267  -11.9938 C   0  0  0  0  0  0  0  0  0  0  0  0
   15.3608  -23.4108  -12.3590 N   0  0  0  0  0  0  0  0  0  0  0  0
   17.6151  -23.3008  -12.9468 N   0  0  0  0  0  0  0  0  0  0  0  0
   19.0128  -23.2160  -12.5944 C   0  0  0  0  0  0  0  0  0  0  0  0
   19.7381  -22.1296  -13.3893 C   0  0  0  0  0  0  0  0  0  0  0  0
   21.2152  -22.1658  -13.1316 C   0  0  0  0  0  0  0  0  0  0  0  0
   21.9761  -22.2038  -14.4094 C   0  0  2  0  0  0  0  0  0  0  0  0
   23.4177  -22.1061  -14.1695 N   0  0  0  0  0  0  0  0  0  0  0  0
   21.6216  -21.1185  -15.3206 C   0  0  0  0  0  0  0  0  0  0  0  0
   21.6706  -19.9243  -14.9560 O   0  0  0  0  0  0  0  0  0  0  0  0
   21.2176  -21.3520  -16.6212 O   0  0  0  0  0  0  0  0  0  0  0  0
  2  1  1  6
  2  3  1  0
  4  5  1  0
  4  3  1  0
  5  6  2  0
  7  2  1  0
  7  8  2  0
  9  5  1  0
 11 10  1  0
 12 11  1  0
 12 14  1  0
 12 13  1  1
 14 15  1  6
 15  7  1  0
 16 26  1  0
 16 14  1  0
 17 16  2  0
 18 19  1  0
 19 20  2  0
 21 19  1  0
 21 22  1  0
 22 23  1  0
 23 24  1  0
 25 24  1  1
 25 26  1  0
 25 27  1  0
 27 29  1  0
 28 27  2  0
M  END
$$$$
