EIR.pdb
     RDKit          3D

 29 28  0  0  1  0  0  0  0  0999 V2000
   28.6924  -21.5473  -15.2957 N   0  0  0  0  0  0  0  0  0  0  0  0
   28.0942  -20.4519  -14.5119 C   0  0  1  0  0  0  0  0  0  0  0  0
   27.3724  -19.5991  -15.5196 C   0  0  0  0  0  0  0  0  0  0  0  0
   28.2463  -18.8679  -16.4789 C   0  0  0  0  0  0  0  0  0  0  0  0
   28.0565  -17.4028  -16.4651 C   0  0  0  0  0  0  0  0  0  0  0  0
   27.2326  -16.7999  -15.7429 O   0  0  0  0  0  0  0  0  0  0  0  0
   27.1178  -20.9980  -13.5484 C   0  0  0  0  0  0  0  0  0  0  0  0
   26.4325  -22.0043  -13.8490 O   0  0  0  0  0  0  0  0  0  0  0  0
   28.8471  -16.6104  -17.3161 O   0  0  0  0  0  0  0  0  0  0  0  0
   27.5875  -19.7911   -8.1632 C   0  0  0  0  0  0  0  0  0  0  0  0
   27.3628  -20.7334   -9.3637 C   0  0  0  0  0  0  0  0  0  0  0  0
   26.1174  -20.3098  -10.0478 C   0  0  2  0  0  0  0  0  0  0  0  0
   24.9558  -20.5086   -9.0612 C   0  0  0  0  0  0  0  0  0  0  0  0
   25.8153  -20.9217  -11.3714 C   0  0  2  0  0  0  0  0  0  0  0  0
   26.9005  -20.4354  -12.2613 N   0  0  0  0  0  0  0  0  0  0  0  0
   24.5290  -20.5861  -11.9764 C   0  0  0  0  0  0  0  0  0  0  0  0
   24.3515  -19.4017  -12.4425 O   0  0  0  0  0  0  0  0  0  0  0  0
   20.0767  -25.8287  -17.0727 N   0  0  0  0  0  0  0  0  0  0  0  0
   20.5515  -25.8265  -15.7234 C   0  0  0  0  0  0  0  0  0  0  0  0
   20.7246  -26.9269  -15.0869 N   0  0  0  0  0  0  0  0  0  0  0  0
   20.8316  -24.5971  -15.0896 N   0  0  0  0  0  0  0  0  0  0  0  0
   20.6736  -23.3206  -15.7458 C   0  0  0  0  0  0  0  0  0  0  0  0
   20.8752  -22.1523  -14.7802 C   0  0  0  0  0  0  0  0  0  0  0  0
   22.1104  -22.3427  -13.9511 C   0  0  0  0  0  0  0  0  0  0  0  0
   22.3221  -21.1855  -13.0404 C   0  0  2  0  0  0  0  0  0  0  0  0
   23.4295  -21.4364  -12.1152 N   0  0  0  0  0  0  0  0  0  0  0  0
   21.1497  -20.8740  -12.2267 C   0  0  0  0  0  0  0  0  0  0  0  0
   21.0239  -21.3299  -11.0701 O   0  0  0  0  0  0  0  0  0  0  0  0
   20.1275  -20.0663  -12.6876 O   0  0  0  0  0  0  0  0  0  0  0  0
  2  1  1  6
  2  3  1  0
  4  5  1  0
  4  3  1  0
  5  6  2  0
  7  2  1  0
  7  8  2  0
  9  5  1  0
 11 10  1  0
 12 11  1  0
 12 14  1  0
 12 13  1  1
 14 15  1  6
 15  7  1  0
 16 26  1  0
 16 14  1  0
 17 16  2  0
 18 19  1  0
 19 20  2  0
 21 19  1  0
 21 22  1  0
 22 23  1  0
 23 24  1  0
 25 24  1  1
 25 26  1  0
 25 27  1  0
 27 29  1  0
 28 27  2  0
M  END
$$$$
