EIR.pdb
     RDKit          3D

 29 28  0  0  1  0  0  0  0  0999 V2000
   20.2553  -20.3511  -11.9187 N   0  0  0  0  0  0  0  0  0  0  0  0
   21.2616  -21.2232  -12.5501 C   0  0  1  0  0  0  0  0  0  0  0  0
   20.7920  -21.3986  -13.9687 C   0  0  0  0  0  0  0  0  0  0  0  0
   19.5749  -22.2406  -14.1380 C   0  0  0  0  0  0  0  0  0  0  0  0
   19.8642  -23.6622  -14.4177 C   0  0  0  0  0  0  0  0  0  0  0  0
   21.0125  -24.1492  -14.5079 O   0  0  0  0  0  0  0  0  0  0  0  0
   22.5772  -20.5530  -12.5527 C   0  0  0  0  0  0  0  0  0  0  0  0
   22.6457  -19.3015  -12.5943 O   0  0  0  0  0  0  0  0  0  0  0  0
   18.7877  -24.5484  -14.5989 O   0  0  0  0  0  0  0  0  0  0  0  0
   26.2966  -21.6412   -8.9989 C   0  0  0  0  0  0  0  0  0  0  0  0
   25.3738  -20.8965   -9.9856 C   0  0  0  0  0  0  0  0  0  0  0  0
   25.8576  -21.1745  -11.3593 C   0  0  2  0  0  0  0  0  0  0  0  0
   27.3511  -20.8150  -11.4067 C   0  0  0  0  0  0  0  0  0  0  0  0
   25.1145  -20.5542  -12.4909 C   0  0  2  0  0  0  0  0  0  0  0  0
   23.8086  -21.2616  -12.5094 N   0  0  0  0  0  0  0  0  0  0  0  0
   25.7211  -20.6577  -13.8155 C   0  0  0  0  0  0  0  0  0  0  0  0
   25.7555  -21.8040  -14.3955 O   0  0  0  0  0  0  0  0  0  0  0  0
   24.6194  -15.5014  -20.8135 N   0  0  0  0  0  0  0  0  0  0  0  0
   25.2040  -16.7134  -21.2985 C   0  0  0  0  0  0  0  0  0  0  0  0
   25.2332  -16.9710  -22.5550 N   0  0  0  0  0  0  0  0  0  0  0  0
   25.7541  -17.6332  -20.3802 N   0  0  0  0  0  0  0  0  0  0  0  0
   25.6702  -17.4604  -18.9491 C   0  0  0  0  0  0  0  0  0  0  0  0
   26.2493  -18.6571  -18.1936 C   0  0  0  0  0  0  0  0  0  0  0  0
   25.9566  -18.5631  -16.7257 C   0  0  0  0  0  0  0  0  0  0  0  0
   26.5715  -19.6994  -15.9881 C   0  0  2  0  0  0  0  0  0  0  0  0
   26.2860  -19.6153  -14.5540 N   0  0  0  0  0  0  0  0  0  0  0  0
   28.0243  -19.7564  -16.1303 C   0  0  0  0  0  0  0  0  0  0  0  0
   28.7722  -19.0363  -15.4350 O   0  0  0  0  0  0  0  0  0  0  0  0
   28.6428  -20.6014  -17.0319 O   0  0  0  0  0  0  0  0  0  0  0  0
  2  1  1  1
  2  3  1  0
  4  5  1  0
  4  3  1  0
  5  6  2  0
  7  2  1  0
  7  8  2  0
  9  5  1  0
 11 10  1  0
 12 11  1  0
 12 14  1  0
 12 13  1  1
 14 15  1  6
 15  7  1  0
 16 26  1  0
 16 14  1  0
 17 16  2  0
 18 19  1  0
 19 20  2  0
 21 19  1  0
 21 22  1  0
 22 23  1  0
 23 24  1  0
 25 24  1  6
 25 26  1  0
 25 27  1  0
 27 29  1  0
 28 27  2  0
M  END
$$$$
