EIR.pdb
     RDKit          3D

 29 28  0  0  1  0  0  0  0  0999 V2000
   28.6800  -21.6191  -16.3925 N   0  0  0  0  0  0  0  0  0  0  0  0
   27.9571  -20.5914  -15.6222 C   0  0  1  0  0  0  0  0  0  0  0  0
   27.2538  -19.7521  -16.6540 C   0  0  0  0  0  0  0  0  0  0  0  0
   26.1926  -20.4524  -17.4301 C   0  0  0  0  0  0  0  0  0  0  0  0
   25.5109  -19.5948  -18.4214 C   0  0  0  0  0  0  0  0  0  0  0  0
   26.0860  -18.7598  -19.1535 O   0  0  0  0  0  0  0  0  0  0  0  0
   26.9529  -21.2312  -14.7490 C   0  0  0  0  0  0  0  0  0  0  0  0
   26.4929  -22.3605  -15.0415 O   0  0  0  0  0  0  0  0  0  0  0  0
   24.1172  -19.7083  -18.5690 O   0  0  0  0  0  0  0  0  0  0  0  0
   27.7679  -20.7747   -9.5159 C   0  0  0  0  0  0  0  0  0  0  0  0
   27.4384  -21.4064  -10.8841 C   0  0  0  0  0  0  0  0  0  0  0  0
   26.0729  -20.9745  -11.2676 C   0  0  2  0  0  0  0  0  0  0  0  0
   25.1110  -21.4443  -10.1648 C   0  0  0  0  0  0  0  0  0  0  0  0
   25.5804  -21.3634  -12.6182 C   0  0  2  0  0  0  0  0  0  0  0  0
   26.4609  -20.6265  -13.5605 N   0  0  0  0  0  0  0  0  0  0  0  0
   24.1899  -21.0448  -12.9315 C   0  0  0  0  0  0  0  0  0  0  0  0
   23.8383  -19.8115  -13.0146 O   0  0  0  0  0  0  0  0  0  0  0  0
   16.9172  -25.4345  -15.8538 N   0  0  0  0  0  0  0  0  0  0  0  0
   16.4939  -24.0901  -15.6107 C   0  0  0  0  0  0  0  0  0  0  0  0
   15.3141  -23.7047  -15.9354 N   0  0  0  0  0  0  0  0  0  0  0  0
   17.3881  -23.1809  -15.0062 N   0  0  0  0  0  0  0  0  0  0  0  0
   18.7023  -23.5607  -14.5441 C   0  0  0  0  0  0  0  0  0  0  0  0
   19.5683  -22.3431  -14.2190 C   0  0  0  0  0  0  0  0  0  0  0  0
   20.9591  -22.7549  -13.8378 C   0  0  0  0  0  0  0  0  0  0  0  0
   21.7855  -21.5694  -13.4840 C   0  0  2  0  0  0  0  0  0  0  0  0
   23.1602  -21.9598  -13.1634 N   0  0  0  0  0  0  0  0  0  0  0  0
   21.2713  -20.8355  -12.3304 C   0  0  0  0  0  0  0  0  0  0  0  0
   21.4934  -21.2239  -11.1637 O   0  0  0  0  0  0  0  0  0  0  0  0
   20.5197  -19.6839  -12.4662 O   0  0  0  0  0  0  0  0  0  0  0  0
  2  1  1  6
  2  3  1  0
  4  5  1  0
  4  3  1  0
  5  6  2  0
  7  2  1  0
  7  8  2  0
  9  5  1  0
 11 10  1  0
 12 11  1  0
 12 14  1  0
 12 13  1  1
 14 15  1  6
 15  7  1  0
 16 26  1  0
 16 14  1  0
 17 16  2  0
 18 19  1  0
 19 20  2  0
 21 19  1  0
 21 22  1  0
 22 23  1  0
 23 24  1  0
 25 24  1  1
 25 26  1  0
 25 27  1  0
 27 29  1  0
 28 27  2  0
M  END
$$$$
