EIR.pdb
     RDKit          3D

 29 28  0  0  1  0  0  0  0  0999 V2000
   25.7859  -20.5734  -13.3695 N   0  0  0  0  0  0  0  0  0  0  0  0
   24.8166  -19.8859  -12.4977 C   0  0  1  0  0  0  0  0  0  0  0  0
   23.5574  -19.7867  -13.3151 C   0  0  0  0  0  0  0  0  0  0  0  0
   23.6429  -18.9065  -14.5138 C   0  0  0  0  0  0  0  0  0  0  0  0
   23.7238  -19.6421  -15.7926 C   0  0  0  0  0  0  0  0  0  0  0  0
   22.8495  -20.4298  -16.2156 O   0  0  0  0  0  0  0  0  0  0  0  0
   24.5534  -20.7027  -11.2962 C   0  0  0  0  0  0  0  0  0  0  0  0
   24.4679  -21.9503  -11.3899 O   0  0  0  0  0  0  0  0  0  0  0  0
   24.8548  -19.4591  -16.6076 O   0  0  0  0  0  0  0  0  0  0  0  0
   26.8958  -18.9709   -7.0037 C   0  0  0  0  0  0  0  0  0  0  0  0
   26.4315  -20.1275   -7.9127 C   0  0  0  0  0  0  0  0  0  0  0  0
   24.9699  -20.2934   -7.7272 C   0  0  2  0  0  0  0  0  0  0  0  0
   24.7482  -20.9542   -6.3574 C   0  0  0  0  0  0  0  0  0  0  0  0
   24.2146  -21.0002   -8.7986 C   0  0  2  0  0  0  0  0  0  0  0  0
   24.3861  -20.1439  -10.0000 N   0  0  0  0  0  0  0  0  0  0  0  0
   22.7867  -21.2085   -8.5730 C   0  0  0  0  0  0  0  0  0  0  0  0
   21.9795  -20.2241   -8.7490 O   0  0  0  0  0  0  0  0  0  0  0  0
   15.5076  -23.5963   -9.8286 N   0  0  0  0  0  0  0  0  0  0  0  0
   16.4183  -23.6028  -10.9315 C   0  0  0  0  0  0  0  0  0  0  0  0
   16.1080  -23.0403  -12.0421 N   0  0  0  0  0  0  0  0  0  0  0  0
   17.6716  -24.2362  -10.7913 N   0  0  0  0  0  0  0  0  0  0  0  0
   18.1135  -24.8393   -9.5560 C   0  0  0  0  0  0  0  0  0  0  0  0
   18.7106  -23.8081   -8.5977 C   0  0  0  0  0  0  0  0  0  0  0  0
   20.1675  -23.5889   -8.8782 C   0  0  0  0  0  0  0  0  0  0  0  0
   20.7289  -22.5422   -7.9824 C   0  0  2  0  0  0  0  0  0  0  0  0
   22.1736  -22.3994   -8.1765 N   0  0  0  0  0  0  0  0  0  0  0  0
   20.5157  -22.8253   -6.5653 C   0  0  0  0  0  0  0  0  0  0  0  0
   21.4293  -23.2947   -5.8537 O   0  0  0  0  0  0  0  0  0  0  0  0
   19.3047  -22.5913   -5.9423 O   0  0  0  0  0  0  0  0  0  0  0  0
  2  1  1  6
  2  3  1  0
  4  5  1  0
  4  3  1  0
  5  6  2  0
  7  2  1  0
  7  8  2  0
  9  5  1  0
 11 10  1  0
 12 11  1  0
 12 14  1  0
 12 13  1  1
 14 15  1  6
 15  7  1  0
 16 26  1  0
 16 14  1  0
 17 16  2  0
 18 19  1  0
 19 20  2  0
 21 19  1  0
 21 22  1  0
 22 23  1  0
 23 24  1  0
 25 24  1  6
 25 26  1  0
 25 27  1  0
 27 29  1  0
 28 27  2  0
M  END
$$$$
