EIR.pdb
     RDKit          3D

 29 28  0  0  1  0  0  0  0  0999 V2000
   26.7347  -22.4089  -15.7298 N   0  0  0  0  0  0  0  0  0  0  0  0
   25.3424  -22.7788  -16.0409 C   0  0  1  0  0  0  0  0  0  0  0  0
   25.3097  -24.2808  -15.9609 C   0  0  0  0  0  0  0  0  0  0  0  0
   26.1428  -24.9915  -16.9707 C   0  0  0  0  0  0  0  0  0  0  0  0
   26.0864  -26.4640  -16.8643 C   0  0  0  0  0  0  0  0  0  0  0  0
   25.4361  -27.0895  -15.9985 O   0  0  0  0  0  0  0  0  0  0  0  0
   24.4333  -22.2175  -15.0217 C   0  0  0  0  0  0  0  0  0  0  0  0
   24.8297  -22.0623  -13.8421 O   0  0  0  0  0  0  0  0  0  0  0  0
   26.8073  -27.2370  -17.7917 O   0  0  0  0  0  0  0  0  0  0  0  0
   22.9902  -17.5146  -15.3329 C   0  0  0  0  0  0  0  0  0  0  0  0
   23.3706  -18.9195  -14.8219 C   0  0  0  0  0  0  0  0  0  0  0  0
   22.1383  -19.7436  -14.7966 C   0  0  2  0  0  0  0  0  0  0  0  0
   21.0697  -18.9565  -14.0216 C   0  0  0  0  0  0  0  0  0  0  0  0
   22.2533  -21.1408  -14.2942 C   0  0  2  0  0  0  0  0  0  0  0  0
   23.0953  -21.8304  -15.3048 N   0  0  0  0  0  0  0  0  0  0  0  0
   21.0095  -21.8893  -14.1327 C   0  0  0  0  0  0  0  0  0  0  0  0
   20.3358  -22.2084  -15.1795 O   0  0  0  0  0  0  0  0  0  0  0  0
   17.1184  -25.7067   -7.3036 N   0  0  0  0  0  0  0  0  0  0  0  0
   18.2231  -24.8970   -7.7157 C   0  0  0  0  0  0  0  0  0  0  0  0
   19.1629  -24.6017   -6.8938 N   0  0  0  0  0  0  0  0  0  0  0  0
   18.2754  -24.4202   -9.0430 N   0  0  0  0  0  0  0  0  0  0  0  0
   17.0975  -24.2246   -9.8548 C   0  0  0  0  0  0  0  0  0  0  0  0
   17.4506  -23.9168  -11.3104 C   0  0  0  0  0  0  0  0  0  0  0  0
   18.8328  -23.3456  -11.4225 C   0  0  0  0  0  0  0  0  0  0  0  0
   19.1317  -22.9506  -12.8253 C   0  0  2  0  0  0  0  0  0  0  0  0
   20.4485  -22.3174  -12.9272 N   0  0  0  0  0  0  0  0  0  0  0  0
   18.1617  -22.0064  -13.3744 C   0  0  0  0  0  0  0  0  0  0  0  0
   17.3421  -22.3555  -14.2506 O   0  0  0  0  0  0  0  0  0  0  0  0
   18.0989  -20.6903  -12.9582 O   0  0  0  0  0  0  0  0  0  0  0  0
  2  1  1  1
  2  3  1  0
  4  5  1  0
  4  3  1  0
  5  6  2  0
  7  2  1  0
  7  8  2  0
  9  5  1  0
 11 10  1  0
 12 11  1  0
 12 14  1  0
 12 13  1  1
 14 15  1  6
 15  7  1  0
 16 26  1  0
 16 14  1  0
 17 16  2  0
 18 19  1  0
 19 20  2  0
 21 19  1  0
 21 22  1  0
 22 23  1  0
 23 24  1  0
 25 24  1  1
 25 26  1  0
 25 27  1  0
 27 29  1  0
 28 27  2  0
M  END
$$$$
