EIR.pdb
     RDKit          3D

 29 28  0  0  1  0  0  0  0  0999 V2000
   31.2677  -22.7295  -10.9521 N   0  0  0  0  0  0  0  0  0  0  0  0
   30.8170  -21.3979  -10.5097 C   0  0  1  0  0  0  0  0  0  0  0  0
   30.7372  -20.5747  -11.7665 C   0  0  0  0  0  0  0  0  0  0  0  0
   30.3083  -21.3136  -12.9867 C   0  0  0  0  0  0  0  0  0  0  0  0
   29.0847  -20.7739  -13.6146 C   0  0  0  0  0  0  0  0  0  0  0  0
   28.9352  -19.5853  -13.9733 O   0  0  0  0  0  0  0  0  0  0  0  0
   29.4728  -21.4967   -9.9068 C   0  0  0  0  0  0  0  0  0  0  0  0
   28.7853  -22.5328  -10.0687 O   0  0  0  0  0  0  0  0  0  0  0  0
   27.9988  -21.6398  -13.8340 O   0  0  0  0  0  0  0  0  0  0  0  0
   28.5864  -18.9934   -5.1623 C   0  0  0  0  0  0  0  0  0  0  0  0
   28.5749  -20.1252   -6.2104 C   0  0  0  0  0  0  0  0  0  0  0  0
   27.6256  -19.7425   -7.2831 C   0  0  2  0  0  0  0  0  0  0  0  0
   26.2401  -19.5768   -6.6389 C   0  0  0  0  0  0  0  0  0  0  0  0
   27.5617  -20.6124   -8.4901 C   0  0  2  0  0  0  0  0  0  0  0  0
   28.8929  -20.4570   -9.1303 N   0  0  0  0  0  0  0  0  0  0  0  0
   26.5298  -20.3004   -9.4755 C   0  0  0  0  0  0  0  0  0  0  0  0
   26.5162  -19.1332  -10.0131 O   0  0  0  0  0  0  0  0  0  0  0  0
   22.8002  -24.8269  -16.0803 N   0  0  0  0  0  0  0  0  0  0  0  0
   22.3107  -23.4883  -16.2010 C   0  0  0  0  0  0  0  0  0  0  0  0
   21.5359  -23.1578  -17.1686 N   0  0  0  0  0  0  0  0  0  0  0  0
   22.6871  -22.5239  -15.2419 N   0  0  0  0  0  0  0  0  0  0  0  0
   23.5429  -22.8251  -14.1186 C   0  0  0  0  0  0  0  0  0  0  0  0
   23.6467  -21.6487  -13.1472 C   0  0  0  0  0  0  0  0  0  0  0  0
   24.6077  -21.9486  -12.0354 C   0  0  0  0  0  0  0  0  0  0  0  0
   24.6258  -20.8453  -11.0375 C   0  0  2  0  0  0  0  0  0  0  0  0
   25.5203  -21.1573   -9.9205 N   0  0  0  0  0  0  0  0  0  0  0  0
   23.3108  -20.5678  -10.4652 C   0  0  0  0  0  0  0  0  0  0  0  0
   22.9793  -21.0257   -9.3509 O   0  0  0  0  0  0  0  0  0  0  0  0
   22.3727  -19.7917  -11.1188 O   0  0  0  0  0  0  0  0  0  0  0  0
  2  1  1  6
  2  3  1  0
  4  5  1  0
  4  3  1  0
  5  6  2  0
  7  2  1  0
  7  8  2  0
  9  5  1  0
 11 10  1  0
 12 11  1  0
 12 14  1  0
 12 13  1  1
 14 15  1  6
 15  7  1  0
 16 26  1  0
 16 14  1  0
 17 16  2  0
 18 19  1  0
 19 20  2  0
 21 19  1  0
 21 22  1  0
 22 23  1  0
 23 24  1  0
 25 24  1  6
 25 26  1  0
 25 27  1  0
 27 29  1  0
 28 27  2  0
M  END
$$$$
