EIR.pdb
     RDKit          3D

 29 28  0  0  1  0  0  0  0  0999 V2000
   18.2128  -19.4195  -16.7350 N   0  0  0  0  0  0  0  0  0  0  0  0
   19.5724  -18.9087  -16.9853 C   0  0  1  0  0  0  0  0  0  0  0  0
   19.7332  -17.7470  -16.0428 C   0  0  0  0  0  0  0  0  0  0  0  0
   18.9748  -16.5185  -16.4097 C   0  0  0  0  0  0  0  0  0  0  0  0
   17.5114  -16.6493  -16.2542 C   0  0  0  0  0  0  0  0  0  0  0  0
   16.9379  -17.0084  -15.2025 O   0  0  0  0  0  0  0  0  0  0  0  0
   20.5686  -19.9465  -16.6525 C   0  0  0  0  0  0  0  0  0  0  0  0
   20.3598  -20.7373  -15.7019 O   0  0  0  0  0  0  0  0  0  0  0  0
   16.6855  -16.3543  -17.3533 O   0  0  0  0  0  0  0  0  0  0  0  0
   22.0698  -23.0975  -20.3903 C   0  0  0  0  0  0  0  0  0  0  0  0
   21.6949  -22.6110  -18.9752 C   0  0  0  0  0  0  0  0  0  0  0  0
   22.8743  -21.9159  -18.4057 C   0  0  2  0  0  0  0  0  0  0  0  0
   24.0359  -22.9218  -18.3759 C   0  0  0  0  0  0  0  0  0  0  0  0
   22.7076  -21.2411  -17.0887 C   0  0  2  0  0  0  0  0  0  0  0  0
   21.7872  -20.1087  -17.3658 N   0  0  0  0  0  0  0  0  0  0  0  0
   23.9158  -20.7176  -16.4568 C   0  0  0  0  0  0  0  0  0  0  0  0
   24.7090  -19.9796  -17.1481 O   0  0  0  0  0  0  0  0  0  0  0  0
   26.5163  -20.3078   -8.2221 N   0  0  0  0  0  0  0  0  0  0  0  0
   25.5627  -20.8492   -9.1404 C   0  0  0  0  0  0  0  0  0  0  0  0
   24.4529  -21.3381   -8.7218 N   0  0  0  0  0  0  0  0  0  0  0  0
   25.8506  -20.8430  -10.5220 N   0  0  0  0  0  0  0  0  0  0  0  0
   27.0268  -20.2155  -11.0769 C   0  0  0  0  0  0  0  0  0  0  0  0
   27.0199  -20.2386  -12.6058 C   0  0  0  0  0  0  0  0  0  0  0  0
   25.6804  -20.6576  -13.1344 C   0  0  0  0  0  0  0  0  0  0  0  0
   25.6279  -20.5217  -14.6150 C   0  0  2  0  0  0  0  0  0  0  0  0
   24.3224  -20.9313  -15.1377 N   0  0  0  0  0  0  0  0  0  0  0  0
   26.6336  -21.3290  -15.3012 C   0  0  0  0  0  0  0  0  0  0  0  0
   27.7339  -20.8431  -15.6396 O   0  0  0  0  0  0  0  0  0  0  0  0
   26.4242  -22.6597  -15.6091 O   0  0  0  0  0  0  0  0  0  0  0  0
  2  1  1  1
  2  3  1  0
  4  5  1  0
  4  3  1  0
  5  6  2  0
  7  2  1  0
  7  8  2  0
  9  5  1  0
 11 10  1  0
 12 11  1  0
 12 14  1  0
 12 13  1  1
 14 15  1  6
 15  7  1  0
 16 26  1  0
 16 14  1  0
 17 16  2  0
 18 19  1  0
 19 20  2  0
 21 19  1  0
 21 22  1  0
 22 23  1  0
 23 24  1  0
 25 24  1  1
 25 26  1  0
 25 27  1  0
 27 29  1  0
 28 27  2  0
M  END
$$$$
