EIR.pdb
     RDKit          3D

 29 28  0  0  1  0  0  0  0  0999 V2000
   22.7672  -20.5757   -9.6797 N   0  0  0  0  0  0  0  0  0  0  0  0
   23.4333  -21.1993  -10.8370 C   0  0  1  0  0  0  0  0  0  0  0  0
   22.4235  -21.1355  -11.9505 C   0  0  0  0  0  0  0  0  0  0  0  0
   21.1219  -21.8034  -11.6699 C   0  0  0  0  0  0  0  0  0  0  0  0
   20.2097  -21.8493  -12.8312 C   0  0  0  0  0  0  0  0  0  0  0  0
   19.0410  -22.2933  -12.7996 O   0  0  0  0  0  0  0  0  0  0  0  0
   24.6246  -20.4131  -11.2152 C   0  0  0  0  0  0  0  0  0  0  0  0
   24.6989  -19.1984  -10.9125 O   0  0  0  0  0  0  0  0  0  0  0  0
   20.6667  -21.3651  -14.0696 O   0  0  0  0  0  0  0  0  0  0  0  0
   29.5344  -22.0730  -10.2944 C   0  0  0  0  0  0  0  0  0  0  0  0
   28.3131  -21.1447  -10.4562 C   0  0  0  0  0  0  0  0  0  0  0  0
   28.0773  -20.9518  -11.9073 C   0  0  2  0  0  0  0  0  0  0  0  0
   29.3741  -20.3976  -12.5182 C   0  0  0  0  0  0  0  0  0  0  0  0
   26.8968  -20.1392  -12.3122 C   0  0  2  0  0  0  0  0  0  0  0  0
   25.7260  -20.9662  -11.9231 N   0  0  0  0  0  0  0  0  0  0  0  0
   26.7811  -19.8021  -13.7286 C   0  0  0  0  0  0  0  0  0  0  0  0
   26.6086  -20.7485  -14.5806 O   0  0  0  0  0  0  0  0  0  0  0  0
   24.4293  -15.8710  -19.8441 N   0  0  0  0  0  0  0  0  0  0  0  0
   23.9273  -15.0540  -18.7828 C   0  0  0  0  0  0  0  0  0  0  0  0
   22.7009  -14.6776  -18.7683 N   0  0  0  0  0  0  0  0  0  0  0  0
   24.7950  -14.6602  -17.7418 N   0  0  0  0  0  0  0  0  0  0  0  0
   26.1916  -15.0247  -17.7026 C   0  0  0  0  0  0  0  0  0  0  0  0
   26.3857  -16.5181  -17.4375 C   0  0  0  0  0  0  0  0  0  0  0  0
   26.4519  -16.8022  -15.9663 C   0  0  0  0  0  0  0  0  0  0  0  0
   26.6742  -18.2516  -15.7151 C   0  0  2  0  0  0  0  0  0  0  0  0
   26.8346  -18.5218  -14.2845 N   0  0  0  0  0  0  0  0  0  0  0  0
   27.8639  -18.7736  -16.3830 C   0  0  0  0  0  0  0  0  0  0  0  0
   27.7784  -19.4105  -17.4546 O   0  0  0  0  0  0  0  0  0  0  0  0
   29.1345  -18.5926  -15.8708 O   0  0  0  0  0  0  0  0  0  0  0  0
  2  1  1  1
  2  3  1  0
  4  5  1  0
  4  3  1  0
  5  6  2  0
  7  2  1  0
  7  8  2  0
  9  5  1  0
 11 10  1  0
 12 11  1  0
 12 14  1  0
 12 13  1  1
 14 15  1  6
 15  7  1  0
 16 26  1  0
 16 14  1  0
 17 16  2  0
 18 19  1  0
 19 20  2  0
 21 19  1  0
 21 22  1  0
 22 23  1  0
 23 24  1  0
 25 24  1  1
 25 26  1  0
 25 27  1  0
 27 29  1  0
 28 27  2  0
M  END
$$$$
