EIR.pdb
     RDKit          3D

 29 28  0  0  1  0  0  0  0  0999 V2000
   26.4960  -19.8883  -16.0874 N   0  0  0  0  0  0  0  0  0  0  0  0
   25.1766  -20.0304  -16.7286 C   0  0  1  0  0  0  0  0  0  0  0  0
   25.1657  -21.4238  -17.2959 C   0  0  0  0  0  0  0  0  0  0  0  0
   26.0215  -21.6298  -18.4976 C   0  0  0  0  0  0  0  0  0  0  0  0
   25.7364  -20.6927  -19.6037 C   0  0  0  0  0  0  0  0  0  0  0  0
   24.5902  -20.4002  -20.0094 O   0  0  0  0  0  0  0  0  0  0  0  0
   24.1095  -19.9094  -15.7153 C   0  0  0  0  0  0  0  0  0  0  0  0
   24.3492  -20.1775  -14.5140 O   0  0  0  0  0  0  0  0  0  0  0  0
   26.8146  -20.0745  -20.2610 O   0  0  0  0  0  0  0  0  0  0  0  0
   20.4033  -15.5650  -14.7552 C   0  0  0  0  0  0  0  0  0  0  0  0
   20.5215  -17.0413  -14.3239 C   0  0  0  0  0  0  0  0  0  0  0  0
   21.5378  -17.6880  -15.1883 C   0  0  2  0  0  0  0  0  0  0  0  0
   21.1498  -17.4087  -16.6490 C   0  0  0  0  0  0  0  0  0  0  0  0
   21.8112  -19.1351  -14.9672 C   0  0  2  0  0  0  0  0  0  0  0  0
   22.7864  -19.4947  -16.0281 N   0  0  0  0  0  0  0  0  0  0  0  0
   20.6708  -20.0436  -15.0531 C   0  0  0  0  0  0  0  0  0  0  0  0
   20.2128  -20.3585  -16.2118 O   0  0  0  0  0  0  0  0  0  0  0  0
   19.7289  -27.2995  -11.5040 N   0  0  0  0  0  0  0  0  0  0  0  0
   19.2592  -26.1063  -10.8703 C   0  0  0  0  0  0  0  0  0  0  0  0
   19.2299  -26.0106   -9.5913 N   0  0  0  0  0  0  0  0  0  0  0  0
   18.8246  -25.0246  -11.6656 N   0  0  0  0  0  0  0  0  0  0  0  0
   18.3521  -25.1853  -13.0206 C   0  0  0  0  0  0  0  0  0  0  0  0
   18.0496  -23.8413  -13.6840 C   0  0  0  0  0  0  0  0  0  0  0  0
   19.1738  -22.8705  -13.4765 C   0  0  0  0  0  0  0  0  0  0  0  0
   18.8832  -21.5718  -14.1415 C   0  0  2  0  0  0  0  0  0  0  0  0
   19.9974  -20.6347  -13.9815 N   0  0  0  0  0  0  0  0  0  0  0  0
   17.6920  -20.9110  -13.6138 C   0  0  0  0  0  0  0  0  0  0  0  0
   17.7669  -20.1010  -12.6652 O   0  0  0  0  0  0  0  0  0  0  0  0
   16.4316  -21.1437  -14.1302 O   0  0  0  0  0  0  0  0  0  0  0  0
  2  1  1  1
  2  3  1  0
  4  5  1  0
  4  3  1  0
  5  6  2  0
  7  2  1  0
  7  8  2  0
  9  5  1  0
 11 10  1  0
 12 11  1  0
 12 14  1  0
 12 13  1  6
 14 15  1  6
 15  7  1  0
 16 26  1  0
 16 14  1  0
 17 16  2  0
 18 19  1  0
 19 20  2  0
 21 19  1  0
 21 22  1  0
 22 23  1  0
 23 24  1  0
 25 24  1  1
 25 26  1  0
 25 27  1  0
 27 29  1  0
 28 27  2  0
M  END
$$$$
