VFG.pdb
     RDKit          3D

 23 23  0  0  1  0  0  0  0  0999 V2000
   26.1424  -21.4269  -18.1731 C   0  0  0  0  0  0  0  0  0  0  0  0
   26.6308  -20.1150  -17.5544 C   0  0  2  0  0  0  0  0  0  0  0  0
   27.3746  -19.3576  -18.6229 C   0  0  0  0  0  0  0  0  0  0  0  0
   27.5299  -20.5033  -16.4010 C   0  0  2  0  0  0  0  0  0  0  0  0
   28.5473  -21.3969  -16.9335 N   0  0  0  0  0  0  0  0  0  0  0  0
   26.7843  -21.1491  -15.2981 C   0  0  0  0  0  0  0  0  0  0  0  0
   26.7090  -22.3891  -15.2465 O   0  0  0  0  0  0  0  0  0  0  0  0
   26.1724  -20.3662  -14.3266 N   0  0  0  0  0  0  0  0  0  0  0  0
   25.4243  -20.8815  -13.1904 C   0  0  1  0  0  0  0  0  0  0  0  0
   25.9723  -20.2243  -11.9743 C   0  0  0  0  0  0  0  0  0  0  0  0
   27.4126  -20.5213  -11.7566 C   0  0  0  0  0  0  0  0  0  0  0  0
   28.4262  -20.0374  -12.5438 C   0  0  0  0  0  0  0  0  0  0  0  0
   29.7485  -20.3440  -12.2976 C   0  0  0  0  0  0  0  0  0  0  0  0
   30.1013  -21.1558  -11.2407 C   0  0  0  0  0  0  0  0  0  0  0  0
   29.1101  -21.6546  -10.4361 C   0  0  0  0  0  0  0  0  0  0  0  0
   27.8074  -21.3418  -10.6933 C   0  0  0  0  0  0  0  0  0  0  0  0
   23.9853  -20.8238  -13.3727 C   0  0  0  0  0  0  0  0  0  0  0  0
   23.4524  -19.7409  -13.7347 O   0  0  0  0  0  0  0  0  0  0  0  0
   23.0982  -21.9194  -13.1713 N   0  0  0  0  0  0  0  0  0  0  0  0
   21.6845  -21.8207  -13.4064 C   0  0  0  0  0  0  0  0  0  0  0  0
   20.9932  -21.2811  -12.2150 C   0  0  0  0  0  0  0  0  0  0  0  0
   19.6162  -21.1136  -12.2152 O   0  0  0  0  0  0  0  0  0  0  0  0
   21.6208  -20.9596  -11.1742 O   0  0  0  0  0  0  0  0  0  0  0  0
  2  1  1  6
  2  3  1  0
  4  6  1  0
  4  2  1  0
  4  5  1  6
  6  7  2  0
  8  6  1  0
  8  9  1  0
  9 17  1  0
 10 11  1  0
  9 10  1  1
 11 16  2  0
 11 12  1  0
 12 13  2  0
 13 14  1  0
 15 14  2  0
 16 15  1  0
 17 18  2  0
 17 19  1  0
 19 20  1  0
 20 21  1  0
 21 22  1  0
 23 21  2  0
M  END
$$$$
