VFG.pdb
     RDKit          3D

 23 23  0  0  1  0  0  0  0  0999 V2000
   28.1839  -19.5836  -15.0352 C   0  0  0  0  0  0  0  0  0  0  0  0
   28.4582  -19.9574  -13.5765 C   0  0  2  0  0  0  0  0  0  0  0  0
   29.1882  -21.2748  -13.5744 C   0  0  0  0  0  0  0  0  0  0  0  0
   27.1051  -20.0550  -12.9061 C   0  0  2  0  0  0  0  0  0  0  0  0
   26.5298  -18.7186  -12.9065 N   0  0  0  0  0  0  0  0  0  0  0  0
   27.1956  -20.5910  -11.5300 C   0  0  0  0  0  0  0  0  0  0  0  0
   27.5267  -21.7757  -11.3491 O   0  0  0  0  0  0  0  0  0  0  0  0
   26.9100  -19.7674  -10.4476 N   0  0  0  0  0  0  0  0  0  0  0  0
   26.9289  -20.1855   -9.0544 C   0  0  1  0  0  0  0  0  0  0  0  0
   27.7782  -19.2111   -8.3192 C   0  0  0  0  0  0  0  0  0  0  0  0
   27.8878  -19.5192   -6.8691 C   0  0  0  0  0  0  0  0  0  0  0  0
   27.0146  -19.0603   -5.9161 C   0  0  0  0  0  0  0  0  0  0  0  0
   27.1618  -19.3766   -4.5815 C   0  0  0  0  0  0  0  0  0  0  0  0
   28.2026  -20.1733   -4.1541 C   0  0  0  0  0  0  0  0  0  0  0  0
   29.0917  -20.6470   -5.0835 C   0  0  0  0  0  0  0  0  0  0  0  0
   28.9318  -20.3249   -6.3994 C   0  0  0  0  0  0  0  0  0  0  0  0
   25.6076  -20.4420   -8.5108 C   0  0  0  0  0  0  0  0  0  0  0  0
   25.4880  -21.2037   -7.5142 O   0  0  0  0  0  0  0  0  0  0  0  0
   24.3992  -19.8898   -9.0231 N   0  0  0  0  0  0  0  0  0  0  0  0
   23.1036  -20.3271   -8.5828 C   0  0  0  0  0  0  0  0  0  0  0  0
   22.3091  -20.8365   -9.7222 C   0  0  0  0  0  0  0  0  0  0  0  0
   20.9591  -21.1165   -9.5702 O   0  0  0  0  0  0  0  0  0  0  0  0
   22.8226  -21.0310  -10.8530 O   0  0  0  0  0  0  0  0  0  0  0  0
  2  1  1  6
  2  3  1  0
  4  6  1  0
  4  2  1  0
  4  5  1  1
  6  7  2  0
  8  6  1  0
  8  9  1  0
  9 17  1  0
 10 11  1  0
  9 10  1  1
 11 16  2  0
 11 12  1  0
 12 13  2  0
 13 14  1  0
 15 14  2  0
 16 15  1  0
 17 18  2  0
 17 19  1  0
 19 20  1  0
 20 21  1  0
 21 22  1  0
 23 21  2  0
M  END
$$$$
