VFG.pdb
     RDKit          3D

 23 23  0  0  1  0  0  0  0  0999 V2000
   18.0235  -13.8231  -16.6357 C   0  0  0  0  0  0  0  0  0  0  0  0
   18.6918  -12.5784  -17.2245 C   0  0  2  0  0  0  0  0  0  0  0  0
   19.7468  -13.0441  -18.1934 C   0  0  0  0  0  0  0  0  0  0  0  0
   19.2862  -11.8267  -16.0534 C   0  0  2  0  0  0  0  0  0  0  0  0
   18.2207  -11.6383  -15.0806 N   0  0  0  0  0  0  0  0  0  0  0  0
   19.8704  -10.5282  -16.4554 C   0  0  0  0  0  0  0  0  0  0  0  0
   20.8197  -10.4999  -17.2578 O   0  0  0  0  0  0  0  0  0  0  0  0
   19.3548   -9.3476  -15.9341 N   0  0  0  0  0  0  0  0  0  0  0  0
   19.8595   -8.0157  -16.2294 C   0  0  1  0  0  0  0  0  0  0  0  0
   18.7453   -7.2577  -16.8582 C   0  0  0  0  0  0  0  0  0  0  0  0
   18.4106   -7.7473  -18.2213 C   0  0  0  0  0  0  0  0  0  0  0  0
   19.1548   -7.4764  -19.3412 C   0  0  0  0  0  0  0  0  0  0  0  0
   18.7994   -7.9563  -20.5847 C   0  0  0  0  0  0  0  0  0  0  0  0
   17.6721   -8.7330  -20.7474 C   0  0  0  0  0  0  0  0  0  0  0  0
   16.9081   -9.0207  -19.6464 C   0  0  0  0  0  0  0  0  0  0  0  0
   17.2735   -8.5383  -18.4237 C   0  0  0  0  0  0  0  0  0  0  0  0
   20.5238   -7.3870  -15.1022 C   0  0  0  0  0  0  0  0  0  0  0  0
   19.9373   -7.3411  -13.9879 O   0  0  0  0  0  0  0  0  0  0  0  0
   21.8205   -6.8003  -15.1498 N   0  0  0  0  0  0  0  0  0  0  0  0
   22.4600   -6.2469  -13.9887 C   0  0  0  0  0  0  0  0  0  0  0  0
   22.0422   -4.8429  -13.7814 C   0  0  0  0  0  0  0  0  0  0  0  0
   22.5895   -4.0895  -12.7533 O   0  0  0  0  0  0  0  0  0  0  0  0
   21.1879   -4.2904  -14.5198 O   0  0  0  0  0  0  0  0  0  0  0  0
  2  1  1  1
  2  3  1  0
  4  6  1  0
  4  2  1  0
  4  5  1  1
  6  7  2  0
  8  6  1  0
  8  9  1  0
  9 17  1  0
 10 11  1  0
  9 10  1  1
 11 16  2  0
 11 12  1  0
 12 13  2  0
 13 14  1  0
 15 14  2  0
 16 15  1  0
 17 18  2  0
 17 19  1  0
 19 20  1  0
 20 21  1  0
 21 22  1  0
 23 21  2  0
M  END
$$$$
