VFG.pdb
     RDKit          3D

 23 23  0  0  1  0  0  0  0  0999 V2000
   22.0385  -19.3394  -10.9884 C   0  0  0  0  0  0  0  0  0  0  0  0
   22.3372  -20.8349  -11.1185 C   0  0  2  0  0  0  0  0  0  0  0  0
   21.2158  -21.5827  -10.4463 C   0  0  0  0  0  0  0  0  0  0  0  0
   23.6653  -21.0597  -10.4292 C   0  0  2  0  0  0  0  0  0  0  0  0
   23.5015  -20.6536   -9.0416 N   0  0  0  0  0  0  0  0  0  0  0  0
   24.7676  -20.3111  -11.0723 C   0  0  0  0  0  0  0  0  0  0  0  0
   25.1580  -19.2396  -10.5769 O   0  0  0  0  0  0  0  0  0  0  0  0
   25.3604  -20.8097  -12.2261 N   0  0  0  0  0  0  0  0  0  0  0  0
   26.4114  -20.1423  -12.9784 C   0  0  1  0  0  0  0  0  0  0  0  0
   27.4858  -21.1444  -13.2078 C   0  0  0  0  0  0  0  0  0  0  0  0
   28.4927  -21.1723  -12.1145 C   0  0  0  0  0  0  0  0  0  0  0  0
   29.7783  -20.7109  -12.2396 C   0  0  0  0  0  0  0  0  0  0  0  0
   30.6742  -20.7600  -11.1919 C   0  0  0  0  0  0  0  0  0  0  0  0
   30.3053  -21.2800   -9.9696 C   0  0  0  0  0  0  0  0  0  0  0  0
   29.0268  -21.7491   -9.8141 C   0  0  0  0  0  0  0  0  0  0  0  0
   28.1531  -21.6931  -10.8603 C   0  0  0  0  0  0  0  0  0  0  0  0
   25.9227  -19.4289  -14.1444 C   0  0  0  0  0  0  0  0  0  0  0  0
   24.9588  -19.9065  -14.8004 O   0  0  0  0  0  0  0  0  0  0  0  0
   26.4558  -18.1987  -14.6242 N   0  0  0  0  0  0  0  0  0  0  0  0
   25.8339  -17.4475  -15.6789 C   0  0  0  0  0  0  0  0  0  0  0  0
   26.3202  -17.9014  -17.0004 C   0  0  0  0  0  0  0  0  0  0  0  0
   26.6776  -16.9802  -17.9739 O   0  0  0  0  0  0  0  0  0  0  0  0
   26.4253  -19.1216  -17.2840 O   0  0  0  0  0  0  0  0  0  0  0  0
  2  1  1  1
  2  3  1  0
  4  6  1  0
  4  2  1  0
  4  5  1  1
  6  7  2  0
  8  6  1  0
  8  9  1  0
  9 17  1  0
 10 11  1  0
  9 10  1  6
 11 16  2  0
 11 12  1  0
 12 13  2  0
 13 14  1  0
 15 14  2  0
 16 15  1  0
 17 18  2  0
 17 19  1  0
 19 20  1  0
 20 21  1  0
 21 22  1  0
 23 21  2  0
M  END
$$$$
