VFG.pdb
     RDKit          3D

 23 23  0  0  1  0  0  0  0  0999 V2000
   28.4730  -18.5263  -16.2454 C   0  0  0  0  0  0  0  0  0  0  0  0
   29.1228  -19.7013  -16.9802 C   0  0  2  0  0  0  0  0  0  0  0  0
   29.5584  -19.2059  -18.3342 C   0  0  0  0  0  0  0  0  0  0  0  0
   28.0598  -20.7735  -17.0809 C   0  0  2  0  0  0  0  0  0  0  0  0
   26.9830  -20.2334  -17.8969 N   0  0  0  0  0  0  0  0  0  0  0  0
   27.5573  -21.1950  -15.7546 C   0  0  0  0  0  0  0  0  0  0  0  0
   28.3003  -21.8298  -14.9859 O   0  0  0  0  0  0  0  0  0  0  0  0
   26.2582  -20.8791  -15.3757 N   0  0  0  0  0  0  0  0  0  0  0  0
   25.6609  -21.2097  -14.0911 C   0  0  1  0  0  0  0  0  0  0  0  0
   26.2078  -20.2487  -13.0968 C   0  0  0  0  0  0  0  0  0  0  0  0
   25.6838  -20.4765  -11.7245 C   0  0  0  0  0  0  0  0  0  0  0  0
   26.3697  -21.1387  -10.7383 C   0  0  0  0  0  0  0  0  0  0  0  0
   25.8369  -21.3231   -9.4793 C   0  0  0  0  0  0  0  0  0  0  0  0
   24.5834  -20.8433   -9.1647 C   0  0  0  0  0  0  0  0  0  0  0  0
   23.8736  -20.1772  -10.1297 C   0  0  0  0  0  0  0  0  0  0  0  0
   24.4150  -20.0034  -11.3698 C   0  0  0  0  0  0  0  0  0  0  0  0
   24.2166  -21.3451  -14.1438 C   0  0  0  0  0  0  0  0  0  0  0  0
   23.5373  -20.4747  -14.7510 O   0  0  0  0  0  0  0  0  0  0  0  0
   23.4801  -22.4095  -13.5500 N   0  0  0  0  0  0  0  0  0  0  0  0
   22.0581  -22.5432  -13.7033 C   0  0  0  0  0  0  0  0  0  0  0  0
   21.3458  -21.6022  -12.8111 C   0  0  0  0  0  0  0  0  0  0  0  0
   21.4934  -20.2321  -12.9702 O   0  0  0  0  0  0  0  0  0  0  0  0
   20.5916  -22.0055  -11.8897 O   0  0  0  0  0  0  0  0  0  0  0  0
  2  1  1  1
  2  3  1  0
  4  6  1  0
  4  2  1  0
  4  5  1  6
  6  7  2  0
  8  6  1  0
  8  9  1  0
  9 17  1  0
 10 11  1  0
  9 10  1  1
 11 16  2  0
 11 12  1  0
 12 13  2  0
 13 14  1  0
 15 14  2  0
 16 15  1  0
 17 18  2  0
 17 19  1  0
 19 20  1  0
 20 21  1  0
 21 22  1  0
 23 21  2  0
M  END
$$$$
