VFG.pdb
     RDKit          3D

 23 23  0  0  1  0  0  0  0  0999 V2000
   24.7121  -21.6964  -17.4513 C   0  0  0  0  0  0  0  0  0  0  0  0
   26.0757  -21.0014  -17.4446 C   0  0  2  0  0  0  0  0  0  0  0  0
   26.5478  -20.9125  -18.8721 C   0  0  0  0  0  0  0  0  0  0  0  0
   26.9838  -21.8657  -16.5972 C   0  0  2  0  0  0  0  0  0  0  0  0
   27.1232  -23.1412  -17.2833 N   0  0  0  0  0  0  0  0  0  0  0  0
   26.4608  -22.0575  -15.2264 C   0  0  0  0  0  0  0  0  0  0  0  0
   25.8399  -23.0964  -14.9419 O   0  0  0  0  0  0  0  0  0  0  0  0
   26.6665  -21.0755  -14.2648 N   0  0  0  0  0  0  0  0  0  0  0  0
   26.1250  -21.1043  -12.9150 C   0  0  1  0  0  0  0  0  0  0  0  0
   27.1651  -20.5363  -12.0167 C   0  0  0  0  0  0  0  0  0  0  0  0
   26.7217  -20.4521  -10.6003 C   0  0  0  0  0  0  0  0  0  0  0  0
   25.7726  -19.5746  -10.1414 C   0  0  0  0  0  0  0  0  0  0  0  0
   25.3966  -19.5376   -8.8147 C   0  0  0  0  0  0  0  0  0  0  0  0
   25.9675  -20.3900   -7.8938 C   0  0  0  0  0  0  0  0  0  0  0  0
   26.9192  -21.2783   -8.3226 C   0  0  0  0  0  0  0  0  0  0  0  0
   27.2796  -21.3020   -9.6381 C   0  0  0  0  0  0  0  0  0  0  0  0
   24.7932  -20.5357  -12.8150 C   0  0  0  0  0  0  0  0  0  0  0  0
   24.5630  -19.4096  -13.3313 O   0  0  0  0  0  0  0  0  0  0  0  0
   23.6918  -21.1608  -12.1638 N   0  0  0  0  0  0  0  0  0  0  0  0
   22.4102  -20.5251  -12.0341 C   0  0  0  0  0  0  0  0  0  0  0  0
   21.5126  -20.9287  -13.1388 C   0  0  0  0  0  0  0  0  0  0  0  0
   20.1961  -20.4931  -13.1716 O   0  0  0  0  0  0  0  0  0  0  0  0
   21.9061  -21.6707  -14.0742 O   0  0  0  0  0  0  0  0  0  0  0  0
  2  1  1  6
  2  3  1  0
  4  6  1  0
  4  2  1  0
  4  5  1  6
  6  7  2  0
  8  6  1  0
  8  9  1  0
  9 17  1  0
 10 11  1  0
  9 10  1  1
 11 16  2  0
 11 12  1  0
 12 13  2  0
 13 14  1  0
 15 14  2  0
 16 15  1  0
 17 18  2  0
 17 19  1  0
 19 20  1  0
 20 21  1  0
 21 22  1  0
 23 21  2  0
M  END
$$$$
