VFG.pdb
     RDKit          3D

 23 23  0  0  1  0  0  0  0  0999 V2000
   33.1473  -39.1632   -8.3265 C   0  0  0  0  0  0  0  0  0  0  0  0
   33.6017  -37.7803   -8.7996 C   0  0  2  0  0  0  0  0  0  0  0  0
   33.2353  -37.6547  -10.2552 C   0  0  0  0  0  0  0  0  0  0  0  0
   35.0985  -37.7329   -8.5829 C   0  0  2  0  0  0  0  0  0  0  0  0
   35.6741  -38.8431   -9.3267 N   0  0  0  0  0  0  0  0  0  0  0  0
   35.4631  -37.8106   -7.1510 C   0  0  0  0  0  0  0  0  0  0  0  0
   35.9104  -38.8727   -6.6844 O   0  0  0  0  0  0  0  0  0  0  0  0
   35.3037  -36.6964   -6.3361 N   0  0  0  0  0  0  0  0  0  0  0  0
   35.6026  -36.6549   -4.9130 C   0  0  1  0  0  0  0  0  0  0  0  0
   36.6181  -35.5874   -4.7126 C   0  0  0  0  0  0  0  0  0  0  0  0
   37.9906  -36.0179   -5.0879 C   0  0  0  0  0  0  0  0  0  0  0  0
   38.5658  -35.7781   -6.3098 C   0  0  0  0  0  0  0  0  0  0  0  0
   39.8451  -36.1998   -6.6073 C   0  0  0  0  0  0  0  0  0  0  0  0
   40.5983  -36.8842   -5.6773 C   0  0  0  0  0  0  0  0  0  0  0  0
   40.0504  -37.1388   -4.4470 C   0  0  0  0  0  0  0  0  0  0  0  0
   38.7839  -36.7148   -4.1689 C   0  0  0  0  0  0  0  0  0  0  0  0
   34.4182  -36.5963   -4.0758 C   0  0  0  0  0  0  0  0  0  0  0  0
   33.5217  -35.7493   -4.3341 O   0  0  0  0  0  0  0  0  0  0  0  0
   34.1759  -37.4395   -2.9542 N   0  0  0  0  0  0  0  0  0  0  0  0
   32.9727  -37.3583   -2.1737 C   0  0  0  0  0  0  0  0  0  0  0  0
   32.9414  -36.1032   -1.3910 C   0  0  0  0  0  0  0  0  0  0  0  0
   33.9634  -35.1730   -1.5105 O   0  0  0  0  0  0  0  0  0  0  0  0
   32.0002  -35.8390   -0.6007 O   0  0  0  0  0  0  0  0  0  0  0  0
  2  1  1  6
  2  3  1  0
  4  6  1  0
  4  2  1  0
  4  5  1  6
  6  7  2  0
  8  6  1  0
  8  9  1  0
  9 17  1  0
 10 11  1  0
  9 10  1  6
 11 16  2  0
 11 12  1  0
 12 13  2  0
 13 14  1  0
 15 14  2  0
 16 15  1  0
 17 18  2  0
 17 19  1  0
 19 20  1  0
 20 21  1  0
 21 22  1  0
 23 21  2  0
M  END
$$$$
