VFG.pdb
     RDKit          3D

 23 23  0  0  1  0  0  0  0  0999 V2000
   17.2947   -9.7532  -18.6439 C   0  0  0  0  0  0  0  0  0  0  0  0
   18.6999   -9.6238  -19.2367 C   0  0  2  0  0  0  0  0  0  0  0  0
   18.7968  -10.5865  -20.3910 C   0  0  0  0  0  0  0  0  0  0  0  0
   19.6605   -9.9737  -18.1212 C   0  0  2  0  0  0  0  0  0  0  0  0
   19.4190  -11.3646  -17.7688 N   0  0  0  0  0  0  0  0  0  0  0  0
   19.4992   -9.0943  -16.9422 C   0  0  0  0  0  0  0  0  0  0  0  0
   18.8354   -9.4852  -15.9663 O   0  0  0  0  0  0  0  0  0  0  0  0
   20.0902   -7.8366  -16.9324 N   0  0  0  0  0  0  0  0  0  0  0  0
   19.9284   -6.8478  -15.8778 C   0  0  1  0  0  0  0  0  0  0  0  0
   21.2769   -6.6016  -15.3015 C   0  0  0  0  0  0  0  0  0  0  0  0
   21.8673   -7.8135  -14.6750 C   0  0  0  0  0  0  0  0  0  0  0  0
   22.7843   -8.6285  -15.2884 C   0  0  0  0  0  0  0  0  0  0  0  0
   23.3019   -9.7429  -14.6613 C   0  0  0  0  0  0  0  0  0  0  0  0
   22.9117  -10.0802  -13.3829 C   0  0  0  0  0  0  0  0  0  0  0  0
   21.9965   -9.2847  -12.7439 C   0  0  0  0  0  0  0  0  0  0  0  0
   21.4944   -8.1862  -13.3782 C   0  0  0  0  0  0  0  0  0  0  0  0
   19.1713   -5.6806  -16.2921 C   0  0  0  0  0  0  0  0  0  0  0  0
   19.5025   -5.0723  -17.3447 O   0  0  0  0  0  0  0  0  0  0  0  0
   18.0528   -5.1487  -15.5894 N   0  0  0  0  0  0  0  0  0  0  0  0
   17.2847   -4.0413  -16.0868 C   0  0  0  0  0  0  0  0  0  0  0  0
   18.0012   -2.7664  -15.8635 C   0  0  0  0  0  0  0  0  0  0  0  0
   19.2892   -2.7631  -15.3485 O   0  0  0  0  0  0  0  0  0  0  0  0
   17.4753   -1.6559  -16.1290 O   0  0  0  0  0  0  0  0  0  0  0  0
  2  1  1  1
  2  3  1  0
  4  6  1  0
  4  2  1  0
  4  5  1  1
  6  7  2  0
  8  6  1  0
  8  9  1  0
  9 17  1  0
 10 11  1  0
  9 10  1  6
 11 16  2  0
 11 12  1  0
 12 13  2  0
 13 14  1  0
 15 14  2  0
 16 15  1  0
 17 18  2  0
 17 19  1  0
 19 20  1  0
 20 21  1  0
 21 22  1  0
 23 21  2  0
M  END
$$$$
