VFG.pdb
     RDKit          3D

 23 23  0  0  1  0  0  0  0  0999 V2000
   35.1497  -31.4000  -18.9447 C   0  0  0  0  0  0  0  0  0  0  0  0
   33.9241  -32.3130  -18.8598 C   0  0  2  0  0  0  0  0  0  0  0  0
   32.8523  -31.7177  -19.7346 C   0  0  0  0  0  0  0  0  0  0  0  0
   33.5199  -32.3394  -17.4019 C   0  0  2  0  0  0  0  0  0  0  0  0
   34.5500  -33.0759  -16.6854 N   0  0  0  0  0  0  0  0  0  0  0  0
   32.1904  -32.9556  -17.1970 C   0  0  0  0  0  0  0  0  0  0  0  0
   32.0480  -34.1815  -17.3480 O   0  0  0  0  0  0  0  0  0  0  0  0
   31.1087  -32.1610  -16.8369 N   0  0  0  0  0  0  0  0  0  0  0  0
   29.7650  -32.6519  -16.5735 C   0  0  1  0  0  0  0  0  0  0  0  0
   29.3546  -32.1085  -15.2516 C   0  0  0  0  0  0  0  0  0  0  0  0
   28.0184  -32.5939  -14.8171 C   0  0  0  0  0  0  0  0  0  0  0  0
   27.7965  -33.8105  -14.2238 C   0  0  0  0  0  0  0  0  0  0  0  0
   26.5345  -34.2131  -13.8388 C   0  0  0  0  0  0  0  0  0  0  0  0
   25.4406  -33.3985  -14.0388 C   0  0  0  0  0  0  0  0  0  0  0  0
   25.6308  -32.1764  -14.6296 C   0  0  0  0  0  0  0  0  0  0  0  0
   26.8854  -31.7934  -15.0045 C   0  0  0  0  0  0  0  0  0  0  0  0
   28.8475  -32.4447  -17.6792 C   0  0  0  0  0  0  0  0  0  0  0  0
   28.4452  -31.2786  -17.9364 O   0  0  0  0  0  0  0  0  0  0  0  0
   28.3487  -33.4776  -18.5230 N   0  0  0  0  0  0  0  0  0  0  0  0
   27.0547  -34.0717  -18.3326 C   0  0  0  0  0  0  0  0  0  0  0  0
   25.9853  -33.1415  -18.7566 C   0  0  0  0  0  0  0  0  0  0  0  0
   25.9801  -31.8263  -18.3159 O   0  0  0  0  0  0  0  0  0  0  0  0
   25.0559  -33.5053  -19.5209 O   0  0  0  0  0  0  0  0  0  0  0  0
  2  1  1  1
  2  3  1  0
  4  6  1  0
  4  2  1  0
  4  5  1  1
  6  7  2  0
  8  6  1  0
  8  9  1  0
  9 17  1  0
 10 11  1  0
  9 10  1  1
 11 16  2  0
 11 12  1  0
 12 13  2  0
 13 14  1  0
 15 14  2  0
 16 15  1  0
 17 18  2  0
 17 19  1  0
 19 20  1  0
 20 21  1  0
 21 22  1  0
 23 21  2  0
M  END
$$$$
