VFG.pdb
     RDKit          3D

 23 23  0  0  1  0  0  0  0  0999 V2000
   28.8979  -19.1628  -12.9109 C   0  0  0  0  0  0  0  0  0  0  0  0
   28.5084  -19.4512  -14.3627 C   0  0  2  0  0  0  0  0  0  0  0  0
   29.1305  -18.3816  -15.2214 C   0  0  0  0  0  0  0  0  0  0  0  0
   26.9965  -19.4103  -14.4082 C   0  0  2  0  0  0  0  0  0  0  0  0
   26.5945  -18.0545  -14.0662 N   0  0  0  0  0  0  0  0  0  0  0  0
   26.3785  -20.3923  -13.4900 C   0  0  0  0  0  0  0  0  0  0  0  0
   26.5423  -21.6091  -13.6857 O   0  0  0  0  0  0  0  0  0  0  0  0
   25.6186  -19.9490  -12.4142 N   0  0  0  0  0  0  0  0  0  0  0  0
   24.7256  -20.7829  -11.6248 C   0  0  1  0  0  0  0  0  0  0  0  0
   24.9916  -20.4733  -10.1949 C   0  0  0  0  0  0  0  0  0  0  0  0
   26.4127  -20.6842   -9.8129 C   0  0  0  0  0  0  0  0  0  0  0  0
   27.2609  -21.5530  -10.4511 C   0  0  0  0  0  0  0  0  0  0  0  0
   28.5730  -21.7111  -10.0559 C   0  0  0  0  0  0  0  0  0  0  0  0
   29.0834  -20.9941   -8.9948 C   0  0  0  0  0  0  0  0  0  0  0  0
   28.2597  -20.1179   -8.3372 C   0  0  0  0  0  0  0  0  0  0  0  0
   26.9645  -19.9734   -8.7407 C   0  0  0  0  0  0  0  0  0  0  0  0
   23.3423  -20.7214  -12.0608 C   0  0  0  0  0  0  0  0  0  0  0  0
   22.6715  -19.6782  -11.8385 O   0  0  0  0  0  0  0  0  0  0  0  0
   22.6587  -21.7707  -12.7386 N   0  0  0  0  0  0  0  0  0  0  0  0
   21.2921  -21.6519  -13.1648 C   0  0  0  0  0  0  0  0  0  0  0  0
   20.8413  -22.8960  -13.8266 C   0  0  0  0  0  0  0  0  0  0  0  0
   19.5328  -23.0242  -14.2690 O   0  0  0  0  0  0  0  0  0  0  0  0
   21.6176  -23.8678  -14.0089 O   0  0  0  0  0  0  0  0  0  0  0  0
  2  1  1  1
  2  3  1  0
  4  6  1  0
  4  2  1  0
  4  5  1  1
  6  7  2  0
  8  6  1  0
  8  9  1  0
  9 17  1  0
 10 11  1  0
  9 10  1  1
 11 16  2  0
 11 12  1  0
 12 13  2  0
 13 14  1  0
 15 14  2  0
 16 15  1  0
 17 18  2  0
 17 19  1  0
 19 20  1  0
 20 21  1  0
 21 22  1  0
 23 21  2  0
M  END
$$$$
