VFG.pdb
     RDKit          3D

 23 23  0  0  1  0  0  0  0  0999 V2000
   28.6579  -20.1063  -12.6840 C   0  0  0  0  0  0  0  0  0  0  0  0
   27.5528  -20.9683  -13.2991 C   0  0  2  0  0  0  0  0  0  0  0  0
   27.2874  -20.4454  -14.6864 C   0  0  0  0  0  0  0  0  0  0  0  0
   26.3496  -20.8179  -12.3939 C   0  0  2  0  0  0  0  0  0  0  0  0
   25.9009  -19.4382  -12.5041 N   0  0  0  0  0  0  0  0  0  0  0  0
   26.6555  -21.1633  -10.9881 C   0  0  0  0  0  0  0  0  0  0  0  0
   27.0003  -22.3221  -10.6978 O   0  0  0  0  0  0  0  0  0  0  0  0
   26.5558  -20.1909  -10.0003 N   0  0  0  0  0  0  0  0  0  0  0  0
   26.6898  -20.4361   -8.5727 C   0  0  1  0  0  0  0  0  0  0  0  0
   27.6480  -19.4284   -8.0461 C   0  0  0  0  0  0  0  0  0  0  0  0
   27.9240  -19.5966   -6.5951 C   0  0  0  0  0  0  0  0  0  0  0  0
   27.2972  -18.8847   -5.6044 C   0  0  0  0  0  0  0  0  0  0  0  0
   27.5908  -19.0801   -4.2708 C   0  0  0  0  0  0  0  0  0  0  0  0
   28.5342  -20.0074   -3.8828 C   0  0  0  0  0  0  0  0  0  0  0  0
   29.1775  -20.7344   -4.8504 C   0  0  0  0  0  0  0  0  0  0  0  0
   28.8754  -20.5289   -6.1648 C   0  0  0  0  0  0  0  0  0  0  0  0
   25.4167  -20.5502   -7.8847 C   0  0  0  0  0  0  0  0  0  0  0  0
   24.5506  -19.6476   -8.0364 O   0  0  0  0  0  0  0  0  0  0  0  0
   25.0524  -21.6271   -7.0272 N   0  0  0  0  0  0  0  0  0  0  0  0
   23.8414  -21.6224   -6.2545 C   0  0  0  0  0  0  0  0  0  0  0  0
   22.6573  -21.6917   -7.1386 C   0  0  0  0  0  0  0  0  0  0  0  0
   21.3896  -21.8725   -6.6052 O   0  0  0  0  0  0  0  0  0  0  0  0
   22.7567  -21.5905   -8.3877 O   0  0  0  0  0  0  0  0  0  0  0  0
  2  1  1  1
  2  3  1  0
  4  6  1  0
  4  2  1  0
  4  5  1  1
  6  7  2  0
  8  6  1  0
  8  9  1  0
  9 17  1  0
 10 11  1  0
  9 10  1  1
 11 16  2  0
 11 12  1  0
 12 13  2  0
 13 14  1  0
 15 14  2  0
 16 15  1  0
 17 18  2  0
 17 19  1  0
 19 20  1  0
 20 21  1  0
 21 22  1  0
 23 21  2  0
M  END
$$$$
