VFG.pdb
     RDKit          3D

 23 23  0  0  1  0  0  0  0  0999 V2000
   28.4306  -18.5174  -12.9972 C   0  0  0  0  0  0  0  0  0  0  0  0
   28.3809  -19.4860  -14.1812 C   0  0  2  0  0  0  0  0  0  0  0  0
   28.6486  -18.6899  -15.4314 C   0  0  0  0  0  0  0  0  0  0  0  0
   26.9921  -20.0867  -14.1748 C   0  0  2  0  0  0  0  0  0  0  0  0
   26.0571  -19.0059  -14.4482 N   0  0  0  0  0  0  0  0  0  0  0  0
   26.6715  -20.7509  -12.8922 C   0  0  0  0  0  0  0  0  0  0  0  0
   27.2040  -21.8384  -12.6098 O   0  0  0  0  0  0  0  0  0  0  0  0
   25.7771  -20.1558  -12.0106 N   0  0  0  0  0  0  0  0  0  0  0  0
   25.2255  -20.7940  -10.8255 C   0  0  1  0  0  0  0  0  0  0  0  0
   25.3422  -19.8168   -9.7108 C   0  0  0  0  0  0  0  0  0  0  0  0
   26.5676  -20.0166   -8.8933 C   0  0  0  0  0  0  0  0  0  0  0  0
   27.4171  -21.0851   -9.0274 C   0  0  0  0  0  0  0  0  0  0  0  0
   28.5429  -21.2228   -8.2422 C   0  0  0  0  0  0  0  0  0  0  0  0
   28.8571  -20.2816   -7.2853 C   0  0  0  0  0  0  0  0  0  0  0  0
   28.0270  -19.2023   -7.1279 C   0  0  0  0  0  0  0  0  0  0  0  0
   26.9177  -19.0811   -7.9125 C   0  0  0  0  0  0  0  0  0  0  0  0
   23.9173  -21.3841  -11.0437 C   0  0  0  0  0  0  0  0  0  0  0  0
   23.1698  -21.6097  -10.0547 O   0  0  0  0  0  0  0  0  0  0  0  0
   23.3912  -21.7404  -12.3180 N   0  0  0  0  0  0  0  0  0  0  0  0
   22.2941  -21.0381  -12.9235 C   0  0  0  0  0  0  0  0  0  0  0  0
   21.0021  -21.5511  -12.4169 C   0  0  0  0  0  0  0  0  0  0  0  0
   19.9242  -21.7146  -13.2745 O   0  0  0  0  0  0  0  0  0  0  0  0
   20.8378  -21.8529  -11.2077 O   0  0  0  0  0  0  0  0  0  0  0  0
  2  1  1  1
  2  3  1  0
  4  6  1  0
  4  2  1  0
  4  5  1  1
  6  7  2  0
  8  6  1  0
  8  9  1  0
  9 17  1  0
 10 11  1  0
  9 10  1  1
 11 16  2  0
 11 12  1  0
 12 13  2  0
 13 14  1  0
 15 14  2  0
 16 15  1  0
 17 18  2  0
 17 19  1  0
 19 20  1  0
 20 21  1  0
 21 22  1  0
 23 21  2  0
M  END
$$$$
