VFG.pdb
     RDKit          3D

 23 23  0  0  1  0  0  0  0  0999 V2000
   27.8402  -16.8740  -15.6415 C   0  0  0  0  0  0  0  0  0  0  0  0
   26.8616  -17.9550  -15.1762 C   0  0  2  0  0  0  0  0  0  0  0  0
   25.7129  -17.2634  -14.4901 C   0  0  0  0  0  0  0  0  0  0  0  0
   27.6374  -18.8453  -14.2302 C   0  0  2  0  0  0  0  0  0  0  0  0
   28.7332  -19.4262  -14.9909 N   0  0  0  0  0  0  0  0  0  0  0  0
   26.7925  -19.9014  -13.6301 C   0  0  0  0  0  0  0  0  0  0  0  0
   26.5283  -20.9262  -14.2827 O   0  0  0  0  0  0  0  0  0  0  0  0
   26.2990  -19.7420  -12.3408 N   0  0  0  0  0  0  0  0  0  0  0  0
   25.5081  -20.7296  -11.6230 C   0  0  1  0  0  0  0  0  0  0  0  0
   25.8657  -20.6113  -10.1845 C   0  0  0  0  0  0  0  0  0  0  0  0
   27.2989  -20.9035   -9.9195 C   0  0  0  0  0  0  0  0  0  0  0  0
   27.9292  -20.6495   -8.7280 C   0  0  0  0  0  0  0  0  0  0  0  0
   29.2636  -20.9405   -8.5341 C   0  0  0  0  0  0  0  0  0  0  0  0
   30.0185  -21.5026   -9.5415 C   0  0  0  0  0  0  0  0  0  0  0  0
   29.4163  -21.7679  -10.7438 C   0  0  0  0  0  0  0  0  0  0  0  0
   28.0957  -21.4740  -10.9191 C   0  0  0  0  0  0  0  0  0  0  0  0
   24.0948  -20.6866  -11.9513 C   0  0  0  0  0  0  0  0  0  0  0  0
   23.4898  -19.5815  -11.9290 O   0  0  0  0  0  0  0  0  0  0  0  0
   23.3104  -21.8207  -12.3069 N   0  0  0  0  0  0  0  0  0  0  0  0
   21.8848  -21.7524  -12.4692 C   0  0  0  0  0  0  0  0  0  0  0  0
   21.5273  -21.6260  -13.8993 C   0  0  0  0  0  0  0  0  0  0  0  0
   20.2001  -21.6696  -14.3001 O   0  0  0  0  0  0  0  0  0  0  0  0
   22.4020  -21.4765  -14.7897 O   0  0  0  0  0  0  0  0  0  0  0  0
  2  1  1  1
  2  3  1  0
  4  6  1  0
  4  2  1  0
  4  5  1  6
  6  7  2  0
  8  6  1  0
  8  9  1  0
  9 17  1  0
 10 11  1  0
  9 10  1  1
 11 16  2  0
 11 12  1  0
 12 13  2  0
 13 14  1  0
 15 14  2  0
 16 15  1  0
 17 18  2  0
 17 19  1  0
 19 20  1  0
 20 21  1  0
 21 22  1  0
 23 21  2  0
M  END
$$$$
