FGY.pdb
     RDKit          3D

 28 29  0  0  1  0  0  0  0  0999 V2000
   24.6037  -21.4120  -15.5954 N   0  0  0  0  0  0  0  0  0  0  0  0
   26.0203  -21.2155  -15.6021 C   0  0  1  0  0  0  0  0  0  0  0  0
   26.4565  -19.9825  -16.3242 C   0  0  0  0  0  0  0  0  0  0  0  0
   25.9538  -20.0356  -17.7125 C   0  0  0  0  0  0  0  0  0  0  0  0
   24.9777  -19.1764  -18.1476 C   0  0  0  0  0  0  0  0  0  0  0  0
   24.4998  -19.2169  -19.4439 C   0  0  0  0  0  0  0  0  0  0  0  0
   25.0455  -20.1679  -20.3061 C   0  0  0  0  0  0  0  0  0  0  0  0
   26.0239  -21.0434  -19.9034 C   0  0  0  0  0  0  0  0  0  0  0  0
   26.4563  -20.9529  -18.6041 C   0  0  0  0  0  0  0  0  0  0  0  0
   26.5630  -21.2727  -14.2230 C   0  0  0  0  0  0  0  0  0  0  0  0
   27.7871  -21.1064  -13.9784 O   0  0  0  0  0  0  0  0  0  0  0  0
   25.6922  -21.5219  -13.1274 N   0  0  0  0  0  0  0  0  0  0  0  0
   26.0586  -21.2908  -11.7675 C   0  0  0  0  0  0  0  0  0  0  0  0
   24.9270  -21.4742  -10.8228 C   0  0  0  0  0  0  0  0  0  0  0  0
   25.1158  -21.2985   -9.5929 O   0  0  0  0  0  0  0  0  0  0  0  0
   22.1982  -18.3188  -16.4915 O   0  0  0  0  0  0  0  0  0  0  0  0
   22.2629  -18.6673  -15.1469 C   0  0  0  0  0  0  0  0  0  0  0  0
   21.1484  -19.0508  -14.4339 C   0  0  0  0  0  0  0  0  0  0  0  0
   21.1731  -19.4004  -13.1117 C   0  0  0  0  0  0  0  0  0  0  0  0
   22.3950  -19.3725  -12.4270 C   0  0  0  0  0  0  0  0  0  0  0  0
   22.4284  -19.7251  -10.9916 C   0  0  0  0  0  0  0  0  0  0  0  0
   22.4103  -21.1966  -10.7836 C   0  0  2  0  0  0  0  0  0  0  0  0
   23.6301  -21.8406  -11.2348 N   0  0  0  0  0  0  0  0  0  0  0  0
   21.2852  -21.8011  -11.5132 C   0  0  0  0  0  0  0  0  0  0  0  0
   19.9933  -21.5768  -11.0583 O   0  0  0  0  0  0  0  0  0  0  0  0
   23.5394  -18.9868  -13.1277 C   0  0  0  0  0  0  0  0  0  0  0  0
   23.4681  -18.6428  -14.4595 C   0  0  0  0  0  0  0  0  0  0  0  0
   21.3827  -22.5244  -12.5417 O   0  0  0  0  0  0  0  0  0  0  0  0
  2  1  1  1
  2 10  1  0
  2  3  1  0
  3  4  1  0
  4  5  2  0
  4  9  1  0
  5  6  1  0
  6  7  2  0
  8  7  1  0
  9  8  2  0
 10 11  2  0
 12 13  1  0
 12 10  1  0
 14 15  2  0
 14 13  1  0
 16 17  1  0
 17 27  2  0
 18 17  1  0
 18 19  2  0
 19 20  1  0
 20 26  2  0
 20 21  1  0
 22 21  1  6
 22 23  1  0
 22 24  1  0
 23 14  1  0
 24 25  1  0
 27 26  1  0
 28 24  2  0
M  END
$$$$
