FGY.pdb
     RDKit          3D

 28 29  0  0  1  0  0  0  0  0999 V2000
   22.8611   -8.8020  -19.2064 N   0  0  0  0  0  0  0  0  0  0  0  0
   21.6467   -8.8682  -18.4539 C   0  0  1  0  0  0  0  0  0  0  0  0
   21.4129  -10.1898  -17.7980 C   0  0  0  0  0  0  0  0  0  0  0  0
   22.5215  -10.4637  -16.8604 C   0  0  0  0  0  0  0  0  0  0  0  0
   22.5251   -9.9407  -15.5928 C   0  0  0  0  0  0  0  0  0  0  0  0
   23.5566  -10.1902  -14.7073 C   0  0  0  0  0  0  0  0  0  0  0  0
   24.6054  -10.9984  -15.1457 C   0  0  0  0  0  0  0  0  0  0  0  0
   24.6336  -11.5383  -16.4081 C   0  0  0  0  0  0  0  0  0  0  0  0
   23.5801  -11.2536  -17.2402 C   0  0  0  0  0  0  0  0  0  0  0  0
   21.5689   -7.7466  -17.4865 C   0  0  0  0  0  0  0  0  0  0  0  0
   22.5417   -6.9746  -17.2776 O   0  0  0  0  0  0  0  0  0  0  0  0
   20.3680   -7.5172  -16.7611 N   0  0  0  0  0  0  0  0  0  0  0  0
   20.2204   -6.4707  -15.8017 C   0  0  0  0  0  0  0  0  0  0  0  0
   18.9111   -6.5068  -15.1010 C   0  0  0  0  0  0  0  0  0  0  0  0
   18.0046   -7.2657  -15.5269 O   0  0  0  0  0  0  0  0  0  0  0  0
   21.9808   -5.5602   -8.8173 O   0  0  0  0  0  0  0  0  0  0  0  0
   20.8688   -5.8441   -9.6024 C   0  0  0  0  0  0  0  0  0  0  0  0
   20.9505   -6.6223  -10.7362 C   0  0  0  0  0  0  0  0  0  0  0  0
   19.8796   -6.9228  -11.5324 C   0  0  0  0  0  0  0  0  0  0  0  0
   18.6185   -6.4181  -11.1898 C   0  0  0  0  0  0  0  0  0  0  0  0
   17.4593   -6.7170  -12.0572 C   0  0  0  0  0  0  0  0  0  0  0  0
   17.3817   -5.7884  -13.2151 C   0  0  2  0  0  0  0  0  0  0  0  0
   18.6225   -5.7242  -13.9652 N   0  0  0  0  0  0  0  0  0  0  0  0
   17.0613   -4.4278  -12.7571 C   0  0  0  0  0  0  0  0  0  0  0  0
   15.8721   -4.2128  -12.0746 O   0  0  0  0  0  0  0  0  0  0  0  0
   18.5097   -5.6262  -10.0450 C   0  0  0  0  0  0  0  0  0  0  0  0
   19.6153   -5.3489   -9.2719 C   0  0  0  0  0  0  0  0  0  0  0  0
   17.7826   -3.4076  -12.9292 O   0  0  0  0  0  0  0  0  0  0  0  0
  2  1  1  1
  2 10  1  0
  2  3  1  0
  3  4  1  0
  4  5  2  0
  4  9  1  0
  5  6  1  0
  6  7  2  0
  8  7  1  0
  9  8  2  0
 10 11  2  0
 12 13  1  0
 12 10  1  0
 14 15  2  0
 14 13  1  0
 16 17  1  0
 17 27  2  0
 18 17  1  0
 18 19  2  0
 19 20  1  0
 20 26  2  0
 20 21  1  0
 22 21  1  1
 22 23  1  0
 22 24  1  0
 23 14  1  0
 24 25  1  0
 27 26  1  0
 28 24  2  0
M  END
$$$$
