FGY.pdb
     RDKit          3D

 28 29  0  0  1  0  0  0  0  0999 V2000
   27.6200  -19.5173  -11.5626 N   0  0  0  0  0  0  0  0  0  0  0  0
   27.4329  -20.9287  -11.4265 C   0  0  1  0  0  0  0  0  0  0  0  0
   26.7388  -21.3280  -10.1654 C   0  0  0  0  0  0  0  0  0  0  0  0
   27.4484  -20.7291   -9.0161 C   0  0  0  0  0  0  0  0  0  0  0  0
   26.9113  -19.6770   -8.3198 C   0  0  0  0  0  0  0  0  0  0  0  0
   27.5660  -19.1089   -7.2432 C   0  0  0  0  0  0  0  0  0  0  0  0
   28.8028  -19.6431   -6.8818 C   0  0  0  0  0  0  0  0  0  0  0  0
   29.3695  -20.6962   -7.5570 C   0  0  0  0  0  0  0  0  0  0  0  0
   28.6700  -21.2163   -8.6170 C   0  0  0  0  0  0  0  0  0  0  0  0
   26.7659  -21.4864  -12.6281 C   0  0  0  0  0  0  0  0  0  0  0  0
   26.4848  -22.7097  -12.7299 O   0  0  0  0  0  0  0  0  0  0  0  0
   26.4240  -20.6313  -13.7111 N   0  0  0  0  0  0  0  0  0  0  0  0
   25.8252  -21.0992  -14.9193 C   0  0  0  0  0  0  0  0  0  0  0  0
   24.3486  -21.2293  -14.8223 C   0  0  0  0  0  0  0  0  0  0  0  0
   23.8496  -22.3146  -14.4322 O   0  0  0  0  0  0  0  0  0  0  0  0
   21.9540  -22.0088   -8.9132 O   0  0  0  0  0  0  0  0  0  0  0  0
   21.8235  -21.3945  -10.1538 C   0  0  0  0  0  0  0  0  0  0  0  0
   22.8473  -20.6719  -10.7261 C   0  0  0  0  0  0  0  0  0  0  0  0
   22.7560  -20.0545  -11.9433 C   0  0  0  0  0  0  0  0  0  0  0  0
   21.5586  -20.1524  -12.6638 C   0  0  0  0  0  0  0  0  0  0  0  0
   21.4414  -19.4683  -13.9692 C   0  0  0  0  0  0  0  0  0  0  0  0
   22.0134  -20.2828  -15.0730 C   0  0  2  0  0  0  0  0  0  0  0  0
   23.4595  -20.1859  -15.1488 N   0  0  0  0  0  0  0  0  0  0  0  0
   21.4642  -19.8470  -16.3660 C   0  0  0  0  0  0  0  0  0  0  0  0
   20.1190  -20.0635  -16.6303 O   0  0  0  0  0  0  0  0  0  0  0  0
   20.5056  -20.8792  -12.1048 C   0  0  0  0  0  0  0  0  0  0  0  0
   20.6417  -21.4852  -10.8755 C   0  0  0  0  0  0  0  0  0  0  0  0
   22.1153  -19.2792  -17.2849 O   0  0  0  0  0  0  0  0  0  0  0  0
  2  1  1  6
  2 10  1  0
  2  3  1  0
  3  4  1  0
  4  5  2  0
  4  9  1  0
  5  6  1  0
  6  7  2  0
  8  7  1  0
  9  8  2  0
 10 11  2  0
 12 13  1  0
 12 10  1  0
 14 15  2  0
 14 13  1  0
 16 17  1  0
 17 27  2  0
 18 17  1  0
 18 19  2  0
 19 20  1  0
 20 26  2  0
 20 21  1  0
 22 21  1  1
 22 23  1  0
 22 24  1  0
 23 14  1  0
 24 25  1  0
 27 26  1  0
 28 24  2  0
M  END
$$$$
