FGY.pdb
     RDKit          3D

 28 29  0  0  1  0  0  0  0  0999 V2000
   15.4512  -20.1127    2.4513 N   0  0  0  0  0  0  0  0  0  0  0  0
   16.2866  -18.9781    2.6970 C   0  0  1  0  0  0  0  0  0  0  0  0
   16.0102  -17.8175    1.7980 C   0  0  0  0  0  0  0  0  0  0  0  0
   17.0093  -16.7603    2.0574 C   0  0  0  0  0  0  0  0  0  0  0  0
   16.6856  -15.6384    2.7762 C   0  0  0  0  0  0  0  0  0  0  0  0
   17.6119  -14.6431    3.0250 C   0  0  0  0  0  0  0  0  0  0  0  0
   18.8998  -14.8153    2.5179 C   0  0  0  0  0  0  0  0  0  0  0  0
   19.2578  -15.9262    1.7942 C   0  0  0  0  0  0  0  0  0  0  0  0
   18.2931  -16.8788    1.5811 C   0  0  0  0  0  0  0  0  0  0  0  0
   16.2404  -18.5947    4.1290 C   0  0  0  0  0  0  0  0  0  0  0  0
   15.1531  -18.4252    4.7414 O   0  0  0  0  0  0  0  0  0  0  0  0
   17.4494  -18.4072    4.8528 N   0  0  0  0  0  0  0  0  0  0  0  0
   17.4879  -18.0744    6.2403 C   0  0  0  0  0  0  0  0  0  0  0  0
   18.8690  -17.8818    6.7523 C   0  0  0  0  0  0  0  0  0  0  0  0
   19.8454  -18.1351    6.0029 O   0  0  0  0  0  0  0  0  0  0  0  0
   25.8160  -15.4604   11.6458 O   0  0  0  0  0  0  0  0  0  0  0  0
   24.5308  -15.6358   11.1449 C   0  0  0  0  0  0  0  0  0  0  0  0
   24.1603  -15.1796    9.8990 C   0  0  0  0  0  0  0  0  0  0  0  0
   22.9070  -15.3337    9.3731 C   0  0  0  0  0  0  0  0  0  0  0  0
   21.9306  -15.9916   10.1323 C   0  0  0  0  0  0  0  0  0  0  0  0
   20.5662  -16.1417    9.5830 C   0  0  0  0  0  0  0  0  0  0  0  0
   20.4878  -17.2479    8.5934 C   0  0  2  0  0  0  0  0  0  0  0  0
   19.1517  -17.4230    8.0544 N   0  0  0  0  0  0  0  0  0  0  0  0
   20.8929  -18.5180    9.2150 C   0  0  0  0  0  0  0  0  0  0  0  0
   19.9664  -19.2178    9.9753 O   0  0  0  0  0  0  0  0  0  0  0  0
   22.2814  -16.4631   11.3988 C   0  0  0  0  0  0  0  0  0  0  0  0
   23.5563  -16.2859   11.8889 C   0  0  0  0  0  0  0  0  0  0  0  0
   22.0332  -19.0486    9.1218 O   0  0  0  0  0  0  0  0  0  0  0  0
  2  1  1  1
  2 10  1  0
  2  3  1  0
  3  4  1  0
  4  5  2  0
  4  9  1  0
  5  6  1  0
  6  7  2  0
  8  7  1  0
  9  8  2  0
 10 11  2  0
 12 13  1  0
 12 10  1  0
 14 15  2  0
 14 13  1  0
 16 17  1  0
 17 27  2  0
 18 17  1  0
 18 19  2  0
 19 20  1  0
 20 26  2  0
 20 21  1  0
 22 21  1  1
 22 23  1  0
 22 24  1  0
 23 14  1  0
 24 25  1  0
 27 26  1  0
 28 24  2  0
M  END
$$$$
