FGY.pdb
     RDKit          3D

 28 29  0  0  1  0  0  0  0  0999 V2000
   27.9878  -21.8447   -9.4376 N   0  0  0  0  0  0  0  0  0  0  0  0
   27.6850  -20.4847   -9.7601 C   0  0  1  0  0  0  0  0  0  0  0  0
   28.4480  -19.4870   -8.9514 C   0  0  0  0  0  0  0  0  0  0  0  0
   28.2013  -19.7417   -7.5170 C   0  0  0  0  0  0  0  0  0  0  0  0
   29.2392  -19.9169   -6.6382 C   0  0  0  0  0  0  0  0  0  0  0  0
   29.0205  -20.1557   -5.2945 C   0  0  0  0  0  0  0  0  0  0  0  0
   27.6984  -20.2140   -4.8537 C   0  0  0  0  0  0  0  0  0  0  0  0
   26.6356  -20.0432   -5.7065 C   0  0  0  0  0  0  0  0  0  0  0  0
   26.9183  -19.8092   -7.0288 C   0  0  0  0  0  0  0  0  0  0  0  0
   27.8313  -20.2473  -11.2168 C   0  0  0  0  0  0  0  0  0  0  0  0
   27.4260  -19.1892  -11.7662 O   0  0  0  0  0  0  0  0  0  0  0  0
   28.4455  -21.2318  -12.0381 N   0  0  0  0  0  0  0  0  0  0  0  0
   28.6663  -21.0575  -13.4374 C   0  0  0  0  0  0  0  0  0  0  0  0
   27.5712  -21.6161  -14.2713 C   0  0  0  0  0  0  0  0  0  0  0  0
   27.7957  -22.6213  -14.9911 O   0  0  0  0  0  0  0  0  0  0  0  0
   22.3000  -20.6861   -9.0372 O   0  0  0  0  0  0  0  0  0  0  0  0
   22.8962  -21.2107  -10.1786 C   0  0  0  0  0  0  0  0  0  0  0  0
   22.1643  -21.5734  -11.2879 C   0  0  0  0  0  0  0  0  0  0  0  0
   22.7151  -22.0920  -12.4276 C   0  0  0  0  0  0  0  0  0  0  0  0
   24.1031  -22.2716  -12.4875 C   0  0  0  0  0  0  0  0  0  0  0  0
   24.7056  -22.8541  -13.7054 C   0  0  0  0  0  0  0  0  0  0  0  0
   25.0813  -21.8070  -14.6909 C   0  0  2  0  0  0  0  0  0  0  0  0
   26.2712  -21.0729  -14.3015 N   0  0  0  0  0  0  0  0  0  0  0  0
   23.9858  -20.8382  -14.8485 C   0  0  0  0  0  0  0  0  0  0  0  0
   22.8044  -21.2537  -15.4469 O   0  0  0  0  0  0  0  0  0  0  0  0
   24.8671  -21.9119  -11.3755 C   0  0  0  0  0  0  0  0  0  0  0  0
   24.2701  -21.3928  -10.2481 C   0  0  0  0  0  0  0  0  0  0  0  0
   24.0160  -19.6317  -14.4824 O   0  0  0  0  0  0  0  0  0  0  0  0
  2  1  1  6
  2 10  1  0
  2  3  1  0
  3  4  1  0
  4  5  2  0
  4  9  1  0
  5  6  1  0
  6  7  2  0
  8  7  1  0
  9  8  2  0
 10 11  2  0
 12 13  1  0
 12 10  1  0
 14 15  2  0
 14 13  1  0
 16 17  1  0
 17 27  2  0
 18 17  1  0
 18 19  2  0
 19 20  1  0
 20 26  2  0
 20 21  1  0
 22 21  1  1
 22 23  1  0
 22 24  1  0
 23 14  1  0
 24 25  1  0
 27 26  1  0
 28 24  2  0
M  END
$$$$
