FGY.pdb
     RDKit          3D

 28 29  0  0  1  0  0  0  0  0999 V2000
   12.2911   -6.0153   -8.8783 N   0  0  0  0  0  0  0  0  0  0  0  0
   13.6657   -6.2512   -8.5617 C   0  0  1  0  0  0  0  0  0  0  0  0
   13.8737   -7.2826   -7.5012 C   0  0  0  0  0  0  0  0  0  0  0  0
   13.0718   -6.9199   -6.3144 C   0  0  0  0  0  0  0  0  0  0  0  0
   11.8998   -7.5696   -6.0238 C   0  0  0  0  0  0  0  0  0  0  0  0
   11.1415   -7.2389   -4.9165 C   0  0  0  0  0  0  0  0  0  0  0  0
   11.6086   -6.2136   -4.0943 C   0  0  0  0  0  0  0  0  0  0  0  0
   12.7778   -5.5423   -4.3558 C   0  0  0  0  0  0  0  0  0  0  0  0
   13.4854   -5.9173   -5.4703 C   0  0  0  0  0  0  0  0  0  0  0  0
   14.4411   -6.5528   -9.7895 C   0  0  0  0  0  0  0  0  0  0  0  0
   13.9064   -7.0599  -10.8107 O   0  0  0  0  0  0  0  0  0  0  0  0
   15.8332   -6.2688   -9.8373 N   0  0  0  0  0  0  0  0  0  0  0  0
   16.6215   -6.4121  -11.0185 C   0  0  0  0  0  0  0  0  0  0  0  0
   18.0326   -5.9882  -10.8290 C   0  0  0  0  0  0  0  0  0  0  0  0
   18.3849   -5.4918   -9.7296 O   0  0  0  0  0  0  0  0  0  0  0  0
   20.6359  -10.2709  -16.1776 O   0  0  0  0  0  0  0  0  0  0  0  0
   20.7940   -9.4500  -15.0664 C   0  0  0  0  0  0  0  0  0  0  0  0
   21.6186   -8.3465  -15.0807 C   0  0  0  0  0  0  0  0  0  0  0  0
   21.7990   -7.5166  -14.0085 C   0  0  0  0  0  0  0  0  0  0  0  0
   21.1129   -7.7898  -12.8181 C   0  0  0  0  0  0  0  0  0  0  0  0
   21.3198   -6.9130  -11.6459 C   0  0  0  0  0  0  0  0  0  0  0  0
   20.4090   -5.7386  -11.6668 C   0  0  2  0  0  0  0  0  0  0  0  0
   19.0164   -6.1132  -11.8301 N   0  0  0  0  0  0  0  0  0  0  0  0
   20.7655   -4.8364  -12.7725 C   0  0  0  0  0  0  0  0  0  0  0  0
   19.8437   -4.6238  -13.7880 O   0  0  0  0  0  0  0  0  0  0  0  0
   20.2712   -8.9031  -12.7782 C   0  0  0  0  0  0  0  0  0  0  0  0
   20.1192   -9.7119  -13.8825 C   0  0  0  0  0  0  0  0  0  0  0  0
   21.8589   -4.2191  -12.8913 O   0  0  0  0  0  0  0  0  0  0  0  0
  2  1  1  6
  2 10  1  0
  2  3  1  0
  3  4  1  0
  4  5  2  0
  4  9  1  0
  5  6  1  0
  6  7  2  0
  8  7  1  0
  9  8  2  0
 10 11  2  0
 12 13  1  0
 12 10  1  0
 14 15  2  0
 14 13  1  0
 16 17  1  0
 17 27  2  0
 18 17  1  0
 18 19  2  0
 19 20  1  0
 20 26  2  0
 20 21  1  0
 22 21  1  6
 22 23  1  0
 22 24  1  0
 23 14  1  0
 24 25  1  0
 27 26  1  0
 28 24  2  0
M  END
$$$$
