FGY.pdb
     RDKit          3D

 28 29  0  0  1  0  0  0  0  0999 V2000
   22.7948  -22.6447  -17.4814 N   0  0  0  0  0  0  0  0  0  0  0  0
   22.5854  -21.4234  -16.7674 C   0  0  1  0  0  0  0  0  0  0  0  0
   21.4734  -21.4878  -15.7718 C   0  0  0  0  0  0  0  0  0  0  0  0
   20.2047  -21.7439  -16.4845 C   0  0  0  0  0  0  0  0  0  0  0  0
   19.5462  -20.7391  -17.1454 C   0  0  0  0  0  0  0  0  0  0  0  0
   18.3589  -20.9671  -17.8154 C   0  0  0  0  0  0  0  0  0  0  0  0
   17.8446  -22.2635  -17.7993 C   0  0  0  0  0  0  0  0  0  0  0  0
   18.4780  -23.2930  -17.1474 C   0  0  0  0  0  0  0  0  0  0  0  0
   19.6532  -23.0027  -16.5008 C   0  0  0  0  0  0  0  0  0  0  0  0
   23.8514  -20.9510  -16.1561 C   0  0  0  0  0  0  0  0  0  0  0  0
   23.9263  -19.8602  -15.5311 O   0  0  0  0  0  0  0  0  0  0  0  0
   25.0300  -21.7381  -16.2668 N   0  0  0  0  0  0  0  0  0  0  0  0
   26.2977  -21.3261  -15.7565 C   0  0  0  0  0  0  0  0  0  0  0  0
   26.4747  -21.6452  -14.3166 C   0  0  0  0  0  0  0  0  0  0  0  0
   26.8436  -22.7988  -13.9815 O   0  0  0  0  0  0  0  0  0  0  0  0
   28.0022  -20.7618   -5.6889 O   0  0  0  0  0  0  0  0  0  0  0  0
   27.8362  -20.5352   -7.0508 C   0  0  0  0  0  0  0  0  0  0  0  0
   26.7440  -19.8640   -7.5551 C   0  0  0  0  0  0  0  0  0  0  0  0
   26.5469  -19.6224   -8.8870 C   0  0  0  0  0  0  0  0  0  0  0  0
   27.5017  -20.0769   -9.8059 C   0  0  0  0  0  0  0  0  0  0  0  0
   27.2858  -19.8421  -11.2496 C   0  0  0  0  0  0  0  0  0  0  0  0
   26.5249  -20.9513  -11.8819 C   0  0  2  0  0  0  0  0  0  0  0  0
   26.2483  -20.7110  -13.2861 N   0  0  0  0  0  0  0  0  0  0  0  0
   25.2381  -21.1432  -11.1956 C   0  0  0  0  0  0  0  0  0  0  0  0
   25.1638  -22.0570  -10.1537 O   0  0  0  0  0  0  0  0  0  0  0  0
   28.6178  -20.7603   -9.3195 C   0  0  0  0  0  0  0  0  0  0  0  0
   28.7759  -20.9813   -7.9693 C   0  0  0  0  0  0  0  0  0  0  0  0
   24.1644  -20.5410  -11.4697 O   0  0  0  0  0  0  0  0  0  0  0  0
  2  1  1  1
  2 10  1  0
  2  3  1  0
  3  4  1  0
  4  5  2  0
  4  9  1  0
  5  6  1  0
  6  7  2  0
  8  7  1  0
  9  8  2  0
 10 11  2  0
 12 13  1  0
 12 10  1  0
 14 15  2  0
 14 13  1  0
 16 17  1  0
 17 27  2  0
 18 17  1  0
 18 19  2  0
 19 20  1  0
 20 26  2  0
 20 21  1  0
 22 21  1  1
 22 23  1  0
 22 24  1  0
 23 14  1  0
 24 25  1  0
 27 26  1  0
 28 24  2  0
M  END
$$$$
