FGY.pdb
     RDKit          3D

 28 29  0  0  1  0  0  0  0  0999 V2000
   17.0429   -8.7488  -16.1842 N   0  0  0  0  0  0  0  0  0  0  0  0
   17.2913   -9.0192  -14.8020 C   0  0  1  0  0  0  0  0  0  0  0  0
   18.6297   -9.6270  -14.5356 C   0  0  0  0  0  0  0  0  0  0  0  0
   18.7721  -10.8515  -15.3501 C   0  0  0  0  0  0  0  0  0  0  0  0
   19.5399  -10.8634  -16.4861 C   0  0  0  0  0  0  0  0  0  0  0  0
   19.6803  -12.0029  -17.2558 C   0  0  0  0  0  0  0  0  0  0  0  0
   19.0106  -13.1530  -16.8384 C   0  0  0  0  0  0  0  0  0  0  0  0
   18.2336  -13.1760  -15.7063 C   0  0  0  0  0  0  0  0  0  0  0  0
   18.1341  -12.0128  -14.9850 C   0  0  0  0  0  0  0  0  0  0  0  0
   17.0592   -7.8058  -13.9814 C   0  0  0  0  0  0  0  0  0  0  0  0
   17.4341   -6.6633  -14.3557 O   0  0  0  0  0  0  0  0  0  0  0  0
   16.3944   -7.9123  -12.7293 N   0  0  0  0  0  0  0  0  0  0  0  0
   16.0234   -6.7817  -11.9410 C   0  0  0  0  0  0  0  0  0  0  0  0
   15.3292   -7.1553  -10.6820 C   0  0  0  0  0  0  0  0  0  0  0  0
   15.0544   -8.3619  -10.4640 O   0  0  0  0  0  0  0  0  0  0  0  0
   17.2048   -0.9590   -7.3024 O   0  0  0  0  0  0  0  0  0  0  0  0
   16.7374   -2.2685   -7.2885 C   0  0  0  0  0  0  0  0  0  0  0  0
   17.4144   -3.2958   -7.9082 C   0  0  0  0  0  0  0  0  0  0  0  0
   16.9862   -4.5949   -7.9156 C   0  0  0  0  0  0  0  0  0  0  0  0
   15.7912   -4.9175   -7.2596 C   0  0  0  0  0  0  0  0  0  0  0  0
   15.3072   -6.3142   -7.2826 C   0  0  0  0  0  0  0  0  0  0  0  0
   14.3747   -6.5572   -8.4141 C   0  0  2  0  0  0  0  0  0  0  0  0
   14.9545   -6.2164   -9.7002 N   0  0  0  0  0  0  0  0  0  0  0  0
   13.1503   -5.7596   -8.2463 C   0  0  0  0  0  0  0  0  0  0  0  0
   12.2477   -6.1176   -7.2546 O   0  0  0  0  0  0  0  0  0  0  0  0
   15.0861   -3.8935   -6.6241 C   0  0  0  0  0  0  0  0  0  0  0  0
   15.5548   -2.5985   -6.6418 C   0  0  0  0  0  0  0  0  0  0  0  0
   12.8311   -4.7529   -8.9357 O   0  0  0  0  0  0  0  0  0  0  0  0
  2  1  1  6
  2 10  1  0
  2  3  1  0
  3  4  1  0
  4  5  2  0
  4  9  1  0
  5  6  1  0
  6  7  2  0
  8  7  1  0
  9  8  2  0
 10 11  2  0
 12 13  1  0
 12 10  1  0
 14 15  2  0
 14 13  1  0
 16 17  1  0
 17 27  2  0
 18 17  1  0
 18 19  2  0
 19 20  1  0
 20 26  2  0
 20 21  1  0
 22 21  1  1
 22 23  1  0
 22 24  1  0
 23 14  1  0
 24 25  1  0
 27 26  1  0
 28 24  2  0
M  END
$$$$
