FGY.pdb
     RDKit          3D

 28 29  0  0  1  0  0  0  0  0999 V2000
   25.7335  -20.3946   -8.4802 N   0  0  0  0  0  0  0  0  0  0  0  0
   27.0984  -20.3531   -8.9053 C   0  0  1  0  0  0  0  0  0  0  0  0
   28.0622  -20.8906   -7.8984 C   0  0  0  0  0  0  0  0  0  0  0  0
   27.9979  -20.0579   -6.6796 C   0  0  0  0  0  0  0  0  0  0  0  0
   27.2894  -20.4646   -5.5783 C   0  0  0  0  0  0  0  0  0  0  0  0
   27.2223  -19.6940   -4.4328 C   0  0  0  0  0  0  0  0  0  0  0  0
   27.9039  -18.4771   -4.4299 C   0  0  0  0  0  0  0  0  0  0  0  0
   28.6228  -18.0395   -5.5151 C   0  0  0  0  0  0  0  0  0  0  0  0
   28.6509  -18.8499   -6.6223 C   0  0  0  0  0  0  0  0  0  0  0  0
   27.2546  -21.0065  -10.2276 C   0  0  0  0  0  0  0  0  0  0  0  0
   26.6662  -22.0818  -10.5161 O   0  0  0  0  0  0  0  0  0  0  0  0
   28.0901  -20.4179  -11.2157 N   0  0  0  0  0  0  0  0  0  0  0  0
   28.5600  -21.1224  -12.3647 C   0  0  0  0  0  0  0  0  0  0  0  0
   27.5519  -21.1938  -13.4535 C   0  0  0  0  0  0  0  0  0  0  0  0
   27.8535  -21.7540  -14.5372 O   0  0  0  0  0  0  0  0  0  0  0  0
   21.1398  -20.7971   -9.5000 O   0  0  0  0  0  0  0  0  0  0  0  0
   21.9008  -21.0201  -10.6423 C   0  0  0  0  0  0  0  0  0  0  0  0
   21.5396  -20.5196  -11.8738 C   0  0  0  0  0  0  0  0  0  0  0  0
   22.2622  -20.7178  -13.0182 C   0  0  0  0  0  0  0  0  0  0  0  0
   23.4412  -21.4715  -12.9523 C   0  0  0  0  0  0  0  0  0  0  0  0
   24.2164  -21.7120  -14.1880 C   0  0  0  0  0  0  0  0  0  0  0  0
   25.2599  -20.6744  -14.3963 C   0  0  2  0  0  0  0  0  0  0  0  0
   26.2532  -20.6592  -13.3382 N   0  0  0  0  0  0  0  0  0  0  0  0
   24.6463  -19.3390  -14.4574 C   0  0  0  0  0  0  0  0  0  0  0  0
   23.7067  -19.0775  -15.4448 O   0  0  0  0  0  0  0  0  0  0  0  0
   23.8286  -21.9901  -11.7152 C   0  0  0  0  0  0  0  0  0  0  0  0
   23.0701  -21.7654  -10.5878 C   0  0  0  0  0  0  0  0  0  0  0  0
   24.8979  -18.3804  -13.6774 O   0  0  0  0  0  0  0  0  0  0  0  0
  2  1  1  1
  2 10  1  0
  2  3  1  0
  3  4  1  0
  4  5  2  0
  4  9  1  0
  5  6  1  0
  6  7  2  0
  8  7  1  0
  9  8  2  0
 10 11  2  0
 12 13  1  0
 12 10  1  0
 14 15  2  0
 14 13  1  0
 16 17  1  0
 17 27  2  0
 18 17  1  0
 18 19  2  0
 19 20  1  0
 20 26  2  0
 20 21  1  0
 22 21  1  1
 22 23  1  0
 22 24  1  0
 23 14  1  0
 24 25  1  0
 27 26  1  0
 28 24  2  0
M  END
$$$$
