FGY.pdb
     RDKit          3D

 28 29  0  0  1  0  0  0  0  0999 V2000
   25.5400  -20.1689   -8.7524 N   0  0  0  0  0  0  0  0  0  0  0  0
   26.8998  -20.4745   -9.0731 C   0  0  1  0  0  0  0  0  0  0  0  0
   27.5961  -21.2947   -8.0367 C   0  0  0  0  0  0  0  0  0  0  0  0
   27.9094  -20.4365   -6.8755 C   0  0  0  0  0  0  0  0  0  0  0  0
   27.0404  -20.3237   -5.8208 C   0  0  0  0  0  0  0  0  0  0  0  0
   27.3229  -19.5240   -4.7295 C   0  0  0  0  0  0  0  0  0  0  0  0
   28.5313  -18.8274   -4.7324 C   0  0  0  0  0  0  0  0  0  0  0  0
   29.4243  -18.9175   -5.7719 C   0  0  0  0  0  0  0  0  0  0  0  0
   29.0860  -19.7279   -6.8264 C   0  0  0  0  0  0  0  0  0  0  0  0
   26.9949  -21.0857  -10.4211 C   0  0  0  0  0  0  0  0  0  0  0  0
   26.3644  -22.1320  -10.7272 O   0  0  0  0  0  0  0  0  0  0  0  0
   27.8177  -20.4885  -11.4147 N   0  0  0  0  0  0  0  0  0  0  0  0
   28.3122  -21.1965  -12.5511 C   0  0  0  0  0  0  0  0  0  0  0  0
   27.3511  -21.2191  -13.6836 C   0  0  0  0  0  0  0  0  0  0  0  0
   27.6783  -21.7810  -14.7589 O   0  0  0  0  0  0  0  0  0  0  0  0
   21.0972  -20.1312   -9.8016 O   0  0  0  0  0  0  0  0  0  0  0  0
   21.7922  -20.4718  -10.9568 C   0  0  0  0  0  0  0  0  0  0  0  0
   22.8088  -21.4015  -10.9542 C   0  0  0  0  0  0  0  0  0  0  0  0
   23.5141  -21.7620  -12.0694 C   0  0  0  0  0  0  0  0  0  0  0  0
   23.1973  -21.1606  -13.2944 C   0  0  0  0  0  0  0  0  0  0  0  0
   23.9700  -21.5254  -14.5009 C   0  0  0  0  0  0  0  0  0  0  0  0
   25.1211  -20.6105  -14.7173 C   0  0  2  0  0  0  0  0  0  0  0  0
   26.0700  -20.6356  -13.6195 N   0  0  0  0  0  0  0  0  0  0  0  0
   24.6498  -19.2260  -14.8739 C   0  0  0  0  0  0  0  0  0  0  0  0
   23.7976  -18.9230  -15.9267 O   0  0  0  0  0  0  0  0  0  0  0  0
   22.1707  -20.2147  -13.3231 C   0  0  0  0  0  0  0  0  0  0  0  0
   21.4864  -19.8819  -12.1751 C   0  0  0  0  0  0  0  0  0  0  0  0
   24.9533  -18.2591  -14.1232 O   0  0  0  0  0  0  0  0  0  0  0  0
  2  1  1  1
  2 10  1  0
  2  3  1  0
  3  4  1  0
  4  5  2  0
  4  9  1  0
  5  6  1  0
  6  7  2  0
  8  7  1  0
  9  8  2  0
 10 11  2  0
 12 13  1  0
 12 10  1  0
 14 15  2  0
 14 13  1  0
 16 17  1  0
 17 27  2  0
 18 17  1  0
 18 19  2  0
 19 20  1  0
 20 26  2  0
 20 21  1  0
 22 21  1  1
 22 23  1  0
 22 24  1  0
 23 14  1  0
 24 25  1  0
 27 26  1  0
 28 24  2  0
M  END
$$$$
