CCW.pdb
     RDKit          3D

 27 28  0  0  1  0  0  0  0  0999 V2000
    7.2421  -15.5954   18.7036 N   0  0  0  0  0  0  0  0  0  0  0  0
    8.0303  -14.9291   19.7544 C   0  0  1  0  0  0  0  0  0  0  0  0
    7.2495  -13.7289   20.2142 C   0  0  0  0  0  0  0  0  0  0  0  0
    8.2629  -12.2533   19.9040 S   0  0  0  0  0  0  0  0  0  0  0  0
    8.3583  -15.8782   20.8025 C   0  0  0  0  0  0  0  0  0  0  0  0
    7.5055  -16.7836   21.0814 O   0  0  0  0  0  0  0  0  0  0  0  0
    9.5883  -15.8786   21.5638 N   0  0  0  0  0  0  0  0  0  0  0  0
    9.7483  -16.8922   22.5837 C   0  0  1  0  0  0  0  0  0  0  0  0
   10.7744  -17.8815   22.0254 C   0  0  0  0  0  0  0  0  0  0  0  0
   10.9391  -19.2374   23.2181 S   0  0  0  0  0  0  0  0  0  0  0  0
   10.1529  -16.3644   23.8868 C   0  0  0  0  0  0  0  0  0  0  0  0
   11.0230  -15.4371   23.9693 O   0  0  0  0  0  0  0  0  0  0  0  0
    9.6371  -16.8120   25.1264 N   0  0  0  0  0  0  0  0  0  0  0  0
   10.0695  -16.2671   26.4331 C   0  0  1  0  0  0  0  0  0  0  0  0
    8.7498  -16.1641   27.1926 C   0  0  0  0  0  0  0  0  0  0  0  0
    7.6756  -15.4931   26.4735 C   0  0  0  0  0  0  0  0  0  0  0  0
    6.6025  -15.9113   25.7608 C   0  0  0  0  0  0  0  0  0  0  0  0
    5.9161  -14.8446   25.3196 N   0  0  0  0  0  0  0  0  0  0  0  0
    6.5116  -13.7335   25.7255 C   0  0  0  0  0  0  0  0  0  0  0  0
    6.1959  -12.3924   25.5442 C   0  0  0  0  0  0  0  0  0  0  0  0
    6.9692  -11.3750   26.0784 C   0  0  0  0  0  0  0  0  0  0  0  0
    8.0807  -11.7452   26.8082 C   0  0  0  0  0  0  0  0  0  0  0  0
    8.3924  -13.0816   26.9860 C   0  0  0  0  0  0  0  0  0  0  0  0
    7.6099  -14.0876   26.4452 C   0  0  0  0  0  0  0  0  0  0  0  0
   11.0517  -17.1445   27.0436 C   0  0  0  0  0  0  0  0  0  0  0  0
   11.2964  -18.2640   26.4710 O   0  0  0  0  0  0  0  0  0  0  0  0
   11.7384  -16.8804   28.1755 O   0  0  0  0  0  0  0  0  0  0  0  0
  2  1  1  6
  2  5  1  0
  2  3  1  0
  3  4  1  0
  5  6  2  0
  7  8  1  0
  7  5  1  0
  8  9  1  6
 10  9  1  0
 11 12  2  0
 11  8  1  0
 13 11  1  0
 14 25  1  0
 14 13  1  0
 14 15  1  1
 16 15  1  0
 17 16  2  0
 18 17  1  0
 19 18  1  0
 19 24  2  0
 20 19  1  0
 21 20  2  0
 21 22  1  0
 22 23  2  0
 23 24  1  0
 24 16  1  0
 25 27  1  0
 26 25  2  0
M  END
$$$$
