CCW.pdb
     RDKit          3D

 27 28  0  0  1  0  0  0  0  0999 V2000
    7.9798  -15.5446   16.8602 N   0  0  0  0  0  0  0  0  0  0  0  0
    8.5588  -14.8625   18.0301 C   0  0  1  0  0  0  0  0  0  0  0  0
    7.8628  -13.5371   18.1725 C   0  0  0  0  0  0  0  0  0  0  0  0
    8.5941  -12.6741   19.5941 S   0  0  0  0  0  0  0  0  0  0  0  0
    8.4719  -15.7225   19.1963 C   0  0  0  0  0  0  0  0  0  0  0  0
    7.4461  -16.4695   19.3166 O   0  0  0  0  0  0  0  0  0  0  0  0
    9.4666  -15.8001   20.2437 N   0  0  0  0  0  0  0  0  0  0  0  0
    9.2208  -16.7130   21.3390 C   0  0  1  0  0  0  0  0  0  0  0  0
    9.6132  -18.0979   20.8182 C   0  0  0  0  0  0  0  0  0  0  0  0
   11.3752  -18.0485   20.3927 S   0  0  0  0  0  0  0  0  0  0  0  0
    9.9352  -16.3706   22.5689 C   0  0  0  0  0  0  0  0  0  0  0  0
   11.1242  -15.9147   22.5228 O   0  0  0  0  0  0  0  0  0  0  0  0
    9.3965  -16.5045   23.8707 N   0  0  0  0  0  0  0  0  0  0  0  0
   10.1582  -16.1995   25.1028 C   0  0  1  0  0  0  0  0  0  0  0  0
    9.6065  -14.8312   25.4931 C   0  0  0  0  0  0  0  0  0  0  0  0
    8.1605  -14.7737   25.6578 C   0  0  0  0  0  0  0  0  0  0  0  0
    7.1568  -15.6786   25.5681 C   0  0  0  0  0  0  0  0  0  0  0  0
    5.9873  -15.0768   25.8397 N   0  0  0  0  0  0  0  0  0  0  0  0
    6.1972  -13.7967   26.1067 C   0  0  0  0  0  0  0  0  0  0  0  0
    5.3303  -12.7666   26.4511 C   0  0  0  0  0  0  0  0  0  0  0  0
    5.7781  -11.4802   26.7025 C   0  0  0  0  0  0  0  0  0  0  0  0
    7.1356  -11.2539   26.5976 C   0  0  0  0  0  0  0  0  0  0  0  0
    7.9957  -12.2818   26.2537 C   0  0  0  0  0  0  0  0  0  0  0  0
    7.5331  -13.5627   26.0047 C   0  0  0  0  0  0  0  0  0  0  0  0
    9.9501  -17.2403   26.0932 C   0  0  0  0  0  0  0  0  0  0  0  0
    9.0886  -18.1525   25.8350 O   0  0  0  0  0  0  0  0  0  0  0  0
   10.5934  -17.3321   27.2765 O   0  0  0  0  0  0  0  0  0  0  0  0
  2  1  1  6
  2  5  1  0
  2  3  1  0
  3  4  1  0
  5  6  2  0
  7  8  1  0
  7  5  1  0
  8  9  1  6
 10  9  1  0
 11 12  2  0
 11  8  1  0
 13 11  1  0
 14 25  1  0
 14 13  1  0
 14 15  1  1
 16 15  1  0
 17 16  2  0
 18 17  1  0
 19 18  1  0
 19 24  2  0
 20 19  1  0
 21 20  2  0
 21 22  1  0
 22 23  2  0
 23 24  1  0
 24 16  1  0
 25 27  1  0
 26 25  2  0
M  END
$$$$
