CCW.pdb
     RDKit          3D

 27 28  0  0  1  0  0  0  0  0999 V2000
    6.2226  -19.8300   20.5927 N   0  0  0  0  0  0  0  0  0  0  0  0
    6.1107  -18.7573   21.5958 C   0  0  1  0  0  0  0  0  0  0  0  0
    6.3689  -19.3695   22.9448 C   0  0  0  0  0  0  0  0  0  0  0  0
    5.6718  -18.2593   24.2025 S   0  0  0  0  0  0  0  0  0  0  0  0
    6.9958  -17.6608   21.2470 C   0  0  0  0  0  0  0  0  0  0  0  0
    8.1658  -17.9435   20.8276 O   0  0  0  0  0  0  0  0  0  0  0  0
    6.6525  -16.2586   21.3386 N   0  0  0  0  0  0  0  0  0  0  0  0
    7.6996  -15.2916   21.0894 C   0  0  1  0  0  0  0  0  0  0  0  0
    6.9981  -14.0669   20.4968 C   0  0  0  0  0  0  0  0  0  0  0  0
    8.2804  -12.9008   19.9640 S   0  0  0  0  0  0  0  0  0  0  0  0
    8.4857  -14.9492   22.2748 C   0  0  0  0  0  0  0  0  0  0  0  0
    8.6970  -13.7311   22.5833 O   0  0  0  0  0  0  0  0  0  0  0  0
    9.0596  -15.8970   23.1553 N   0  0  0  0  0  0  0  0  0  0  0  0
    9.9908  -15.5347   24.2475 C   0  0  1  0  0  0  0  0  0  0  0  0
    9.2283  -15.9933   25.4874 C   0  0  0  0  0  0  0  0  0  0  0  0
    7.9227  -15.3747   25.6719 C   0  0  0  0  0  0  0  0  0  0  0  0
    6.6433  -15.8085   25.5765 C   0  0  0  0  0  0  0  0  0  0  0  0
    5.8067  -14.8012   25.8755 N   0  0  0  0  0  0  0  0  0  0  0  0
    6.5053  -13.7143   26.1662 C   0  0  0  0  0  0  0  0  0  0  0  0
    6.1160  -12.4346   26.5430 C   0  0  0  0  0  0  0  0  0  0  0  0
    7.0356  -11.4352   26.8152 C   0  0  0  0  0  0  0  0  0  0  0  0
    8.3720  -11.7596   26.6974 C   0  0  0  0  0  0  0  0  0  0  0  0
    8.7559  -13.0346   26.3213 C   0  0  0  0  0  0  0  0  0  0  0  0
    7.8248  -14.0232   26.0518 C   0  0  0  0  0  0  0  0  0  0  0  0
   11.2735  -16.1856   24.0513 C   0  0  0  0  0  0  0  0  0  0  0  0
   12.2105  -15.9323   24.8874 O   0  0  0  0  0  0  0  0  0  0  0  0
   11.5685  -17.0451   23.0530 O   0  0  0  0  0  0  0  0  0  0  0  0
  2  1  1  6
  2  5  1  0
  2  3  1  0
  3  4  1  0
  5  6  2  0
  7  8  1  0
  7  5  1  0
  8  9  1  1
 10  9  1  0
 11 12  2  0
 11  8  1  0
 13 11  1  0
 14 25  1  0
 14 13  1  0
 14 15  1  1
 16 15  1  0
 17 16  2  0
 18 17  1  0
 19 18  1  0
 19 24  2  0
 20 19  1  0
 21 20  2  0
 21 22  1  0
 22 23  2  0
 23 24  1  0
 24 16  1  0
 25 27  1  0
 26 25  2  0
M  END
$$$$
