CCW.pdb
     RDKit          3D

 27 28  0  0  1  0  0  0  0  0999 V2000
    6.9293  -15.5716   19.7560 N   0  0  0  0  0  0  0  0  0  0  0  0
    8.1167  -14.9894   20.4045 C   0  0  1  0  0  0  0  0  0  0  0  0
    7.7978  -13.5567   20.7317 C   0  0  0  0  0  0  0  0  0  0  0  0
    7.9592  -12.5875   19.2036 S   0  0  0  0  0  0  0  0  0  0  0  0
    8.5048  -15.8007   21.5439 C   0  0  0  0  0  0  0  0  0  0  0  0
    7.5826  -16.3391   22.2398 O   0  0  0  0  0  0  0  0  0  0  0  0
    9.8687  -16.0493   21.9570 N   0  0  0  0  0  0  0  0  0  0  0  0
   10.0811  -16.9450   23.0732 C   0  0  1  0  0  0  0  0  0  0  0  0
   11.2290  -17.8656   22.6513 C   0  0  0  0  0  0  0  0  0  0  0  0
   11.4970  -19.0615   23.9878 S   0  0  0  0  0  0  0  0  0  0  0  0
   10.3653  -16.2630   24.3359 C   0  0  0  0  0  0  0  0  0  0  0  0
   11.1525  -15.2615   24.3693 O   0  0  0  0  0  0  0  0  0  0  0  0
    9.8150  -16.6326   25.5863 N   0  0  0  0  0  0  0  0  0  0  0  0
   10.3008  -16.1004   26.8794 C   0  0  1  0  0  0  0  0  0  0  0  0
    9.0040  -15.9273   27.6651 C   0  0  0  0  0  0  0  0  0  0  0  0
    7.8956  -15.3617   26.9081 C   0  0  0  0  0  0  0  0  0  0  0  0
    6.8864  -15.8808   26.1690 C   0  0  0  0  0  0  0  0  0  0  0  0
    6.1200  -14.8839   25.6970 N   0  0  0  0  0  0  0  0  0  0  0  0
    6.6006  -13.7204   26.1085 C   0  0  0  0  0  0  0  0  0  0  0  0
    6.1708  -12.4147   25.9041 C   0  0  0  0  0  0  0  0  0  0  0  0
    6.8330  -11.3275   26.4500 C   0  0  0  0  0  0  0  0  0  0  0  0
    7.9510  -11.5901   27.2155 C   0  0  0  0  0  0  0  0  0  0  0  0
    8.3765  -12.8914   27.4162 C   0  0  0  0  0  0  0  0  0  0  0  0
    7.7044  -13.9682   26.8634 C   0  0  0  0  0  0  0  0  0  0  0  0
   11.2515  -17.0207   27.4766 C   0  0  0  0  0  0  0  0  0  0  0  0
   11.4003  -18.1699   26.9304 O   0  0  0  0  0  0  0  0  0  0  0  0
   12.0016  -16.7681   28.5701 O   0  0  0  0  0  0  0  0  0  0  0  0
  2  1  1  1
  2  5  1  0
  2  3  1  0
  3  4  1  0
  5  6  2  0
  7  8  1  0
  7  5  1  0
  8  9  1  6
 10  9  1  0
 11 12  2  0
 11  8  1  0
 13 11  1  0
 14 25  1  0
 14 13  1  0
 14 15  1  1
 16 15  1  0
 17 16  2  0
 18 17  1  0
 19 18  1  0
 19 24  2  0
 20 19  1  0
 21 20  2  0
 21 22  1  0
 22 23  2  0
 23 24  1  0
 24 16  1  0
 25 27  1  0
 26 25  2  0
M  END
$$$$
