CCW.pdb
     RDKit          3D

 27 28  0  0  1  0  0  0  0  0999 V2000
    6.9402  -14.3605   18.4900 N   0  0  0  0  0  0  0  0  0  0  0  0
    8.2542  -14.3985   19.1544 C   0  0  1  0  0  0  0  0  0  0  0  0
    8.6148  -12.9868   19.5267 C   0  0  0  0  0  0  0  0  0  0  0  0
    9.1566  -12.1340   18.0170 S   0  0  0  0  0  0  0  0  0  0  0  0
    8.2182  -15.3298   20.2673 C   0  0  0  0  0  0  0  0  0  0  0  0
    7.2370  -15.2594   21.0778 O   0  0  0  0  0  0  0  0  0  0  0  0
    9.2173  -16.3416   20.5327 N   0  0  0  0  0  0  0  0  0  0  0  0
    9.0711  -17.1328   21.7352 C   0  0  1  0  0  0  0  0  0  0  0  0
    9.3451  -18.5787   21.3141 C   0  0  0  0  0  0  0  0  0  0  0  0
    9.4415  -19.5833   22.8206 S   0  0  0  0  0  0  0  0  0  0  0  0
    9.9411  -16.7105   22.8330 C   0  0  0  0  0  0  0  0  0  0  0  0
   11.2040  -16.6519   22.6741 O   0  0  0  0  0  0  0  0  0  0  0  0
    9.4828  -16.3403   24.1199 N   0  0  0  0  0  0  0  0  0  0  0  0
   10.3875  -16.0654   25.2588 C   0  0  1  0  0  0  0  0  0  0  0  0
    9.8337  -14.7508   25.8011 C   0  0  0  0  0  0  0  0  0  0  0  0
    8.3845  -14.7027   25.9390 C   0  0  0  0  0  0  0  0  0  0  0  0
    7.4011  -15.6334   25.9696 C   0  0  0  0  0  0  0  0  0  0  0  0
    6.2155  -15.0251   26.1376 N   0  0  0  0  0  0  0  0  0  0  0  0
    6.3952  -13.7155   26.2190 C   0  0  0  0  0  0  0  0  0  0  0  0
    5.5023  -12.6662   26.4007 C   0  0  0  0  0  0  0  0  0  0  0  0
    5.9198  -11.3473   26.4684 C   0  0  0  0  0  0  0  0  0  0  0  0
    7.2737  -11.1080   26.3476 C   0  0  0  0  0  0  0  0  0  0  0  0
    8.1598  -12.1552   26.1661 C   0  0  0  0  0  0  0  0  0  0  0  0
    7.7273  -13.4687   26.0997 C   0  0  0  0  0  0  0  0  0  0  0  0
   10.3584  -17.1687   26.2018 C   0  0  0  0  0  0  0  0  0  0  0  0
    9.4517  -18.0616   26.0549 O   0  0  0  0  0  0  0  0  0  0  0  0
   11.2140  -17.3382   27.2321 O   0  0  0  0  0  0  0  0  0  0  0  0
  2  1  1  1
  2  5  1  0
  2  3  1  0
  3  4  1  0
  5  6  2  0
  7  8  1  0
  7  5  1  0
  8  9  1  6
 10  9  1  0
 11 12  2  0
 11  8  1  0
 13 11  1  0
 14 25  1  0
 14 13  1  0
 14 15  1  1
 16 15  1  0
 17 16  2  0
 18 17  1  0
 19 18  1  0
 19 24  2  0
 20 19  1  0
 21 20  2  0
 21 22  1  0
 22 23  2  0
 23 24  1  0
 24 16  1  0
 25 27  1  0
 26 25  2  0
M  END
$$$$
