CCW.pdb
     RDKit          3D

 27 28  0  0  1  0  0  0  0  0999 V2000
    7.2105  -15.8076   18.7278 N   0  0  0  0  0  0  0  0  0  0  0  0
    7.9252  -15.0603   19.7767 C   0  0  1  0  0  0  0  0  0  0  0  0
    7.0733  -13.8796   20.1525 C   0  0  0  0  0  0  0  0  0  0  0  0
    7.9605  -12.9358   21.4263 S   0  0  0  0  0  0  0  0  0  0  0  0
    8.2540  -15.9471   20.8779 C   0  0  0  0  0  0  0  0  0  0  0  0
    7.3640  -16.7696   21.2730 O   0  0  0  0  0  0  0  0  0  0  0  0
    9.5240  -15.9720   21.5700 N   0  0  0  0  0  0  0  0  0  0  0  0
    9.6998  -16.9531   22.6188 C   0  0  1  0  0  0  0  0  0  0  0  0
   10.7419  -17.9414   22.0893 C   0  0  0  0  0  0  0  0  0  0  0  0
   10.9114  -19.2713   23.3103 S   0  0  0  0  0  0  0  0  0  0  0  0
   10.0952  -16.3814   23.9061 C   0  0  0  0  0  0  0  0  0  0  0  0
   10.9675  -15.4543   23.9636 O   0  0  0  0  0  0  0  0  0  0  0  0
    9.5678  -16.7841   25.1561 N   0  0  0  0  0  0  0  0  0  0  0  0
   10.0845  -16.2946   26.4541 C   0  0  1  0  0  0  0  0  0  0  0  0
    8.8161  -16.2212   27.2996 C   0  0  0  0  0  0  0  0  0  0  0  0
    7.6968  -15.5313   26.6730 C   0  0  0  0  0  0  0  0  0  0  0  0
    6.5925  -15.9295   25.9976 C   0  0  0  0  0  0  0  0  0  0  0  0
    5.8703  -14.8525   25.6477 N   0  0  0  0  0  0  0  0  0  0  0  0
    6.4729  -13.7542   26.0775 C   0  0  0  0  0  0  0  0  0  0  0  0
    6.1314  -12.4106   25.9813 C   0  0  0  0  0  0  0  0  0  0  0  0
    6.9195  -11.4097   26.5249 C   0  0  0  0  0  0  0  0  0  0  0  0
    8.0728  -11.7992   27.1753 C   0  0  0  0  0  0  0  0  0  0  0  0
    8.4101  -13.1379   27.2686 C   0  0  0  0  0  0  0  0  0  0  0  0
    7.6124  -14.1273   26.7194 C   0  0  0  0  0  0  0  0  0  0  0  0
   11.0997  -17.1982   26.9642 C   0  0  0  0  0  0  0  0  0  0  0  0
   11.2281  -18.3399   26.3975 O   0  0  0  0  0  0  0  0  0  0  0  0
   11.9307  -16.9370   27.9955 O   0  0  0  0  0  0  0  0  0  0  0  0
  2  1  1  6
  2  5  1  0
  2  3  1  0
  3  4  1  0
  5  6  2  0
  7  8  1  0
  7  5  1  0
  8  9  1  6
 10  9  1  0
 11 12  2  0
 11  8  1  0
 13 11  1  0
 14 25  1  0
 14 13  1  0
 14 15  1  1
 16 15  1  0
 17 16  2  0
 18 17  1  0
 19 18  1  0
 19 24  2  0
 20 19  1  0
 21 20  2  0
 21 22  1  0
 22 23  2  0
 23 24  1  0
 24 16  1  0
 25 27  1  0
 26 25  2  0
M  END
$$$$
