CCW.pdb
     RDKit          3D

 27 28  0  0  1  0  0  0  0  0999 V2000
    6.3155  -19.9943   20.5567 N   0  0  0  0  0  0  0  0  0  0  0  0
    6.2238  -18.9614   21.6026 C   0  0  1  0  0  0  0  0  0  0  0  0
    6.5775  -19.6099   22.9124 C   0  0  0  0  0  0  0  0  0  0  0  0
    5.2970  -19.1600   24.1201 S   0  0  0  0  0  0  0  0  0  0  0  0
    7.0504  -17.8227   21.2459 C   0  0  0  0  0  0  0  0  0  0  0  0
    8.2619  -18.0403   20.9146 O   0  0  0  0  0  0  0  0  0  0  0  0
    6.6046  -16.4466   21.2365 N   0  0  0  0  0  0  0  0  0  0  0  0
    7.6139  -15.4126   21.1619 C   0  0  1  0  0  0  0  0  0  0  0  0
    6.9292  -14.2143   20.4996 C   0  0  0  0  0  0  0  0  0  0  0  0
    8.1844  -12.9291   20.2524 S   0  0  0  0  0  0  0  0  0  0  0  0
    8.1990  -15.0598   22.4555 C   0  0  0  0  0  0  0  0  0  0  0  0
    7.9711  -13.9219   22.9817 O   0  0  0  0  0  0  0  0  0  0  0  0
    9.0356  -15.9126   23.2143 N   0  0  0  0  0  0  0  0  0  0  0  0
   10.0644  -15.4169   24.1562 C   0  0  1  0  0  0  0  0  0  0  0  0
    9.4504  -15.7545   25.5120 C   0  0  0  0  0  0  0  0  0  0  0  0
    8.0675  -15.3314   25.6849 C   0  0  0  0  0  0  0  0  0  0  0  0
    6.8671  -15.9549   25.6179 C   0  0  0  0  0  0  0  0  0  0  0  0
    5.8902  -15.0732   25.8861 N   0  0  0  0  0  0  0  0  0  0  0  0
    6.4191  -13.8835   26.1289 C   0  0  0  0  0  0  0  0  0  0  0  0
    5.8439  -12.6627   26.4604 C   0  0  0  0  0  0  0  0  0  0  0  0
    6.6044  -11.5272   26.6858 C   0  0  0  0  0  0  0  0  0  0  0  0
    7.9739  -11.6525   26.5682 C   0  0  0  0  0  0  0  0  0  0  0  0
    8.5431  -12.8695   26.2372 C   0  0  0  0  0  0  0  0  0  0  0  0
    7.7696  -13.9959   26.0141 C   0  0  0  0  0  0  0  0  0  0  0  0
   11.3390  -16.0598   23.8927 C   0  0  0  0  0  0  0  0  0  0  0  0
   12.3625  -15.6580   24.5500 O   0  0  0  0  0  0  0  0  0  0  0  0
   11.5422  -17.0564   23.0051 O   0  0  0  0  0  0  0  0  0  0  0  0
  2  1  1  6
  2  5  1  0
  2  3  1  0
  3  4  1  0
  5  6  2  0
  7  8  1  0
  7  5  1  0
  8  9  1  1
 10  9  1  0
 11 12  2  0
 11  8  1  0
 13 11  1  0
 14 25  1  0
 14 13  1  0
 14 15  1  1
 16 15  1  0
 17 16  2  0
 18 17  1  0
 19 18  1  0
 19 24  2  0
 20 19  1  0
 21 20  2  0
 21 22  1  0
 22 23  2  0
 23 24  1  0
 24 16  1  0
 25 27  1  0
 26 25  2  0
M  END
$$$$
