CCW.pdb
     RDKit          3D

 27 28  0  0  1  0  0  0  0  0999 V2000
    7.4722  -20.2255   19.9065 N   0  0  0  0  0  0  0  0  0  0  0  0
    7.3304  -19.3391   21.0742 C   0  0  1  0  0  0  0  0  0  0  0  0
    7.6672  -20.1449   22.2985 C   0  0  0  0  0  0  0  0  0  0  0  0
    6.1413  -20.3594   23.2608 S   0  0  0  0  0  0  0  0  0  0  0  0
    8.1383  -18.1472   20.8905 C   0  0  0  0  0  0  0  0  0  0  0  0
    9.3500  -18.2937   20.5227 O   0  0  0  0  0  0  0  0  0  0  0  0
    7.6735  -16.7926   21.0937 N   0  0  0  0  0  0  0  0  0  0  0  0
    8.6589  -15.7333   21.0775 C   0  0  1  0  0  0  0  0  0  0  0  0
    7.8783  -14.4474   20.7938 C   0  0  0  0  0  0  0  0  0  0  0  0
    6.5845  -14.2978   22.0555 S   0  0  0  0  0  0  0  0  0  0  0  0
    9.4441  -15.6341   22.3079 C   0  0  0  0  0  0  0  0  0  0  0  0
   10.3657  -14.7614   22.4206 O   0  0  0  0  0  0  0  0  0  0  0  0
    9.2615  -16.4605   23.4422 N   0  0  0  0  0  0  0  0  0  0  0  0
   10.1107  -16.3823   24.6522 C   0  0  1  0  0  0  0  0  0  0  0  0
    9.7043  -15.0361   25.2453 C   0  0  0  0  0  0  0  0  0  0  0  0
    8.2873  -14.9010   25.5535 C   0  0  0  0  0  0  0  0  0  0  0  0
    7.2391  -15.7573   25.6022 C   0  0  0  0  0  0  0  0  0  0  0  0
    6.1328  -15.0889   25.9670 N   0  0  0  0  0  0  0  0  0  0  0  0
    6.4279  -13.8123   26.1604 C   0  0  0  0  0  0  0  0  0  0  0  0
    5.6496  -12.7290   26.5499 C   0  0  0  0  0  0  0  0  0  0  0  0
    6.1797  -11.4586   26.7033 C   0  0  0  0  0  0  0  0  0  0  0  0
    7.5280  -11.3039   26.4523 C   0  0  0  0  0  0  0  0  0  0  0  0
    8.2998  -12.3848   26.0638 C   0  0  0  0  0  0  0  0  0  0  0  0
    7.7554  -13.6489   25.9141 C   0  0  0  0  0  0  0  0  0  0  0  0
    9.8628  -17.5229   25.5151 C   0  0  0  0  0  0  0  0  0  0  0  0
    8.8580  -18.2715   25.2485 O   0  0  0  0  0  0  0  0  0  0  0  0
   10.6078  -17.8681   26.5867 O   0  0  0  0  0  0  0  0  0  0  0  0
  2  1  1  6
  2  5  1  0
  2  3  1  0
  3  4  1  0
  5  6  2  0
  7  8  1  0
  7  5  1  0
  8  9  1  1
 10  9  1  0
 11 12  2  0
 11  8  1  0
 13 11  1  0
 14 25  1  0
 14 13  1  0
 14 15  1  1
 16 15  1  0
 17 16  2  0
 18 17  1  0
 19 18  1  0
 19 24  2  0
 20 19  1  0
 21 20  2  0
 21 22  1  0
 22 23  2  0
 23 24  1  0
 24 16  1  0
 25 27  1  0
 26 25  2  0
M  END
$$$$
