CCW.pdb
     RDKit          3D

 27 28  0  0  1  0  0  0  0  0999 V2000
    7.9174  -16.3417   18.2208 N   0  0  0  0  0  0  0  0  0  0  0  0
    7.8085  -15.6924   19.5383 C   0  0  1  0  0  0  0  0  0  0  0  0
    6.3467  -15.4794   19.8193 C   0  0  0  0  0  0  0  0  0  0  0  0
    6.1916  -14.8541   21.5179 S   0  0  0  0  0  0  0  0  0  0  0  0
    8.5105  -16.4792   20.5361 C   0  0  0  0  0  0  0  0  0  0  0  0
    8.6407  -17.7306   20.3316 O   0  0  0  0  0  0  0  0  0  0  0  0
    9.0796  -15.9510   21.7566 N   0  0  0  0  0  0  0  0  0  0  0  0
    9.8860  -16.8411   22.5634 C   0  0  1  0  0  0  0  0  0  0  0  0
   11.1490  -17.1124   21.7423 C   0  0  0  0  0  0  0  0  0  0  0  0
   12.1681  -18.2905   22.6707 S   0  0  0  0  0  0  0  0  0  0  0  0
   10.2017  -16.3158   23.8919 C   0  0  0  0  0  0  0  0  0  0  0  0
   10.8610  -15.2331   24.0213 O   0  0  0  0  0  0  0  0  0  0  0  0
    9.8193  -16.9318   25.1073 N   0  0  0  0  0  0  0  0  0  0  0  0
   10.2214  -16.4253   26.4389 C   0  0  1  0  0  0  0  0  0  0  0  0
    8.8933  -16.4030   27.1904 C   0  0  0  0  0  0  0  0  0  0  0  0
    7.7965  -15.7549   26.4845 C   0  0  0  0  0  0  0  0  0  0  0  0
    6.7411  -16.1952   25.7589 C   0  0  0  0  0  0  0  0  0  0  0  0
    6.0166  -15.1442   25.3413 N   0  0  0  0  0  0  0  0  0  0  0  0
    6.5699  -14.0219   25.7755 C   0  0  0  0  0  0  0  0  0  0  0  0
    6.2053  -12.6894   25.6254 C   0  0  0  0  0  0  0  0  0  0  0  0
    6.9395  -11.6573   26.1861 C   0  0  0  0  0  0  0  0  0  0  0  0
    8.0624  -12.0038   26.9100 C   0  0  0  0  0  0  0  0  0  0  0  0
    8.4228  -13.3317   27.0566 C   0  0  0  0  0  0  0  0  0  0  0  0
    7.6791  -14.3526   26.4896 C   0  0  0  0  0  0  0  0  0  0  0  0
   11.2315  -17.2898   27.0217 C   0  0  0  0  0  0  0  0  0  0  0  0
   11.7250  -16.9580   28.1564 O   0  0  0  0  0  0  0  0  0  0  0  0
   11.7016  -18.4267   26.4659 O   0  0  0  0  0  0  0  0  0  0  0  0
  2  1  1  6
  2  5  1  0
  2  3  1  0
  3  4  1  0
  5  6  2  0
  7  8  1  0
  7  5  1  0
  8  9  1  6
 10  9  1  0
 11 12  2  0
 11  8  1  0
 13 11  1  0
 14 25  1  0
 14 13  1  0
 14 15  1  1
 16 15  1  0
 17 16  2  0
 18 17  1  0
 19 18  1  0
 19 24  2  0
 20 19  1  0
 21 20  2  0
 21 22  1  0
 22 23  2  0
 23 24  1  0
 24 16  1  0
 25 27  1  0
 26 25  2  0
M  END
$$$$
