CCW.pdb
     RDKit          3D

 27 28  0  0  1  0  0  0  0  0999 V2000
    6.7438  -15.3224   19.4035 N   0  0  0  0  0  0  0  0  0  0  0  0
    7.8362  -14.7427   20.2035 C   0  0  1  0  0  0  0  0  0  0  0  0
    7.3845  -13.3874   20.6728 C   0  0  0  0  0  0  0  0  0  0  0  0
    8.0174  -12.1526   19.5002 S   0  0  0  0  0  0  0  0  0  0  0  0
    8.2111  -15.6592   21.2649 C   0  0  0  0  0  0  0  0  0  0  0  0
    7.2811  -16.2628   21.8936 O   0  0  0  0  0  0  0  0  0  0  0  0
    9.5700  -15.9448   21.6705 N   0  0  0  0  0  0  0  0  0  0  0  0
    9.7650  -16.8672   22.7680 C   0  0  1  0  0  0  0  0  0  0  0  0
   10.8120  -17.8724   22.2816 C   0  0  0  0  0  0  0  0  0  0  0  0
   11.0082  -19.1322   23.5710 S   0  0  0  0  0  0  0  0  0  0  0  0
   10.1664  -16.2245   24.0194 C   0  0  0  0  0  0  0  0  0  0  0  0
   11.0100  -15.2694   24.0165 O   0  0  0  0  0  0  0  0  0  0  0  0
    9.6756  -16.5846   25.2971 N   0  0  0  0  0  0  0  0  0  0  0  0
   10.2166  -16.0370   26.5615 C   0  0  1  0  0  0  0  0  0  0  0  0
    8.9550  -15.8557   27.4008 C   0  0  0  0  0  0  0  0  0  0  0  0
    7.8169  -15.2909   26.6887 C   0  0  0  0  0  0  0  0  0  0  0  0
    6.7755  -15.8108   25.9963 C   0  0  0  0  0  0  0  0  0  0  0  0
    5.9926  -14.8141   25.5518 N   0  0  0  0  0  0  0  0  0  0  0  0
    6.4937  -13.6499   25.9359 C   0  0  0  0  0  0  0  0  0  0  0  0
    6.0594  -12.3440   25.7428 C   0  0  0  0  0  0  0  0  0  0  0  0
    6.7474  -11.2559   26.2538 C   0  0  0  0  0  0  0  0  0  0  0  0
    7.8963  -11.5178   26.9723 C   0  0  0  0  0  0  0  0  0  0  0  0
    8.3262  -12.8193   27.1619 C   0  0  0  0  0  0  0  0  0  0  0  0
    7.6280  -13.8970   26.6443 C   0  0  0  0  0  0  0  0  0  0  0  0
   11.1935  -16.9496   27.1275 C   0  0  0  0  0  0  0  0  0  0  0  0
   11.7937  -16.5968   28.2028 O   0  0  0  0  0  0  0  0  0  0  0  0
   11.5282  -18.1523   26.6137 O   0  0  0  0  0  0  0  0  0  0  0  0
  2  1  1  1
  2  5  1  0
  2  3  1  0
  3  4  1  0
  5  6  2  0
  7  8  1  0
  7  5  1  0
  8  9  1  6
 10  9  1  0
 11 12  2  0
 11  8  1  0
 13 11  1  0
 14 25  1  0
 14 13  1  0
 14 15  1  1
 16 15  1  0
 17 16  2  0
 18 17  1  0
 19 18  1  0
 19 24  2  0
 20 19  1  0
 21 20  2  0
 21 22  1  0
 22 23  2  0
 23 24  1  0
 24 16  1  0
 25 27  1  0
 26 25  2  0
M  END
$$$$
