CCW.pdb
     RDKit          3D

 27 28  0  0  1  0  0  0  0  0999 V2000
    5.9931  -20.4264   19.9562 N   0  0  0  0  0  0  0  0  0  0  0  0
    5.7302  -19.0953   20.5293 C   0  0  1  0  0  0  0  0  0  0  0  0
    5.2688  -19.2950   21.9465 C   0  0  0  0  0  0  0  0  0  0  0  0
    4.4790  -20.9277   22.0499 S   0  0  0  0  0  0  0  0  0  0  0  0
    6.9052  -18.2550   20.3858 C   0  0  0  0  0  0  0  0  0  0  0  0
    7.9942  -18.8036   20.0143 O   0  0  0  0  0  0  0  0  0  0  0  0
    6.9394  -16.8303   20.6337 N   0  0  0  0  0  0  0  0  0  0  0  0
    8.2210  -16.1636   20.5527 C   0  0  1  0  0  0  0  0  0  0  0  0
    8.0766  -15.1254   19.4371 C   0  0  0  0  0  0  0  0  0  0  0  0
    6.6397  -14.0910   19.8288 S   0  0  0  0  0  0  0  0  0  0  0  0
    8.6542  -15.5553   21.8108 C   0  0  0  0  0  0  0  0  0  0  0  0
    7.9502  -14.6531   22.3712 O   0  0  0  0  0  0  0  0  0  0  0  0
    9.8436  -15.8977   22.4971 N   0  0  0  0  0  0  0  0  0  0  0  0
   10.1403  -15.4616   23.8802 C   0  0  1  0  0  0  0  0  0  0  0  0
    9.0032  -16.1019   24.6715 C   0  0  0  0  0  0  0  0  0  0  0  0
    8.6622  -15.4270   25.9164 C   0  0  0  0  0  0  0  0  0  0  0  0
    8.9245  -15.6568   27.2251 C   0  0  0  0  0  0  0  0  0  0  0  0
    8.3681  -14.6870   27.9691 N   0  0  0  0  0  0  0  0  0  0  0  0
    7.7458  -13.8234   27.1810 C   0  0  0  0  0  0  0  0  0  0  0  0
    7.0365  -12.6605   27.4564 C   0  0  0  0  0  0  0  0  0  0  0  0
    6.4675  -11.8905   26.4555 C   0  0  0  0  0  0  0  0  0  0  0  0
    6.6322  -12.3248   25.1558 C   0  0  0  0  0  0  0  0  0  0  0  0
    7.3385  -13.4836   24.8854 C   0  0  0  0  0  0  0  0  0  0  0  0
    7.9011  -14.2434   25.8968 C   0  0  0  0  0  0  0  0  0  0  0  0
   11.4688  -15.8971   24.2707 C   0  0  0  0  0  0  0  0  0  0  0  0
   11.9137  -16.9905   23.7732 O   0  0  0  0  0  0  0  0  0  0  0  0
   12.2865  -15.2423   25.1222 O   0  0  0  0  0  0  0  0  0  0  0  0
  2  1  1  1
  2  5  1  0
  2  3  1  0
  3  4  1  0
  5  6  2  0
  7  8  1  0
  7  5  1  0
  8  9  1  6
 10  9  1  0
 11 12  2  0
 11  8  1  0
 13 11  1  0
 14 25  1  0
 14 13  1  0
 14 15  1  1
 16 15  1  0
 17 16  2  0
 18 17  1  0
 19 18  1  0
 19 24  2  0
 20 19  1  0
 21 20  2  0
 21 22  1  0
 22 23  2  0
 23 24  1  0
 24 16  1  0
 25 27  1  0
 26 25  2  0
M  END
$$$$
