CCW.pdb
     RDKit          3D

 27 28  0  0  1  0  0  0  0  0999 V2000
    7.9284  -15.4978   16.9294 N   0  0  0  0  0  0  0  0  0  0  0  0
    8.7726  -14.8476   17.9461 C   0  0  1  0  0  0  0  0  0  0  0  0
    8.0065  -13.6721   18.4872 C   0  0  0  0  0  0  0  0  0  0  0  0
    7.9079  -12.4200   17.1747 S   0  0  0  0  0  0  0  0  0  0  0  0
    9.1796  -15.8191   18.9449 C   0  0  0  0  0  0  0  0  0  0  0  0
    8.3524  -16.7349   19.2641 O   0  0  0  0  0  0  0  0  0  0  0  0
   10.4621  -15.8310   19.6141 N   0  0  0  0  0  0  0  0  0  0  0  0
   10.6285  -16.7317   20.7341 C   0  0  1  0  0  0  0  0  0  0  0  0
   12.0146  -17.3571   20.5585 C   0  0  0  0  0  0  0  0  0  0  0  0
   13.2326  -16.0138   20.5793 S   0  0  0  0  0  0  0  0  0  0  0  0
   10.4820  -16.0885   22.0399 C   0  0  0  0  0  0  0  0  0  0  0  0
   10.6611  -14.8334   22.1685 O   0  0  0  0  0  0  0  0  0  0  0  0
   10.1398  -16.7687   23.2328 N   0  0  0  0  0  0  0  0  0  0  0  0
    9.5770  -16.0924   24.4233 C   0  0  1  0  0  0  0  0  0  0  0  0
    8.1876  -15.6880   23.9384 C   0  0  0  0  0  0  0  0  0  0  0  0
    7.2921  -15.1949   24.9757 C   0  0  0  0  0  0  0  0  0  0  0  0
    6.2766  -15.7353   25.6906 C   0  0  0  0  0  0  0  0  0  0  0  0
    5.7958  -14.8188   26.5465 N   0  0  0  0  0  0  0  0  0  0  0  0
    6.4713  -13.6875   26.4125 C   0  0  0  0  0  0  0  0  0  0  0  0
    6.3694  -12.4637   27.0630 C   0  0  0  0  0  0  0  0  0  0  0  0
    7.2040  -11.3993   26.7644 C   0  0  0  0  0  0  0  0  0  0  0  0
    8.1545  -11.5997   25.7840 C   0  0  0  0  0  0  0  0  0  0  0  0
    8.2525  -12.8194   25.1379 C   0  0  0  0  0  0  0  0  0  0  0  0
    7.4105  -13.8741   25.4468 C   0  0  0  0  0  0  0  0  0  0  0  0
    9.5817  -16.9926   25.5622 C   0  0  0  0  0  0  0  0  0  0  0  0
    9.5816  -18.2529   25.3325 O   0  0  0  0  0  0  0  0  0  0  0  0
    9.5868  -16.6130   26.8576 O   0  0  0  0  0  0  0  0  0  0  0  0
  2  1  1  6
  2  5  1  0
  2  3  1  0
  3  4  1  0
  5  6  2  0
  7  8  1  0
  7  5  1  0
  8  9  1  1
 10  9  1  0
 11 12  2  0
 11  8  1  0
 13 11  1  0
 14 25  1  0
 14 13  1  0
 14 15  1  6
 16 15  1  0
 17 16  2  0
 18 17  1  0
 19 18  1  0
 19 24  2  0
 20 19  1  0
 21 20  2  0
 21 22  1  0
 22 23  2  0
 23 24  1  0
 24 16  1  0
 25 27  1  0
 26 25  2  0
M  END
$$$$
