CCW.pdb
     RDKit          3D

 27 28  0  0  1  0  0  0  0  0999 V2000
    6.6272  -20.8773   23.2486 N   0  0  0  0  0  0  0  0  0  0  0  0
    6.6532  -19.4796   23.7123 C   0  0  1  0  0  0  0  0  0  0  0  0
    7.3910  -19.4502   25.0223 C   0  0  0  0  0  0  0  0  0  0  0  0
    6.2256  -19.9359   26.3286 S   0  0  0  0  0  0  0  0  0  0  0  0
    7.2142  -18.6271   22.6800 C   0  0  0  0  0  0  0  0  0  0  0  0
    8.2296  -19.0515   22.0368 O   0  0  0  0  0  0  0  0  0  0  0  0
    6.7080  -17.3209   22.3193 N   0  0  0  0  0  0  0  0  0  0  0  0
    7.5693  -16.4563   21.5421 C   0  0  1  0  0  0  0  0  0  0  0  0
    6.6564  -15.3672   20.9733 C   0  0  0  0  0  0  0  0  0  0  0  0
    7.6704  -14.2891   19.9255 S   0  0  0  0  0  0  0  0  0  0  0  0
    8.6845  -15.8911   22.3018 C   0  0  0  0  0  0  0  0  0  0  0  0
    9.5407  -15.1377   21.7334 O   0  0  0  0  0  0  0  0  0  0  0  0
    8.9079  -16.1151   23.6812 N   0  0  0  0  0  0  0  0  0  0  0  0
   10.0298  -15.5097   24.4336 C   0  0  1  0  0  0  0  0  0  0  0  0
    9.4596  -15.4192   25.8463 C   0  0  0  0  0  0  0  0  0  0  0  0
    8.0570  -15.0338   25.9214 C   0  0  0  0  0  0  0  0  0  0  0  0
    6.8821  -15.7040   25.8535 C   0  0  0  0  0  0  0  0  0  0  0  0
    5.8654  -14.8393   26.0031 N   0  0  0  0  0  0  0  0  0  0  0  0
    6.3433  -13.6152   26.1686 C   0  0  0  0  0  0  0  0  0  0  0  0
    5.7136  -12.3930   26.3706 C   0  0  0  0  0  0  0  0  0  0  0  0
    6.4252  -11.2159   26.5337 C   0  0  0  0  0  0  0  0  0  0  0  0
    7.8021  -11.3007   26.4881 C   0  0  0  0  0  0  0  0  0  0  0  0
    8.4256  -12.5192   26.2860 C   0  0  0  0  0  0  0  0  0  0  0  0
    7.7006  -13.6875   26.1239 C   0  0  0  0  0  0  0  0  0  0  0  0
   11.2189  -16.3336   24.3130 C   0  0  0  0  0  0  0  0  0  0  0  0
   12.3140  -15.8842   24.8027 O   0  0  0  0  0  0  0  0  0  0  0  0
   11.2719  -17.5467   23.7232 O   0  0  0  0  0  0  0  0  0  0  0  0
  2  1  1  6
  2  5  1  0
  2  3  1  0
  3  4  1  0
  5  6  2  0
  7  8  1  0
  7  5  1  0
  8  9  1  1
 10  9  1  0
 11 12  2  0
 11  8  1  0
 13 11  1  0
 14 25  1  0
 14 13  1  0
 14 15  1  1
 16 15  1  0
 17 16  2  0
 18 17  1  0
 19 18  1  0
 19 24  2  0
 20 19  1  0
 21 20  2  0
 21 22  1  0
 22 23  2  0
 23 24  1  0
 24 16  1  0
 25 27  1  0
 26 25  2  0
M  END
$$$$
