CCW.pdb
     RDKit          3D

 27 28  0  0  1  0  0  0  0  0999 V2000
    7.7913  -20.9130   21.8625 N   0  0  0  0  0  0  0  0  0  0  0  0
    7.0008  -19.7108   22.1773 C   0  0  1  0  0  0  0  0  0  0  0  0
    6.5823  -19.8080   23.6184 C   0  0  0  0  0  0  0  0  0  0  0  0
    7.3907  -21.2683   24.3356 S   0  0  0  0  0  0  0  0  0  0  0  0
    7.7601  -18.5193   21.8444 C   0  0  0  0  0  0  0  0  0  0  0  0
    8.9603  -18.6652   21.4406 O   0  0  0  0  0  0  0  0  0  0  0  0
    7.2585  -17.1655   21.9356 N   0  0  0  0  0  0  0  0  0  0  0  0
    8.1778  -16.0862   21.6468 C   0  0  1  0  0  0  0  0  0  0  0  0
    7.3083  -14.9187   21.1736 C   0  0  0  0  0  0  0  0  0  0  0  0
    5.7304  -15.0102   22.0625 S   0  0  0  0  0  0  0  0  0  0  0  0
    9.0264  -15.7107   22.7778 C   0  0  0  0  0  0  0  0  0  0  0  0
    9.8235  -14.7204   22.6899 O   0  0  0  0  0  0  0  0  0  0  0  0
    9.0406  -16.3806   24.0244 N   0  0  0  0  0  0  0  0  0  0  0  0
    9.9763  -16.0421   25.1203 C   0  0  1  0  0  0  0  0  0  0  0  0
    9.0688  -16.0913   26.3464 C   0  0  0  0  0  0  0  0  0  0  0  0
    7.8430  -15.3123   26.2376 C   0  0  0  0  0  0  0  0  0  0  0  0
    6.5424  -15.6134   26.0098 C   0  0  0  0  0  0  0  0  0  0  0  0
    5.8128  -14.4860   26.0293 N   0  0  0  0  0  0  0  0  0  0  0  0
    6.6025  -13.4492   26.2653 C   0  0  0  0  0  0  0  0  0  0  0  0
    6.3374  -12.0909   26.3906 C   0  0  0  0  0  0  0  0  0  0  0  0
    7.3352  -11.1671   26.6548 C   0  0  0  0  0  0  0  0  0  0  0  0
    8.6208  -11.6502   26.7915 C   0  0  0  0  0  0  0  0  0  0  0  0
    8.8811  -13.0033   26.6654 C   0  0  0  0  0  0  0  0  0  0  0  0
    7.8732  -13.9147   26.4004 C   0  0  0  0  0  0  0  0  0  0  0  0
   11.0808  -16.9838   25.1474 C   0  0  0  0  0  0  0  0  0  0  0  0
   10.9968  -18.0304   24.4134 O   0  0  0  0  0  0  0  0  0  0  0  0
   12.2023  -16.8511   25.8869 O   0  0  0  0  0  0  0  0  0  0  0  0
  2  1  1  1
  2  5  1  0
  2  3  1  0
  3  4  1  0
  5  6  2  0
  7  8  1  0
  7  5  1  0
  8  9  1  1
 10  9  1  0
 11 12  2  0
 11  8  1  0
 13 11  1  0
 14 25  1  0
 14 13  1  0
 14 15  1  1
 16 15  1  0
 17 16  2  0
 18 17  1  0
 19 18  1  0
 19 24  2  0
 20 19  1  0
 21 20  2  0
 21 22  1  0
 22 23  2  0
 23 24  1  0
 24 16  1  0
 25 27  1  0
 26 25  2  0
M  END
$$$$
