MDW.pdb
     RDKit          3D

 31 32  0  0  1  0  0  0  0  0999 V2000
    7.3624  -11.3495   19.8652 C   0  0  0  0  0  0  0  0  0  0  0  0
    7.8203  -13.0145   20.3900 S   0  0  0  0  0  0  0  0  0  0  0  0
    6.4353  -13.9052   21.1610 C   0  0  0  0  0  0  0  0  0  0  0  0
    6.9159  -15.1638   21.8448 C   0  0  0  0  0  0  0  0  0  0  0  0
    7.8729  -15.9619   20.9958 C   0  0  2  0  0  0  0  0  0  0  0  0
    7.1027  -16.8172   20.1273 N   0  0  0  0  0  0  0  0  0  0  0  0
    8.7586  -16.8012   21.8700 C   0  0  0  0  0  0  0  0  0  0  0  0
    8.1999  -17.8168   22.3916 O   0  0  0  0  0  0  0  0  0  0  0  0
   10.1103  -16.4782   22.0907 N   0  0  0  0  0  0  0  0  0  0  0  0
   10.8972  -17.1838   23.0652 C   0  0  1  0  0  0  0  0  0  0  0  0
   12.3496  -17.1682   22.7164 C   0  0  0  0  0  0  0  0  0  0  0  0
   13.2210  -17.9686   23.5971 C   0  0  0  0  0  0  0  0  0  0  0  0
   13.0443  -19.1856   23.8631 O   0  0  0  0  0  0  0  0  0  0  0  0
   10.6876  -16.6350   24.4313 C   0  0  0  0  0  0  0  0  0  0  0  0
   11.0877  -15.4873   24.6822 O   0  0  0  0  0  0  0  0  0  0  0  0
   14.3401  -17.3900   24.2111 O   0  0  0  0  0  0  0  0  0  0  0  0
   10.0516  -17.3601   25.4634 N   0  0  0  0  0  0  0  0  0  0  0  0
   10.0768  -16.8951   26.8713 C   0  0  1  0  0  0  0  0  0  0  0  0
    8.6939  -16.6531   27.3517 C   0  0  0  0  0  0  0  0  0  0  0  0
    7.7959  -15.8879   26.4846 C   0  0  0  0  0  0  0  0  0  0  0  0
    6.8297  -16.4105   25.6163 C   0  0  0  0  0  0  0  0  0  0  0  0
    6.2116  -15.4276   24.9497 N   0  0  0  0  0  0  0  0  0  0  0  0
    6.7513  -14.2616   25.3621 C   0  0  0  0  0  0  0  0  0  0  0  0
    6.4855  -12.9342   25.0212 C   0  0  0  0  0  0  0  0  0  0  0  0
    7.1720  -11.8969   25.6060 C   0  0  0  0  0  0  0  0  0  0  0  0
    8.1423  -12.1717   26.5476 C   0  0  0  0  0  0  0  0  0  0  0  0
    8.4223  -13.4633   26.8987 C   0  0  0  0  0  0  0  0  0  0  0  0
    7.7316  -14.5223   26.3103 C   0  0  0  0  0  0  0  0  0  0  0  0
   10.8765  -17.8413   27.6462 C   0  0  0  0  0  0  0  0  0  0  0  0
   11.1808  -17.6332   29.0075 O   0  0  0  0  0  0  0  0  0  0  0  0
   11.3451  -18.9031   27.1477 O   0  0  0  0  0  0  0  0  0  0  0  0
  1  2  1  0
  3  4  1  0
  3  2  1  0
  5  4  1  0
  5  6  1  6
  7  8  2  0
  7  5  1  0
  9  7  1  0
 10  9  1  0
 10 11  1  6
 12 16  1  0
 12 11  1  0
 13 12  2  0
 14 17  1  0
 14 10  1  0
 15 14  2  0
 18 29  1  0
 18 17  1  0
 18 19  1  1
 19 20  1  0
 20 21  2  0
 20 28  1  0
 21 22  1  0
 22 23  1  0
 23 24  2  0
 25 24  1  0
 26 25  2  0
 27 28  2  0
 27 26  1  0
 28 23  1  0
 29 30  1  0
 31 29  2  0
M  END
$$$$
