MDW.pdb
     RDKit          3D

 31 32  0  0  1  0  0  0  0  0999 V2000
    7.4111  -11.7647   21.9091 C   0  0  0  0  0  0  0  0  0  0  0  0
    7.0774  -12.1357   20.1747 S   0  0  0  0  0  0  0  0  0  0  0  0
    7.2114  -13.9111   19.8060 C   0  0  0  0  0  0  0  0  0  0  0  0
    7.9370  -14.6398   20.9129 C   0  0  0  0  0  0  0  0  0  0  0  0
    8.0479  -16.1225   20.6626 C   0  0  2  0  0  0  0  0  0  0  0  0
    6.7160  -16.6653   20.5591 N   0  0  0  0  0  0  0  0  0  0  0  0
    8.7719  -16.7832   21.7995 C   0  0  0  0  0  0  0  0  0  0  0  0
    8.0272  -17.3427   22.6643 O   0  0  0  0  0  0  0  0  0  0  0  0
   10.1760  -16.7779   21.8927 N   0  0  0  0  0  0  0  0  0  0  0  0
   10.8545  -17.4258   22.9820 C   0  0  1  0  0  0  0  0  0  0  0  0
   12.3048  -17.6270   22.6861 C   0  0  0  0  0  0  0  0  0  0  0  0
   12.6025  -18.3135   21.4150 C   0  0  0  0  0  0  0  0  0  0  0  0
   13.4590  -17.9281   20.5779 O   0  0  0  0  0  0  0  0  0  0  0  0
   10.6859  -16.6702   24.2517 C   0  0  0  0  0  0  0  0  0  0  0  0
   11.0513  -15.4850   24.2949 O   0  0  0  0  0  0  0  0  0  0  0  0
   11.9162  -19.4819   21.0572 O   0  0  0  0  0  0  0  0  0  0  0  0
   10.1268  -17.2386   25.4179 N   0  0  0  0  0  0  0  0  0  0  0  0
   10.2152  -16.5609   26.7338 C   0  0  1  0  0  0  0  0  0  0  0  0
    8.8572  -16.3756   27.3026 C   0  0  0  0  0  0  0  0  0  0  0  0
    7.9104  -15.5508   26.5497 C   0  0  0  0  0  0  0  0  0  0  0  0
    6.8713  -16.0106   25.7315 C   0  0  0  0  0  0  0  0  0  0  0  0
    6.2227  -14.9836   25.1684 N   0  0  0  0  0  0  0  0  0  0  0  0
    6.8140  -13.8501   25.6002 C   0  0  0  0  0  0  0  0  0  0  0  0
    6.5479  -12.5021   25.3528 C   0  0  0  0  0  0  0  0  0  0  0  0
    7.2961  -11.5087   25.9379 C   0  0  0  0  0  0  0  0  0  0  0  0
    8.3300  -11.8492   26.7859 C   0  0  0  0  0  0  0  0  0  0  0  0
    8.6117  -13.1621   27.0443 C   0  0  0  0  0  0  0  0  0  0  0  0
    7.8586  -14.1769   26.4546 C   0  0  0  0  0  0  0  0  0  0  0  0
   11.1693  -17.2980   27.5594 C   0  0  0  0  0  0  0  0  0  0  0  0
   11.8072  -18.4721   27.1081 O   0  0  0  0  0  0  0  0  0  0  0  0
   11.4826  -16.9318   28.7270 O   0  0  0  0  0  0  0  0  0  0  0  0
  1  2  1  0
  3  4  1  0
  3  2  1  0
  5  4  1  0
  5  6  1  1
  7  8  2  0
  7  5  1  0
  9  7  1  0
 10  9  1  0
 10 11  1  6
 12 16  1  0
 12 11  1  0
 13 12  2  0
 14 17  1  0
 14 10  1  0
 15 14  2  0
 18 29  1  0
 18 17  1  0
 18 19  1  1
 19 20  1  0
 20 21  2  0
 20 28  1  0
 21 22  1  0
 22 23  1  0
 23 24  2  0
 25 24  1  0
 26 25  2  0
 27 28  2  0
 27 26  1  0
 28 23  1  0
 29 30  1  0
 31 29  2  0
M  END
$$$$
