MDW.pdb
     RDKit          3D

 31 32  0  0  1  0  0  0  0  0999 V2000
    7.0822  -11.6716   19.2230 C   0  0  0  0  0  0  0  0  0  0  0  0
    7.9294  -13.1779   19.7431 S   0  0  0  0  0  0  0  0  0  0  0  0
    6.9076  -14.6642   19.5131 C   0  0  0  0  0  0  0  0  0  0  0  0
    7.6162  -15.8931   20.0331 C   0  0  0  0  0  0  0  0  0  0  0  0
    9.0825  -15.6568   20.2929 C   0  0  2  0  0  0  0  0  0  0  0  0
    9.7697  -15.6367   19.0254 N   0  0  0  0  0  0  0  0  0  0  0  0
    9.6375  -16.7593   21.1471 C   0  0  0  0  0  0  0  0  0  0  0  0
    8.9669  -17.0237   22.1940 O   0  0  0  0  0  0  0  0  0  0  0  0
   10.8175  -17.4454   20.8049 N   0  0  0  0  0  0  0  0  0  0  0  0
   11.4016  -18.4146   21.6917 C   0  0  1  0  0  0  0  0  0  0  0  0
   12.5839  -19.0857   21.0726 C   0  0  0  0  0  0  0  0  0  0  0  0
   12.3359  -19.7295   19.7690 C   0  0  0  0  0  0  0  0  0  0  0  0
   11.7835  -20.8499   19.6186 O   0  0  0  0  0  0  0  0  0  0  0  0
   11.7780  -17.8009   22.9929 C   0  0  0  0  0  0  0  0  0  0  0  0
   12.5443  -16.8247   22.9940 O   0  0  0  0  0  0  0  0  0  0  0  0
   12.7201  -19.0997   18.5774 O   0  0  0  0  0  0  0  0  0  0  0  0
   11.3033  -18.2774   24.2352 N   0  0  0  0  0  0  0  0  0  0  0  0
   11.4565  -17.4888   25.4816 C   0  0  1  0  0  0  0  0  0  0  0  0
   10.1845  -16.7962   25.8047 C   0  0  0  0  0  0  0  0  0  0  0  0
   10.1238  -16.0304   27.0511 C   0  0  0  0  0  0  0  0  0  0  0  0
   10.5446  -16.4608   28.3153 C   0  0  0  0  0  0  0  0  0  0  0  0
   10.3112  -15.5188   29.2376 N   0  0  0  0  0  0  0  0  0  0  0  0
    9.7433  -14.4703   28.6059 C   0  0  0  0  0  0  0  0  0  0  0  0
    9.3102  -13.2243   29.0628 C   0  0  0  0  0  0  0  0  0  0  0  0
    8.7706  -12.2978   28.2027 C   0  0  0  0  0  0  0  0  0  0  0  0
    8.6543  -12.6041   26.8624 C   0  0  0  0  0  0  0  0  0  0  0  0
    9.0704  -13.8179   26.3895 C   0  0  0  0  0  0  0  0  0  0  0  0
    9.6184  -14.7645   27.2546 C   0  0  0  0  0  0  0  0  0  0  0  0
   11.9940  -18.3728   26.5135 C   0  0  0  0  0  0  0  0  0  0  0  0
   12.8186  -17.9009   27.5558 O   0  0  0  0  0  0  0  0  0  0  0  0
   11.7551  -19.6130   26.5378 O   0  0  0  0  0  0  0  0  0  0  0  0
  1  2  1  0
  3  4  1  0
  3  2  1  0
  5  4  1  0
  5  6  1  6
  7  8  2  0
  7  5  1  0
  9  7  1  0
 10  9  1  0
 10 11  1  6
 12 16  1  0
 12 11  1  0
 13 12  2  0
 14 17  1  0
 14 10  1  0
 15 14  2  0
 18 29  1  0
 18 17  1  0
 18 19  1  1
 19 20  1  0
 20 21  2  0
 20 28  1  0
 21 22  1  0
 22 23  1  0
 23 24  2  0
 25 24  1  0
 26 25  2  0
 27 28  2  0
 27 26  1  0
 28 23  1  0
 29 30  1  0
 31 29  2  0
M  END
$$$$
