MDW.pdb
     RDKit          3D

 31 32  0  0  1  0  0  0  0  0999 V2000
    6.6847  -11.8139   19.0560 C   0  0  0  0  0  0  0  0  0  0  0  0
    7.5039  -12.5919   20.4633 S   0  0  0  0  0  0  0  0  0  0  0  0
    7.7906  -14.3687   20.2048 C   0  0  0  0  0  0  0  0  0  0  0  0
    8.4568  -14.9898   21.4103 C   0  0  0  0  0  0  0  0  0  0  0  0
    8.6573  -16.4772   21.2663 C   0  0  2  0  0  0  0  0  0  0  0  0
    7.5273  -17.0198   20.5537 N   0  0  0  0  0  0  0  0  0  0  0  0
    8.7504  -17.1170   22.6210 C   0  0  0  0  0  0  0  0  0  0  0  0
    7.8487  -16.7706   23.4471 O   0  0  0  0  0  0  0  0  0  0  0  0
    9.7678  -18.0339   22.9441 N   0  0  0  0  0  0  0  0  0  0  0  0
   11.0882  -17.5898   23.2991 C   0  0  1  0  0  0  0  0  0  0  0  0
   11.5806  -16.5283   22.3704 C   0  0  0  0  0  0  0  0  0  0  0  0
   13.0126  -16.1961   22.4910 C   0  0  0  0  0  0  0  0  0  0  0  0
   13.4671  -15.0308   22.6276 O   0  0  0  0  0  0  0  0  0  0  0  0
   11.1387  -17.1101   24.7058 C   0  0  0  0  0  0  0  0  0  0  0  0
   12.2273  -16.7391   25.1720 O   0  0  0  0  0  0  0  0  0  0  0  0
   13.9847  -17.2051   22.4575 O   0  0  0  0  0  0  0  0  0  0  0  0
   10.0016  -17.0557   25.5423 N   0  0  0  0  0  0  0  0  0  0  0  0
   10.1013  -16.6556   26.9666 C   0  0  1  0  0  0  0  0  0  0  0  0
    8.7559  -16.3230   27.4968 C   0  0  0  0  0  0  0  0  0  0  0  0
    7.8865  -15.4838   26.6700 C   0  0  0  0  0  0  0  0  0  0  0  0
    6.8874  -15.9267   25.7947 C   0  0  0  0  0  0  0  0  0  0  0  0
    6.3100  -14.8911   25.1729 N   0  0  0  0  0  0  0  0  0  0  0  0
    6.9093  -13.7685   25.6219 C   0  0  0  0  0  0  0  0  0  0  0  0
    6.7038  -12.4179   25.3340 C   0  0  0  0  0  0  0  0  0  0  0  0
    7.4452  -11.4372   25.9486 C   0  0  0  0  0  0  0  0  0  0  0  0
    8.4111  -11.7933   26.8673 C   0  0  0  0  0  0  0  0  0  0  0  0
    8.6326  -13.1091   27.1665 C   0  0  0  0  0  0  0  0  0  0  0  0
    7.8859  -14.1111   26.5475 C   0  0  0  0  0  0  0  0  0  0  0  0
   10.8400  -17.6962   27.6785 C   0  0  0  0  0  0  0  0  0  0  0  0
   11.2945  -17.5261   29.0028 O   0  0  0  0  0  0  0  0  0  0  0  0
   11.1181  -18.8114   27.1547 O   0  0  0  0  0  0  0  0  0  0  0  0
  1  2  1  0
  3  4  1  0
  3  2  1  0
  5  4  1  0
  5  6  1  1
  7  8  2  0
  7  5  1  0
  9  7  1  0
 10  9  1  0
 10 11  1  6
 12 16  1  0
 12 11  1  0
 13 12  2  0
 14 17  1  0
 14 10  1  0
 15 14  2  0
 18 29  1  0
 18 17  1  0
 18 19  1  1
 19 20  1  0
 20 21  2  0
 20 28  1  0
 21 22  1  0
 22 23  1  0
 23 24  2  0
 25 24  1  0
 26 25  2  0
 27 28  2  0
 27 26  1  0
 28 23  1  0
 29 30  1  0
 31 29  2  0
M  END
$$$$
