MDW.pdb
     RDKit          3D

 31 32  0  0  1  0  0  0  0  0999 V2000
    8.8486  -11.9056   22.4082 C   0  0  0  0  0  0  0  0  0  0  0  0
    7.2733  -12.6209   21.8948 S   0  0  0  0  0  0  0  0  0  0  0  0
    7.3249  -14.4371   21.8252 C   0  0  0  0  0  0  0  0  0  0  0  0
    7.8327  -14.9124   20.4840 C   0  0  0  0  0  0  0  0  0  0  0  0
    7.9428  -16.4138   20.3988 C   0  0  2  0  0  0  0  0  0  0  0  0
    6.6148  -16.9704   20.4750 N   0  0  0  0  0  0  0  0  0  0  0  0
    8.7709  -16.9341   21.5374 C   0  0  0  0  0  0  0  0  0  0  0  0
    8.1151  -17.4801   22.4794 O   0  0  0  0  0  0  0  0  0  0  0  0
   10.1734  -16.8205   21.5521 N   0  0  0  0  0  0  0  0  0  0  0  0
   10.9635  -17.4556   22.5715 C   0  0  1  0  0  0  0  0  0  0  0  0
   12.3842  -17.6246   22.1421 C   0  0  0  0  0  0  0  0  0  0  0  0
   12.5878  -18.4519   20.9381 C   0  0  0  0  0  0  0  0  0  0  0  0
   13.2301  -18.0864   19.9198 O   0  0  0  0  0  0  0  0  0  0  0  0
   10.8966  -16.7064   23.8543 C   0  0  0  0  0  0  0  0  0  0  0  0
   11.4260  -15.5859   23.9203 O   0  0  0  0  0  0  0  0  0  0  0  0
   12.0524  -19.7448   20.8617 O   0  0  0  0  0  0  0  0  0  0  0  0
   10.2564  -17.2105   25.0083 N   0  0  0  0  0  0  0  0  0  0  0  0
   10.6377  -16.7615   26.3691 C   0  0  1  0  0  0  0  0  0  0  0  0
   10.0170  -15.4460   26.6630 C   0  0  0  0  0  0  0  0  0  0  0  0
    8.5724  -15.3152   26.4643 C   0  0  0  0  0  0  0  0  0  0  0  0
    7.6560  -16.3603   26.2954 C   0  0  0  0  0  0  0  0  0  0  0  0
    6.4209  -15.8803   26.1041 N   0  0  0  0  0  0  0  0  0  0  0  0
    6.5027  -14.5340   26.1441 C   0  0  0  0  0  0  0  0  0  0  0  0
    5.5372  -13.5330   26.0229 C   0  0  0  0  0  0  0  0  0  0  0  0
    5.8724  -12.2036   26.1206 C   0  0  0  0  0  0  0  0  0  0  0  0
    7.1877  -11.8508   26.3426 C   0  0  0  0  0  0  0  0  0  0  0  0
    8.1528  -12.8119   26.4643 C   0  0  0  0  0  0  0  0  0  0  0  0
    7.8223  -14.1632   26.3658 C   0  0  0  0  0  0  0  0  0  0  0  0
   10.3371  -17.8438   27.3037 C   0  0  0  0  0  0  0  0  0  0  0  0
   10.7548  -17.8145   28.6505 O   0  0  0  0  0  0  0  0  0  0  0  0
    9.6859  -18.8721   26.9660 O   0  0  0  0  0  0  0  0  0  0  0  0
  1  2  1  0
  3  4  1  0
  3  2  1  0
  5  4  1  0
  5  6  1  1
  7  8  2  0
  7  5  1  0
  9  7  1  0
 10  9  1  0
 10 11  1  6
 12 16  1  0
 12 11  1  0
 13 12  2  0
 14 17  1  0
 14 10  1  0
 15 14  2  0
 18 29  1  0
 18 17  1  0
 18 19  1  1
 19 20  1  0
 20 21  2  0
 20 28  1  0
 21 22  1  0
 22 23  1  0
 23 24  2  0
 25 24  1  0
 26 25  2  0
 27 28  2  0
 27 26  1  0
 28 23  1  0
 29 30  1  0
 31 29  2  0
M  END
$$$$
