MDW.pdb
     RDKit          3D

 31 32  0  0  1  0  0  0  0  0999 V2000
    7.6527  -11.4551   19.2110 C   0  0  0  0  0  0  0  0  0  0  0  0
    8.1203  -13.0143   19.9905 S   0  0  0  0  0  0  0  0  0  0  0  0
    6.8979  -13.5725   21.2153 C   0  0  0  0  0  0  0  0  0  0  0  0
    7.3999  -14.7831   21.9670 C   0  0  0  0  0  0  0  0  0  0  0  0
    7.9635  -15.8447   21.0565 C   0  0  2  0  0  0  0  0  0  0  0  0
    6.8652  -16.6024   20.5099 N   0  0  0  0  0  0  0  0  0  0  0  0
    8.8677  -16.7591   21.8308 C   0  0  0  0  0  0  0  0  0  0  0  0
    8.2764  -17.6216   22.5534 O   0  0  0  0  0  0  0  0  0  0  0  0
   10.2694  -16.6605   21.7558 N   0  0  0  0  0  0  0  0  0  0  0  0
   11.1193  -17.4178   22.6338 C   0  0  1  0  0  0  0  0  0  0  0  0
   12.4837  -17.6038   22.0547 C   0  0  0  0  0  0  0  0  0  0  0  0
   13.4020  -18.4377   22.8527 C   0  0  0  0  0  0  0  0  0  0  0  0
   13.0611  -19.1201   23.8533 O   0  0  0  0  0  0  0  0  0  0  0  0
   11.2095  -16.7874   23.9776 C   0  0  0  0  0  0  0  0  0  0  0  0
   11.8729  -15.7465   24.1062 O   0  0  0  0  0  0  0  0  0  0  0  0
   14.7621  -18.5167   22.5241 O   0  0  0  0  0  0  0  0  0  0  0  0
   10.5734  -17.3184   25.1218 N   0  0  0  0  0  0  0  0  0  0  0  0
   10.6813  -16.6626   26.4473 C   0  0  1  0  0  0  0  0  0  0  0  0
   10.0861  -15.3044   26.3927 C   0  0  0  0  0  0  0  0  0  0  0  0
    8.6421  -15.2020   26.1737 C   0  0  0  0  0  0  0  0  0  0  0  0
    7.7493  -16.2650   25.9903 C   0  0  0  0  0  0  0  0  0  0  0  0
    6.5077  -15.8095   25.7821 N   0  0  0  0  0  0  0  0  0  0  0  0
    6.5620  -14.4618   25.8253 C   0  0  0  0  0  0  0  0  0  0  0  0
    5.5784  -13.4801   25.6918 C   0  0  0  0  0  0  0  0  0  0  0  0
    5.8856  -12.1445   25.7962 C   0  0  0  0  0  0  0  0  0  0  0  0
    7.1903  -11.7658   26.0374 C   0  0  0  0  0  0  0  0  0  0  0  0
    8.1726  -12.7077   26.1714 C   0  0  0  0  0  0  0  0  0  0  0  0
    7.8707  -14.0651   26.0663 C   0  0  0  0  0  0  0  0  0  0  0  0
   10.1298  -17.5727   27.4488 C   0  0  0  0  0  0  0  0  0  0  0  0
   10.2178  -17.3138   28.8324 O   0  0  0  0  0  0  0  0  0  0  0  0
    9.5406  -18.6465   27.1401 O   0  0  0  0  0  0  0  0  0  0  0  0
  1  2  1  0
  3  4  1  0
  3  2  1  0
  5  4  1  0
  5  6  1  1
  7  8  2  0
  7  5  1  0
  9  7  1  0
 10  9  1  0
 10 11  1  6
 12 16  1  0
 12 11  1  0
 13 12  2  0
 14 17  1  0
 14 10  1  0
 15 14  2  0
 18 29  1  0
 18 17  1  0
 18 19  1  6
 19 20  1  0
 20 21  2  0
 20 28  1  0
 21 22  1  0
 22 23  1  0
 23 24  2  0
 25 24  1  0
 26 25  2  0
 27 28  2  0
 27 26  1  0
 28 23  1  0
 29 30  1  0
 31 29  2  0
M  END
$$$$
