MDW.pdb
     RDKit          3D

 31 32  0  0  1  0  0  0  0  0999 V2000
    8.6756  -11.8500   19.9915 C   0  0  0  0  0  0  0  0  0  0  0  0
    7.1238  -12.3072   20.7914 S   0  0  0  0  0  0  0  0  0  0  0  0
    6.8350  -14.1023   20.7721 C   0  0  0  0  0  0  0  0  0  0  0  0
    7.7916  -14.8137   21.7002 C   0  0  0  0  0  0  0  0  0  0  0  0
    8.0082  -16.2573   21.3227 C   0  0  2  0  0  0  0  0  0  0  0  0
    6.7518  -16.9529   21.4526 N   0  0  0  0  0  0  0  0  0  0  0  0
    9.0236  -16.8808   22.2355 C   0  0  0  0  0  0  0  0  0  0  0  0
    8.5480  -17.6390   23.1380 O   0  0  0  0  0  0  0  0  0  0  0  0
   10.4023  -16.6368   22.0943 N   0  0  0  0  0  0  0  0  0  0  0  0
   11.3574  -17.1968   23.0113 C   0  0  1  0  0  0  0  0  0  0  0  0
   12.7427  -17.1623   22.4532 C   0  0  0  0  0  0  0  0  0  0  0  0
   12.9090  -17.7960   21.1318 C   0  0  0  0  0  0  0  0  0  0  0  0
   12.6181  -18.9920   20.8708 O   0  0  0  0  0  0  0  0  0  0  0  0
   11.3132  -16.5073   24.3281 C   0  0  0  0  0  0  0  0  0  0  0  0
   11.8704  -15.4045   24.4443 O   0  0  0  0  0  0  0  0  0  0  0  0
   13.4229  -17.0675   20.0504 O   0  0  0  0  0  0  0  0  0  0  0  0
   10.6642  -17.0491   25.4599 N   0  0  0  0  0  0  0  0  0  0  0  0
   10.7685  -16.4138   26.7956 C   0  0  1  0  0  0  0  0  0  0  0  0
   10.0775  -15.1006   26.7895 C   0  0  0  0  0  0  0  0  0  0  0  0
    8.6604  -15.0786   26.4223 C   0  0  0  0  0  0  0  0  0  0  0  0
    7.8562  -16.1884   26.1353 C   0  0  0  0  0  0  0  0  0  0  0  0
    6.6179  -15.8022   25.8038 N   0  0  0  0  0  0  0  0  0  0  0  0
    6.5871  -14.4546   25.8671 C   0  0  0  0  0  0  0  0  0  0  0  0
    5.5659  -13.5296   25.6424 C   0  0  0  0  0  0  0  0  0  0  0  0
    5.7805  -12.1803   25.7928 C   0  0  0  0  0  0  0  0  0  0  0  0
    7.0284  -11.7307   26.1728 C   0  0  0  0  0  0  0  0  0  0  0  0
    8.0459  -12.6161   26.3982 C   0  0  0  0  0  0  0  0  0  0  0  0
    7.8379  -13.9867   26.2474 C   0  0  0  0  0  0  0  0  0  0  0  0
   10.3154  -17.3805   27.7933 C   0  0  0  0  0  0  0  0  0  0  0  0
    9.7839  -18.6376   27.4379 O   0  0  0  0  0  0  0  0  0  0  0  0
   10.3704  -17.1525   29.0345 O   0  0  0  0  0  0  0  0  0  0  0  0
  1  2  1  0
  3  4  1  0
  3  2  1  0
  5  4  1  0
  5  6  1  1
  7  8  2  0
  7  5  1  0
  9  7  1  0
 10  9  1  0
 10 11  1  6
 12 16  1  0
 12 11  1  0
 13 12  2  0
 14 17  1  0
 14 10  1  0
 15 14  2  0
 18 29  1  0
 18 17  1  0
 18 19  1  6
 19 20  1  0
 20 21  2  0
 20 28  1  0
 21 22  1  0
 22 23  1  0
 23 24  2  0
 25 24  1  0
 26 25  2  0
 27 28  2  0
 27 26  1  0
 28 23  1  0
 29 30  1  0
 31 29  2  0
M  END
$$$$
