MDW.pdb
     RDKit          3D

 31 32  0  0  1  0  0  0  0  0999 V2000
    8.8760  -12.0455   20.4613 C   0  0  0  0  0  0  0  0  0  0  0  0
    7.1000  -12.1259   20.7719 S   0  0  0  0  0  0  0  0  0  0  0  0
    6.4570  -13.8246   20.6907 C   0  0  0  0  0  0  0  0  0  0  0  0
    7.2537  -14.7474   21.5831 C   0  0  0  0  0  0  0  0  0  0  0  0
    7.5344  -16.0830   20.9419 C   0  0  2  0  0  0  0  0  0  0  0  0
    6.2882  -16.7979   20.8202 N   0  0  0  0  0  0  0  0  0  0  0  0
    8.4849  -16.8728   21.7939 C   0  0  0  0  0  0  0  0  0  0  0  0
    7.9389  -17.6202   22.6650 O   0  0  0  0  0  0  0  0  0  0  0  0
    9.8800  -16.7849   21.6325 N   0  0  0  0  0  0  0  0  0  0  0  0
   10.7796  -17.4447   22.5391 C   0  0  1  0  0  0  0  0  0  0  0  0
   12.1466  -17.5860   21.9535 C   0  0  0  0  0  0  0  0  0  0  0  0
   13.1424  -18.2428   22.8209 C   0  0  0  0  0  0  0  0  0  0  0  0
   12.8929  -19.2007   23.5976 O   0  0  0  0  0  0  0  0  0  0  0  0
   10.8475  -16.7378   23.8456 C   0  0  0  0  0  0  0  0  0  0  0  0
   11.5116  -15.6925   23.9259 O   0  0  0  0  0  0  0  0  0  0  0  0
   14.4770  -17.8151   22.8262 O   0  0  0  0  0  0  0  0  0  0  0  0
   10.1891  -17.2004   25.0068 N   0  0  0  0  0  0  0  0  0  0  0  0
   10.5681  -16.7236   26.3588 C   0  0  1  0  0  0  0  0  0  0  0  0
   10.0879  -15.3342   26.5612 C   0  0  0  0  0  0  0  0  0  0  0  0
    8.6929  -15.0405   26.2275 C   0  0  0  0  0  0  0  0  0  0  0  0
    7.7035  -15.9710   25.8869 C   0  0  0  0  0  0  0  0  0  0  0  0
    6.5488  -15.3532   25.6085 N   0  0  0  0  0  0  0  0  0  0  0  0
    6.7558  -14.0283   25.7596 C   0  0  0  0  0  0  0  0  0  0  0  0
    5.9105  -12.9263   25.6180 C   0  0  0  0  0  0  0  0  0  0  0  0
    6.3602  -11.6484   25.8507 C   0  0  0  0  0  0  0  0  0  0  0  0
    7.6715  -11.4502   26.2314 C   0  0  0  0  0  0  0  0  0  0  0  0
    8.5201  -12.5127   26.3766 C   0  0  0  0  0  0  0  0  0  0  0  0
    8.0731  -13.8126   26.1419 C   0  0  0  0  0  0  0  0  0  0  0  0
   10.1146  -17.7149   27.3319 C   0  0  0  0  0  0  0  0  0  0  0  0
    9.3877  -18.8633   26.9552 O   0  0  0  0  0  0  0  0  0  0  0  0
   10.3438  -17.6067   28.5694 O   0  0  0  0  0  0  0  0  0  0  0  0
  1  2  1  0
  3  4  1  0
  3  2  1  0
  5  4  1  0
  5  6  1  1
  7  8  2  0
  7  5  1  0
  9  7  1  0
 10  9  1  0
 10 11  1  6
 12 16  1  0
 12 11  1  0
 13 12  2  0
 14 17  1  0
 14 10  1  0
 15 14  2  0
 18 29  1  0
 18 17  1  0
 18 19  1  1
 19 20  1  0
 20 21  2  0
 20 28  1  0
 21 22  1  0
 22 23  1  0
 23 24  2  0
 25 24  1  0
 26 25  2  0
 27 28  2  0
 27 26  1  0
 28 23  1  0
 29 30  1  0
 31 29  2  0
M  END
$$$$
