MDW.pdb
     RDKit          3D

 31 32  0  0  1  0  0  0  0  0999 V2000
    7.4763  -11.5345   19.2824 C   0  0  0  0  0  0  0  0  0  0  0  0
    7.9979  -13.0328   20.1427 S   0  0  0  0  0  0  0  0  0  0  0  0
    6.6005  -13.9322   20.8805 C   0  0  0  0  0  0  0  0  0  0  0  0
    7.0865  -15.0845   21.7283 C   0  0  0  0  0  0  0  0  0  0  0  0
    7.9220  -16.0706   20.9517 C   0  0  2  0  0  0  0  0  0  0  0  0
    7.0340  -16.9356   20.2153 N   0  0  0  0  0  0  0  0  0  0  0  0
    8.7559  -16.8909   21.8923 C   0  0  0  0  0  0  0  0  0  0  0  0
    8.1493  -17.8575   22.4520 O   0  0  0  0  0  0  0  0  0  0  0  0
   10.1123  -16.6023   22.1311 N   0  0  0  0  0  0  0  0  0  0  0  0
   10.8582  -17.3026   23.1411 C   0  0  1  0  0  0  0  0  0  0  0  0
   12.3211  -17.3113   22.8389 C   0  0  0  0  0  0  0  0  0  0  0  0
   12.6735  -17.1945   21.4114 C   0  0  0  0  0  0  0  0  0  0  0  0
   12.5357  -18.1138   20.5635 O   0  0  0  0  0  0  0  0  0  0  0  0
   10.6125  -16.7298   24.4912 C   0  0  0  0  0  0  0  0  0  0  0  0
   10.8108  -15.5180   24.6715 O   0  0  0  0  0  0  0  0  0  0  0  0
   13.2044  -16.0014   20.9026 O   0  0  0  0  0  0  0  0  0  0  0  0
   10.1618  -17.5017   25.5851 N   0  0  0  0  0  0  0  0  0  0  0  0
   10.0741  -16.9366   26.9532 C   0  0  1  0  0  0  0  0  0  0  0  0
    8.6654  -16.9497   27.4195 C   0  0  0  0  0  0  0  0  0  0  0  0
    7.7215  -16.0452   26.7602 C   0  0  0  0  0  0  0  0  0  0  0  0
    6.6536  -16.4132   25.9327 C   0  0  0  0  0  0  0  0  0  0  0  0
    6.0169  -15.3294   25.4718 N   0  0  0  0  0  0  0  0  0  0  0  0
    6.6444  -14.2485   25.9806 C   0  0  0  0  0  0  0  0  0  0  0  0
    6.4047  -12.8793   25.8513 C   0  0  0  0  0  0  0  0  0  0  0  0
    7.1892  -11.9541   26.4976 C   0  0  0  0  0  0  0  0  0  0  0  0
    8.2336  -12.3857   27.2892 C   0  0  0  0  0  0  0  0  0  0  0  0
    8.4901  -13.7213   27.4319 C   0  0  0  0  0  0  0  0  0  0  0  0
    7.7000  -14.6674   26.7795 C   0  0  0  0  0  0  0  0  0  0  0  0
   11.0424  -17.6361   27.7948 C   0  0  0  0  0  0  0  0  0  0  0  0
   11.3034  -17.2484   29.1255 O   0  0  0  0  0  0  0  0  0  0  0  0
   11.7060  -18.6298   27.3853 O   0  0  0  0  0  0  0  0  0  0  0  0
  1  2  1  0
  3  4  1  0
  3  2  1  0
  5  4  1  0
  5  6  1  1
  7  8  2  0
  7  5  1  0
  9  7  1  0
 10  9  1  0
 10 11  1  6
 12 16  1  0
 12 11  1  0
 13 12  2  0
 14 17  1  0
 14 10  1  0
 15 14  2  0
 18 29  1  0
 18 17  1  0
 18 19  1  1
 19 20  1  0
 20 21  2  0
 20 28  1  0
 21 22  1  0
 22 23  1  0
 23 24  2  0
 25 24  1  0
 26 25  2  0
 27 28  2  0
 27 26  1  0
 28 23  1  0
 29 30  1  0
 31 29  2  0
M  END
$$$$
