MDW.pdb
     RDKit          3D

 31 32  0  0  1  0  0  0  0  0999 V2000
    7.7512  -11.6048   21.9311 C   0  0  0  0  0  0  0  0  0  0  0  0
    7.3826  -12.0364   20.2179 S   0  0  0  0  0  0  0  0  0  0  0  0
    7.0056  -13.8032   20.0124 C   0  0  0  0  0  0  0  0  0  0  0  0
    7.9076  -14.6525   20.8772 C   0  0  0  0  0  0  0  0  0  0  0  0
    7.5862  -16.1231   20.7900 C   0  0  2  0  0  0  0  0  0  0  0  0
    6.2181  -16.3131   21.2039 N   0  0  0  0  0  0  0  0  0  0  0  0
    8.4966  -16.9028   21.6935 C   0  0  0  0  0  0  0  0  0  0  0  0
    7.9171  -17.5391   22.6288 O   0  0  0  0  0  0  0  0  0  0  0  0
    9.8917  -16.9214   21.5102 N   0  0  0  0  0  0  0  0  0  0  0  0
   10.7555  -17.6195   22.4230 C   0  0  1  0  0  0  0  0  0  0  0  0
   12.1039  -17.8635   21.8281 C   0  0  0  0  0  0  0  0  0  0  0  0
   13.0448  -18.6159   22.6791 C   0  0  0  0  0  0  0  0  0  0  0  0
   14.2981  -18.5368   22.6024 O   0  0  0  0  0  0  0  0  0  0  0  0
   10.8837  -16.8905   23.7128 C   0  0  0  0  0  0  0  0  0  0  0  0
   11.6586  -15.9234   23.7783 O   0  0  0  0  0  0  0  0  0  0  0  0
   12.5712  -19.4975   23.6603 O   0  0  0  0  0  0  0  0  0  0  0  0
   10.1623  -17.2468   24.8739 N   0  0  0  0  0  0  0  0  0  0  0  0
   10.4996  -16.6836   26.2035 C   0  0  1  0  0  0  0  0  0  0  0  0
   10.0717  -15.2647   26.2782 C   0  0  0  0  0  0  0  0  0  0  0  0
    8.6725  -14.9586   25.9744 C   0  0  0  0  0  0  0  0  0  0  0  0
    7.6627  -15.8819   25.6771 C   0  0  0  0  0  0  0  0  0  0  0  0
    6.5094  -15.2540   25.4162 N   0  0  0  0  0  0  0  0  0  0  0  0
    6.7373  -13.9294   25.5364 C   0  0  0  0  0  0  0  0  0  0  0  0
    5.9031  -12.8189   25.3950 C   0  0  0  0  0  0  0  0  0  0  0  0
    6.3752  -11.5431   25.5915 C   0  0  0  0  0  0  0  0  0  0  0  0
    7.6983  -11.3554   25.9350 C   0  0  0  0  0  0  0  0  0  0  0  0
    8.5364  -12.4262   26.0790 C   0  0  0  0  0  0  0  0  0  0  0  0
    8.0667  -13.7243   25.8809 C   0  0  0  0  0  0  0  0  0  0  0  0
    9.9594  -17.5786   27.2245 C   0  0  0  0  0  0  0  0  0  0  0  0
   10.2169  -17.3966   28.5992 O   0  0  0  0  0  0  0  0  0  0  0  0
    9.2294  -18.5700   26.9419 O   0  0  0  0  0  0  0  0  0  0  0  0
  1  2  1  0
  3  4  1  0
  3  2  1  0
  5  4  1  0
  5  6  1  1
  7  8  2  0
  7  5  1  0
  9  7  1  0
 10  9  1  0
 10 11  1  6
 12 16  1  0
 12 11  1  0
 13 12  2  0
 14 17  1  0
 14 10  1  0
 15 14  2  0
 18 29  1  0
 18 17  1  0
 18 19  1  6
 19 20  1  0
 20 21  2  0
 20 28  1  0
 21 22  1  0
 22 23  1  0
 23 24  2  0
 25 24  1  0
 26 25  2  0
 27 28  2  0
 27 26  1  0
 28 23  1  0
 29 30  1  0
 31 29  2  0
M  END
$$$$
