MDW.pdb
     RDKit          3D

 31 32  0  0  1  0  0  0  0  0999 V2000
    7.5904  -12.0865   21.1420 C   0  0  0  0  0  0  0  0  0  0  0  0
    7.5659  -12.9355   19.5497 S   0  0  0  0  0  0  0  0  0  0  0  0
    6.7823  -14.5733   19.6478 C   0  0  0  0  0  0  0  0  0  0  0  0
    7.1443  -15.2692   20.9390 C   0  0  0  0  0  0  0  0  0  0  0  0
    8.6318  -15.4471   21.1106 C   0  0  2  0  0  0  0  0  0  0  0  0
    9.1745  -15.9446   19.8708 N   0  0  0  0  0  0  0  0  0  0  0  0
    8.9085  -16.4308   22.2101 C   0  0  0  0  0  0  0  0  0  0  0  0
    8.0352  -16.4724   23.1326 O   0  0  0  0  0  0  0  0  0  0  0  0
   10.0565  -17.2445   22.2108 N   0  0  0  0  0  0  0  0  0  0  0  0
   10.3705  -18.0918   23.3290 C   0  0  1  0  0  0  0  0  0  0  0  0
   11.4724  -19.0468   23.0043 C   0  0  0  0  0  0  0  0  0  0  0  0
   11.2927  -19.8226   21.7628 C   0  0  0  0  0  0  0  0  0  0  0  0
   10.2176  -20.3761   21.4150 O   0  0  0  0  0  0  0  0  0  0  0  0
   10.7174  -17.2925   24.5340 C   0  0  0  0  0  0  0  0  0  0  0  0
   11.5746  -16.4008   24.4333 O   0  0  0  0  0  0  0  0  0  0  0  0
   12.3568  -19.9919   20.8667 O   0  0  0  0  0  0  0  0  0  0  0  0
   10.1155  -17.4995   25.7951 N   0  0  0  0  0  0  0  0  0  0  0  0
   10.6343  -16.8478   27.0219 C   0  0  1  0  0  0  0  0  0  0  0  0
   10.1863  -15.4341   27.0749 C   0  0  0  0  0  0  0  0  0  0  0  0
    8.8250  -15.1340   26.6274 C   0  0  0  0  0  0  0  0  0  0  0  0
    7.8245  -16.0640   26.3196 C   0  0  0  0  0  0  0  0  0  0  0  0
    6.7113  -15.4432   25.9099 N   0  0  0  0  0  0  0  0  0  0  0  0
    6.9567  -14.1166   25.9416 C   0  0  0  0  0  0  0  0  0  0  0  0
    6.1616  -13.0097   25.6390 C   0  0  0  0  0  0  0  0  0  0  0  0
    6.6426  -11.7289   25.7716 C   0  0  0  0  0  0  0  0  0  0  0  0
    7.9354  -11.5326   26.2119 C   0  0  0  0  0  0  0  0  0  0  0  0
    8.7350  -12.5999   26.5142 C   0  0  0  0  0  0  0  0  0  0  0  0
    8.2560  -13.9030   26.3821 C   0  0  0  0  0  0  0  0  0  0  0  0
   10.2767  -17.6849   28.1650 C   0  0  0  0  0  0  0  0  0  0  0  0
    9.1693  -17.4001   28.9907 O   0  0  0  0  0  0  0  0  0  0  0  0
   10.9348  -18.7142   28.4859 O   0  0  0  0  0  0  0  0  0  0  0  0
  1  2  1  0
  3  4  1  0
  3  2  1  0
  5  4  1  0
  5  6  1  6
  7  8  2  0
  7  5  1  0
  9  7  1  0
 10  9  1  0
 10 11  1  6
 12 16  1  0
 12 11  1  0
 13 12  2  0
 14 17  1  0
 14 10  1  0
 15 14  2  0
 18 29  1  0
 18 17  1  0
 18 19  1  1
 19 20  1  0
 20 21  2  0
 20 28  1  0
 21 22  1  0
 22 23  1  0
 23 24  2  0
 25 24  1  0
 26 25  2  0
 27 28  2  0
 27 26  1  0
 28 23  1  0
 29 30  1  0
 31 29  2  0
M  END
$$$$
