MDW.pdb
     RDKit          3D

 31 32  0  0  1  0  0  0  0  0999 V2000
    7.2488  -11.1890   20.6834 C   0  0  0  0  0  0  0  0  0  0  0  0
    7.7532  -12.1740   19.2577 S   0  0  0  0  0  0  0  0  0  0  0  0
    8.8888  -13.5200   19.7102 C   0  0  0  0  0  0  0  0  0  0  0  0
    8.1367  -14.6792   20.3211 C   0  0  0  0  0  0  0  0  0  0  0  0
    8.5439  -16.0107   19.7424 C   0  0  2  0  0  0  0  0  0  0  0  0
    7.4780  -16.4802   18.8924 N   0  0  0  0  0  0  0  0  0  0  0  0
    8.7786  -17.0008   20.8459 C   0  0  0  0  0  0  0  0  0  0  0  0
    7.8657  -17.8725   20.9953 O   0  0  0  0  0  0  0  0  0  0  0  0
    9.9307  -16.9586   21.6528 N   0  0  0  0  0  0  0  0  0  0  0  0
   10.1205  -17.8882   22.7328 C   0  0  1  0  0  0  0  0  0  0  0  0
   11.0302  -19.0072   22.3431 C   0  0  0  0  0  0  0  0  0  0  0  0
   11.4120  -19.9224   23.4350 C   0  0  0  0  0  0  0  0  0  0  0  0
   10.6533  -20.2657   24.3782 O   0  0  0  0  0  0  0  0  0  0  0  0
   10.6321  -17.2064   23.9513 C   0  0  0  0  0  0  0  0  0  0  0  0
   11.7670  -16.7050   23.9236 O   0  0  0  0  0  0  0  0  0  0  0  0
   12.6962  -20.4816   23.4814 O   0  0  0  0  0  0  0  0  0  0  0  0
    9.8852  -17.1005   25.1457 N   0  0  0  0  0  0  0  0  0  0  0  0
   10.4879  -16.5822   26.3975 C   0  0  1  0  0  0  0  0  0  0  0  0
    9.9082  -15.2574   26.7304 C   0  0  0  0  0  0  0  0  0  0  0  0
    8.5403  -14.9820   26.2872 C   0  0  0  0  0  0  0  0  0  0  0  0
    7.5453  -15.9290   26.0158 C   0  0  0  0  0  0  0  0  0  0  0  0
    6.4229  -15.3298   25.5989 N   0  0  0  0  0  0  0  0  0  0  0  0
    6.6568  -14.0008   25.5901 C   0  0  0  0  0  0  0  0  0  0  0  0
    5.8493  -12.9099   25.2633 C   0  0  0  0  0  0  0  0  0  0  0  0
    6.3201  -11.6218   25.3544 C   0  0  0  0  0  0  0  0  0  0  0  0
    7.6151  -11.4018   25.7767 C   0  0  0  0  0  0  0  0  0  0  0  0
    8.4269  -12.4531   26.1020 C   0  0  0  0  0  0  0  0  0  0  0  0
    7.9582  -13.7635   26.0120 C   0  0  0  0  0  0  0  0  0  0  0  0
   10.3677  -17.6185   27.4206 C   0  0  0  0  0  0  0  0  0  0  0  0
    9.6173  -18.7952   27.2172 O   0  0  0  0  0  0  0  0  0  0  0  0
   10.9266  -17.5268   28.5497 O   0  0  0  0  0  0  0  0  0  0  0  0
  1  2  1  0
  3  4  1  0
  3  2  1  0
  5  4  1  0
  5  6  1  6
  7  8  2  0
  7  5  1  0
  9  7  1  0
 10  9  1  0
 10 11  1  6
 12 16  1  0
 12 11  1  0
 13 12  2  0
 14 17  1  0
 14 10  1  0
 15 14  2  0
 18 29  1  0
 18 17  1  0
 18 19  1  1
 19 20  1  0
 20 21  2  0
 20 28  1  0
 21 22  1  0
 22 23  1  0
 23 24  2  0
 25 24  1  0
 26 25  2  0
 27 28  2  0
 27 26  1  0
 28 23  1  0
 29 30  1  0
 31 29  2  0
M  END
$$$$
