WQC.pdb
     RDKit          3D

 30 31  0  0  1  0  0  0  0  0999 V2000
    6.1146  -18.5467   23.8788 N   0  0  0  0  0  0  0  0  0  0  0  0
    6.4407  -17.1568   23.8484 C   0  0  1  0  0  0  0  0  0  0  0  0
    7.2103  -16.6639   25.0489 C   0  0  0  0  0  0  0  0  0  0  0  0
    6.6404  -15.4776   25.6929 C   0  0  0  0  0  0  0  0  0  0  0  0
    5.3939  -15.3779   26.2439 C   0  0  0  0  0  0  0  0  0  0  0  0
    5.2715  -14.1242   26.7493 N   0  0  0  0  0  0  0  0  0  0  0  0
    6.3978  -13.4278   26.5365 C   0  0  0  0  0  0  0  0  0  0  0  0
    6.7561  -12.1378   26.8513 C   0  0  0  0  0  0  0  0  0  0  0  0
    8.0064  -11.6536   26.5042 C   0  0  0  0  0  0  0  0  0  0  0  0
    8.8902  -12.4776   25.8389 C   0  0  0  0  0  0  0  0  0  0  0  0
    8.5155  -13.7683   25.5307 C   0  0  0  0  0  0  0  0  0  0  0  0
    7.2732  -14.2729   25.8679 C   0  0  0  0  0  0  0  0  0  0  0  0
    7.2182  -16.7833   22.6350 C   0  0  0  0  0  0  0  0  0  0  0  0
    7.8776  -17.6833   22.0082 O   0  0  0  0  0  0  0  0  0  0  0  0
    7.2349  -13.4273   17.3484 N   0  0  0  0  0  0  0  0  0  0  0  0
    8.2617  -13.8230   18.2438 C   0  0  0  0  0  0  0  0  0  0  0  0
    8.9273  -14.8567   17.8937 O   0  0  0  0  0  0  0  0  0  0  0  0
    8.5649  -13.0972   19.5169 C   0  0  0  0  0  0  0  0  0  0  0  0
    7.6556  -13.6313   20.5734 C   0  0  0  0  0  0  0  0  0  0  0  0
    8.0432  -14.9807   21.0903 C   0  0  2  0  0  0  0  0  0  0  0  0
    7.2214  -15.4409   22.1860 N   0  0  0  0  0  0  0  0  0  0  0  0
    9.4745  -15.1003   21.4224 C   0  0  0  0  0  0  0  0  0  0  0  0
   10.3061  -14.8704   20.5070 O   0  0  0  0  0  0  0  0  0  0  0  0
    9.9729  -15.4534   22.6919 N   0  0  0  0  0  0  0  0  0  0  0  0
   11.4007  -15.5828   22.8760 C   0  0  1  0  0  0  0  0  0  0  0  0
   11.7330  -15.1412   24.2892 C   0  0  0  0  0  0  0  0  0  0  0  0
   10.7592  -16.2247   25.3985 S   0  0  0  0  0  0  0  0  0  0  0  0
   11.9026  -16.9416   22.5904 C   0  0  0  0  0  0  0  0  0  0  0  0
   13.2544  -17.1797   22.5688 O   0  0  0  0  0  0  0  0  0  0  0  0
   11.1066  -17.8729   22.3692 O   0  0  0  0  0  0  0  0  0  0  0  0
  2  1  1  1
  2  3  1  0
  3  4  1  0
  4  5  2  0
  5  6  1  0
  7  6  1  0
  8  7  2  0
  9  8  1  0
 10 11  1  0
 10  9  2  0
 11 12  2  0
 12  4  1  0
 12  7  1  0
 13  2  1  0
 13 21  1  0
 14 13  2  0
 16 17  2  0
 16 15  1  0
 18 16  1  0
 20 19  1  1
 19 18  1  0
 21 20  1  0
 22 20  1  0
 23 22  2  0
 24 22  1  0
 25 28  1  0
 25 24  1  0
 25 26  1  1
 27 26  1  0
 28 29  1  0
 30 28  2  0
M  END
$$$$
