WQC.pdb
     RDKit          3D

 30 31  0  0  1  0  0  0  0  0999 V2000
    6.3834  -18.5698   24.2278 N   0  0  0  0  0  0  0  0  0  0  0  0
    6.7008  -17.1942   24.0131 C   0  0  1  0  0  0  0  0  0  0  0  0
    7.3464  -16.5055   25.1902 C   0  0  0  0  0  0  0  0  0  0  0  0
    6.5842  -15.3757   25.7282 C   0  0  0  0  0  0  0  0  0  0  0  0
    5.3074  -15.4203   26.2129 C   0  0  0  0  0  0  0  0  0  0  0  0
    4.9862  -14.1690   26.6291 N   0  0  0  0  0  0  0  0  0  0  0  0
    6.0161  -13.3348   26.4239 C   0  0  0  0  0  0  0  0  0  0  0  0
    6.1758  -11.9911   26.6701 C   0  0  0  0  0  0  0  0  0  0  0  0
    7.3649  -11.3570   26.3506 C   0  0  0  0  0  0  0  0  0  0  0  0
    8.3889  -12.0859   25.7823 C   0  0  0  0  0  0  0  0  0  0  0  0
    8.2127  -13.4320   25.5421 C   0  0  0  0  0  0  0  0  0  0  0  0
    7.0349  -14.0859   25.8534 C   0  0  0  0  0  0  0  0  0  0  0  0
    7.5900  -16.9945   22.8359 C   0  0  0  0  0  0  0  0  0  0  0  0
    8.3496  -17.9500   22.4515 O   0  0  0  0  0  0  0  0  0  0  0  0
    7.9992  -12.1085   17.6517 N   0  0  0  0  0  0  0  0  0  0  0  0
    8.1628  -13.4630   18.0405 C   0  0  0  0  0  0  0  0  0  0  0  0
    7.5070  -14.3156   17.3497 O   0  0  0  0  0  0  0  0  0  0  0  0
    9.0370  -13.8906   19.1773 C   0  0  0  0  0  0  0  0  0  0  0  0
    8.1550  -14.1813   20.3459 C   0  0  0  0  0  0  0  0  0  0  0  0
    8.4721  -15.4635   21.0487 C   0  0  2  0  0  0  0  0  0  0  0  0
    7.5876  -15.7543   22.1537 N   0  0  0  0  0  0  0  0  0  0  0  0
    9.8825  -15.5808   21.4614 C   0  0  0  0  0  0  0  0  0  0  0  0
   10.7636  -15.4066   20.5807 O   0  0  0  0  0  0  0  0  0  0  0  0
   10.3094  -15.8739   22.7715 N   0  0  0  0  0  0  0  0  0  0  0  0
   11.7254  -15.9710   23.0448 C   0  0  1  0  0  0  0  0  0  0  0  0
   11.9393  -15.6819   24.5190 C   0  0  0  0  0  0  0  0  0  0  0  0
   11.0228  -16.9818   25.4262 S   0  0  0  0  0  0  0  0  0  0  0  0
   12.3063  -17.2690   22.6475 C   0  0  0  0  0  0  0  0  0  0  0  0
   13.6683  -17.4395   22.6585 O   0  0  0  0  0  0  0  0  0  0  0  0
   11.5675  -18.2099   22.3028 O   0  0  0  0  0  0  0  0  0  0  0  0
  2  1  1  1
  2  3  1  0
  3  4  1  0
  4  5  2  0
  5  6  1  0
  7  6  1  0
  8  7  2  0
  9  8  1  0
 10 11  1  0
 10  9  2  0
 11 12  2  0
 12  4  1  0
 12  7  1  0
 13  2  1  0
 13 21  1  0
 14 13  2  0
 16 17  2  0
 16 15  1  0
 18 16  1  0
 20 19  1  1
 19 18  1  0
 21 20  1  0
 22 20  1  0
 23 22  2  0
 24 22  1  0
 25 28  1  0
 25 24  1  0
 25 26  1  1
 27 26  1  0
 28 29  1  0
 30 28  2  0
M  END
$$$$
