WQC.pdb
     RDKit          3D

 30 31  0  0  1  0  0  0  0  0999 V2000
    6.7538  -17.3284   23.4278 N   0  0  0  0  0  0  0  0  0  0  0  0
    7.9421  -16.5367   23.4403 C   0  0  1  0  0  0  0  0  0  0  0  0
    8.4159  -16.1332   24.8148 C   0  0  0  0  0  0  0  0  0  0  0  0
    7.4879  -15.2700   25.5501 C   0  0  0  0  0  0  0  0  0  0  0  0
    6.5296  -15.6813   26.4332 C   0  0  0  0  0  0  0  0  0  0  0  0
    5.9068  -14.5711   26.9040 N   0  0  0  0  0  0  0  0  0  0  0  0
    6.4384  -13.4720   26.3487 C   0  0  0  0  0  0  0  0  0  0  0  0
    6.1522  -12.1350   26.4971 C   0  0  0  0  0  0  0  0  0  0  0  0
    6.8636  -11.1833   25.7856 C   0  0  0  0  0  0  0  0  0  0  0  0
    7.8629  -11.5887   24.9255 C   0  0  0  0  0  0  0  0  0  0  0  0
    8.1373  -12.9329   24.7883 C   0  0  0  0  0  0  0  0  0  0  0  0
    7.4407  -13.9002   25.4887 C   0  0  0  0  0  0  0  0  0  0  0  0
    9.0795  -17.2104   22.7556 C   0  0  0  0  0  0  0  0  0  0  0  0
    9.4332  -18.3826   23.1279 O   0  0  0  0  0  0  0  0  0  0  0  0
   11.4167  -19.0055   18.3837 N   0  0  0  0  0  0  0  0  0  0  0  0
   10.2354  -18.2580   18.1423 C   0  0  0  0  0  0  0  0  0  0  0  0
    9.3646  -18.8310   17.4023 O   0  0  0  0  0  0  0  0  0  0  0  0
   10.0004  -16.8907   18.7034 C   0  0  0  0  0  0  0  0  0  0  0  0
   11.1157  -16.5882   19.6483 C   0  0  0  0  0  0  0  0  0  0  0  0
   10.9064  -17.1168   21.0322 C   0  0  2  0  0  0  0  0  0  0  0  0
    9.7575  -16.5517   21.7020 N   0  0  0  0  0  0  0  0  0  0  0  0
   12.1047  -17.0338   21.8867 C   0  0  0  0  0  0  0  0  0  0  0  0
   12.2762  -15.9779   22.5486 O   0  0  0  0  0  0  0  0  0  0  0  0
   13.0682  -18.0539   22.0123 N   0  0  0  0  0  0  0  0  0  0  0  0
   13.9275  -18.0708   23.1745 C   0  0  1  0  0  0  0  0  0  0  0  0
   13.0480  -18.1799   24.4062 C   0  0  0  0  0  0  0  0  0  0  0  0
   14.1901  -18.3039   25.8321 S   0  0  0  0  0  0  0  0  0  0  0  0
   14.9466  -19.1382   23.1282 C   0  0  0  0  0  0  0  0  0  0  0  0
   16.1677  -18.9426   23.7240 O   0  0  0  0  0  0  0  0  0  0  0  0
   14.7044  -20.2148   22.5518 O   0  0  0  0  0  0  0  0  0  0  0  0
  2  1  1  1
  2  3  1  0
  3  4  1  0
  4  5  2  0
  5  6  1  0
  7  6  1  0
  8  7  2  0
  9  8  1  0
 10 11  1  0
 10  9  2  0
 11 12  2  0
 12  4  1  0
 12  7  1  0
 13  2  1  0
 13 21  1  0
 14 13  2  0
 16 17  2  0
 16 15  1  0
 18 16  1  0
 20 19  1  6
 19 18  1  0
 21 20  1  0
 22 20  1  0
 23 22  2  0
 24 22  1  0
 25 28  1  0
 25 24  1  0
 25 26  1  1
 27 26  1  0
 28 29  1  0
 30 28  2  0
M  END
$$$$
