WQC.pdb
     RDKit          3D

 30 31  0  0  1  0  0  0  0  0999 V2000
    6.2920  -17.7133   23.6977 N   0  0  0  0  0  0  0  0  0  0  0  0
    7.0373  -16.5341   23.3927 C   0  0  1  0  0  0  0  0  0  0  0  0
    7.7694  -15.9305   24.5659 C   0  0  0  0  0  0  0  0  0  0  0  0
    6.9397  -15.0939   25.4369 C   0  0  0  0  0  0  0  0  0  0  0  0
    5.8857  -15.5161   26.1972 C   0  0  0  0  0  0  0  0  0  0  0  0
    5.4078  -14.4360   26.8657 N   0  0  0  0  0  0  0  0  0  0  0  0
    6.1234  -13.3453   26.5539 C   0  0  0  0  0  0  0  0  0  0  0  0
    6.0283  -12.0347   26.9598 C   0  0  0  0  0  0  0  0  0  0  0  0
    6.9083  -11.0841   26.4698 C   0  0  0  0  0  0  0  0  0  0  0  0
    7.8822  -11.4640   25.5697 C   0  0  0  0  0  0  0  0  0  0  0  0
    7.9639  -12.7819   25.1730 C   0  0  0  0  0  0  0  0  0  0  0  0
    7.0968  -13.7477   25.6495 C   0  0  0  0  0  0  0  0  0  0  0  0
    8.0351  -16.7580   22.3107 C   0  0  0  0  0  0  0  0  0  0  0  0
    8.4214  -17.9493   22.0473 O   0  0  0  0  0  0  0  0  0  0  0  0
    6.3695  -13.5004   19.4586 N   0  0  0  0  0  0  0  0  0  0  0  0
    7.7142  -13.7195   19.0631 C   0  0  0  0  0  0  0  0  0  0  0  0
    7.8747  -14.1141   17.8578 O   0  0  0  0  0  0  0  0  0  0  0  0
    8.8822  -13.5103   19.9749 C   0  0  0  0  0  0  0  0  0  0  0  0
    9.8392  -14.6345   19.7545 C   0  0  0  0  0  0  0  0  0  0  0  0
    9.7278  -15.7392   20.7574 C   0  0  2  0  0  0  0  0  0  0  0  0
    8.5459  -15.6557   21.5845 N   0  0  0  0  0  0  0  0  0  0  0  0
   10.9354  -15.9134   21.5848 C   0  0  0  0  0  0  0  0  0  0  0  0
   11.9423  -15.2153   21.3002 O   0  0  0  0  0  0  0  0  0  0  0  0
   11.0379  -16.8061   22.6698 N   0  0  0  0  0  0  0  0  0  0  0  0
   12.3206  -16.9909   23.3100 C   0  0  1  0  0  0  0  0  0  0  0  0
   12.0956  -17.0223   24.8103 C   0  0  0  0  0  0  0  0  0  0  0  0
   11.0130  -15.5947   25.1881 S   0  0  0  0  0  0  0  0  0  0  0  0
   13.0398  -18.1897   22.8350 C   0  0  0  0  0  0  0  0  0  0  0  0
   14.2843  -18.4822   23.3349 O   0  0  0  0  0  0  0  0  0  0  0  0
   12.5235  -18.9370   21.9835 O   0  0  0  0  0  0  0  0  0  0  0  0
  2  1  1  1
  2  3  1  0
  3  4  1  0
  4  5  2  0
  5  6  1  0
  7  6  1  0
  8  7  2  0
  9  8  1  0
 10 11  1  0
 10  9  2  0
 11 12  2  0
 12  4  1  0
 12  7  1  0
 13  2  1  0
 13 21  1  0
 14 13  2  0
 16 17  2  0
 16 15  1  0
 18 16  1  0
 20 19  1  1
 19 18  1  0
 21 20  1  0
 22 20  1  0
 23 22  2  0
 24 22  1  0
 25 28  1  0
 25 24  1  0
 25 26  1  1
 27 26  1  0
 28 29  1  0
 30 28  2  0
M  END
$$$$
