WQC.pdb
     RDKit          3D

 30 31  0  0  1  0  0  0  0  0999 V2000
    6.3223  -18.1794   24.4258 N   0  0  0  0  0  0  0  0  0  0  0  0
    6.7686  -16.8590   24.1150 C   0  0  1  0  0  0  0  0  0  0  0  0
    7.5913  -16.2014   25.1955 C   0  0  0  0  0  0  0  0  0  0  0  0
    6.9177  -15.1005   25.8892 C   0  0  0  0  0  0  0  0  0  0  0  0
    5.8394  -15.2096   26.7215 C   0  0  0  0  0  0  0  0  0  0  0  0
    5.5419  -13.9628   27.1675 N   0  0  0  0  0  0  0  0  0  0  0  0
    6.3950  -13.0691   26.6456 C   0  0  0  0  0  0  0  0  0  0  0  0
    6.5007  -11.7052   26.7875 C   0  0  0  0  0  0  0  0  0  0  0  0
    7.4907  -11.0059   26.1176 C   0  0  0  0  0  0  0  0  0  0  0  0
    8.3709  -11.6903   25.3055 C   0  0  0  0  0  0  0  0  0  0  0  0
    8.2514  -13.0575   25.1741 C   0  0  0  0  0  0  0  0  0  0  0  0
    7.2716  -13.7761   25.8336 C   0  0  0  0  0  0  0  0  0  0  0  0
    7.5630  -16.8104   22.8568 C   0  0  0  0  0  0  0  0  0  0  0  0
    8.2696  -17.8225   22.5191 O   0  0  0  0  0  0  0  0  0  0  0  0
    7.5671  -12.5200   17.4191 N   0  0  0  0  0  0  0  0  0  0  0  0
    8.1266  -13.7877   17.7232 C   0  0  0  0  0  0  0  0  0  0  0  0
    7.8542  -14.7214   16.8937 O   0  0  0  0  0  0  0  0  0  0  0  0
    8.9802  -14.0406   18.9261 C   0  0  0  0  0  0  0  0  0  0  0  0
    8.0727  -14.2551   20.0917 C   0  0  0  0  0  0  0  0  0  0  0  0
    8.4175  -15.4490   20.9249 C   0  0  2  0  0  0  0  0  0  0  0  0
    7.5299  -15.6499   22.0472 N   0  0  0  0  0  0  0  0  0  0  0  0
    9.8262  -15.4836   21.3580 C   0  0  0  0  0  0  0  0  0  0  0  0
   10.2432  -14.5273   22.0607 O   0  0  0  0  0  0  0  0  0  0  0  0
   10.7346  -16.5121   21.0393 N   0  0  0  0  0  0  0  0  0  0  0  0
   12.0193  -16.5461   21.7008 C   0  0  1  0  0  0  0  0  0  0  0  0
   11.7761  -16.7203   23.1885 C   0  0  0  0  0  0  0  0  0  0  0  0
   13.4250  -16.9754   23.9428 S   0  0  0  0  0  0  0  0  0  0  0  0
   12.9220  -17.5840   21.1643 C   0  0  0  0  0  0  0  0  0  0  0  0
   14.2546  -17.5662   21.4930 O   0  0  0  0  0  0  0  0  0  0  0  0
   12.4810  -18.4754   20.4154 O   0  0  0  0  0  0  0  0  0  0  0  0
  2  1  1  1
  2  3  1  0
  3  4  1  0
  4  5  2  0
  5  6  1  0
  7  6  1  0
  8  7  2  0
  9  8  1  0
 10 11  1  0
 10  9  2  0
 11 12  2  0
 12  4  1  0
 12  7  1  0
 13  2  1  0
 13 21  1  0
 14 13  2  0
 16 17  2  0
 16 15  1  0
 18 16  1  0
 20 19  1  1
 19 18  1  0
 21 20  1  0
 22 20  1  0
 23 22  2  0
 24 22  1  0
 25 28  1  0
 25 24  1  0
 25 26  1  1
 27 26  1  0
 28 29  1  0
 30 28  2  0
M  END
$$$$
