WQC.pdb
     RDKit          3D

 30 31  0  0  1  0  0  0  0  0999 V2000
    8.2176  -16.1870   21.2572 N   0  0  0  0  0  0  0  0  0  0  0  0
    8.2084  -15.9028   22.6566 C   0  0  1  0  0  0  0  0  0  0  0  0
    6.8831  -16.1379   23.3385 C   0  0  0  0  0  0  0  0  0  0  0  0
    6.6307  -15.2734   24.4943 C   0  0  0  0  0  0  0  0  0  0  0  0
    6.1350  -15.6678   25.7050 C   0  0  0  0  0  0  0  0  0  0  0  0
    6.0746  -14.5679   26.4978 N   0  0  0  0  0  0  0  0  0  0  0  0
    6.5149  -13.4915   25.8297 C   0  0  0  0  0  0  0  0  0  0  0  0
    6.6414  -12.1708   26.1922 C   0  0  0  0  0  0  0  0  0  0  0  0
    7.1286  -11.2403   25.2897 C   0  0  0  0  0  0  0  0  0  0  0  0
    7.4863  -11.6502   24.0221 C   0  0  0  0  0  0  0  0  0  0  0  0
    7.3535  -12.9778   23.6745 C   0  0  0  0  0  0  0  0  0  0  0  0
    6.8701  -13.9240   24.5591 C   0  0  0  0  0  0  0  0  0  0  0  0
    9.2374  -16.6805   23.4000 C   0  0  0  0  0  0  0  0  0  0  0  0
    8.8679  -17.5357   24.2774 O   0  0  0  0  0  0  0  0  0  0  0  0
   15.5515  -17.7624   21.3960 N   0  0  0  0  0  0  0  0  0  0  0  0
   14.1626  -17.6398   21.1348 C   0  0  0  0  0  0  0  0  0  0  0  0
   13.8597  -17.0889   20.0216 O   0  0  0  0  0  0  0  0  0  0  0  0
   13.1046  -18.1145   22.0807 C   0  0  0  0  0  0  0  0  0  0  0  0
   12.9886  -17.1079   23.1768 C   0  0  0  0  0  0  0  0  0  0  0  0
   11.6664  -17.1145   23.8771 C   0  0  2  0  0  0  0  0  0  0  0  0
   10.6109  -16.4690   23.1308 N   0  0  0  0  0  0  0  0  0  0  0  0
   11.7233  -16.5993   25.2571 C   0  0  0  0  0  0  0  0  0  0  0  0
   11.8806  -15.3607   25.4105 O   0  0  0  0  0  0  0  0  0  0  0  0
   11.6135  -17.3976   26.4127 N   0  0  0  0  0  0  0  0  0  0  0  0
   11.5503  -16.7571   27.7069 C   0  0  1  0  0  0  0  0  0  0  0  0
   10.3066  -15.8885   27.7398 C   0  0  0  0  0  0  0  0  0  0  0  0
   10.2861  -15.0991   29.3919 S   0  0  0  0  0  0  0  0  0  0  0  0
   11.5848  -17.7138   28.8310 C   0  0  0  0  0  0  0  0  0  0  0  0
   11.8370  -17.2637   30.1031 O   0  0  0  0  0  0  0  0  0  0  0  0
   11.3862  -18.9265   28.6315 O   0  0  0  0  0  0  0  0  0  0  0  0
  2  1  1  6
  2  3  1  0
  3  4  1  0
  4  5  2  0
  5  6  1  0
  7  6  1  0
  8  7  2  0
  9  8  1  0
 10 11  1  0
 10  9  2  0
 11 12  2  0
 12  4  1  0
 12  7  1  0
 13  2  1  0
 13 21  1  0
 14 13  2  0
 16 17  2  0
 16 15  1  0
 18 16  1  0
 20 19  1  6
 19 18  1  0
 21 20  1  0
 22 20  1  0
 23 22  2  0
 24 22  1  0
 25 28  1  0
 25 24  1  0
 25 26  1  6
 27 26  1  0
 28 29  1  0
 30 28  2  0
M  END
$$$$
