WQC.pdb
     RDKit          3D

 30 31  0  0  1  0  0  0  0  0999 V2000
    6.7561  -17.3241   23.8322 N   0  0  0  0  0  0  0  0  0  0  0  0
    7.8968  -16.4661   23.7893 C   0  0  1  0  0  0  0  0  0  0  0  0
    8.1716  -15.7188   25.0710 C   0  0  0  0  0  0  0  0  0  0  0  0
    7.0609  -14.8869   25.5414 C   0  0  0  0  0  0  0  0  0  0  0  0
    5.8741  -15.3356   26.0487 C   0  0  0  0  0  0  0  0  0  0  0  0
    5.1362  -14.2463   26.3820 N   0  0  0  0  0  0  0  0  0  0  0  0
    5.8158  -13.1243   26.1025 C   0  0  0  0  0  0  0  0  0  0  0  0
    5.4987  -11.7944   26.2520 C   0  0  0  0  0  0  0  0  0  0  0  0
    6.3978  -10.8127   25.8698 C   0  0  0  0  0  0  0  0  0  0  0  0
    7.6157  -11.1811   25.3371 C   0  0  0  0  0  0  0  0  0  0  0  0
    7.9181  -12.5187   25.1940 C   0  0  0  0  0  0  0  0  0  0  0  0
    7.0365  -13.5155   25.5691 C   0  0  0  0  0  0  0  0  0  0  0  0
    9.1415  -17.1955   23.4218 C   0  0  0  0  0  0  0  0  0  0  0  0
    9.2145  -18.4572   23.6234 O   0  0  0  0  0  0  0  0  0  0  0  0
   11.9564  -15.5051   19.0957 N   0  0  0  0  0  0  0  0  0  0  0  0
   12.5916  -14.7557   20.1192 C   0  0  0  0  0  0  0  0  0  0  0  0
   12.9617  -13.5777   19.7881 O   0  0  0  0  0  0  0  0  0  0  0  0
   12.8245  -15.2849   21.4995 C   0  0  0  0  0  0  0  0  0  0  0  0
   12.3059  -16.6840   21.5444 C   0  0  0  0  0  0  0  0  0  0  0  0
   11.5711  -17.0248   22.8023 C   0  0  2  0  0  0  0  0  0  0  0  0
   10.2296  -16.4904   22.8541 N   0  0  0  0  0  0  0  0  0  0  0  0
   12.3146  -16.6948   24.0318 C   0  0  0  0  0  0  0  0  0  0  0  0
   13.5649  -16.5881   23.9455 O   0  0  0  0  0  0  0  0  0  0  0  0
   11.7214  -16.4912   25.2933 N   0  0  0  0  0  0  0  0  0  0  0  0
   12.5380  -16.6020   26.4807 C   0  0  1  0  0  0  0  0  0  0  0  0
   12.2277  -15.4163   27.3754 C   0  0  0  0  0  0  0  0  0  0  0  0
   10.4099  -15.4121   27.5950 S   0  0  0  0  0  0  0  0  0  0  0  0
   12.3644  -17.8866   27.1876 C   0  0  0  0  0  0  0  0  0  0  0  0
   13.2135  -18.2221   28.2127 O   0  0  0  0  0  0  0  0  0  0  0  0
   11.4517  -18.6671   26.8593 O   0  0  0  0  0  0  0  0  0  0  0  0
  2  1  1  1
  2  3  1  0
  3  4  1  0
  4  5  2  0
  5  6  1  0
  7  6  1  0
  8  7  2  0
  9  8  1  0
 10 11  1  0
 10  9  2  0
 11 12  2  0
 12  4  1  0
 12  7  1  0
 13  2  1  0
 13 21  1  0
 14 13  2  0
 16 17  2  0
 16 15  1  0
 18 16  1  0
 20 19  1  6
 19 18  1  0
 21 20  1  0
 22 20  1  0
 23 22  2  0
 24 22  1  0
 25 28  1  0
 25 24  1  0
 25 26  1  1
 27 26  1  0
 28 29  1  0
 30 28  2  0
M  END
$$$$
