WQC.pdb
     RDKit          3D

 30 31  0  0  1  0  0  0  0  0999 V2000
    8.3948  -18.6982   19.5310 N   0  0  0  0  0  0  0  0  0  0  0  0
    9.0751  -17.5313   19.9943 C   0  0  1  0  0  0  0  0  0  0  0  0
    8.3760  -16.7963   21.1113 C   0  0  0  0  0  0  0  0  0  0  0  0
    7.6469  -15.5975   20.6892 C   0  0  0  0  0  0  0  0  0  0  0  0
    6.2892  -15.4439   20.6665 C   0  0  0  0  0  0  0  0  0  0  0  0
    6.0294  -14.1844   20.2326 N   0  0  0  0  0  0  0  0  0  0  0  0
    7.1763  -13.5366   19.9801 C   0  0  0  0  0  0  0  0  0  0  0  0
    7.4343  -12.2645   19.5252 C   0  0  0  0  0  0  0  0  0  0  0  0
    8.7388  -11.8378   19.3405 C   0  0  0  0  0  0  0  0  0  0  0  0
    9.7785  -12.7011   19.6170 C   0  0  0  0  0  0  0  0  0  0  0  0
    9.5028  -13.9730   20.0724 C   0  0  0  0  0  0  0  0  0  0  0  0
    8.2087  -14.4201   20.2646 C   0  0  0  0  0  0  0  0  0  0  0  0
   10.4604  -17.8269   20.4525 C   0  0  0  0  0  0  0  0  0  0  0  0
   10.7766  -19.0261   20.7682 O   0  0  0  0  0  0  0  0  0  0  0  0
   15.8004  -15.1416   18.9570 N   0  0  0  0  0  0  0  0  0  0  0  0
   14.4874  -14.6361   18.7748 C   0  0  0  0  0  0  0  0  0  0  0  0
   14.3678  -13.7269   17.8841 O   0  0  0  0  0  0  0  0  0  0  0  0
   13.3068  -15.1172   19.5585 C   0  0  0  0  0  0  0  0  0  0  0  0
   13.7912  -16.1439   20.5277 C   0  0  0  0  0  0  0  0  0  0  0  0
   12.7011  -16.9428   21.1695 C   0  0  2  0  0  0  0  0  0  0  0  0
   11.4131  -16.7832   20.5343 N   0  0  0  0  0  0  0  0  0  0  0  0
   12.5959  -16.7406   22.6259 C   0  0  0  0  0  0  0  0  0  0  0  0
   13.6621  -16.5535   23.2666 O   0  0  0  0  0  0  0  0  0  0  0  0
   11.3856  -16.7424   23.3470 N   0  0  0  0  0  0  0  0  0  0  0  0
   11.4261  -16.6623   24.7896 C   0  0  1  0  0  0  0  0  0  0  0  0
   10.0761  -16.1625   25.2695 C   0  0  0  0  0  0  0  0  0  0  0  0
    9.7855  -14.5787   24.3977 S   0  0  0  0  0  0  0  0  0  0  0  0
   11.8023  -17.9373   25.4321 C   0  0  0  0  0  0  0  0  0  0  0  0
   11.9925  -17.9874   26.7906 O   0  0  0  0  0  0  0  0  0  0  0  0
   11.9479  -18.9675   24.7484 O   0  0  0  0  0  0  0  0  0  0  0  0
  2  1  1  1
  2  3  1  0
  3  4  1  0
  4  5  2  0
  5  6  1  0
  7  6  1  0
  8  7  2  0
  9  8  1  0
 10 11  1  0
 10  9  2  0
 11 12  2  0
 12  4  1  0
 12  7  1  0
 13  2  1  0
 13 21  1  0
 14 13  2  0
 16 17  2  0
 16 15  1  0
 18 16  1  0
 20 19  1  6
 19 18  1  0
 21 20  1  0
 22 20  1  0
 23 22  2  0
 24 22  1  0
 25 28  1  0
 25 24  1  0
 25 26  1  1
 27 26  1  0
 28 29  1  0
 30 28  2  0
M  END
$$$$
