WQC.pdb
     RDKit          3D

 30 31  0  0  1  0  0  0  0  0999 V2000
    8.4955  -17.7024   25.3152 N   0  0  0  0  0  0  0  0  0  0  0  0
    8.2920  -16.9506   24.1184 C   0  0  1  0  0  0  0  0  0  0  0  0
    8.3787  -15.4543   24.2918 C   0  0  0  0  0  0  0  0  0  0  0  0
    7.4961  -14.9087   25.3263 C   0  0  0  0  0  0  0  0  0  0  0  0
    6.6258  -15.6202   26.1032 C   0  0  0  0  0  0  0  0  0  0  0  0
    6.0191  -14.7431   26.9426 N   0  0  0  0  0  0  0  0  0  0  0  0
    6.4758  -13.5014   26.7229 C   0  0  0  0  0  0  0  0  0  0  0  0
    6.1718  -12.2923   27.3036 C   0  0  0  0  0  0  0  0  0  0  0  0
    6.7979  -11.1331   26.8768 C   0  0  0  0  0  0  0  0  0  0  0  0
    7.7302  -11.2019   25.8625 C   0  0  0  0  0  0  0  0  0  0  0  0
    8.0237  -12.4218   25.2909 C   0  0  0  0  0  0  0  0  0  0  0  0
    7.4117  -13.5917   25.7014 C   0  0  0  0  0  0  0  0  0  0  0  0
    9.2457  -17.3314   23.0405 C   0  0  0  0  0  0  0  0  0  0  0  0
   10.4800  -17.0120   23.1504 O   0  0  0  0  0  0  0  0  0  0  0  0
    8.6511  -23.0659   20.8929 N   0  0  0  0  0  0  0  0  0  0  0  0
    9.3736  -21.9101   20.4997 C   0  0  0  0  0  0  0  0  0  0  0  0
   10.1084  -22.0482   19.4628 O   0  0  0  0  0  0  0  0  0  0  0  0
    9.2980  -20.6068   21.2313 C   0  0  0  0  0  0  0  0  0  0  0  0
    9.9728  -19.5733   20.3917 C   0  0  0  0  0  0  0  0  0  0  0  0
    9.5501  -18.1696   20.6908 C   0  0  2  0  0  0  0  0  0  0  0  0
    8.7812  -18.0415   21.9075 N   0  0  0  0  0  0  0  0  0  0  0  0
    8.8678  -17.5031   19.5669 C   0  0  0  0  0  0  0  0  0  0  0  0
    7.6142  -17.5912   19.5116 O   0  0  0  0  0  0  0  0  0  0  0  0
    9.5225  -16.7760   18.5533 N   0  0  0  0  0  0  0  0  0  0  0  0
    8.8972  -15.5840   18.0267 C   0  0  1  0  0  0  0  0  0  0  0  0
    8.6605  -14.6293   19.1822 C   0  0  0  0  0  0  0  0  0  0  0  0
    8.0286  -13.0811   18.4361 S   0  0  0  0  0  0  0  0  0  0  0  0
    9.6722  -14.9529   16.9399 C   0  0  0  0  0  0  0  0  0  0  0  0
    9.0427  -14.1245   16.0444 O   0  0  0  0  0  0  0  0  0  0  0  0
   10.8936  -15.1679   16.8312 O   0  0  0  0  0  0  0  0  0  0  0  0
  2  1  1  1
  2  3  1  0
  3  4  1  0
  4  5  2  0
  5  6  1  0
  7  6  1  0
  8  7  2  0
  9  8  1  0
 10 11  1  0
 10  9  2  0
 11 12  2  0
 12  4  1  0
 12  7  1  0
 13  2  1  0
 13 21  1  0
 14 13  2  0
 16 17  2  0
 16 15  1  0
 18 16  1  0
 20 19  1  6
 19 18  1  0
 21 20  1  0
 22 20  1  0
 23 22  2  0
 24 22  1  0
 25 28  1  0
 25 24  1  0
 25 26  1  1
 27 26  1  0
 28 29  1  0
 30 28  2  0
M  END
$$$$
