WQC.pdb
     RDKit          3D

 30 31  0  0  1  0  0  0  0  0999 V2000
    6.5782  -18.4123   24.4237 N   0  0  0  0  0  0  0  0  0  0  0  0
    6.8875  -17.0534   24.1127 C   0  0  1  0  0  0  0  0  0  0  0  0
    7.5568  -16.2885   25.2278 C   0  0  0  0  0  0  0  0  0  0  0  0
    6.7369  -15.2258   25.8154 C   0  0  0  0  0  0  0  0  0  0  0  0
    5.4610  -15.3570   26.2866 C   0  0  0  0  0  0  0  0  0  0  0  0
    5.0762  -14.1455   26.7622 N   0  0  0  0  0  0  0  0  0  0  0  0
    6.0652  -13.2528   26.6077 C   0  0  0  0  0  0  0  0  0  0  0  0
    6.1572  -11.9170   26.9223 C   0  0  0  0  0  0  0  0  0  0  0  0
    7.3155  -11.2104   26.6450 C   0  0  0  0  0  0  0  0  0  0  0  0
    8.3775  -11.8589   26.0495 C   0  0  0  0  0  0  0  0  0  0  0  0
    8.2690  -13.1982   25.7406 C   0  0  0  0  0  0  0  0  0  0  0  0
    7.1229  -13.9235   26.0088 C   0  0  0  0  0  0  0  0  0  0  0  0
    7.7505  -16.9302   22.9058 C   0  0  0  0  0  0  0  0  0  0  0  0
    8.4780  -17.9206   22.5485 O   0  0  0  0  0  0  0  0  0  0  0  0
    6.7779  -13.1389   18.1374 N   0  0  0  0  0  0  0  0  0  0  0  0
    8.0636  -13.6648   17.8491 C   0  0  0  0  0  0  0  0  0  0  0  0
    8.4074  -13.6308   16.6183 O   0  0  0  0  0  0  0  0  0  0  0  0
    8.9739  -14.2265   18.8957 C   0  0  0  0  0  0  0  0  0  0  0  0
    8.1871  -14.3663   20.1564 C   0  0  0  0  0  0  0  0  0  0  0  0
    8.6152  -15.5090   21.0221 C   0  0  2  0  0  0  0  0  0  0  0  0
    7.7588  -15.7235   22.1660 N   0  0  0  0  0  0  0  0  0  0  0  0
   10.0301  -15.4459   21.4311 C   0  0  0  0  0  0  0  0  0  0  0  0
   10.7843  -14.6612   20.8005 O   0  0  0  0  0  0  0  0  0  0  0  0
   10.5933  -16.2025   22.4776 N   0  0  0  0  0  0  0  0  0  0  0  0
   12.0078  -16.0830   22.7498 C   0  0  1  0  0  0  0  0  0  0  0  0
   12.1848  -15.9206   24.2480 C   0  0  0  0  0  0  0  0  0  0  0  0
   11.0193  -17.1002   25.0245 S   0  0  0  0  0  0  0  0  0  0  0  0
   12.7989  -17.2115   22.2201 C   0  0  0  0  0  0  0  0  0  0  0  0
   14.1700  -17.1656   22.2667 O   0  0  0  0  0  0  0  0  0  0  0  0
   12.2292  -18.2048   21.7316 O   0  0  0  0  0  0  0  0  0  0  0  0
  2  1  1  1
  2  3  1  0
  3  4  1  0
  4  5  2  0
  5  6  1  0
  7  6  1  0
  8  7  2  0
  9  8  1  0
 10 11  1  0
 10  9  2  0
 11 12  2  0
 12  4  1  0
 12  7  1  0
 13  2  1  0
 13 21  1  0
 14 13  2  0
 16 17  2  0
 16 15  1  0
 18 16  1  0
 20 19  1  1
 19 18  1  0
 21 20  1  0
 22 20  1  0
 23 22  2  0
 24 22  1  0
 25 28  1  0
 25 24  1  0
 25 26  1  1
 27 26  1  0
 28 29  1  0
 30 28  2  0
M  END
$$$$
