WQC.pdb
     RDKit          3D

 30 31  0  0  1  0  0  0  0  0999 V2000
    6.1878  -17.7131   23.4464 N   0  0  0  0  0  0  0  0  0  0  0  0
    6.9741  -16.5344   23.2684 C   0  0  1  0  0  0  0  0  0  0  0  0
    7.6344  -16.0219   24.5245 C   0  0  0  0  0  0  0  0  0  0  0  0
    6.8083  -15.1080   25.3178 C   0  0  0  0  0  0  0  0  0  0  0  0
    5.6383  -15.4200   25.9509 C   0  0  0  0  0  0  0  0  0  0  0  0
    5.2080  -14.3003   26.5859 N   0  0  0  0  0  0  0  0  0  0  0  0
    6.0659  -13.2910   26.3757 C   0  0  0  0  0  0  0  0  0  0  0  0
    6.0675  -11.9813   26.7958 C   0  0  0  0  0  0  0  0  0  0  0  0
    7.0924  -11.1276   26.4234 C   0  0  0  0  0  0  0  0  0  0  0  0
    8.1128  -11.6029   25.6262 C   0  0  0  0  0  0  0  0  0  0  0  0
    8.0964  -12.9184   25.2137 C   0  0  0  0  0  0  0  0  0  0  0  0
    7.0841  -13.7886   25.5737 C   0  0  0  0  0  0  0  0  0  0  0  0
    8.0399  -16.7130   22.2444 C   0  0  0  0  0  0  0  0  0  0  0  0
    8.5651  -17.8680   22.0774 O   0  0  0  0  0  0  0  0  0  0  0  0
    9.0151  -14.2891   16.9170 N   0  0  0  0  0  0  0  0  0  0  0  0
    8.0645  -13.8526   17.8753 C   0  0  0  0  0  0  0  0  0  0  0  0
    6.9618  -13.4180   17.3964 O   0  0  0  0  0  0  0  0  0  0  0  0
    8.3113  -13.8881   19.3510 C   0  0  0  0  0  0  0  0  0  0  0  0
    9.6310  -14.5481   19.5764 C   0  0  0  0  0  0  0  0  0  0  0  0
    9.5958  -15.6635   20.5730 C   0  0  2  0  0  0  0  0  0  0  0  0
    8.4615  -15.6083   21.4664 N   0  0  0  0  0  0  0  0  0  0  0  0
   10.8511  -15.8237   21.3289 C   0  0  0  0  0  0  0  0  0  0  0  0
   11.9234  -15.8762   20.6733 O   0  0  0  0  0  0  0  0  0  0  0  0
   10.9314  -15.9214   22.7321 N   0  0  0  0  0  0  0  0  0  0  0  0
   12.2282  -16.0646   23.3542 C   0  0  1  0  0  0  0  0  0  0  0  0
   12.0836  -15.7182   24.8245 C   0  0  0  0  0  0  0  0  0  0  0  0
   10.8513  -16.8918   25.5006 S   0  0  0  0  0  0  0  0  0  0  0  0
   12.8220  -17.4022   23.1587 C   0  0  0  0  0  0  0  0  0  0  0  0
   12.0613  -18.4167   22.6329 O   0  0  0  0  0  0  0  0  0  0  0  0
   14.0090  -17.6150   23.4678 O   0  0  0  0  0  0  0  0  0  0  0  0
  2  1  1  1
  2  3  1  0
  3  4  1  0
  4  5  2  0
  5  6  1  0
  7  6  1  0
  8  7  2  0
  9  8  1  0
 10 11  1  0
 10  9  2  0
 11 12  2  0
 12  4  1  0
 12  7  1  0
 13  2  1  0
 13 21  1  0
 14 13  2  0
 16 17  2  0
 16 15  1  0
 18 16  1  0
 20 19  1  1
 19 18  1  0
 21 20  1  0
 22 20  1  0
 23 22  2  0
 24 22  1  0
 25 28  1  0
 25 24  1  0
 25 26  1  1
 27 26  1  0
 28 29  1  0
 30 28  2  0
M  END
$$$$
