WQC.pdb
     RDKit          3D

 30 31  0  0  1  0  0  0  0  0999 V2000
    6.6488  -17.4988   23.3386 N   0  0  0  0  0  0  0  0  0  0  0  0
    7.1345  -16.1805   23.0835 C   0  0  1  0  0  0  0  0  0  0  0  0
    8.0947  -15.6513   24.1201 C   0  0  0  0  0  0  0  0  0  0  0  0
    7.4598  -14.9343   25.2290 C   0  0  0  0  0  0  0  0  0  0  0  0
    6.6691  -15.4834   26.1987 C   0  0  0  0  0  0  0  0  0  0  0  0
    6.3040  -14.4835   27.0407 N   0  0  0  0  0  0  0  0  0  0  0  0
    6.8368  -13.3209   26.6364 C   0  0  0  0  0  0  0  0  0  0  0  0
    6.7571  -12.0454   27.1447 C   0  0  0  0  0  0  0  0  0  0  0  0
    7.4123  -10.9991   26.5171 C   0  0  0  0  0  0  0  0  0  0  0  0
    8.1465  -11.2479   25.3760 C   0  0  0  0  0  0  0  0  0  0  0  0
    8.2163  -12.5322   24.8795 C   0  0  0  0  0  0  0  0  0  0  0  0
    7.5710  -13.5919   25.4897 C   0  0  0  0  0  0  0  0  0  0  0  0
    7.8024  -16.0690   21.7577 C   0  0  0  0  0  0  0  0  0  0  0  0
    8.1741  -17.1314   21.1487 O   0  0  0  0  0  0  0  0  0  0  0  0
    7.0364  -14.2972   16.7236 N   0  0  0  0  0  0  0  0  0  0  0  0
    8.4004  -13.9155   16.8032 C   0  0  0  0  0  0  0  0  0  0  0  0
    9.1410  -14.3211   15.8434 O   0  0  0  0  0  0  0  0  0  0  0  0
    8.9589  -13.0948   17.9231 C   0  0  0  0  0  0  0  0  0  0  0  0
    8.1736  -13.4084   19.1532 C   0  0  0  0  0  0  0  0  0  0  0  0
    8.6623  -14.6076   19.9027 C   0  0  2  0  0  0  0  0  0  0  0  0
    8.0196  -14.7936   21.1833 N   0  0  0  0  0  0  0  0  0  0  0  0
   10.1290  -14.6650   20.0390 C   0  0  0  0  0  0  0  0  0  0  0  0
   10.6875  -13.7598   20.7106 O   0  0  0  0  0  0  0  0  0  0  0  0
   10.9455  -15.6621   19.4700 N   0  0  0  0  0  0  0  0  0  0  0  0
   12.3822  -15.5176   19.5364 C   0  0  1  0  0  0  0  0  0  0  0  0
   12.6946  -14.0568   19.8030 C   0  0  0  0  0  0  0  0  0  0  0  0
   14.5155  -13.9516   19.9644 S   0  0  0  0  0  0  0  0  0  0  0  0
   13.0101  -16.4068   20.5340 C   0  0  0  0  0  0  0  0  0  0  0  0
   12.3200  -16.7556   21.6682 O   0  0  0  0  0  0  0  0  0  0  0  0
   14.1622  -16.8422   20.3520 O   0  0  0  0  0  0  0  0  0  0  0  0
  2  1  1  1
  2  3  1  0
  3  4  1  0
  4  5  2  0
  5  6  1  0
  7  6  1  0
  8  7  2  0
  9  8  1  0
 10 11  1  0
 10  9  2  0
 11 12  2  0
 12  4  1  0
 12  7  1  0
 13  2  1  0
 13 21  1  0
 14 13  2  0
 16 17  2  0
 16 15  1  0
 18 16  1  0
 20 19  1  1
 19 18  1  0
 21 20  1  0
 22 20  1  0
 23 22  2  0
 24 22  1  0
 25 28  1  0
 25 24  1  0
 25 26  1  1
 27 26  1  0
 28 29  1  0
 30 28  2  0
M  END
$$$$
