WQC.pdb
     RDKit          3D

 30 31  0  0  1  0  0  0  0  0999 V2000
    5.9858  -17.5579   23.7479 N   0  0  0  0  0  0  0  0  0  0  0  0
    6.8631  -16.4470   23.5604 C   0  0  1  0  0  0  0  0  0  0  0  0
    7.5563  -15.9731   24.8140 C   0  0  0  0  0  0  0  0  0  0  0  0
    6.8008  -14.9884   25.5928 C   0  0  0  0  0  0  0  0  0  0  0  0
    5.6553  -15.2243   26.2996 C   0  0  0  0  0  0  0  0  0  0  0  0
    5.2933  -14.0568   26.8893 N   0  0  0  0  0  0  0  0  0  0  0  0
    6.1706  -13.0907   26.5794 C   0  0  0  0  0  0  0  0  0  0  0  0
    6.2346  -11.7604   26.9227 C   0  0  0  0  0  0  0  0  0  0  0  0
    7.2655  -10.9644   26.4518 C   0  0  0  0  0  0  0  0  0  0  0  0
    8.2286  -11.5182   25.6342 C   0  0  0  0  0  0  0  0  0  0  0  0
    8.1499  -12.8534   25.2996 C   0  0  0  0  0  0  0  0  0  0  0  0
    7.1305  -13.6670   25.7584 C   0  0  0  0  0  0  0  0  0  0  0  0
    7.9160  -16.7212   22.5442 C   0  0  0  0  0  0  0  0  0  0  0  0
    8.2678  -17.9297   22.3126 O   0  0  0  0  0  0  0  0  0  0  0  0
    6.3600  -13.8054   19.0910 N   0  0  0  0  0  0  0  0  0  0  0  0
    7.7629  -13.9116   18.9091 C   0  0  0  0  0  0  0  0  0  0  0  0
    8.1420  -14.2113   17.7256 O   0  0  0  0  0  0  0  0  0  0  0  0
    8.7521  -13.6926   20.0105 C   0  0  0  0  0  0  0  0  0  0  0  0
    9.7799  -14.7714   19.9208 C   0  0  0  0  0  0  0  0  0  0  0  0
    9.6689  -15.8134   20.9887 C   0  0  2  0  0  0  0  0  0  0  0  0
    8.5167  -15.6472   21.8447 N   0  0  0  0  0  0  0  0  0  0  0  0
   10.8966  -15.9769   21.7882 C   0  0  0  0  0  0  0  0  0  0  0  0
   11.7026  -15.0118   21.8218 O   0  0  0  0  0  0  0  0  0  0  0  0
   11.2274  -17.1373   22.5154 N   0  0  0  0  0  0  0  0  0  0  0  0
   12.4423  -17.1544   23.2982 C   0  0  1  0  0  0  0  0  0  0  0  0
   12.3257  -16.0846   24.3680 C   0  0  0  0  0  0  0  0  0  0  0  0
   10.9776  -16.6290   25.4812 S   0  0  0  0  0  0  0  0  0  0  0  0
   12.7437  -18.4800   23.8745 C   0  0  0  0  0  0  0  0  0  0  0  0
   13.9144  -18.6745   24.5642 O   0  0  0  0  0  0  0  0  0  0  0  0
   11.9416  -19.4224   23.7384 O   0  0  0  0  0  0  0  0  0  0  0  0
  2  1  1  1
  2  3  1  0
  3  4  1  0
  4  5  2  0
  5  6  1  0
  7  6  1  0
  8  7  2  0
  9  8  1  0
 10 11  1  0
 10  9  2  0
 11 12  2  0
 12  4  1  0
 12  7  1  0
 13  2  1  0
 13 21  1  0
 14 13  2  0
 16 17  2  0
 16 15  1  0
 18 16  1  0
 20 19  1  6
 19 18  1  0
 21 20  1  0
 22 20  1  0
 23 22  2  0
 24 22  1  0
 25 28  1  0
 25 24  1  0
 25 26  1  1
 27 26  1  0
 28 29  1  0
 30 28  2  0
M  END
$$$$
