WQC.pdb
     RDKit          3D

 30 31  0  0  1  0  0  0  0  0999 V2000
    6.9646  -17.4971   23.5212 N   0  0  0  0  0  0  0  0  0  0  0  0
    7.9724  -16.5536   23.8865 C   0  0  1  0  0  0  0  0  0  0  0  0
    7.9151  -16.0951   25.3228 C   0  0  0  0  0  0  0  0  0  0  0  0
    6.8603  -15.1193   25.6092 C   0  0  0  0  0  0  0  0  0  0  0  0
    5.5642  -15.4033   25.9357 C   0  0  0  0  0  0  0  0  0  0  0  0
    4.9278  -14.2220   26.1403 N   0  0  0  0  0  0  0  0  0  0  0  0
    5.7773  -13.2009   25.9541 C   0  0  0  0  0  0  0  0  0  0  0  0
    5.6113  -11.8382   26.0380 C   0  0  0  0  0  0  0  0  0  0  0  0
    6.6736  -10.9863   25.7853 C   0  0  0  0  0  0  0  0  0  0  0  0
    7.9012  -11.5174   25.4480 C   0  0  0  0  0  0  0  0  0  0  0  0
    8.0509  -12.8857   25.3682 C   0  0  0  0  0  0  0  0  0  0  0  0
    7.0048  -13.7549   25.6169 C   0  0  0  0  0  0  0  0  0  0  0  0
    9.3472  -17.0669   23.6359 C   0  0  0  0  0  0  0  0  0  0  0  0
    9.5714  -18.3251   23.7034 O   0  0  0  0  0  0  0  0  0  0  0  0
   13.4561  -17.8142   20.8692 N   0  0  0  0  0  0  0  0  0  0  0  0
   12.6262  -16.8181   20.2933 C   0  0  0  0  0  0  0  0  0  0  0  0
   12.3208  -17.0003   19.0654 O   0  0  0  0  0  0  0  0  0  0  0  0
   12.1291  -15.6263   21.0497 C   0  0  0  0  0  0  0  0  0  0  0  0
   12.6487  -15.7237   22.4457 C   0  0  0  0  0  0  0  0  0  0  0  0
   11.7876  -16.5312   23.3649 C   0  0  2  0  0  0  0  0  0  0  0  0
   10.3910  -16.1627   23.3255 N   0  0  0  0  0  0  0  0  0  0  0  0
   12.2794  -16.5741   24.7539 C   0  0  0  0  0  0  0  0  0  0  0  0
   13.4409  -17.0167   24.9472 O   0  0  0  0  0  0  0  0  0  0  0  0
   11.5391  -16.1540   25.8765 N   0  0  0  0  0  0  0  0  0  0  0  0
   12.1625  -16.1803   27.1803 C   0  0  1  0  0  0  0  0  0  0  0  0
   11.7696  -14.9111   27.9134 C   0  0  0  0  0  0  0  0  0  0  0  0
    9.9409  -14.8390   27.8528 S   0  0  0  0  0  0  0  0  0  0  0  0
   11.8322  -17.3911   27.9579 C   0  0  0  0  0  0  0  0  0  0  0  0
   12.4640  -17.6283   29.1533 O   0  0  0  0  0  0  0  0  0  0  0  0
   10.9836  -18.1982   27.5356 O   0  0  0  0  0  0  0  0  0  0  0  0
  2  1  1  1
  2  3  1  0
  3  4  1  0
  4  5  2  0
  5  6  1  0
  7  6  1  0
  8  7  2  0
  9  8  1  0
 10 11  1  0
 10  9  2  0
 11 12  2  0
 12  4  1  0
 12  7  1  0
 13  2  1  0
 13 21  1  0
 14 13  2  0
 16 17  2  0
 16 15  1  0
 18 16  1  0
 20 19  1  6
 19 18  1  0
 21 20  1  0
 22 20  1  0
 23 22  2  0
 24 22  1  0
 25 28  1  0
 25 24  1  0
 25 26  1  1
 27 26  1  0
 28 29  1  0
 30 28  2  0
M  END
$$$$
