CSI.pdb
     RDKit          3D

 21 20  0  0  1  0  0  0  0  0999 V2000
   19.5237  -15.4764  -18.4839 N   0  0  0  0  0  0  0  0  0  0  0  0
   18.5070  -14.4663  -18.2785 C   0  0  1  0  0  0  0  0  0  0  0  0
   17.7782  -14.8458  -16.9911 C   0  0  0  0  0  0  0  0  0  0  0  0
   16.8594  -16.3906  -17.2340 S   0  0  0  0  0  0  0  0  0  0  0  0
   19.1461  -13.1669  -18.0540 C   0  0  0  0  0  0  0  0  0  0  0  0
   20.3906  -13.1316  -17.7945 O   0  0  0  0  0  0  0  0  0  0  0  0
   18.1405   -9.8343  -20.0026 O   0  0  0  0  0  0  0  0  0  0  0  0
   18.3814   -9.5455  -18.6684 C   0  0  0  0  0  0  0  0  0  0  0  0
   19.2046  -10.7057  -18.1063 C   0  0  2  0  0  0  0  0  0  0  0  0
   18.4699  -11.9190  -18.1048 N   0  0  0  0  0  0  0  0  0  0  0  0
   19.6652  -10.2674  -16.7651 C   0  0  0  0  0  0  0  0  0  0  0  0
   18.9382  -10.5958  -15.8099 O   0  0  0  0  0  0  0  0  0  0  0  0
   23.7474  -11.8999  -14.6002 C   0  0  0  0  0  0  0  0  0  0  0  0
   22.4645  -11.2066  -15.0286 C   0  0  0  0  0  0  0  0  0  0  0  0
   22.5145   -9.7311  -14.7875 C   0  0  2  0  0  0  0  0  0  0  0  0
   22.9967   -9.3722  -13.4116 C   0  0  0  0  0  0  0  0  0  0  0  0
   21.2664   -9.0661  -15.2298 C   0  0  2  0  0  0  0  0  0  0  0  0
   20.8407   -9.5275  -16.5439 N   0  0  0  0  0  0  0  0  0  0  0  0
   21.2126   -7.6015  -15.0912 C   0  0  0  0  0  0  0  0  0  0  0  0
   20.8287   -7.0034  -13.9160 O   0  0  0  0  0  0  0  0  0  0  0  0
   21.5199   -6.8555  -16.0425 O   0  0  0  0  0  0  0  0  0  0  0  0
  2  3  1  0
  2  1  1  1
  4  3  1  0
  5  2  1  0
  5  6  2  0
  8  7  1  0
  9  8  1  1
  9 11  1  0
  9 10  1  0
 10  5  1  0
 11 12  2  0
 13 14  1  0
 14 15  1  0
 15 16  1  1
 17 15  1  0
 17 18  1  6
 18 11  1  0
 19 17  1  0
 20 19  1  0
 21 19  2  0
M  END
$$$$
