CSI.pdb
     RDKit          3D

 21 20  0  0  1  0  0  0  0  0999 V2000
   26.1735  -20.4048  -17.8681 N   0  0  0  0  0  0  0  0  0  0  0  0
   26.7593  -19.4895  -16.9113 C   0  0  1  0  0  0  0  0  0  0  0  0
   25.7491  -18.3595  -16.7237 C   0  0  0  0  0  0  0  0  0  0  0  0
   25.8727  -17.1858  -18.1009 S   0  0  0  0  0  0  0  0  0  0  0  0
   26.9094  -20.1628  -15.6184 C   0  0  0  0  0  0  0  0  0  0  0  0
   25.9627  -20.8995  -15.1963 O   0  0  0  0  0  0  0  0  0  0  0  0
   29.4374  -21.4071  -11.7478 O   0  0  0  0  0  0  0  0  0  0  0  0
   29.4436  -20.5539  -12.8403 C   0  0  0  0  0  0  0  0  0  0  0  0
   28.0786  -20.6914  -13.5167 C   0  0  2  0  0  0  0  0  0  0  0  0
   28.0532  -20.0540  -14.7835 N   0  0  0  0  0  0  0  0  0  0  0  0
   27.0871  -20.1639  -12.5462 C   0  0  0  0  0  0  0  0  0  0  0  0
   26.9831  -18.9246  -12.4992 O   0  0  0  0  0  0  0  0  0  0  0  0
   22.1443  -20.8370  -12.5471 C   0  0  0  0  0  0  0  0  0  0  0  0
   23.5808  -20.4248  -12.2704 C   0  0  0  0  0  0  0  0  0  0  0  0
   24.0143  -20.7898  -10.8860 C   0  0  2  0  0  0  0  0  0  0  0  0
   23.0557  -20.3310   -9.8252 C   0  0  0  0  0  0  0  0  0  0  0  0
   25.4399  -20.4562  -10.6579 C   0  0  2  0  0  0  0  0  0  0  0  0
   26.2959  -20.9770  -11.7147 N   0  0  0  0  0  0  0  0  0  0  0  0
   25.9719  -20.7142   -9.3098 C   0  0  0  0  0  0  0  0  0  0  0  0
   25.7902  -19.8221   -8.2815 O   0  0  0  0  0  0  0  0  0  0  0  0
   26.6045  -21.7596   -9.0590 O   0  0  0  0  0  0  0  0  0  0  0  0
  2  3  1  0
  2  1  1  6
  4  3  1  0
  5  2  1  0
  5  6  2  0
  8  7  1  0
  9  8  1  1
  9 11  1  0
  9 10  1  0
 10  5  1  0
 11 12  2  0
 13 14  1  0
 14 15  1  0
 15 16  1  1
 17 15  1  0
 17 18  1  6
 18 11  1  0
 19 17  1  0
 20 19  1  0
 21 19  2  0
M  END
$$$$
