CSI.pdb
     RDKit          3D

 21 20  0  0  1  0  0  0  0  0999 V2000
   16.9937  -15.6287  -16.8311 N   0  0  0  0  0  0  0  0  0  0  0  0
   16.8609  -14.6272  -15.7940 C   0  0  1  0  0  0  0  0  0  0  0  0
   17.4775  -15.2299  -14.5333 C   0  0  0  0  0  0  0  0  0  0  0  0
   16.3165  -16.4000  -13.7768 S   0  0  0  0  0  0  0  0  0  0  0  0
   17.6536  -13.4469  -16.1488 C   0  0  0  0  0  0  0  0  0  0  0  0
   18.8007  -13.6125  -16.6722 O   0  0  0  0  0  0  0  0  0  0  0  0
   16.1301   -9.6759  -16.0396 O   0  0  0  0  0  0  0  0  0  0  0  0
   17.0951   -9.9097  -17.0069 C   0  0  0  0  0  0  0  0  0  0  0  0
   17.9913  -11.0298  -16.4760 C   0  0  2  0  0  0  0  0  0  0  0  0
   17.2315  -12.1055  -15.9494 N   0  0  0  0  0  0  0  0  0  0  0  0
   18.9072  -10.3911  -15.4981 C   0  0  0  0  0  0  0  0  0  0  0  0
   18.5908  -10.5140  -14.3008 O   0  0  0  0  0  0  0  0  0  0  0  0
   23.8422  -11.5015  -15.1689 C   0  0  0  0  0  0  0  0  0  0  0  0
   22.4257  -10.9961  -14.9497 C   0  0  0  0  0  0  0  0  0  0  0  0
   22.3443   -9.5037  -15.0139 C   0  0  2  0  0  0  0  0  0  0  0  0
   23.3446   -8.8178  -14.1289 C   0  0  0  0  0  0  0  0  0  0  0  0
   20.9450   -9.0309  -14.8966 C   0  0  2  0  0  0  0  0  0  0  0  0
   20.0681   -9.6835  -15.8589 N   0  0  0  0  0  0  0  0  0  0  0  0
   20.7424   -7.5742  -14.8323 C   0  0  0  0  0  0  0  0  0  0  0  0
   20.1306   -6.8869  -15.8519 O   0  0  0  0  0  0  0  0  0  0  0  0
   21.1196   -6.9172  -13.8413 O   0  0  0  0  0  0  0  0  0  0  0  0
  2  3  1  0
  2  1  1  6
  4  3  1  0
  5  2  1  0
  5  6  2  0
  8  7  1  0
  9  8  1  1
  9 11  1  0
  9 10  1  0
 10  5  1  0
 11 12  2  0
 13 14  1  0
 14 15  1  0
 15 16  1  1
 17 15  1  0
 17 18  1  6
 18 11  1  0
 19 17  1  0
 20 19  1  0
 21 19  2  0
M  END
$$$$
