CSI.pdb
     RDKit          3D

 21 20  0  0  1  0  0  0  0  0999 V2000
   26.3009  -20.4617   -9.1524 N   0  0  0  0  0  0  0  0  0  0  0  0
   25.4539  -20.9327  -10.2282 C   0  0  1  0  0  0  0  0  0  0  0  0
   24.0881  -20.2832  -10.0155 C   0  0  0  0  0  0  0  0  0  0  0  0
   23.2335  -21.0822   -8.6296 S   0  0  0  0  0  0  0  0  0  0  0  0
   25.9751  -20.4486  -11.5094 C   0  0  0  0  0  0  0  0  0  0  0  0
   26.5080  -19.2950  -11.5588 O   0  0  0  0  0  0  0  0  0  0  0  0
   27.4277  -21.0450  -15.9983 O   0  0  0  0  0  0  0  0  0  0  0  0
   26.7630  -21.6844  -14.9635 C   0  0  0  0  0  0  0  0  0  0  0  0
   26.4285  -20.6132  -13.9240 C   0  0  2  0  0  0  0  0  0  0  0  0
   25.9303  -21.1827  -12.7244 N   0  0  0  0  0  0  0  0  0  0  0  0
   25.4916  -19.6752  -14.5915 C   0  0  0  0  0  0  0  0  0  0  0  0
   24.2837  -19.9603  -14.4988 O   0  0  0  0  0  0  0  0  0  0  0  0
   26.9874  -14.6740  -14.9096 C   0  0  0  0  0  0  0  0  0  0  0  0
   25.9745  -15.7989  -14.7732 C   0  0  0  0  0  0  0  0  0  0  0  0
   25.4746  -16.2704  -16.1020 C   0  0  2  0  0  0  0  0  0  0  0  0
   24.5580  -15.2879  -16.7721 C   0  0  0  0  0  0  0  0  0  0  0  0
   24.9868  -17.6678  -16.0337 C   0  0  2  0  0  0  0  0  0  0  0  0
   25.9005  -18.5271  -15.2936 N   0  0  0  0  0  0  0  0  0  0  0  0
   24.5287  -18.2707  -17.2961 C   0  0  0  0  0  0  0  0  0  0  0  0
   25.4118  -18.8180  -18.1945 O   0  0  0  0  0  0  0  0  0  0  0  0
   23.3163  -18.3060  -17.5873 O   0  0  0  0  0  0  0  0  0  0  0  0
  2  3  1  0
  2  1  1  1
  4  3  1  0
  5  2  1  0
  5  6  2  0
  8  7  1  0
  9  8  1  6
  9 11  1  0
  9 10  1  0
 10  5  1  0
 11 12  2  0
 13 14  1  0
 14 15  1  0
 15 16  1  1
 17 15  1  0
 17 18  1  6
 18 11  1  0
 19 17  1  0
 20 19  1  0
 21 19  2  0
M  END
$$$$
