CSI.pdb
     RDKit          3D

 21 20  0  0  1  0  0  0  0  0999 V2000
   19.5736  -14.2924  -18.9484 N   0  0  0  0  0  0  0  0  0  0  0  0
   19.3528  -13.0269  -19.6164 C   0  0  1  0  0  0  0  0  0  0  0  0
   17.8980  -12.6473  -19.3479 C   0  0  0  0  0  0  0  0  0  0  0  0
   16.8320  -13.3290  -20.6472 S   0  0  0  0  0  0  0  0  0  0  0  0
   20.1954  -11.9964  -19.0036 C   0  0  0  0  0  0  0  0  0  0  0  0
   20.7335  -12.2339  -17.8761 O   0  0  0  0  0  0  0  0  0  0  0  0
   22.6932   -7.9298  -19.1849 O   0  0  0  0  0  0  0  0  0  0  0  0
   21.6811   -8.6263  -19.8268 C   0  0  0  0  0  0  0  0  0  0  0  0
   21.3112   -9.8029  -18.9220 C   0  0  2  0  0  0  0  0  0  0  0  0
   20.4628  -10.7276  -19.5830 N   0  0  0  0  0  0  0  0  0  0  0  0
   20.7278   -9.2063  -17.6945 C   0  0  0  0  0  0  0  0  0  0  0  0
   19.4974   -9.0207  -17.7157 O   0  0  0  0  0  0  0  0  0  0  0  0
   19.9456   -9.7011  -11.9546 C   0  0  0  0  0  0  0  0  0  0  0  0
   20.0936   -8.6825  -13.0730 C   0  0  0  0  0  0  0  0  0  0  0  0
   20.8674   -9.2272  -14.2316 C   0  0  2  0  0  0  0  0  0  0  0  0
   22.1875   -9.8222  -13.8345 C   0  0  0  0  0  0  0  0  0  0  0  0
   20.9034   -8.2672  -15.3596 C   0  0  2  0  0  0  0  0  0  0  0  0
   21.4810   -8.8585  -16.5586 N   0  0  0  0  0  0  0  0  0  0  0  0
   21.4345   -6.9253  -15.0692 C   0  0  0  0  0  0  0  0  0  0  0  0
   20.7852   -6.0624  -14.2206 O   0  0  0  0  0  0  0  0  0  0  0  0
   22.4992   -6.5311  -15.5858 O   0  0  0  0  0  0  0  0  0  0  0  0
  2  3  1  0
  2  1  1  1
  4  3  1  0
  5  2  1  0
  5  6  2  0
  8  7  1  0
  9  8  1  6
  9 11  1  0
  9 10  1  0
 10  5  1  0
 11 12  2  0
 13 14  1  0
 14 15  1  0
 15 16  1  1
 17 15  1  0
 17 18  1  6
 18 11  1  0
 19 17  1  0
 20 19  1  0
 21 19  2  0
M  END
$$$$
