CSI.pdb
     RDKit          3D

 21 20  0  0  1  0  0  0  0  0999 V2000
   18.9972  -14.5409  -19.2435 N   0  0  0  0  0  0  0  0  0  0  0  0
   18.0861  -13.5613  -18.6900 C   0  0  1  0  0  0  0  0  0  0  0  0
   17.5924  -14.1351  -17.3634 C   0  0  0  0  0  0  0  0  0  0  0  0
   15.9097  -14.7829  -17.5589 S   0  0  0  0  0  0  0  0  0  0  0  0
   18.8174  -12.3275  -18.3892 C   0  0  0  0  0  0  0  0  0  0  0  0
   20.0154  -12.4106  -17.9705 O   0  0  0  0  0  0  0  0  0  0  0  0
   19.4401   -7.6409  -18.9786 O   0  0  0  0  0  0  0  0  0  0  0  0
   18.4604   -8.6211  -18.9460 C   0  0  0  0  0  0  0  0  0  0  0  0
   19.1162   -9.8834  -18.3835 C   0  0  2  0  0  0  0  0  0  0  0  0
   18.2812  -11.0202  -18.5319 N   0  0  0  0  0  0  0  0  0  0  0  0
   19.4739   -9.5660  -16.9783 C   0  0  0  0  0  0  0  0  0  0  0  0
   18.5977   -9.8102  -16.1290 O   0  0  0  0  0  0  0  0  0  0  0  0
   23.5473  -11.6116  -14.9039 C   0  0  0  0  0  0  0  0  0  0  0  0
   22.2505  -10.8858  -15.2228 C   0  0  0  0  0  0  0  0  0  0  0  0
   22.2808   -9.4578  -14.7782 C   0  0  2  0  0  0  0  0  0  0  0  0
   22.6700   -9.2945  -13.3373 C   0  0  0  0  0  0  0  0  0  0  0  0
   21.0630   -8.7302  -15.2061 C   0  0  2  0  0  0  0  0  0  0  0  0
   20.7118   -9.0236  -16.5886 N   0  0  0  0  0  0  0  0  0  0  0  0
   21.0072   -7.2928  -14.8930 C   0  0  0  0  0  0  0  0  0  0  0  0
   20.5490   -6.8375  -13.6810 O   0  0  0  0  0  0  0  0  0  0  0  0
   21.3807   -6.4405  -15.7236 O   0  0  0  0  0  0  0  0  0  0  0  0
  2  3  1  0
  2  1  1  1
  4  3  1  0
  5  2  1  0
  5  6  2  0
  8  7  1  0
  9  8  1  1
  9 11  1  0
  9 10  1  0
 10  5  1  0
 11 12  2  0
 13 14  1  0
 14 15  1  0
 15 16  1  1
 17 15  1  0
 17 18  1  6
 18 11  1  0
 19 17  1  0
 20 19  1  0
 21 19  2  0
M  END
$$$$
