CSI.pdb
     RDKit          3D

 21 20  0  0  1  0  0  0  0  0999 V2000
   14.2968  -13.0976  -12.5479 N   0  0  0  0  0  0  0  0  0  0  0  0
   14.5773  -11.8369  -13.2022 C   0  0  1  0  0  0  0  0  0  0  0  0
   13.2235  -11.2326  -13.5693 C   0  0  0  0  0  0  0  0  0  0  0  0
   12.6121  -11.9755  -15.1067 S   0  0  0  0  0  0  0  0  0  0  0  0
   15.2216  -10.9253  -12.2529 C   0  0  0  0  0  0  0  0  0  0  0  0
   14.7589  -10.8420  -11.0713 O   0  0  0  0  0  0  0  0  0  0  0  0
   18.1214   -8.2094  -13.2458 O   0  0  0  0  0  0  0  0  0  0  0  0
   18.3049   -8.7698  -11.9913 C   0  0  0  0  0  0  0  0  0  0  0  0
   16.9466   -9.3157  -11.5478 C   0  0  2  0  0  0  0  0  0  0  0  0
   16.3453  -10.1114  -12.5563 N   0  0  0  0  0  0  0  0  0  0  0  0
   16.1450   -8.1346  -11.1410 C   0  0  0  0  0  0  0  0  0  0  0  0
   15.3800   -7.6755  -12.0087 O   0  0  0  0  0  0  0  0  0  0  0  0
   12.3960   -5.6907   -7.3521 C   0  0  0  0  0  0  0  0  0  0  0  0
   13.5804   -5.3955   -8.2577 C   0  0  0  0  0  0  0  0  0  0  0  0
   14.3817   -6.6234   -8.5545 C   0  0  2  0  0  0  0  0  0  0  0  0
   14.7571   -7.3971   -7.3237 C   0  0  0  0  0  0  0  0  0  0  0  0
   15.4858   -6.3356   -9.4998 C   0  0  2  0  0  0  0  0  0  0  0  0
   16.2150   -7.5414   -9.8676 N   0  0  0  0  0  0  0  0  0  0  0  0
   16.3725   -5.2112   -9.1583 C   0  0  0  0  0  0  0  0  0  0  0  0
   15.9650   -3.9065   -9.2931 O   0  0  0  0  0  0  0  0  0  0  0  0
   17.5267   -5.4116   -8.7298 O   0  0  0  0  0  0  0  0  0  0  0  0
  2  3  1  0
  2  1  1  1
  4  3  1  0
  5  2  1  0
  5  6  2  0
  8  7  1  0
  9  8  1  6
  9 11  1  0
  9 10  1  0
 10  5  1  0
 11 12  2  0
 13 14  1  0
 14 15  1  0
 15 16  1  1
 17 15  1  0
 17 18  1  1
 18 11  1  0
 19 17  1  0
 20 19  1  0
 21 19  2  0
M  END
$$$$
