CSI.pdb
     RDKit          3D

 21 20  0  0  1  0  0  0  0  0999 V2000
   16.9228  -14.0619  -17.5832 N   0  0  0  0  0  0  0  0  0  0  0  0
   16.4402  -12.9460  -16.7970 C   0  0  1  0  0  0  0  0  0  0  0  0
   16.4591  -13.4063  -15.3408 C   0  0  0  0  0  0  0  0  0  0  0  0
   15.0482  -14.5000  -15.0205 S   0  0  0  0  0  0  0  0  0  0  0  0
   17.3751  -11.8237  -16.9145 C   0  0  0  0  0  0  0  0  0  0  0  0
   18.6236  -12.0547  -16.8427 O   0  0  0  0  0  0  0  0  0  0  0  0
   16.9436   -8.5217  -19.1861 O   0  0  0  0  0  0  0  0  0  0  0  0
   17.3650   -8.1959  -17.9063 C   0  0  0  0  0  0  0  0  0  0  0  0
   17.9679   -9.4655  -17.3026 C   0  0  2  0  0  0  0  0  0  0  0  0
   16.9871  -10.4710  -17.1061 N   0  0  0  0  0  0  0  0  0  0  0  0
   18.6629   -9.0377  -16.0628 C   0  0  0  0  0  0  0  0  0  0  0  0
   17.9424   -8.9088  -15.0562 O   0  0  0  0  0  0  0  0  0  0  0  0
   23.9246  -10.5135  -14.6044 C   0  0  0  0  0  0  0  0  0  0  0  0
   22.8709   -9.5779  -15.1740 C   0  0  0  0  0  0  0  0  0  0  0  0
   21.6524   -9.5091  -14.3089 C   0  0  2  0  0  0  0  0  0  0  0  0
   21.0246  -10.8506  -14.0629 C   0  0  0  0  0  0  0  0  0  0  0  0
   20.7323   -8.4354  -14.7517 C   0  0  2  0  0  0  0  0  0  0  0  0
   20.0443   -8.7841  -15.9870 N   0  0  0  0  0  0  0  0  0  0  0  0
   21.2713   -7.0655  -14.7627 C   0  0  0  0  0  0  0  0  0  0  0  0
   21.3253   -6.3226  -15.9166 O   0  0  0  0  0  0  0  0  0  0  0  0
   21.6941   -6.5341  -13.7164 O   0  0  0  0  0  0  0  0  0  0  0  0
  2  3  1  0
  2  1  1  6
  4  3  1  0
  5  2  1  0
  5  6  2  0
  8  7  1  0
  9  8  1  1
  9 11  1  0
  9 10  1  0
 10  5  1  0
 11 12  2  0
 13 14  1  0
 14 15  1  0
 15 16  1  6
 17 15  1  0
 17 18  1  6
 18 11  1  0
 19 17  1  0
 20 19  1  0
 21 19  2  0
M  END
$$$$
