CSI.pdb
     RDKit          3D

 21 20  0  0  1  0  0  0  0  0999 V2000
   15.2996  -10.7691  -17.5108 N   0  0  0  0  0  0  0  0  0  0  0  0
   15.4110  -10.0326  -16.2693 C   0  0  1  0  0  0  0  0  0  0  0  0
   15.7051  -11.0645  -15.1824 C   0  0  0  0  0  0  0  0  0  0  0  0
   14.1754  -11.9163  -14.7095 S   0  0  0  0  0  0  0  0  0  0  0  0
   16.5619   -9.1281  -16.3383 C   0  0  0  0  0  0  0  0  0  0  0  0
   17.6824   -9.5888  -16.7248 O   0  0  0  0  0  0  0  0  0  0  0  0
   16.7698   -5.1895  -14.8865 O   0  0  0  0  0  0  0  0  0  0  0  0
   17.3356   -5.4511  -16.1247 C   0  0  0  0  0  0  0  0  0  0  0  0
   17.6784   -6.9416  -16.1483 C   0  0  2  0  0  0  0  0  0  0  0  0
   16.5219   -7.7492  -16.0001 N   0  0  0  0  0  0  0  0  0  0  0  0
   18.7037   -7.1415  -15.0938 C   0  0  0  0  0  0  0  0  0  0  0  0
   18.3065   -7.6925  -14.0511 O   0  0  0  0  0  0  0  0  0  0  0  0
   23.3993   -9.8050  -13.2912 C   0  0  0  0  0  0  0  0  0  0  0  0
   22.7111   -8.4535  -13.1921 C   0  0  0  0  0  0  0  0  0  0  0  0
   21.7864   -8.2070  -14.3419 C   0  0  2  0  0  0  0  0  0  0  0  0
   22.4341   -8.4230  -15.6791 C   0  0  0  0  0  0  0  0  0  0  0  0
   21.0458   -6.9340  -14.1796 C   0  0  2  0  0  0  0  0  0  0  0  0
   20.0480   -6.7484  -15.2240 N   0  0  0  0  0  0  0  0  0  0  0  0
   21.8519   -5.7265  -13.9358 C   0  0  0  0  0  0  0  0  0  0  0  0
   21.8625   -4.6773  -14.8220 O   0  0  0  0  0  0  0  0  0  0  0  0
   22.5508   -5.6184  -12.9084 O   0  0  0  0  0  0  0  0  0  0  0  0
  2  3  1  0
  2  1  1  6
  4  3  1  0
  5  2  1  0
  5  6  2  0
  8  7  1  0
  9  8  1  1
  9 11  1  0
  9 10  1  0
 10  5  1  0
 11 12  2  0
 13 14  1  0
 14 15  1  0
 15 16  1  6
 17 15  1  0
 17 18  1  6
 18 11  1  0
 19 17  1  0
 20 19  1  0
 21 19  2  0
M  END
$$$$
