CSI.pdb
     RDKit          3D

 21 20  0  0  1  0  0  0  0  0999 V2000
   16.0682  -12.3533  -16.7865 N   0  0  0  0  0  0  0  0  0  0  0  0
   15.7185  -11.1945  -15.9920 C   0  0  1  0  0  0  0  0  0  0  0  0
   15.6564  -11.6704  -14.5420 C   0  0  0  0  0  0  0  0  0  0  0  0
   13.9459  -12.0794  -14.0991 S   0  0  0  0  0  0  0  0  0  0  0  0
   16.7895  -10.1984  -16.0812 C   0  0  0  0  0  0  0  0  0  0  0  0
   17.9924  -10.5980  -16.1844 O   0  0  0  0  0  0  0  0  0  0  0  0
   18.2130   -5.7532  -17.0747 O   0  0  0  0  0  0  0  0  0  0  0  0
   17.1738   -6.4646  -16.4955 C   0  0  0  0  0  0  0  0  0  0  0  0
   17.6556   -7.9086  -16.3459 C   0  0  2  0  0  0  0  0  0  0  0  0
   16.5842   -8.7932  -16.0611 N   0  0  0  0  0  0  0  0  0  0  0  0
   18.7173   -7.8793  -15.3090 C   0  0  0  0  0  0  0  0  0  0  0  0
   18.3231   -7.9354  -14.1299 O   0  0  0  0  0  0  0  0  0  0  0  0
   23.6667  -10.4621  -13.5439 C   0  0  0  0  0  0  0  0  0  0  0  0
   22.9450   -9.1245  -13.5516 C   0  0  0  0  0  0  0  0  0  0  0  0
   22.0248   -8.9882  -14.7231 C   0  0  2  0  0  0  0  0  0  0  0  0
   22.7257   -9.1184  -16.0446 C   0  0  0  0  0  0  0  0  0  0  0  0
   21.1308   -7.8156  -14.5775 C   0  0  2  0  0  0  0  0  0  0  0  0
   20.0914   -7.7943  -15.5973 N   0  0  0  0  0  0  0  0  0  0  0  0
   21.7806   -6.5074  -14.3939 C   0  0  0  0  0  0  0  0  0  0  0  0
   21.6040   -5.4837  -15.2923 O   0  0  0  0  0  0  0  0  0  0  0  0
   22.5126   -6.2875  -13.4082 O   0  0  0  0  0  0  0  0  0  0  0  0
  2  3  1  0
  2  1  1  6
  4  3  1  0
  5  2  1  0
  5  6  2  0
  8  7  1  0
  9  8  1  1
  9 11  1  0
  9 10  1  0
 10  5  1  0
 11 12  2  0
 13 14  1  0
 14 15  1  0
 15 16  1  6
 17 15  1  0
 17 18  1  6
 18 11  1  0
 19 17  1  0
 20 19  1  0
 21 19  2  0
M  END
$$$$
