CSI.pdb
     RDKit          3D

 21 20  0  0  1  0  0  0  0  0999 V2000
   27.4388  -20.6980  -10.4951 N   0  0  0  0  0  0  0  0  0  0  0  0
   26.0966  -21.2359  -10.5680 C   0  0  1  0  0  0  0  0  0  0  0  0
   25.2345  -20.3649   -9.6564 C   0  0  0  0  0  0  0  0  0  0  0  0
   23.5013  -20.8889   -9.7603 S   0  0  0  0  0  0  0  0  0  0  0  0
   25.5826  -21.0861  -11.9321 C   0  0  0  0  0  0  0  0  0  0  0  0
   25.6463  -19.9452  -12.4903 O   0  0  0  0  0  0  0  0  0  0  0  0
   23.9582  -24.1563  -14.1850 O   0  0  0  0  0  0  0  0  0  0  0  0
   24.5918  -23.1389  -14.8814 C   0  0  0  0  0  0  0  0  0  0  0  0
   24.5186  -21.8891  -14.0025 C   0  0  2  0  0  0  0  0  0  0  0  0
   25.0073  -22.1374  -12.6944 N   0  0  0  0  0  0  0  0  0  0  0  0
   23.1057  -21.4370  -14.0525 C   0  0  0  0  0  0  0  0  0  0  0  0
   22.3928  -21.7841  -13.0933 O   0  0  0  0  0  0  0  0  0  0  0  0
   21.9700  -16.7598  -16.2498 C   0  0  0  0  0  0  0  0  0  0  0  0
   21.7155  -17.9025  -15.2805 C   0  0  0  0  0  0  0  0  0  0  0  0
   20.9648  -19.0270  -15.9207 C   0  0  2  0  0  0  0  0  0  0  0  0
   19.5442  -18.6752  -16.2560 C   0  0  0  0  0  0  0  0  0  0  0  0
   21.1603  -20.2983  -15.1851 C   0  0  2  0  0  0  0  0  0  0  0  0
   22.5670  -20.6651  -15.0976 N   0  0  0  0  0  0  0  0  0  0  0  0
   20.2968  -21.4259  -15.5725 C   0  0  0  0  0  0  0  0  0  0  0  0
   19.0732  -21.6309  -14.9833 O   0  0  0  0  0  0  0  0  0  0  0  0
   20.6518  -22.2316  -16.4561 O   0  0  0  0  0  0  0  0  0  0  0  0
  2  3  1  0
  2  1  1  6
  4  3  1  0
  5  2  1  0
  5  6  2  0
  8  7  1  0
  9  8  1  6
  9 11  1  0
  9 10  1  0
 10  5  1  0
 11 12  2  0
 13 14  1  0
 14 15  1  0
 15 16  1  1
 17 15  1  0
 17 18  1  6
 18 11  1  0
 19 17  1  0
 20 19  1  0
 21 19  2  0
M  END
$$$$
