CSI.pdb
     RDKit          3D

 21 20  0  0  1  0  0  0  0  0999 V2000
   16.8870  -12.4743  -14.0092 N   0  0  0  0  0  0  0  0  0  0  0  0
   16.2602  -11.2359  -14.4211 C   0  0  1  0  0  0  0  0  0  0  0  0
   14.7534  -11.4585  -14.3080 C   0  0  0  0  0  0  0  0  0  0  0  0
   14.1506  -12.3550  -15.7648 S   0  0  0  0  0  0  0  0  0  0  0  0
   16.6179  -10.1699  -13.4813 C   0  0  0  0  0  0  0  0  0  0  0  0
   16.7902  -10.4641  -12.2561 O   0  0  0  0  0  0  0  0  0  0  0  0
   18.2535   -5.7833  -12.5196 O   0  0  0  0  0  0  0  0  0  0  0  0
   17.8473   -6.6264  -13.5422 C   0  0  0  0  0  0  0  0  0  0  0  0
   17.2415   -7.8650  -12.8799 C   0  0  2  0  0  0  0  0  0  0  0  0
   16.7905   -8.8066  -13.8400 N   0  0  0  0  0  0  0  0  0  0  0  0
   16.1819   -7.3640  -11.9692 C   0  0  0  0  0  0  0  0  0  0  0  0
   15.1028   -7.0613  -12.5102 O   0  0  0  0  0  0  0  0  0  0  0  0
   12.3277   -8.0129   -7.8442 C   0  0  0  0  0  0  0  0  0  0  0  0
   13.3651   -6.9997   -8.2995 C   0  0  0  0  0  0  0  0  0  0  0  0
   14.4663   -7.6366   -9.0867 C   0  0  2  0  0  0  0  0  0  0  0  0
   15.1610   -8.7421   -8.3454 C   0  0  0  0  0  0  0  0  0  0  0  0
   15.3476   -6.6201   -9.7076 C   0  0  2  0  0  0  0  0  0  0  0  0
   16.3454   -7.2250  -10.5791 N   0  0  0  0  0  0  0  0  0  0  0  0
   15.9134   -5.5990   -8.8108 C   0  0  0  0  0  0  0  0  0  0  0  0
   17.2693   -5.4618   -8.6410 O   0  0  0  0  0  0  0  0  0  0  0  0
   15.1729   -4.8203   -8.1773 O   0  0  0  0  0  0  0  0  0  0  0  0
  2  3  1  0
  2  1  1  1
  4  3  1  0
  5  2  1  0
  5  6  2  0
  8  7  1  0
  9  8  1  6
  9 11  1  0
  9 10  1  0
 10  5  1  0
 11 12  2  0
 13 14  1  0
 14 15  1  0
 15 16  1  1
 17 15  1  0
 17 18  1  1
 18 11  1  0
 19 17  1  0
 20 19  1  0
 21 19  2  0
M  END
$$$$
