CSI.pdb
     RDKit          3D

 21 20  0  0  1  0  0  0  0  0999 V2000
   17.4203  -14.1653  -15.2454 N   0  0  0  0  0  0  0  0  0  0  0  0
   16.8580  -13.0724  -16.0108 C   0  0  1  0  0  0  0  0  0  0  0  0
   15.3691  -13.0326  -15.6728 C   0  0  0  0  0  0  0  0  0  0  0  0
   14.5363  -14.4801  -16.3802 S   0  0  0  0  0  0  0  0  0  0  0  0
   17.4441  -11.8070  -15.5607 C   0  0  0  0  0  0  0  0  0  0  0  0
   16.8874  -11.1780  -14.6058 O   0  0  0  0  0  0  0  0  0  0  0  0
   20.5299  -10.0377  -17.4810 O   0  0  0  0  0  0  0  0  0  0  0  0
   20.4836   -9.6537  -16.1499 C   0  0  0  0  0  0  0  0  0  0  0  0
   19.0710   -9.9608  -15.6498 C   0  0  2  0  0  0  0  0  0  0  0  0
   18.6088  -11.2168  -16.1194 N   0  0  0  0  0  0  0  0  0  0  0  0
   18.2325   -8.8073  -16.0615 C   0  0  0  0  0  0  0  0  0  0  0  0
   17.4725   -9.0084  -17.0262 O   0  0  0  0  0  0  0  0  0  0  0  0
   13.7904   -5.5054  -15.7902 C   0  0  0  0  0  0  0  0  0  0  0  0
   15.2841   -5.3311  -16.0107 C   0  0  0  0  0  0  0  0  0  0  0  0
   16.0671   -6.5049  -15.5137 C   0  0  2  0  0  0  0  0  0  0  0  0
   15.7866   -6.8380  -14.0768 C   0  0  0  0  0  0  0  0  0  0  0  0
   17.4973   -6.4004  -15.8865 C   0  0  2  0  0  0  0  0  0  0  0  0
   18.2639   -7.5512  -15.4294 N   0  0  0  0  0  0  0  0  0  0  0  0
   18.1629   -5.1185  -15.6019 C   0  0  0  0  0  0  0  0  0  0  0  0
   19.2084   -5.0316  -14.7155 O   0  0  0  0  0  0  0  0  0  0  0  0
   17.7969   -4.0670  -16.1642 O   0  0  0  0  0  0  0  0  0  0  0  0
  2  3  1  0
  2  1  1  1
  4  3  1  0
  5  2  1  0
  5  6  2  0
  8  7  1  0
  9  8  1  6
  9 11  1  0
  9 10  1  0
 10  5  1  0
 11 12  2  0
 13 14  1  0
 14 15  1  0
 15 16  1  1
 17 15  1  0
 17 18  1  1
 18 11  1  0
 19 17  1  0
 20 19  1  0
 21 19  2  0
M  END
$$$$
