CSI.pdb
     RDKit          3D

 21 20  0  0  1  0  0  0  0  0999 V2000
   21.2942  -17.5365  -18.5109 N   0  0  0  0  0  0  0  0  0  0  0  0
   22.0762  -16.9898  -17.4219 C   0  0  1  0  0  0  0  0  0  0  0  0
   21.0749  -16.4973  -16.3789 C   0  0  0  0  0  0  0  0  0  0  0  0
   20.6982  -14.7461  -16.6631 S   0  0  0  0  0  0  0  0  0  0  0  0
   22.8659  -18.0573  -16.8021 C   0  0  0  0  0  0  0  0  0  0  0  0
   22.2591  -19.0020  -16.2048 O   0  0  0  0  0  0  0  0  0  0  0  0
   27.1555  -18.6362  -16.8133 O   0  0  0  0  0  0  0  0  0  0  0  0
   26.2032  -19.6034  -17.0948 C   0  0  0  0  0  0  0  0  0  0  0  0
   24.9576  -19.2477  -16.2814 C   0  0  2  0  0  0  0  0  0  0  0  0
   24.2847  -18.1199  -16.8171 N   0  0  0  0  0  0  0  0  0  0  0  0
   25.4193  -19.0768  -14.8812 C   0  0  0  0  0  0  0  0  0  0  0  0
   25.5841  -17.9017  -14.5058 O   0  0  0  0  0  0  0  0  0  0  0  0
   25.3807  -20.5676   -9.1023 C   0  0  0  0  0  0  0  0  0  0  0  0
   26.2575  -20.2104  -10.2913 C   0  0  0  0  0  0  0  0  0  0  0  0
   25.5846  -20.5030  -11.5949 C   0  0  2  0  0  0  0  0  0  0  0  0
   25.0951  -21.9183  -11.7038 C   0  0  0  0  0  0  0  0  0  0  0  0
   26.3804  -20.0035  -12.7407 C   0  0  2  0  0  0  0  0  0  0  0  0
   25.6666  -20.1465  -14.0020 N   0  0  0  0  0  0  0  0  0  0  0  0
   27.7799  -20.4533  -12.8198 C   0  0  0  0  0  0  0  0  0  0  0  0
   28.2521  -21.1485  -13.9061 O   0  0  0  0  0  0  0  0  0  0  0  0
   28.5846  -20.2112  -11.8980 O   0  0  0  0  0  0  0  0  0  0  0  0
  2  3  1  0
  2  1  1  6
  4  3  1  0
  5  2  1  0
  5  6  2  0
  8  7  1  0
  9  8  1  6
  9 11  1  0
  9 10  1  0
 10  5  1  0
 11 12  2  0
 13 14  1  0
 14 15  1  0
 15 16  1  6
 17 15  1  0
 17 18  1  6
 18 11  1  0
 19 17  1  0
 20 19  1  0
 21 19  2  0
M  END
$$$$
