CSI.pdb
     RDKit          3D

 21 20  0  0  1  0  0  0  0  0999 V2000
   18.8625  -15.5479  -16.6539 N   0  0  0  0  0  0  0  0  0  0  0  0
   19.0000  -14.4250  -17.5575 C   0  0  1  0  0  0  0  0  0  0  0  0
   17.6157  -13.7890  -17.6662 C   0  0  0  0  0  0  0  0  0  0  0  0
   16.5489  -14.8083  -18.7209 S   0  0  0  0  0  0  0  0  0  0  0  0
   19.8958  -13.4275  -16.9661 C   0  0  0  0  0  0  0  0  0  0  0  0
   19.7943  -13.1706  -15.7247 O   0  0  0  0  0  0  0  0  0  0  0  0
   23.8911  -12.3324  -17.4467 O   0  0  0  0  0  0  0  0  0  0  0  0
   22.9405  -11.3959  -17.8222 C   0  0  0  0  0  0  0  0  0  0  0  0
   21.6675  -11.7189  -17.0379 C   0  0  2  0  0  0  0  0  0  0  0  0
   20.8884  -12.7110  -17.6862 N   0  0  0  0  0  0  0  0  0  0  0  0
   20.9693  -10.4239  -16.8416 C   0  0  0  0  0  0  0  0  0  0  0  0
   20.3110  -10.0118  -17.8140 O   0  0  0  0  0  0  0  0  0  0  0  0
   16.8856   -7.2196  -14.6130 C   0  0  0  0  0  0  0  0  0  0  0  0
   18.3722   -7.1158  -14.9117 C   0  0  0  0  0  0  0  0  0  0  0  0
   19.0316   -8.4578  -14.9601 C   0  0  2  0  0  0  0  0  0  0  0  0
   18.8705   -9.2425  -13.6903 C   0  0  0  0  0  0  0  0  0  0  0  0
   20.4109   -8.3659  -15.4936 C   0  0  2  0  0  0  0  0  0  0  0  0
   21.0220   -9.6785  -15.6499 N   0  0  0  0  0  0  0  0  0  0  0  0
   21.3053   -7.3901  -14.8494 C   0  0  0  0  0  0  0  0  0  0  0  0
   22.4403   -7.7842  -14.1839 O   0  0  0  0  0  0  0  0  0  0  0  0
   21.0592   -6.1681  -14.8926 O   0  0  0  0  0  0  0  0  0  0  0  0
  2  3  1  0
  2  1  1  1
  4  3  1  0
  5  2  1  0
  5  6  2  0
  8  7  1  0
  9  8  1  6
  9 11  1  0
  9 10  1  0
 10  5  1  0
 11 12  2  0
 13 14  1  0
 14 15  1  0
 15 16  1  1
 17 15  1  0
 17 18  1  1
 18 11  1  0
 19 17  1  0
 20 19  1  0
 21 19  2  0
M  END
$$$$
