IAY.pdb
     RDKit          3D

 26 26  0  0  1  0  0  0  0  0999 V2000
    7.9021  -11.6871   20.0159 C   0  0  0  0  0  0  0  0  0  0  0  0
    7.7167  -13.1551   19.7801 C   0  0  0  0  0  0  0  0  0  0  0  0
    8.0336  -13.9623   21.0123 C   0  0  2  0  0  0  0  0  0  0  0  0
    9.4078  -13.6085   21.4971 C   0  0  0  0  0  0  0  0  0  0  0  0
    7.8051  -15.4457   20.8311 C   0  0  2  0  0  0  0  0  0  0  0  0
    6.4194  -15.6710   20.3785 N   0  0  0  0  0  0  0  0  0  0  0  0
    7.9631  -16.2241   22.0782 C   0  0  0  0  0  0  0  0  0  0  0  0
    7.0464  -16.2410   22.9519 O   0  0  0  0  0  0  0  0  0  0  0  0
   10.3665  -18.7435   23.3664 C   0  0  0  0  0  0  0  0  0  0  0  0
    9.3168  -17.6580   23.6439 C   0  0  2  0  0  0  0  0  0  0  0  0
    9.1051  -16.9828   22.3794 N   0  0  0  0  0  0  0  0  0  0  0  0
    9.9237  -16.7586   24.6582 C   0  0  0  0  0  0  0  0  0  0  0  0
   10.8546  -15.9812   24.3436 O   0  0  0  0  0  0  0  0  0  0  0  0
    5.7242  -11.5431   25.3826 O   0  0  0  0  0  0  0  0  0  0  0  0
    6.5177  -12.4959   26.0073 C   0  0  0  0  0  0  0  0  0  0  0  0
    7.7927  -12.1459   26.4085 C   0  0  0  0  0  0  0  0  0  0  0  0
    8.5524  -13.1205   27.0267 C   0  0  0  0  0  0  0  0  0  0  0  0
    8.0899  -14.3977   27.2496 C   0  0  0  0  0  0  0  0  0  0  0  0
    8.8996  -15.4359   27.9055 C   0  0  0  0  0  0  0  0  0  0  0  0
   10.0226  -15.9646   27.0509 C   0  0  2  0  0  0  0  0  0  0  0  0
    9.4627  -16.7668   25.9847 N   0  0  0  0  0  0  0  0  0  0  0  0
   11.0178  -16.7580   27.7743 C   0  0  0  0  0  0  0  0  0  0  0  0
   11.9310  -16.1188   28.5960 O   0  0  0  0  0  0  0  0  0  0  0  0
    6.8149  -14.7140   26.8375 C   0  0  0  0  0  0  0  0  0  0  0  0
    6.0083  -13.7607   26.2074 C   0  0  0  0  0  0  0  0  0  0  0  0
   11.1127  -18.0116   27.7073 O   0  0  0  0  0  0  0  0  0  0  0  0
  1  2  1  0
  3  5  1  0
  3  2  1  0
  3  4  1  6
  5  6  1  1
  7  5  1  0
  7  8  2  0
 10  9  1  6
 11 10  1  0
 11  7  1  0
 12 10  1  0
 13 12  2  0
 15 25  2  0
 15 14  1  0
 16 15  1  0
 17 18  1  0
 17 16  2  0
 18 24  2  0
 19 18  1  0
 20 21  1  0
 20 19  1  1
 21 12  1  0
 22 20  1  0
 23 22  1  0
 24 25  1  0
 26 22  2  0
M  END
$$$$
