IAY.pdb
     RDKit          3D

 26 26  0  0  1  0  0  0  0  0999 V2000
    8.7053  -12.5499   20.4887 C   0  0  0  0  0  0  0  0  0  0  0  0
    8.5988  -13.5936   21.5586 C   0  0  0  0  0  0  0  0  0  0  0  0
    7.7229  -14.7428   21.1315 C   0  0  2  0  0  0  0  0  0  0  0  0
    6.3703  -14.2200   20.7493 C   0  0  0  0  0  0  0  0  0  0  0  0
    7.6875  -15.8734   22.1345 C   0  0  2  0  0  0  0  0  0  0  0  0
    7.1175  -15.3791   23.4020 N   0  0  0  0  0  0  0  0  0  0  0  0
    9.0244  -16.4108   22.4657 C   0  0  0  0  0  0  0  0  0  0  0  0
    9.6264  -17.1880   21.6672 O   0  0  0  0  0  0  0  0  0  0  0  0
   11.9729  -15.7089   23.0353 C   0  0  0  0  0  0  0  0  0  0  0  0
   11.0600  -16.5470   23.9416 C   0  0  2  0  0  0  0  0  0  0  0  0
    9.7093  -16.1085   23.6532 N   0  0  0  0  0  0  0  0  0  0  0  0
   11.4634  -16.2221   25.3335 C   0  0  0  0  0  0  0  0  0  0  0  0
   12.6582  -16.3365   25.6928 O   0  0  0  0  0  0  0  0  0  0  0  0
    5.4669  -13.1659   25.0887 O   0  0  0  0  0  0  0  0  0  0  0  0
    6.6107  -13.4351   25.8284 C   0  0  0  0  0  0  0  0  0  0  0  0
    7.7333  -12.6538   25.6325 C   0  0  0  0  0  0  0  0  0  0  0  0
    8.8521  -12.9517   26.3866 C   0  0  0  0  0  0  0  0  0  0  0  0
    8.8821  -13.9774   27.3043 C   0  0  0  0  0  0  0  0  0  0  0  0
   10.0740  -14.2961   28.1053 C   0  0  0  0  0  0  0  0  0  0  0  0
   10.7848  -15.5513   27.6690 C   0  0  2  0  0  0  0  0  0  0  0  0
   10.5110  -15.7819   26.2670 N   0  0  0  0  0  0  0  0  0  0  0  0
   10.4276  -16.7499   28.4296 C   0  0  0  0  0  0  0  0  0  0  0  0
   10.7380  -16.8181   29.7775 O   0  0  0  0  0  0  0  0  0  0  0  0
    7.7466  -14.7369   27.4752 C   0  0  0  0  0  0  0  0  0  0  0  0
    6.5899  -14.4731   26.7346 C   0  0  0  0  0  0  0  0  0  0  0  0
    9.8437  -17.7533   27.9424 O   0  0  0  0  0  0  0  0  0  0  0  0
  1  2  1  0
  3  5  1  0
  3  2  1  0
  3  4  1  1
  5  6  1  1
  7  5  1  0
  7  8  2  0
 10  9  1  6
 11 10  1  0
 11  7  1  0
 12 10  1  0
 13 12  2  0
 15 25  2  0
 15 14  1  0
 16 15  1  0
 17 18  1  0
 17 16  2  0
 18 24  2  0
 19 18  1  0
 20 21  1  0
 20 19  1  1
 21 12  1  0
 22 20  1  0
 23 22  1  0
 24 25  1  0
 26 22  2  0
M  END
$$$$
