IAY.pdb
     RDKit          3D

 26 26  0  0  1  0  0  0  0  0999 V2000
    3.9663  -21.9099   21.6828 C   0  0  0  0  0  0  0  0  0  0  0  0
    4.6902  -21.2348   22.8077 C   0  0  0  0  0  0  0  0  0  0  0  0
    5.7148  -20.2526   22.3019 C   0  0  2  0  0  0  0  0  0  0  0  0
    6.5882  -20.9262   21.2858 C   0  0  0  0  0  0  0  0  0  0  0  0
    6.4761  -19.5588   23.4084 C   0  0  2  0  0  0  0  0  0  0  0  0
    5.5168  -18.9411   24.3434 N   0  0  0  0  0  0  0  0  0  0  0  0
    7.3475  -18.4646   22.9295 C   0  0  0  0  0  0  0  0  0  0  0  0
    8.4194  -18.7166   22.3038 O   0  0  0  0  0  0  0  0  0  0  0  0
    7.0179  -14.8222   22.4476 C   0  0  0  0  0  0  0  0  0  0  0  0
    7.9350  -16.0264   22.7045 C   0  0  2  0  0  0  0  0  0  0  0  0
    7.0614  -17.1040   23.1235 N   0  0  0  0  0  0  0  0  0  0  0  0
    8.8585  -15.6072   23.7895 C   0  0  0  0  0  0  0  0  0  0  0  0
    9.7216  -14.7227   23.5840 O   0  0  0  0  0  0  0  0  0  0  0  0
    5.8871  -10.6776   26.2621 O   0  0  0  0  0  0  0  0  0  0  0  0
    6.5855  -11.8491   26.5223 C   0  0  0  0  0  0  0  0  0  0  0  0
    5.9215  -13.0575   26.4343 C   0  0  0  0  0  0  0  0  0  0  0  0
    6.6494  -14.2014   26.7002 C   0  0  0  0  0  0  0  0  0  0  0  0
    7.9828  -14.1751   27.0415 C   0  0  0  0  0  0  0  0  0  0  0  0
    8.7570  -15.3927   27.3269 C   0  0  0  0  0  0  0  0  0  0  0  0
    9.6245  -15.8470   26.1813 C   0  0  2  0  0  0  0  0  0  0  0  0
    8.7772  -16.1966   25.0616 N   0  0  0  0  0  0  0  0  0  0  0  0
   10.4995  -16.9790   26.4908 C   0  0  0  0  0  0  0  0  0  0  0  0
   10.4250  -18.1271   25.7201 O   0  0  0  0  0  0  0  0  0  0  0  0
    8.6148  -12.9545   27.1204 C   0  0  0  0  0  0  0  0  0  0  0  0
    7.9193  -11.7693   26.8600 C   0  0  0  0  0  0  0  0  0  0  0  0
   11.3389  -16.9929   27.4290 O   0  0  0  0  0  0  0  0  0  0  0  0
  1  2  1  0
  3  5  1  0
  3  2  1  0
  3  4  1  6
  5  6  1  1
  7  5  1  0
  7  8  2  0
 10  9  1  1
 11 10  1  0
 11  7  1  0
 12 10  1  0
 13 12  2  0
 15 25  2  0
 15 14  1  0
 16 15  1  0
 17 18  1  0
 17 16  2  0
 18 24  2  0
 19 18  1  0
 20 21  1  0
 20 19  1  1
 21 12  1  0
 22 20  1  0
 23 22  1  0
 24 25  1  0
 26 22  2  0
M  END
$$$$
