IAY.pdb
     RDKit          3D

 26 26  0  0  1  0  0  0  0  0999 V2000
    7.1735  -13.2555   18.9688 C   0  0  0  0  0  0  0  0  0  0  0  0
    8.2953  -13.2748   19.9619 C   0  0  0  0  0  0  0  0  0  0  0  0
    8.1063  -14.3544   20.9959 C   0  0  2  0  0  0  0  0  0  0  0  0
    6.7373  -14.2323   21.5958 C   0  0  0  0  0  0  0  0  0  0  0  0
    9.2236  -14.4114   22.0127 C   0  0  2  0  0  0  0  0  0  0  0  0
   10.5176  -14.4785   21.3076 N   0  0  0  0  0  0  0  0  0  0  0  0
    9.1675  -15.6036   22.8853 C   0  0  0  0  0  0  0  0  0  0  0  0
    8.1319  -15.8585   23.5684 O   0  0  0  0  0  0  0  0  0  0  0  0
   11.2654  -18.6381   23.3122 C   0  0  0  0  0  0  0  0  0  0  0  0
   10.1653  -17.7078   23.8430 C   0  0  2  0  0  0  0  0  0  0  0  0
   10.2244  -16.5179   23.0181 N   0  0  0  0  0  0  0  0  0  0  0  0
   10.5242  -17.4220   25.2556 C   0  0  0  0  0  0  0  0  0  0  0  0
   10.8582  -18.3505   26.0276 O   0  0  0  0  0  0  0  0  0  0  0  0
    5.7020  -11.9698   26.3757 O   0  0  0  0  0  0  0  0  0  0  0  0
    6.9564  -12.5316   26.5723 C   0  0  0  0  0  0  0  0  0  0  0  0
    7.5713  -13.1809   25.5190 C   0  0  0  0  0  0  0  0  0  0  0  0
    8.8187  -13.7272   25.7527 C   0  0  0  0  0  0  0  0  0  0  0  0
    9.4522  -13.6466   26.9723 C   0  0  0  0  0  0  0  0  0  0  0  0
   10.7790  -14.2304   27.2216 C   0  0  0  0  0  0  0  0  0  0  0  0
   10.8165  -15.7325   27.1063 C   0  0  2  0  0  0  0  0  0  0  0  0
   10.4943  -16.1064   25.7461 N   0  0  0  0  0  0  0  0  0  0  0  0
    9.9172  -16.4369   28.0218 C   0  0  0  0  0  0  0  0  0  0  0  0
   10.1765  -16.4143   29.3819 O   0  0  0  0  0  0  0  0  0  0  0  0
    8.8120  -12.9928   28.0010 C   0  0  0  0  0  0  0  0  0  0  0  0
    7.5484  -12.4238   27.8121 C   0  0  0  0  0  0  0  0  0  0  0  0
    8.8971  -17.0805   27.6611 O   0  0  0  0  0  0  0  0  0  0  0  0
  1  2  1  0
  3  5  1  0
  3  2  1  0
  3  4  1  1
  5  6  1  6
  7  5  1  0
  7  8  2  0
 10  9  1  6
 11 10  1  0
 11  7  1  0
 12 10  1  0
 13 12  2  0
 15 25  2  0
 15 14  1  0
 16 15  1  0
 17 18  1  0
 17 16  2  0
 18 24  2  0
 19 18  1  0
 20 21  1  0
 20 19  1  6
 21 12  1  0
 22 20  1  0
 23 22  1  0
 24 25  1  0
 26 22  2  0
M  END
$$$$
