IAY.pdb
     RDKit          3D

 26 26  0  0  1  0  0  0  0  0999 V2000
    7.4828  -12.1092   18.3630 C   0  0  0  0  0  0  0  0  0  0  0  0
    8.0160  -13.4766   18.0611 C   0  0  0  0  0  0  0  0  0  0  0  0
    8.2808  -14.2623   19.3192 C   0  0  2  0  0  0  0  0  0  0  0  0
    9.2195  -13.4904   20.1976 C   0  0  0  0  0  0  0  0  0  0  0  0
    8.7121  -15.6870   19.0554 C   0  0  2  0  0  0  0  0  0  0  0  0
    7.6380  -16.3924   18.3310 N   0  0  0  0  0  0  0  0  0  0  0  0
    8.9595  -16.4667   20.2869 C   0  0  0  0  0  0  0  0  0  0  0  0
    8.0066  -16.7707   21.0638 O   0  0  0  0  0  0  0  0  0  0  0  0
   12.0087  -17.8665   21.9429 C   0  0  0  0  0  0  0  0  0  0  0  0
   10.5291  -17.4590   21.9875 C   0  0  2  0  0  0  0  0  0  0  0  0
   10.2303  -16.9180   20.6769 N   0  0  0  0  0  0  0  0  0  0  0  0
   10.4258  -16.4268   23.0504 C   0  0  0  0  0  0  0  0  0  0  0  0
   11.0820  -15.3626   22.9698 O   0  0  0  0  0  0  0  0  0  0  0  0
    6.0386  -11.0743   28.2969 O   0  0  0  0  0  0  0  0  0  0  0  0
    6.5334  -12.0151   27.4038 C   0  0  0  0  0  0  0  0  0  0  0  0
    7.8285  -11.8819   26.9410 C   0  0  0  0  0  0  0  0  0  0  0  0
    8.2858  -12.8372   26.0537 C   0  0  0  0  0  0  0  0  0  0  0  0
    7.5102  -13.8915   25.6269 C   0  0  0  0  0  0  0  0  0  0  0  0
    7.9962  -14.9070   24.6804 C   0  0  0  0  0  0  0  0  0  0  0  0
    9.2533  -15.6071   25.1285 C   0  0  2  0  0  0  0  0  0  0  0  0
    9.5909  -16.6291   24.1613 N   0  0  0  0  0  0  0  0  0  0  0  0
    9.1719  -16.2148   26.4578 C   0  0  0  0  0  0  0  0  0  0  0  0
    8.8944  -17.5667   26.5722 O   0  0  0  0  0  0  0  0  0  0  0  0
    6.2241  -13.9951   26.1071 C   0  0  0  0  0  0  0  0  0  0  0  0
    5.7170  -13.0521   27.0071 C   0  0  0  0  0  0  0  0  0  0  0  0
    9.3390  -15.5885   27.5371 O   0  0  0  0  0  0  0  0  0  0  0  0
  1  2  1  0
  3  5  1  0
  3  2  1  0
  3  4  1  6
  5  6  1  1
  7  5  1  0
  7  8  2  0
 10  9  1  6
 11 10  1  0
 11  7  1  0
 12 10  1  0
 13 12  2  0
 15 25  2  0
 15 14  1  0
 16 15  1  0
 17 18  1  0
 17 16  2  0
 18 24  2  0
 19 18  1  0
 20 21  1  0
 20 19  1  6
 21 12  1  0
 22 20  1  0
 23 22  1  0
 24 25  1  0
 26 22  2  0
M  END
$$$$
