IAY.pdb
     RDKit          3D

 26 26  0  0  1  0  0  0  0  0999 V2000
    6.0884  -11.1246   26.9648 C   0  0  0  0  0  0  0  0  0  0  0  0
    5.5733  -12.4079   26.3877 C   0  0  0  0  0  0  0  0  0  0  0  0
    6.6705  -13.2031   25.7287 C   0  0  2  0  0  0  0  0  0  0  0  0
    7.4740  -12.2992   24.8420 C   0  0  0  0  0  0  0  0  0  0  0  0
    6.1734  -14.4568   25.0455 C   0  0  2  0  0  0  0  0  0  0  0  0
    5.5136  -15.3222   26.0413 N   0  0  0  0  0  0  0  0  0  0  0  0
    7.2526  -15.2690   24.4442 C   0  0  0  0  0  0  0  0  0  0  0  0
    7.9266  -16.0758   25.1505 O   0  0  0  0  0  0  0  0  0  0  0  0
    8.7498  -15.5460   21.0279 C   0  0  0  0  0  0  0  0  0  0  0  0
    8.6335  -16.0290   22.4806 C   0  0  2  0  0  0  0  0  0  0  0  0
    7.6011  -15.2118   23.0856 N   0  0  0  0  0  0  0  0  0  0  0  0
    9.9639  -15.7867   23.0950 C   0  0  0  0  0  0  0  0  0  0  0  0
   10.4974  -14.6549   23.0315 O   0  0  0  0  0  0  0  0  0  0  0  0
    9.7548  -13.7191   29.3997 O   0  0  0  0  0  0  0  0  0  0  0  0
   10.3100  -14.5963   28.4777 C   0  0  0  0  0  0  0  0  0  0  0  0
    9.6182  -15.7457   28.1471 C   0  0  0  0  0  0  0  0  0  0  0  0
   10.2022  -16.5941   27.2262 C   0  0  0  0  0  0  0  0  0  0  0  0
   11.4218  -16.3360   26.6421 C   0  0  0  0  0  0  0  0  0  0  0  0
   12.0446  -17.2405   25.6636 C   0  0  0  0  0  0  0  0  0  0  0  0
   12.0010  -16.7299   24.2464 C   0  0  2  0  0  0  0  0  0  0  0  0
   10.6427  -16.8232   23.7561 N   0  0  0  0  0  0  0  0  0  0  0  0
   12.8932  -17.4278   23.3191 C   0  0  0  0  0  0  0  0  0  0  0  0
   14.2632  -17.3521   23.5062 O   0  0  0  0  0  0  0  0  0  0  0  0
   12.0852  -15.1819   26.9934 C   0  0  0  0  0  0  0  0  0  0  0  0
   11.5337  -14.2925   27.9213 C   0  0  0  0  0  0  0  0  0  0  0  0
   12.5034  -18.1114   22.3363 O   0  0  0  0  0  0  0  0  0  0  0  0
  1  2  1  0
  3  5  1  0
  3  2  1  0
  3  4  1  6
  5  6  1  1
  7  5  1  0
  7  8  2  0
 10  9  1  6
 11 10  1  0
 11  7  1  0
 12 10  1  0
 13 12  2  0
 15 25  2  0
 15 14  1  0
 16 15  1  0
 17 18  1  0
 17 16  2  0
 18 24  2  0
 19 18  1  0
 20 21  1  0
 20 19  1  1
 21 12  1  0
 22 20  1  0
 23 22  1  0
 24 25  1  0
 26 22  2  0
M  END
$$$$
