IAY.pdb
     RDKit          3D

 26 26  0  0  1  0  0  0  0  0999 V2000
    6.7772  -11.9856   27.3010 C   0  0  0  0  0  0  0  0  0  0  0  0
    6.1584  -13.1443   26.5800 C   0  0  0  0  0  0  0  0  0  0  0  0
    7.1638  -13.8696   25.7237 C   0  0  2  0  0  0  0  0  0  0  0  0
    7.9094  -12.8753   24.8844 C   0  0  0  0  0  0  0  0  0  0  0  0
    6.5660  -15.0154   24.9393 C   0  0  2  0  0  0  0  0  0  0  0  0
    5.9268  -15.9611   25.8737 N   0  0  0  0  0  0  0  0  0  0  0  0
    7.5660  -15.7973   24.1813 C   0  0  0  0  0  0  0  0  0  0  0  0
    8.3043  -16.6445   24.7655 O   0  0  0  0  0  0  0  0  0  0  0  0
    8.7142  -15.8423   20.6218 C   0  0  0  0  0  0  0  0  0  0  0  0
    8.7883  -16.3793   22.0583 C   0  0  2  0  0  0  0  0  0  0  0  0
    7.7665  -15.6664   22.7981 N   0  0  0  0  0  0  0  0  0  0  0  0
   10.1538  -16.0521   22.5423 C   0  0  0  0  0  0  0  0  0  0  0  0
   11.0026  -15.5569   21.7652 O   0  0  0  0  0  0  0  0  0  0  0  0
   10.0886  -15.8170   30.5572 O   0  0  0  0  0  0  0  0  0  0  0  0
   10.5325  -15.5961   29.2603 C   0  0  0  0  0  0  0  0  0  0  0  0
   11.6584  -16.2624   28.8159 C   0  0  0  0  0  0  0  0  0  0  0  0
   12.0697  -16.0171   27.5199 C   0  0  0  0  0  0  0  0  0  0  0  0
   11.4088  -15.1508   26.6785 C   0  0  0  0  0  0  0  0  0  0  0  0
   11.8482  -14.8878   25.2996 C   0  0  0  0  0  0  0  0  0  0  0  0
   11.8440  -16.1075   24.4145 C   0  0  2  0  0  0  0  0  0  0  0  0
   10.5128  -16.2932   23.8784 N   0  0  0  0  0  0  0  0  0  0  0  0
   12.2698  -17.3422   25.0758 C   0  0  0  0  0  0  0  0  0  0  0  0
   13.5858  -17.4755   25.4857 O   0  0  0  0  0  0  0  0  0  0  0  0
   10.2903  -14.5028   27.1524 C   0  0  0  0  0  0  0  0  0  0  0  0
    9.8359  -14.7191   28.4573 C   0  0  0  0  0  0  0  0  0  0  0  0
   11.5133  -18.3212   25.3086 O   0  0  0  0  0  0  0  0  0  0  0  0
  1  2  1  0
  3  5  1  0
  3  2  1  0
  3  4  1  6
  5  6  1  1
  7  5  1  0
  7  8  2  0
 10  9  1  6
 11 10  1  0
 11  7  1  0
 12 10  1  0
 13 12  2  0
 15 25  2  0
 15 14  1  0
 16 15  1  0
 17 18  1  0
 17 16  2  0
 18 24  2  0
 19 18  1  0
 20 21  1  0
 20 19  1  1
 21 12  1  0
 22 20  1  0
 23 22  1  0
 24 25  1  0
 26 22  2  0
M  END
$$$$
