IAY.pdb
     RDKit          3D

 26 26  0  0  1  0  0  0  0  0999 V2000
    7.2659  -12.6417   18.4404 C   0  0  0  0  0  0  0  0  0  0  0  0
    8.4917  -13.1539   19.1333 C   0  0  0  0  0  0  0  0  0  0  0  0
    8.1445  -13.9548   20.3615 C   0  0  2  0  0  0  0  0  0  0  0  0
    7.2875  -13.1240   21.2693 C   0  0  0  0  0  0  0  0  0  0  0  0
    9.3505  -14.5657   21.0383 C   0  0  2  0  0  0  0  0  0  0  0  0
   10.0285  -15.4732   20.0935 N   0  0  0  0  0  0  0  0  0  0  0  0
    9.0119  -15.3824   22.2232 C   0  0  0  0  0  0  0  0  0  0  0  0
    8.3755  -14.8800   23.1962 O   0  0  0  0  0  0  0  0  0  0  0  0
    9.6401  -18.9278   23.2414 C   0  0  0  0  0  0  0  0  0  0  0  0
    9.0590  -17.5358   23.5275 C   0  0  2  0  0  0  0  0  0  0  0  0
    9.3571  -16.7366   22.3561 N   0  0  0  0  0  0  0  0  0  0  0  0
    9.7711  -17.0403   24.7330 C   0  0  0  0  0  0  0  0  0  0  0  0
   10.9582  -16.6474   24.6542 O   0  0  0  0  0  0  0  0  0  0  0  0
    6.3029  -11.3738   25.2570 O   0  0  0  0  0  0  0  0  0  0  0  0
    6.8544  -12.4596   25.9238 C   0  0  0  0  0  0  0  0  0  0  0  0
    6.0222  -13.4784   26.3464 C   0  0  0  0  0  0  0  0  0  0  0  0
    6.6073  -14.5420   27.0063 C   0  0  0  0  0  0  0  0  0  0  0  0
    7.9602  -14.6163   27.2497 C   0  0  0  0  0  0  0  0  0  0  0  0
    8.5827  -15.7474   27.9544 C   0  0  0  0  0  0  0  0  0  0  0  0
    9.6851  -16.4190   27.1767 C   0  0  2  0  0  0  0  0  0  0  0  0
    9.1237  -17.0052   25.9787 N   0  0  0  0  0  0  0  0  0  0  0  0
   10.4132  -17.4502   27.9179 C   0  0  0  0  0  0  0  0  0  0  0  0
   11.3195  -17.0739   28.8950 O   0  0  0  0  0  0  0  0  0  0  0  0
    8.7616  -13.5844   26.8155 C   0  0  0  0  0  0  0  0  0  0  0  0
    8.2148  -12.4867   26.1430 C   0  0  0  0  0  0  0  0  0  0  0  0
   10.2776  -18.6882   27.7328 O   0  0  0  0  0  0  0  0  0  0  0  0
  1  2  1  0
  3  5  1  0
  3  2  1  0
  3  4  1  1
  5  6  1  6
  7  5  1  0
  7  8  2  0
 10  9  1  6
 11 10  1  0
 11  7  1  0
 12 10  1  0
 13 12  2  0
 15 25  2  0
 15 14  1  0
 16 15  1  0
 17 18  1  0
 17 16  2  0
 18 24  2  0
 19 18  1  0
 20 21  1  0
 20 19  1  1
 21 12  1  0
 22 20  1  0
 23 22  1  0
 24 25  1  0
 26 22  2  0
M  END
$$$$
