IAY.pdb
     RDKit          3D

 26 26  0  0  1  0  0  0  0  0999 V2000
    7.0441  -13.6127   17.6871 C   0  0  0  0  0  0  0  0  0  0  0  0
    8.2742  -14.1429   18.3586 C   0  0  0  0  0  0  0  0  0  0  0  0
    8.8026  -13.1831   19.3929 C   0  0  2  0  0  0  0  0  0  0  0  0
    9.1031  -11.8668   18.7402 C   0  0  0  0  0  0  0  0  0  0  0  0
    9.9478  -13.7469   20.2029 C   0  0  2  0  0  0  0  0  0  0  0  0
   10.9966  -14.2329   19.2864 N   0  0  0  0  0  0  0  0  0  0  0  0
    9.5651  -14.9030   21.0413 C   0  0  0  0  0  0  0  0  0  0  0  0
    8.5934  -14.8238   21.8496 O   0  0  0  0  0  0  0  0  0  0  0  0
   11.1272  -18.2182   21.7385 C   0  0  0  0  0  0  0  0  0  0  0  0
    9.9823  -17.2161   21.9443 C   0  0  2  0  0  0  0  0  0  0  0  0
   10.2276  -16.1401   21.0054 N   0  0  0  0  0  0  0  0  0  0  0  0
   10.0933  -16.7591   23.3531 C   0  0  0  0  0  0  0  0  0  0  0  0
   11.0799  -16.0835   23.7270 O   0  0  0  0  0  0  0  0  0  0  0  0
    6.6381  -10.8758   27.3624 O   0  0  0  0  0  0  0  0  0  0  0  0
    6.8859  -12.1999   27.0260 C   0  0  0  0  0  0  0  0  0  0  0  0
    8.0227  -12.8133   27.5164 C   0  0  0  0  0  0  0  0  0  0  0  0
    8.2354  -14.1312   27.1601 C   0  0  0  0  0  0  0  0  0  0  0  0
    7.3712  -14.8346   26.3518 C   0  0  0  0  0  0  0  0  0  0  0  0
    7.5989  -16.2369   25.9706 C   0  0  0  0  0  0  0  0  0  0  0  0
    9.0334  -16.5524   25.6332 C   0  0  2  0  0  0  0  0  0  0  0  0
    9.0935  -17.0780   24.2864 N   0  0  0  0  0  0  0  0  0  0  0  0
    9.6804  -17.4976   26.5449 C   0  0  0  0  0  0  0  0  0  0  0  0
   10.4269  -17.0159   27.6071 O   0  0  0  0  0  0  0  0  0  0  0  0
    6.2476  -14.1939   25.8799 C   0  0  0  0  0  0  0  0  0  0  0  0
    5.9899  -12.8603   26.2135 C   0  0  0  0  0  0  0  0  0  0  0  0
    9.6106  -18.7500   26.4374 O   0  0  0  0  0  0  0  0  0  0  0  0
  1  2  1  0
  3  5  1  0
  3  2  1  0
  3  4  1  6
  5  6  1  6
  7  5  1  0
  7  8  2  0
 10  9  1  6
 11 10  1  0
 11  7  1  0
 12 10  1  0
 13 12  2  0
 15 25  2  0
 15 14  1  0
 16 15  1  0
 17 18  1  0
 17 16  2  0
 18 24  2  0
 19 18  1  0
 20 21  1  0
 20 19  1  1
 21 12  1  0
 22 20  1  0
 23 22  1  0
 24 25  1  0
 26 22  2  0
M  END
$$$$
