IAY.pdb
     RDKit          3D

 26 26  0  0  1  0  0  0  0  0999 V2000
-49926.9375-2205.1650-25499.8301 C   0  0  0  0  0  0  0  0  0  0  0  0
-49927.8281-2206.3237-25500.0918 C   0  0  0  0  0  0  0  0  0  0  0  0
-49927.9766-2206.5852-25501.5547 C   0  0  2  0  0  0  0  0  0  0  0  0
-49926.6641-2206.3669-25502.2344 C   0  0  0  0  0  0  0  0  0  0  0  0
-49929.1328-2205.8416-25502.1836 C   0  0  2  0  0  0  0  0  0  0  0  0
-49930.3555-2206.0994-25501.4121 N   0  0  0  0  0  0  0  0  0  0  0  0
-49929.4297-2206.2690-25503.5840 C   0  0  0  0  0  0  0  0  0  0  0  0
-49930.0039-2205.4858-25504.3945 O   0  0  0  0  0  0  0  0  0  0  0  0
-49931.2695-2208.5261-25503.9668 C   0  0  0  0  0  0  0  0  0  0  0  0
-49930.0117-2208.3618-25504.8398 C   0  0  2  0  0  0  0  0  0  0  0  0
-49929.1133-2207.5356-25504.0742 N   0  0  0  0  0  0  0  0  0  0  0  0
-49930.4805-2207.6765-25506.0840 C   0  0  0  0  0  0  0  0  0  0  0  0
-49929.7773-2206.7649-25506.5996 O   0  0  0  0  0  0  0  0  0  0  0  0
-49933.4219-2214.9595-25503.9453 O   0  0  0  0  0  0  0  0  0  0  0  0
-49933.0586-2213.6367-25504.1523 C   0  0  0  0  0  0  0  0  0  0  0  0
-49932.0039-2213.0969-25503.4590 C   0  0  0  0  0  0  0  0  0  0  0  0
-49931.6836-2211.7759-25503.7109 C   0  0  0  0  0  0  0  0  0  0  0  0
-49932.3750-2211.0027-25504.6270 C   0  0  0  0  0  0  0  0  0  0  0  0
-49932.0273-2209.5918-25504.8809 C   0  0  0  0  0  0  0  0  0  0  0  0
-49932.5742-2209.0552-25506.1797 C   0  0  2  0  0  0  0  0  0  0  0  0
-49931.6875-2208.0327-25506.6855 N   0  0  0  0  0  0  0  0  0  0  0  0
-49933.9336-2208.5037-25506.0723 C   0  0  0  0  0  0  0  0  0  0  0  0
-49934.1211-2207.2427-25505.5254 O   0  0  0  0  0  0  0  0  0  0  0  0
-49933.4141-2211.5691-25505.3066 C   0  0  0  0  0  0  0  0  0  0  0  0
-49933.7617-2212.9019-25505.0859 C   0  0  0  0  0  0  0  0  0  0  0  0
-49934.9727-2209.1018-25506.4629 O   0  0  0  0  0  0  0  0  0  0  0  0
  1  2  1  0
  3  5  1  0
  3  2  1  0
  3  4  1  6
  5  6  1  1
  7  5  1  0
  7  8  2  0
 10  9  1  1
 11 10  1  0
 11  7  1  0
 12 10  1  0
 13 12  2  0
 15 25  2  0
 15 14  1  0
 16 15  1  0
 17 18  1  0
 17 16  2  0
 18 24  2  0
 19 18  1  0
 20 21  1  0
 20 19  1  1
 21 12  1  0
 22 20  1  0
 23 22  1  0
 24 25  1  0
 26 22  2  0
M  END
$$$$
