IAY.pdb
     RDKit          3D

 26 26  0  0  1  0  0  0  0  0999 V2000
    7.4146  -12.2331   18.1713 C   0  0  0  0  0  0  0  0  0  0  0  0
    8.5532  -12.8823   18.8975 C   0  0  0  0  0  0  0  0  0  0  0  0
    8.0670  -13.8233   19.9692 C   0  0  2  0  0  0  0  0  0  0  0  0
    7.0752  -13.1124   20.8407 C   0  0  0  0  0  0  0  0  0  0  0  0
    9.1879  -14.4950   20.7294 C   0  0  2  0  0  0  0  0  0  0  0  0
   10.0285  -15.2535   19.7838 N   0  0  0  0  0  0  0  0  0  0  0  0
    8.7172  -15.4701   21.7361 C   0  0  0  0  0  0  0  0  0  0  0  0
    7.8993  -15.1252   22.6394 O   0  0  0  0  0  0  0  0  0  0  0  0
    9.3600  -19.0971   22.3917 C   0  0  0  0  0  0  0  0  0  0  0  0
    8.7415  -17.7524   22.7995 C   0  0  2  0  0  0  0  0  0  0  0  0
    9.1264  -16.8126   21.7658 N   0  0  0  0  0  0  0  0  0  0  0  0
    9.3457  -17.4110   24.1126 C   0  0  0  0  0  0  0  0  0  0  0  0
   10.5664  -17.1429   24.2009 O   0  0  0  0  0  0  0  0  0  0  0  0
    6.4444  -11.3273   25.6267 O   0  0  0  0  0  0  0  0  0  0  0  0
    6.8308  -12.5865   26.0659 C   0  0  0  0  0  0  0  0  0  0  0  0
    8.1738  -12.8425   26.2651 C   0  0  0  0  0  0  0  0  0  0  0  0
    8.5199  -14.1067   26.7024 C   0  0  0  0  0  0  0  0  0  0  0  0
    7.5909  -15.0945   26.9399 C   0  0  0  0  0  0  0  0  0  0  0  0
    7.9596  -16.4410   27.4031 C   0  0  0  0  0  0  0  0  0  0  0  0
    9.0593  -17.0837   26.5977 C   0  0  2  0  0  0  0  0  0  0  0  0
    8.5570  -17.3838   25.2743 N   0  0  0  0  0  0  0  0  0  0  0  0
    9.6133  -18.3038   27.1871 C   0  0  0  0  0  0  0  0  0  0  0  0
   10.4754  -18.2073   28.2666 O   0  0  0  0  0  0  0  0  0  0  0  0
    6.2608  -14.8067   26.7316 C   0  0  0  0  0  0  0  0  0  0  0  0
    5.8623  -13.5411   26.2892 C   0  0  0  0  0  0  0  0  0  0  0  0
    9.3616  -19.4681   26.7793 O   0  0  0  0  0  0  0  0  0  0  0  0
  1  2  1  0
  3  5  1  0
  3  2  1  0
  3  4  1  1
  5  6  1  6
  7  5  1  0
  7  8  2  0
 10  9  1  6
 11 10  1  0
 11  7  1  0
 12 10  1  0
 13 12  2  0
 15 25  2  0
 15 14  1  0
 16 15  1  0
 17 18  1  0
 17 16  2  0
 18 24  2  0
 19 18  1  0
 20 21  1  0
 20 19  1  1
 21 12  1  0
 22 20  1  0
 23 22  1  0
 24 25  1  0
 26 22  2  0
M  END
$$$$
