IAY.pdb
     RDKit          3D

 26 26  0  0  1  0  0  0  0  0999 V2000
    6.9432  -12.8285   20.3000 C   0  0  0  0  0  0  0  0  0  0  0  0
    6.9139  -14.0033   21.2296 C   0  0  0  0  0  0  0  0  0  0  0  0
    8.0880  -14.9208   21.0061 C   0  0  2  0  0  0  0  0  0  0  0  0
    8.1864  -15.2539   19.5472 C   0  0  0  0  0  0  0  0  0  0  0  0
    8.0864  -16.1276   21.9167 C   0  0  2  0  0  0  0  0  0  0  0  0
    7.4379  -15.7711   23.1927 N   0  0  0  0  0  0  0  0  0  0  0  0
    9.4411  -16.6078   22.2630 C   0  0  0  0  0  0  0  0  0  0  0  0
    9.9512  -17.5983   21.6606 O   0  0  0  0  0  0  0  0  0  0  0  0
   12.5149  -15.3155   23.3308 C   0  0  0  0  0  0  0  0  0  0  0  0
   11.5664  -16.4905   23.6082 C   0  0  2  0  0  0  0  0  0  0  0  0
   10.2425  -16.0197   23.2541 N   0  0  0  0  0  0  0  0  0  0  0  0
   11.6850  -16.7713   25.0618 C   0  0  0  0  0  0  0  0  0  0  0  0
   12.8116  -16.8665   25.6017 O   0  0  0  0  0  0  0  0  0  0  0  0
    8.0258  -11.4027   26.2348 O   0  0  0  0  0  0  0  0  0  0  0  0
    8.3452  -12.6889   26.6490 C   0  0  0  0  0  0  0  0  0  0  0  0
    9.3905  -12.8663   27.5349 C   0  0  0  0  0  0  0  0  0  0  0  0
    9.6787  -14.1603   27.9241 C   0  0  0  0  0  0  0  0  0  0  0  0
    8.9739  -15.2513   27.4679 C   0  0  0  0  0  0  0  0  0  0  0  0
    9.2823  -16.6291   27.8804 C   0  0  0  0  0  0  0  0  0  0  0  0
   10.5505  -17.1771   27.2784 C   0  0  2  0  0  0  0  0  0  0  0  0
   10.5355  -16.9341   25.8521 N   0  0  0  0  0  0  0  0  0  0  0  0
   10.7722  -18.6041   27.5182 C   0  0  0  0  0  0  0  0  0  0  0  0
   11.0918  -19.0382   28.7939 O   0  0  0  0  0  0  0  0  0  0  0  0
    7.9382  -15.0400   26.5859 C   0  0  0  0  0  0  0  0  0  0  0  0
    7.6093  -13.7480   26.1631 C   0  0  0  0  0  0  0  0  0  0  0  0
   10.6932  -19.4946   26.6317 O   0  0  0  0  0  0  0  0  0  0  0  0
  1  2  1  0
  3  5  1  0
  3  2  1  0
  3  4  1  6
  5  6  1  1
  7  5  1  0
  7  8  2  0
 10  9  1  1
 11 10  1  0
 11  7  1  0
 12 10  1  0
 13 12  2  0
 15 25  2  0
 15 14  1  0
 16 15  1  0
 17 18  1  0
 17 16  2  0
 18 24  2  0
 19 18  1  0
 20 21  1  0
 20 19  1  6
 21 12  1  0
 22 20  1  0
 23 22  1  0
 24 25  1  0
 26 22  2  0
M  END
$$$$
