IAY.pdb
     RDKit          3D

 26 26  0  0  1  0  0  0  0  0999 V2000
    7.3664  -11.8460   19.2197 C   0  0  0  0  0  0  0  0  0  0  0  0
    7.2989  -13.3028   18.8759 C   0  0  0  0  0  0  0  0  0  0  0  0
    8.0890  -14.1420   19.8463 C   0  0  2  0  0  0  0  0  0  0  0  0
    9.4723  -13.5779   19.9778 C   0  0  0  0  0  0  0  0  0  0  0  0
    8.0519  -15.6195   19.5281 C   0  0  2  0  0  0  0  0  0  0  0  0
    6.6501  -16.0789   19.5222 N   0  0  0  0  0  0  0  0  0  0  0  0
    8.7554  -16.4558   20.5239 C   0  0  0  0  0  0  0  0  0  0  0  0
    8.2255  -16.7119   21.6453 O   0  0  0  0  0  0  0  0  0  0  0  0
   12.0819  -18.1652   20.6422 C   0  0  0  0  0  0  0  0  0  0  0  0
   10.7532  -17.7746   21.3049 C   0  0  2  0  0  0  0  0  0  0  0  0
   10.0249  -17.0150   20.3087 N   0  0  0  0  0  0  0  0  0  0  0  0
   11.1168  -16.9426   22.4803 C   0  0  0  0  0  0  0  0  0  0  0  0
   11.1222  -15.6924   22.3977 O   0  0  0  0  0  0  0  0  0  0  0  0
   10.3588  -14.0028   30.5319 O   0  0  0  0  0  0  0  0  0  0  0  0
   10.3366  -14.6078   29.2824 C   0  0  0  0  0  0  0  0  0  0  0  0
   10.3910  -15.9863   29.2055 C   0  0  0  0  0  0  0  0  0  0  0  0
   10.3667  -16.5522   27.9453 C   0  0  0  0  0  0  0  0  0  0  0  0
   10.2920  -15.8036   26.7924 C   0  0  0  0  0  0  0  0  0  0  0  0
   10.2687  -16.4059   25.4507 C   0  0  0  0  0  0  0  0  0  0  0  0
   11.6245  -16.8316   24.9491 C   0  0  2  0  0  0  0  0  0  0  0  0
   11.4598  -17.5456   23.7013 N   0  0  0  0  0  0  0  0  0  0  0  0
   12.3850  -17.6661   25.8809 C   0  0  0  0  0  0  0  0  0  0  0  0
   12.1432  -19.0289   25.9267 O   0  0  0  0  0  0  0  0  0  0  0  0
   10.2393  -14.4323   26.9040 C   0  0  0  0  0  0  0  0  0  0  0  0
   10.2611  -13.8141   28.1584 C   0  0  0  0  0  0  0  0  0  0  0  0
   13.2671  -17.2314   26.6671 O   0  0  0  0  0  0  0  0  0  0  0  0
  1  2  1  0
  3  5  1  0
  3  2  1  0
  3  4  1  6
  5  6  1  1
  7  5  1  0
  7  8  2  0
 10  9  1  6
 11 10  1  0
 11  7  1  0
 12 10  1  0
 13 12  2  0
 15 25  2  0
 15 14  1  0
 16 15  1  0
 17 18  1  0
 17 16  2  0
 18 24  2  0
 19 18  1  0
 20 21  1  0
 20 19  1  1
 21 12  1  0
 22 20  1  0
 23 22  1  0
 24 25  1  0
 26 22  2  0
M  END
$$$$
