IAY.pdb
     RDKit          3D

 26 26  0  0  1  0  0  0  0  0999 V2000
    8.8046  -11.5673   19.8694 C   0  0  0  0  0  0  0  0  0  0  0  0
    8.3418  -12.7062   19.0127 C   0  0  0  0  0  0  0  0  0  0  0  0
    7.9822  -13.9145   19.8379 C   0  0  2  0  0  0  0  0  0  0  0  0
    6.7512  -13.6179   20.6412 C   0  0  0  0  0  0  0  0  0  0  0  0
    9.1383  -14.4482   20.6529 C   0  0  2  0  0  0  0  0  0  0  0  0
   10.2282  -14.8492   19.7434 N   0  0  0  0  0  0  0  0  0  0  0  0
    8.7980  -15.6502   21.4436 C   0  0  0  0  0  0  0  0  0  0  0  0
    7.9010  -16.4527   21.0493 O   0  0  0  0  0  0  0  0  0  0  0  0
    9.9458  -18.2631   22.1996 C   0  0  0  0  0  0  0  0  0  0  0  0
    9.3739  -17.3038   23.2531 C   0  0  2  0  0  0  0  0  0  0  0  0
    9.4252  -15.9854   22.6539 N   0  0  0  0  0  0  0  0  0  0  0  0
   10.2730  -17.4135   24.4303 C   0  0  0  0  0  0  0  0  0  0  0  0
   10.6620  -18.5348   24.8315 O   0  0  0  0  0  0  0  0  0  0  0  0
    5.9839  -10.8980   26.2534 O   0  0  0  0  0  0  0  0  0  0  0  0
    6.6434  -12.1197   26.2612 C   0  0  0  0  0  0  0  0  0  0  0  0
    7.7671  -12.2684   27.0514 C   0  0  0  0  0  0  0  0  0  0  0  0
    8.3964  -13.4983   27.0331 C   0  0  0  0  0  0  0  0  0  0  0  0
    7.9497  -14.5540   26.2708 C   0  0  0  0  0  0  0  0  0  0  0  0
    8.6211  -15.8625   26.2495 C   0  0  0  0  0  0  0  0  0  0  0  0
   10.1227  -15.7797   26.3469 C   0  0  2  0  0  0  0  0  0  0  0  0
   10.6999  -16.2614   25.1105 N   0  0  0  0  0  0  0  0  0  0  0  0
   10.7029  -16.5225   27.4669 C   0  0  0  0  0  0  0  0  0  0  0  0
   10.5171  -17.8927   27.5438 O   0  0  0  0  0  0  0  0  0  0  0  0
    6.8272  -14.3726   25.4944 C   0  0  0  0  0  0  0  0  0  0  0  0
    6.1564  -13.1455   25.4803 C   0  0  0  0  0  0  0  0  0  0  0  0
   11.3771  -16.0002   28.3931 O   0  0  0  0  0  0  0  0  0  0  0  0
  1  2  1  0
  3  5  1  0
  3  2  1  0
  3  4  1  1
  5  6  1  6
  7  5  1  0
  7  8  2  0
 10  9  1  6
 11 10  1  0
 11  7  1  0
 12 10  1  0
 13 12  2  0
 15 25  2  0
 15 14  1  0
 16 15  1  0
 17 18  1  0
 17 16  2  0
 18 24  2  0
 19 18  1  0
 20 21  1  0
 20 19  1  6
 21 12  1  0
 22 20  1  0
 23 22  1  0
 24 25  1  0
 26 22  2  0
M  END
$$$$
