IAY.pdb
     RDKit          3D

 26 26  0  0  1  0  0  0  0  0999 V2000
    7.9823  -12.0259   19.0251 C   0  0  0  0  0  0  0  0  0  0  0  0
    7.9755  -13.5176   18.8835 C   0  0  0  0  0  0  0  0  0  0  0  0
    8.1015  -14.2050   20.2184 C   0  0  2  0  0  0  0  0  0  0  0  0
    9.3249  -13.6995   20.9230 C   0  0  0  0  0  0  0  0  0  0  0  0
    8.0200  -15.7118   20.1256 C   0  0  2  0  0  0  0  0  0  0  0  0
    6.7547  -16.0892   19.4680 N   0  0  0  0  0  0  0  0  0  0  0  0
    8.0171  -16.3851   21.4419 C   0  0  0  0  0  0  0  0  0  0  0  0
    7.0978  -16.1592   22.2832 O   0  0  0  0  0  0  0  0  0  0  0  0
    9.7490  -19.2272   23.0273 C   0  0  0  0  0  0  0  0  0  0  0  0
    9.0951  -17.8472   23.1856 C   0  0  2  0  0  0  0  0  0  0  0  0
    9.0017  -17.3001   21.8471 N   0  0  0  0  0  0  0  0  0  0  0  0
   10.0163  -17.0593   24.0439 C   0  0  0  0  0  0  0  0  0  0  0  0
   11.1456  -16.7194   23.6209 O   0  0  0  0  0  0  0  0  0  0  0  0
    5.2049  -12.5533   27.2254 O   0  0  0  0  0  0  0  0  0  0  0  0
    6.4711  -13.0456   26.9392 C   0  0  0  0  0  0  0  0  0  0  0  0
    6.6249  -13.9230   25.8830 C   0  0  0  0  0  0  0  0  0  0  0  0
    7.8997  -14.3914   25.6288 C   0  0  0  0  0  0  0  0  0  0  0  0
    8.9942  -14.0203   26.3767 C   0  0  0  0  0  0  0  0  0  0  0  0
   10.3508  -14.5210   26.1075 C   0  0  0  0  0  0  0  0  0  0  0  0
   10.4987  -16.0099   26.2869 C   0  0  2  0  0  0  0  0  0  0  0  0
    9.6344  -16.6840   25.3422 N   0  0  0  0  0  0  0  0  0  0  0  0
   10.2020  -16.4939   27.6362 C   0  0  0  0  0  0  0  0  0  0  0  0
   10.9843  -16.0714   28.6980 O   0  0  0  0  0  0  0  0  0  0  0  0
    8.8066  -13.1445   27.4223 C   0  0  0  0  0  0  0  0  0  0  0  0
    7.5347  -12.6434   27.7180 C   0  0  0  0  0  0  0  0  0  0  0  0
    9.2652  -17.2868   27.9171 O   0  0  0  0  0  0  0  0  0  0  0  0
  1  2  1  0
  3  5  1  0
  3  2  1  0
  3  4  1  6
  5  6  1  1
  7  5  1  0
  7  8  2  0
 10  9  1  6
 11 10  1  0
 11  7  1  0
 12 10  1  0
 13 12  2  0
 15 25  2  0
 15 14  1  0
 16 15  1  0
 17 18  1  0
 17 16  2  0
 18 24  2  0
 19 18  1  0
 20 21  1  0
 20 19  1  1
 21 12  1  0
 22 20  1  0
 23 22  1  0
 24 25  1  0
 26 22  2  0
M  END
$$$$
