IAY.pdb
     RDKit          3D

 26 26  0  0  1  0  0  0  0  0999 V2000
    7.6104  -11.8849   20.8406 C   0  0  0  0  0  0  0  0  0  0  0  0
    7.2632  -13.1995   20.2108 C   0  0  0  0  0  0  0  0  0  0  0  0
    8.1703  -14.3037   20.6886 C   0  0  2  0  0  0  0  0  0  0  0  0
    9.5957  -13.8450   20.6065 C   0  0  0  0  0  0  0  0  0  0  0  0
    7.9077  -15.6293   20.0110 C   0  0  2  0  0  0  0  0  0  0  0  0
    6.4679  -15.9391   20.0937 N   0  0  0  0  0  0  0  0  0  0  0  0
    8.6107  -16.7655   20.6440 C   0  0  0  0  0  0  0  0  0  0  0  0
    8.0154  -17.5149   21.4734 O   0  0  0  0  0  0  0  0  0  0  0  0
   12.0027  -18.2922   20.2647 C   0  0  0  0  0  0  0  0  0  0  0  0
   10.6290  -18.2400   20.9485 C   0  0  2  0  0  0  0  0  0  0  0  0
    9.9503  -17.0924   20.3809 N   0  0  0  0  0  0  0  0  0  0  0  0
   10.9049  -18.0610   22.3969 C   0  0  0  0  0  0  0  0  0  0  0  0
   11.5392  -18.9319   23.0362 O   0  0  0  0  0  0  0  0  0  0  0  0
   10.1657  -13.9856   30.2679 O   0  0  0  0  0  0  0  0  0  0  0  0
   10.1902  -14.3011   28.9160 C   0  0  0  0  0  0  0  0  0  0  0  0
   11.3895  -14.6680   28.3362 C   0  0  0  0  0  0  0  0  0  0  0  0
   11.3744  -14.9748   26.9891 C   0  0  0  0  0  0  0  0  0  0  0  0
   10.2299  -14.9274   26.2256 C   0  0  0  0  0  0  0  0  0  0  0  0
   10.2144  -15.2516   24.7909 C   0  0  0  0  0  0  0  0  0  0  0  0
   10.6805  -16.6497   24.4760 C   0  0  2  0  0  0  0  0  0  0  0  0
   10.4584  -16.9125   23.0705 N   0  0  0  0  0  0  0  0  0  0  0  0
   10.0361  -17.6998   25.2666 C   0  0  0  0  0  0  0  0  0  0  0  0
    8.8390  -18.2423   24.8302 O   0  0  0  0  0  0  0  0  0  0  0  0
    9.0514  -14.5579   26.8340 C   0  0  0  0  0  0  0  0  0  0  0  0
    9.0172  -14.2383   28.1952 C   0  0  0  0  0  0  0  0  0  0  0  0
   10.4964  -18.1628   26.3431 O   0  0  0  0  0  0  0  0  0  0  0  0
  1  2  1  0
  3  5  1  0
  3  2  1  0
  3  4  1  6
  5  6  1  1
  7  5  1  0
  7  8  2  0
 10  9  1  6
 11 10  1  0
 11  7  1  0
 12 10  1  0
 13 12  2  0
 15 25  2  0
 15 14  1  0
 16 15  1  0
 17 18  1  0
 17 16  2  0
 18 24  2  0
 19 18  1  0
 20 21  1  0
 20 19  1  1
 21 12  1  0
 22 20  1  0
 23 22  1  0
 24 25  1  0
 26 22  2  0
M  END
$$$$
