KEW.pdb
     RDKit          3D

 33 34  0  0  1  0  0  0  0  0999 V2000
    6.3093  -16.9045   21.4608 N   0  0  0  0  0  0  0  0  0  0  0  0
    7.6958  -16.5730   21.3675 C   0  0  1  0  0  0  0  0  0  0  0  0
    7.8690  -15.0927   21.2802 C   0  0  0  0  0  0  0  0  0  0  0  0
    7.2834  -14.4545   20.0687 C   0  0  0  0  0  0  0  0  0  0  0  0
    7.5689  -12.9847   19.9467 C   0  0  0  0  0  0  0  0  0  0  0  0
    8.0645  -12.6262   18.5586 C   0  0  0  0  0  0  0  0  0  0  0  0
    8.1780  -11.1848   18.4845 N   0  0  0  0  0  0  0  0  0  0  0  0
    8.4897  -17.0294   22.5378 C   0  0  0  0  0  0  0  0  0  0  0  0
    7.8347  -17.3339   23.5821 O   0  0  0  0  0  0  0  0  0  0  0  0
    9.8824  -17.1484   22.5793 N   0  0  0  0  0  0  0  0  0  0  0  0
   10.6130  -17.5926   23.7709 C   0  0  1  0  0  0  0  0  0  0  0  0
   12.0249  -17.8007   23.3470 C   0  0  0  0  0  0  0  0  0  0  0  0
   12.9389  -18.3325   24.4119 C   0  0  0  0  0  0  0  0  0  0  0  0
   14.2951  -18.5246   23.8932 C   0  0  0  0  0  0  0  0  0  0  0  0
   14.9322  -17.6639   23.2909 O   0  0  0  0  0  0  0  0  0  0  0  0
   10.4896  -16.5856   24.8628 C   0  0  0  0  0  0  0  0  0  0  0  0
   10.7881  -15.3919   24.6305 O   0  0  0  0  0  0  0  0  0  0  0  0
   14.9111  -19.7613   24.0907 O   0  0  0  0  0  0  0  0  0  0  0  0
   10.0437  -16.9269   26.1660 N   0  0  0  0  0  0  0  0  0  0  0  0
   10.2702  -16.2139   27.3709 C   0  0  1  0  0  0  0  0  0  0  0  0
    9.2221  -15.2816   27.8309 C   0  0  0  0  0  0  0  0  0  0  0  0
    8.1023  -15.0349   26.9228 C   0  0  0  0  0  0  0  0  0  0  0  0
    7.1929  -15.8790   26.3434 C   0  0  0  0  0  0  0  0  0  0  0  0
    6.3469  -15.1592   25.5708 N   0  0  0  0  0  0  0  0  0  0  0  0
    6.7098  -13.8641   25.6526 C   0  0  0  0  0  0  0  0  0  0  0  0
    6.1840  -12.7225   25.0629 C   0  0  0  0  0  0  0  0  0  0  0  0
    6.7464  -11.4964   25.3101 C   0  0  0  0  0  0  0  0  0  0  0  0
    7.8366  -11.3669   26.1414 C   0  0  0  0  0  0  0  0  0  0  0  0
    8.3566  -12.4951   26.7245 C   0  0  0  0  0  0  0  0  0  0  0  0
    7.7987  -13.7390   26.4837 C   0  0  0  0  0  0  0  0  0  0  0  0
   10.5873  -17.1163   28.5537 C   0  0  0  0  0  0  0  0  0  0  0  0
   10.8954  -16.6308   29.6439 O   0  0  0  0  0  0  0  0  0  0  0  0
   10.5196  -18.4894   28.3669 O   0  0  0  0  0  0  0  0  0  0  0  0
  2  1  1  1
  3  2  1  0
  4  3  1  0
  5  4  1  0
  6  5  1  0
  7  6  1  0
  8  2  1  0
  8  9  2  0
 10  8  1  0
 11 10  1  0
 11 12  1  6
 13 12  1  0
 13 14  1  0
 14 18  1  0
 14 15  2  0
 16 11  1  0
 17 16  2  0
 19 16  1  0
 20 21  1  1
 20 19  1  0
 21 22  1  0
 22 23  2  0
 23 24  1  0
 25 24  1  0
 26 25  2  0
 27 26  1  0
 28 29  1  0
 28 27  2  0
 29 30  2  0
 30 22  1  0
 30 25  1  0
 31 33  1  0
 31 20  1  0
 32 31  2  0
M  END
$$$$
