KEW.pdb
     RDKit          3D

 33 34  0  0  1  0  0  0  0  0999 V2000
    6.0469  -17.1648   20.8385 N   0  0  0  0  0  0  0  0  0  0  0  0
    7.3342  -16.5490   20.9051 C   0  0  1  0  0  0  0  0  0  0  0  0
    7.1943  -15.0828   21.1492 C   0  0  0  0  0  0  0  0  0  0  0  0
    7.2032  -14.2313   19.9274 C   0  0  0  0  0  0  0  0  0  0  0  0
    8.2751  -13.1789   19.9169 C   0  0  0  0  0  0  0  0  0  0  0  0
    8.1247  -12.2415   18.7339 C   0  0  0  0  0  0  0  0  0  0  0  0
    9.1183  -11.1965   18.8642 N   0  0  0  0  0  0  0  0  0  0  0  0
    8.1873  -17.0860   21.9969 C   0  0  0  0  0  0  0  0  0  0  0  0
    7.5816  -17.5878   22.9938 O   0  0  0  0  0  0  0  0  0  0  0  0
    9.5856  -17.0824   22.0131 N   0  0  0  0  0  0  0  0  0  0  0  0
   10.3757  -17.6986   23.0841 C   0  0  1  0  0  0  0  0  0  0  0  0
   11.7280  -17.9551   22.5167 C   0  0  0  0  0  0  0  0  0  0  0  0
   12.7001  -18.6081   23.4553 C   0  0  0  0  0  0  0  0  0  0  0  0
   14.0055  -18.7914   22.8166 C   0  0  0  0  0  0  0  0  0  0  0  0
   15.0540  -18.3091   23.2379 O   0  0  0  0  0  0  0  0  0  0  0  0
   10.4195  -16.8069   24.2776 C   0  0  0  0  0  0  0  0  0  0  0  0
   10.7167  -15.5997   24.1286 O   0  0  0  0  0  0  0  0  0  0  0  0
   14.0723  -19.5614   21.6545 O   0  0  0  0  0  0  0  0  0  0  0  0
   10.1357  -17.2738   25.5872 N   0  0  0  0  0  0  0  0  0  0  0  0
   10.3202  -16.5803   26.8105 C   0  0  1  0  0  0  0  0  0  0  0  0
    9.1210  -16.2428   27.6025 C   0  0  0  0  0  0  0  0  0  0  0  0
    7.9230  -15.8451   26.8637 C   0  0  0  0  0  0  0  0  0  0  0  0
    6.9525  -16.5780   26.2342 C   0  0  0  0  0  0  0  0  0  0  0  0
    6.0455  -15.7371   25.6853 N   0  0  0  0  0  0  0  0  0  0  0  0
    6.4301  -14.4750   25.9594 C   0  0  0  0  0  0  0  0  0  0  0  0
    5.8643  -13.2499   25.6336 C   0  0  0  0  0  0  0  0  0  0  0  0
    6.4624  -12.0840   26.0383 C   0  0  0  0  0  0  0  0  0  0  0  0
    7.6281  -12.0981   26.7711 C   0  0  0  0  0  0  0  0  0  0  0  0
    8.1877  -13.3090   27.0935 C   0  0  0  0  0  0  0  0  0  0  0  0
    7.5946  -14.4935   26.6914 C   0  0  0  0  0  0  0  0  0  0  0  0
   11.2761  -17.2832   27.7625 C   0  0  0  0  0  0  0  0  0  0  0  0
   11.6735  -18.4240   27.5181 O   0  0  0  0  0  0  0  0  0  0  0  0
   11.6811  -16.6053   28.9033 O   0  0  0  0  0  0  0  0  0  0  0  0
  2  1  1  1
  3  2  1  0
  4  3  1  0
  5  4  1  0
  6  5  1  0
  7  6  1  0
  8  2  1  0
  8  9  2  0
 10  8  1  0
 11 10  1  0
 11 12  1  6
 13 12  1  0
 13 14  1  0
 14 18  1  0
 14 15  2  0
 16 11  1  0
 17 16  2  0
 19 16  1  0
 20 21  1  1
 20 19  1  0
 21 22  1  0
 22 23  2  0
 23 24  1  0
 25 24  1  0
 26 25  2  0
 27 26  1  0
 28 29  1  0
 28 27  2  0
 29 30  2  0
 30 22  1  0
 30 25  1  0
 31 33  1  0
 31 20  1  0
 32 31  2  0
M  END
$$$$
