KEW.pdb
     RDKit          3D

 33 34  0  0  1  0  0  0  0  0999 V2000
    8.4438  -19.9168   18.5012 N   0  0  0  0  0  0  0  0  0  0  0  0
    9.0012  -19.8293   19.8136 C   0  0  1  0  0  0  0  0  0  0  0  0
   10.3552  -20.4577   19.8434 C   0  0  0  0  0  0  0  0  0  0  0  0
   10.4785  -21.7377   19.0922 C   0  0  0  0  0  0  0  0  0  0  0  0
   11.8478  -22.3534   19.1434 C   0  0  0  0  0  0  0  0  0  0  0  0
   11.8947  -23.6720   18.3951 C   0  0  0  0  0  0  0  0  0  0  0  0
   13.2648  -24.1401   18.4025 N   0  0  0  0  0  0  0  0  0  0  0  0
    9.1666  -18.4316   20.2905 C   0  0  0  0  0  0  0  0  0  0  0  0
   10.2888  -17.8840   20.0601 O   0  0  0  0  0  0  0  0  0  0  0  0
    8.1970  -17.6820   20.9639 N   0  0  0  0  0  0  0  0  0  0  0  0
    8.4100  -16.2946   21.3889 C   0  0  1  0  0  0  0  0  0  0  0  0
    7.1686  -15.5509   21.0392 C   0  0  0  0  0  0  0  0  0  0  0  0
    7.2153  -14.0736   21.2997 C   0  0  0  0  0  0  0  0  0  0  0  0
    7.9495  -13.3759   20.2417 C   0  0  0  0  0  0  0  0  0  0  0  0
    8.2380  -13.8754   19.1569 O   0  0  0  0  0  0  0  0  0  0  0  0
    8.7154  -16.2377   22.8467 C   0  0  0  0  0  0  0  0  0  0  0  0
    7.8348  -16.5770   23.6697 O   0  0  0  0  0  0  0  0  0  0  0  0
    8.3515  -12.0593   20.4715 O   0  0  0  0  0  0  0  0  0  0  0  0
    9.9739  -15.8114   23.3445 N   0  0  0  0  0  0  0  0  0  0  0  0
   10.3664  -15.6785   24.7009 C   0  0  1  0  0  0  0  0  0  0  0  0
    9.8206  -14.5437   25.4713 C   0  0  0  0  0  0  0  0  0  0  0  0
    8.3964  -14.5845   25.8021 C   0  0  0  0  0  0  0  0  0  0  0  0
    7.4950  -15.6149   25.8337 C   0  0  0  0  0  0  0  0  0  0  0  0
    6.2840  -15.1358   26.2011 N   0  0  0  0  0  0  0  0  0  0  0  0
    6.4062  -13.8091   26.4033 C   0  0  0  0  0  0  0  0  0  0  0  0
    5.4806  -12.8481   26.7865 C   0  0  0  0  0  0  0  0  0  0  0  0
    5.8625  -11.5381   26.9240 C   0  0  0  0  0  0  0  0  0  0  0  0
    7.1611  -11.1458   26.6878 C   0  0  0  0  0  0  0  0  0  0  0  0
    8.0765  -12.0955   26.3091 C   0  0  0  0  0  0  0  0  0  0  0  0
    7.7046  -13.4214   26.1665 C   0  0  0  0  0  0  0  0  0  0  0  0
   10.0981  -16.9253   25.5301 C   0  0  0  0  0  0  0  0  0  0  0  0
    9.4479  -17.8601   25.0585 O   0  0  0  0  0  0  0  0  0  0  0  0
   10.6033  -16.9748   26.8212 O   0  0  0  0  0  0  0  0  0  0  0  0
  2  1  1  6
  3  2  1  0
  4  3  1  0
  5  4  1  0
  6  5  1  0
  7  6  1  0
  8  2  1  0
  8  9  2  0
 10  8  1  0
 11 10  1  0
 11 12  1  1
 13 12  1  0
 13 14  1  0
 14 18  1  0
 14 15  2  0
 16 11  1  0
 17 16  2  0
 19 16  1  0
 20 21  1  1
 20 19  1  0
 21 22  1  0
 22 23  2  0
 23 24  1  0
 25 24  1  0
 26 25  2  0
 27 26  1  0
 28 29  1  0
 28 27  2  0
 29 30  2  0
 30 22  1  0
 30 25  1  0
 31 33  1  0
 31 20  1  0
 32 31  2  0
M  END
$$$$
