KEW.pdb
     RDKit          3D

 33 34  0  0  1  0  0  0  0  0999 V2000
    8.5752  -16.7565   19.4729 N   0  0  0  0  0  0  0  0  0  0  0  0
    9.1400  -15.7788   20.3481 C   0  0  1  0  0  0  0  0  0  0  0  0
    8.1808  -14.6533   20.5542 C   0  0  0  0  0  0  0  0  0  0  0  0
    7.3598  -14.2922   19.3654 C   0  0  0  0  0  0  0  0  0  0  0  0
    7.9872  -13.2591   18.4733 C   0  0  0  0  0  0  0  0  0  0  0  0
    7.0558  -12.8559   17.3460 C   0  0  0  0  0  0  0  0  0  0  0  0
    7.7450  -11.8827   16.5250 N   0  0  0  0  0  0  0  0  0  0  0  0
    9.4683  -16.3145   21.6948 C   0  0  0  0  0  0  0  0  0  0  0  0
    8.4932  -16.4806   22.4910 O   0  0  0  0  0  0  0  0  0  0  0  0
   10.7489  -16.6456   22.1483 N   0  0  0  0  0  0  0  0  0  0  0  0
   10.9902  -17.4245   23.3673 C   0  0  1  0  0  0  0  0  0  0  0  0
   12.2783  -18.1422   23.1615 C   0  0  0  0  0  0  0  0  0  0  0  0
   12.2827  -19.1344   22.0355 C   0  0  0  0  0  0  0  0  0  0  0  0
   13.6159  -19.7114   21.8483 C   0  0  0  0  0  0  0  0  0  0  0  0
   14.2137  -20.3601   22.7034 O   0  0  0  0  0  0  0  0  0  0  0  0
   11.0219  -16.5299   24.5591 C   0  0  0  0  0  0  0  0  0  0  0  0
   11.7174  -15.4892   24.5243 O   0  0  0  0  0  0  0  0  0  0  0  0
   14.2561  -19.5167   20.6234 O   0  0  0  0  0  0  0  0  0  0  0  0
   10.2898  -16.8113   25.7416 N   0  0  0  0  0  0  0  0  0  0  0  0
   10.4789  -16.2480   27.0294 C   0  0  1  0  0  0  0  0  0  0  0  0
    9.6889  -15.0527   27.3848 C   0  0  0  0  0  0  0  0  0  0  0  0
    8.4163  -14.8622   26.6893 C   0  0  0  0  0  0  0  0  0  0  0  0
    7.4776  -15.7531   26.2414 C   0  0  0  0  0  0  0  0  0  0  0  0
    6.4667  -15.0749   25.6505 N   0  0  0  0  0  0  0  0  0  0  0  0
    6.7536  -13.7600   25.7177 C   0  0  0  0  0  0  0  0  0  0  0  0
    6.0615  -12.6436   25.2684 C   0  0  0  0  0  0  0  0  0  0  0  0
    6.5773  -11.3877   25.4621 C   0  0  0  0  0  0  0  0  0  0  0  0
    7.7832  -11.2032   26.1009 C   0  0  0  0  0  0  0  0  0  0  0  0
    8.4675  -12.3066   26.5453 C   0  0  0  0  0  0  0  0  0  0  0  0
    7.9585  -13.5801   26.3564 C   0  0  0  0  0  0  0  0  0  0  0  0
   10.2738  -17.2461   28.1589 C   0  0  0  0  0  0  0  0  0  0  0  0
    9.7832  -18.3536   27.9313 O   0  0  0  0  0  0  0  0  0  0  0  0
   10.6524  -16.8724   29.4403 O   0  0  0  0  0  0  0  0  0  0  0  0
  2  1  1  6
  3  2  1  0
  4  3  1  0
  5  4  1  0
  6  5  1  0
  7  6  1  0
  8  2  1  0
  8  9  2  0
 10  8  1  0
 11 10  1  0
 11 12  1  6
 13 12  1  0
 13 14  1  0
 14 18  1  0
 14 15  2  0
 16 11  1  0
 17 16  2  0
 19 16  1  0
 20 21  1  1
 20 19  1  0
 21 22  1  0
 22 23  2  0
 23 24  1  0
 25 24  1  0
 26 25  2  0
 27 26  1  0
 28 29  1  0
 28 27  2  0
 29 30  2  0
 30 22  1  0
 30 25  1  0
 31 33  1  0
 31 20  1  0
 32 31  2  0
M  END
$$$$
