KEW.pdb
     RDKit          3D

 33 34  0  0  1  0  0  0  0  0999 V2000
    7.5609  -17.3526   20.2088 N   0  0  0  0  0  0  0  0  0  0  0  0
    8.7094  -16.6486   20.6843 C   0  0  1  0  0  0  0  0  0  0  0  0
    8.4018  -15.1948   20.8291 C   0  0  0  0  0  0  0  0  0  0  0  0
    8.2130  -14.4547   19.5506 C   0  0  0  0  0  0  0  0  0  0  0  0
    7.9787  -12.9806   19.7201 C   0  0  0  0  0  0  0  0  0  0  0  0
    7.7115  -12.3018   18.3902 C   0  0  0  0  0  0  0  0  0  0  0  0
    7.3630  -10.9220   18.6562 N   0  0  0  0  0  0  0  0  0  0  0  0
    9.1813  -17.1213   22.0118 C   0  0  0  0  0  0  0  0  0  0  0  0
    8.3069  -17.6436   22.7701 O   0  0  0  0  0  0  0  0  0  0  0  0
   10.4943  -17.0376   22.4853 N   0  0  0  0  0  0  0  0  0  0  0  0
   10.9448  -17.6941   23.7170 C   0  0  1  0  0  0  0  0  0  0  0  0
   12.3252  -18.1853   23.4527 C   0  0  0  0  0  0  0  0  0  0  0  0
   12.4404  -19.2066   22.3591 C   0  0  0  0  0  0  0  0  0  0  0  0
   13.8385  -19.5801   22.1334 C   0  0  0  0  0  0  0  0  0  0  0  0
   14.2036  -20.4361   21.3313 O   0  0  0  0  0  0  0  0  0  0  0  0
   10.8892  -16.7438   24.8639 C   0  0  0  0  0  0  0  0  0  0  0  0
   11.5017  -15.6544   24.7858 O   0  0  0  0  0  0  0  0  0  0  0  0
   14.8263  -18.9273   22.8725 O   0  0  0  0  0  0  0  0  0  0  0  0
   10.1643  -17.0252   26.0509 N   0  0  0  0  0  0  0  0  0  0  0  0
   10.2254  -16.3301   27.2857 C   0  0  1  0  0  0  0  0  0  0  0  0
    8.9570  -15.8689   27.8837 C   0  0  0  0  0  0  0  0  0  0  0  0
    7.9010  -15.4443   26.9650 C   0  0  0  0  0  0  0  0  0  0  0  0
    6.9575  -16.1512   26.2682 C   0  0  0  0  0  0  0  0  0  0  0  0
    6.2038  -15.2926   25.5432 N   0  0  0  0  0  0  0  0  0  0  0  0
    6.6593  -14.0452   25.7718 C   0  0  0  0  0  0  0  0  0  0  0  0
    6.2480  -12.8122   25.2841 C   0  0  0  0  0  0  0  0  0  0  0  0
    6.8896  -11.6656   25.6773 C   0  0  0  0  0  0  0  0  0  0  0  0
    7.9478  -11.7071   26.5573 C   0  0  0  0  0  0  0  0  0  0  0  0
    8.3546  -12.9257   27.0397 C   0  0  0  0  0  0  0  0  0  0  0  0
    7.7160  -14.0910   26.6512 C   0  0  0  0  0  0  0  0  0  0  0  0
   10.9549  -17.1016   28.3751 C   0  0  0  0  0  0  0  0  0  0  0  0
   11.2793  -18.2771   28.1965 O   0  0  0  0  0  0  0  0  0  0  0  0
   11.2394  -16.4456   29.5640 O   0  0  0  0  0  0  0  0  0  0  0  0
  2  1  1  1
  3  2  1  0
  4  3  1  0
  5  4  1  0
  6  5  1  0
  7  6  1  0
  8  2  1  0
  8  9  2  0
 10  8  1  0
 11 10  1  0
 11 12  1  6
 13 12  1  0
 13 14  1  0
 14 18  1  0
 14 15  2  0
 16 11  1  0
 17 16  2  0
 19 16  1  0
 20 21  1  1
 20 19  1  0
 21 22  1  0
 22 23  2  0
 23 24  1  0
 25 24  1  0
 26 25  2  0
 27 26  1  0
 28 29  1  0
 28 27  2  0
 29 30  2  0
 30 22  1  0
 30 25  1  0
 31 33  1  0
 31 20  1  0
 32 31  2  0
M  END
$$$$
