KEW.pdb
     RDKit          3D

 33 34  0  0  1  0  0  0  0  0999 V2000
    6.1983  -16.5182   21.5873 N   0  0  0  0  0  0  0  0  0  0  0  0
    7.4865  -15.9029   21.5338 C   0  0  1  0  0  0  0  0  0  0  0  0
    7.3769  -14.4458   21.8398 C   0  0  0  0  0  0  0  0  0  0  0  0
    7.1479  -13.5643   20.6614 C   0  0  0  0  0  0  0  0  0  0  0  0
    8.2377  -13.6195   19.6290 C   0  0  0  0  0  0  0  0  0  0  0  0
    7.9571  -12.6805   18.4713 C   0  0  0  0  0  0  0  0  0  0  0  0
    9.0567  -12.7860   17.5353 N   0  0  0  0  0  0  0  0  0  0  0  0
    8.4521  -16.4742   22.5082 C   0  0  0  0  0  0  0  0  0  0  0  0
    7.9597  -16.9732   23.5669 O   0  0  0  0  0  0  0  0  0  0  0  0
    9.8416  -16.5053   22.3534 N   0  0  0  0  0  0  0  0  0  0  0  0
   10.7398  -17.1568   23.3124 C   0  0  1  0  0  0  0  0  0  0  0  0
   12.0549  -17.2993   22.6292 C   0  0  0  0  0  0  0  0  0  0  0  0
   12.0340  -18.1142   21.3691 C   0  0  0  0  0  0  0  0  0  0  0  0
   13.3627  -18.1668   20.7549 C   0  0  0  0  0  0  0  0  0  0  0  0
   13.8089  -19.1433   20.1575 O   0  0  0  0  0  0  0  0  0  0  0  0
   10.8338  -16.3548   24.5653 C   0  0  0  0  0  0  0  0  0  0  0  0
   11.1417  -15.1432   24.4942 O   0  0  0  0  0  0  0  0  0  0  0  0
   14.1814  -17.0405   20.8493 O   0  0  0  0  0  0  0  0  0  0  0  0
   10.5864  -16.9127   25.8463 N   0  0  0  0  0  0  0  0  0  0  0  0
   10.7329  -16.2799   27.1071 C   0  0  1  0  0  0  0  0  0  0  0  0
    9.8932  -15.0994   27.3908 C   0  0  0  0  0  0  0  0  0  0  0  0
    8.5401  -15.0933   26.8353 C   0  0  0  0  0  0  0  0  0  0  0  0
    7.7067  -16.1087   26.4485 C   0  0  0  0  0  0  0  0  0  0  0  0
    6.5472  -15.5827   25.9903 N   0  0  0  0  0  0  0  0  0  0  0  0
    6.6351  -14.2411   26.0814 C   0  0  0  0  0  0  0  0  0  0  0  0
    5.7369  -13.2360   25.7496 C   0  0  0  0  0  0  0  0  0  0  0  0
    6.0722  -11.9200   25.9409 C   0  0  0  0  0  0  0  0  0  0  0  0
    7.2964  -11.5649   26.4620 C   0  0  0  0  0  0  0  0  0  0  0  0
    8.1845  -12.5583   26.7902 C   0  0  0  0  0  0  0  0  0  0  0  0
    7.8591  -13.8907   26.6023 C   0  0  0  0  0  0  0  0  0  0  0  0
   10.5463  -17.2283   28.2818 C   0  0  0  0  0  0  0  0  0  0  0  0
   10.7368  -16.8378   29.4352 O   0  0  0  0  0  0  0  0  0  0  0  0
   10.1593  -18.5336   28.0149 O   0  0  0  0  0  0  0  0  0  0  0  0
  2  1  1  1
  3  2  1  0
  4  3  1  0
  5  4  1  0
  6  5  1  0
  7  6  1  0
  8  2  1  0
  8  9  2  0
 10  8  1  0
 11 10  1  0
 11 12  1  6
 13 12  1  0
 13 14  1  0
 14 18  1  0
 14 15  2  0
 16 11  1  0
 17 16  2  0
 19 16  1  0
 20 21  1  1
 20 19  1  0
 21 22  1  0
 22 23  2  0
 23 24  1  0
 25 24  1  0
 26 25  2  0
 27 26  1  0
 28 29  1  0
 28 27  2  0
 29 30  2  0
 30 22  1  0
 30 25  1  0
 31 33  1  0
 31 20  1  0
 32 31  2  0
M  END
$$$$
