KEW.pdb
     RDKit          3D

 33 34  0  0  1  0  0  0  0  0999 V2000
    9.7209  -14.3152   19.1256 N   0  0  0  0  0  0  0  0  0  0  0  0
    8.8943  -14.1280   20.2755 C   0  0  1  0  0  0  0  0  0  0  0  0
    7.4556  -14.0912   19.8779 C   0  0  0  0  0  0  0  0  0  0  0  0
    7.1685  -13.3911   18.5952 C   0  0  0  0  0  0  0  0  0  0  0  0
    7.4058  -14.2270   17.3698 C   0  0  0  0  0  0  0  0  0  0  0  0
    7.0507  -13.4726   16.1027 C   0  0  0  0  0  0  0  0  0  0  0  0
    7.3902  -14.3130   14.9737 N   0  0  0  0  0  0  0  0  0  0  0  0
    9.0332  -15.2120   21.2825 C   0  0  0  0  0  0  0  0  0  0  0  0
    8.0693  -15.3552   22.0966 O   0  0  0  0  0  0  0  0  0  0  0  0
   10.1268  -16.0751   21.4027 N   0  0  0  0  0  0  0  0  0  0  0  0
   10.2143  -17.1186   22.4296 C   0  0  1  0  0  0  0  0  0  0  0  0
   11.2733  -18.0641   21.9812 C   0  0  0  0  0  0  0  0  0  0  0  0
   11.5803  -19.1785   22.9384 C   0  0  0  0  0  0  0  0  0  0  0  0
   12.5830  -20.0892   22.3811 C   0  0  0  0  0  0  0  0  0  0  0  0
   13.0870  -19.9632   21.2678 O   0  0  0  0  0  0  0  0  0  0  0  0
   10.5156  -16.5164   23.7594 C   0  0  0  0  0  0  0  0  0  0  0  0
   11.4383  -15.6754   23.8550 O   0  0  0  0  0  0  0  0  0  0  0  0
   12.9984  -21.1724   23.1570 O   0  0  0  0  0  0  0  0  0  0  0  0
    9.7933  -16.8599   24.9315 N   0  0  0  0  0  0  0  0  0  0  0  0
   10.1145  -16.5279   26.2725 C   0  0  1  0  0  0  0  0  0  0  0  0
    9.0242  -16.0565   27.1489 C   0  0  0  0  0  0  0  0  0  0  0  0
    7.8445  -15.4857   26.4993 C   0  0  0  0  0  0  0  0  0  0  0  0
    6.7932  -16.0662   25.8413 C   0  0  0  0  0  0  0  0  0  0  0  0
    5.9490  -15.1000   25.4115 N   0  0  0  0  0  0  0  0  0  0  0  0
    6.4538  -13.9092   25.7895 C   0  0  0  0  0  0  0  0  0  0  0  0
    5.9907  -12.6135   25.6049 C   0  0  0  0  0  0  0  0  0  0  0  0
    6.7034  -11.5493   26.0953 C   0  0  0  0  0  0  0  0  0  0  0  0
    7.8851  -11.7364   26.7769 C   0  0  0  0  0  0  0  0  0  0  0  0
    8.3432  -13.0171   26.9598 C   0  0  0  0  0  0  0  0  0  0  0  0
    7.6339  -14.1004   26.4700 C   0  0  0  0  0  0  0  0  0  0  0  0
   10.8070  -17.6558   27.0224 C   0  0  0  0  0  0  0  0  0  0  0  0
   10.8680  -18.7853   26.5328 O   0  0  0  0  0  0  0  0  0  0  0  0
   11.3613  -17.3745   28.2627 O   0  0  0  0  0  0  0  0  0  0  0  0
  2  1  1  6
  3  2  1  0
  4  3  1  0
  5  4  1  0
  6  5  1  0
  7  6  1  0
  8  2  1  0
  8  9  2  0
 10  8  1  0
 11 10  1  0
 11 12  1  6
 13 12  1  0
 13 14  1  0
 14 18  1  0
 14 15  2  0
 16 11  1  0
 17 16  2  0
 19 16  1  0
 20 21  1  1
 20 19  1  0
 21 22  1  0
 22 23  2  0
 23 24  1  0
 25 24  1  0
 26 25  2  0
 27 26  1  0
 28 29  1  0
 28 27  2  0
 29 30  2  0
 30 22  1  0
 30 25  1  0
 31 33  1  0
 31 20  1  0
 32 31  2  0
M  END
$$$$
