KEW.pdb
     RDKit          3D

 33 34  0  0  1  0  0  0  0  0999 V2000
    9.7837  -17.6708   17.7865 N   0  0  0  0  0  0  0  0  0  0  0  0
   10.4245  -18.3317   18.8789 C   0  0  1  0  0  0  0  0  0  0  0  0
   11.8392  -17.8713   19.0041 C   0  0  0  0  0  0  0  0  0  0  0  0
   12.8512  -18.7395   18.3407 C   0  0  0  0  0  0  0  0  0  0  0  0
   14.2730  -18.3057   18.5573 C   0  0  0  0  0  0  0  0  0  0  0  0
   15.2509  -19.2298   17.8569 C   0  0  0  0  0  0  0  0  0  0  0  0
   16.5748  -18.6584   17.9865 N   0  0  0  0  0  0  0  0  0  0  0  0
    9.7716  -18.0718   20.1883 C   0  0  0  0  0  0  0  0  0  0  0  0
    9.4324  -16.8709   20.4232 O   0  0  0  0  0  0  0  0  0  0  0  0
    9.5048  -19.0324   21.1689 N   0  0  0  0  0  0  0  0  0  0  0  0
    8.7426  -18.7421   22.3878 C   0  0  1  0  0  0  0  0  0  0  0  0
    8.0938  -20.0191   22.7939 C   0  0  0  0  0  0  0  0  0  0  0  0
    7.2689  -19.9456   24.0455 C   0  0  0  0  0  0  0  0  0  0  0  0
    6.7169  -21.2580   24.3894 C   0  0  0  0  0  0  0  0  0  0  0  0
    5.5716  -21.6159   24.1256 O   0  0  0  0  0  0  0  0  0  0  0  0
    9.6403  -18.1987   23.4462 C   0  0  0  0  0  0  0  0  0  0  0  0
   10.8755  -18.3823   23.3542 O   0  0  0  0  0  0  0  0  0  0  0  0
    7.5370  -22.1667   25.0599 O   0  0  0  0  0  0  0  0  0  0  0  0
    9.1486  -17.4752   24.5635 N   0  0  0  0  0  0  0  0  0  0  0  0
    9.8892  -16.6665   25.4630 C   0  0  1  0  0  0  0  0  0  0  0  0
    9.5713  -15.2261   25.5211 C   0  0  0  0  0  0  0  0  0  0  0  0
    8.1908  -14.8590   25.8357 C   0  0  0  0  0  0  0  0  0  0  0  0
    7.0552  -15.6110   25.9778 C   0  0  0  0  0  0  0  0  0  0  0  0
    6.0154  -14.7958   26.2698 N   0  0  0  0  0  0  0  0  0  0  0  0
    6.4787  -13.5313   26.3145 C   0  0  0  0  0  0  0  0  0  0  0  0
    5.8389  -12.3258   26.5687 C   0  0  0  0  0  0  0  0  0  0  0  0
    6.5476  -11.1518   26.5545 C   0  0  0  0  0  0  0  0  0  0  0  0
    7.8990  -11.1383   26.2904 C   0  0  0  0  0  0  0  0  0  0  0  0
    8.5319  -12.3298   26.0391 C   0  0  0  0  0  0  0  0  0  0  0  0
    7.8286  -13.5222   26.0503 C   0  0  0  0  0  0  0  0  0  0  0  0
    9.8492  -17.1702   26.8978 C   0  0  0  0  0  0  0  0  0  0  0  0
   10.5594  -16.6515   27.7612 O   0  0  0  0  0  0  0  0  0  0  0  0
    8.9963  -18.2222   27.1993 O   0  0  0  0  0  0  0  0  0  0  0  0
  2  1  1  6
  3  2  1  0
  4  3  1  0
  5  4  1  0
  6  5  1  0
  7  6  1  0
  8  2  1  0
  8  9  2  0
 10  8  1  0
 11 10  1  0
 11 12  1  1
 13 12  1  0
 13 14  1  0
 14 18  1  0
 14 15  2  0
 16 11  1  0
 17 16  2  0
 19 16  1  0
 20 21  1  1
 20 19  1  0
 21 22  1  0
 22 23  2  0
 23 24  1  0
 25 24  1  0
 26 25  2  0
 27 26  1  0
 28 29  1  0
 28 27  2  0
 29 30  2  0
 30 22  1  0
 30 25  1  0
 31 33  1  0
 31 20  1  0
 32 31  2  0
M  END
$$$$
