KEW.pdb
     RDKit          3D

 33 34  0  0  1  0  0  0  0  0999 V2000
    9.8347  -13.3813   19.3726 N   0  0  0  0  0  0  0  0  0  0  0  0
    8.6074  -13.9995   19.7627 C   0  0  1  0  0  0  0  0  0  0  0  0
    7.9512  -14.6366   18.5827 C   0  0  0  0  0  0  0  0  0  0  0  0
    8.3959  -14.1269   17.2560 C   0  0  0  0  0  0  0  0  0  0  0  0
    7.7002  -14.7627   16.0862 C   0  0  0  0  0  0  0  0  0  0  0  0
    8.1528  -14.1565   14.7714 C   0  0  0  0  0  0  0  0  0  0  0  0
    7.5173  -14.8929   13.6990 N   0  0  0  0  0  0  0  0  0  0  0  0
    8.7841  -15.0658   20.7827 C   0  0  0  0  0  0  0  0  0  0  0  0
    7.7416  -15.7106   21.1138 O   0  0  0  0  0  0  0  0  0  0  0  0
    9.9915  -15.4103   21.3982 N   0  0  0  0  0  0  0  0  0  0  0  0
   10.0876  -16.4040   22.4726 C   0  0  1  0  0  0  0  0  0  0  0  0
   11.4314  -17.0324   22.3472 C   0  0  0  0  0  0  0  0  0  0  0  0
   11.8926  -17.2765   20.9401 C   0  0  0  0  0  0  0  0  0  0  0  0
   13.1749  -17.9843   20.9223 C   0  0  0  0  0  0  0  0  0  0  0  0
   14.2322  -17.5076   21.3274 O   0  0  0  0  0  0  0  0  0  0  0  0
    9.8840  -15.7571   23.7999 C   0  0  0  0  0  0  0  0  0  0  0  0
    9.1970  -14.7127   23.8723 O   0  0  0  0  0  0  0  0  0  0  0  0
   13.2074  -19.2838   20.4142 O   0  0  0  0  0  0  0  0  0  0  0  0
   10.4412  -16.2807   24.9952 N   0  0  0  0  0  0  0  0  0  0  0  0
    9.9069  -16.1973   26.3064 C   0  0  1  0  0  0  0  0  0  0  0  0
    8.4710  -16.4877   26.4884 C   0  0  0  0  0  0  0  0  0  0  0  0
    7.5207  -15.6170   25.7967 C   0  0  0  0  0  0  0  0  0  0  0  0
    6.6714  -15.8435   24.7466 C   0  0  0  0  0  0  0  0  0  0  0  0
    5.9939  -14.7056   24.4689 N   0  0  0  0  0  0  0  0  0  0  0  0
    6.4047  -13.7563   25.3325 C   0  0  0  0  0  0  0  0  0  0  0  0
    6.0358  -12.4261   25.4810 C   0  0  0  0  0  0  0  0  0  0  0  0
    6.6141  -11.6542   26.4560 C   0  0  0  0  0  0  0  0  0  0  0  0
    7.5662  -12.1733   27.3047 C   0  0  0  0  0  0  0  0  0  0  0  0
    7.9310  -13.4881   27.1583 C   0  0  0  0  0  0  0  0  0  0  0  0
    7.3554  -14.2787   26.1784 C   0  0  0  0  0  0  0  0  0  0  0  0
   10.6481  -17.0625   27.3145 C   0  0  0  0  0  0  0  0  0  0  0  0
   11.4925  -17.8767   26.9362 O   0  0  0  0  0  0  0  0  0  0  0  0
   10.3450  -16.9070   28.6594 O   0  0  0  0  0  0  0  0  0  0  0  0
  2  1  1  6
  3  2  1  0
  4  3  1  0
  5  4  1  0
  6  5  1  0
  7  6  1  0
  8  2  1  0
  8  9  2  0
 10  8  1  0
 11 10  1  0
 11 12  1  1
 13 12  1  0
 13 14  1  0
 14 18  1  0
 14 15  2  0
 16 11  1  0
 17 16  2  0
 19 16  1  0
 20 21  1  6
 20 19  1  0
 21 22  1  0
 22 23  2  0
 23 24  1  0
 25 24  1  0
 26 25  2  0
 27 26  1  0
 28 29  1  0
 28 27  2  0
 29 30  2  0
 30 22  1  0
 30 25  1  0
 31 33  1  0
 31 20  1  0
 32 31  2  0
M  END
$$$$
