KEW.pdb
     RDKit          3D

 33 34  0  0  1  0  0  0  0  0999 V2000
    8.8231  -13.1317   20.7326 N   0  0  0  0  0  0  0  0  0  0  0  0
    7.9163  -14.2067   20.9831 C   0  0  1  0  0  0  0  0  0  0  0  0
    7.2914  -14.6644   19.7067 C   0  0  0  0  0  0  0  0  0  0  0  0
    7.8610  -14.0634   18.4689 C   0  0  0  0  0  0  0  0  0  0  0  0
    7.2205  -14.5451   17.1983 C   0  0  0  0  0  0  0  0  0  0  0  0
    7.9320  -14.0011   15.9741 C   0  0  0  0  0  0  0  0  0  0  0  0
    7.3313  -14.6062   14.8040 N   0  0  0  0  0  0  0  0  0  0  0  0
    8.5672  -15.3955   21.5924 C   0  0  0  0  0  0  0  0  0  0  0  0
    7.8037  -16.3607   21.9052 O   0  0  0  0  0  0  0  0  0  0  0  0
    9.9356  -15.5334   21.8450 N   0  0  0  0  0  0  0  0  0  0  0  0
   10.5069  -16.6817   22.5563 C   0  0  1  0  0  0  0  0  0  0  0  0
   11.7619  -17.0400   21.8400 C   0  0  0  0  0  0  0  0  0  0  0  0
   12.5752  -18.1256   22.4822 C   0  0  0  0  0  0  0  0  0  0  0  0
   13.7868  -18.4032   21.7074 C   0  0  0  0  0  0  0  0  0  0  0  0
   14.1714  -17.7225   20.7597 O   0  0  0  0  0  0  0  0  0  0  0  0
   10.7464  -16.3410   23.9874 C   0  0  0  0  0  0  0  0  0  0  0  0
   11.7879  -15.7213   24.3026 O   0  0  0  0  0  0  0  0  0  0  0  0
   14.5602  -19.5100   22.0608 O   0  0  0  0  0  0  0  0  0  0  0  0
    9.8348  -16.6927   25.0164 N   0  0  0  0  0  0  0  0  0  0  0  0
   10.0209  -16.5645   26.4165 C   0  0  1  0  0  0  0  0  0  0  0  0
    8.9235  -15.9763   27.2096 C   0  0  0  0  0  0  0  0  0  0  0  0
    7.7998  -15.4008   26.4711 C   0  0  0  0  0  0  0  0  0  0  0  0
    6.8061  -15.9764   25.7250 C   0  0  0  0  0  0  0  0  0  0  0  0
    5.9985  -15.0071   25.2361 N   0  0  0  0  0  0  0  0  0  0  0  0
    6.4693  -13.8191   25.6638 C   0  0  0  0  0  0  0  0  0  0  0  0
    6.0211  -12.5222   25.4529 C   0  0  0  0  0  0  0  0  0  0  0  0
    6.6902  -11.4618   26.0085 C   0  0  0  0  0  0  0  0  0  0  0  0
    7.8130  -11.6540   26.7823 C   0  0  0  0  0  0  0  0  0  0  0  0
    8.2563  -12.9358   26.9911 C   0  0  0  0  0  0  0  0  0  0  0  0
    7.5905  -14.0154   26.4363 C   0  0  0  0  0  0  0  0  0  0  0  0
   10.3846  -17.8751   27.0978 C   0  0  0  0  0  0  0  0  0  0  0  0
   10.7073  -17.8913   28.2872 O   0  0  0  0  0  0  0  0  0  0  0  0
   10.3422  -19.0391   26.3441 O   0  0  0  0  0  0  0  0  0  0  0  0
  2  1  1  6
  3  2  1  0
  4  3  1  0
  5  4  1  0
  6  5  1  0
  7  6  1  0
  8  2  1  0
  8  9  2  0
 10  8  1  0
 11 10  1  0
 11 12  1  6
 13 12  1  0
 13 14  1  0
 14 18  1  0
 14 15  2  0
 16 11  1  0
 17 16  2  0
 19 16  1  0
 20 21  1  1
 20 19  1  0
 21 22  1  0
 22 23  2  0
 23 24  1  0
 25 24  1  0
 26 25  2  0
 27 26  1  0
 28 29  1  0
 28 27  2  0
 29 30  2  0
 30 22  1  0
 30 25  1  0
 31 33  1  0
 31 20  1  0
 32 31  2  0
M  END
$$$$
