KEW.pdb
     RDKit          3D

 33 34  0  0  1  0  0  0  0  0999 V2000
   41.5675  -14.6077    2.7476 N   0  0  0  0  0  0  0  0  0  0  0  0
   40.8605  -13.5943    3.4647 C   0  0  1  0  0  0  0  0  0  0  0  0
   39.8704  -12.9234    2.5710 C   0  0  0  0  0  0  0  0  0  0  0  0
   40.4491  -12.2389    1.3818 C   0  0  0  0  0  0  0  0  0  0  0  0
   40.4143  -13.0563    0.1219 C   0  0  0  0  0  0  0  0  0  0  0  0
   39.0920  -12.9037   -0.6054 C   0  0  0  0  0  0  0  0  0  0  0  0
   38.7184  -14.2014   -1.1277 N   0  0  0  0  0  0  0  0  0  0  0  0
   40.1007  -14.1191    4.6290 C   0  0  0  0  0  0  0  0  0  0  0  0
   39.9553  -13.3292    5.6125 O   0  0  0  0  0  0  0  0  0  0  0  0
   39.5408  -15.3968    4.7257 N   0  0  0  0  0  0  0  0  0  0  0  0
   40.3370  -16.6269    4.6628 C   0  0  1  0  0  0  0  0  0  0  0  0
   40.2478  -17.1159    3.2595 C   0  0  0  0  0  0  0  0  0  0  0  0
   40.3036  -16.0476    2.2069 C   0  0  0  0  0  0  0  0  0  0  0  0
   39.2634  -16.2506    1.1959 C   0  0  0  0  0  0  0  0  0  0  0  0
   38.3151  -17.0208    1.3261 O   0  0  0  0  0  0  0  0  0  0  0  0
   41.7417  -16.3600    5.0838 C   0  0  0  0  0  0  0  0  0  0  0  0
   42.6322  -17.1957    4.8076 O   0  0  0  0  0  0  0  0  0  0  0  0
   39.3465  -15.5273    0.0052 O   0  0  0  0  0  0  0  0  0  0  0  0
   42.1146  -15.1874    5.7906 N   0  0  0  0  0  0  0  0  0  0  0  0
   43.0577  -15.0769    6.8441 C   0  0  1  0  0  0  0  0  0  0  0  0
   43.0198  -13.8623    7.6823 C   0  0  0  0  0  0  0  0  0  0  0  0
   44.2437  -13.0649    7.7583 C   0  0  0  0  0  0  0  0  0  0  0  0
   44.4853  -11.7375    7.5237 C   0  0  0  0  0  0  0  0  0  0  0  0
   45.7981  -11.4812    7.7282 N   0  0  0  0  0  0  0  0  0  0  0  0
   46.3948  -12.6339    8.0904 C   0  0  0  0  0  0  0  0  0  0  0  0
   47.7137  -12.9255    8.4113 C   0  0  0  0  0  0  0  0  0  0  0  0
   48.0744  -14.2039    8.7527 C   0  0  0  0  0  0  0  0  0  0  0  0
   47.1471  -15.2213    8.7859 C   0  0  0  0  0  0  0  0  0  0  0  0
   45.8433  -14.9333    8.4689 C   0  0  0  0  0  0  0  0  0  0  0  0
   45.4653  -13.6474    8.1225 C   0  0  0  0  0  0  0  0  0  0  0  0
   43.0302  -16.2577    7.8028 C   0  0  0  0  0  0  0  0  0  0  0  0
   43.0029  -17.4116    7.3706 O   0  0  0  0  0  0  0  0  0  0  0  0
   43.0359  -15.9957    9.1652 O   0  0  0  0  0  0  0  0  0  0  0  0
  2  1  1  6
  3  2  1  0
  4  3  1  0
  5  4  1  0
  6  5  1  0
  7  6  1  0
  8  2  1  0
  8  9  2  0
 10  8  1  0
 11 10  1  0
 11 12  1  6
 13 12  1  0
 13 14  1  0
 14 18  1  0
 14 15  2  0
 16 11  1  0
 17 16  2  0
 19 16  1  0
 20 21  1  1
 20 19  1  0
 21 22  1  0
 22 23  2  0
 23 24  1  0
 25 24  1  0
 26 25  2  0
 27 26  1  0
 28 29  1  0
 28 27  2  0
 29 30  2  0
 30 22  1  0
 30 25  1  0
 31 33  1  0
 31 20  1  0
 32 31  2  0
M  END
$$$$
