KEW.pdb
     RDKit          3D

 33 34  0  0  1  0  0  0  0  0999 V2000
    6.5591  -17.1248   21.1505 N   0  0  0  0  0  0  0  0  0  0  0  0
    7.5268  -16.1015   21.3898 C   0  0  1  0  0  0  0  0  0  0  0  0
    6.8585  -14.8653   21.8942 C   0  0  0  0  0  0  0  0  0  0  0  0
    7.2651  -13.6021   21.2182 C   0  0  0  0  0  0  0  0  0  0  0  0
    7.5666  -13.7553   19.7545 C   0  0  0  0  0  0  0  0  0  0  0  0
    8.0149  -12.4442   19.1373 C   0  0  0  0  0  0  0  0  0  0  0  0
    8.3798  -12.7018   17.7602 N   0  0  0  0  0  0  0  0  0  0  0  0
    8.5464  -16.4812   22.4020 C   0  0  0  0  0  0  0  0  0  0  0  0
    8.1200  -17.0776   23.4388 O   0  0  0  0  0  0  0  0  0  0  0  0
    9.9198  -16.2369   22.3042 N   0  0  0  0  0  0  0  0  0  0  0  0
   10.8853  -16.6762   23.3170 C   0  0  1  0  0  0  0  0  0  0  0  0
   12.2368  -16.3722   22.7713 C   0  0  0  0  0  0  0  0  0  0  0  0
   13.3851  -16.7836   23.6458 C   0  0  0  0  0  0  0  0  0  0  0  0
   14.6673  -16.5201   22.9886 C   0  0  0  0  0  0  0  0  0  0  0  0
   15.3746  -17.3877   22.4823 O   0  0  0  0  0  0  0  0  0  0  0  0
   10.6281  -15.9889   24.6143 C   0  0  0  0  0  0  0  0  0  0  0  0
   10.6849  -14.7391   24.6661 O   0  0  0  0  0  0  0  0  0  0  0  0
   15.1229  -15.2022   22.9293 O   0  0  0  0  0  0  0  0  0  0  0  0
   10.3186  -16.6987   25.8033 N   0  0  0  0  0  0  0  0  0  0  0  0
   10.5307  -16.2776   27.1410 C   0  0  1  0  0  0  0  0  0  0  0  0
    9.4316  -15.5691   27.8260 C   0  0  0  0  0  0  0  0  0  0  0  0
    8.2539  -15.2318   27.0268 C   0  0  0  0  0  0  0  0  0  0  0  0
    7.3548  -16.0122   26.3502 C   0  0  0  0  0  0  0  0  0  0  0  0
    6.4355  -15.2178   25.7548 N   0  0  0  0  0  0  0  0  0  0  0  0
    6.7415  -13.9381   26.0458 C   0  0  0  0  0  0  0  0  0  0  0  0
    6.1317  -12.7428   25.6898 C   0  0  0  0  0  0  0  0  0  0  0  0
    6.6489  -11.5486   26.1224 C   0  0  0  0  0  0  0  0  0  0  0  0
    7.7752  -11.5044   26.9133 C   0  0  0  0  0  0  0  0  0  0  0  0
    8.3782  -12.6858   27.2655 C   0  0  0  0  0  0  0  0  0  0  0  0
    7.8668  -13.8984   26.8359 C   0  0  0  0  0  0  0  0  0  0  0  0
   10.9529  -17.4075   28.0679 C   0  0  0  0  0  0  0  0  0  0  0  0
   11.2687  -17.1714   29.2356 O   0  0  0  0  0  0  0  0  0  0  0  0
   10.9714  -18.6987   27.5607 O   0  0  0  0  0  0  0  0  0  0  0  0
  2  1  1  1
  3  2  1  0
  4  3  1  0
  5  4  1  0
  6  5  1  0
  7  6  1  0
  8  2  1  0
  8  9  2  0
 10  8  1  0
 11 10  1  0
 11 12  1  6
 13 12  1  0
 13 14  1  0
 14 18  1  0
 14 15  2  0
 16 11  1  0
 17 16  2  0
 19 16  1  0
 20 21  1  1
 20 19  1  0
 21 22  1  0
 22 23  2  0
 23 24  1  0
 25 24  1  0
 26 25  2  0
 27 26  1  0
 28 29  1  0
 28 27  2  0
 29 30  2  0
 30 22  1  0
 30 25  1  0
 31 33  1  0
 31 20  1  0
 32 31  2  0
M  END
$$$$
