KEW.pdb
     RDKit          3D

 33 34  0  0  1  0  0  0  0  0999 V2000
   12.9346  -17.5656   18.5029 N   0  0  0  0  0  0  0  0  0  0  0  0
   12.3911  -18.3007   19.6006 C   0  0  1  0  0  0  0  0  0  0  0  0
   13.4719  -19.0503   20.3069 C   0  0  0  0  0  0  0  0  0  0  0  0
   14.1657  -20.0848   19.4906 C   0  0  0  0  0  0  0  0  0  0  0  0
   13.9399  -21.4941   19.9595 C   0  0  0  0  0  0  0  0  0  0  0  0
   14.6872  -22.4947   19.0986 C   0  0  0  0  0  0  0  0  0  0  0  0
   14.3993  -23.8204   19.6044 N   0  0  0  0  0  0  0  0  0  0  0  0
   11.7322  -17.4393   20.6167 C   0  0  0  0  0  0  0  0  0  0  0  0
   12.2983  -16.3320   20.8729 O   0  0  0  0  0  0  0  0  0  0  0  0
   10.5539  -17.7479   21.3036 N   0  0  0  0  0  0  0  0  0  0  0  0
    9.8647  -16.7947   22.1796 C   0  0  1  0  0  0  0  0  0  0  0  0
    8.4447  -16.7621   21.7334 C   0  0  0  0  0  0  0  0  0  0  0  0
    8.2275  -16.2694   20.3325 C   0  0  0  0  0  0  0  0  0  0  0  0
    6.8223  -16.4010   19.9407 C   0  0  0  0  0  0  0  0  0  0  0  0
    6.4468  -16.7555   18.8259 O   0  0  0  0  0  0  0  0  0  0  0  0
   10.0032  -17.2043   23.6060 C   0  0  0  0  0  0  0  0  0  0  0  0
    9.5388  -18.3076   23.9733 O   0  0  0  0  0  0  0  0  0  0  0  0
    5.8401  -16.1067   20.8876 O   0  0  0  0  0  0  0  0  0  0  0  0
   10.6455  -16.3885   24.5731 N   0  0  0  0  0  0  0  0  0  0  0  0
   10.3961  -16.3438   25.9686 C   0  0  1  0  0  0  0  0  0  0  0  0
    9.7420  -15.1392   26.5166 C   0  0  0  0  0  0  0  0  0  0  0  0
    8.3191  -14.9620   26.2275 C   0  0  0  0  0  0  0  0  0  0  0  0
    7.3395  -15.8535   25.8798 C   0  0  0  0  0  0  0  0  0  0  0  0
    6.1721  -15.1896   25.7140 N   0  0  0  0  0  0  0  0  0  0  0  0
    6.3998  -13.8831   25.9525 C   0  0  0  0  0  0  0  0  0  0  0  0
    5.5554  -12.7815   25.9206 C   0  0  0  0  0  0  0  0  0  0  0  0
    6.0407  -11.5314   26.2078 C   0  0  0  0  0  0  0  0  0  0  0  0
    7.3650  -11.3381   26.5319 C   0  0  0  0  0  0  0  0  0  0  0  0
    8.2000  -12.4267   26.5636 C   0  0  0  0  0  0  0  0  0  0  0  0
    7.7234  -13.6943   26.2760 C   0  0  0  0  0  0  0  0  0  0  0  0
    9.5934  -17.5327   26.4749 C   0  0  0  0  0  0  0  0  0  0  0  0
    8.9732  -18.2481   25.6859 O   0  0  0  0  0  0  0  0  0  0  0  0
    9.5820  -17.7821   27.8396 O   0  0  0  0  0  0  0  0  0  0  0  0
  2  1  1  6
  3  2  1  0
  4  3  1  0
  5  4  1  0
  6  5  1  0
  7  6  1  0
  8  2  1  0
  8  9  2  0
 10  8  1  0
 11 10  1  0
 11 12  1  6
 13 12  1  0
 13 14  1  0
 14 18  1  0
 14 15  2  0
 16 11  1  0
 17 16  2  0
 19 16  1  0
 20 21  1  6
 20 19  1  0
 21 22  1  0
 22 23  2  0
 23 24  1  0
 25 24  1  0
 26 25  2  0
 27 26  1  0
 28 29  1  0
 28 27  2  0
 29 30  2  0
 30 22  1  0
 30 25  1  0
 31 33  1  0
 31 20  1  0
 32 31  2  0
M  END
$$$$
