KEW.pdb
     RDKit          3D

 33 34  0  0  1  0  0  0  0  0999 V2000
    9.4604  -14.7152   19.1821 N   0  0  0  0  0  0  0  0  0  0  0  0
    8.3423  -15.6039   19.2076 C   0  0  1  0  0  0  0  0  0  0  0  0
    8.2513  -16.3579   17.9223 C   0  0  0  0  0  0  0  0  0  0  0  0
    7.1193  -17.3211   17.8291 C   0  0  0  0  0  0  0  0  0  0  0  0
    7.2396  -18.3072   16.7023 C   0  0  0  0  0  0  0  0  0  0  0  0
    7.9844  -17.7157   15.5207 C   0  0  0  0  0  0  0  0  0  0  0  0
    7.8532  -18.6318   14.4073 N   0  0  0  0  0  0  0  0  0  0  0  0
    8.4194  -16.6154   20.2936 C   0  0  0  0  0  0  0  0  0  0  0  0
    7.7923  -17.7024   20.1002 O   0  0  0  0  0  0  0  0  0  0  0  0
    9.1188  -16.4666   21.4954 N   0  0  0  0  0  0  0  0  0  0  0  0
    9.9616  -17.5218   22.0673 C   0  0  1  0  0  0  0  0  0  0  0  0
   10.9739  -17.8620   21.0300 C   0  0  0  0  0  0  0  0  0  0  0  0
   11.9847  -18.8931   21.4391 C   0  0  0  0  0  0  0  0  0  0  0  0
   13.2212  -18.7529   20.6665 C   0  0  0  0  0  0  0  0  0  0  0  0
   13.2803  -18.8157   19.4410 O   0  0  0  0  0  0  0  0  0  0  0  0
   10.5847  -17.0582   23.3395 C   0  0  0  0  0  0  0  0  0  0  0  0
   11.8247  -16.8907   23.3877 O   0  0  0  0  0  0  0  0  0  0  0  0
   14.4135  -18.5340   21.3582 O   0  0  0  0  0  0  0  0  0  0  0  0
    9.8239  -16.7963   24.5083 N   0  0  0  0  0  0  0  0  0  0  0  0
   10.3064  -16.4084   25.7843 C   0  0  1  0  0  0  0  0  0  0  0  0
    9.7500  -15.1833   26.3915 C   0  0  0  0  0  0  0  0  0  0  0  0
    8.3318  -14.9087   26.1616 C   0  0  0  0  0  0  0  0  0  0  0  0
    7.2739  -15.7344   25.8892 C   0  0  0  0  0  0  0  0  0  0  0  0
    6.1519  -14.9902   25.7542 N   0  0  0  0  0  0  0  0  0  0  0  0
    6.4860  -13.6978   25.9379 C   0  0  0  0  0  0  0  0  0  0  0  0
    5.7243  -12.5375   25.9073 C   0  0  0  0  0  0  0  0  0  0  0  0
    6.3133  -11.3192   26.1297 C   0  0  0  0  0  0  0  0  0  0  0  0
    7.6622  -11.2159   26.3866 C   0  0  0  0  0  0  0  0  0  0  0  0
    8.4155  -12.3627   26.4170 C   0  0  0  0  0  0  0  0  0  0  0  0
    7.8339  -13.5990   26.1943 C   0  0  0  0  0  0  0  0  0  0  0  0
   10.1774  -17.5014   26.8344 C   0  0  0  0  0  0  0  0  0  0  0  0
    9.4773  -18.4929   26.6200 O   0  0  0  0  0  0  0  0  0  0  0  0
   10.8657  -17.3468   28.0290 O   0  0  0  0  0  0  0  0  0  0  0  0
  2  1  1  6
  3  2  1  0
  4  3  1  0
  5  4  1  0
  6  5  1  0
  7  6  1  0
  8  2  1  0
  8  9  2  0
 10  8  1  0
 11 10  1  0
 11 12  1  6
 13 12  1  0
 13 14  1  0
 14 18  1  0
 14 15  2  0
 16 11  1  0
 17 16  2  0
 19 16  1  0
 20 21  1  1
 20 19  1  0
 21 22  1  0
 22 23  2  0
 23 24  1  0
 25 24  1  0
 26 25  2  0
 27 26  1  0
 28 29  1  0
 28 27  2  0
 29 30  2  0
 30 22  1  0
 30 25  1  0
 31 33  1  0
 31 20  1  0
 32 31  2  0
M  END
$$$$
