KEW.pdb
     RDKit          3D

 33 34  0  0  1  0  0  0  0  0999 V2000
    7.1650  -17.4008   19.9449 N   0  0  0  0  0  0  0  0  0  0  0  0
    8.4268  -16.7719   20.1754 C   0  0  1  0  0  0  0  0  0  0  0  0
    8.2572  -15.2916   20.2705 C   0  0  0  0  0  0  0  0  0  0  0  0
    7.9534  -14.6028   18.9855 C   0  0  0  0  0  0  0  0  0  0  0  0
    7.8052  -13.1126   19.1045 C   0  0  0  0  0  0  0  0  0  0  0  0
    7.5731  -12.4656   17.7524 C   0  0  0  0  0  0  0  0  0  0  0  0
    7.4599  -11.0366   17.9557 N   0  0  0  0  0  0  0  0  0  0  0  0
    9.0812  -17.2103   21.4355 C   0  0  0  0  0  0  0  0  0  0  0  0
    8.3181  -17.6758   22.3373 O   0  0  0  0  0  0  0  0  0  0  0  0
   10.4525  -17.1517   21.7028 N   0  0  0  0  0  0  0  0  0  0  0  0
   11.0669  -17.7788   22.8777 C   0  0  1  0  0  0  0  0  0  0  0  0
   12.4702  -18.1007   22.4987 C   0  0  0  0  0  0  0  0  0  0  0  0
   12.6583  -18.5656   21.0842 C   0  0  0  0  0  0  0  0  0  0  0  0
   14.0749  -18.7928   20.7893 C   0  0  0  0  0  0  0  0  0  0  0  0
   14.9805  -18.6604   21.6088 O   0  0  0  0  0  0  0  0  0  0  0  0
   10.9905  -16.8671   24.0543 C   0  0  0  0  0  0  0  0  0  0  0  0
   11.4024  -15.6898   23.9435 O   0  0  0  0  0  0  0  0  0  0  0  0
   14.4281  -19.1847   19.4971 O   0  0  0  0  0  0  0  0  0  0  0  0
   10.4653  -17.2818   25.3056 N   0  0  0  0  0  0  0  0  0  0  0  0
   10.7017  -16.7000   26.5773 C   0  0  1  0  0  0  0  0  0  0  0  0
   10.0618  -15.4034   26.8749 C   0  0  0  0  0  0  0  0  0  0  0  0
    8.6531  -15.2545   26.5101 C   0  0  0  0  0  0  0  0  0  0  0  0
    7.7104  -16.1659   26.1151 C   0  0  0  0  0  0  0  0  0  0  0  0
    6.5411  -15.5251   25.8847 N   0  0  0  0  0  0  0  0  0  0  0  0
    6.7310  -14.2136   26.1290 C   0  0  0  0  0  0  0  0  0  0  0  0
    5.8688  -13.1286   26.0474 C   0  0  0  0  0  0  0  0  0  0  0  0
    6.3144  -11.8683   26.3542 C   0  0  0  0  0  0  0  0  0  0  0  0
    7.6157  -11.6485   26.7472 C   0  0  0  0  0  0  0  0  0  0  0  0
    8.4683  -12.7209   26.8280 C   0  0  0  0  0  0  0  0  0  0  0  0
    8.0318  -13.9983   26.5212 C   0  0  0  0  0  0  0  0  0  0  0  0
   10.3540  -17.6231   27.7354 C   0  0  0  0  0  0  0  0  0  0  0  0
    9.9217  -17.1612   28.7931 O   0  0  0  0  0  0  0  0  0  0  0  0
   10.5383  -18.9874   27.5638 O   0  0  0  0  0  0  0  0  0  0  0  0
  2  1  1  1
  3  2  1  0
  4  3  1  0
  5  4  1  0
  6  5  1  0
  7  6  1  0
  8  2  1  0
  8  9  2  0
 10  8  1  0
 11 10  1  0
 11 12  1  6
 13 12  1  0
 13 14  1  0
 14 18  1  0
 14 15  2  0
 16 11  1  0
 17 16  2  0
 19 16  1  0
 20 21  1  1
 20 19  1  0
 21 22  1  0
 22 23  2  0
 23 24  1  0
 25 24  1  0
 26 25  2  0
 27 26  1  0
 28 29  1  0
 28 27  2  0
 29 30  2  0
 30 22  1  0
 30 25  1  0
 31 33  1  0
 31 20  1  0
 32 31  2  0
M  END
$$$$
