DWN.pdb
     RDKit          3D

 31 32  0  0  1  0  0  0  0  0999 V2000
    9.7223  -17.4043   20.8859 N   0  0  0  0  0  0  0  0  0  0  0  0
   11.0415  -17.2373   21.4532 C   0  0  1  0  0  0  0  0  0  0  0  0
   11.7597  -16.2141   20.6123 C   0  0  0  0  0  0  0  0  0  0  0  0
   11.9078  -16.7240   19.2192 C   0  0  0  0  0  0  0  0  0  0  0  0
   12.0186  -17.9656   18.9889 O   0  0  0  0  0  0  0  0  0  0  0  0
   10.9669  -16.7104   22.8346 C   0  0  0  0  0  0  0  0  0  0  0  0
   11.9287  -16.0883   23.3360 O   0  0  0  0  0  0  0  0  0  0  0  0
   11.9291  -15.8576   18.1560 O   0  0  0  0  0  0  0  0  0  0  0  0
    9.7963  -16.9038   23.6090 N   0  0  0  0  0  0  0  0  0  0  0  0
    9.6763  -16.4681   24.9619 C   0  0  1  0  0  0  0  0  0  0  0  0
    8.3098  -16.1505   25.4317 C   0  0  0  0  0  0  0  0  0  0  0  0
    7.7170  -14.9439   24.8595 C   0  0  0  0  0  0  0  0  0  0  0  0
    7.3064  -14.7573   23.5663 C   0  0  0  0  0  0  0  0  0  0  0  0
    6.8060  -13.5144   23.4017 N   0  0  0  0  0  0  0  0  0  0  0  0
    6.8946  -12.9038   24.5863 C   0  0  0  0  0  0  0  0  0  0  0  0
    6.5096  -11.6151   24.9171 C   0  0  0  0  0  0  0  0  0  0  0  0
    6.7122  -11.2181   26.2310 C   0  0  0  0  0  0  0  0  0  0  0  0
    7.2719  -12.0592   27.1823 C   0  0  0  0  0  0  0  0  0  0  0  0
    7.6469  -13.3388   26.8245 C   0  0  0  0  0  0  0  0  0  0  0  0
    7.4603  -13.7649   25.5264 C   0  0  0  0  0  0  0  0  0  0  0  0
   10.1981  -17.6092   25.8103 C   0  0  0  0  0  0  0  0  0  0  0  0
    9.8274  -18.7928   25.6425 O   0  0  0  0  0  0  0  0  0  0  0  0
   13.1153  -19.1705   25.5471 N   0  0  0  0  0  0  0  0  0  0  0  0
   13.8113  -18.7605   26.7164 C   0  0  0  0  0  0  0  0  0  0  0  0
   15.0586  -18.7444   26.7158 O   0  0  0  0  0  0  0  0  0  0  0  0
   13.0579  -18.3509   27.9202 C   0  0  0  0  0  0  0  0  0  0  0  0
   11.5419  -18.4805   27.7291 C   0  0  2  0  0  0  0  0  0  0  0  0
   11.1462  -17.3922   26.8509 N   0  0  0  0  0  0  0  0  0  0  0  0
   10.8290  -18.3433   29.0287 C   0  0  0  0  0  0  0  0  0  0  0  0
   10.7907  -19.3541   29.9692 O   0  0  0  0  0  0  0  0  0  0  0  0
   10.2009  -17.2759   29.3569 O   0  0  0  0  0  0  0  0  0  0  0  0
  2  1  1  6
  3  4  1  0
  3  2  1  0
  4  5  2  0
  4  8  1  0
  6  2  1  0
  6  7  2  0
  9  6  1  0
 10  9  1  0
 10 11  1  1
 12 11  1  0
 12 13  2  0
 14 13  1  0
 15 14  1  0
 16 15  2  0
 17 16  1  0
 18 17  2  0
 18 19  1  0
 19 20  2  0
 20 15  1  0
 20 12  1  0
 21 10  1  0
 22 21  2  0
 23 24  1  0
 24 25  2  0
 26 24  1  0
 27 26  1  1
 27 28  1  0
 27 29  1  0
 28 21  1  0
 29 30  1  0
 31 29  2  0
M  END
$$$$
