DWN.pdb
     RDKit          3D

 31 32  0  0  1  0  0  0  0  0999 V2000
    8.9254  -16.3262   20.5954 N   0  0  0  0  0  0  0  0  0  0  0  0
    9.7178  -17.2099   21.4206 C   0  0  1  0  0  0  0  0  0  0  0  0
   11.0873  -17.2896   20.7975 C   0  0  0  0  0  0  0  0  0  0  0  0
   10.9947  -17.9538   19.4659 C   0  0  0  0  0  0  0  0  0  0  0  0
   10.2472  -18.9627   19.2924 O   0  0  0  0  0  0  0  0  0  0  0  0
    9.8780  -16.6646   22.7876 C   0  0  0  0  0  0  0  0  0  0  0  0
   10.4135  -15.5503   22.9745 O   0  0  0  0  0  0  0  0  0  0  0  0
   11.7200  -17.4865   18.3996 O   0  0  0  0  0  0  0  0  0  0  0  0
    9.4210  -17.4026   23.9074 N   0  0  0  0  0  0  0  0  0  0  0  0
    9.5569  -16.9437   25.2511 C   0  0  1  0  0  0  0  0  0  0  0  0
    8.3042  -16.7885   26.0229 C   0  0  0  0  0  0  0  0  0  0  0  0
    7.4629  -15.6610   25.6284 C   0  0  0  0  0  0  0  0  0  0  0  0
    6.3737  -15.6921   24.7987 C   0  0  0  0  0  0  0  0  0  0  0  0
    5.8435  -14.4580   24.6647 N   0  0  0  0  0  0  0  0  0  0  0  0
    6.5902  -13.6356   25.4066 C   0  0  0  0  0  0  0  0  0  0  0  0
    6.4407  -12.2705   25.5868 C   0  0  0  0  0  0  0  0  0  0  0  0
    7.3598  -11.6433   26.4155 C   0  0  0  0  0  0  0  0  0  0  0  0
    8.3863  -12.3351   27.0428 C   0  0  0  0  0  0  0  0  0  0  0  0
    8.5118  -13.6956   26.8448 C   0  0  0  0  0  0  0  0  0  0  0  0
    7.6154  -14.3499   26.0263 C   0  0  0  0  0  0  0  0  0  0  0  0
   10.4039  -17.9819   25.9575 C   0  0  0  0  0  0  0  0  0  0  0  0
   10.2513  -19.2103   25.7720 O   0  0  0  0  0  0  0  0  0  0  0  0
   14.8792  -18.2039   25.4942 N   0  0  0  0  0  0  0  0  0  0  0  0
   14.3172  -18.9523   26.5637 C   0  0  0  0  0  0  0  0  0  0  0  0
   14.4440  -20.1931   26.5794 O   0  0  0  0  0  0  0  0  0  0  0  0
   13.5938  -18.2599   27.6509 C   0  0  0  0  0  0  0  0  0  0  0  0
   12.1028  -18.6178   27.6768 C   0  0  2  0  0  0  0  0  0  0  0  0
   11.4268  -17.6105   26.8764 N   0  0  0  0  0  0  0  0  0  0  0  0
   11.5705  -18.5757   29.0664 C   0  0  0  0  0  0  0  0  0  0  0  0
   10.5635  -17.7136   29.4539 O   0  0  0  0  0  0  0  0  0  0  0  0
   12.0169  -19.3373   29.9950 O   0  0  0  0  0  0  0  0  0  0  0  0
  2  1  1  6
  3  4  1  0
  3  2  1  0
  4  5  2  0
  4  8  1  0
  6  2  1  0
  6  7  2  0
  9  6  1  0
 10  9  1  0
 10 11  1  1
 12 11  1  0
 12 13  2  0
 14 13  1  0
 15 14  1  0
 16 15  2  0
 17 16  1  0
 18 17  2  0
 18 19  1  0
 19 20  2  0
 20 15  1  0
 20 12  1  0
 21 10  1  0
 22 21  2  0
 23 24  1  0
 24 25  2  0
 26 24  1  0
 27 26  1  1
 27 28  1  0
 27 29  1  0
 28 21  1  0
 29 30  1  0
 31 29  2  0
M  END
$$$$
