DWN.pdb
     RDKit          3D

 31 32  0  0  1  0  0  0  0  0999 V2000
    9.6602  -17.5256   21.1719 N   0  0  0  0  0  0  0  0  0  0  0  0
   10.9923  -17.3599   21.7084 C   0  0  1  0  0  0  0  0  0  0  0  0
   11.6520  -16.2549   20.9249 C   0  0  0  0  0  0  0  0  0  0  0  0
   11.8381  -16.6853   19.5097 C   0  0  0  0  0  0  0  0  0  0  0  0
   11.0057  -17.4608   18.9504 O   0  0  0  0  0  0  0  0  0  0  0  0
   10.9490  -16.9397   23.1273 C   0  0  0  0  0  0  0  0  0  0  0  0
   11.9594  -16.4572   23.6839 O   0  0  0  0  0  0  0  0  0  0  0  0
   12.9176  -16.2514   18.7831 O   0  0  0  0  0  0  0  0  0  0  0  0
    9.7538  -17.0779   23.8754 N   0  0  0  0  0  0  0  0  0  0  0  0
    9.6714  -16.7960   25.2712 C   0  0  1  0  0  0  0  0  0  0  0  0
    8.3106  -16.6497   25.8333 C   0  0  0  0  0  0  0  0  0  0  0  0
    7.5251  -15.5447   25.2886 C   0  0  0  0  0  0  0  0  0  0  0  0
    6.6836  -15.5814   24.2088 C   0  0  0  0  0  0  0  0  0  0  0  0
    6.1263  -14.3698   23.9997 N   0  0  0  0  0  0  0  0  0  0  0  0
    6.6086  -13.5563   24.9430 C   0  0  0  0  0  0  0  0  0  0  0  0
    6.3317  -12.2136   25.1401 C   0  0  0  0  0  0  0  0  0  0  0  0
    6.9712  -11.5911   26.2024 C   0  0  0  0  0  0  0  0  0  0  0  0
    7.8492  -12.2662   27.0385 C   0  0  0  0  0  0  0  0  0  0  0  0
    8.1071  -13.6045   26.8183 C   0  0  0  0  0  0  0  0  0  0  0  0
    7.4887  -14.2534   25.7704 C   0  0  0  0  0  0  0  0  0  0  0  0
   10.3306  -17.9682   25.9681 C   0  0  0  0  0  0  0  0  0  0  0  0
   10.7530  -18.9675   25.3440 O   0  0  0  0  0  0  0  0  0  0  0  0
   12.8232  -21.2487   27.3184 N   0  0  0  0  0  0  0  0  0  0  0  0
   13.4731  -20.0033   27.1038 C   0  0  0  0  0  0  0  0  0  0  0  0
   14.6299  -19.9855   26.6372 O   0  0  0  0  0  0  0  0  0  0  0  0
   12.7769  -18.7402   27.4269 C   0  0  0  0  0  0  0  0  0  0  0  0
   11.3751  -18.9796   28.0009 C   0  0  2  0  0  0  0  0  0  0  0  0
   10.5058  -17.9934   27.3813 N   0  0  0  0  0  0  0  0  0  0  0  0
   11.3644  -18.7820   29.4764 C   0  0  0  0  0  0  0  0  0  0  0  0
   11.4838  -19.8281   30.3703 O   0  0  0  0  0  0  0  0  0  0  0  0
   11.2402  -17.6249   30.0123 O   0  0  0  0  0  0  0  0  0  0  0  0
  2  1  1  6
  3  4  1  0
  3  2  1  0
  4  5  2  0
  4  8  1  0
  6  2  1  0
  6  7  2  0
  9  6  1  0
 10  9  1  0
 10 11  1  1
 12 11  1  0
 12 13  2  0
 14 13  1  0
 15 14  1  0
 16 15  2  0
 17 16  1  0
 18 17  2  0
 18 19  1  0
 19 20  2  0
 20 15  1  0
 20 12  1  0
 21 10  1  0
 22 21  2  0
 23 24  1  0
 24 25  2  0
 26 24  1  0
 27 26  1  6
 27 28  1  0
 27 29  1  0
 28 21  1  0
 29 30  1  0
 31 29  2  0
M  END
$$$$
