DWN.pdb
     RDKit          3D

 31 32  0  0  1  0  0  0  0  0999 V2000
    7.4196  -17.0615   20.8995 N   0  0  0  0  0  0  0  0  0  0  0  0
    8.7463  -16.5143   20.7254 C   0  0  1  0  0  0  0  0  0  0  0  0
    8.6194  -15.3268   19.8068 C   0  0  0  0  0  0  0  0  0  0  0  0
    8.2842  -15.7909   18.4302 C   0  0  0  0  0  0  0  0  0  0  0  0
    7.7519  -15.0051   17.5900 O   0  0  0  0  0  0  0  0  0  0  0  0
    9.2981  -16.0301   22.0110 C   0  0  0  0  0  0  0  0  0  0  0  0
   10.1334  -15.1002   22.0402 O   0  0  0  0  0  0  0  0  0  0  0  0
    8.5438  -17.0815   18.0449 O   0  0  0  0  0  0  0  0  0  0  0  0
    8.8815  -16.6167   23.2315 N   0  0  0  0  0  0  0  0  0  0  0  0
    9.4382  -16.2626   24.4961 C   0  0  1  0  0  0  0  0  0  0  0  0
    8.5274  -16.3376   25.6597 C   0  0  0  0  0  0  0  0  0  0  0  0
    7.4021  -15.4062   25.6334 C   0  0  0  0  0  0  0  0  0  0  0  0
    6.0857  -15.7056   25.4029 C   0  0  0  0  0  0  0  0  0  0  0  0
    5.3283  -14.5896   25.4577 N   0  0  0  0  0  0  0  0  0  0  0  0
    6.1560  -13.5753   25.7229 C   0  0  0  0  0  0  0  0  0  0  0  0
    5.8467  -12.2336   25.8728 C   0  0  0  0  0  0  0  0  0  0  0  0
    6.9008  -11.3741   26.1465 C   0  0  0  0  0  0  0  0  0  0  0  0
    8.2093  -11.8201   26.2683 C   0  0  0  0  0  0  0  0  0  0  0  0
    8.4888  -13.1632   26.1135 C   0  0  0  0  0  0  0  0  0  0  0  0
    7.4642  -14.0445   25.8399 C   0  0  0  0  0  0  0  0  0  0  0  0
   10.5696  -17.2405   24.7368 C   0  0  0  0  0  0  0  0  0  0  0  0
   10.4092  -18.4800   24.6712 O   0  0  0  0  0  0  0  0  0  0  0  0
   14.4544  -15.2651   23.2525 N   0  0  0  0  0  0  0  0  0  0  0  0
   14.3061  -16.6405   23.5777 C   0  0  0  0  0  0  0  0  0  0  0  0
   14.2202  -17.4832   22.6620 O   0  0  0  0  0  0  0  0  0  0  0  0
   14.2606  -17.0653   24.9926 C   0  0  0  0  0  0  0  0  0  0  0  0
   12.9375  -17.7531   25.3507 C   0  0  2  0  0  0  0  0  0  0  0  0
   11.8855  -16.7958   25.0521 N   0  0  0  0  0  0  0  0  0  0  0  0
   12.8910  -18.0940   26.7990 C   0  0  0  0  0  0  0  0  0  0  0  0
   11.9271  -17.5943   27.6527 O   0  0  0  0  0  0  0  0  0  0  0  0
   13.7475  -18.8729   27.3479 O   0  0  0  0  0  0  0  0  0  0  0  0
  2  1  1  1
  3  4  1  0
  3  2  1  0
  4  5  2  0
  4  8  1  0
  6  2  1  0
  6  7  2  0
  9  6  1  0
 10  9  1  0
 10 11  1  1
 12 11  1  0
 12 13  2  0
 14 13  1  0
 15 14  1  0
 16 15  2  0
 17 16  1  0
 18 17  2  0
 18 19  1  0
 19 20  2  0
 20 15  1  0
 20 12  1  0
 21 10  1  0
 22 21  2  0
 23 24  1  0
 24 25  2  0
 26 24  1  0
 27 26  1  1
 27 28  1  0
 27 29  1  0
 28 21  1  0
 29 30  1  0
 31 29  2  0
M  END
$$$$
