DWN.pdb
     RDKit          3D

 31 32  0  0  1  0  0  0  0  0999 V2000
    9.9732  -16.2631   20.3893 N   0  0  0  0  0  0  0  0  0  0  0  0
   10.6393  -17.1669   21.2999 C   0  0  1  0  0  0  0  0  0  0  0  0
   12.0784  -17.2564   20.8627 C   0  0  0  0  0  0  0  0  0  0  0  0
   12.1585  -17.9305   19.5354 C   0  0  0  0  0  0  0  0  0  0  0  0
   11.2788  -18.7702   19.1777 O   0  0  0  0  0  0  0  0  0  0  0  0
   10.6226  -16.6407   22.6835 C   0  0  0  0  0  0  0  0  0  0  0  0
   11.3323  -15.6630   23.0059 O   0  0  0  0  0  0  0  0  0  0  0  0
   13.1896  -17.6566   18.6732 O   0  0  0  0  0  0  0  0  0  0  0  0
    9.7949  -17.2408   23.6644 N   0  0  0  0  0  0  0  0  0  0  0  0
    9.6561  -16.7262   24.9874 C   0  0  1  0  0  0  0  0  0  0  0  0
    8.2758  -16.4561   25.4465 C   0  0  0  0  0  0  0  0  0  0  0  0
    7.6689  -15.2367   24.9180 C   0  0  0  0  0  0  0  0  0  0  0  0
    7.1276  -15.0545   23.6732 C   0  0  0  0  0  0  0  0  0  0  0  0
    6.6580  -13.7960   23.5392 N   0  0  0  0  0  0  0  0  0  0  0  0
    6.8970  -13.1709   24.6952 C   0  0  0  0  0  0  0  0  0  0  0  0
    6.5976  -11.8633   25.0402 C   0  0  0  0  0  0  0  0  0  0  0  0
    6.9558  -11.4541   26.3166 C   0  0  0  0  0  0  0  0  0  0  0  0
    7.5844  -12.3013   27.2183 C   0  0  0  0  0  0  0  0  0  0  0  0
    7.8712  -13.5997   26.8473 C   0  0  0  0  0  0  0  0  0  0  0  0
    7.5294  -14.0385   25.5855 C   0  0  0  0  0  0  0  0  0  0  0  0
   10.2450  -17.7793   25.9032 C   0  0  0  0  0  0  0  0  0  0  0  0
    9.7939  -18.9453   25.9607 O   0  0  0  0  0  0  0  0  0  0  0  0
   13.3892  -20.2660   29.1849 N   0  0  0  0  0  0  0  0  0  0  0  0
   13.9406  -18.9708   28.9893 C   0  0  0  0  0  0  0  0  0  0  0  0
   15.0267  -18.6770   29.5280 O   0  0  0  0  0  0  0  0  0  0  0  0
   13.2314  -17.9844   28.1476 C   0  0  0  0  0  0  0  0  0  0  0  0
   11.8853  -18.5149   27.6395 C   0  0  2  0  0  0  0  0  0  0  0  0
   11.3524  -17.4945   26.7524 N   0  0  0  0  0  0  0  0  0  0  0  0
   10.9372  -18.7250   28.7678 C   0  0  0  0  0  0  0  0  0  0  0  0
    9.8739  -17.8791   29.0164 O   0  0  0  0  0  0  0  0  0  0  0  0
   11.0499  -19.7056   29.5846 O   0  0  0  0  0  0  0  0  0  0  0  0
  2  1  1  6
  3  4  1  0
  3  2  1  0
  4  5  2  0
  4  8  1  0
  6  2  1  0
  6  7  2  0
  9  6  1  0
 10  9  1  0
 10 11  1  1
 12 11  1  0
 12 13  2  0
 14 13  1  0
 15 14  1  0
 16 15  2  0
 17 16  1  0
 18 17  2  0
 18 19  1  0
 19 20  2  0
 20 15  1  0
 20 12  1  0
 21 10  1  0
 22 21  2  0
 23 24  1  0
 24 25  2  0
 26 24  1  0
 27 26  1  1
 27 28  1  0
 27 29  1  0
 28 21  1  0
 29 30  1  0
 31 29  2  0
M  END
$$$$
