DWN.pdb
     RDKit          3D

 31 32  0  0  1  0  0  0  0  0999 V2000
    6.9317  -15.5351   20.7821 N   0  0  0  0  0  0  0  0  0  0  0  0
    8.2128  -16.1791   20.9655 C   0  0  1  0  0  0  0  0  0  0  0  0
    9.1175  -15.6889   19.8650 C   0  0  0  0  0  0  0  0  0  0  0  0
    8.7760  -16.3806   18.5892 C   0  0  0  0  0  0  0  0  0  0  0  0
    7.7082  -17.0550   18.4802 O   0  0  0  0  0  0  0  0  0  0  0  0
    8.8261  -15.7922   22.2563 C   0  0  0  0  0  0  0  0  0  0  0  0
    9.4874  -14.7362   22.3606 O   0  0  0  0  0  0  0  0  0  0  0  0
    9.6135  -16.3027   17.5057 O   0  0  0  0  0  0  0  0  0  0  0  0
    8.6676  -16.6180   23.3966 N   0  0  0  0  0  0  0  0  0  0  0  0
    9.2397  -16.3107   24.6666 C   0  0  1  0  0  0  0  0  0  0  0  0
    8.2982  -16.2008   25.8026 C   0  0  0  0  0  0  0  0  0  0  0  0
    7.2705  -15.1715   25.6651 C   0  0  0  0  0  0  0  0  0  0  0  0
    5.9547  -15.3556   25.3327 C   0  0  0  0  0  0  0  0  0  0  0  0
    5.3028  -14.1739   25.3026 N   0  0  0  0  0  0  0  0  0  0  0  0
    6.1975  -13.2327   25.6151 C   0  0  0  0  0  0  0  0  0  0  0  0
    6.0037  -11.8647   25.7124 C   0  0  0  0  0  0  0  0  0  0  0  0
    7.1081  -11.0980   26.0552 C   0  0  0  0  0  0  0  0  0  0  0  0
    8.3552  -11.6582   26.2934 C   0  0  0  0  0  0  0  0  0  0  0  0
    8.5197  -13.0249   26.1888 C   0  0  0  0  0  0  0  0  0  0  0  0
    7.4426  -13.8161   25.8490 C   0  0  0  0  0  0  0  0  0  0  0  0
   10.1962  -17.4445   24.9730 C   0  0  0  0  0  0  0  0  0  0  0  0
   10.1419  -18.5456   24.3805 O   0  0  0  0  0  0  0  0  0  0  0  0
   14.6854  -17.9879   23.6592 N   0  0  0  0  0  0  0  0  0  0  0  0
   13.9739  -18.7048   24.6588 C   0  0  0  0  0  0  0  0  0  0  0  0
   13.7563  -19.9234   24.5043 O   0  0  0  0  0  0  0  0  0  0  0  0
   13.5024  -18.0085   25.8743 C   0  0  0  0  0  0  0  0  0  0  0  0
   12.0851  -18.4352   26.2757 C   0  0  2  0  0  0  0  0  0  0  0  0
   11.2158  -17.3144   25.9590 N   0  0  0  0  0  0  0  0  0  0  0  0
   12.0084  -18.7157   27.7356 C   0  0  0  0  0  0  0  0  0  0  0  0
   12.6254  -19.8046   28.3198 O   0  0  0  0  0  0  0  0  0  0  0  0
   11.3599  -17.9636   28.5452 O   0  0  0  0  0  0  0  0  0  0  0  0
  2  1  1  6
  3  4  1  0
  3  2  1  0
  4  5  2  0
  4  8  1  0
  6  2  1  0
  6  7  2  0
  9  6  1  0
 10  9  1  0
 10 11  1  1
 12 11  1  0
 12 13  2  0
 14 13  1  0
 15 14  1  0
 16 15  2  0
 17 16  1  0
 18 17  2  0
 18 19  1  0
 19 20  2  0
 20 15  1  0
 20 12  1  0
 21 10  1  0
 22 21  2  0
 23 24  1  0
 24 25  2  0
 26 24  1  0
 27 26  1  1
 27 28  1  0
 27 29  1  0
 28 21  1  0
 29 30  1  0
 31 29  2  0
M  END
$$$$
