DWN.pdb
     RDKit          3D

 31 32  0  0  1  0  0  0  0  0999 V2000
    9.4783  -17.6109   20.8092 N   0  0  0  0  0  0  0  0  0  0  0  0
   10.8093  -17.1835   21.1775 C   0  0  1  0  0  0  0  0  0  0  0  0
   11.1857  -16.0566   20.2510 C   0  0  0  0  0  0  0  0  0  0  0  0
   11.6084  -16.6106   18.9330 C   0  0  0  0  0  0  0  0  0  0  0  0
   10.7594  -17.1063   18.1328 O   0  0  0  0  0  0  0  0  0  0  0  0
   10.8381  -16.6560   22.5605 C   0  0  0  0  0  0  0  0  0  0  0  0
   11.8461  -16.0591   22.9978 O   0  0  0  0  0  0  0  0  0  0  0  0
   12.9282  -16.5969   18.5596 O   0  0  0  0  0  0  0  0  0  0  0  0
    9.7159  -16.8201   23.4095 N   0  0  0  0  0  0  0  0  0  0  0  0
    9.7207  -16.4514   24.7874 C   0  0  1  0  0  0  0  0  0  0  0  0
    8.3979  -16.3053   25.4337 C   0  0  0  0  0  0  0  0  0  0  0  0
    7.6017  -15.1684   24.9775 C   0  0  0  0  0  0  0  0  0  0  0  0
    6.9042  -15.0648   23.8034 C   0  0  0  0  0  0  0  0  0  0  0  0
    6.2844  -13.8683   23.7232 N   0  0  0  0  0  0  0  0  0  0  0  0
    6.5828  -13.2045   24.8432 C   0  0  0  0  0  0  0  0  0  0  0  0
    6.1805  -11.9336   25.2191 C   0  0  0  0  0  0  0  0  0  0  0  0
    6.6347  -11.4693   26.4451 C   0  0  0  0  0  0  0  0  0  0  0  0
    7.4533  -12.2286   27.2690 C   0  0  0  0  0  0  0  0  0  0  0  0
    7.8394  -13.4923   26.8688 C   0  0  0  0  0  0  0  0  0  0  0  0
    7.4064  -13.9839   25.6554 C   0  0  0  0  0  0  0  0  0  0  0  0
   10.4622  -17.5584   25.5077 C   0  0  0  0  0  0  0  0  0  0  0  0
   10.2775  -18.7685   25.2471 O   0  0  0  0  0  0  0  0  0  0  0  0
   14.4825  -17.0563   25.4635 N   0  0  0  0  0  0  0  0  0  0  0  0
   14.0810  -18.2393   26.1410 C   0  0  0  0  0  0  0  0  0  0  0  0
   14.2831  -19.3503   25.6110 O   0  0  0  0  0  0  0  0  0  0  0  0
   13.4345  -18.1491   27.4671 C   0  0  0  0  0  0  0  0  0  0  0  0
   11.9147  -18.3373   27.3866 C   0  0  2  0  0  0  0  0  0  0  0  0
   11.4165  -17.2767   26.5269 N   0  0  0  0  0  0  0  0  0  0  0  0
   11.2915  -18.2083   28.7324 C   0  0  0  0  0  0  0  0  0  0  0  0
   11.5288  -19.1073   29.7538 O   0  0  0  0  0  0  0  0  0  0  0  0
   10.4902  -17.2535   29.0284 O   0  0  0  0  0  0  0  0  0  0  0  0
  2  1  1  6
  3  4  1  0
  3  2  1  0
  4  5  2  0
  4  8  1  0
  6  2  1  0
  6  7  2  0
  9  6  1  0
 10  9  1  0
 10 11  1  1
 12 11  1  0
 12 13  2  0
 14 13  1  0
 15 14  1  0
 16 15  2  0
 17 16  1  0
 18 17  2  0
 18 19  1  0
 19 20  2  0
 20 15  1  0
 20 12  1  0
 21 10  1  0
 22 21  2  0
 23 24  1  0
 24 25  2  0
 26 24  1  0
 27 26  1  1
 27 28  1  0
 27 29  1  0
 28 21  1  0
 29 30  1  0
 31 29  2  0
M  END
$$$$
