DWN.pdb
     RDKit          3D

 31 32  0  0  1  0  0  0  0  0999 V2000
    7.3546  -17.0977   20.6429 N   0  0  0  0  0  0  0  0  0  0  0  0
    8.5999  -16.4375   20.3216 C   0  0  1  0  0  0  0  0  0  0  0  0
    8.2618  -15.2453   19.4646 C   0  0  0  0  0  0  0  0  0  0  0  0
    7.8030  -15.7059   18.1229 C   0  0  0  0  0  0  0  0  0  0  0  0
    7.6583  -16.9401   17.8729 O   0  0  0  0  0  0  0  0  0  0  0  0
    9.2702  -15.9365   21.5429 C   0  0  0  0  0  0  0  0  0  0  0  0
   10.2025  -15.1067   21.4676 O   0  0  0  0  0  0  0  0  0  0  0  0
    7.5295  -14.8010   17.1289 O   0  0  0  0  0  0  0  0  0  0  0  0
    8.8589  -16.3924   22.8197 N   0  0  0  0  0  0  0  0  0  0  0  0
    9.5321  -16.0401   24.0269 C   0  0  1  0  0  0  0  0  0  0  0  0
    8.7918  -16.2769   25.2858 C   0  0  0  0  0  0  0  0  0  0  0  0
    7.6000  -15.4530   25.4742 C   0  0  0  0  0  0  0  0  0  0  0  0
    6.2941  -15.8604   25.4093 C   0  0  0  0  0  0  0  0  0  0  0  0
    5.4611  -14.8232   25.6388 N   0  0  0  0  0  0  0  0  0  0  0  0
    6.2300  -13.7517   25.8507 C   0  0  0  0  0  0  0  0  0  0  0  0
    5.8337  -12.4536   26.1265 C   0  0  0  0  0  0  0  0  0  0  0  0
    6.8401  -11.5156   26.3058 C   0  0  0  0  0  0  0  0  0  0  0  0
    8.1854  -11.8447   26.2173 C   0  0  0  0  0  0  0  0  0  0  0  0
    8.5518  -13.1467   25.9406 C   0  0  0  0  0  0  0  0  0  0  0  0
    7.5763  -14.1037   25.7560 C   0  0  0  0  0  0  0  0  0  0  0  0
   10.7837  -16.8924   24.0648 C   0  0  0  0  0  0  0  0  0  0  0  0
   10.7797  -18.1031   23.7473 O   0  0  0  0  0  0  0  0  0  0  0  0
   15.7133  -18.4224   24.6157 N   0  0  0  0  0  0  0  0  0  0  0  0
   15.6935  -17.0549   24.2295 C   0  0  0  0  0  0  0  0  0  0  0  0
   16.7577  -16.4931   23.9011 O   0  0  0  0  0  0  0  0  0  0  0  0
   14.4174  -16.3094   24.2128 C   0  0  0  0  0  0  0  0  0  0  0  0
   13.2169  -17.2047   24.5428 C   0  0  2  0  0  0  0  0  0  0  0  0
   12.0402  -16.3551   24.4662 N   0  0  0  0  0  0  0  0  0  0  0  0
   13.3304  -17.7591   25.9197 C   0  0  0  0  0  0  0  0  0  0  0  0
   12.4444  -17.4370   26.9292 O   0  0  0  0  0  0  0  0  0  0  0  0
   14.2625  -18.5706   26.2575 O   0  0  0  0  0  0  0  0  0  0  0  0
  2  1  1  1
  3  4  1  0
  3  2  1  0
  4  5  2  0
  4  8  1  0
  6  2  1  0
  6  7  2  0
  9  6  1  0
 10  9  1  0
 10 11  1  1
 12 11  1  0
 12 13  2  0
 14 13  1  0
 15 14  1  0
 16 15  2  0
 17 16  1  0
 18 17  2  0
 18 19  1  0
 19 20  2  0
 20 15  1  0
 20 12  1  0
 21 10  1  0
 22 21  2  0
 23 24  1  0
 24 25  2  0
 26 24  1  0
 27 26  1  1
 27 28  1  0
 27 29  1  0
 28 21  1  0
 29 30  1  0
 31 29  2  0
M  END
$$$$
