DWN.pdb
     RDKit          3D

 31 32  0  0  1  0  0  0  0  0999 V2000
    9.9687  -18.0675   20.8218 N   0  0  0  0  0  0  0  0  0  0  0  0
   10.8024  -16.9189   21.0966 C   0  0  1  0  0  0  0  0  0  0  0  0
   10.5102  -15.8937   20.0318 C   0  0  0  0  0  0  0  0  0  0  0  0
   11.0535  -16.3599   18.7240 C   0  0  0  0  0  0  0  0  0  0  0  0
   12.0098  -17.1905   18.6754 O   0  0  0  0  0  0  0  0  0  0  0  0
   10.4659  -16.3147   22.4056 C   0  0  0  0  0  0  0  0  0  0  0  0
   10.8931  -15.1816   22.7171 O   0  0  0  0  0  0  0  0  0  0  0  0
   10.5295  -15.8965   17.5441 O   0  0  0  0  0  0  0  0  0  0  0  0
    9.6486  -17.0166   23.3256 N   0  0  0  0  0  0  0  0  0  0  0  0
    9.3675  -16.5391   24.6400 C   0  0  1  0  0  0  0  0  0  0  0  0
    8.0108  -16.8129   25.1629 C   0  0  0  0  0  0  0  0  0  0  0  0
    7.1095  -15.6635   25.1943 C   0  0  0  0  0  0  0  0  0  0  0  0
    5.8289  -15.6030   24.7125 C   0  0  0  0  0  0  0  0  0  0  0  0
    5.3015  -14.3776   24.9183 N   0  0  0  0  0  0  0  0  0  0  0  0
    6.2410  -13.6522   25.5309 C   0  0  0  0  0  0  0  0  0  0  0  0
    6.1699  -12.3326   25.9459 C   0  0  0  0  0  0  0  0  0  0  0  0
    7.2963  -11.8081   26.5631 C   0  0  0  0  0  0  0  0  0  0  0  0
    8.4481  -12.5556   26.7641 C   0  0  0  0  0  0  0  0  0  0  0  0
    8.4912  -13.8687   26.3398 C   0  0  0  0  0  0  0  0  0  0  0  0
    7.3890  -14.4208   25.7219 C   0  0  0  0  0  0  0  0  0  0  0  0
   10.3580  -17.2335   25.5515 C   0  0  0  0  0  0  0  0  0  0  0  0
   10.9233  -18.3043   25.2349 O   0  0  0  0  0  0  0  0  0  0  0  0
   13.3231  -17.3239   30.5740 N   0  0  0  0  0  0  0  0  0  0  0  0
   11.9596  -17.5316   30.2313 C   0  0  0  0  0  0  0  0  0  0  0  0
   11.2841  -18.3621   30.8718 O   0  0  0  0  0  0  0  0  0  0  0  0
   11.3489  -16.7622   29.1270 C   0  0  0  0  0  0  0  0  0  0  0  0
   11.4553  -17.4916   27.7822 C   0  0  2  0  0  0  0  0  0  0  0  0
   10.7005  -16.6986   26.8263 N   0  0  0  0  0  0  0  0  0  0  0  0
   10.8581  -18.8525   27.8674 C   0  0  0  0  0  0  0  0  0  0  0  0
    9.4941  -19.0688   27.8906 O   0  0  0  0  0  0  0  0  0  0  0  0
   11.5744  -19.9131   27.9281 O   0  0  0  0  0  0  0  0  0  0  0  0
  2  1  1  6
  3  4  1  0
  3  2  1  0
  4  5  2  0
  4  8  1  0
  6  2  1  0
  6  7  2  0
  9  6  1  0
 10  9  1  0
 10 11  1  1
 12 11  1  0
 12 13  2  0
 14 13  1  0
 15 14  1  0
 16 15  2  0
 17 16  1  0
 18 17  2  0
 18 19  1  0
 19 20  2  0
 20 15  1  0
 20 12  1  0
 21 10  1  0
 22 21  2  0
 23 24  1  0
 24 25  2  0
 26 24  1  0
 27 26  1  1
 27 28  1  0
 27 29  1  0
 28 21  1  0
 29 30  1  0
 31 29  2  0
M  END
$$$$
