DWN.pdb
     RDKit          3D

 31 32  0  0  1  0  0  0  0  0999 V2000
    9.5084  -17.4090   21.0474 N   0  0  0  0  0  0  0  0  0  0  0  0
   10.4251  -17.8811   22.0606 C   0  0  1  0  0  0  0  0  0  0  0  0
   11.8074  -17.4501   21.6439 C   0  0  0  0  0  0  0  0  0  0  0  0
   12.1552  -18.0761   20.3363 C   0  0  0  0  0  0  0  0  0  0  0  0
   11.3390  -18.8452   19.7453 O   0  0  0  0  0  0  0  0  0  0  0  0
   10.1379  -17.2595   23.3732 C   0  0  0  0  0  0  0  0  0  0  0  0
   10.9885  -16.5406   23.9417 O   0  0  0  0  0  0  0  0  0  0  0  0
   13.3693  -17.8334   19.7459 O   0  0  0  0  0  0  0  0  0  0  0  0
    8.8868  -17.4711   24.0036 N   0  0  0  0  0  0  0  0  0  0  0  0
    8.5315  -16.8747   25.2496 C   0  0  1  0  0  0  0  0  0  0  0  0
    7.1984  -16.2362   25.3165 C   0  0  0  0  0  0  0  0  0  0  0  0
    7.1165  -14.8984   24.7350 C   0  0  0  0  0  0  0  0  0  0  0  0
    7.1592  -14.5701   23.4060 C   0  0  0  0  0  0  0  0  0  0  0  0
    7.0531  -13.2343   23.2433 N   0  0  0  0  0  0  0  0  0  0  0  0
    6.9424  -12.7053   24.4649 C   0  0  0  0  0  0  0  0  0  0  0  0
    6.8106  -11.3710   24.8122 C   0  0  0  0  0  0  0  0  0  0  0  0
    6.7146  -11.0822   26.1658 C   0  0  0  0  0  0  0  0  0  0  0  0
    6.7467  -12.0706   27.1394 C   0  0  0  0  0  0  0  0  0  0  0  0
    6.8794  -13.3926   26.7645 C   0  0  0  0  0  0  0  0  0  0  0  0
    6.9782  -13.7142   25.4272 C   0  0  0  0  0  0  0  0  0  0  0  0
    8.5522  -17.9982   26.2652 C   0  0  0  0  0  0  0  0  0  0  0  0
    7.8161  -19.0055   26.1652 O   0  0  0  0  0  0  0  0  0  0  0  0
   11.2728  -21.5834   28.5151 N   0  0  0  0  0  0  0  0  0  0  0  0
   11.4358  -21.0939   27.1910 C   0  0  0  0  0  0  0  0  0  0  0  0
   12.1173  -21.7452   26.3740 O   0  0  0  0  0  0  0  0  0  0  0  0
   10.7951  -19.8244   26.7875 C   0  0  0  0  0  0  0  0  0  0  0  0
    9.9853  -19.1943   27.9272 C   0  0  2  0  0  0  0  0  0  0  0  0
    9.4185  -17.9663   27.3953 N   0  0  0  0  0  0  0  0  0  0  0  0
   10.8627  -18.8664   29.0842 C   0  0  0  0  0  0  0  0  0  0  0  0
   10.7745  -19.5215   30.2969 O   0  0  0  0  0  0  0  0  0  0  0  0
   11.7564  -17.9500   29.0289 O   0  0  0  0  0  0  0  0  0  0  0  0
  2  1  1  6
  3  4  1  0
  3  2  1  0
  4  5  2  0
  4  8  1  0
  6  2  1  0
  6  7  2  0
  9  6  1  0
 10  9  1  0
 10 11  1  6
 12 11  1  0
 12 13  2  0
 14 13  1  0
 15 14  1  0
 16 15  2  0
 17 16  1  0
 18 17  2  0
 18 19  1  0
 19 20  2  0
 20 15  1  0
 20 12  1  0
 21 10  1  0
 22 21  2  0
 23 24  1  0
 24 25  2  0
 26 24  1  0
 27 26  1  6
 27 28  1  0
 27 29  1  0
 28 21  1  0
 29 30  1  0
 31 29  2  0
M  END
$$$$
