DWN.pdb
     RDKit          3D

 31 32  0  0  1  0  0  0  0  0999 V2000
    9.6994  -16.5601   19.7696 N   0  0  0  0  0  0  0  0  0  0  0  0
   10.4798  -17.3927   20.6571 C   0  0  1  0  0  0  0  0  0  0  0  0
   11.9030  -17.3545   20.1642 C   0  0  0  0  0  0  0  0  0  0  0  0
   11.9712  -17.9145   18.7842 C   0  0  0  0  0  0  0  0  0  0  0  0
   11.1514  -18.8020   18.4007 O   0  0  0  0  0  0  0  0  0  0  0  0
   10.4687  -16.8595   22.0381 C   0  0  0  0  0  0  0  0  0  0  0  0
   11.3401  -16.0473   22.4185 O   0  0  0  0  0  0  0  0  0  0  0  0
   12.9262  -17.4810   17.9001 O   0  0  0  0  0  0  0  0  0  0  0  0
    9.4627  -17.2636   22.9502 N   0  0  0  0  0  0  0  0  0  0  0  0
    9.3473  -16.7319   24.2688 C   0  0  1  0  0  0  0  0  0  0  0  0
    7.9889  -16.3370   24.7020 C   0  0  0  0  0  0  0  0  0  0  0  0
    7.5712  -14.9950   24.3029 C   0  0  0  0  0  0  0  0  0  0  0  0
    7.2477  -14.5701   23.0418 C   0  0  0  0  0  0  0  0  0  0  0  0
    6.9065  -13.2641   23.0537 N   0  0  0  0  0  0  0  0  0  0  0  0
    7.0106  -12.8507   24.3195 C   0  0  0  0  0  0  0  0  0  0  0  0
    6.7659  -11.5870   24.8311 C   0  0  0  0  0  0  0  0  0  0  0  0
    6.9513  -11.4164   26.1954 C   0  0  0  0  0  0  0  0  0  0  0  0
    7.3616  -12.4516   27.0236 C   0  0  0  0  0  0  0  0  0  0  0  0
    7.5987  -13.7011   26.4864 C   0  0  0  0  0  0  0  0  0  0  0  0
    7.4248  -13.9046   25.1337 C   0  0  0  0  0  0  0  0  0  0  0  0
    9.8234  -17.8288   25.1986 C   0  0  0  0  0  0  0  0  0  0  0  0
    9.3849  -18.9992   25.1339 O   0  0  0  0  0  0  0  0  0  0  0  0
   14.1274  -19.4148   28.9612 N   0  0  0  0  0  0  0  0  0  0  0  0
   13.3344  -19.7758   27.8385 C   0  0  0  0  0  0  0  0  0  0  0  0
   13.1266  -20.9813   27.5943 O   0  0  0  0  0  0  0  0  0  0  0  0
   12.7568  -18.7264   26.9726 C   0  0  0  0  0  0  0  0  0  0  0  0
   11.2302  -18.6467   27.0955 C   0  0  2  0  0  0  0  0  0  0  0  0
   10.8034  -17.5826   26.2024 N   0  0  0  0  0  0  0  0  0  0  0  0
   10.8264  -18.3075   28.4876 C   0  0  0  0  0  0  0  0  0  0  0  0
   10.8714  -19.2222   29.5215 O   0  0  0  0  0  0  0  0  0  0  0  0
   10.4069  -17.1421   28.8152 O   0  0  0  0  0  0  0  0  0  0  0  0
  2  1  1  6
  3  4  1  0
  3  2  1  0
  4  5  2  0
  4  8  1  0
  6  2  1  0
  6  7  2  0
  9  6  1  0
 10  9  1  0
 10 11  1  1
 12 11  1  0
 12 13  2  0
 14 13  1  0
 15 14  1  0
 16 15  2  0
 17 16  1  0
 18 17  2  0
 18 19  1  0
 19 20  2  0
 20 15  1  0
 20 12  1  0
 21 10  1  0
 22 21  2  0
 23 24  1  0
 24 25  2  0
 26 24  1  0
 27 26  1  1
 27 28  1  0
 27 29  1  0
 28 21  1  0
 29 30  1  0
 31 29  2  0
M  END
$$$$
