DWN.pdb
     RDKit          3D

 31 32  0  0  1  0  0  0  0  0999 V2000
    7.3331  -17.4599   20.6643 N   0  0  0  0  0  0  0  0  0  0  0  0
    8.4715  -16.6575   20.2771 C   0  0  1  0  0  0  0  0  0  0  0  0
    7.9509  -15.5331   19.4199 C   0  0  0  0  0  0  0  0  0  0  0  0
    7.6795  -16.0361   18.0430 C   0  0  0  0  0  0  0  0  0  0  0  0
    7.1838  -17.1879   17.8567 O   0  0  0  0  0  0  0  0  0  0  0  0
    9.1274  -16.0540   21.4592 C   0  0  0  0  0  0  0  0  0  0  0  0
    9.8967  -15.0760   21.3356 O   0  0  0  0  0  0  0  0  0  0  0  0
    7.9633  -15.2616   16.9471 O   0  0  0  0  0  0  0  0  0  0  0  0
    8.8875  -16.5790   22.7530 N   0  0  0  0  0  0  0  0  0  0  0  0
    9.5714  -16.1221   23.9184 C   0  0  1  0  0  0  0  0  0  0  0  0
    8.8886  -16.3460   25.2117 C   0  0  0  0  0  0  0  0  0  0  0  0
    7.7282  -15.4941   25.4613 C   0  0  0  0  0  0  0  0  0  0  0  0
    6.4093  -15.8615   25.4259 C   0  0  0  0  0  0  0  0  0  0  0  0
    5.6151  -14.8079   25.7113 N   0  0  0  0  0  0  0  0  0  0  0  0
    6.4217  -13.7659   25.9297 C   0  0  0  0  0  0  0  0  0  0  0  0
    6.0728  -12.4656   26.2553 C   0  0  0  0  0  0  0  0  0  0  0  0
    7.1117  -11.5628   26.4297 C   0  0  0  0  0  0  0  0  0  0  0  0
    8.4432  -11.9278   26.2893 C   0  0  0  0  0  0  0  0  0  0  0  0
    8.7621  -13.2310   25.9638 C   0  0  0  0  0  0  0  0  0  0  0  0
    7.7533  -14.1536   25.7825 C   0  0  0  0  0  0  0  0  0  0  0  0
   10.8799  -16.8842   23.9538 C   0  0  0  0  0  0  0  0  0  0  0  0
   10.9499  -18.1076   23.6991 O   0  0  0  0  0  0  0  0  0  0  0  0
   16.4415  -16.8242   22.7406 N   0  0  0  0  0  0  0  0  0  0  0  0
   15.8109  -16.5535   23.9850 C   0  0  0  0  0  0  0  0  0  0  0  0
   16.4026  -16.8308   25.0476 O   0  0  0  0  0  0  0  0  0  0  0  0
   14.4657  -15.9418   24.0150 C   0  0  0  0  0  0  0  0  0  0  0  0
   13.3604  -16.9795   24.2452 C   0  0  2  0  0  0  0  0  0  0  0  0
   12.1085  -16.2421   24.2808 N   0  0  0  0  0  0  0  0  0  0  0  0
   13.5518  -17.6800   25.5447 C   0  0  0  0  0  0  0  0  0  0  0  0
   14.2504  -18.8662   25.6571 O   0  0  0  0  0  0  0  0  0  0  0  0
   13.0761  -17.2268   26.6446 O   0  0  0  0  0  0  0  0  0  0  0  0
  2  1  1  1
  3  4  1  0
  3  2  1  0
  4  5  2  0
  4  8  1  0
  6  2  1  0
  6  7  2  0
  9  6  1  0
 10  9  1  0
 10 11  1  1
 12 11  1  0
 12 13  2  0
 14 13  1  0
 15 14  1  0
 16 15  2  0
 17 16  1  0
 18 17  2  0
 18 19  1  0
 19 20  2  0
 20 15  1  0
 20 12  1  0
 21 10  1  0
 22 21  2  0
 23 24  1  0
 24 25  2  0
 26 24  1  0
 27 26  1  1
 27 28  1  0
 27 29  1  0
 28 21  1  0
 29 30  1  0
 31 29  2  0
M  END
$$$$
