NLW.pdb
     RDKit          3D

 31 32  0  0  1  0  0  0  0  0999 V2000
    8.6195  -22.1915   20.8003 N   0  0  0  0  0  0  0  0  0  0  0  0
    8.2372  -21.0176   20.1132 C   0  0  0  0  0  0  0  0  0  0  0  0
    7.4585  -21.0470   19.1106 O   0  0  0  0  0  0  0  0  0  0  0  0
    8.7219  -19.6715   20.5198 C   0  0  0  0  0  0  0  0  0  0  0  0
    8.9551  -18.8151   19.2839 C   0  0  2  0  0  0  0  0  0  0  0  0
    9.7126  -19.5219   18.2880 N   0  0  0  0  0  0  0  0  0  0  0  0
    9.5819  -17.5299   19.6697 C   0  0  0  0  0  0  0  0  0  0  0  0
   10.7999  -17.3126   19.4394 O   0  0  0  0  0  0  0  0  0  0  0  0
    8.6299  -13.3779   18.3244 C   0  0  0  0  0  0  0  0  0  0  0  0
    7.6804  -13.9739   19.3600 C   0  0  2  0  0  0  0  0  0  0  0  0
    6.4880  -13.0636   19.4768 C   0  0  0  0  0  0  0  0  0  0  0  0
    8.3690  -14.1497   20.6853 C   0  0  0  0  0  0  0  0  0  0  0  0
    9.4271  -15.1789   20.5940 C   0  0  2  0  0  0  0  0  0  0  0  0
    8.8568  -16.5055   20.3027 N   0  0  0  0  0  0  0  0  0  0  0  0
   10.3053  -15.3594   21.7434 C   0  0  0  0  0  0  0  0  0  0  0  0
   11.2578  -14.5744   21.9349 O   0  0  0  0  0  0  0  0  0  0  0  0
   10.1545  -16.4040   22.7027 N   0  0  0  0  0  0  0  0  0  0  0  0
    9.9933  -16.1129   24.1437 C   0  0  1  0  0  0  0  0  0  0  0  0
    8.7964  -15.2391   24.2846 C   0  0  0  0  0  0  0  0  0  0  0  0
    8.5789  -14.6106   25.5929 C   0  0  0  0  0  0  0  0  0  0  0  0
    9.1354  -15.0586   26.7858 C   0  0  0  0  0  0  0  0  0  0  0  0
    8.7204  -14.2861   27.8019 N   0  0  0  0  0  0  0  0  0  0  0  0
    7.8982  -13.3379   27.2796 C   0  0  0  0  0  0  0  0  0  0  0  0
    7.2268  -12.2996   27.9088 C   0  0  0  0  0  0  0  0  0  0  0  0
    6.4540  -11.4424   27.1659 C   0  0  0  0  0  0  0  0  0  0  0  0
    6.3632  -11.6374   25.7963 C   0  0  0  0  0  0  0  0  0  0  0  0
    7.0159  -12.6513   25.1699 C   0  0  0  0  0  0  0  0  0  0  0  0
    7.8010  -13.5230   25.9251 C   0  0  0  0  0  0  0  0  0  0  0  0
   10.0487  -17.3236   24.9438 C   0  0  0  0  0  0  0  0  0  0  0  0
   10.1396  -18.5882   24.3898 O   0  0  0  0  0  0  0  0  0  0  0  0
   10.0127  -17.3092   26.2253 O   0  0  0  0  0  0  0  0  0  0  0  0
  1  2  1  0
  2  4  1  0
  2  3  2  0
  4  5  1  0
  5  6  1  6
  7  8  2  0
  7  5  1  0
 10  9  1  6
 10 12  1  0
 11 10  1  0
 13 12  1  1
 13 14  1  0
 14  7  1  0
 15 13  1  0
 16 15  2  0
 17 15  1  0
 18 29  1  0
 18 17  1  0
 18 19  1  6
 20 19  1  0
 21 20  2  0
 22 21  1  0
 23 22  1  0
 23 28  2  0
 24 25  2  0
 24 23  1  0
 25 26  1  0
 26 27  2  0
 28 27  1  0
 28 20  1  0
 29 30  1  0
 31 29  2  0
M  END
$$$$
