NLW.pdb
     RDKit          3D

 31 32  0  0  1  0  0  0  0  0999 V2000
   10.3357  -20.5757   18.2972 N   0  0  0  0  0  0  0  0  0  0  0  0
   10.5700  -19.3890   17.5671 C   0  0  0  0  0  0  0  0  0  0  0  0
   10.9514  -19.4070   16.3560 O   0  0  0  0  0  0  0  0  0  0  0  0
   10.3849  -18.0417   18.1696 C   0  0  0  0  0  0  0  0  0  0  0  0
   10.0065  -18.1831   19.6366 C   0  0  2  0  0  0  0  0  0  0  0  0
    8.6335  -18.5785   19.7910 N   0  0  0  0  0  0  0  0  0  0  0  0
   10.3239  -16.9325   20.3638 C   0  0  0  0  0  0  0  0  0  0  0  0
   11.5136  -16.5385   20.4787 O   0  0  0  0  0  0  0  0  0  0  0  0
    9.0279  -12.7658   19.4819 C   0  0  0  0  0  0  0  0  0  0  0  0
    8.0442  -13.7016   20.1791 C   0  0  2  0  0  0  0  0  0  0  0  0
    6.6770  -13.0776   20.1070 C   0  0  0  0  0  0  0  0  0  0  0  0
    8.4576  -13.9555   21.6025 C   0  0  0  0  0  0  0  0  0  0  0  0
    9.6144  -14.8755   21.6564 C   0  0  2  0  0  0  0  0  0  0  0  0
    9.3257  -16.1369   20.9523 N   0  0  0  0  0  0  0  0  0  0  0  0
   10.1269  -15.2522   22.9680 C   0  0  0  0  0  0  0  0  0  0  0  0
   11.0054  -14.5580   23.5216 O   0  0  0  0  0  0  0  0  0  0  0  0
    9.6852  -16.3968   23.6953 N   0  0  0  0  0  0  0  0  0  0  0  0
   10.1572  -16.6686   25.0702 C   0  0  1  0  0  0  0  0  0  0  0  0
    9.7187  -15.5272   25.9192 C   0  0  0  0  0  0  0  0  0  0  0  0
    8.2910  -15.1878   25.8963 C   0  0  0  0  0  0  0  0  0  0  0  0
    7.2852  -16.0374   25.4491 C   0  0  0  0  0  0  0  0  0  0  0  0
    6.0960  -15.4204   25.5315 N   0  0  0  0  0  0  0  0  0  0  0  0
    6.3198  -14.1756   26.0298 C   0  0  0  0  0  0  0  0  0  0  0  0
    5.4213  -13.1577   26.3146 C   0  0  0  0  0  0  0  0  0  0  0  0
    5.8800  -11.9734   26.8352 C   0  0  0  0  0  0  0  0  0  0  0  0
    7.2390  -11.8236   27.0647 C   0  0  0  0  0  0  0  0  0  0  0  0
    8.1280  -12.8136   26.7889 C   0  0  0  0  0  0  0  0  0  0  0  0
    7.6617  -14.0171   26.2592 C   0  0  0  0  0  0  0  0  0  0  0  0
    9.8061  -18.0102   25.5012 C   0  0  0  0  0  0  0  0  0  0  0  0
    9.0457  -18.8729   24.7318 O   0  0  0  0  0  0  0  0  0  0  0  0
   10.1722  -18.4928   26.6312 O   0  0  0  0  0  0  0  0  0  0  0  0
  1  2  1  0
  2  4  1  0
  2  3  2  0
  4  5  1  0
  5  6  1  6
  7  8  2  0
  7  5  1  0
 10  9  1  1
 10 12  1  0
 11 10  1  0
 13 12  1  1
 13 14  1  0
 14  7  1  0
 15 13  1  0
 16 15  2  0
 17 15  1  0
 18 29  1  0
 18 17  1  0
 18 19  1  1
 20 19  1  0
 21 20  2  0
 22 21  1  0
 23 22  1  0
 23 28  2  0
 24 25  2  0
 24 23  1  0
 25 26  1  0
 26 27  2  0
 28 27  1  0
 28 20  1  0
 29 30  1  0
 31 29  2  0
M  END
$$$$
