NLW.pdb
     RDKit          3D

 31 32  0  0  1  0  0  0  0  0999 V2000
    9.8473  -20.6432   16.8871 N   0  0  0  0  0  0  0  0  0  0  0  0
   10.4796  -20.4395   18.1340 C   0  0  0  0  0  0  0  0  0  0  0  0
   10.7954  -21.4056   18.8953 O   0  0  0  0  0  0  0  0  0  0  0  0
   10.8165  -19.0804   18.6357 C   0  0  0  0  0  0  0  0  0  0  0  0
   10.3702  -18.9426   20.0838 C   0  0  2  0  0  0  0  0  0  0  0  0
    9.1659  -19.6847   20.3371 N   0  0  0  0  0  0  0  0  0  0  0  0
   10.2419  -17.5108   20.4397 C   0  0  0  0  0  0  0  0  0  0  0  0
   11.2399  -16.7451   20.3995 O   0  0  0  0  0  0  0  0  0  0  0  0
    6.3099  -12.8486   20.3659 C   0  0  0  0  0  0  0  0  0  0  0  0
    7.6407  -13.4416   20.8206 C   0  0  2  0  0  0  0  0  0  0  0  0
    8.7438  -12.7237   20.0914 C   0  0  0  0  0  0  0  0  0  0  0  0
    7.6867  -14.9228   20.5651 C   0  0  0  0  0  0  0  0  0  0  0  0
    8.8691  -15.5303   21.2134 C   0  0  2  0  0  0  0  0  0  0  0  0
    9.0166  -16.9460   20.8341 N   0  0  0  0  0  0  0  0  0  0  0  0
    8.9457  -15.4911   22.6686 C   0  0  0  0  0  0  0  0  0  0  0  0
    8.0537  -14.9177   23.3288 O   0  0  0  0  0  0  0  0  0  0  0  0
   10.0018  -16.0796   23.4251 N   0  0  0  0  0  0  0  0  0  0  0  0
   10.0330  -15.9993   24.9015 C   0  0  1  0  0  0  0  0  0  0  0  0
    8.7304  -16.5213   25.3979 C   0  0  0  0  0  0  0  0  0  0  0  0
    7.6116  -15.5734   25.4610 C   0  0  0  0  0  0  0  0  0  0  0  0
    6.3196  -15.8477   25.0263 C   0  0  0  0  0  0  0  0  0  0  0  0
    5.5418  -14.7670   25.1952 N   0  0  0  0  0  0  0  0  0  0  0  0
    6.3174  -13.7911   25.7373 C   0  0  0  0  0  0  0  0  0  0  0  0
    5.9851  -12.4972   26.1117 C   0  0  0  0  0  0  0  0  0  0  0  0
    6.9432  -11.6827   26.6618 C   0  0  0  0  0  0  0  0  0  0  0  0
    8.2275  -12.1770   26.8302 C   0  0  0  0  0  0  0  0  0  0  0  0
    8.5641  -13.4422   26.4665 C   0  0  0  0  0  0  0  0  0  0  0  0
    7.5904  -14.2700   25.9069 C   0  0  0  0  0  0  0  0  0  0  0  0
   11.2487  -16.5800   25.4435 C   0  0  0  0  0  0  0  0  0  0  0  0
   11.6226  -16.4425   26.7685 O   0  0  0  0  0  0  0  0  0  0  0  0
   12.0690  -17.2604   24.7307 O   0  0  0  0  0  0  0  0  0  0  0  0
  1  2  1  0
  2  4  1  0
  2  3  2  0
  4  5  1  0
  5  6  1  6
  7  8  2  0
  7  5  1  0
 10  9  1  6
 10 12  1  0
 11 10  1  0
 13 12  1  1
 13 14  1  0
 14  7  1  0
 15 13  1  0
 16 15  2  0
 17 15  1  0
 18 29  1  0
 18 17  1  0
 18 19  1  1
 20 19  1  0
 21 20  2  0
 22 21  1  0
 23 22  1  0
 23 28  2  0
 24 25  2  0
 24 23  1  0
 25 26  1  0
 26 27  2  0
 28 27  1  0
 28 20  1  0
 29 30  1  0
 31 29  2  0
M  END
$$$$
