NLW.pdb
     RDKit          3D

 31 32  0  0  1  0  0  0  0  0999 V2000
   10.4045  -19.8876   16.6296 N   0  0  0  0  0  0  0  0  0  0  0  0
    9.5706  -19.2156   17.5511 C   0  0  0  0  0  0  0  0  0  0  0  0
    8.4211  -19.6548   17.8644 O   0  0  0  0  0  0  0  0  0  0  0  0
    9.9852  -17.9503   18.2141 C   0  0  0  0  0  0  0  0  0  0  0  0
    9.9126  -18.1149   19.7250 C   0  0  2  0  0  0  0  0  0  0  0  0
    8.6996  -18.7731   20.1259 N   0  0  0  0  0  0  0  0  0  0  0  0
   10.0932  -16.8021   20.3863 C   0  0  0  0  0  0  0  0  0  0  0  0
   11.1793  -16.1744   20.2860 O   0  0  0  0  0  0  0  0  0  0  0  0
    8.7598  -13.1458   19.3441 C   0  0  0  0  0  0  0  0  0  0  0  0
    7.7270  -13.9733   20.1043 C   0  0  2  0  0  0  0  0  0  0  0  0
    6.3735  -13.3598   19.8681 C   0  0  0  0  0  0  0  0  0  0  0  0
    8.0554  -14.0310   21.5707 C   0  0  0  0  0  0  0  0  0  0  0  0
    9.2298  -14.8970   21.8113 C   0  0  2  0  0  0  0  0  0  0  0  0
    9.0746  -16.2027   21.1472 N   0  0  0  0  0  0  0  0  0  0  0  0
    9.5934  -15.1864   23.1930 C   0  0  0  0  0  0  0  0  0  0  0  0
   10.1089  -14.2992   23.9053 O   0  0  0  0  0  0  0  0  0  0  0  0
    9.3983  -16.4537   23.8175 N   0  0  0  0  0  0  0  0  0  0  0  0
    9.8642  -16.7159   25.1964 C   0  0  1  0  0  0  0  0  0  0  0  0
    8.6533  -16.9098   26.0402 C   0  0  0  0  0  0  0  0  0  0  0  0
    7.6678  -15.8222   26.0537 C   0  0  0  0  0  0  0  0  0  0  0  0
    6.3563  -15.9403   25.6073 C   0  0  0  0  0  0  0  0  0  0  0  0
    5.7249  -14.7620   25.7277 N   0  0  0  0  0  0  0  0  0  0  0  0
    6.6154  -13.8775   26.2499 C   0  0  0  0  0  0  0  0  0  0  0  0
    6.4511  -12.5391   26.5761 C   0  0  0  0  0  0  0  0  0  0  0  0
    7.5012  -11.8381   27.1146 C   0  0  0  0  0  0  0  0  0  0  0  0
    8.7074  -12.4898   27.3202 C   0  0  0  0  0  0  0  0  0  0  0  0
    8.8795  -13.8000   27.0039 C   0  0  0  0  0  0  0  0  0  0  0  0
    7.8124  -14.5125   26.4560 C   0  0  0  0  0  0  0  0  0  0  0  0
   10.8871  -17.7462   25.2289 C   0  0  0  0  0  0  0  0  0  0  0  0
   11.5811  -18.0817   26.3779 O   0  0  0  0  0  0  0  0  0  0  0  0
   11.2260  -18.4188   24.1913 O   0  0  0  0  0  0  0  0  0  0  0  0
  1  2  1  0
  2  4  1  0
  2  3  2  0
  4  5  1  0
  5  6  1  6
  7  8  2  0
  7  5  1  0
 10  9  1  6
 10 12  1  0
 11 10  1  0
 13 12  1  1
 13 14  1  0
 14  7  1  0
 15 13  1  0
 16 15  2  0
 17 15  1  0
 18 29  1  0
 18 17  1  0
 18 19  1  1
 20 19  1  0
 21 20  2  0
 22 21  1  0
 23 22  1  0
 23 28  2  0
 24 25  2  0
 24 23  1  0
 25 26  1  0
 26 27  2  0
 28 27  1  0
 28 20  1  0
 29 30  1  0
 31 29  2  0
M  END
$$$$
