NLW.pdb
     RDKit          3D

 31 32  0  0  1  0  0  0  0  0999 V2000
   11.0913  -20.4787   18.6001 N   0  0  0  0  0  0  0  0  0  0  0  0
   11.2768  -19.2601   17.9096 C   0  0  0  0  0  0  0  0  0  0  0  0
   11.7320  -19.2194   16.7248 O   0  0  0  0  0  0  0  0  0  0  0  0
   10.9508  -17.9460   18.5254 C   0  0  0  0  0  0  0  0  0  0  0  0
   10.4907  -18.1520   19.9610 C   0  0  2  0  0  0  0  0  0  0  0  0
    9.2453  -18.8668   20.0180 N   0  0  0  0  0  0  0  0  0  0  0  0
   10.4327  -16.8506   20.6655 C   0  0  0  0  0  0  0  0  0  0  0  0
   11.4491  -16.1119   20.7386 O   0  0  0  0  0  0  0  0  0  0  0  0
    8.4806  -13.0786   19.6936 C   0  0  0  0  0  0  0  0  0  0  0  0
    7.5840  -14.2079   20.1938 C   0  0  2  0  0  0  0  0  0  0  0  0
    6.1556  -13.8275   19.9131 C   0  0  0  0  0  0  0  0  0  0  0  0
    7.8063  -14.4645   21.6588 C   0  0  0  0  0  0  0  0  0  0  0  0
    9.1443  -15.0500   21.8916 C   0  0  2  0  0  0  0  0  0  0  0  0
    9.2565  -16.3844   21.2778 N   0  0  0  0  0  0  0  0  0  0  0  0
    9.5940  -15.1994   23.2701 C   0  0  0  0  0  0  0  0  0  0  0  0
   10.1203  -14.2363   23.8665 O   0  0  0  0  0  0  0  0  0  0  0  0
    9.4747  -16.4076   24.0186 N   0  0  0  0  0  0  0  0  0  0  0  0
    9.9630  -16.5058   25.4111 C   0  0  1  0  0  0  0  0  0  0  0  0
    8.7737  -16.7208   26.2800 C   0  0  0  0  0  0  0  0  0  0  0  0
    7.6791  -15.7498   26.1658 C   0  0  0  0  0  0  0  0  0  0  0  0
    6.3942  -16.0566   25.7317 C   0  0  0  0  0  0  0  0  0  0  0  0
    5.6405  -14.9461   25.7145 N   0  0  0  0  0  0  0  0  0  0  0  0
    6.4248  -13.9184   26.1349 C   0  0  0  0  0  0  0  0  0  0  0  0
    6.1156  -12.5767   26.3052 C   0  0  0  0  0  0  0  0  0  0  0  0
    7.0776  -11.7114   26.7632 C   0  0  0  0  0  0  0  0  0  0  0  0
    8.3425  -12.2036   27.0458 C   0  0  0  0  0  0  0  0  0  0  0  0
    8.6564  -13.5155   26.8821 C   0  0  0  0  0  0  0  0  0  0  0  0
    7.6787  -14.3949   26.4161 C   0  0  0  0  0  0  0  0  0  0  0  0
   11.0670  -17.4423   25.5263 C   0  0  0  0  0  0  0  0  0  0  0  0
   11.5236  -18.2017   24.4636 O   0  0  0  0  0  0  0  0  0  0  0  0
   11.6977  -17.6376   26.6252 O   0  0  0  0  0  0  0  0  0  0  0  0
  1  2  1  0
  2  4  1  0
  2  3  2  0
  4  5  1  0
  5  6  1  6
  7  8  2  0
  7  5  1  0
 10  9  1  1
 10 12  1  0
 11 10  1  0
 13 12  1  1
 13 14  1  0
 14  7  1  0
 15 13  1  0
 16 15  2  0
 17 15  1  0
 18 29  1  0
 18 17  1  0
 18 19  1  1
 20 19  1  0
 21 20  2  0
 22 21  1  0
 23 22  1  0
 23 28  2  0
 24 25  2  0
 24 23  1  0
 25 26  1  0
 26 27  2  0
 28 27  1  0
 28 20  1  0
 29 30  1  0
 31 29  2  0
M  END
$$$$
