NLW.pdb
     RDKit          3D

 31 32  0  0  1  0  0  0  0  0999 V2000
   11.0458  -19.8574   18.0566 N   0  0  0  0  0  0  0  0  0  0  0  0
   11.0358  -18.6401   17.3397 C   0  0  0  0  0  0  0  0  0  0  0  0
   11.2482  -18.5930   16.0886 O   0  0  0  0  0  0  0  0  0  0  0  0
   10.7756  -17.3347   18.0036 C   0  0  0  0  0  0  0  0  0  0  0  0
   10.6346  -17.5414   19.5045 C   0  0  2  0  0  0  0  0  0  0  0  0
    9.4493  -18.2883   19.8246 N   0  0  0  0  0  0  0  0  0  0  0  0
   10.6909  -16.2364   20.2025 C   0  0  0  0  0  0  0  0  0  0  0  0
   11.6903  -15.4818   20.0776 O   0  0  0  0  0  0  0  0  0  0  0  0
    8.9350  -12.6467   19.1489 C   0  0  0  0  0  0  0  0  0  0  0  0
    8.0758  -13.7175   19.8156 C   0  0  2  0  0  0  0  0  0  0  0  0
    6.6345  -13.4185   19.5041 C   0  0  0  0  0  0  0  0  0  0  0  0
    8.3200  -13.7588   21.2988 C   0  0  0  0  0  0  0  0  0  0  0  0
    9.6037  -14.4284   21.6006 C   0  0  2  0  0  0  0  0  0  0  0  0
    9.6456  -15.7844   21.0264 N   0  0  0  0  0  0  0  0  0  0  0  0
    9.9884  -14.5692   22.9995 C   0  0  0  0  0  0  0  0  0  0  0  0
    9.9010  -13.5943   23.7756 O   0  0  0  0  0  0  0  0  0  0  0  0
   10.4757  -15.7812   23.5718 N   0  0  0  0  0  0  0  0  0  0  0  0
    9.8298  -16.3928   24.7533 C   0  0  1  0  0  0  0  0  0  0  0  0
    8.3765  -16.5050   24.4510 C   0  0  0  0  0  0  0  0  0  0  0  0
    7.4564  -15.7446   25.3049 C   0  0  0  0  0  0  0  0  0  0  0  0
    6.3646  -16.2906   25.9708 C   0  0  0  0  0  0  0  0  0  0  0  0
    5.7114  -15.3293   26.6420 N   0  0  0  0  0  0  0  0  0  0  0  0
    6.3700  -14.1612   26.4189 C   0  0  0  0  0  0  0  0  0  0  0  0
    6.1042  -12.8860   26.8961 C   0  0  0  0  0  0  0  0  0  0  0  0
    6.9276  -11.8450   26.5462 C   0  0  0  0  0  0  0  0  0  0  0  0
    8.0113  -12.0962   25.7188 C   0  0  0  0  0  0  0  0  0  0  0  0
    8.2807  -13.3410   25.2451 C   0  0  0  0  0  0  0  0  0  0  0  0
    7.4434  -14.3990   25.6004 C   0  0  0  0  0  0  0  0  0  0  0  0
   10.5284  -17.5904   25.1853 C   0  0  0  0  0  0  0  0  0  0  0  0
   11.4765  -18.2305   24.4070 O   0  0  0  0  0  0  0  0  0  0  0  0
   10.3136  -18.1461   26.3205 O   0  0  0  0  0  0  0  0  0  0  0  0
  1  2  1  0
  2  4  1  0
  2  3  2  0
  4  5  1  0
  5  6  1  6
  7  8  2  0
  7  5  1  0
 10  9  1  6
 10 12  1  0
 11 10  1  0
 13 12  1  1
 13 14  1  0
 14  7  1  0
 15 13  1  0
 16 15  2  0
 17 15  1  0
 18 29  1  0
 18 17  1  0
 18 19  1  6
 20 19  1  0
 21 20  2  0
 22 21  1  0
 23 22  1  0
 23 28  2  0
 24 25  2  0
 24 23  1  0
 25 26  1  0
 26 27  2  0
 28 27  1  0
 28 20  1  0
 29 30  1  0
 31 29  2  0
M  END
$$$$
