NLW.pdb
     RDKit          3D

 31 32  0  0  1  0  0  0  0  0999 V2000
    8.1730  -19.6325   17.9186 N   0  0  0  0  0  0  0  0  0  0  0  0
    9.4013  -19.6872   18.6146 C   0  0  0  0  0  0  0  0  0  0  0  0
   10.3783  -20.3866   18.2036 O   0  0  0  0  0  0  0  0  0  0  0  0
    9.6298  -18.9291   19.8738 C   0  0  0  0  0  0  0  0  0  0  0  0
    9.1273  -17.5020   19.7120 C   0  0  2  0  0  0  0  0  0  0  0  0
    9.7086  -16.8656   18.5621 N   0  0  0  0  0  0  0  0  0  0  0  0
    9.3569  -16.7401   20.9611 C   0  0  0  0  0  0  0  0  0  0  0  0
   10.4876  -16.2512   21.2186 O   0  0  0  0  0  0  0  0  0  0  0  0
    6.2121  -14.3469   25.7645 C   0  0  0  0  0  0  0  0  0  0  0  0
    7.5011  -14.4854   24.9591 C   0  0  2  0  0  0  0  0  0  0  0  0
    8.0082  -13.1028   24.6505 C   0  0  0  0  0  0  0  0  0  0  0  0
    7.2695  -15.2785   23.7026 C   0  0  0  0  0  0  0  0  0  0  0  0
    8.5473  -15.7926   23.1639 C   0  0  2  0  0  0  0  0  0  0  0  0
    8.3375  -16.5295   21.9057 N   0  0  0  0  0  0  0  0  0  0  0  0
    9.3460  -16.6652   24.0157 C   0  0  0  0  0  0  0  0  0  0  0  0
    8.9433  -17.8156   24.2888 O   0  0  0  0  0  0  0  0  0  0  0  0
   10.6000  -16.2915   24.5830 N   0  0  0  0  0  0  0  0  0  0  0  0
   11.4065  -17.2466   25.3731 C   0  0  1  0  0  0  0  0  0  0  0  0
   12.1956  -16.4507   26.3527 C   0  0  0  0  0  0  0  0  0  0  0  0
   11.5692  -16.1801   27.6521 C   0  0  0  0  0  0  0  0  0  0  0  0
   11.5932  -17.0506   28.7362 C   0  0  0  0  0  0  0  0  0  0  0  0
   10.9078  -16.5217   29.7619 N   0  0  0  0  0  0  0  0  0  0  0  0
   10.4382  -15.3130   29.3541 C   0  0  0  0  0  0  0  0  0  0  0  0
    9.6871  -14.3726   30.0443 C   0  0  0  0  0  0  0  0  0  0  0  0
    9.3363  -13.1982   29.4267 C   0  0  0  0  0  0  0  0  0  0  0  0
    9.7441  -12.9800   28.1197 C   0  0  0  0  0  0  0  0  0  0  0  0
   10.4794  -13.8942   27.4341 C   0  0  0  0  0  0  0  0  0  0  0  0
   10.8355  -15.0883   28.0618 C   0  0  0  0  0  0  0  0  0  0  0  0
   10.5960  -18.3393   25.8812 C   0  0  0  0  0  0  0  0  0  0  0  0
   11.1207  -19.5780   26.2050 O   0  0  0  0  0  0  0  0  0  0  0  0
    9.3310  -18.2371   26.0629 O   0  0  0  0  0  0  0  0  0  0  0  0
  1  2  1  0
  2  4  1  0
  2  3  2  0
  4  5  1  0
  5  6  1  6
  7  8  2  0
  7  5  1  0
 10  9  1  6
 10 12  1  0
 11 10  1  0
 13 12  1  1
 13 14  1  0
 14  7  1  0
 15 13  1  0
 16 15  2  0
 17 15  1  0
 18 29  1  0
 18 17  1  0
 18 19  1  1
 20 19  1  0
 21 20  2  0
 22 21  1  0
 23 22  1  0
 23 28  2  0
 24 25  2  0
 24 23  1  0
 25 26  1  0
 26 27  2  0
 28 27  1  0
 28 20  1  0
 29 30  1  0
 31 29  2  0
M  END
$$$$
