NLW.pdb
     RDKit          3D

 31 32  0  0  1  0  0  0  0  0999 V2000
    8.0170  -20.7000   18.1449 N   0  0  0  0  0  0  0  0  0  0  0  0
    8.9808  -20.8679   19.1641 C   0  0  0  0  0  0  0  0  0  0  0  0
    9.4418  -22.0098   19.4743 O   0  0  0  0  0  0  0  0  0  0  0  0
    9.5183  -19.7182   19.9397 C   0  0  0  0  0  0  0  0  0  0  0  0
    8.8075  -18.4396   19.5213 C   0  0  2  0  0  0  0  0  0  0  0  0
    8.7504  -18.3122   18.0910 N   0  0  0  0  0  0  0  0  0  0  0  0
    9.4434  -17.2709   20.1719 C   0  0  0  0  0  0  0  0  0  0  0  0
   10.6508  -16.9905   19.9541 O   0  0  0  0  0  0  0  0  0  0  0  0
    7.3461  -12.1018   20.4987 C   0  0  0  0  0  0  0  0  0  0  0  0
    8.4149  -13.1908   20.4660 C   0  0  2  0  0  0  0  0  0  0  0  0
    8.2791  -13.9377   19.1669 C   0  0  0  0  0  0  0  0  0  0  0  0
    8.2814  -14.1132   21.6462 C   0  0  0  0  0  0  0  0  0  0  0  0
    9.3020  -15.1823   21.5942 C   0  0  2  0  0  0  0  0  0  0  0  0
    8.7391  -16.4308   21.0515 N   0  0  0  0  0  0  0  0  0  0  0  0
    9.9730  -15.5470   22.8359 C   0  0  0  0  0  0  0  0  0  0  0  0
   10.6525  -14.7007   23.4540 O   0  0  0  0  0  0  0  0  0  0  0  0
    9.9107  -16.8461   23.4212 N   0  0  0  0  0  0  0  0  0  0  0  0
    9.5867  -17.0348   24.8517 C   0  0  1  0  0  0  0  0  0  0  0  0
    8.3172  -16.3035   25.1152 C   0  0  0  0  0  0  0  0  0  0  0  0
    8.3855  -15.1534   26.0244 C   0  0  0  0  0  0  0  0  0  0  0  0
    9.4012  -14.9381   26.9493 C   0  0  0  0  0  0  0  0  0  0  0  0
    9.1563  -13.8159   27.6437 N   0  0  0  0  0  0  0  0  0  0  0  0
    7.9889  -13.2984   27.1774 C   0  0  0  0  0  0  0  0  0  0  0  0
    7.3141  -12.1465   27.5549 C   0  0  0  0  0  0  0  0  0  0  0  0
    6.1428  -11.8087   26.9241 C   0  0  0  0  0  0  0  0  0  0  0  0
    5.6605  -12.6329   25.9191 C   0  0  0  0  0  0  0  0  0  0  0  0
    6.3129  -13.7635   25.5418 C   0  0  0  0  0  0  0  0  0  0  0  0
    7.5032  -14.1072   26.1833 C   0  0  0  0  0  0  0  0  0  0  0  0
    9.6577  -18.4333   25.2367 C   0  0  0  0  0  0  0  0  0  0  0  0
   10.0652  -18.8484   26.4921 O   0  0  0  0  0  0  0  0  0  0  0  0
    9.3518  -19.3881   24.4376 O   0  0  0  0  0  0  0  0  0  0  0  0
  1  2  1  0
  2  4  1  0
  2  3  2  0
  4  5  1  0
  5  6  1  6
  7  8  2  0
  7  5  1  0
 10  9  1  1
 10 12  1  0
 11 10  1  0
 13 12  1  1
 13 14  1  0
 14  7  1  0
 15 13  1  0
 16 15  2  0
 17 15  1  0
 18 29  1  0
 18 17  1  0
 18 19  1  6
 20 19  1  0
 21 20  2  0
 22 21  1  0
 23 22  1  0
 23 28  2  0
 24 25  2  0
 24 23  1  0
 25 26  1  0
 26 27  2  0
 28 27  1  0
 28 20  1  0
 29 30  1  0
 31 29  2  0
M  END
$$$$
