NLW.pdb
     RDKit          3D

 31 32  0  0  1  0  0  0  0  0999 V2000
    9.5630  -21.5639   19.2988 N   0  0  0  0  0  0  0  0  0  0  0  0
    9.1725  -20.9232   20.4959 C   0  0  0  0  0  0  0  0  0  0  0  0
    8.2737  -21.4022   21.2544 O   0  0  0  0  0  0  0  0  0  0  0  0
    9.7888  -19.6463   20.9454 C   0  0  0  0  0  0  0  0  0  0  0  0
    9.3561  -18.5153   20.0241 C   0  0  2  0  0  0  0  0  0  0  0  0
    9.8815  -18.6858   18.6974 N   0  0  0  0  0  0  0  0  0  0  0  0
    9.7241  -17.2096   20.6185 C   0  0  0  0  0  0  0  0  0  0  0  0
   10.9089  -16.7885   20.5648 O   0  0  0  0  0  0  0  0  0  0  0  0
    8.6899  -13.1889   19.3688 C   0  0  0  0  0  0  0  0  0  0  0  0
    7.6405  -14.0032   20.1206 C   0  0  2  0  0  0  0  0  0  0  0  0
    6.3045  -13.3415   19.9176 C   0  0  0  0  0  0  0  0  0  0  0  0
    7.9844  -14.1097   21.5806 C   0  0  0  0  0  0  0  0  0  0  0  0
    9.1051  -15.0522   21.7880 C   0  0  2  0  0  0  0  0  0  0  0  0
    8.7812  -16.3896   21.2621 N   0  0  0  0  0  0  0  0  0  0  0  0
    9.5818  -15.2575   23.1502 C   0  0  0  0  0  0  0  0  0  0  0  0
   10.1897  -14.3438   23.7467 O   0  0  0  0  0  0  0  0  0  0  0  0
    9.4004  -16.4682   23.8819 N   0  0  0  0  0  0  0  0  0  0  0  0
    9.8750  -16.6077   25.2756 C   0  0  1  0  0  0  0  0  0  0  0  0
    8.6731  -16.8032   26.1318 C   0  0  0  0  0  0  0  0  0  0  0  0
    7.6206  -15.7837   26.0479 C   0  0  0  0  0  0  0  0  0  0  0  0
    6.3336  -16.0154   25.5754 C   0  0  0  0  0  0  0  0  0  0  0  0
    5.6252  -14.8756   25.6017 N   0  0  0  0  0  0  0  0  0  0  0  0
    6.4412  -13.9034   26.0884 C   0  0  0  0  0  0  0  0  0  0  0  0
    6.1825  -12.5606   26.3217 C   0  0  0  0  0  0  0  0  0  0  0  0
    7.1688  -11.7595   26.8409 C   0  0  0  0  0  0  0  0  0  0  0  0
    8.4071  -12.3166   27.1207 C   0  0  0  0  0  0  0  0  0  0  0  0
    8.6717  -13.6303   26.8955 C   0  0  0  0  0  0  0  0  0  0  0  0
    7.6693  -14.4444   26.3673 C   0  0  0  0  0  0  0  0  0  0  0  0
   10.9493  -17.5792   25.3804 C   0  0  0  0  0  0  0  0  0  0  0  0
   11.7025  -17.7472   26.5289 O   0  0  0  0  0  0  0  0  0  0  0  0
   11.2822  -18.3510   24.4123 O   0  0  0  0  0  0  0  0  0  0  0  0
  1  2  1  0
  2  4  1  0
  2  3  2  0
  4  5  1  0
  5  6  1  6
  7  8  2  0
  7  5  1  0
 10  9  1  6
 10 12  1  0
 11 10  1  0
 13 12  1  1
 13 14  1  0
 14  7  1  0
 15 13  1  0
 16 15  2  0
 17 15  1  0
 18 29  1  0
 18 17  1  0
 18 19  1  1
 20 19  1  0
 21 20  2  0
 22 21  1  0
 23 22  1  0
 23 28  2  0
 24 25  2  0
 24 23  1  0
 25 26  1  0
 26 27  2  0
 28 27  1  0
 28 20  1  0
 29 30  1  0
 31 29  2  0
M  END
$$$$
