NLW.pdb
     RDKit          3D

 31 32  0  0  1  0  0  0  0  0999 V2000
    6.8125  -21.0051   19.3467 N   0  0  0  0  0  0  0  0  0  0  0  0
    7.3185  -20.1447   18.3468 C   0  0  0  0  0  0  0  0  0  0  0  0
    7.1322  -20.3655   17.1102 O   0  0  0  0  0  0  0  0  0  0  0  0
    8.1021  -18.9245   18.6776 C   0  0  0  0  0  0  0  0  0  0  0  0
    8.3539  -18.8671   20.1771 C   0  0  2  0  0  0  0  0  0  0  0  0
    7.1227  -18.8442   20.9179 N   0  0  0  0  0  0  0  0  0  0  0  0
    9.2332  -17.7197   20.4990 C   0  0  0  0  0  0  0  0  0  0  0  0
   10.3728  -17.6147   19.9752 O   0  0  0  0  0  0  0  0  0  0  0  0
    6.6527  -14.6993   20.8545 C   0  0  0  0  0  0  0  0  0  0  0  0
    7.7319  -14.0502   21.7168 C   0  0  2  0  0  0  0  0  0  0  0  0
    7.4322  -12.5786   21.8083 C   0  0  0  0  0  0  0  0  0  0  0  0
    9.1005  -14.2974   21.1447 C   0  0  0  0  0  0  0  0  0  0  0  0
    9.6846  -15.5378   21.6994 C   0  0  2  0  0  0  0  0  0  0  0  0
    8.8429  -16.7071   21.3925 N   0  0  0  0  0  0  0  0  0  0  0  0
    9.9421  -15.5897   23.1333 C   0  0  0  0  0  0  0  0  0  0  0  0
   10.6159  -14.6929   23.6828 O   0  0  0  0  0  0  0  0  0  0  0  0
    9.4654  -16.6259   23.9895 N   0  0  0  0  0  0  0  0  0  0  0  0
    9.9406  -16.7565   25.3838 C   0  0  1  0  0  0  0  0  0  0  0  0
    8.7352  -16.8471   26.2525 C   0  0  0  0  0  0  0  0  0  0  0  0
    7.7097  -15.8112   26.0816 C   0  0  0  0  0  0  0  0  0  0  0  0
    6.4334  -16.0397   25.5792 C   0  0  0  0  0  0  0  0  0  0  0  0
    5.7510  -14.8853   25.5234 N   0  0  0  0  0  0  0  0  0  0  0  0
    6.5731  -13.9066   25.9865 C   0  0  0  0  0  0  0  0  0  0  0  0
    6.3378  -12.5483   26.1419 C   0  0  0  0  0  0  0  0  0  0  0  0
    7.3252  -11.7425   26.6518 C   0  0  0  0  0  0  0  0  0  0  0  0
    8.5408  -12.3105   27.0007 C   0  0  0  0  0  0  0  0  0  0  0  0
    8.7822  -13.6394   26.8521 C   0  0  0  0  0  0  0  0  0  0  0  0
    7.7788  -14.4584   26.3334 C   0  0  0  0  0  0  0  0  0  0  0  0
   10.9491  -17.7937   25.5106 C   0  0  0  0  0  0  0  0  0  0  0  0
   11.6265  -18.0444   26.6908 O   0  0  0  0  0  0  0  0  0  0  0  0
   11.2896  -18.5517   24.5343 O   0  0  0  0  0  0  0  0  0  0  0  0
  1  2  1  0
  2  4  1  0
  2  3  2  0
  4  5  1  0
  5  6  1  1
  7  8  2  0
  7  5  1  0
 10  9  1  6
 10 12  1  0
 11 10  1  0
 13 12  1  1
 13 14  1  0
 14  7  1  0
 15 13  1  0
 16 15  2  0
 17 15  1  0
 18 29  1  0
 18 17  1  0
 18 19  1  1
 20 19  1  0
 21 20  2  0
 22 21  1  0
 23 22  1  0
 23 28  2  0
 24 25  2  0
 24 23  1  0
 25 26  1  0
 26 27  2  0
 28 27  1  0
 28 20  1  0
 29 30  1  0
 31 29  2  0
M  END
$$$$
