NLW.pdb
     RDKit          3D

 31 32  0  0  1  0  0  0  0  0999 V2000
    8.9959  -21.0846   17.1001 N   0  0  0  0  0  0  0  0  0  0  0  0
   10.1217  -20.6194   17.8158 C   0  0  0  0  0  0  0  0  0  0  0  0
   11.0742  -21.3903   18.1489 O   0  0  0  0  0  0  0  0  0  0  0  0
   10.2643  -19.1966   18.2253 C   0  0  0  0  0  0  0  0  0  0  0  0
   10.0806  -19.0750   19.7309 C   0  0  2  0  0  0  0  0  0  0  0  0
    8.9107  -19.7799   20.1778 N   0  0  0  0  0  0  0  0  0  0  0  0
   10.0704  -17.6476   20.1257 C   0  0  0  0  0  0  0  0  0  0  0  0
   11.0413  -16.8960   19.8494 O   0  0  0  0  0  0  0  0  0  0  0  0
    6.1747  -13.0778   21.4467 C   0  0  0  0  0  0  0  0  0  0  0  0
    7.6019  -13.6098   21.3497 C   0  0  2  0  0  0  0  0  0  0  0  0
    8.3307  -12.8010   20.3112 C   0  0  0  0  0  0  0  0  0  0  0  0
    7.6095  -15.0747   21.0098 C   0  0  0  0  0  0  0  0  0  0  0  0
    8.9551  -15.6534   21.2142 C   0  0  2  0  0  0  0  0  0  0  0  0
    8.9912  -17.0719   20.8183 N   0  0  0  0  0  0  0  0  0  0  0  0
    9.5290  -15.5920   22.5528 C   0  0  0  0  0  0  0  0  0  0  0  0
   10.2216  -14.6102   22.8943 O   0  0  0  0  0  0  0  0  0  0  0  0
    9.3536  -16.6062   23.5401 N   0  0  0  0  0  0  0  0  0  0  0  0
   10.0119  -16.5207   24.8616 C   0  0  1  0  0  0  0  0  0  0  0  0
    8.9517  -16.6902   25.8927 C   0  0  0  0  0  0  0  0  0  0  0  0
    7.8068  -15.7740   25.8299 C   0  0  0  0  0  0  0  0  0  0  0  0
    6.5524  -16.1116   25.3340 C   0  0  0  0  0  0  0  0  0  0  0  0
    5.7374  -15.0466   25.3895 N   0  0  0  0  0  0  0  0  0  0  0  0
    6.4515  -14.0180   25.9186 C   0  0  0  0  0  0  0  0  0  0  0  0
    6.0625  -12.7150   26.1935 C   0  0  0  0  0  0  0  0  0  0  0  0
    6.9624  -11.8415   26.7514 C   0  0  0  0  0  0  0  0  0  0  0  0
    8.2459  -12.2866   27.0277 C   0  0  0  0  0  0  0  0  0  0  0  0
    8.6378  -13.5603   26.7621 C   0  0  0  0  0  0  0  0  0  0  0  0
    7.7233  -14.4480   26.1945 C   0  0  0  0  0  0  0  0  0  0  0  0
   11.1767  -17.3848   24.9363 C   0  0  0  0  0  0  0  0  0  0  0  0
   12.0070  -17.4347   26.0420 O   0  0  0  0  0  0  0  0  0  0  0  0
   11.5243  -18.1631   23.9786 O   0  0  0  0  0  0  0  0  0  0  0  0
  1  2  1  0
  2  4  1  0
  2  3  2  0
  4  5  1  0
  5  6  1  6
  7  8  2  0
  7  5  1  0
 10  9  1  6
 10 12  1  0
 11 10  1  0
 13 12  1  1
 13 14  1  0
 14  7  1  0
 15 13  1  0
 16 15  2  0
 17 15  1  0
 18 29  1  0
 18 17  1  0
 18 19  1  1
 20 19  1  0
 21 20  2  0
 22 21  1  0
 23 22  1  0
 23 28  2  0
 24 25  2  0
 24 23  1  0
 25 26  1  0
 26 27  2  0
 28 27  1  0
 28 20  1  0
 29 30  1  0
 31 29  2  0
M  END
$$$$
