NLW.pdb
     RDKit          3D

 31 32  0  0  1  0  0  0  0  0999 V2000
   12.0327  -21.4856   19.1392 N   0  0  0  0  0  0  0  0  0  0  0  0
   10.9509  -20.6316   19.4500 C   0  0  0  0  0  0  0  0  0  0  0  0
    9.7873  -20.8184   18.9770 O   0  0  0  0  0  0  0  0  0  0  0  0
   11.1046  -19.4586   20.3516 C   0  0  0  0  0  0  0  0  0  0  0  0
   10.7539  -18.1835   19.5992 C   0  0  2  0  0  0  0  0  0  0  0  0
   11.7048  -17.9077   18.5576 N   0  0  0  0  0  0  0  0  0  0  0  0
   10.6097  -17.0578   20.5508 C   0  0  0  0  0  0  0  0  0  0  0  0
   11.6074  -16.3704   20.8912 O   0  0  0  0  0  0  0  0  0  0  0  0
    8.8455  -13.0333   20.4526 C   0  0  0  0  0  0  0  0  0  0  0  0
    7.8791  -14.2142   20.4816 C   0  0  2  0  0  0  0  0  0  0  0  0
    6.5045  -13.6991   20.1512 C   0  0  0  0  0  0  0  0  0  0  0  0
    7.9022  -14.8973   21.8211 C   0  0  0  0  0  0  0  0  0  0  0  0
    9.1969  -15.5778   22.0404 C   0  0  2  0  0  0  0  0  0  0  0  0
    9.3691  -16.7082   21.1116 N   0  0  0  0  0  0  0  0  0  0  0  0
    9.4763  -16.1017   23.3717 C   0  0  0  0  0  0  0  0  0  0  0  0
    9.0827  -17.2429   23.6925 O   0  0  0  0  0  0  0  0  0  0  0  0
   10.1920  -15.3832   24.3745 N   0  0  0  0  0  0  0  0  0  0  0  0
   10.3893  -15.9383   25.7310 C   0  0  1  0  0  0  0  0  0  0  0  0
    9.7036  -15.0236   26.6844 C   0  0  0  0  0  0  0  0  0  0  0  0
    8.2707  -14.7887   26.4709 C   0  0  0  0  0  0  0  0  0  0  0  0
    7.3611  -15.7643   26.0782 C   0  0  0  0  0  0  0  0  0  0  0  0
    6.1401  -15.2232   25.9445 N   0  0  0  0  0  0  0  0  0  0  0  0
    6.2476  -13.9025   26.2478 C   0  0  0  0  0  0  0  0  0  0  0  0
    5.2739  -12.9146   26.2735 C   0  0  0  0  0  0  0  0  0  0  0  0
    5.6154  -11.6341   26.6310 C   0  0  0  0  0  0  0  0  0  0  0  0
    6.9339  -11.3588   26.9595 C   0  0  0  0  0  0  0  0  0  0  0  0
    7.8957  -12.3184   26.9371 C   0  0  0  0  0  0  0  0  0  0  0  0
    7.5486  -13.6197   26.5732 C   0  0  0  0  0  0  0  0  0  0  0  0
   10.0555  -17.3506   25.7851 C   0  0  0  0  0  0  0  0  0  0  0  0
    9.4900  -18.0315   24.7216 O   0  0  0  0  0  0  0  0  0  0  0  0
   10.2567  -18.0705   26.8268 O   0  0  0  0  0  0  0  0  0  0  0  0
  1  2  1  0
  2  4  1  0
  2  3  2  0
  4  5  1  0
  5  6  1  6
  7  8  2  0
  7  5  1  0
 10  9  1  1
 10 12  1  0
 11 10  1  0
 13 12  1  1
 13 14  1  0
 14  7  1  0
 15 13  1  0
 16 15  2  0
 17 15  1  0
 18 29  1  0
 18 17  1  0
 18 19  1  1
 20 19  1  0
 21 20  2  0
 22 21  1  0
 23 22  1  0
 23 28  2  0
 24 25  2  0
 24 23  1  0
 25 26  1  0
 26 27  2  0
 28 27  1  0
 28 20  1  0
 29 30  1  0
 31 29  2  0
M  END
$$$$
