NLW.pdb
     RDKit          3D

 31 32  0  0  1  0  0  0  0  0999 V2000
    9.1067  -19.9963   18.4507 N   0  0  0  0  0  0  0  0  0  0  0  0
   10.0232  -19.1088   17.8437 C   0  0  0  0  0  0  0  0  0  0  0  0
   10.2573  -19.1310   16.5958 O   0  0  0  0  0  0  0  0  0  0  0  0
   10.7731  -18.0906   18.6270 C   0  0  0  0  0  0  0  0  0  0  0  0
   10.3828  -18.1824   20.0948 C   0  0  2  0  0  0  0  0  0  0  0  0
    9.1414  -18.8857   20.2671 N   0  0  0  0  0  0  0  0  0  0  0  0
   10.3591  -16.8299   20.6977 C   0  0  0  0  0  0  0  0  0  0  0  0
   11.4042  -16.1308   20.7524 O   0  0  0  0  0  0  0  0  0  0  0  0
    8.6295  -13.2143   19.3946 C   0  0  0  0  0  0  0  0  0  0  0  0
    7.6537  -14.1817   20.0588 C   0  0  2  0  0  0  0  0  0  0  0  0
    6.2559  -13.7317   19.7307 C   0  0  0  0  0  0  0  0  0  0  0  0
    7.8777  -14.2386   21.5447 C   0  0  0  0  0  0  0  0  0  0  0  0
    9.1426  -14.9380   21.8580 C   0  0  2  0  0  0  0  0  0  0  0  0
    9.1850  -16.2700   21.2302 N   0  0  0  0  0  0  0  0  0  0  0  0
    9.4816  -15.1409   23.2612 C   0  0  0  0  0  0  0  0  0  0  0  0
    9.8059  -14.1688   23.9754 O   0  0  0  0  0  0  0  0  0  0  0  0
    9.4710  -16.4132   23.9055 N   0  0  0  0  0  0  0  0  0  0  0  0
    9.8211  -16.5588   25.3350 C   0  0  1  0  0  0  0  0  0  0  0  0
    8.5582  -16.8423   26.0702 C   0  0  0  0  0  0  0  0  0  0  0  0
    7.5090  -15.8174   26.0150 C   0  0  0  0  0  0  0  0  0  0  0  0
    6.2385  -16.0166   25.4863 C   0  0  0  0  0  0  0  0  0  0  0  0
    5.5296  -14.8793   25.5599 N   0  0  0  0  0  0  0  0  0  0  0  0
    6.3288  -13.9409   26.1332 C   0  0  0  0  0  0  0  0  0  0  0  0
    6.0622  -12.6147   26.4411 C   0  0  0  0  0  0  0  0  0  0  0  0
    7.0306  -11.8496   27.0417 C   0  0  0  0  0  0  0  0  0  0  0  0
    8.2589  -12.4255   27.3274 C   0  0  0  0  0  0  0  0  0  0  0  0
    8.5310  -13.7231   27.0298 C   0  0  0  0  0  0  0  0  0  0  0  0
    7.5469  -14.5007   26.4187 C   0  0  0  0  0  0  0  0  0  0  0  0
   10.9359  -17.4702   25.5228 C   0  0  0  0  0  0  0  0  0  0  0  0
   11.5944  -17.6147   26.7311 O   0  0  0  0  0  0  0  0  0  0  0  0
   11.3957  -18.2060   24.5789 O   0  0  0  0  0  0  0  0  0  0  0  0
  1  2  1  0
  2  4  1  0
  2  3  2  0
  4  5  1  0
  5  6  1  6
  7  8  2  0
  7  5  1  0
 10  9  1  6
 10 12  1  0
 11 10  1  0
 13 12  1  1
 13 14  1  0
 14  7  1  0
 15 13  1  0
 16 15  2  0
 17 15  1  0
 18 29  1  0
 18 17  1  0
 18 19  1  1
 20 19  1  0
 21 20  2  0
 22 21  1  0
 23 22  1  0
 23 28  2  0
 24 25  2  0
 24 23  1  0
 25 26  1  0
 26 27  2  0
 28 27  1  0
 28 20  1  0
 29 30  1  0
 31 29  2  0
M  END
$$$$
