NLW.pdb
     RDKit          3D

 31 32  0  0  1  0  0  0  0  0999 V2000
    8.5401  -20.9899   18.8134 N   0  0  0  0  0  0  0  0  0  0  0  0
    9.2586  -20.0690   18.0186 C   0  0  0  0  0  0  0  0  0  0  0  0
    9.5413  -20.3047   16.8032 O   0  0  0  0  0  0  0  0  0  0  0  0
    9.7301  -18.7637   18.5536 C   0  0  0  0  0  0  0  0  0  0  0  0
    9.3453  -18.6412   20.0206 C   0  0  2  0  0  0  0  0  0  0  0  0
    7.9246  -18.7551   20.2042 N   0  0  0  0  0  0  0  0  0  0  0  0
    9.8932  -17.3860   20.5843 C   0  0  0  0  0  0  0  0  0  0  0  0
   11.1230  -17.1294   20.5097 O   0  0  0  0  0  0  0  0  0  0  0  0
    8.2481  -13.6979   19.1436 C   0  0  0  0  0  0  0  0  0  0  0  0
    7.7212  -14.3484   20.4198 C   0  0  2  0  0  0  0  0  0  0  0  0
    6.3323  -13.8264   20.6693 C   0  0  0  0  0  0  0  0  0  0  0  0
    8.6309  -14.0674   21.5838 C   0  0  0  0  0  0  0  0  0  0  0  0
    9.5968  -15.1714   21.7729 C   0  0  2  0  0  0  0  0  0  0  0  0
    9.0775  -16.4345   21.2209 N   0  0  0  0  0  0  0  0  0  0  0  0
   10.0329  -15.4721   23.1310 C   0  0  0  0  0  0  0  0  0  0  0  0
   10.8250  -14.7066   23.7198 O   0  0  0  0  0  0  0  0  0  0  0  0
    9.6083  -16.6177   23.8669 N   0  0  0  0  0  0  0  0  0  0  0  0
   10.0922  -16.8775   25.2399 C   0  0  1  0  0  0  0  0  0  0  0  0
    9.7797  -15.6698   26.0521 C   0  0  0  0  0  0  0  0  0  0  0  0
    8.4024  -15.1658   25.9966 C   0  0  0  0  0  0  0  0  0  0  0  0
    7.2935  -15.9354   25.6626 C   0  0  0  0  0  0  0  0  0  0  0  0
    6.1882  -15.1740   25.6763 N   0  0  0  0  0  0  0  0  0  0  0  0
    6.5689  -13.9144   26.0174 C   0  0  0  0  0  0  0  0  0  0  0  0
    5.8040  -12.7686   26.1811 C   0  0  0  0  0  0  0  0  0  0  0  0
    6.4112  -11.5944   26.5504 C   0  0  0  0  0  0  0  0  0  0  0  0
    7.7829  -11.5831   26.7516 C   0  0  0  0  0  0  0  0  0  0  0  0
    8.5417  -12.6991   26.5934 C   0  0  0  0  0  0  0  0  0  0  0  0
    7.9246  -13.8926   26.2176 C   0  0  0  0  0  0  0  0  0  0  0  0
    9.6361  -18.1649   25.7335 C   0  0  0  0  0  0  0  0  0  0  0  0
   10.1171  -18.7379   26.8974 O   0  0  0  0  0  0  0  0  0  0  0  0
    8.7556  -18.8685   25.1226 O   0  0  0  0  0  0  0  0  0  0  0  0
  1  2  1  0
  2  4  1  0
  2  3  2  0
  4  5  1  0
  5  6  1  6
  7  8  2  0
  7  5  1  0
 10  9  1  6
 10 12  1  0
 11 10  1  0
 13 12  1  1
 13 14  1  0
 14  7  1  0
 15 13  1  0
 16 15  2  0
 17 15  1  0
 18 29  1  0
 18 17  1  0
 18 19  1  1
 20 19  1  0
 21 20  2  0
 22 21  1  0
 23 22  1  0
 23 28  2  0
 24 25  2  0
 24 23  1  0
 25 26  1  0
 26 27  2  0
 28 27  1  0
 28 20  1  0
 29 30  1  0
 31 29  2  0
M  END
$$$$
