NLW.pdb
     RDKit          3D

 31 32  0  0  1  0  0  0  0  0999 V2000
    9.9001  -20.6002   16.6128 N   0  0  0  0  0  0  0  0  0  0  0  0
   10.6301  -20.5952   17.8224 C   0  0  0  0  0  0  0  0  0  0  0  0
   10.6371  -21.5917   18.6095 O   0  0  0  0  0  0  0  0  0  0  0  0
   11.4379  -19.4225   18.2522 C   0  0  0  0  0  0  0  0  0  0  0  0
   11.0179  -18.9948   19.6507 C   0  0  2  0  0  0  0  0  0  0  0  0
    9.8303  -19.6821   20.0778 N   0  0  0  0  0  0  0  0  0  0  0  0
   10.8746  -17.5218   19.7077 C   0  0  0  0  0  0  0  0  0  0  0  0
   11.8000  -16.7687   19.3071 O   0  0  0  0  0  0  0  0  0  0  0  0
    6.5058  -13.2422   19.9819 C   0  0  0  0  0  0  0  0  0  0  0  0
    7.9957  -13.5652   19.9091 C   0  0  2  0  0  0  0  0  0  0  0  0
    8.5888  -12.7736   18.7753 C   0  0  0  0  0  0  0  0  0  0  0  0
    8.2194  -15.0408   19.7246 C   0  0  0  0  0  0  0  0  0  0  0  0
    9.5415  -15.4408   20.2531 C   0  0  2  0  0  0  0  0  0  0  0  0
    9.7147  -16.9029   20.2050 N   0  0  0  0  0  0  0  0  0  0  0  0
    9.8849  -15.0370   21.6110 C   0  0  0  0  0  0  0  0  0  0  0  0
    9.8990  -13.8272   21.9214 O   0  0  0  0  0  0  0  0  0  0  0  0
   10.2191  -15.9527   22.6521 N   0  0  0  0  0  0  0  0  0  0  0  0
    9.8996  -15.6647   24.0671 C   0  0  1  0  0  0  0  0  0  0  0  0
    8.4712  -15.2491   24.1195 C   0  0  0  0  0  0  0  0  0  0  0  0
    7.9161  -14.9322   25.4406 C   0  0  0  0  0  0  0  0  0  0  0  0
    7.5993  -15.8768   26.4106 C   0  0  0  0  0  0  0  0  0  0  0  0
    7.0874  -15.2677   27.4915 N   0  0  0  0  0  0  0  0  0  0  0  0
    7.0690  -13.9332   27.2330 C   0  0  0  0  0  0  0  0  0  0  0  0
    6.6480  -12.8792   28.0309 C   0  0  0  0  0  0  0  0  0  0  0  0
    6.7391  -11.5931   27.5601 C   0  0  0  0  0  0  0  0  0  0  0  0
    7.2529  -11.3786   26.2905 C   0  0  0  0  0  0  0  0  0  0  0  0
    7.6676  -12.4033   25.5003 C   0  0  0  0  0  0  0  0  0  0  0  0
    7.5745  -13.7107   25.9786 C   0  0  0  0  0  0  0  0  0  0  0  0
   10.3263  -16.7423   24.9422 C   0  0  0  0  0  0  0  0  0  0  0  0
   10.6353  -18.0093   24.4801 O   0  0  0  0  0  0  0  0  0  0  0  0
   10.4435  -16.5991   26.2108 O   0  0  0  0  0  0  0  0  0  0  0  0
  1  2  1  0
  2  4  1  0
  2  3  2  0
  4  5  1  0
  5  6  1  6
  7  8  2  0
  7  5  1  0
 10  9  1  6
 10 12  1  0
 11 10  1  0
 13 12  1  1
 13 14  1  0
 14  7  1  0
 15 13  1  0
 16 15  2  0
 17 15  1  0
 18 29  1  0
 18 17  1  0
 18 19  1  6
 20 19  1  0
 21 20  2  0
 22 21  1  0
 23 22  1  0
 23 28  2  0
 24 25  2  0
 24 23  1  0
 25 26  1  0
 26 27  2  0
 28 27  1  0
 28 20  1  0
 29 30  1  0
 31 29  2  0
M  END
$$$$
