QPR.pdb
     RDKit          3D

 28 28  0  0  1  0  0  0  0  0999 V2000
   18.9003  -18.9734  -10.8808 N   0  0  0  0  0  0  0  0  0  0  0  0
   18.4834  -19.8659  -11.8921 C   0  0  0  0  0  0  0  0  0  0  0  0
   17.3275  -20.3510  -11.8788 O   0  0  0  0  0  0  0  0  0  0  0  0
   19.4812  -20.2003  -12.9695 C   0  0  0  0  0  0  0  0  0  0  0  0
   20.8034  -19.5708  -12.6824 C   0  0  0  0  0  0  0  0  0  0  0  0
   21.8923  -20.6265  -12.6034 C   0  0  2  0  0  0  0  0  0  0  0  0
   21.9007  -21.3683  -13.8417 N   0  0  0  0  0  0  0  0  0  0  0  0
   21.7034  -21.5063  -11.4353 C   0  0  0  0  0  0  0  0  0  0  0  0
   21.2013  -22.6649  -11.6754 O   0  0  0  0  0  0  0  0  0  0  0  0
   22.0247  -21.1735  -10.1179 N   0  0  0  0  0  0  0  0  0  0  0  0
   22.6337  -19.9006   -9.7140 C   0  0  0  0  0  0  0  0  0  0  0  0
   23.6399  -20.3573   -8.6934 C   0  0  0  0  0  0  0  0  0  0  0  0
   22.8249  -21.3453   -7.8951 C   0  0  0  0  0  0  0  0  0  0  0  0
   21.8669  -21.9224   -8.9268 C   0  0  1  0  0  0  0  0  0  0  0  0
   20.4986  -21.7962   -8.3538 C   0  0  0  0  0  0  0  0  0  0  0  0
   19.7008  -20.8873   -8.6633 O   0  0  0  0  0  0  0  0  0  0  0  0
   16.9029  -26.5638  -12.6965 N   0  0  0  0  0  0  0  0  0  0  0  0
   16.0852  -25.9676  -11.6974 C   0  0  0  0  0  0  0  0  0  0  0  0
   14.8240  -25.8052  -11.9048 N   0  0  0  0  0  0  0  0  0  0  0  0
   16.6041  -25.5320  -10.4524 N   0  0  0  0  0  0  0  0  0  0  0  0
   17.9945  -25.5748  -10.1910 C   0  0  0  0  0  0  0  0  0  0  0  0
   18.4471  -25.1488   -8.8363 C   0  0  0  0  0  0  0  0  0  0  0  0
   18.1539  -23.6907   -8.6164 C   0  0  0  0  0  0  0  0  0  0  0  0
   18.6594  -23.1687   -7.3072 C   0  0  2  0  0  0  0  0  0  0  0  0
   20.0425  -22.7466   -7.3981 N   0  0  0  0  0  0  0  0  0  0  0  0
   18.4346  -24.0962   -6.1766 C   0  0  0  0  0  0  0  0  0  0  0  0
   19.3483  -24.7882   -5.6463 O   0  0  0  0  0  0  0  0  0  0  0  0
   17.1658  -24.2483   -5.6347 O   0  0  0  0  0  0  0  0  0  0  0  0
  2  1  1  0
  3  2  2  0
  4  2  1  0
  5  4  1  0
  6  8  1  0
  6  5  1  0
  6  7  1  6
  8  9  2  0
 10 11  1  0
 10  8  1  0
 12 11  1  0
 13 14  1  0
 13 12  1  0
 14 10  1  0
 15 25  1  0
 14 15  1  1
 16 15  2  0
 18 17  1  0
 19 18  2  0
 20 18  1  0
 21 20  1  0
 22 21  1  0
 23 22  1  0
 24 23  1  6
 24 25  1  0
 26 24  1  0
 26 28  1  0
 27 26  2  0
M  END
$$$$
