QPR.pdb
     RDKit          3D

 28 28  0  0  1  0  0  0  0  0999 V2000
   29.6367  -22.4904  -13.4114 N   0  0  0  0  0  0  0  0  0  0  0  0
   30.0494  -21.9776  -12.1625 C   0  0  0  0  0  0  0  0  0  0  0  0
   31.1570  -22.3025  -11.6735 O   0  0  0  0  0  0  0  0  0  0  0  0
   29.1071  -21.0366  -11.4592 C   0  0  0  0  0  0  0  0  0  0  0  0
   27.8923  -20.7838  -12.2882 C   0  0  0  0  0  0  0  0  0  0  0  0
   26.8905  -19.9360  -11.5240 C   0  0  2  0  0  0  0  0  0  0  0  0
   26.2746  -20.7585  -10.5101 N   0  0  0  0  0  0  0  0  0  0  0  0
   25.8923  -19.3376  -12.4293 C   0  0  0  0  0  0  0  0  0  0  0  0
   24.6600  -19.5532  -12.1342 O   0  0  0  0  0  0  0  0  0  0  0  0
   26.1883  -18.5716  -13.5586 N   0  0  0  0  0  0  0  0  0  0  0  0
   27.5496  -18.2816  -14.0247 C   0  0  0  0  0  0  0  0  0  0  0  0
   27.4332  -16.8337  -14.4155 C   0  0  0  0  0  0  0  0  0  0  0  0
   26.1243  -16.8337  -15.1668 C   0  0  0  0  0  0  0  0  0  0  0  0
   25.3206  -17.9207  -14.4685 C   0  0  1  0  0  0  0  0  0  0  0  0
   24.8261  -18.8349  -15.5345 C   0  0  0  0  0  0  0  0  0  0  0  0
   25.5670  -19.5952  -16.1914 O   0  0  0  0  0  0  0  0  0  0  0  0
   19.7926  -24.1663  -12.8690 N   0  0  0  0  0  0  0  0  0  0  0  0
   21.0824  -24.0694  -13.4602 C   0  0  0  0  0  0  0  0  0  0  0  0
   21.8852  -25.0766  -13.4314 N   0  0  0  0  0  0  0  0  0  0  0  0
   21.5390  -22.8876  -14.0958 N   0  0  0  0  0  0  0  0  0  0  0  0
   20.7313  -21.7260  -14.1342 C   0  0  0  0  0  0  0  0  0  0  0  0
   21.2535  -20.5572  -14.8974 C   0  0  0  0  0  0  0  0  0  0  0  0
   22.2613  -21.0027  -15.9204 C   0  0  0  0  0  0  0  0  0  0  0  0
   22.8520  -19.8758  -16.7098 C   0  0  2  0  0  0  0  0  0  0  0  0
   23.4386  -18.8694  -15.8480 N   0  0  0  0  0  0  0  0  0  0  0  0
   21.9137  -19.2884  -17.6913 C   0  0  0  0  0  0  0  0  0  0  0  0
   21.3385  -19.9557  -18.5962 O   0  0  0  0  0  0  0  0  0  0  0  0
   21.6179  -17.9328  -17.6558 O   0  0  0  0  0  0  0  0  0  0  0  0
  2  1  1  0
  3  2  2  0
  4  2  1  0
  5  4  1  0
  6  8  1  0
  6  5  1  0
  6  7  1  1
  8  9  2  0
 10 11  1  0
 10  8  1  0
 12 11  1  0
 13 14  1  0
 13 12  1  0
 14 10  1  0
 15 25  1  0
 14 15  1  6
 16 15  2  0
 18 17  1  0
 19 18  2  0
 20 18  1  0
 21 20  1  0
 22 21  1  0
 23 22  1  0
 24 23  1  1
 24 25  1  0
 26 24  1  0
 26 28  1  0
 27 26  2  0
M  END
$$$$
