QPR.pdb
     RDKit          3D

 28 28  0  0  1  0  0  0  0  0999 V2000
   20.6315  -15.3222  -14.1166 N   0  0  0  0  0  0  0  0  0  0  0  0
   20.6761  -14.4964  -15.2608 C   0  0  0  0  0  0  0  0  0  0  0  0
   19.9486  -13.4789  -15.3426 O   0  0  0  0  0  0  0  0  0  0  0  0
   21.6260  -14.8938  -16.3599 C   0  0  0  0  0  0  0  0  0  0  0  0
   22.4579  -16.0616  -15.9463 C   0  0  0  0  0  0  0  0  0  0  0  0
   23.3743  -16.4928  -17.0780 C   0  0  2  0  0  0  0  0  0  0  0  0
   22.5653  -17.0592  -18.1308 N   0  0  0  0  0  0  0  0  0  0  0  0
   24.4034  -17.4371  -16.6054 C   0  0  0  0  0  0  0  0  0  0  0  0
   24.0784  -18.6806  -16.6179 O   0  0  0  0  0  0  0  0  0  0  0  0
   25.6761  -17.0801  -16.1555 N   0  0  0  0  0  0  0  0  0  0  0  0
   26.2049  -15.7111  -16.1782 C   0  0  0  0  0  0  0  0  0  0  0  0
   27.6206  -15.9413  -16.6312 C   0  0  0  0  0  0  0  0  0  0  0  0
   28.0148  -17.1251  -15.7821 C   0  0  0  0  0  0  0  0  0  0  0  0
   26.7071  -17.8844  -15.6127 C   0  0  1  0  0  0  0  0  0  0  0  0
   26.5366  -18.1166  -14.1520 C   0  0  0  0  0  0  0  0  0  0  0  0
   25.7630  -17.4519  -13.4321 O   0  0  0  0  0  0  0  0  0  0  0  0
   21.3461  -19.9343   -9.3789 N   0  0  0  0  0  0  0  0  0  0  0  0
   22.3847  -20.7945   -8.9272 C   0  0  0  0  0  0  0  0  0  0  0  0
   22.5408  -21.0152   -7.6675 N   0  0  0  0  0  0  0  0  0  0  0  0
   23.2795  -21.4371   -9.8190 N   0  0  0  0  0  0  0  0  0  0  0  0
   23.8332  -20.7397  -10.9191 C   0  0  0  0  0  0  0  0  0  0  0  0
   24.8579  -21.4531  -11.7331 C   0  0  0  0  0  0  0  0  0  0  0  0
   25.4179  -20.5436  -12.7913 C   0  0  0  0  0  0  0  0  0  0  0  0
   26.7424  -19.9468  -12.4286 C   0  0  2  0  0  0  0  0  0  0  0  0
   27.2809  -19.1445  -13.5084 N   0  0  0  0  0  0  0  0  0  0  0  0
   27.7206  -20.9401  -11.9332 C   0  0  0  0  0  0  0  0  0  0  0  0
   28.4170  -21.6742  -12.6890 O   0  0  0  0  0  0  0  0  0  0  0  0
   27.9189  -21.1109  -10.5702 O   0  0  0  0  0  0  0  0  0  0  0  0
  2  1  1  0
  3  2  2  0
  4  2  1  0
  5  4  1  0
  6  8  1  0
  6  5  1  0
  6  7  1  6
  8  9  2  0
 10 11  1  0
 10  8  1  0
 12 11  1  0
 13 14  1  0
 13 12  1  0
 14 10  1  0
 15 25  1  0
 14 15  1  1
 16 15  2  0
 18 17  1  0
 19 18  2  0
 20 18  1  0
 21 20  1  0
 22 21  1  0
 23 22  1  0
 24 23  1  6
 24 25  1  0
 26 24  1  0
 26 28  1  0
 27 26  2  0
M  END
$$$$
