QPR.pdb
     RDKit          3D

 28 28  0  0  1  0  0  0  0  0999 V2000
   26.0324  -30.1174  -15.2876 N   0  0  0  0  0  0  0  0  0  0  0  0
   25.0056  -31.0864  -15.2873 C   0  0  0  0  0  0  0  0  0  0  0  0
   23.9427  -30.8904  -15.9222 O   0  0  0  0  0  0  0  0  0  0  0  0
   25.2481  -32.3461  -14.4983 C   0  0  0  0  0  0  0  0  0  0  0  0
   26.5316  -32.2601  -13.7418 C   0  0  0  0  0  0  0  0  0  0  0  0
   26.8217  -33.5701  -13.0305 C   0  0  2  0  0  0  0  0  0  0  0  0
   26.9888  -34.6031  -14.0248 N   0  0  0  0  0  0  0  0  0  0  0  0
   25.7594  -33.9028  -12.0635 C   0  0  0  0  0  0  0  0  0  0  0  0
   24.8311  -34.6832  -12.4895 O   0  0  0  0  0  0  0  0  0  0  0  0
   25.6950  -33.4379  -10.7485 N   0  0  0  0  0  0  0  0  0  0  0  0
   26.6585  -32.5022  -10.1565 C   0  0  0  0  0  0  0  0  0  0  0  0
   26.8498  -33.0919   -8.7860 C   0  0  0  0  0  0  0  0  0  0  0  0
   25.4254  -33.4023   -8.3954 C   0  0  0  0  0  0  0  0  0  0  0  0
   24.7628  -33.7331   -9.7246 C   0  0  1  0  0  0  0  0  0  0  0  0
   23.5388  -32.8899   -9.8109 C   0  0  0  0  0  0  0  0  0  0  0  0
   23.2925  -32.1248  -10.7661 O   0  0  0  0  0  0  0  0  0  0  0  0
   16.8888  -32.9559  -13.6858 N   0  0  0  0  0  0  0  0  0  0  0  0
   16.5447  -31.8641  -12.8420 C   0  0  0  0  0  0  0  0  0  0  0  0
   15.4895  -31.1658  -13.0843 N   0  0  0  0  0  0  0  0  0  0  0  0
   17.3271  -31.4975  -11.7183 N   0  0  0  0  0  0  0  0  0  0  0  0
   18.5607  -32.1387  -11.4529 C   0  0  0  0  0  0  0  0  0  0  0  0
   19.2743  -31.7535  -10.2023 C   0  0  0  0  0  0  0  0  0  0  0  0
   20.5871  -32.4790  -10.0992 C   0  0  0  0  0  0  0  0  0  0  0  0
   21.3200  -32.2126   -8.8209 C   0  0  2  0  0  0  0  0  0  0  0  0
   22.5756  -32.9335   -8.7645 N   0  0  0  0  0  0  0  0  0  0  0  0
   20.4966  -32.4352   -7.6121 C   0  0  0  0  0  0  0  0  0  0  0  0
   19.4801  -31.7448   -7.3205 O   0  0  0  0  0  0  0  0  0  0  0  0
   20.8199  -33.4470   -6.7187 O   0  0  0  0  0  0  0  0  0  0  0  0
  2  1  1  0
  3  2  2  0
  4  2  1  0
  5  4  1  0
  6  8  1  0
  6  5  1  0
  6  7  1  6
  8  9  2  0
 10 11  1  0
 10  8  1  0
 12 11  1  0
 13 14  1  0
 13 12  1  0
 14 10  1  0
 15 25  1  0
 14 15  1  6
 16 15  2  0
 18 17  1  0
 19 18  2  0
 20 18  1  0
 21 20  1  0
 22 21  1  0
 23 22  1  0
 24 23  1  6
 24 25  1  0
 26 24  1  0
 26 28  1  0
 27 26  2  0
M  END
$$$$
