QPR.pdb
     RDKit          3D

 28 28  0  0  1  0  0  0  0  0999 V2000
   15.8148   -7.6583  -16.6091 N   0  0  0  0  0  0  0  0  0  0  0  0
   15.8738   -9.0671  -16.6803 C   0  0  0  0  0  0  0  0  0  0  0  0
   14.9787   -9.7144  -17.2729 O   0  0  0  0  0  0  0  0  0  0  0  0
   17.0468   -9.7413  -16.0188 C   0  0  0  0  0  0  0  0  0  0  0  0
   17.9666   -8.7337  -15.4139 C   0  0  0  0  0  0  0  0  0  0  0  0
   19.0701   -9.4207  -14.6287 C   0  0  2  0  0  0  0  0  0  0  0  0
   18.7341  -10.8181  -14.4946 N   0  0  0  0  0  0  0  0  0  0  0  0
   19.2785   -8.7759  -13.3191 C   0  0  0  0  0  0  0  0  0  0  0  0
   18.7840   -9.3878  -12.3025 O   0  0  0  0  0  0  0  0  0  0  0  0
   19.9596   -7.5745  -13.1138 N   0  0  0  0  0  0  0  0  0  0  0  0
   20.7121   -6.8648  -14.1551 C   0  0  0  0  0  0  0  0  0  0  0  0
   21.9356   -6.4261  -13.3980 C   0  0  0  0  0  0  0  0  0  0  0  0
   21.3238   -5.9145  -12.1168 C   0  0  0  0  0  0  0  0  0  0  0  0
   20.0970   -6.7968  -11.9387 C   0  0  1  0  0  0  0  0  0  0  0  0
   18.9423   -5.8813  -11.7255 C   0  0  0  0  0  0  0  0  0  0  0  0
   18.1288   -5.5747  -12.6213 O   0  0  0  0  0  0  0  0  0  0  0  0
   12.8353   -9.6437   -9.6734 N   0  0  0  0  0  0  0  0  0  0  0  0
   12.9148   -8.6955   -8.6165 C   0  0  0  0  0  0  0  0  0  0  0  0
   11.9184   -8.5328   -7.8162 N   0  0  0  0  0  0  0  0  0  0  0  0
   14.0670   -7.9001   -8.3955 N   0  0  0  0  0  0  0  0  0  0  0  0
   14.6134   -7.1100   -9.4350 C   0  0  0  0  0  0  0  0  0  0  0  0
   15.8271   -6.3064   -9.1147 C   0  0  0  0  0  0  0  0  0  0  0  0
   16.3026   -5.5612  -10.3310 C   0  0  0  0  0  0  0  0  0  0  0  0
   17.4773   -4.6710  -10.0670 C   0  0  2  0  0  0  0  0  0  0  0  0
   18.7243   -5.3062  -10.4424 N   0  0  0  0  0  0  0  0  0  0  0  0
   17.5169   -4.1416   -8.6861 C   0  0  0  0  0  0  0  0  0  0  0  0
   16.7558   -3.2259   -8.2651 O   0  0  0  0  0  0  0  0  0  0  0  0
   18.4243   -4.6477   -7.7658 O   0  0  0  0  0  0  0  0  0  0  0  0
  2  1  1  0
  3  2  2  0
  4  2  1  0
  5  4  1  0
  6  8  1  0
  6  5  1  0
  6  7  1  1
  8  9  2  0
 10 11  1  0
 10  8  1  0
 12 11  1  0
 13 14  1  0
 13 12  1  0
 14 10  1  0
 15 25  1  0
 14 15  1  6
 16 15  2  0
 18 17  1  0
 19 18  2  0
 20 18  1  0
 21 20  1  0
 22 21  1  0
 23 22  1  0
 24 23  1  1
 24 25  1  0
 26 24  1  0
 26 28  1  0
 27 26  2  0
M  END
$$$$
