QPR.pdb
     RDKit          3D

 28 28  0  0  1  0  0  0  0  0999 V2000
   27.3366  -22.6394  -17.3498 N   0  0  0  0  0  0  0  0  0  0  0  0
   28.4647  -22.7162  -16.5044 C   0  0  0  0  0  0  0  0  0  0  0  0
   29.3612  -23.5673  -16.7121 O   0  0  0  0  0  0  0  0  0  0  0  0
   28.5347  -21.7404  -15.3594 C   0  0  0  0  0  0  0  0  0  0  0  0
   27.3364  -20.8511  -15.3457 C   0  0  0  0  0  0  0  0  0  0  0  0
   27.3834  -19.9090  -14.1554 C   0  0  2  0  0  0  0  0  0  0  0  0
   27.4770  -20.6986  -12.9507 N   0  0  0  0  0  0  0  0  0  0  0  0
   26.2148  -19.0101  -14.1357 C   0  0  0  0  0  0  0  0  0  0  0  0
   25.2468  -19.3578  -13.3648 O   0  0  0  0  0  0  0  0  0  0  0  0
   26.0915  -17.8354  -14.8803 N   0  0  0  0  0  0  0  0  0  0  0  0
   27.1364  -17.3064  -15.7650 C   0  0  0  0  0  0  0  0  0  0  0  0
   27.0683  -15.8337  -15.4663 C   0  0  0  0  0  0  0  0  0  0  0  0
   25.5775  -15.5993  -15.4688 C   0  0  0  0  0  0  0  0  0  0  0  0
   25.0155  -16.9188  -14.9608 C   0  0  1  0  0  0  0  0  0  0  0  0
   23.9788  -17.3448  -15.9409 C   0  0  0  0  0  0  0  0  0  0  0  0
   24.2349  -17.9744  -16.9880 O   0  0  0  0  0  0  0  0  0  0  0  0
   21.8980  -24.0024  -14.2745 N   0  0  0  0  0  0  0  0  0  0  0  0
   20.7044  -23.3127  -13.9251 C   0  0  0  0  0  0  0  0  0  0  0  0
   19.6954  -23.9616  -13.4555 N   0  0  0  0  0  0  0  0  0  0  0  0
   20.5677  -21.9096  -14.0727 N   0  0  0  0  0  0  0  0  0  0  0  0
   21.6681  -21.1109  -14.4658 C   0  0  0  0  0  0  0  0  0  0  0  0
   21.4230  -19.6513  -14.6415 C   0  0  0  0  0  0  0  0  0  0  0  0
   21.6549  -19.2457  -16.0706 C   0  0  0  0  0  0  0  0  0  0  0  0
   21.5200  -17.7729  -16.3048 C   0  0  2  0  0  0  0  0  0  0  0  0
   22.6110  -17.0337  -15.7025 N   0  0  0  0  0  0  0  0  0  0  0  0
   20.1996  -17.2325  -15.9131 C   0  0  0  0  0  0  0  0  0  0  0  0
   20.0377  -16.3683  -15.0065 O   0  0  0  0  0  0  0  0  0  0  0  0
   19.0455  -17.6690  -16.5488 O   0  0  0  0  0  0  0  0  0  0  0  0
  2  1  1  0
  3  2  2  0
  4  2  1  0
  5  4  1  0
  6  8  1  0
  6  5  1  0
  6  7  1  1
  8  9  2  0
 10 11  1  0
 10  8  1  0
 12 11  1  0
 13 14  1  0
 13 12  1  0
 14 10  1  0
 15 25  1  0
 14 15  1  6
 16 15  2  0
 18 17  1  0
 19 18  2  0
 20 18  1  0
 21 20  1  0
 22 21  1  0
 23 22  1  0
 24 23  1  1
 24 25  1  0
 26 24  1  0
 26 28  1  0
 27 26  2  0
M  END
$$$$
