QPR.pdb
     RDKit          3D

 28 28  0  0  1  0  0  0  0  0999 V2000
   28.4695  -20.6094  -19.9936 N   0  0  0  0  0  0  0  0  0  0  0  0
   27.4160  -21.5221  -19.7697 C   0  0  0  0  0  0  0  0  0  0  0  0
   26.7186  -21.9387  -20.7244 O   0  0  0  0  0  0  0  0  0  0  0  0
   27.1764  -21.9620  -18.3494 C   0  0  0  0  0  0  0  0  0  0  0  0
   28.2144  -21.3992  -17.4370 C   0  0  0  0  0  0  0  0  0  0  0  0
   27.9518  -21.8229  -16.0025 C   0  0  2  0  0  0  0  0  0  0  0  0
   27.7059  -23.2452  -15.9835 N   0  0  0  0  0  0  0  0  0  0  0  0
   26.8337  -21.0626  -15.4142 C   0  0  0  0  0  0  0  0  0  0  0  0
   25.8876  -21.7598  -14.8936 O   0  0  0  0  0  0  0  0  0  0  0  0
   26.7355  -19.6700  -15.3856 N   0  0  0  0  0  0  0  0  0  0  0  0
   27.7482  -18.7605  -15.9347 C   0  0  0  0  0  0  0  0  0  0  0  0
   27.7973  -17.6901  -14.8791 C   0  0  0  0  0  0  0  0  0  0  0  0
   26.3284  -17.4681  -14.6134 C   0  0  0  0  0  0  0  0  0  0  0  0
   25.7185  -18.8412  -14.8536 C   0  0  1  0  0  0  0  0  0  0  0  0
   24.5903  -18.6448  -15.8051 C   0  0  0  0  0  0  0  0  0  0  0  0
   24.7338  -18.5813  -17.0435 O   0  0  0  0  0  0  0  0  0  0  0  0
   20.7606  -23.7941  -14.3818 N   0  0  0  0  0  0  0  0  0  0  0  0
   19.8538  -23.1471  -13.4978 C   0  0  0  0  0  0  0  0  0  0  0  0
   19.2478  -23.8225  -12.5832 N   0  0  0  0  0  0  0  0  0  0  0  0
   19.5772  -21.7591  -13.5765 N   0  0  0  0  0  0  0  0  0  0  0  0
   19.6727  -21.0691  -14.8086 C   0  0  0  0  0  0  0  0  0  0  0  0
   20.4679  -19.8085  -14.8243 C   0  0  0  0  0  0  0  0  0  0  0  0
   21.2848  -19.7157  -16.0831 C   0  0  0  0  0  0  0  0  0  0  0  0
   22.1020  -18.4646  -16.1761 C   0  0  2  0  0  0  0  0  0  0  0  0
   23.2624  -18.5184  -15.3100 N   0  0  0  0  0  0  0  0  0  0  0  0
   21.3137  -17.2292  -15.9728 C   0  0  0  0  0  0  0  0  0  0  0  0
   21.4192  -16.4910  -14.9536 O   0  0  0  0  0  0  0  0  0  0  0  0
   20.3942  -16.8179  -16.9277 O   0  0  0  0  0  0  0  0  0  0  0  0
  2  1  1  0
  3  2  2  0
  4  2  1  0
  5  4  1  0
  6  8  1  0
  6  5  1  0
  6  7  1  6
  8  9  2  0
 10 11  1  0
 10  8  1  0
 12 11  1  0
 13 14  1  0
 13 12  1  0
 14 10  1  0
 15 25  1  0
 14 15  1  6
 16 15  2  0
 18 17  1  0
 19 18  2  0
 20 18  1  0
 21 20  1  0
 22 21  1  0
 23 22  1  0
 24 23  1  1
 24 25  1  0
 26 24  1  0
 26 28  1  0
 27 26  2  0
M  END
$$$$
