QPR.pdb
     RDKit          3D

 28 28  0  0  1  0  0  0  0  0999 V2000
   26.0772  -18.9506  -21.3551 N   0  0  0  0  0  0  0  0  0  0  0  0
   25.6119  -19.4394  -20.1150 C   0  0  0  0  0  0  0  0  0  0  0  0
   24.5459  -20.0954  -20.0468 O   0  0  0  0  0  0  0  0  0  0  0  0
   26.4471  -19.1374  -18.8988 C   0  0  0  0  0  0  0  0  0  0  0  0
   27.6079  -18.2695  -19.2540 C   0  0  0  0  0  0  0  0  0  0  0  0
   28.4750  -18.0108  -18.0342 C   0  0  2  0  0  0  0  0  0  0  0  0
   29.5611  -18.9615  -18.0354 N   0  0  0  0  0  0  0  0  0  0  0  0
   27.6857  -18.0774  -16.7905 C   0  0  0  0  0  0  0  0  0  0  0  0
   27.8920  -19.1034  -16.0442 O   0  0  0  0  0  0  0  0  0  0  0  0
   26.7517  -17.1245  -16.3792 N   0  0  0  0  0  0  0  0  0  0  0  0
   26.4238  -15.9107  -17.1364 C   0  0  0  0  0  0  0  0  0  0  0  0
   26.3292  -14.8862  -16.0391 C   0  0  0  0  0  0  0  0  0  0  0  0
   25.5281  -15.6352  -15.0024 C   0  0  0  0  0  0  0  0  0  0  0  0
   25.9498  -17.0819  -15.2131 C   0  0  1  0  0  0  0  0  0  0  0  0
   24.6969  -17.8734  -15.3564 C   0  0  0  0  0  0  0  0  0  0  0  0
   24.1954  -18.1803  -16.4576 O   0  0  0  0  0  0  0  0  0  0  0  0
   20.6215  -22.7844   -9.1949 N   0  0  0  0  0  0  0  0  0  0  0  0
   19.7112  -22.8239  -10.2869 C   0  0  0  0  0  0  0  0  0  0  0  0
   18.6071  -23.4800  -10.1861 N   0  0  0  0  0  0  0  0  0  0  0  0
   19.9668  -22.1590  -11.5124 N   0  0  0  0  0  0  0  0  0  0  0  0
   21.1672  -21.4352  -11.7085 C   0  0  0  0  0  0  0  0  0  0  0  0
   21.3309  -20.7254  -13.0088 C   0  0  0  0  0  0  0  0  0  0  0  0
   22.6172  -19.9472  -13.0268 C   0  0  0  0  0  0  0  0  0  0  0  0
   22.7944  -19.1112  -14.2563 C   0  0  2  0  0  0  0  0  0  0  0  0
   24.0072  -18.3206  -14.1950 N   0  0  0  0  0  0  0  0  0  0  0  0
   21.6101  -18.2874  -14.5846 C   0  0  0  0  0  0  0  0  0  0  0  0
   20.6030  -18.7260  -15.2078 O   0  0  0  0  0  0  0  0  0  0  0  0
   21.5569  -16.9526  -14.2078 O   0  0  0  0  0  0  0  0  0  0  0  0
  2  1  1  0
  3  2  2  0
  4  2  1  0
  5  4  1  0
  6  8  1  0
  6  5  1  0
  6  7  1  1
  8  9  2  0
 10 11  1  0
 10  8  1  0
 12 11  1  0
 13 14  1  0
 13 12  1  0
 14 10  1  0
 15 25  1  0
 14 15  1  6
 16 15  2  0
 18 17  1  0
 19 18  2  0
 20 18  1  0
 21 20  1  0
 22 21  1  0
 23 22  1  0
 24 23  1  1
 24 25  1  0
 26 24  1  0
 26 28  1  0
 27 26  2  0
M  END
$$$$
