QPR.pdb
     RDKit          3D

 28 28  0  0  1  0  0  0  0  0999 V2000
   26.1403  -22.2875  -11.5450 N   0  0  0  0  0  0  0  0  0  0  0  0
   24.9970  -21.6594  -11.0052 C   0  0  0  0  0  0  0  0  0  0  0  0
   24.6156  -21.9204   -9.8399 O   0  0  0  0  0  0  0  0  0  0  0  0
   24.2710  -20.6768  -11.8858 C   0  0  0  0  0  0  0  0  0  0  0  0
   24.9412  -20.5579  -13.2137 C   0  0  0  0  0  0  0  0  0  0  0  0
   23.9250  -20.6669  -14.3371 C   0  0  2  0  0  0  0  0  0  0  0  0
   23.2537  -21.9398  -14.2245 N   0  0  0  0  0  0  0  0  0  0  0  0
   24.5618  -20.4946  -15.6558 C   0  0  0  0  0  0  0  0  0  0  0  0
   24.9731  -21.5686  -16.2298 O   0  0  0  0  0  0  0  0  0  0  0  0
   24.7444  -19.2730  -16.3069 N   0  0  0  0  0  0  0  0  0  0  0  0
   24.3370  -17.9754  -15.7550 C   0  0  0  0  0  0  0  0  0  0  0  0
   23.7655  -17.2964  -16.9694 C   0  0  0  0  0  0  0  0  0  0  0  0
   24.8044  -17.6300  -18.0120 C   0  0  0  0  0  0  0  0  0  0  0  0
   25.3161  -18.9935  -17.5716 C   0  0  1  0  0  0  0  0  0  0  0  0
   26.8004  -18.8922  -17.5139 C   0  0  0  0  0  0  0  0  0  0  0  0
   27.4196  -18.3378  -16.5825 O   0  0  0  0  0  0  0  0  0  0  0  0
   31.0938  -25.7183  -18.0773 N   0  0  0  0  0  0  0  0  0  0  0  0
   30.0847  -25.4349  -17.1161 C   0  0  0  0  0  0  0  0  0  0  0  0
   29.6959  -26.3496  -16.2964 N   0  0  0  0  0  0  0  0  0  0  0  0
   29.4703  -24.1617  -17.0138 N   0  0  0  0  0  0  0  0  0  0  0  0
   29.8170  -23.1153  -17.9017 C   0  0  0  0  0  0  0  0  0  0  0  0
   29.1347  -21.8041  -17.7100 C   0  0  0  0  0  0  0  0  0  0  0  0
   29.5991  -20.8122  -18.7400 C   0  0  0  0  0  0  0  0  0  0  0  0
   29.0365  -19.4383  -18.5451 C   0  0  2  0  0  0  0  0  0  0  0  0
   27.5876  -19.4468  -18.5614 N   0  0  0  0  0  0  0  0  0  0  0  0
   29.5968  -18.4345  -19.4763 C   0  0  0  0  0  0  0  0  0  0  0  0
   28.9669  -17.9707  -20.4678 O   0  0  0  0  0  0  0  0  0  0  0  0
   30.8824  -17.9452  -19.2910 O   0  0  0  0  0  0  0  0  0  0  0  0
  2  1  1  0
  3  2  2  0
  4  2  1  0
  5  4  1  0
  6  8  1  0
  6  5  1  0
  6  7  1  6
  8  9  2  0
 10 11  1  0
 10  8  1  0
 12 11  1  0
 13 14  1  0
 13 12  1  0
 14 10  1  0
 15 25  1  0
 14 15  1  1
 16 15  2  0
 18 17  1  0
 19 18  2  0
 20 18  1  0
 21 20  1  0
 22 21  1  0
 23 22  1  0
 24 23  1  6
 24 25  1  0
 26 24  1  0
 26 28  1  0
 27 26  2  0
M  END
$$$$
