QPR.pdb
     RDKit          3D

 28 28  0  0  1  0  0  0  0  0999 V2000
   14.4001  -22.2181    3.3721 N   0  0  0  0  0  0  0  0  0  0  0  0
   13.9500  -23.4719    3.8396 C   0  0  0  0  0  0  0  0  0  0  0  0
   12.9686  -23.5490    4.6157 O   0  0  0  0  0  0  0  0  0  0  0  0
   14.6964  -24.6914    3.3667 C   0  0  0  0  0  0  0  0  0  0  0  0
   15.8597  -24.3051    2.5156 C   0  0  0  0  0  0  0  0  0  0  0  0
   16.5904  -25.5394    2.0166 C   0  0  2  0  0  0  0  0  0  0  0  0
   15.6116  -26.4955    1.5568 N   0  0  0  0  0  0  0  0  0  0  0  0
   17.4647  -26.1046    3.0607 C   0  0  0  0  0  0  0  0  0  0  0  0
   17.0989  -27.2337    3.5544 O   0  0  0  0  0  0  0  0  0  0  0  0
   18.6344  -25.5103    3.5383 N   0  0  0  0  0  0  0  0  0  0  0  0
   19.2114  -24.2739    2.9972 C   0  0  0  0  0  0  0  0  0  0  0  0
   20.6789  -24.6040    2.9878 C   0  0  0  0  0  0  0  0  0  0  0  0
   20.8468  -25.2472    4.3426 C   0  0  0  0  0  0  0  0  0  0  0  0
   19.5024  -25.9194    4.5793 C   0  0  1  0  0  0  0  0  0  0  0  0
   19.0329  -25.4709    5.9191 C   0  0  0  0  0  0  0  0  0  0  0  0
   18.3068  -24.4714    6.0982 O   0  0  0  0  0  0  0  0  0  0  0  0
   16.6071  -30.1277   12.8476 N   0  0  0  0  0  0  0  0  0  0  0  0
   16.6569  -28.8115   13.3839 C   0  0  0  0  0  0  0  0  0  0  0  0
   16.2758  -28.5907   14.5946 N   0  0  0  0  0  0  0  0  0  0  0  0
   17.1173  -27.7022   12.6311 N   0  0  0  0  0  0  0  0  0  0  0  0
   17.6215  -27.8743   11.3198 C   0  0  0  0  0  0  0  0  0  0  0  0
   18.0269  -26.6464   10.5785 C   0  0  0  0  0  0  0  0  0  0  0  0
   18.5154  -26.9990    9.2009 C   0  0  0  0  0  0  0  0  0  0  0  0
   19.0004  -25.8190    8.4171 C   0  0  2  0  0  0  0  0  0  0  0  0
   19.4141  -26.1982    7.0812 N   0  0  0  0  0  0  0  0  0  0  0  0
   20.0389  -25.0323    9.1181 C   0  0  0  0  0  0  0  0  0  0  0  0
   21.2790  -25.2115    8.9598 O   0  0  0  0  0  0  0  0  0  0  0  0
   19.6791  -24.0309   10.0092 O   0  0  0  0  0  0  0  0  0  0  0  0
  2  1  1  0
  3  2  2  0
  4  2  1  0
  5  4  1  0
  6  8  1  0
  6  5  1  0
  6  7  1  1
  8  9  2  0
 10 11  1  0
 10  8  1  0
 12 11  1  0
 13 14  1  0
 13 12  1  0
 14 10  1  0
 15 25  1  0
 14 15  1  1
 16 15  2  0
 18 17  1  0
 19 18  2  0
 20 18  1  0
 21 20  1  0
 22 21  1  0
 23 22  1  0
 24 23  1  1
 24 25  1  0
 26 24  1  0
 26 28  1  0
 27 26  2  0
M  END
$$$$
