QPR.pdb
     RDKit          3D

 28 28  0  0  1  0  0  0  0  0999 V2000
   17.8708  -24.9634   -4.2765 N   0  0  0  0  0  0  0  0  0  0  0  0
   17.3846  -26.2280   -4.6736 C   0  0  0  0  0  0  0  0  0  0  0  0
   17.9544  -26.8737   -5.5845 O   0  0  0  0  0  0  0  0  0  0  0  0
   16.1669  -26.7526   -3.9595 C   0  0  0  0  0  0  0  0  0  0  0  0
   15.7100  -25.7919   -2.9130 C   0  0  0  0  0  0  0  0  0  0  0  0
   14.4142  -26.2675   -2.2798 C   0  0  2  0  0  0  0  0  0  0  0  0
   13.3717  -26.2149   -3.2769 N   0  0  0  0  0  0  0  0  0  0  0  0
   14.0757  -25.4705   -1.0862 C   0  0  0  0  0  0  0  0  0  0  0  0
   13.0735  -24.6742   -1.2036 O   0  0  0  0  0  0  0  0  0  0  0  0
   14.7542  -25.5210    0.1330 N   0  0  0  0  0  0  0  0  0  0  0  0
   15.8828  -26.4168    0.4122 C   0  0  0  0  0  0  0  0  0  0  0  0
   15.5691  -26.8714    1.8113 C   0  0  0  0  0  0  0  0  0  0  0  0
   15.1724  -25.5698    2.4640 C   0  0  0  0  0  0  0  0  0  0  0  0
   14.5398  -24.7857    1.3238 C   0  0  1  0  0  0  0  0  0  0  0  0
   15.2100  -23.4565    1.2988 C   0  0  0  0  0  0  0  0  0  0  0  0
   16.2843  -23.2352    0.7027 O   0  0  0  0  0  0  0  0  0  0  0  0
   10.3541  -17.0808   -0.3278 N   0  0  0  0  0  0  0  0  0  0  0  0
   10.6699  -16.7701    1.0236 C   0  0  0  0  0  0  0  0  0  0  0  0
   10.0648  -15.8043    1.6244 N   0  0  0  0  0  0  0  0  0  0  0  0
   11.6434  -17.4902    1.7603 N   0  0  0  0  0  0  0  0  0  0  0  0
   12.5555  -18.3532    1.1072 C   0  0  0  0  0  0  0  0  0  0  0  0
   13.4323  -19.1967    1.9683 C   0  0  0  0  0  0  0  0  0  0  0  0
   14.2912  -20.0973    1.1248 C   0  0  0  0  0  0  0  0  0  0  0  0
   15.1647  -21.0135    1.9246 C   0  0  2  0  0  0  0  0  0  0  0  0
   14.6213  -22.3555    1.9814 N   0  0  0  0  0  0  0  0  0  0  0  0
   15.4936  -20.4898    3.2686 C   0  0  0  0  0  0  0  0  0  0  0  0
   14.9814  -20.9294    4.3361 O   0  0  0  0  0  0  0  0  0  0  0  0
   16.4103  -19.4580    3.4153 O   0  0  0  0  0  0  0  0  0  0  0  0
  2  1  1  0
  3  2  2  0
  4  2  1  0
  5  4  1  0
  6  8  1  0
  6  5  1  0
  6  7  1  6
  8  9  2  0
 10 11  1  0
 10  8  1  0
 12 11  1  0
 13 14  1  0
 13 12  1  0
 14 10  1  0
 15 25  1  0
 14 15  1  6
 16 15  2  0
 18 17  1  0
 19 18  2  0
 20 18  1  0
 21 20  1  0
 22 21  1  0
 23 22  1  0
 24 23  1  1
 24 25  1  0
 26 24  1  0
 26 28  1  0
 27 26  2  0
M  END
$$$$
