RKT.pdb
     RDKit          3D

 28 27  0  0  1  0  0  0  0  0999 V2000
    8.5322  -13.0043   20.2713 N   0  0  0  0  0  0  0  0  0  0  0  0
    8.3369  -13.3695   18.9270 C   0  0  0  0  0  0  0  0  0  0  0  0
    8.1200  -12.4808   18.0278 N   0  0  0  0  0  0  0  0  0  0  0  0
    8.3868  -14.7503   18.5946 N   0  0  0  0  0  0  0  0  0  0  0  0
    8.6024  -15.7244   19.6441 C   0  0  0  0  0  0  0  0  0  0  0  0
    7.3361  -16.0023   20.4032 C   0  0  0  0  0  0  0  0  0  0  0  0
    7.5131  -17.0315   21.4586 C   0  0  0  0  0  0  0  0  0  0  0  0
    6.3060  -17.4515   22.2108 C   0  0  2  0  0  0  0  0  0  0  0  0
    5.1157  -16.7770   21.7652 N   0  0  0  0  0  0  0  0  0  0  0  0
    6.4466  -17.2586   23.6813 C   0  0  0  0  0  0  0  0  0  0  0  0
    5.7775  -16.3854   24.2982 O   0  0  0  0  0  0  0  0  0  0  0  0
    7.9165  -12.6743   17.0394 N   0  0  0  0  0  0  0  0  0  0  0  0
    7.3353  -18.0426   24.4602 C   0  0  2  0  0  0  0  0  0  0  0  0
    7.4600  -17.8622   25.9177 C   0  0  0  0  0  0  0  0  0  0  0  0
    8.0490  -19.1082   26.5134 C   0  0  0  0  0  0  0  0  0  0  0  0
    7.0314  -20.1856   26.6448 C   0  0  0  0  0  0  0  0  0  0  0  0
    7.6415  -21.4369   27.3168 C   0  0  0  0  0  0  0  0  0  0  0  0
    6.6267  -22.5504   27.3576 N   0  0  0  0  0  0  0  0  0  0  0  0
    7.2460  -23.6926   28.0493 C   0  0  0  0  0  0  0  0  0  0  0  0
    8.3365  -16.6972   26.1247 O   0  0  0  0  0  0  0  0  0  0  0  0
    8.6493  -15.9681   25.1177 C   0  0  0  0  0  0  0  0  0  0  0  0
    8.2460  -14.1140   25.6498 C   0  0  2  0  0  0  0  0  0  0  0  0
    8.7174  -13.8977   27.0532 O   0  0  0  0  0  0  0  0  0  0  0  0
    7.5910  -13.9385   27.9035 C   0  0  2  0  0  0  0  0  0  0  0  0
    9.6198  -15.0270   27.5015 N   0  0  0  0  0  0  0  0  0  0  0  0
    8.8878  -16.2724   27.3514 C   0  0  0  0  0  0  0  0  0  0  0  0
   10.1360  -14.8350   28.8582 O   0  0  0  0  0  0  0  0  0  0  0  0
   10.9189  -13.8868   29.1190 O   0  0  0  0  0  0  0  0  0  0  0  0
  2  4  1  0
  2  1  1  0
  3  2  2  0
  5  4  1  0
  6  5  1  0
  7  6  1  0
  7  8  1  0
  8  9  1  6
 10 11  2  0
 10  8  1  0
 12 10  1  0
 13 12  1  0
 14 15  1  0
 13 14  1  6
 15 16  1  0
 16 17  1  0
 17 18  1  0
 19 25  1  0
 19 13  1  0
 20 19  2  0
 22 21  1  6
 22 23  1  0
 22 24  1  0
 24 25  1  1
 24 26  1  0
 26 28  1  0
 27 26  2  0
M  END
$$$$
