RKT.pdb
     RDKit          3D

 28 27  0  0  1  0  0  0  0  0999 V2000
    7.0111  -12.1848   17.8888 N   0  0  0  0  0  0  0  0  0  0  0  0
    7.6970  -13.3530   17.5095 C   0  0  0  0  0  0  0  0  0  0  0  0
    7.3911  -13.9754   16.4305 N   0  0  0  0  0  0  0  0  0  0  0  0
    8.7375  -13.8227   18.3558 N   0  0  0  0  0  0  0  0  0  0  0  0
    8.9398  -13.1953   19.6451 C   0  0  0  0  0  0  0  0  0  0  0  0
    8.0057  -13.7548   20.6801 C   0  0  0  0  0  0  0  0  0  0  0  0
    8.5611  -14.9455   21.3716 C   0  0  0  0  0  0  0  0  0  0  0  0
    7.6631  -16.1126   21.5476 C   0  0  2  0  0  0  0  0  0  0  0  0
    6.3374  -15.8696   21.0438 N   0  0  0  0  0  0  0  0  0  0  0  0
    7.5650  -16.5562   22.9663 C   0  0  0  0  0  0  0  0  0  0  0  0
    6.7869  -15.9898   23.7815 O   0  0  0  0  0  0  0  0  0  0  0  0
    7.8584  -14.8211   16.0807 N   0  0  0  0  0  0  0  0  0  0  0  0
    8.3374  -17.6328   23.4718 C   0  0  1  0  0  0  0  0  0  0  0  0
    8.2106  -18.0954   24.8655 C   0  0  0  0  0  0  0  0  0  0  0  0
    8.7442  -19.4953   24.9638 C   0  0  0  0  0  0  0  0  0  0  0  0
    7.9429  -20.3213   25.9068 C   0  0  0  0  0  0  0  0  0  0  0  0
    6.4938  -20.4876   25.3947 C   0  0  0  0  0  0  0  0  0  0  0  0
    5.6835  -21.2874   26.3821 N   0  0  0  0  0  0  0  0  0  0  0  0
    5.4204  -22.6044   25.7797 C   0  0  0  0  0  0  0  0  0  0  0  0
    8.9909  -17.1598   25.6928 O   0  0  0  0  0  0  0  0  0  0  0  0
   10.0811  -16.6756   25.2230 C   0  0  0  0  0  0  0  0  0  0  0  0
    9.4911  -13.5651   28.8194 C   0  0  2  0  0  0  0  0  0  0  0  0
    8.6819  -14.5644   28.0546 O   0  0  0  0  0  0  0  0  0  0  0  0
    8.3550  -13.9965   26.8040 C   0  0  1  0  0  0  0  0  0  0  0  0
    9.4974  -15.8026   27.7503 N   0  0  0  0  0  0  0  0  0  0  0  0
    8.6612  -16.7145   26.9897 C   0  0  0  0  0  0  0  0  0  0  0  0
   10.0588  -16.4208   28.9531 O   0  0  0  0  0  0  0  0  0  0  0  0
    9.6538  -17.5440   29.3463 O   0  0  0  0  0  0  0  0  0  0  0  0
  2  4  1  0
  2  1  1  0
  3  2  2  0
  5  4  1  0
  6  5  1  0
  7  6  1  0
  7  8  1  0
  8  9  1  1
 10 11  2  0
 10  8  1  0
 12 10  1  0
 13 12  1  0
 14 15  1  0
 13 14  1  1
 15 16  1  0
 16 17  1  0
 17 18  1  0
 19 25  1  0
 19 13  1  0
 20 19  2  0
 22 21  1  1
 22 23  1  0
 22 24  1  0
 24 25  1  1
 24 26  1  0
 26 28  1  0
 27 26  2  0
M  END
$$$$
