RKT.pdb
     RDKit          3D

 28 27  0  0  1  0  0  0  0  0999 V2000
    7.9421  -14.6939   14.4004 N   0  0  0  0  0  0  0  0  0  0  0  0
    9.2299  -14.9216   14.9187 C   0  0  0  0  0  0  0  0  0  0  0  0
   10.2511  -14.9776   14.1445 N   0  0  0  0  0  0  0  0  0  0  0  0
    9.3662  -15.0876   16.3234 N   0  0  0  0  0  0  0  0  0  0  0  0
    8.1775  -15.1533   17.1479 C   0  0  0  0  0  0  0  0  0  0  0  0
    7.7816  -13.7935   17.6489 C   0  0  0  0  0  0  0  0  0  0  0  0
    7.3813  -13.8021   19.0787 C   0  0  0  0  0  0  0  0  0  0  0  0
    8.4556  -13.6424   20.0885 C   0  0  2  0  0  0  0  0  0  0  0  0
    9.7605  -13.9339   19.5569 N   0  0  0  0  0  0  0  0  0  0  0  0
    8.2337  -14.4755   21.3034 C   0  0  0  0  0  0  0  0  0  0  0  0
    7.1558  -14.4153   21.9557 O   0  0  0  0  0  0  0  0  0  0  0  0
   11.2110  -15.1901   14.4432 N   0  0  0  0  0  0  0  0  0  0  0  0
    9.2175  -15.3749   21.7875 C   0  0  1  0  0  0  0  0  0  0  0  0
    9.0064  -16.1788   23.0047 C   0  0  0  0  0  0  0  0  0  0  0  0
   10.0164  -17.2893   23.0353 C   0  0  0  0  0  0  0  0  0  0  0  0
    9.8585  -18.1391   24.2463 C   0  0  0  0  0  0  0  0  0  0  0  0
   10.8470  -19.3272   24.2149 C   0  0  0  0  0  0  0  0  0  0  0  0
   10.7030  -20.1548   25.4662 N   0  0  0  0  0  0  0  0  0  0  0  0
   11.5772  -21.3307   25.3258 C   0  0  0  0  0  0  0  0  0  0  0  0
    9.1724  -15.2650   24.1474 O   0  0  0  0  0  0  0  0  0  0  0  0
   10.1268  -14.4093   24.1253 C   0  0  0  0  0  0  0  0  0  0  0  0
    7.4626  -12.3728   27.5497 C   0  0  2  0  0  0  0  0  0  0  0  0
    7.3440  -13.3679   26.4388 O   0  0  0  0  0  0  0  0  0  0  0  0
    7.3079  -12.6583   25.2187 C   0  0  1  0  0  0  0  0  0  0  0  0
    8.5702  -14.2526   26.3710 N   0  0  0  0  0  0  0  0  0  0  0  0
    8.3681  -15.2181   25.3050 C   0  0  0  0  0  0  0  0  0  0  0  0
    8.8841  -14.8848   27.6539 O   0  0  0  0  0  0  0  0  0  0  0  0
    8.6097  -16.0945   27.8575 O   0  0  0  0  0  0  0  0  0  0  0  0
  2  4  1  0
  2  1  1  0
  3  2  2  0
  5  4  1  0
  6  5  1  0
  7  6  1  0
  7  8  1  0
  8  9  1  6
 10 11  2  0
 10  8  1  0
 12 10  1  0
 13 12  1  0
 14 15  1  0
 13 14  1  6
 15 16  1  0
 16 17  1  0
 17 18  1  0
 19 25  1  0
 19 13  1  0
 20 19  2  0
 22 21  1  1
 22 23  1  0
 22 24  1  0
 24 25  1  1
 24 26  1  0
 26 28  1  0
 27 26  2  0
M  END
$$$$
