RKT.pdb
     RDKit          3D

 28 27  0  0  1  0  0  0  0  0999 V2000
    9.6297  -17.2122   13.4432 N   0  0  0  0  0  0  0  0  0  0  0  0
   10.3675  -17.3590   12.2545 C   0  0  0  0  0  0  0  0  0  0  0  0
    9.7783  -17.5775   11.1363 N   0  0  0  0  0  0  0  0  0  0  0  0
   11.7831  -17.2585   12.3287 N   0  0  0  0  0  0  0  0  0  0  0  0
   12.4082  -16.9871   13.6064 C   0  0  0  0  0  0  0  0  0  0  0  0
   12.5583  -18.2405   14.4209 C   0  0  0  0  0  0  0  0  0  0  0  0
   13.2227  -18.0008   15.7269 C   0  0  0  0  0  0  0  0  0  0  0  0
   12.5211  -18.4720   16.9456 C   0  0  2  0  0  0  0  0  0  0  0  0
   11.1989  -18.9653   16.6651 N   0  0  0  0  0  0  0  0  0  0  0  0
   12.4302  -17.4240   18.0003 C   0  0  0  0  0  0  0  0  0  0  0  0
   13.4488  -16.7890   18.3878 O   0  0  0  0  0  0  0  0  0  0  0  0
   10.2466  -17.6620   10.2255 N   0  0  0  0  0  0  0  0  0  0  0  0
   11.2002  -17.0872   18.6207 C   0  0  1  0  0  0  0  0  0  0  0  0
   11.1165  -16.0683   19.6824 C   0  0  0  0  0  0  0  0  0  0  0  0
    9.8331  -15.3054   19.5242 C   0  0  0  0  0  0  0  0  0  0  0  0
    9.6921  -14.2504   20.5638 C   0  0  0  0  0  0  0  0  0  0  0  0
    8.3764  -13.4623   20.3702 C   0  0  0  0  0  0  0  0  0  0  0  0
    8.2677  -12.3723   21.4053 N   0  0  0  0  0  0  0  0  0  0  0  0
    7.0540  -11.5946   21.1077 C   0  0  0  0  0  0  0  0  0  0  0  0
   11.1617  -16.7909   20.9646 O   0  0  0  0  0  0  0  0  0  0  0  0
   10.5112  -17.8894   21.0821 C   0  0  0  0  0  0  0  0  0  0  0  0
   13.5068  -18.0564   25.0416 C   0  0  2  0  0  0  0  0  0  0  0  0
   13.3735  -17.2693   23.7762 O   0  0  0  0  0  0  0  0  0  0  0  0
   14.0739  -17.9545   22.7597 C   0  0  1  0  0  0  0  0  0  0  0  0
   11.9304  -17.2125   23.3232 N   0  0  0  0  0  0  0  0  0  0  0  0
   11.8696  -16.4009   22.1204 C   0  0  0  0  0  0  0  0  0  0  0  0
   11.0259  -16.7371   24.3720 O   0  0  0  0  0  0  0  0  0  0  0  0
   10.6633  -15.5341   24.4100 O   0  0  0  0  0  0  0  0  0  0  0  0
  2  4  1  0
  2  1  1  0
  3  2  2  0
  5  4  1  0
  6  5  1  0
  7  6  1  0
  7  8  1  0
  8  9  1  6
 10 11  2  0
 10  8  1  0
 12 10  1  0
 13 12  1  0
 14 15  1  0
 13 14  1  6
 15 16  1  0
 16 17  1  0
 17 18  1  0
 19 25  1  0
 19 13  1  0
 20 19  2  0
 22 21  1  1
 22 23  1  0
 22 24  1  0
 24 25  1  1
 24 26  1  0
 26 28  1  0
 27 26  2  0
M  END
$$$$
