RKT.pdb
     RDKit          3D

 28 27  0  0  1  0  0  0  0  0999 V2000
   11.0026  -15.1914   21.2178 N   0  0  0  0  0  0  0  0  0  0  0  0
   11.3351  -14.2457   20.2309 C   0  0  0  0  0  0  0  0  0  0  0  0
   12.3800  -14.3943   19.5018 N   0  0  0  0  0  0  0  0  0  0  0  0
   10.4807  -13.1223   20.0656 N   0  0  0  0  0  0  0  0  0  0  0  0
    9.2200  -13.2867   19.3723 C   0  0  0  0  0  0  0  0  0  0  0  0
    8.0708  -13.3703   20.3363 C   0  0  0  0  0  0  0  0  0  0  0  0
    7.0022  -14.2934   19.8776 C   0  0  0  0  0  0  0  0  0  0  0  0
    7.1463  -15.7285   20.2224 C   0  0  2  0  0  0  0  0  0  0  0  0
    6.0977  -16.5387   19.6618 N   0  0  0  0  0  0  0  0  0  0  0  0
    7.2042  -15.9656   21.6919 C   0  0  0  0  0  0  0  0  0  0  0  0
    6.1574  -16.0073   22.3944 O   0  0  0  0  0  0  0  0  0  0  0  0
   12.7180  -13.7189   18.8050 N   0  0  0  0  0  0  0  0  0  0  0  0
    8.4328  -16.1558   22.3743 C   0  0  2  0  0  0  0  0  0  0  0  0
    8.4827  -16.5207   23.8016 C   0  0  0  0  0  0  0  0  0  0  0  0
    9.6288  -17.4651   24.0223 C   0  0  0  0  0  0  0  0  0  0  0  0
    9.7537  -17.8485   25.4544 C   0  0  0  0  0  0  0  0  0  0  0  0
   10.9846  -18.7578   25.6732 C   0  0  0  0  0  0  0  0  0  0  0  0
   11.1249  -19.0979   27.1347 N   0  0  0  0  0  0  0  0  0  0  0  0
   12.2638  -20.0203   27.2702 C   0  0  0  0  0  0  0  0  0  0  0  0
    8.6635  -15.2662   24.5512 O   0  0  0  0  0  0  0  0  0  0  0  0
    9.5821  -14.4503   24.1850 C   0  0  0  0  0  0  0  0  0  0  0  0
    6.4716  -12.3697   25.0633 C   0  0  2  0  0  0  0  0  0  0  0  0
    6.8893  -12.8091   26.4312 O   0  0  0  0  0  0  0  0  0  0  0  0
    5.9069  -13.6951   26.9244 C   0  0  2  0  0  0  0  0  0  0  0  0
    8.1769  -13.6027   26.3754 N   0  0  0  0  0  0  0  0  0  0  0  0
    7.9099  -14.8409   25.6649 C   0  0  0  0  0  0  0  0  0  0  0  0
    8.7625  -13.8256   27.6988 O   0  0  0  0  0  0  0  0  0  0  0  0
    8.8737  -14.9881   28.1640 O   0  0  0  0  0  0  0  0  0  0  0  0
  2  4  1  0
  2  1  1  0
  3  2  2  0
  5  4  1  0
  6  5  1  0
  7  6  1  0
  7  8  1  0
  8  9  1  1
 10 11  2  0
 10  8  1  0
 12 10  1  0
 13 12  1  0
 14 15  1  0
 13 14  1  6
 15 16  1  0
 16 17  1  0
 17 18  1  0
 19 25  1  0
 19 13  1  0
 20 19  2  0
 22 21  1  1
 22 23  1  0
 22 24  1  0
 24 25  1  1
 24 26  1  0
 26 28  1  0
 27 26  2  0
M  END
$$$$
