RKT.pdb
     RDKit          3D

 28 27  0  0  1  0  0  0  0  0999 V2000
   10.0401  -18.2433   15.8026 N   0  0  0  0  0  0  0  0  0  0  0  0
    9.3601  -19.2848   15.1453 C   0  0  0  0  0  0  0  0  0  0  0  0
    9.7137  -19.6649   13.9723 N   0  0  0  0  0  0  0  0  0  0  0  0
    8.2714  -19.9025   15.8179 N   0  0  0  0  0  0  0  0  0  0  0  0
    7.8247  -19.3645   17.0860 C   0  0  0  0  0  0  0  0  0  0  0  0
    8.9853  -19.0293   17.9791 C   0  0  0  0  0  0  0  0  0  0  0  0
    8.5608  -18.5932   19.3334 C   0  0  0  0  0  0  0  0  0  0  0  0
    7.9834  -17.2333   19.4622 C   0  0  2  0  0  0  0  0  0  0  0  0
    8.1163  -16.4609   18.2555 N   0  0  0  0  0  0  0  0  0  0  0  0
    8.5699  -16.4625   20.5940 C   0  0  0  0  0  0  0  0  0  0  0  0
    9.8132  -16.2718   20.6871 O   0  0  0  0  0  0  0  0  0  0  0  0
    9.2296  -20.3737   13.4074 N   0  0  0  0  0  0  0  0  0  0  0  0
    7.7652  -15.9059   21.6206 C   0  0  1  0  0  0  0  0  0  0  0  0
    8.3507  -15.1798   22.7619 C   0  0  0  0  0  0  0  0  0  0  0  0
    7.2462  -14.5251   23.5400 C   0  0  0  0  0  0  0  0  0  0  0  0
    7.7744  -13.7597   24.7014 C   0  0  0  0  0  0  0  0  0  0  0  0
    6.6207  -13.1177   25.5054 C   0  0  0  0  0  0  0  0  0  0  0  0
    7.1749  -12.2825   26.6308 N   0  0  0  0  0  0  0  0  0  0  0  0
    6.0363  -11.6664   27.3311 C   0  0  0  0  0  0  0  0  0  0  0  0
    9.0666  -16.1779   23.5741 O   0  0  0  0  0  0  0  0  0  0  0  0
    8.4071  -17.1503   24.0870 C   0  0  0  0  0  0  0  0  0  0  0  0
   12.2247  -17.9743   22.5957 C   0  0  2  0  0  0  0  0  0  0  0  0
   12.4092  -17.5624   24.0221 O   0  0  0  0  0  0  0  0  0  0  0  0
   13.1678  -16.3717   24.0383 C   0  0  2  0  0  0  0  0  0  0  0  0
   11.0815  -17.2201   24.6630 N   0  0  0  0  0  0  0  0  0  0  0  0
   10.4478  -16.1899   23.8589 C   0  0  0  0  0  0  0  0  0  0  0  0
   11.2138  -16.8370   26.0700 O   0  0  0  0  0  0  0  0  0  0  0  0
   11.6230  -17.6631   26.9245 O   0  0  0  0  0  0  0  0  0  0  0  0
  2  4  1  0
  2  1  1  0
  3  2  2  0
  5  4  1  0
  6  5  1  0
  7  6  1  0
  7  8  1  0
  8  9  1  6
 10 11  2  0
 10  8  1  0
 12 10  1  0
 13 12  1  0
 14 15  1  0
 13 14  1  6
 15 16  1  0
 16 17  1  0
 17 18  1  0
 19 25  1  0
 19 13  1  0
 20 19  2  0
 22 21  1  1
 22 23  1  0
 22 24  1  0
 24 25  1  1
 24 26  1  0
 26 28  1  0
 27 26  2  0
M  END
$$$$
