RKT.pdb
     RDKit          3D

 28 27  0  0  1  0  0  0  0  0999 V2000
    7.4599  -12.9389   16.6788 N   0  0  0  0  0  0  0  0  0  0  0  0
    8.6043  -13.5676   17.2022 C   0  0  0  0  0  0  0  0  0  0  0  0
    9.3331  -14.3259   16.4680 N   0  0  0  0  0  0  0  0  0  0  0  0
    8.9288  -13.3383   18.5666 N   0  0  0  0  0  0  0  0  0  0  0  0
    7.8850  -12.9330   19.4848 C   0  0  0  0  0  0  0  0  0  0  0  0
    7.0371  -14.1010   19.9016 C   0  0  0  0  0  0  0  0  0  0  0  0
    7.8404  -15.2428   20.4069 C   0  0  0  0  0  0  0  0  0  0  0  0
    7.1044  -16.4535   20.8448 C   0  0  2  0  0  0  0  0  0  0  0  0
    5.8327  -16.5945   20.1866 N   0  0  0  0  0  0  0  0  0  0  0  0
    6.8911  -16.4973   22.3185 C   0  0  0  0  0  0  0  0  0  0  0  0
    5.7824  -16.1864   22.8333 O   0  0  0  0  0  0  0  0  0  0  0  0
   10.1506  -14.8575   16.7922 N   0  0  0  0  0  0  0  0  0  0  0  0
    7.9180  -16.8887   23.2149 C   0  0  2  0  0  0  0  0  0  0  0  0
    7.6878  -16.9887   24.6673 C   0  0  0  0  0  0  0  0  0  0  0  0
    8.5129  -18.1176   25.2139 C   0  0  0  0  0  0  0  0  0  0  0  0
    8.4246  -18.1916   26.6972 C   0  0  0  0  0  0  0  0  0  0  0  0
    9.3091  -19.3360   27.2428 C   0  0  0  0  0  0  0  0  0  0  0  0
    9.2889  -19.3338   28.7497 N   0  0  0  0  0  0  0  0  0  0  0  0
   10.2347  -20.3636   29.2096 C   0  0  0  0  0  0  0  0  0  0  0  0
    8.0881  -15.6958   25.2475 O   0  0  0  0  0  0  0  0  0  0  0  0
    9.1990  -15.1690   24.8843 C   0  0  0  0  0  0  0  0  0  0  0  0
    6.1704  -12.3264   25.5913 C   0  0  2  0  0  0  0  0  0  0  0  0
    6.6914  -12.7561   26.9263 O   0  0  0  0  0  0  0  0  0  0  0  0
    5.6753  -13.4902   27.5761 C   0  0  2  0  0  0  0  0  0  0  0  0
    7.8590  -13.7067   26.7715 N   0  0  0  0  0  0  0  0  0  0  0  0
    7.3593  -14.9396   26.1889 C   0  0  0  0  0  0  0  0  0  0  0  0
    8.5804  -13.9267   28.0266 O   0  0  0  0  0  0  0  0  0  0  0  0
    8.6879  -15.0816   28.5112 O   0  0  0  0  0  0  0  0  0  0  0  0
  2  4  1  0
  2  1  1  0
  3  2  2  0
  5  4  1  0
  6  5  1  0
  7  6  1  0
  7  8  1  0
  8  9  1  6
 10 11  2  0
 10  8  1  0
 12 10  1  0
 13 12  1  0
 14 15  1  0
 13 14  1  6
 15 16  1  0
 16 17  1  0
 17 18  1  0
 19 25  1  0
 19 13  1  0
 20 19  2  0
 22 21  1  1
 22 23  1  0
 22 24  1  0
 24 25  1  1
 24 26  1  0
 26 28  1  0
 27 26  2  0
M  END
$$$$
