RKT.pdb
     RDKit          3D

 28 27  0  0  1  0  0  0  0  0999 V2000
    5.7447  -17.1323   13.8416 N   0  0  0  0  0  0  0  0  0  0  0  0
    5.6956  -18.5088   14.1279 C   0  0  0  0  0  0  0  0  0  0  0  0
    4.9743  -19.3025   13.4242 N   0  0  0  0  0  0  0  0  0  0  0  0
    6.4674  -18.9935   15.2182 N   0  0  0  0  0  0  0  0  0  0  0  0
    7.1732  -18.0510   16.0611 C   0  0  0  0  0  0  0  0  0  0  0  0
    7.9748  -18.7547   17.1190 C   0  0  0  0  0  0  0  0  0  0  0  0
    8.5681  -17.8192   18.1076 C   0  0  0  0  0  0  0  0  0  0  0  0
    9.3956  -18.4052   19.1898 C   0  0  2  0  0  0  0  0  0  0  0  0
    9.8860  -19.7173   18.8605 N   0  0  0  0  0  0  0  0  0  0  0  0
    8.6770  -18.4731   20.4929 C   0  0  0  0  0  0  0  0  0  0  0  0
    8.1244  -17.4562   20.9944 O   0  0  0  0  0  0  0  0  0  0  0  0
    4.9449  -20.3246   13.5260 N   0  0  0  0  0  0  0  0  0  0  0  0
    8.5771  -19.6782   21.2339 C   0  0  1  0  0  0  0  0  0  0  0  0
    7.7396  -19.7825   22.4422 C   0  0  0  0  0  0  0  0  0  0  0  0
    7.3846  -21.2242   22.6650 C   0  0  0  0  0  0  0  0  0  0  0  0
    6.5272  -21.3969   23.8685 C   0  0  0  0  0  0  0  0  0  0  0  0
    6.2081  -22.8910   24.1046 C   0  0  0  0  0  0  0  0  0  0  0  0
    5.3407  -23.0492   25.3268 N   0  0  0  0  0  0  0  0  0  0  0  0
    6.1881  -23.5746   26.4096 C   0  0  0  0  0  0  0  0  0  0  0  0
    8.5378  -19.2437   23.5562 O   0  0  0  0  0  0  0  0  0  0  0  0
    9.7768  -19.5615   23.6435 C   0  0  0  0  0  0  0  0  0  0  0  0
    9.4193  -15.8390   24.2351 C   0  0  2  0  0  0  0  0  0  0  0  0
    8.8833  -16.3375   25.5400 O   0  0  0  0  0  0  0  0  0  0  0  0
    7.5136  -16.0014   25.6066 C   0  0  2  0  0  0  0  0  0  0  0  0
    8.9463  -17.8481   25.6097 N   0  0  0  0  0  0  0  0  0  0  0  0
    8.0794  -18.3813   24.5736 C   0  0  0  0  0  0  0  0  0  0  0  0
    8.6226  -18.3676   26.9399 O   0  0  0  0  0  0  0  0  0  0  0  0
    7.5648  -19.0181   27.1350 O   0  0  0  0  0  0  0  0  0  0  0  0
  2  4  1  0
  2  1  1  0
  3  2  2  0
  5  4  1  0
  6  5  1  0
  7  6  1  0
  7  8  1  0
  8  9  1  6
 10 11  2  0
 10  8  1  0
 12 10  1  0
 13 12  1  0
 14 15  1  0
 13 14  1  1
 15 16  1  0
 16 17  1  0
 17 18  1  0
 19 25  1  0
 19 13  1  0
 20 19  2  0
 22 21  1  1
 22 23  1  0
 22 24  1  0
 24 25  1  1
 24 26  1  0
 26 28  1  0
 27 26  2  0
M  END
$$$$
