RKT.pdb
     RDKit          3D

 28 27  0  0  1  0  0  0  0  0999 V2000
    7.0267  -12.9238   15.3913 N   0  0  0  0  0  0  0  0  0  0  0  0
    8.2857  -13.5423   15.4982 C   0  0  0  0  0  0  0  0  0  0  0  0
    9.2071  -13.3139   14.6355 N   0  0  0  0  0  0  0  0  0  0  0  0
    8.5064  -14.4266   16.5885 N   0  0  0  0  0  0  0  0  0  0  0  0
    7.4019  -14.7639   17.4621 C   0  0  0  0  0  0  0  0  0  0  0  0
    7.1327  -13.6682   18.4541 C   0  0  0  0  0  0  0  0  0  0  0  0
    8.0644  -13.6979   19.6098 C   0  0  0  0  0  0  0  0  0  0  0  0
    8.2618  -14.9992   20.2932 C   0  0  2  0  0  0  0  0  0  0  0  0
    7.0260  -15.5719   20.7571 N   0  0  0  0  0  0  0  0  0  0  0  0
    9.2111  -14.9114   21.4379 C   0  0  0  0  0  0  0  0  0  0  0  0
   10.3032  -14.2877   21.3418 O   0  0  0  0  0  0  0  0  0  0  0  0
   10.1303  -13.7647   14.6203 N   0  0  0  0  0  0  0  0  0  0  0  0
    8.9381  -15.5212   22.6888 C   0  0  1  0  0  0  0  0  0  0  0  0
    9.8461  -15.3763   23.8407 C   0  0  0  0  0  0  0  0  0  0  0  0
    9.0510  -14.9311   25.0339 C   0  0  0  0  0  0  0  0  0  0  0  0
    9.9009  -14.8294   26.2508 C   0  0  0  0  0  0  0  0  0  0  0  0
    9.0837  -14.2896   27.4468 C   0  0  0  0  0  0  0  0  0  0  0  0
    9.9569  -14.1961   28.6715 N   0  0  0  0  0  0  0  0  0  0  0  0
    9.1309  -13.6657   29.7683 C   0  0  0  0  0  0  0  0  0  0  0  0
   10.4602  -16.6963   24.0619 O   0  0  0  0  0  0  0  0  0  0  0  0
    9.7008  -17.7209   24.1930 C   0  0  0  0  0  0  0  0  0  0  0  0
   14.3408  -19.7451   23.9858 C   0  0  2  0  0  0  0  0  0  0  0  0
   13.7316  -18.3984   23.7542 O   0  0  0  0  0  0  0  0  0  0  0  0
   13.5154  -18.2496   22.3669 C   0  0  1  0  0  0  0  0  0  0  0  0
   12.3670  -18.3027   24.4019 N   0  0  0  0  0  0  0  0  0  0  0  0
   11.8405  -16.9739   24.1440 C   0  0  0  0  0  0  0  0  0  0  0  0
   12.3926  -18.6332   25.8281 O   0  0  0  0  0  0  0  0  0  0  0  0
   12.7031  -17.7653   26.6827 O   0  0  0  0  0  0  0  0  0  0  0  0
  2  4  1  0
  2  1  1  0
  3  2  2  0
  5  4  1  0
  6  5  1  0
  7  6  1  0
  7  8  1  0
  8  9  1  1
 10 11  2  0
 10  8  1  0
 12 10  1  0
 13 12  1  0
 14 15  1  0
 13 14  1  1
 15 16  1  0
 16 17  1  0
 17 18  1  0
 19 25  1  0
 19 13  1  0
 20 19  2  0
 22 21  1  6
 22 23  1  0
 22 24  1  0
 24 25  1  1
 24 26  1  0
 26 28  1  0
 27 26  2  0
M  END
$$$$
