RKT.pdb
     RDKit          3D

 28 27  0  0  1  0  0  0  0  0999 V2000
    9.3994  -13.6681   17.7088 N   0  0  0  0  0  0  0  0  0  0  0  0
    9.2556  -12.7171   18.7353 C   0  0  0  0  0  0  0  0  0  0  0  0
   10.2359  -11.9639   19.0774 N   0  0  0  0  0  0  0  0  0  0  0  0
    7.9941  -12.6155   19.3815 N   0  0  0  0  0  0  0  0  0  0  0  0
    6.9543  -13.5708   19.0603 C   0  0  0  0  0  0  0  0  0  0  0  0
    7.4025  -14.9797   19.3269 C   0  0  0  0  0  0  0  0  0  0  0  0
    7.3605  -15.3329   20.7684 C   0  0  0  0  0  0  0  0  0  0  0  0
    7.7842  -16.7025   21.1476 C   0  0  2  0  0  0  0  0  0  0  0  0
    6.8937  -17.7147   20.6448 N   0  0  0  0  0  0  0  0  0  0  0  0
    7.9267  -16.8753   22.6204 C   0  0  0  0  0  0  0  0  0  0  0  0
    6.9329  -17.1348   23.3525 O   0  0  0  0  0  0  0  0  0  0  0  0
   10.1891  -11.2083   19.7722 N   0  0  0  0  0  0  0  0  0  0  0  0
    9.1803  -16.7576   23.2728 C   0  0  2  0  0  0  0  0  0  0  0  0
    9.3463  -17.0707   24.7035 C   0  0  0  0  0  0  0  0  0  0  0  0
   10.5849  -17.9009   24.8791 C   0  0  0  0  0  0  0  0  0  0  0  0
   10.5604  -18.6558   26.1609 C   0  0  0  0  0  0  0  0  0  0  0  0
   11.8794  -19.4361   26.3630 C   0  0  0  0  0  0  0  0  0  0  0  0
   11.9016  -20.0721   27.7291 N   0  0  0  0  0  0  0  0  0  0  0  0
   13.2138  -20.7169   27.8993 C   0  0  0  0  0  0  0  0  0  0  0  0
    9.4548  -15.7818   25.4072 O   0  0  0  0  0  0  0  0  0  0  0  0
   10.2748  -14.9003   24.9666 C   0  0  0  0  0  0  0  0  0  0  0  0
    7.3468  -12.8903   25.8910 C   0  0  2  0  0  0  0  0  0  0  0  0
    7.7030  -13.3432   27.2717 O   0  0  0  0  0  0  0  0  0  0  0  0
    6.6922  -14.2225   27.7174 C   0  0  2  0  0  0  0  0  0  0  0  0
    8.9838  -14.1497   27.2636 N   0  0  0  0  0  0  0  0  0  0  0  0
    8.7287  -15.3890   26.5507 C   0  0  0  0  0  0  0  0  0  0  0  0
    9.5221  -14.3712   28.6071 O   0  0  0  0  0  0  0  0  0  0  0  0
    9.8875  -13.4025   29.3200 O   0  0  0  0  0  0  0  0  0  0  0  0
  2  4  1  0
  2  1  1  0
  3  2  2  0
  5  4  1  0
  6  5  1  0
  7  6  1  0
  7  8  1  0
  8  9  1  1
 10 11  2  0
 10  8  1  0
 12 10  1  0
 13 12  1  0
 14 15  1  0
 13 14  1  6
 15 16  1  0
 16 17  1  0
 17 18  1  0
 19 25  1  0
 19 13  1  0
 20 19  2  0
 22 21  1  1
 22 23  1  0
 22 24  1  0
 24 25  1  1
 24 26  1  0
 26 28  1  0
 27 26  2  0
M  END
$$$$
