RKT.pdb
     RDKit          3D

 28 27  0  0  1  0  0  0  0  0999 V2000
    8.1121  -14.3158   15.6851 N   0  0  0  0  0  0  0  0  0  0  0  0
    8.4077  -13.9619   17.0142 C   0  0  0  0  0  0  0  0  0  0  0  0
    8.8540  -12.7941   17.3011 N   0  0  0  0  0  0  0  0  0  0  0  0
    8.1978  -14.9350   18.0283 N   0  0  0  0  0  0  0  0  0  0  0  0
    8.3983  -14.5682   19.4147 C   0  0  0  0  0  0  0  0  0  0  0  0
    7.1824  -13.8953   19.9855 C   0  0  0  0  0  0  0  0  0  0  0  0
    6.8120  -14.4183   21.3248 C   0  0  0  0  0  0  0  0  0  0  0  0
    7.0661  -15.8550   21.5901 C   0  0  2  0  0  0  0  0  0  0  0  0
    6.1453  -16.7157   20.8960 N   0  0  0  0  0  0  0  0  0  0  0  0
    7.0349  -16.1878   23.0418 C   0  0  0  0  0  0  0  0  0  0  0  0
    6.1320  -15.7411   23.8010 O   0  0  0  0  0  0  0  0  0  0  0  0
    9.0161  -12.4379   18.2512 N   0  0  0  0  0  0  0  0  0  0  0  0
    8.0133  -17.0199   23.6430 C   0  0  2  0  0  0  0  0  0  0  0  0
    7.9864  -17.3399   25.0816 C   0  0  0  0  0  0  0  0  0  0  0  0
    8.2719  -18.8030   25.2598 C   0  0  0  0  0  0  0  0  0  0  0  0
    8.2652  -19.1908   26.6962 C   0  0  0  0  0  0  0  0  0  0  0  0
    8.6088  -20.6889   26.8613 C   0  0  0  0  0  0  0  0  0  0  0  0
    8.6309  -21.0579   28.3223 N   0  0  0  0  0  0  0  0  0  0  0  0
    8.8193  -22.5150   28.4111 C   0  0  0  0  0  0  0  0  0  0  0  0
    9.0194  -16.5057   25.7183 O   0  0  0  0  0  0  0  0  0  0  0  0
   10.1675  -16.4022   25.1573 C   0  0  0  0  0  0  0  0  0  0  0  0
    8.9835  -12.8642   26.8283 C   0  0  2  0  0  0  0  0  0  0  0  0
    9.4291  -13.6985   27.9875 O   0  0  0  0  0  0  0  0  0  0  0  0
    8.2941  -13.9981   28.7721 C   0  0  2  0  0  0  0  0  0  0  0  0
    9.9753  -15.0298   27.5183 N   0  0  0  0  0  0  0  0  0  0  0  0
    8.8835  -15.7757   26.9174 C   0  0  0  0  0  0  0  0  0  0  0  0
   10.6479  -15.7738   28.5852 O   0  0  0  0  0  0  0  0  0  0  0  0
   10.2233  -16.8997   28.9487 O   0  0  0  0  0  0  0  0  0  0  0  0
  2  4  1  0
  2  1  1  0
  3  2  2  0
  5  4  1  0
  6  5  1  0
  7  6  1  0
  7  8  1  0
  8  9  1  6
 10 11  2  0
 10  8  1  0
 12 10  1  0
 13 12  1  0
 14 15  1  0
 13 14  1  6
 15 16  1  0
 16 17  1  0
 17 18  1  0
 19 25  1  0
 19 13  1  0
 20 19  2  0
 22 21  1  1
 22 23  1  0
 22 24  1  0
 24 25  1  1
 24 26  1  0
 26 28  1  0
 27 26  2  0
M  END
$$$$
