RKT.pdb
     RDKit          3D

 28 27  0  0  1  0  0  0  0  0999 V2000
    8.1316  -15.4471   14.1744 N   0  0  0  0  0  0  0  0  0  0  0  0
    7.9720  -14.0551   14.0488 C   0  0  0  0  0  0  0  0  0  0  0  0
    7.6464  -13.5282   12.9255 N   0  0  0  0  0  0  0  0  0  0  0  0
    8.1821  -13.2507   15.2012 N   0  0  0  0  0  0  0  0  0  0  0  0
    8.9000  -13.8042   16.3305 C   0  0  0  0  0  0  0  0  0  0  0  0
    8.0037  -13.9637   17.5255 C   0  0  0  0  0  0  0  0  0  0  0  0
    8.7346  -13.8420   18.8122 C   0  0  0  0  0  0  0  0  0  0  0  0
    8.6740  -14.9952   19.7426 C   0  0  2  0  0  0  0  0  0  0  0  0
    7.3853  -15.6351   19.7451 N   0  0  0  0  0  0  0  0  0  0  0  0
    9.0314  -14.6273   21.1412 C   0  0  0  0  0  0  0  0  0  0  0  0
   10.1660  -14.1577   21.4296 O   0  0  0  0  0  0  0  0  0  0  0  0
    7.5784  -12.5197   12.7409 N   0  0  0  0  0  0  0  0  0  0  0  0
    8.1196  -14.7850   22.2158 C   0  0  1  0  0  0  0  0  0  0  0  0
    8.4761  -14.4229   23.5994 C   0  0  0  0  0  0  0  0  0  0  0  0
    7.3035  -13.7389   24.2407 C   0  0  0  0  0  0  0  0  0  0  0  0
    7.6155  -13.3049   25.6291 C   0  0  0  0  0  0  0  0  0  0  0  0
    6.4348  -12.5110   26.2338 C   0  0  0  0  0  0  0  0  0  0  0  0
    6.7495  -12.1145   27.6533 N   0  0  0  0  0  0  0  0  0  0  0  0
    5.5797  -11.3966   28.1851 C   0  0  0  0  0  0  0  0  0  0  0  0
    8.8137  -15.6789   24.2901 O   0  0  0  0  0  0  0  0  0  0  0  0
    8.1758  -16.7477   23.9833 C   0  0  0  0  0  0  0  0  0  0  0  0
   11.7467  -18.9990   25.7266 C   0  0  2  0  0  0  0  0  0  0  0  0
   11.2299  -17.7617   25.0630 O   0  0  0  0  0  0  0  0  0  0  0  0
   10.6510  -18.1362   23.8308 C   0  0  1  0  0  0  0  0  0  0  0  0
   10.1157  -17.1369   25.8747 N   0  0  0  0  0  0  0  0  0  0  0  0
    9.7994  -15.8481   25.2846 C   0  0  0  0  0  0  0  0  0  0  0  0
   10.4380  -17.0418   27.2999 O   0  0  0  0  0  0  0  0  0  0  0  0
   10.6052  -18.0786   27.9907 O   0  0  0  0  0  0  0  0  0  0  0  0
  2  4  1  0
  2  1  1  0
  3  2  2  0
  5  4  1  0
  6  5  1  0
  7  6  1  0
  7  8  1  0
  8  9  1  1
 10 11  2  0
 10  8  1  0
 12 10  1  0
 13 12  1  0
 14 15  1  0
 13 14  1  1
 15 16  1  0
 16 17  1  0
 17 18  1  0
 19 25  1  0
 19 13  1  0
 20 19  2  0
 22 21  1  6
 22 23  1  0
 22 24  1  0
 24 25  1  6
 24 26  1  0
 26 28  1  0
 27 26  2  0
M  END
$$$$
