HRL.pdb
     RDKit          3D

 30 30  0  0  1  0  0  0  0  0999 V2000
    9.4201  -15.4697   19.5175 N   0  0  0  0  0  0  0  0  0  0  0  0
    8.4531  -14.6377   20.1822 C   0  0  1  0  0  0  0  0  0  0  0  0
    7.1605  -14.6220   19.3365 C   0  0  0  0  0  0  0  0  0  0  0  0
    7.4987  -14.2257   17.9354 C   0  0  0  0  0  0  0  0  0  0  0  0
    7.8713  -12.9692   17.5182 C   0  0  0  0  0  0  0  0  0  0  0  0
    8.0848  -12.9984   16.1935 N   0  0  0  0  0  0  0  0  0  0  0  0
    7.8567  -14.2417   15.7598 C   0  0  0  0  0  0  0  0  0  0  0  0
    7.4964  -14.9884   16.8421 N   0  0  0  0  0  0  0  0  0  0  0  0
    8.1062  -15.2639   21.4926 C   0  0  0  0  0  0  0  0  0  0  0  0
    7.0013  -15.1015   22.0691 O   0  0  0  0  0  0  0  0  0  0  0  0
   11.0062  -19.4395   19.9635 N   0  0  0  0  0  0  0  0  0  0  0  0
   10.3399  -20.6682   20.0933 C   0  0  0  0  0  0  0  0  0  0  0  0
   10.0985  -21.3827   19.0519 N   0  0  0  0  0  0  0  0  0  0  0  0
    9.9395  -21.1042   21.3923 N   0  0  0  0  0  0  0  0  0  0  0  0
   10.1212  -20.1996   22.5052 C   0  0  0  0  0  0  0  0  0  0  0  0
    9.3506  -18.9280   22.3192 C   0  0  0  0  0  0  0  0  0  0  0  0
    9.5490  -18.0684   23.5609 C   0  0  0  0  0  0  0  0  0  0  0  0
    8.7728  -16.7518   23.4218 C   0  0  2  0  0  0  0  0  0  0  0  0
    9.0505  -16.1115   22.1785 N   0  0  0  0  0  0  0  0  0  0  0  0
    9.2001  -15.9431   24.6019 C   0  0  0  0  0  0  0  0  0  0  0  0
   10.3706  -15.4504   24.6335 O   0  0  0  0  0  0  0  0  0  0  0  0
    9.6244  -22.3010   19.1691 C   0  0  0  0  0  0  0  0  0  0  0  0
    8.8238  -11.8090   25.8552 C   0  0  2  0  0  0  0  0  0  0  0  0
    7.7205  -12.7396   26.1767 C   0  0  0  0  0  0  0  0  0  0  0  0
    6.4256  -11.9729   26.5327 C   0  0  0  0  0  0  0  0  0  0  0  0
    7.9423  -13.8218   27.1571 C   0  0  2  0  0  0  0  0  0  0  0  0
    8.9013  -14.9049   26.8471 N   0  0  0  0  0  0  0  0  0  0  0  0
    8.3556  -15.6919   25.7013 C   0  0  0  0  0  0  0  0  0  0  0  0
    9.2793  -15.8433   27.9083 O   0  0  0  0  0  0  0  0  0  0  0  0
    9.0660  -17.1978   27.9095 O   0  0  0  0  0  0  0  0  0  0  0  0
  2  1  1  6
  2  3  1  0
  2  9  1  0
  3  4  1  0
  4  8  1  0
  4  5  2  0
  5  6  1  0
  7  6  1  0
  8  7  2  0
  9 10  2  0
 12 11  1  0
 12 14  1  0
 13 12  2  0
 15 14  1  0
 15 16  1  0
 17 16  1  0
 18 17  1  6
 18 20  1  0
 19 18  1  0
 19  9  1  0
 20 21  2  0
 23 22  1  6
 23 25  1  0
 24 23  1  0
 26 25  1  6
 26 28  1  0
 27 26  1  0
 27 20  1  0
 28 30  2  0
 28 29  1  0
M  END
$$$$
