HRL.pdb
     RDKit          3D

 30 30  0  0  1  0  0  0  0  0999 V2000
   10.7949  -19.1783   20.9455 N   0  0  0  0  0  0  0  0  0  0  0  0
   11.8794  -18.2447   21.0909 C   0  0  1  0  0  0  0  0  0  0  0  0
   12.6248  -18.1497   19.7411 C   0  0  0  0  0  0  0  0  0  0  0  0
   13.1619  -19.4982   19.3842 C   0  0  0  0  0  0  0  0  0  0  0  0
   14.3209  -20.0603   19.8664 C   0  0  0  0  0  0  0  0  0  0  0  0
   14.4771  -21.2728   19.3125 N   0  0  0  0  0  0  0  0  0  0  0  0
   13.4464  -21.4939   18.4909 C   0  0  0  0  0  0  0  0  0  0  0  0
   12.6433  -20.3934   18.5437 N   0  0  0  0  0  0  0  0  0  0  0  0
   11.3101  -16.8923   21.3678 C   0  0  0  0  0  0  0  0  0  0  0  0
   11.9926  -15.8371   21.3624 O   0  0  0  0  0  0  0  0  0  0  0  0
    7.4124  -12.9842   17.7369 N   0  0  0  0  0  0  0  0  0  0  0  0
    8.0380  -14.0694   17.1035 C   0  0  0  0  0  0  0  0  0  0  0  0
    8.4902  -13.9427   15.9066 N   0  0  0  0  0  0  0  0  0  0  0  0
    8.1607  -15.3047   17.8084 N   0  0  0  0  0  0  0  0  0  0  0  0
    7.4676  -15.4465   19.0690 C   0  0  0  0  0  0  0  0  0  0  0  0
    8.0551  -14.5645   20.1284 C   0  0  0  0  0  0  0  0  0  0  0  0
    7.9392  -15.2875   21.4640 C   0  0  0  0  0  0  0  0  0  0  0  0
    9.3313  -15.4919   22.0770 C   0  0  2  0  0  0  0  0  0  0  0  0
    9.9075  -16.7282   21.6619 N   0  0  0  0  0  0  0  0  0  0  0  0
    9.1014  -15.4218   23.5506 C   0  0  0  0  0  0  0  0  0  0  0  0
    8.5704  -16.4081   24.1497 O   0  0  0  0  0  0  0  0  0  0  0  0
    8.9991  -14.7394   15.4727 C   0  0  0  0  0  0  0  0  0  0  0  0
    5.4179  -12.1622   26.2265 C   0  0  1  0  0  0  0  0  0  0  0  0
    6.6999  -12.8436   26.5072 C   0  0  0  0  0  0  0  0  0  0  0  0
    7.4952  -12.1098   27.6120 C   0  0  0  0  0  0  0  0  0  0  0  0
    7.6030  -13.1863   25.3898 C   0  0  2  0  0  0  0  0  0  0  0  0
    8.7501  -14.0901   25.6269 N   0  0  0  0  0  0  0  0  0  0  0  0
    9.4517  -14.2984   24.3252 C   0  0  0  0  0  0  0  0  0  0  0  0
    8.5057  -15.4036   26.2306 O   0  0  0  0  0  0  0  0  0  0  0  0
    9.0018  -15.8532   27.4272 O   0  0  0  0  0  0  0  0  0  0  0  0
  2  1  1  6
  2  3  1  0
  2  9  1  0
  3  4  1  0
  4  8  1  0
  4  5  2  0
  5  6  1  0
  7  6  1  0
  8  7  2  0
  9 10  2  0
 12 11  1  0
 12 14  1  0
 13 12  2  0
 15 14  1  0
 15 16  1  0
 17 16  1  0
 18 17  1  6
 18 20  1  0
 19 18  1  0
 19  9  1  0
 20 21  2  0
 23 22  1  1
 23 25  1  0
 24 23  1  0
 26 25  1  1
 26 28  1  0
 27 26  1  0
 27 20  1  0
 28 30  2  0
 28 29  1  0
M  END
$$$$
