HRL.pdb
     RDKit          3D

 30 30  0  0  1  0  0  0  0  0999 V2000
   13.4510  -17.6585   20.9847 N   0  0  0  0  0  0  0  0  0  0  0  0
   12.8314  -18.0013   22.2368 C   0  0  1  0  0  0  0  0  0  0  0  0
   13.9377  -18.1396   23.3061 C   0  0  0  0  0  0  0  0  0  0  0  0
   14.6010  -19.4704   23.1528 C   0  0  0  0  0  0  0  0  0  0  0  0
   14.0363  -20.6925   23.4346 C   0  0  0  0  0  0  0  0  0  0  0  0
   14.9375  -21.6544   23.1821 N   0  0  0  0  0  0  0  0  0  0  0  0
   16.0598  -21.0733   22.7474 C   0  0  0  0  0  0  0  0  0  0  0  0
   15.8400  -19.7278   22.7339 N   0  0  0  0  0  0  0  0  0  0  0  0
   11.9570  -16.8680   22.6618 C   0  0  0  0  0  0  0  0  0  0  0  0
   12.3532  -15.9173   23.3819 O   0  0  0  0  0  0  0  0  0  0  0  0
    7.7146  -15.1729   18.5620 N   0  0  0  0  0  0  0  0  0  0  0  0
    7.5542  -13.7920   18.7563 C   0  0  0  0  0  0  0  0  0  0  0  0
    8.0270  -12.9617   17.8959 N   0  0  0  0  0  0  0  0  0  0  0  0
    6.8623  -13.3326   19.9174 N   0  0  0  0  0  0  0  0  0  0  0  0
    6.5853  -14.2828   20.9710 C   0  0  0  0  0  0  0  0  0  0  0  0
    7.7127  -14.3662   21.9546 C   0  0  0  0  0  0  0  0  0  0  0  0
    8.5644  -15.5772   21.5966 C   0  0  0  0  0  0  0  0  0  0  0  0
    9.6904  -15.7540   22.6244 C   0  0  2  0  0  0  0  0  0  0  0  0
   10.5751  -16.8084   22.2525 N   0  0  0  0  0  0  0  0  0  0  0  0
    8.9800  -16.0160   23.9112 C   0  0  0  0  0  0  0  0  0  0  0  0
    8.7237  -17.2122   24.2535 O   0  0  0  0  0  0  0  0  0  0  0  0
    7.9131  -11.9416   18.0641 C   0  0  0  0  0  0  0  0  0  0  0  0
    8.6980  -12.7903   27.7546 C   0  0  2  0  0  0  0  0  0  0  0  0
    7.6974  -12.8918   26.6705 C   0  0  0  0  0  0  0  0  0  0  0  0
    6.6504  -11.7576   26.7654 C   0  0  0  0  0  0  0  0  0  0  0  0
    7.0147  -14.1787   26.4270 C   0  0  2  0  0  0  0  0  0  0  0  0
    7.8037  -15.3576   26.0066 N   0  0  0  0  0  0  0  0  0  0  0  0
    8.5738  -14.9860   24.7824 C   0  0  0  0  0  0  0  0  0  0  0  0
    7.1070  -16.6206   25.7436 O   0  0  0  0  0  0  0  0  0  0  0  0
    6.6682  -17.0681   24.5241 O   0  0  0  0  0  0  0  0  0  0  0  0
  2  1  1  6
  2  3  1  0
  2  9  1  0
  3  4  1  0
  4  8  1  0
  4  5  2  0
  5  6  1  0
  7  6  1  0
  8  7  2  0
  9 10  2  0
 12 11  1  0
 12 14  1  0
 13 12  2  0
 15 14  1  0
 15 16  1  0
 17 16  1  0
 18 17  1  6
 18 20  1  0
 19 18  1  0
 19  9  1  0
 20 21  2  0
 23 22  1  6
 23 25  1  0
 24 23  1  0
 26 25  1  1
 26 28  1  0
 27 26  1  0
 27 20  1  0
 28 30  2  0
 28 29  1  0
M  END
$$$$
