HRL.pdb
     RDKit          3D

 30 30  0  0  1  0  0  0  0  0999 V2000
    6.6408  -21.0891   23.9244 N   0  0  0  0  0  0  0  0  0  0  0  0
    6.7561  -19.8192   24.5901 C   0  0  1  0  0  0  0  0  0  0  0  0
    7.6052  -20.0132   25.8660 C   0  0  0  0  0  0  0  0  0  0  0  0
    6.9351  -21.0147   26.7506 C   0  0  0  0  0  0  0  0  0  0  0  0
    5.6840  -20.8912   27.3087 C   0  0  0  0  0  0  0  0  0  0  0  0
    5.4296  -21.9829   28.0467 N   0  0  0  0  0  0  0  0  0  0  0  0
    6.4878  -22.7957   27.9710 C   0  0  0  0  0  0  0  0  0  0  0  0
    7.4085  -22.1881   27.1698 N   0  0  0  0  0  0  0  0  0  0  0  0
    7.5117  -18.8839   23.7047 C   0  0  0  0  0  0  0  0  0  0  0  0
    8.7310  -19.0186   23.4316 O   0  0  0  0  0  0  0  0  0  0  0  0
    7.1115  -12.9546   17.9743 N   0  0  0  0  0  0  0  0  0  0  0  0
    8.2018  -13.6831   18.4751 C   0  0  0  0  0  0  0  0  0  0  0  0
    9.1790  -13.9941   17.6994 N   0  0  0  0  0  0  0  0  0  0  0  0
    8.2038  -14.0680   19.8498 N   0  0  0  0  0  0  0  0  0  0  0  0
    7.0455  -13.7472   20.6531 C   0  0  0  0  0  0  0  0  0  0  0  0
    7.2411  -14.1311   22.0883 C   0  0  0  0  0  0  0  0  0  0  0  0
    6.5203  -15.4514   22.3275 C   0  0  0  0  0  0  0  0  0  0  0  0
    7.4909  -16.4844   22.9160 C   0  0  2  0  0  0  0  0  0  0  0  0
    6.8578  -17.7483   23.1017 N   0  0  0  0  0  0  0  0  0  0  0  0
    7.9539  -15.8710   24.1961 C   0  0  0  0  0  0  0  0  0  0  0  0
    7.3005  -14.9056   24.7009 O   0  0  0  0  0  0  0  0  0  0  0  0
    9.9782  -14.5351   18.0872 C   0  0  0  0  0  0  0  0  0  0  0  0
    9.7371  -14.5500   29.3457 C   0  0  1  0  0  0  0  0  0  0  0  0
    9.7946  -14.1465   27.9243 C   0  0  0  0  0  0  0  0  0  0  0  0
    9.3352  -12.6816   27.7379 C   0  0  0  0  0  0  0  0  0  0  0  0
    9.1613  -14.9997   26.8983 C   0  0  2  0  0  0  0  0  0  0  0  0
    9.8966  -15.3162   25.6541 N   0  0  0  0  0  0  0  0  0  0  0  0
    9.0978  -16.3176   24.8867 C   0  0  0  0  0  0  0  0  0  0  0  0
   11.2752  -15.8062   25.7498 O   0  0  0  0  0  0  0  0  0  0  0  0
   12.4115  -15.0390   25.7616 O   0  0  0  0  0  0  0  0  0  0  0  0
  2  1  1  6
  2  3  1  0
  2  9  1  0
  3  4  1  0
  4  8  1  0
  4  5  2  0
  5  6  1  0
  7  6  1  0
  8  7  2  0
  9 10  2  0
 12 11  1  0
 12 14  1  0
 13 12  2  0
 15 14  1  0
 15 16  1  0
 17 16  1  0
 18 17  1  1
 18 20  1  0
 19 18  1  0
 19  9  1  0
 20 21  2  0
 23 22  1  1
 23 25  1  0
 24 23  1  0
 26 25  1  6
 26 28  1  0
 27 26  1  0
 27 20  1  0
 28 30  2  0
 28 29  1  0
M  END
$$$$
