HRL.pdb
     RDKit          3D

 30 30  0  0  1  0  0  0  0  0999 V2000
    8.2379  -16.7989   18.9686 N   0  0  0  0  0  0  0  0  0  0  0  0
    8.2100  -15.6409   19.8214 C   0  0  1  0  0  0  0  0  0  0  0  0
    7.1907  -14.6344   19.2431 C   0  0  0  0  0  0  0  0  0  0  0  0
    7.6654  -14.1749   17.9022 C   0  0  0  0  0  0  0  0  0  0  0  0
    8.5418  -13.1417   17.6653 C   0  0  0  0  0  0  0  0  0  0  0  0
    8.7209  -13.0210   16.3408 N   0  0  0  0  0  0  0  0  0  0  0  0
    7.9800  -13.9515   15.7313 C   0  0  0  0  0  0  0  0  0  0  0  0
    7.3345  -14.6559   16.7039 N   0  0  0  0  0  0  0  0  0  0  0  0
    7.7011  -16.0501   21.1642 C   0  0  0  0  0  0  0  0  0  0  0  0
    6.4972  -16.3260   21.3962 O   0  0  0  0  0  0  0  0  0  0  0  0
   10.4323  -19.6009   19.2938 N   0  0  0  0  0  0  0  0  0  0  0  0
   11.3950  -19.8641   20.2809 C   0  0  0  0  0  0  0  0  0  0  0  0
   12.3489  -20.6933   20.0449 N   0  0  0  0  0  0  0  0  0  0  0  0
   11.2946  -19.1988   21.5400 N   0  0  0  0  0  0  0  0  0  0  0  0
    9.9792  -18.9901   22.1019 C   0  0  0  0  0  0  0  0  0  0  0  0
   10.0408  -18.2370   23.3960 C   0  0  0  0  0  0  0  0  0  0  0  0
    8.6147  -18.0132   23.8817 C   0  0  0  0  0  0  0  0  0  0  0  0
    8.1769  -16.5715   23.5894 C   0  0  2  0  0  0  0  0  0  0  0  0
    8.5945  -16.1525   22.2921 N   0  0  0  0  0  0  0  0  0  0  0  0
    8.7916  -15.7676   24.6872 C   0  0  0  0  0  0  0  0  0  0  0  0
   10.0354  -15.5114   24.6557 O   0  0  0  0  0  0  0  0  0  0  0  0
   13.0506  -20.8802   20.7896 C   0  0  0  0  0  0  0  0  0  0  0  0
    8.1033  -11.6943   25.4340 C   0  0  2  0  0  0  0  0  0  0  0  0
    7.2476  -12.5047   26.3273 C   0  0  0  0  0  0  0  0  0  0  0  0
    6.1906  -11.6283   27.0386 C   0  0  0  0  0  0  0  0  0  0  0  0
    7.8736  -13.4187   27.3042 C   0  0  2  0  0  0  0  0  0  0  0  0
    8.7712  -14.4945   26.8289 N   0  0  0  0  0  0  0  0  0  0  0  0
    8.0490  -15.2675   25.7750 C   0  0  0  0  0  0  0  0  0  0  0  0
    9.3160  -15.4459   27.8024 O   0  0  0  0  0  0  0  0  0  0  0  0
    9.1297  -16.8044   27.8029 O   0  0  0  0  0  0  0  0  0  0  0  0
  2  1  1  6
  2  3  1  0
  2  9  1  0
  3  4  1  0
  4  8  1  0
  4  5  2  0
  5  6  1  0
  7  6  1  0
  8  7  2  0
  9 10  2  0
 12 11  1  0
 12 14  1  0
 13 12  2  0
 15 14  1  0
 15 16  1  0
 17 16  1  0
 18 17  1  1
 18 20  1  0
 19 18  1  0
 19  9  1  0
 20 21  2  0
 23 22  1  6
 23 25  1  0
 24 23  1  0
 26 25  1  6
 26 28  1  0
 27 26  1  0
 27 20  1  0
 28 30  2  0
 28 29  1  0
M  END
$$$$
