HRL.pdb
     RDKit          3D

 30 30  0  0  1  0  0  0  0  0999 V2000
    8.3833  -16.8360   18.4741 N   0  0  0  0  0  0  0  0  0  0  0  0
    8.4181  -15.6500   19.2873 C   0  0  1  0  0  0  0  0  0  0  0  0
    7.3573  -14.6619   18.7534 C   0  0  0  0  0  0  0  0  0  0  0  0
    7.6966  -14.2959   17.3443 C   0  0  0  0  0  0  0  0  0  0  0  0
    8.5193  -13.2657   16.9524 C   0  0  0  0  0  0  0  0  0  0  0  0
    8.5751  -13.2424   15.6117 N   0  0  0  0  0  0  0  0  0  0  0  0
    7.8085  -14.2318   15.1432 C   0  0  0  0  0  0  0  0  0  0  0  0
    7.2728  -14.8735   16.2202 N   0  0  0  0  0  0  0  0  0  0  0  0
    8.0114  -16.0131   20.6773 C   0  0  0  0  0  0  0  0  0  0  0  0
    6.8267  -15.9534   21.0924 O   0  0  0  0  0  0  0  0  0  0  0  0
   11.9409  -20.2641   20.6715 N   0  0  0  0  0  0  0  0  0  0  0  0
   13.1027  -19.7435   21.2627 C   0  0  0  0  0  0  0  0  0  0  0  0
   14.2269  -19.8127   20.6426 N   0  0  0  0  0  0  0  0  0  0  0  0
   13.0117  -19.1414   22.5539 N   0  0  0  0  0  0  0  0  0  0  0  0
   11.7212  -19.1064   23.2044 C   0  0  0  0  0  0  0  0  0  0  0  0
   10.8442  -18.0296   22.6414 C   0  0  0  0  0  0  0  0  0  0  0  0
    9.5714  -17.9713   23.4760 C   0  0  0  0  0  0  0  0  0  0  0  0
    8.6606  -16.8431   22.9729 C   0  0  2  0  0  0  0  0  0  0  0  0
    8.9883  -16.4646   21.6379 N   0  0  0  0  0  0  0  0  0  0  0  0
    8.8603  -15.7385   23.9574 C   0  0  0  0  0  0  0  0  0  0  0  0
    9.8736  -14.9798   23.8512 O   0  0  0  0  0  0  0  0  0  0  0  0
   15.0855  -19.4631   21.1144 C   0  0  0  0  0  0  0  0  0  0  0  0
    5.6493  -11.6177   27.0437 C   0  0  1  0  0  0  0  0  0  0  0  0
    6.9483  -12.2477   26.7234 C   0  0  0  0  0  0  0  0  0  0  0  0
    7.9329  -11.2238   26.1123 C   0  0  0  0  0  0  0  0  0  0  0  0
    6.9779  -13.4965   25.9352 C   0  0  2  0  0  0  0  0  0  0  0  0
    8.2165  -14.3044   25.8905 N   0  0  0  0  0  0  0  0  0  0  0  0
    7.9651  -15.4885   25.0161 C   0  0  0  0  0  0  0  0  0  0  0  0
    8.7993  -14.7799   27.1490 O   0  0  0  0  0  0  0  0  0  0  0  0
    8.7582  -16.0633   27.6300 O   0  0  0  0  0  0  0  0  0  0  0  0
  2  1  1  6
  2  3  1  0
  2  9  1  0
  3  4  1  0
  4  8  1  0
  4  5  2  0
  5  6  1  0
  7  6  1  0
  8  7  2  0
  9 10  2  0
 12 11  1  0
 12 14  1  0
 13 12  2  0
 15 14  1  0
 15 16  1  0
 17 16  1  0
 18 17  1  1
 18 20  1  0
 19 18  1  0
 19  9  1  0
 20 21  2  0
 23 22  1  1
 23 25  1  0
 24 23  1  0
 26 25  1  6
 26 28  1  0
 27 26  1  0
 27 20  1  0
 28 30  2  0
 28 29  1  0
M  END
$$$$
