HRL.pdb
     RDKit          3D

 30 30  0  0  1  0  0  0  0  0999 V2000
    7.6215  -20.9085   24.2793 N   0  0  0  0  0  0  0  0  0  0  0  0
    7.2830  -19.5537   24.6242 C   0  0  1  0  0  0  0  0  0  0  0  0
    7.9395  -19.2179   25.9817 C   0  0  0  0  0  0  0  0  0  0  0  0
    7.3668  -20.1107   27.0350 C   0  0  0  0  0  0  0  0  0  0  0  0
    6.2844  -19.8264   27.8347 C   0  0  0  0  0  0  0  0  0  0  0  0
    6.0741  -20.8615   28.6626 N   0  0  0  0  0  0  0  0  0  0  0  0
    6.9959  -21.7952   28.4084 C   0  0  0  0  0  0  0  0  0  0  0  0
    7.7864  -21.3209   27.4039 N   0  0  0  0  0  0  0  0  0  0  0  0
    7.8888  -18.6386   23.6117 C   0  0  0  0  0  0  0  0  0  0  0  0
    9.0931  -18.6951   23.2569 O   0  0  0  0  0  0  0  0  0  0  0  0
    8.0242  -13.6039   17.2536 N   0  0  0  0  0  0  0  0  0  0  0  0
    8.1988  -12.9831   18.5004 C   0  0  0  0  0  0  0  0  0  0  0  0
    7.7808  -11.7813   18.6852 N   0  0  0  0  0  0  0  0  0  0  0  0
    8.8437  -13.7060   19.5489 N   0  0  0  0  0  0  0  0  0  0  0  0
    8.1188  -14.7825   20.1857 C   0  0  0  0  0  0  0  0  0  0  0  0
    7.1688  -14.2731   21.2267 C   0  0  0  0  0  0  0  0  0  0  0  0
    6.5459  -15.4738   21.9269 C   0  0  0  0  0  0  0  0  0  0  0  0
    7.6445  -16.4080   22.4521 C   0  0  2  0  0  0  0  0  0  0  0  0
    7.0961  -17.6168   22.9726 N   0  0  0  0  0  0  0  0  0  0  0  0
    8.3565  -15.5989   23.4853 C   0  0  0  0  0  0  0  0  0  0  0  0
    9.0694  -14.6108   23.1260 O   0  0  0  0  0  0  0  0  0  0  0  0
    7.9972  -11.3046   19.5840 C   0  0  0  0  0  0  0  0  0  0  0  0
    8.1174  -11.9431   25.2166 C   0  0  2  0  0  0  0  0  0  0  0  0
    7.2797  -13.0259   25.7757 C   0  0  0  0  0  0  0  0  0  0  0  0
    6.1218  -12.4563   26.6280 C   0  0  0  0  0  0  0  0  0  0  0  0
    7.9207  -14.1460   26.4942 C   0  0  2  0  0  0  0  0  0  0  0  0
    8.9584  -14.9527   25.8151 N   0  0  0  0  0  0  0  0  0  0  0  0
    8.2752  -15.8789   24.8636 C   0  0  0  0  0  0  0  0  0  0  0  0
    9.8916  -15.7383   26.6285 O   0  0  0  0  0  0  0  0  0  0  0  0
   10.9634  -15.2530   27.3328 O   0  0  0  0  0  0  0  0  0  0  0  0
  2  1  1  6
  2  3  1  0
  2  9  1  0
  3  4  1  0
  4  8  1  0
  4  5  2  0
  5  6  1  0
  7  6  1  0
  8  7  2  0
  9 10  2  0
 12 11  1  0
 12 14  1  0
 13 12  2  0
 15 14  1  0
 15 16  1  0
 17 16  1  0
 18 17  1  1
 18 20  1  0
 19 18  1  0
 19  9  1  0
 20 21  2  0
 23 22  1  6
 23 25  1  0
 24 23  1  0
 26 25  1  6
 26 28  1  0
 27 26  1  0
 27 20  1  0
 28 30  2  0
 28 29  1  0
M  END
$$$$
