HRL.pdb
     RDKit          3D

 30 30  0  0  1  0  0  0  0  0999 V2000
    8.6734  -16.5847   18.1517 N   0  0  0  0  0  0  0  0  0  0  0  0
    8.5287  -15.4273   18.9935 C   0  0  1  0  0  0  0  0  0  0  0  0
    7.4566  -14.5044   18.3728 C   0  0  0  0  0  0  0  0  0  0  0  0
    7.8588  -14.1602   16.9749 C   0  0  0  0  0  0  0  0  0  0  0  0
    8.6890  -13.1284   16.6034 C   0  0  0  0  0  0  0  0  0  0  0  0
    8.8083  -13.1286   15.2666 N   0  0  0  0  0  0  0  0  0  0  0  0
    8.0745  -14.1344   14.7807 C   0  0  0  0  0  0  0  0  0  0  0  0
    7.4945  -14.7623   15.8429 N   0  0  0  0  0  0  0  0  0  0  0  0
    8.0065  -15.8663   20.3216 C   0  0  0  0  0  0  0  0  0  0  0  0
    6.7824  -15.9464   20.5947 O   0  0  0  0  0  0  0  0  0  0  0  0
   12.5490  -21.2513   24.6271 N   0  0  0  0  0  0  0  0  0  0  0  0
   13.2553  -20.3487   23.8167 C   0  0  0  0  0  0  0  0  0  0  0  0
   14.5348  -20.2642   23.9110 N   0  0  0  0  0  0  0  0  0  0  0  0
   12.5312  -19.5344   22.8945 N   0  0  0  0  0  0  0  0  0  0  0  0
   11.0925  -19.4703   23.0196 C   0  0  0  0  0  0  0  0  0  0  0  0
   10.5730  -18.0891   22.7592 C   0  0  0  0  0  0  0  0  0  0  0  0
    9.0619  -18.1082   22.9491 C   0  0  0  0  0  0  0  0  0  0  0  0
    8.4742  -16.7219   22.6517 C   0  0  2  0  0  0  0  0  0  0  0  0
    8.9094  -16.2317   21.3856 N   0  0  0  0  0  0  0  0  0  0  0  0
    8.9296  -15.8736   23.7928 C   0  0  0  0  0  0  0  0  0  0  0  0
    9.9479  -15.1273   23.6518 O   0  0  0  0  0  0  0  0  0  0  0  0
   15.0411  -19.5841   23.3085 C   0  0  0  0  0  0  0  0  0  0  0  0
    7.5320  -12.6422   28.1161 C   0  0  1  0  0  0  0  0  0  0  0  0
    7.2576  -12.5733   26.6647 C   0  0  0  0  0  0  0  0  0  0  0  0
    5.9365  -11.8221   26.3784 C   0  0  0  0  0  0  0  0  0  0  0  0
    7.3137  -13.8061   25.8530 C   0  0  2  0  0  0  0  0  0  0  0  0
    8.4994  -14.6866   25.9408 N   0  0  0  0  0  0  0  0  0  0  0  0
    8.2746  -15.8562   25.0400 C   0  0  0  0  0  0  0  0  0  0  0  0
    8.9120  -15.1924   27.2537 O   0  0  0  0  0  0  0  0  0  0  0  0
    8.3389  -16.2312   27.9413 O   0  0  0  0  0  0  0  0  0  0  0  0
  2  1  1  6
  2  3  1  0
  2  9  1  0
  3  4  1  0
  4  8  1  0
  4  5  2  0
  5  6  1  0
  7  6  1  0
  8  7  2  0
  9 10  2  0
 12 11  1  0
 12 14  1  0
 13 12  2  0
 15 14  1  0
 15 16  1  0
 17 16  1  0
 18 17  1  1
 18 20  1  0
 19 18  1  0
 19  9  1  0
 20 21  2  0
 23 22  1  6
 23 25  1  0
 24 23  1  0
 26 25  1  6
 26 28  1  0
 27 26  1  0
 27 20  1  0
 28 30  2  0
 28 29  1  0
M  END
$$$$
