HRL.pdb
     RDKit          3D

 30 30  0  0  1  0  0  0  0  0999 V2000
    5.9561  -18.4023   25.4671 N   0  0  0  0  0  0  0  0  0  0  0  0
    7.1644  -19.0668   25.0576 C   0  0  1  0  0  0  0  0  0  0  0  0
    6.8822  -20.5833   24.9740 C   0  0  0  0  0  0  0  0  0  0  0  0
    7.1061  -21.1964   26.3187 C   0  0  0  0  0  0  0  0  0  0  0  0
    7.4718  -20.5254   27.4624 C   0  0  0  0  0  0  0  0  0  0  0  0
    7.5858  -21.4097   28.4654 N   0  0  0  0  0  0  0  0  0  0  0  0
    7.3019  -22.6248   27.9869 C   0  0  0  0  0  0  0  0  0  0  0  0
    7.0080  -22.4802   26.6634 N   0  0  0  0  0  0  0  0  0  0  0  0
    7.5132  -18.6140   23.6782 C   0  0  0  0  0  0  0  0  0  0  0  0
    8.3924  -19.1640   22.9682 O   0  0  0  0  0  0  0  0  0  0  0  0
    8.0065  -11.9445   18.5496 N   0  0  0  0  0  0  0  0  0  0  0  0
    8.3398  -13.1682   17.9480 C   0  0  0  0  0  0  0  0  0  0  0  0
    8.5536  -13.2257   16.6815 N   0  0  0  0  0  0  0  0  0  0  0  0
    8.4356  -14.3362   18.7632 N   0  0  0  0  0  0  0  0  0  0  0  0
    7.2789  -14.7298   19.5356 C   0  0  0  0  0  0  0  0  0  0  0  0
    7.4600  -14.4396   20.9946 C   0  0  0  0  0  0  0  0  0  0  0  0
    6.6087  -15.4266   21.7827 C   0  0  0  0  0  0  0  0  0  0  0  0
    7.5004  -16.2925   22.6829 C   0  0  2  0  0  0  0  0  0  0  0  0
    6.8363  -17.4912   23.0767 N   0  0  0  0  0  0  0  0  0  0  0  0
    7.8349  -15.4059   23.8366 C   0  0  0  0  0  0  0  0  0  0  0  0
    7.2944  -14.2595   23.9236 O   0  0  0  0  0  0  0  0  0  0  0  0
    8.8226  -14.1361   16.2563 C   0  0  0  0  0  0  0  0  0  0  0  0
    7.7349  -11.9720   26.2252 C   0  0  2  0  0  0  0  0  0  0  0  0
    6.9452  -13.2092   26.0454 C   0  0  0  0  0  0  0  0  0  0  0  0
    5.5146  -13.0487   26.6105 C   0  0  0  0  0  0  0  0  0  0  0  0
    7.5087  -14.5032   26.4809 C   0  0  2  0  0  0  0  0  0  0  0  0
    8.8678  -14.8931   26.0453 N   0  0  0  0  0  0  0  0  0  0  0  0
    8.7341  -15.7830   24.8536 C   0  0  0  0  0  0  0  0  0  0  0  0
    9.7609  -15.5468   27.0070 O   0  0  0  0  0  0  0  0  0  0  0  0
   10.0866  -16.8784   27.0386 O   0  0  0  0  0  0  0  0  0  0  0  0
  2  1  1  6
  2  3  1  0
  2  9  1  0
  3  4  1  0
  4  8  1  0
  4  5  2  0
  5  6  1  0
  7  6  1  0
  8  7  2  0
  9 10  2  0
 12 11  1  0
 12 14  1  0
 13 12  2  0
 15 14  1  0
 15 16  1  0
 17 16  1  0
 18 17  1  6
 18 20  1  0
 19 18  1  0
 19  9  1  0
 20 21  2  0
 23 22  1  6
 23 25  1  0
 24 23  1  0
 26 25  1  6
 26 28  1  0
 27 26  1  0
 27 20  1  0
 28 30  2  0
 28 29  1  0
M  END
$$$$
