HRL.pdb
     RDKit          3D

 30 30  0  0  1  0  0  0  0  0999 V2000
    7.4535  -20.7748   23.8095 N   0  0  0  0  0  0  0  0  0  0  0  0
    7.0668  -19.5142   24.3843 C   0  0  1  0  0  0  0  0  0  0  0  0
    7.5450  -19.4811   25.8528 C   0  0  0  0  0  0  0  0  0  0  0  0
    6.7246  -20.4391   26.6550 C   0  0  0  0  0  0  0  0  0  0  0  0
    5.7505  -21.2771   26.1645 C   0  0  0  0  0  0  0  0  0  0  0  0
    5.2292  -21.9782   27.1833 N   0  0  0  0  0  0  0  0  0  0  0  0
    5.8480  -21.6059   28.3079 C   0  0  0  0  0  0  0  0  0  0  0  0
    6.7669  -20.6573   27.9693 N   0  0  0  0  0  0  0  0  0  0  0  0
    7.7903  -18.4219   23.6680 C   0  0  0  0  0  0  0  0  0  0  0  0
    9.0197  -18.4563   23.4096 O   0  0  0  0  0  0  0  0  0  0  0  0
    8.5480  -12.0255   18.3746 N   0  0  0  0  0  0  0  0  0  0  0  0
    8.7726  -13.4094   18.3057 C   0  0  0  0  0  0  0  0  0  0  0  0
    9.5564  -13.8904   17.4071 N   0  0  0  0  0  0  0  0  0  0  0  0
    8.1196  -14.2637   19.2447 N   0  0  0  0  0  0  0  0  0  0  0  0
    7.1487  -13.6800   20.1427 C   0  0  0  0  0  0  0  0  0  0  0  0
    7.5332  -13.8728   21.5782 C   0  0  0  0  0  0  0  0  0  0  0  0
    6.7789  -15.0837   22.1116 C   0  0  0  0  0  0  0  0  0  0  0  0
    7.7507  -16.0486   22.8045 C   0  0  2  0  0  0  0  0  0  0  0  0
    7.0911  -17.2408   23.2244 N   0  0  0  0  0  0  0  0  0  0  0  0
    8.3083  -15.2595   23.9427 C   0  0  0  0  0  0  0  0  0  0  0  0
    8.8812  -14.1489   23.7144 O   0  0  0  0  0  0  0  0  0  0  0  0
    9.6611  -14.9223   17.3292 C   0  0  0  0  0  0  0  0  0  0  0  0
    7.7827  -11.8866   25.5636 C   0  0  2  0  0  0  0  0  0  0  0  0
    7.0064  -13.0054   26.1400 C   0  0  0  0  0  0  0  0  0  0  0  0
    5.7668  -12.4911   26.9084 C   0  0  0  0  0  0  0  0  0  0  0  0
    7.6974  -14.0339   26.9439 C   0  0  2  0  0  0  0  0  0  0  0  0
    8.8036  -14.8112   26.3431 N   0  0  0  0  0  0  0  0  0  0  0  0
    8.2282  -15.6901   25.2818 C   0  0  0  0  0  0  0  0  0  0  0  0
    9.6459  -15.6366   27.2143 O   0  0  0  0  0  0  0  0  0  0  0  0
    9.8016  -16.9970   27.1426 O   0  0  0  0  0  0  0  0  0  0  0  0
  2  1  1  6
  2  3  1  0
  2  9  1  0
  3  4  1  0
  4  8  1  0
  4  5  2  0
  5  6  1  0
  7  6  1  0
  8  7  2  0
  9 10  2  0
 12 11  1  0
 12 14  1  0
 13 12  2  0
 15 14  1  0
 15 16  1  0
 17 16  1  0
 18 17  1  1
 18 20  1  0
 19 18  1  0
 19  9  1  0
 20 21  2  0
 23 22  1  6
 23 25  1  0
 24 23  1  0
 26 25  1  6
 26 28  1  0
 27 26  1  0
 27 20  1  0
 28 30  2  0
 28 29  1  0
M  END
$$$$
