HRL.pdb
     RDKit          3D

 30 30  0  0  1  0  0  0  0  0999 V2000
    8.3678  -16.6514   19.2405 N   0  0  0  0  0  0  0  0  0  0  0  0
    8.1414  -15.4322   19.9695 C   0  0  1  0  0  0  0  0  0  0  0  0
    7.1127  -14.5826   19.1907 C   0  0  0  0  0  0  0  0  0  0  0  0
    7.6630  -14.2702   17.8364 C   0  0  0  0  0  0  0  0  0  0  0  0
    8.5343  -13.2499   17.5335 C   0  0  0  0  0  0  0  0  0  0  0  0
    8.7946  -13.2794   16.2173 N   0  0  0  0  0  0  0  0  0  0  0  0
    8.1103  -14.2925   15.6774 C   0  0  0  0  0  0  0  0  0  0  0  0
    7.4170  -14.8951   16.6850 N   0  0  0  0  0  0  0  0  0  0  0  0
    7.5179  -15.7712   21.2831 C   0  0  0  0  0  0  0  0  0  0  0  0
    6.3323  -15.4828   21.5842 O   0  0  0  0  0  0  0  0  0  0  0  0
    9.2465  -20.8313   27.8245 N   0  0  0  0  0  0  0  0  0  0  0  0
    7.8490  -20.8389   27.9560 C   0  0  0  0  0  0  0  0  0  0  0  0
    7.3086  -21.2076   29.0629 N   0  0  0  0  0  0  0  0  0  0  0  0
    7.0476  -20.4328   26.8466 N   0  0  0  0  0  0  0  0  0  0  0  0
    7.7160  -19.9985   25.6407 C   0  0  0  0  0  0  0  0  0  0  0  0
    7.3860  -18.5761   25.3039 C   0  0  0  0  0  0  0  0  0  0  0  0
    8.0235  -18.2478   23.9602 C   0  0  0  0  0  0  0  0  0  0  0  0
    7.7431  -16.7862   23.5851 C   0  0  2  0  0  0  0  0  0  0  0  0
    8.2690  -16.4679   22.2987 N   0  0  0  0  0  0  0  0  0  0  0  0
    8.3716  -15.9944   24.6837 C   0  0  0  0  0  0  0  0  0  0  0  0
    9.6373  -15.9568   24.7844 O   0  0  0  0  0  0  0  0  0  0  0  0
    6.2715  -21.2082   29.1423 C   0  0  0  0  0  0  0  0  0  0  0  0
    7.6323  -11.5934   25.7698 C   0  0  1  0  0  0  0  0  0  0  0  0
    6.7850  -12.5543   26.5083 C   0  0  0  0  0  0  0  0  0  0  0  0
    5.6928  -11.8262   27.3261 C   0  0  0  0  0  0  0  0  0  0  0  0
    7.4201  -13.5941   27.3433 C   0  0  2  0  0  0  0  0  0  0  0  0
    8.3501  -14.5634   26.7233 N   0  0  0  0  0  0  0  0  0  0  0  0
    7.6192  -15.2716   25.6306 C   0  0  0  0  0  0  0  0  0  0  0  0
    8.9940  -15.5711   27.5715 O   0  0  0  0  0  0  0  0  0  0  0  0
   10.0862  -15.3772   28.3776 O   0  0  0  0  0  0  0  0  0  0  0  0
  2  1  1  6
  2  3  1  0
  2  9  1  0
  3  4  1  0
  4  8  1  0
  4  5  2  0
  5  6  1  0
  7  6  1  0
  8  7  2  0
  9 10  2  0
 12 11  1  0
 12 14  1  0
 13 12  2  0
 15 14  1  0
 15 16  1  0
 17 16  1  0
 18 17  1  1
 18 20  1  0
 19 18  1  0
 19  9  1  0
 20 21  2  0
 23 22  1  6
 23 25  1  0
 24 23  1  0
 26 25  1  6
 26 28  1  0
 27 26  1  0
 27 20  1  0
 28 30  2  0
 28 29  1  0
M  END
$$$$
