PLH.pdb
     RDKit          3D

 26 27  0  0  1  0  0  0  0  0999 V2000
    7.0893  -15.1769   20.3458 N   0  0  0  0  0  0  0  0  0  0  0  0
    6.7766  -14.9733   18.9243 C   0  0  0  0  0  0  0  0  0  0  0  0
    7.2934  -13.6122   18.5726 C   0  0  0  0  0  0  0  0  0  0  0  0
    7.9563  -13.1200   19.8521 C   0  0  0  0  0  0  0  0  0  0  0  0
    8.3188  -14.4631   20.4802 C   0  0  1  0  0  0  0  0  0  0  0  0
    8.7855  -14.3172   21.8633 C   0  0  0  0  0  0  0  0  0  0  0  0
    9.9774  -13.9790   22.0674 O   0  0  0  0  0  0  0  0  0  0  0  0
    8.0716  -12.0071   26.8202 C   0  0  0  0  0  0  0  0  0  0  0  0
    7.1903  -13.1373   26.4435 C   0  0  1  0  0  0  0  0  0  0  0  0
    5.7612  -12.8880   26.9748 C   0  0  0  0  0  0  0  0  0  0  0  0
    7.1673  -13.6257   25.0615 C   0  0  0  0  0  0  0  0  0  0  0  0
    8.3608  -14.0923   24.3473 C   0  0  2  0  0  0  0  0  0  0  0  0
    7.9532  -14.5402   22.9759 N   0  0  0  0  0  0  0  0  0  0  0  0
    9.0816  -15.1960   25.0007 C   0  0  0  0  0  0  0  0  0  0  0  0
    9.6661  -15.1262   26.1115 O   0  0  0  0  0  0  0  0  0  0  0  0
    9.1467  -16.4883   24.3405 N   0  0  0  0  0  0  0  0  0  0  0  0
    9.8592  -17.5956   24.9778 C   0  0  1  0  0  0  0  0  0  0  0  0
   11.2624  -17.7115   24.4573 C   0  0  0  0  0  0  0  0  0  0  0  0
   11.2707  -17.9406   22.9995 C   0  0  0  0  0  0  0  0  0  0  0  0
   10.1811  -18.0207   22.1418 C   0  0  0  0  0  0  0  0  0  0  0  0
   10.6602  -18.2357   20.9239 N   0  0  0  0  0  0  0  0  0  0  0  0
   11.9895  -18.2980   20.9503 C   0  0  0  0  0  0  0  0  0  0  0  0
   12.3474  -18.1165   22.2212 N   0  0  0  0  0  0  0  0  0  0  0  0
    9.8142  -17.3413   26.4391 C   0  0  0  0  0  0  0  0  0  0  0  0
   10.0301  -16.0745   26.9941 O   0  0  0  0  0  0  0  0  0  0  0  0
    9.5765  -18.2600   27.2839 O   0  0  0  0  0  0  0  0  0  0  0  0
  1  2  1  0
  3  2  1  0
  4  5  1  0
  4  3  1  0
  5  6  1  1
  5  1  1  0
  6  7  2  0
  9  8  1  6
 10  9  1  0
 11  9  1  0
 12 11  1  1
 13  6  1  0
 13 12  1  0
 14 12  1  0
 14 15  2  0
 16 14  1  0
 17 16  1  0
 17 24  1  0
 17 18  1  6
 19 18  1  0
 20 19  2  0
 21 22  1  0
 21 20  1  0
 22 23  2  0
 23 19  1  0
 24 25  1  0
 26 24  2  0
M  END
$$$$
