PLH.pdb
     RDKit          3D

 26 27  0  0  1  0  0  0  0  0999 V2000
    6.3899  -16.3987   21.7426 N   0  0  0  0  0  0  0  0  0  0  0  0
    5.7045  -16.5748   20.4546 C   0  0  0  0  0  0  0  0  0  0  0  0
    6.0918  -15.4001   19.6099 C   0  0  0  0  0  0  0  0  0  0  0  0
    7.0683  -14.6187   20.4786 C   0  0  0  0  0  0  0  0  0  0  0  0
    7.6019  -15.7573   21.3439 C   0  0  1  0  0  0  0  0  0  0  0  0
    8.4214  -15.2666   22.4573 C   0  0  0  0  0  0  0  0  0  0  0  0
    9.6095  -14.9287   22.2315 O   0  0  0  0  0  0  0  0  0  0  0  0
    5.5930  -13.0875   26.7451 C   0  0  0  0  0  0  0  0  0  0  0  0
    6.6413  -13.1871   25.7024 C   0  0  1  0  0  0  0  0  0  0  0  0
    7.0643  -11.7727   25.2468 C   0  0  0  0  0  0  0  0  0  0  0  0
    7.8073  -14.0512   25.9090 C   0  0  0  0  0  0  0  0  0  0  0  0
    8.7215  -14.4491   24.8328 C   0  0  2  0  0  0  0  0  0  0  0  0
    7.9329  -15.1574   23.7725 N   0  0  0  0  0  0  0  0  0  0  0  0
    9.8271  -15.3249   25.2515 C   0  0  0  0  0  0  0  0  0  0  0  0
   11.0481  -15.0984   25.0567 O   0  0  0  0  0  0  0  0  0  0  0  0
    9.5248  -16.5624   25.9496 N   0  0  0  0  0  0  0  0  0  0  0  0
   10.5696  -17.5704   26.1287 C   0  0  1  0  0  0  0  0  0  0  0  0
   11.8443  -16.9512   26.6239 C   0  0  0  0  0  0  0  0  0  0  0  0
   12.7538  -16.6407   25.5041 C   0  0  0  0  0  0  0  0  0  0  0  0
   12.5286  -16.8233   24.1457 C   0  0  0  0  0  0  0  0  0  0  0  0
   13.6165  -16.4063   23.5120 N   0  0  0  0  0  0  0  0  0  0  0  0
   14.5237  -15.9683   24.3819 C   0  0  0  0  0  0  0  0  0  0  0  0
   13.9844  -16.1171   25.5916 N   0  0  0  0  0  0  0  0  0  0  0  0
   10.0251  -18.5803   27.0698 C   0  0  0  0  0  0  0  0  0  0  0  0
    8.7079  -18.5426   27.5419 O   0  0  0  0  0  0  0  0  0  0  0  0
   10.7218  -19.5473   27.5099 O   0  0  0  0  0  0  0  0  0  0  0  0
  1  2  1  0
  3  2  1  0
  4  5  1  0
  4  3  1  0
  5  6  1  1
  5  1  1  0
  6  7  2  0
  9  8  1  1
 10  9  1  0
 11  9  1  0
 12 11  1  1
 13  6  1  0
 13 12  1  0
 14 12  1  0
 14 15  2  0
 16 14  1  0
 17 16  1  0
 17 24  1  0
 17 18  1  1
 19 18  1  0
 20 19  2  0
 21 22  1  0
 21 20  1  0
 22 23  2  0
 23 19  1  0
 24 25  1  0
 26 24  2  0
M  END
$$$$
