PLH.pdb
     RDKit          3D

 26 27  0  0  1  0  0  0  0  0999 V2000
    7.5522  -14.9345   21.1642 N   0  0  0  0  0  0  0  0  0  0  0  0
    7.2807  -14.6307   19.7521 C   0  0  0  0  0  0  0  0  0  0  0  0
    7.7507  -13.2263   19.5280 C   0  0  0  0  0  0  0  0  0  0  0  0
    8.3470  -12.8117   20.8663 C   0  0  0  0  0  0  0  0  0  0  0  0
    8.7447  -14.1851   21.4007 C   0  0  1  0  0  0  0  0  0  0  0  0
    9.1564  -14.1316   22.8077 C   0  0  0  0  0  0  0  0  0  0  0  0
   10.3228  -13.7567   23.0831 O   0  0  0  0  0  0  0  0  0  0  0  0
    5.6702  -12.4615   26.4557 C   0  0  0  0  0  0  0  0  0  0  0  0
    6.9913  -12.7133   25.8335 C   0  0  1  0  0  0  0  0  0  0  0  0
    7.8882  -11.4642   25.9826 C   0  0  0  0  0  0  0  0  0  0  0  0
    7.7310  -13.9403   26.1440 C   0  0  0  0  0  0  0  0  0  0  0  0
    8.7853  -14.4900   25.2845 C   0  0  2  0  0  0  0  0  0  0  0  0
    8.2988  -14.4831   23.8665 N   0  0  0  0  0  0  0  0  0  0  0  0
    9.2098  -15.8575   25.6228 C   0  0  0  0  0  0  0  0  0  0  0  0
    9.3827  -16.2982   26.7873 O   0  0  0  0  0  0  0  0  0  0  0  0
    9.4604  -16.8064   24.5519 N   0  0  0  0  0  0  0  0  0  0  0  0
    9.9048  -18.1630   24.8714 C   0  0  1  0  0  0  0  0  0  0  0  0
    9.1912  -19.1817   24.0308 C   0  0  0  0  0  0  0  0  0  0  0  0
    9.5128  -19.0096   22.6010 C   0  0  0  0  0  0  0  0  0  0  0  0
   10.2935  -18.0218   22.0145 C   0  0  0  0  0  0  0  0  0  0  0  0
   10.3069  -18.2604   20.7099 N   0  0  0  0  0  0  0  0  0  0  0  0
    9.5826  -19.3405   20.4262 C   0  0  0  0  0  0  0  0  0  0  0  0
    9.1049  -19.7863   21.5878 N   0  0  0  0  0  0  0  0  0  0  0  0
   11.3742  -18.1852   24.6659 C   0  0  0  0  0  0  0  0  0  0  0  0
   12.0821  -17.0969   24.1425 O   0  0  0  0  0  0  0  0  0  0  0  0
   12.0873  -19.1971   24.9521 O   0  0  0  0  0  0  0  0  0  0  0  0
  1  2  1  0
  3  2  1  0
  4  5  1  0
  4  3  1  0
  5  6  1  1
  5  1  1  0
  6  7  2  0
  9  8  1  1
 10  9  1  0
 11  9  1  0
 12 11  1  1
 13  6  1  0
 13 12  1  0
 14 12  1  0
 14 15  2  0
 16 14  1  0
 17 16  1  0
 17 24  1  0
 17 18  1  6
 19 18  1  0
 20 19  2  0
 21 22  1  0
 21 20  1  0
 22 23  2  0
 23 19  1  0
 24 25  1  0
 26 24  2  0
M  END
$$$$
