PLH.pdb
     RDKit          3D

 26 27  0  0  1  0  0  0  0  0999 V2000
    7.2459  -15.1909   21.1239 N   0  0  0  0  0  0  0  0  0  0  0  0
    7.2062  -14.8116   19.7046 C   0  0  0  0  0  0  0  0  0  0  0  0
    7.9386  -13.5094   19.5983 C   0  0  0  0  0  0  0  0  0  0  0  0
    8.4304  -13.2386   21.0138 C   0  0  0  0  0  0  0  0  0  0  0  0
    8.5132  -14.6726   21.5300 C   0  0  1  0  0  0  0  0  0  0  0  0
    8.7530  -14.7254   22.9762 C   0  0  0  0  0  0  0  0  0  0  0  0
    9.9347  -14.6632   23.3965 O   0  0  0  0  0  0  0  0  0  0  0  0
    5.4083  -12.0562   26.2236 C   0  0  0  0  0  0  0  0  0  0  0  0
    6.6649  -12.6772   25.7427 C   0  0  1  0  0  0  0  0  0  0  0  0
    7.8606  -11.7485   26.0505 C   0  0  0  0  0  0  0  0  0  0  0  0
    6.9733  -14.0710   26.0760 C   0  0  0  0  0  0  0  0  0  0  0  0
    8.0016  -14.8599   25.3884 C   0  0  2  0  0  0  0  0  0  0  0  0
    7.7133  -14.8431   23.9172 N   0  0  0  0  0  0  0  0  0  0  0  0
    8.1024  -16.2611   25.8254 C   0  0  0  0  0  0  0  0  0  0  0  0
    7.1892  -17.1199   25.7312 O   0  0  0  0  0  0  0  0  0  0  0  0
    9.3420  -16.7299   26.4202 N   0  0  0  0  0  0  0  0  0  0  0  0
    9.7206  -18.1377   26.2982 C   0  0  1  0  0  0  0  0  0  0  0  0
    9.6581  -18.5964   24.8701 C   0  0  0  0  0  0  0  0  0  0  0  0
    8.3110  -19.0937   24.5307 C   0  0  0  0  0  0  0  0  0  0  0  0
    7.2120  -19.2229   25.3703 C   0  0  0  0  0  0  0  0  0  0  0  0
    6.2186  -19.7090   24.6383 N   0  0  0  0  0  0  0  0  0  0  0  0
    6.6150  -19.8987   23.3819 C   0  0  0  0  0  0  0  0  0  0  0  0
    7.8917  -19.5196   23.3311 N   0  0  0  0  0  0  0  0  0  0  0  0
   11.0820  -18.2604   26.8756 C   0  0  0  0  0  0  0  0  0  0  0  0
   12.0516  -17.2589   26.7479 O   0  0  0  0  0  0  0  0  0  0  0  0
   11.4571  -19.2859   27.5250 O   0  0  0  0  0  0  0  0  0  0  0  0
  1  2  1  0
  3  2  1  0
  4  5  1  0
  4  3  1  0
  5  6  1  1
  5  1  1  0
  6  7  2  0
  9  8  1  1
 10  9  1  0
 11  9  1  0
 12 11  1  1
 13  6  1  0
 13 12  1  0
 14 12  1  0
 14 15  2  0
 16 14  1  0
 17 16  1  0
 17 24  1  0
 17 18  1  6
 19 18  1  0
 20 19  2  0
 21 22  1  0
 21 20  1  0
 22 23  2  0
 23 19  1  0
 24 25  1  0
 26 24  2  0
M  END
$$$$
