PLH.pdb
     RDKit          3D

 26 27  0  0  1  0  0  0  0  0999 V2000
    7.6850  -15.2578   19.9407 N   0  0  0  0  0  0  0  0  0  0  0  0
    7.4012  -14.8269   18.5646 C   0  0  0  0  0  0  0  0  0  0  0  0
    7.4277  -13.3295   18.5806 C   0  0  0  0  0  0  0  0  0  0  0  0
    7.8033  -12.9758   20.0133 C   0  0  0  0  0  0  0  0  0  0  0  0
    8.5772  -14.2367   20.3889 C   0  0  1  0  0  0  0  0  0  0  0  0
    8.8848  -14.2887   21.8223 C   0  0  0  0  0  0  0  0  0  0  0  0
   10.0875  -14.3001   22.1832 O   0  0  0  0  0  0  0  0  0  0  0  0
    8.1965  -12.2339   26.9569 C   0  0  0  0  0  0  0  0  0  0  0  0
    7.1842  -13.1475   26.3769 C   0  0  1  0  0  0  0  0  0  0  0  0
    5.7748  -12.7492   26.8686 C   0  0  0  0  0  0  0  0  0  0  0  0
    7.1858  -13.4327   24.9390 C   0  0  0  0  0  0  0  0  0  0  0  0
    8.2388  -14.2022   24.2670 C   0  0  2  0  0  0  0  0  0  0  0  0
    7.8878  -14.3265   22.8148 N   0  0  0  0  0  0  0  0  0  0  0  0
    8.4602  -15.5523   24.8080 C   0  0  0  0  0  0  0  0  0  0  0  0
    7.5704  -16.4250   24.9723 O   0  0  0  0  0  0  0  0  0  0  0  0
    9.8028  -15.9481   25.1965 N   0  0  0  0  0  0  0  0  0  0  0  0
   10.0473  -17.3028   25.6914 C   0  0  1  0  0  0  0  0  0  0  0  0
   11.3390  -17.8520   25.1589 C   0  0  0  0  0  0  0  0  0  0  0  0
   11.2748  -18.0362   23.6962 C   0  0  0  0  0  0  0  0  0  0  0  0
   10.1838  -18.4315   22.9327 C   0  0  0  0  0  0  0  0  0  0  0  0
   10.5846  -18.4616   21.6688 N   0  0  0  0  0  0  0  0  0  0  0  0
   11.8650  -18.1097   21.5772 C   0  0  0  0  0  0  0  0  0  0  0  0
   12.2723  -17.8534   22.8200 N   0  0  0  0  0  0  0  0  0  0  0  0
   10.0325  -17.2202   27.1729 C   0  0  0  0  0  0  0  0  0  0  0  0
   10.0954  -18.3515   27.9949 O   0  0  0  0  0  0  0  0  0  0  0  0
    9.9611  -16.1137   27.7932 O   0  0  0  0  0  0  0  0  0  0  0  0
  1  2  1  0
  3  2  1  0
  4  5  1  0
  4  3  1  0
  5  6  1  1
  5  1  1  0
  6  7  2  0
  9  8  1  6
 10  9  1  0
 11  9  1  0
 12 11  1  1
 13  6  1  0
 13 12  1  0
 14 12  1  0
 14 15  2  0
 16 14  1  0
 17 16  1  0
 17 24  1  0
 17 18  1  6
 19 18  1  0
 20 19  2  0
 21 22  1  0
 21 20  1  0
 22 23  2  0
 23 19  1  0
 24 25  1  0
 26 24  2  0
M  END
$$$$
