PLH.pdb
     RDKit          3D

 26 27  0  0  1  0  0  0  0  0999 V2000
    6.9972  -14.8698   20.9347 N   0  0  0  0  0  0  0  0  0  0  0  0
    7.1452  -14.4576   19.5318 C   0  0  0  0  0  0  0  0  0  0  0  0
    8.0888  -13.2944   19.5342 C   0  0  0  0  0  0  0  0  0  0  0  0
    8.4925  -13.1414   20.9945 C   0  0  0  0  0  0  0  0  0  0  0  0
    8.2920  -14.5802   21.4629 C   0  0  1  0  0  0  0  0  0  0  0  0
    8.3922  -14.7047   22.9212 C   0  0  0  0  0  0  0  0  0  0  0  0
    9.5211  -14.8969   23.4361 O   0  0  0  0  0  0  0  0  0  0  0  0
    5.8517  -11.2208   26.0293 C   0  0  0  0  0  0  0  0  0  0  0  0
    6.8795  -12.2213   25.6570 C   0  0  1  0  0  0  0  0  0  0  0  0
    8.2553  -11.7925   26.2139 C   0  0  0  0  0  0  0  0  0  0  0  0
    6.6349  -13.6490   25.8828 C   0  0  0  0  0  0  0  0  0  0  0  0
    7.4274  -14.7150   25.2600 C   0  0  2  0  0  0  0  0  0  0  0  0
    7.2745  -14.6178   23.7718 N   0  0  0  0  0  0  0  0  0  0  0  0
    7.0653  -16.0792   25.6755 C   0  0  0  0  0  0  0  0  0  0  0  0
    5.9931  -16.6675   25.3849 O   0  0  0  0  0  0  0  0  0  0  0  0
    7.9958  -16.8420   26.4895 N   0  0  0  0  0  0  0  0  0  0  0  0
    7.8054  -18.2829   26.6550 C   0  0  1  0  0  0  0  0  0  0  0  0
    7.8100  -18.9883   25.3298 C   0  0  0  0  0  0  0  0  0  0  0  0
    7.7670  -20.4525   25.5077 C   0  0  0  0  0  0  0  0  0  0  0  0
    7.8174  -21.1699   26.6960 C   0  0  0  0  0  0  0  0  0  0  0  0
    7.7489  -22.4555   26.3771 N   0  0  0  0  0  0  0  0  0  0  0  0
    7.6577  -22.6041   25.0575 C   0  0  0  0  0  0  0  0  0  0  0  0
    7.6699  -21.3756   24.5410 N   0  0  0  0  0  0  0  0  0  0  0  0
    8.8902  -18.7518   27.5523 C   0  0  0  0  0  0  0  0  0  0  0  0
    8.7190  -19.8011   28.4629 O   0  0  0  0  0  0  0  0  0  0  0  0
   10.0483  -18.2293   27.5525 O   0  0  0  0  0  0  0  0  0  0  0  0
  1  2  1  0
  3  2  1  0
  4  5  1  0
  4  3  1  0
  5  6  1  1
  5  1  1  0
  6  7  2  0
  9  8  1  1
 10  9  1  0
 11  9  1  0
 12 11  1  1
 13  6  1  0
 13 12  1  0
 14 12  1  0
 14 15  2  0
 16 14  1  0
 17 16  1  0
 17 24  1  0
 17 18  1  6
 19 18  1  0
 20 19  2  0
 21 22  1  0
 21 20  1  0
 22 23  2  0
 23 19  1  0
 24 25  1  0
 26 24  2  0
M  END
$$$$
