PLH.pdb
     RDKit          3D

 26 27  0  0  1  0  0  0  0  0999 V2000
    8.4434  -15.0906   19.8185 N   0  0  0  0  0  0  0  0  0  0  0  0
    7.6899  -15.6669   18.6959 C   0  0  0  0  0  0  0  0  0  0  0  0
    6.9680  -16.8592   19.2443 C   0  0  0  0  0  0  0  0  0  0  0  0
    7.3154  -16.8594   20.7269 C   0  0  0  0  0  0  0  0  0  0  0  0
    7.5820  -15.3693   20.9229 C   0  0  1  0  0  0  0  0  0  0  0  0
    8.1698  -15.0821   22.2359 C   0  0  0  0  0  0  0  0  0  0  0  0
    9.4185  -15.1206   22.3616 O   0  0  0  0  0  0  0  0  0  0  0  0
    5.8219  -11.8778   26.4689 C   0  0  0  0  0  0  0  0  0  0  0  0
    6.8810  -12.4793   25.6247 C   0  0  1  0  0  0  0  0  0  0  0  0
    8.2187  -11.7419   25.8565 C   0  0  0  0  0  0  0  0  0  0  0  0
    7.0706  -13.9327   25.6035 C   0  0  0  0  0  0  0  0  0  0  0  0
    8.0221  -14.6127   24.7177 C   0  0  2  0  0  0  0  0  0  0  0  0
    7.3929  -14.7640   23.3654 N   0  0  0  0  0  0  0  0  0  0  0  0
    8.4569  -15.9406   25.1783 C   0  0  0  0  0  0  0  0  0  0  0  0
    7.7871  -16.9998   25.0800 O   0  0  0  0  0  0  0  0  0  0  0  0
    9.7604  -16.0814   25.8039 N   0  0  0  0  0  0  0  0  0  0  0  0
   10.3789  -17.4030   25.9068 C   0  0  1  0  0  0  0  0  0  0  0  0
   11.7192  -17.4309   25.2312 C   0  0  0  0  0  0  0  0  0  0  0  0
   12.4273  -18.6955   25.5086 C   0  0  0  0  0  0  0  0  0  0  0  0
   12.6003  -19.3259   26.7342 C   0  0  0  0  0  0  0  0  0  0  0  0
   13.2971  -20.4314   26.5076 N   0  0  0  0  0  0  0  0  0  0  0  0
   13.5802  -20.5466   25.2121 C   0  0  0  0  0  0  0  0  0  0  0  0
   13.0441  -19.4821   24.6159 N   0  0  0  0  0  0  0  0  0  0  0  0
   10.4654  -17.7171   27.3545 C   0  0  0  0  0  0  0  0  0  0  0  0
   10.3842  -16.7348   28.3485 O   0  0  0  0  0  0  0  0  0  0  0  0
   10.6199  -18.9017   27.7870 O   0  0  0  0  0  0  0  0  0  0  0  0
  1  2  1  0
  3  2  1  0
  4  5  1  0
  4  3  1  0
  5  6  1  1
  5  1  1  0
  6  7  2  0
  9  8  1  1
 10  9  1  0
 11  9  1  0
 12 11  1  1
 13  6  1  0
 13 12  1  0
 14 12  1  0
 14 15  2  0
 16 14  1  0
 17 16  1  0
 17 24  1  0
 17 18  1  1
 19 18  1  0
 20 19  2  0
 21 22  1  0
 21 20  1  0
 22 23  2  0
 23 19  1  0
 24 25  1  0
 26 24  2  0
M  END
$$$$
