PLH.pdb
     RDKit          3D

 26 27  0  0  1  0  0  0  0  0999 V2000
    7.1348  -15.6239   21.3666 N   0  0  0  0  0  0  0  0  0  0  0  0
    6.7655  -15.5319   19.9471 C   0  0  0  0  0  0  0  0  0  0  0  0
    7.1371  -14.1495   19.5063 C   0  0  0  0  0  0  0  0  0  0  0  0
    7.7830  -13.5244   20.7355 C   0  0  0  0  0  0  0  0  0  0  0  0
    8.2919  -14.7888   21.4227 C   0  0  1  0  0  0  0  0  0  0  0  0
    8.7793  -14.5208   22.7801 C   0  0  0  0  0  0  0  0  0  0  0  0
    9.8983  -13.9694   22.9236 O   0  0  0  0  0  0  0  0  0  0  0  0
    5.4475  -12.4338   26.4552 C   0  0  0  0  0  0  0  0  0  0  0  0
    6.7450  -12.7383   25.8073 C   0  0  1  0  0  0  0  0  0  0  0  0
    7.6959  -11.5282   25.9426 C   0  0  0  0  0  0  0  0  0  0  0  0
    7.4385  -13.9961   26.1003 C   0  0  0  0  0  0  0  0  0  0  0  0
    8.5552  -14.5109   25.3002 C   0  0  2  0  0  0  0  0  0  0  0  0
    8.0454  -14.8558   23.9332 N   0  0  0  0  0  0  0  0  0  0  0  0
    9.2227  -15.6968   25.8593 C   0  0  0  0  0  0  0  0  0  0  0  0
    9.5861  -15.8308   27.0553 O   0  0  0  0  0  0  0  0  0  0  0  0
    9.5033  -16.8269   24.9907 N   0  0  0  0  0  0  0  0  0  0  0  0
   10.2459  -17.9758   25.5089 C   0  0  1  0  0  0  0  0  0  0  0  0
    9.5825  -19.2682   25.1308 C   0  0  0  0  0  0  0  0  0  0  0  0
    8.2712  -19.4056   25.7935 C   0  0  0  0  0  0  0  0  0  0  0  0
    7.9840  -19.2985   27.1482 C   0  0  0  0  0  0  0  0  0  0  0  0
    6.6795  -19.4944   27.2856 N   0  0  0  0  0  0  0  0  0  0  0  0
    6.1148  -19.7203   26.1017 C   0  0  0  0  0  0  0  0  0  0  0  0
    7.0965  -19.6632   25.2020 N   0  0  0  0  0  0  0  0  0  0  0  0
   11.6241  -17.8654   24.9701 C   0  0  0  0  0  0  0  0  0  0  0  0
   12.6416  -18.7674   25.3029 O   0  0  0  0  0  0  0  0  0  0  0  0
   11.9712  -16.9418   24.1697 O   0  0  0  0  0  0  0  0  0  0  0  0
  1  2  1  0
  3  2  1  0
  4  5  1  0
  4  3  1  0
  5  6  1  1
  5  1  1  0
  6  7  2  0
  9  8  1  1
 10  9  1  0
 11  9  1  0
 12 11  1  1
 13  6  1  0
 13 12  1  0
 14 12  1  0
 14 15  2  0
 16 14  1  0
 17 16  1  0
 17 24  1  0
 17 18  1  6
 19 18  1  0
 20 19  2  0
 21 22  1  0
 21 20  1  0
 22 23  2  0
 23 19  1  0
 24 25  1  0
 26 24  2  0
M  END
$$$$
