PLH.pdb
     RDKit          3D

 26 27  0  0  1  0  0  0  0  0999 V2000
    7.2192  -15.2097   20.8638 N   0  0  0  0  0  0  0  0  0  0  0  0
    7.0447  -14.8484   19.4499 C   0  0  0  0  0  0  0  0  0  0  0  0
    7.7549  -13.5434   19.2603 C   0  0  0  0  0  0  0  0  0  0  0  0
    8.3747  -13.2521   20.6204 C   0  0  0  0  0  0  0  0  0  0  0  0
    8.5152  -14.6791   21.1436 C   0  0  1  0  0  0  0  0  0  0  0  0
    8.8893  -14.7124   22.5617 C   0  0  0  0  0  0  0  0  0  0  0  0
   10.0896  -14.5196   22.8757 O   0  0  0  0  0  0  0  0  0  0  0  0
    5.3592  -12.6078   26.0814 C   0  0  0  0  0  0  0  0  0  0  0  0
    6.6974  -12.9681   25.5567 C   0  0  1  0  0  0  0  0  0  0  0  0
    7.7171  -11.8652   25.9180 C   0  0  0  0  0  0  0  0  0  0  0  0
    7.2495  -14.3043   25.7992 C   0  0  0  0  0  0  0  0  0  0  0  0
    8.3630  -14.8723   25.0312 C   0  0  2  0  0  0  0  0  0  0  0  0
    7.9586  -14.9518   23.5898 N   0  0  0  0  0  0  0  0  0  0  0  0
    8.7966  -16.2094   25.4658 C   0  0  0  0  0  0  0  0  0  0  0  0
    8.0601  -17.2258   25.5358 O   0  0  0  0  0  0  0  0  0  0  0  0
   10.1812  -16.4131   25.8548 N   0  0  0  0  0  0  0  0  0  0  0  0
   10.6210  -17.7298   26.3162 C   0  0  1  0  0  0  0  0  0  0  0  0
   12.0379  -18.0057   25.9042 C   0  0  0  0  0  0  0  0  0  0  0  0
   12.1731  -18.0056   24.4347 C   0  0  0  0  0  0  0  0  0  0  0  0
   11.2834  -18.5113   23.4956 C   0  0  0  0  0  0  0  0  0  0  0  0
   11.8146  -18.2930   22.3001 N   0  0  0  0  0  0  0  0  0  0  0  0
   12.9895  -17.6787   22.4172 C   0  0  0  0  0  0  0  0  0  0  0  0
   13.1949  -17.5100   23.7231 N   0  0  0  0  0  0  0  0  0  0  0  0
   10.4450  -17.7413   27.7896 C   0  0  0  0  0  0  0  0  0  0  0  0
   10.6413  -18.8891   28.5665 O   0  0  0  0  0  0  0  0  0  0  0  0
   10.1030  -16.7070   28.4433 O   0  0  0  0  0  0  0  0  0  0  0  0
  1  2  1  0
  3  2  1  0
  4  5  1  0
  4  3  1  0
  5  6  1  1
  5  1  1  0
  6  7  2  0
  9  8  1  1
 10  9  1  0
 11  9  1  0
 12 11  1  1
 13  6  1  0
 13 12  1  0
 14 12  1  0
 14 15  2  0
 16 14  1  0
 17 16  1  0
 17 24  1  0
 17 18  1  1
 19 18  1  0
 20 19  2  0
 21 22  1  0
 21 20  1  0
 22 23  2  0
 23 19  1  0
 24 25  1  0
 26 24  2  0
M  END
$$$$
