PLH.pdb
     RDKit          3D

 26 27  0  0  1  0  0  0  0  0999 V2000
    9.4608  -15.4218   20.6183 N   0  0  0  0  0  0  0  0  0  0  0  0
    8.8395  -15.9941   19.4157 C   0  0  0  0  0  0  0  0  0  0  0  0
    8.0025  -17.1447   19.8838 C   0  0  0  0  0  0  0  0  0  0  0  0
    8.1501  -17.1244   21.3993 C   0  0  0  0  0  0  0  0  0  0  0  0
    8.4500  -15.6416   21.6028 C   0  0  1  0  0  0  0  0  0  0  0  0
    8.8700  -15.3474   22.9773 C   0  0  0  0  0  0  0  0  0  0  0  0
   10.0906  -15.1701   23.2123 O   0  0  0  0  0  0  0  0  0  0  0  0
    5.6435  -12.3640   26.6545 C   0  0  0  0  0  0  0  0  0  0  0  0
    6.8417  -12.8674   25.9427 C   0  0  1  0  0  0  0  0  0  0  0  0
    8.0125  -11.8749   26.1192 C   0  0  0  0  0  0  0  0  0  0  0  0
    7.2842  -14.2522   26.1314 C   0  0  0  0  0  0  0  0  0  0  0  0
    8.4196  -14.8445   25.4156 C   0  0  2  0  0  0  0  0  0  0  0  0
    7.9617  -15.2546   24.0482 N   0  0  0  0  0  0  0  0  0  0  0  0
    9.0240  -16.0139   26.0727 C   0  0  0  0  0  0  0  0  0  0  0  0
    9.3538  -16.0779   27.2840 O   0  0  0  0  0  0  0  0  0  0  0  0
    9.2770  -17.2126   25.2921 N   0  0  0  0  0  0  0  0  0  0  0  0
    9.8927  -18.3777   25.9272 C   0  0  1  0  0  0  0  0  0  0  0  0
    9.5811  -19.6374   25.1724 C   0  0  0  0  0  0  0  0  0  0  0  0
    8.1241  -19.8476   25.0689 C   0  0  0  0  0  0  0  0  0  0  0  0
    7.2114  -20.0222   26.1012 C   0  0  0  0  0  0  0  0  0  0  0  0
    6.0181  -20.1759   25.5431 N   0  0  0  0  0  0  0  0  0  0  0  0
    6.1119  -20.1102   24.2170 C   0  0  0  0  0  0  0  0  0  0  0  0
    7.4006  -19.9099   23.9425 N   0  0  0  0  0  0  0  0  0  0  0  0
   11.3490  -18.1012   25.9950 C   0  0  0  0  0  0  0  0  0  0  0  0
   12.2508  -18.9481   26.6502 O   0  0  0  0  0  0  0  0  0  0  0  0
   11.8735  -17.0744   25.4614 O   0  0  0  0  0  0  0  0  0  0  0  0
  1  2  1  0
  3  2  1  0
  4  5  1  0
  4  3  1  0
  5  6  1  1
  5  1  1  0
  6  7  2  0
  9  8  1  1
 10  9  1  0
 11  9  1  0
 12 11  1  1
 13  6  1  0
 13 12  1  0
 14 12  1  0
 14 15  2  0
 16 14  1  0
 17 16  1  0
 17 24  1  0
 17 18  1  6
 19 18  1  0
 20 19  2  0
 21 22  1  0
 21 20  1  0
 22 23  2  0
 23 19  1  0
 24 25  1  0
 26 24  2  0
M  END
$$$$
