PLH.pdb
     RDKit          3D

 26 27  0  0  1  0  0  0  0  0999 V2000
    7.3258  -15.1161   20.2204 N   0  0  0  0  0  0  0  0  0  0  0  0
    7.0725  -14.7533   18.8189 C   0  0  0  0  0  0  0  0  0  0  0  0
    7.5242  -13.3335   18.6656 C   0  0  0  0  0  0  0  0  0  0  0  0
    8.0923  -12.9706   20.0310 C   0  0  0  0  0  0  0  0  0  0  0  0
    8.5025  -14.3606   20.5102 C   0  0  1  0  0  0  0  0  0  0  0  0
    8.8905  -14.3641   21.9249 C   0  0  0  0  0  0  0  0  0  0  0  0
   10.1100  -14.3057   22.2182 O   0  0  0  0  0  0  0  0  0  0  0  0
    8.4346  -12.0422   26.9353 C   0  0  0  0  0  0  0  0  0  0  0  0
    7.4458  -13.0552   26.4973 C   0  0  1  0  0  0  0  0  0  0  0  0
    6.0540  -12.7138   27.0745 C   0  0  0  0  0  0  0  0  0  0  0  0
    7.3576  -13.4374   25.0848 C   0  0  0  0  0  0  0  0  0  0  0  0
    8.3737  -14.2431   24.3987 C   0  0  2  0  0  0  0  0  0  0  0  0
    7.9527  -14.4305   22.9721 N   0  0  0  0  0  0  0  0  0  0  0  0
    8.6152  -15.5689   24.9891 C   0  0  0  0  0  0  0  0  0  0  0  0
    7.7536  -16.4749   25.1193 O   0  0  0  0  0  0  0  0  0  0  0  0
    9.9448  -15.8968   25.4737 N   0  0  0  0  0  0  0  0  0  0  0  0
   10.2334  -17.2508   25.9461 C   0  0  1  0  0  0  0  0  0  0  0  0
   11.4817  -17.7937   25.3131 C   0  0  0  0  0  0  0  0  0  0  0  0
   11.3196  -17.9315   23.8528 C   0  0  0  0  0  0  0  0  0  0  0  0
   10.2806  -18.5432   23.1632 C   0  0  0  0  0  0  0  0  0  0  0  0
   10.5524  -18.4294   21.8701 N   0  0  0  0  0  0  0  0  0  0  0  0
   11.7017  -17.7825   21.6905 C   0  0  0  0  0  0  0  0  0  0  0  0
   12.1577  -17.4853   22.9070 N   0  0  0  0  0  0  0  0  0  0  0  0
   10.3348  -17.1696   27.4243 C   0  0  0  0  0  0  0  0  0  0  0  0
   10.1753  -15.9709   28.1294 O   0  0  0  0  0  0  0  0  0  0  0  0
   10.5743  -18.1860   28.1480 O   0  0  0  0  0  0  0  0  0  0  0  0
  1  2  1  0
  3  2  1  0
  4  5  1  0
  4  3  1  0
  5  6  1  1
  5  1  1  0
  6  7  2  0
  9  8  1  6
 10  9  1  0
 11  9  1  0
 12 11  1  1
 13  6  1  0
 13 12  1  0
 14 12  1  0
 14 15  2  0
 16 14  1  0
 17 16  1  0
 17 24  1  0
 17 18  1  6
 19 18  1  0
 20 19  2  0
 21 22  1  0
 21 20  1  0
 22 23  2  0
 23 19  1  0
 24 25  1  0
 26 24  2  0
M  END
$$$$
