PLH.pdb
     RDKit          3D

 26 27  0  0  1  0  0  0  0  0999 V2000
    6.8955  -16.5581   21.2083 N   0  0  0  0  0  0  0  0  0  0  0  0
    6.3844  -16.7531   19.8442 C   0  0  0  0  0  0  0  0  0  0  0  0
    6.5456  -15.4386   19.1446 C   0  0  0  0  0  0  0  0  0  0  0  0
    7.2267  -14.5465   20.1737 C   0  0  0  0  0  0  0  0  0  0  0  0
    7.9452  -15.6136   20.9953 C   0  0  1  0  0  0  0  0  0  0  0  0
    8.5243  -15.0649   22.2264 C   0  0  0  0  0  0  0  0  0  0  0  0
    9.6456  -14.5026   22.1696 O   0  0  0  0  0  0  0  0  0  0  0  0
    7.9108  -11.7626   26.6404 C   0  0  0  0  0  0  0  0  0  0  0  0
    7.2491  -13.0885   26.6295 C   0  0  1  0  0  0  0  0  0  0  0  0
    5.8727  -12.9937   27.3247 C   0  0  0  0  0  0  0  0  0  0  0  0
    7.1660  -13.8611   25.3864 C   0  0  0  0  0  0  0  0  0  0  0  0
    8.3413  -14.3184   24.6369 C   0  0  2  0  0  0  0  0  0  0  0  0
    7.8763  -15.1413   23.4732 N   0  0  0  0  0  0  0  0  0  0  0  0
    9.3005  -15.1169   25.4159 C   0  0  0  0  0  0  0  0  0  0  0  0
   10.0943  -14.6622   26.2782 O   0  0  0  0  0  0  0  0  0  0  0  0
    9.3673  -16.5519   25.2002 N   0  0  0  0  0  0  0  0  0  0  0  0
   10.3509  -17.3521   25.9297 C   0  0  1  0  0  0  0  0  0  0  0  0
   11.7297  -16.7736   25.7969 C   0  0  0  0  0  0  0  0  0  0  0  0
   12.2394  -16.9269   24.4206 C   0  0  0  0  0  0  0  0  0  0  0  0
   11.5731  -17.4415   23.3159 C   0  0  0  0  0  0  0  0  0  0  0  0
   12.4159  -17.3865   22.2932 N   0  0  0  0  0  0  0  0  0  0  0  0
   13.5804  -16.8681   22.6764 C   0  0  0  0  0  0  0  0  0  0  0  0
   13.4584  -16.5929   23.9746 N   0  0  0  0  0  0  0  0  0  0  0  0
    9.8901  -17.4052   27.3393 C   0  0  0  0  0  0  0  0  0  0  0  0
   10.6385  -18.0061   28.3583 O   0  0  0  0  0  0  0  0  0  0  0  0
    8.7826  -16.9076   27.7136 O   0  0  0  0  0  0  0  0  0  0  0  0
  1  2  1  0
  3  2  1  0
  4  5  1  0
  4  3  1  0
  5  6  1  1
  5  1  1  0
  6  7  2  0
  9  8  1  6
 10  9  1  0
 11  9  1  0
 12 11  1  1
 13  6  1  0
 13 12  1  0
 14 12  1  0
 14 15  2  0
 16 14  1  0
 17 16  1  0
 17 24  1  0
 17 18  1  1
 19 18  1  0
 20 19  2  0
 21 22  1  0
 21 20  1  0
 22 23  2  0
 23 19  1  0
 24 25  1  0
 26 24  2  0
M  END
$$$$
