PLH.pdb
     RDKit          3D

 26 27  0  0  1  0  0  0  0  0999 V2000
    6.9803  -15.1952   21.1680 N   0  0  0  0  0  0  0  0  0  0  0  0
    6.5778  -14.9410   19.7775 C   0  0  0  0  0  0  0  0  0  0  0  0
    7.1742  -13.6189   19.4039 C   0  0  0  0  0  0  0  0  0  0  0  0
    7.9699  -13.2046   20.6343 C   0  0  0  0  0  0  0  0  0  0  0  0
    8.2699  -14.5836   21.2158 C   0  0  1  0  0  0  0  0  0  0  0  0
    8.8507  -14.5010   22.5604 C   0  0  0  0  0  0  0  0  0  0  0  0
   10.0613  -14.1895   22.6786 O   0  0  0  0  0  0  0  0  0  0  0  0
    5.5094  -12.4758   26.2689 C   0  0  0  0  0  0  0  0  0  0  0  0
    6.8132  -12.7221   25.6091 C   0  0  1  0  0  0  0  0  0  0  0  0
    7.6911  -11.4535   25.6919 C   0  0  0  0  0  0  0  0  0  0  0  0
    7.5857  -13.9264   25.9286 C   0  0  0  0  0  0  0  0  0  0  0  0
    8.6678  -14.4426   25.0831 C   0  0  2  0  0  0  0  0  0  0  0  0
    8.1081  -14.7563   23.7282 N   0  0  0  0  0  0  0  0  0  0  0  0
    9.3360  -15.6475   25.5994 C   0  0  0  0  0  0  0  0  0  0  0  0
    9.7074  -15.8203   26.7879 O   0  0  0  0  0  0  0  0  0  0  0  0
    9.6072  -16.7500   24.6934 N   0  0  0  0  0  0  0  0  0  0  0  0
   10.3233  -17.9301   25.1776 C   0  0  1  0  0  0  0  0  0  0  0  0
    9.5853  -19.1923   24.8377 C   0  0  0  0  0  0  0  0  0  0  0  0
    8.2844  -19.2500   25.5319 C   0  0  0  0  0  0  0  0  0  0  0  0
    8.0489  -19.3844   26.8942 C   0  0  0  0  0  0  0  0  0  0  0  0
    6.7334  -19.3892   27.0626 N   0  0  0  0  0  0  0  0  0  0  0  0
    6.1131  -19.2661   25.8914 C   0  0  0  0  0  0  0  0  0  0  0  0
    7.0704  -19.1823   24.9680 N   0  0  0  0  0  0  0  0  0  0  0  0
   11.6763  -17.8816   24.5701 C   0  0  0  0  0  0  0  0  0  0  0  0
   12.6786  -18.8088   24.8789 O   0  0  0  0  0  0  0  0  0  0  0  0
   12.0139  -16.9922   23.7279 O   0  0  0  0  0  0  0  0  0  0  0  0
  1  2  1  0
  3  2  1  0
  4  5  1  0
  4  3  1  0
  5  6  1  1
  5  1  1  0
  6  7  2  0
  9  8  1  1
 10  9  1  0
 11  9  1  0
 12 11  1  1
 13  6  1  0
 13 12  1  0
 14 12  1  0
 14 15  2  0
 16 14  1  0
 17 16  1  0
 17 24  1  0
 17 18  1  6
 19 18  1  0
 20 19  2  0
 21 22  1  0
 21 20  1  0
 22 23  2  0
 23 19  1  0
 24 25  1  0
 26 24  2  0
M  END
$$$$
