PLH.pdb
     RDKit          3D

 26 27  0  0  1  0  0  0  0  0999 V2000
    7.3551  -16.7419   21.0337 N   0  0  0  0  0  0  0  0  0  0  0  0
    6.9763  -17.0409   19.6455 C   0  0  0  0  0  0  0  0  0  0  0  0
    6.9489  -15.7273   18.9265 C   0  0  0  0  0  0  0  0  0  0  0  0
    7.3939  -14.7162   19.9747 C   0  0  0  0  0  0  0  0  0  0  0  0
    8.2338  -15.6291   20.8640 C   0  0  1  0  0  0  0  0  0  0  0  0
    8.6259  -14.9716   22.1154 C   0  0  0  0  0  0  0  0  0  0  0  0
    9.6454  -14.2385   22.1204 O   0  0  0  0  0  0  0  0  0  0  0  0
    7.6397  -11.6683   26.3721 C   0  0  0  0  0  0  0  0  0  0  0  0
    7.0260  -13.0172   26.3728 C   0  0  1  0  0  0  0  0  0  0  0  0
    5.6084  -12.9483   26.9831 C   0  0  0  0  0  0  0  0  0  0  0  0
    7.0435  -13.8361   25.1571 C   0  0  0  0  0  0  0  0  0  0  0  0
    8.2738  -14.3458   24.5414 C   0  0  2  0  0  0  0  0  0  0  0  0
    7.9072  -15.1267   23.3153 N   0  0  0  0  0  0  0  0  0  0  0  0
    9.0918  -15.2051   25.4115 C   0  0  0  0  0  0  0  0  0  0  0  0
    9.6172  -14.8509   26.4972 O   0  0  0  0  0  0  0  0  0  0  0  0
    9.3361  -16.5822   25.0191 N   0  0  0  0  0  0  0  0  0  0  0  0
   10.0575  -17.4788   25.9222 C   0  0  1  0  0  0  0  0  0  0  0  0
    9.5919  -18.8976   25.7672 C   0  0  0  0  0  0  0  0  0  0  0  0
    8.3028  -19.1112   26.4527 C   0  0  0  0  0  0  0  0  0  0  0  0
    7.9583  -18.7604   27.7517 C   0  0  0  0  0  0  0  0  0  0  0  0
    6.7025  -19.1445   27.9380 N   0  0  0  0  0  0  0  0  0  0  0  0
    6.2229  -19.7195   26.8376 C   0  0  0  0  0  0  0  0  0  0  0  0
    7.2087  -19.6922   25.9411 N   0  0  0  0  0  0  0  0  0  0  0  0
   11.5000  -17.3171   25.6144 C   0  0  0  0  0  0  0  0  0  0  0  0
   11.9637  -16.5432   24.5441 O   0  0  0  0  0  0  0  0  0  0  0  0
   12.4107  -17.8729   26.3044 O   0  0  0  0  0  0  0  0  0  0  0  0
  1  2  1  0
  3  2  1  0
  4  5  1  0
  4  3  1  0
  5  6  1  1
  5  1  1  0
  6  7  2  0
  9  8  1  6
 10  9  1  0
 11  9  1  0
 12 11  1  1
 13  6  1  0
 13 12  1  0
 14 12  1  0
 14 15  2  0
 16 14  1  0
 17 16  1  0
 17 24  1  0
 17 18  1  6
 19 18  1  0
 20 19  2  0
 21 22  1  0
 21 20  1  0
 22 23  2  0
 23 19  1  0
 24 25  1  0
 26 24  2  0
M  END
$$$$
