PLH.pdb
     RDKit          3D

 26 27  0  0  1  0  0  0  0  0999 V2000
    7.0658  -15.9518   20.7806 N   0  0  0  0  0  0  0  0  0  0  0  0
    6.6612  -15.9797   19.3680 C   0  0  0  0  0  0  0  0  0  0  0  0
    6.9437  -14.6129   18.8243 C   0  0  0  0  0  0  0  0  0  0  0  0
    7.5793  -13.8688   19.9909 C   0  0  0  0  0  0  0  0  0  0  0  0
    8.1742  -15.0520   20.7498 C   0  0  1  0  0  0  0  0  0  0  0  0
    8.6749  -14.6634   22.0728 C   0  0  0  0  0  0  0  0  0  0  0  0
    9.8125  -14.1389   22.1595 O   0  0  0  0  0  0  0  0  0  0  0  0
    7.9178  -11.6359   26.5471 C   0  0  0  0  0  0  0  0  0  0  0  0
    7.2304  -12.9472   26.4855 C   0  0  1  0  0  0  0  0  0  0  0  0
    5.8325  -12.8379   27.1341 C   0  0  0  0  0  0  0  0  0  0  0  0
    7.1757  -13.6928   25.2245 C   0  0  0  0  0  0  0  0  0  0  0  0
    8.3628  -14.2227   24.5446 C   0  0  2  0  0  0  0  0  0  0  0  0
    7.9336  -14.8531   23.2539 N   0  0  0  0  0  0  0  0  0  0  0  0
    9.1258  -15.2169   25.3154 C   0  0  0  0  0  0  0  0  0  0  0  0
    9.5846  -15.0437   26.4729 O   0  0  0  0  0  0  0  0  0  0  0  0
    9.3925  -16.5173   24.7256 N   0  0  0  0  0  0  0  0  0  0  0  0
   10.1755  -17.5056   25.4674 C   0  0  1  0  0  0  0  0  0  0  0  0
    9.6508  -18.8943   25.2444 C   0  0  0  0  0  0  0  0  0  0  0  0
    8.3522  -19.0858   25.9185 C   0  0  0  0  0  0  0  0  0  0  0  0
    7.9413  -18.5715   27.1416 C   0  0  0  0  0  0  0  0  0  0  0  0
    6.7039  -19.0020   27.3483 N   0  0  0  0  0  0  0  0  0  0  0  0
    6.2983  -19.7601   26.3322 C   0  0  0  0  0  0  0  0  0  0  0  0
    7.3127  -19.8023   25.4688 N   0  0  0  0  0  0  0  0  0  0  0  0
   11.5822  -17.3510   25.0211 C   0  0  0  0  0  0  0  0  0  0  0  0
   12.6566  -17.9611   25.6791 O   0  0  0  0  0  0  0  0  0  0  0  0
   11.9036  -16.6522   24.0099 O   0  0  0  0  0  0  0  0  0  0  0  0
  1  2  1  0
  3  2  1  0
  4  5  1  0
  4  3  1  0
  5  6  1  1
  5  1  1  0
  6  7  2  0
  9  8  1  6
 10  9  1  0
 11  9  1  0
 12 11  1  1
 13  6  1  0
 13 12  1  0
 14 12  1  0
 14 15  2  0
 16 14  1  0
 17 16  1  0
 17 24  1  0
 17 18  1  6
 19 18  1  0
 20 19  2  0
 21 22  1  0
 21 20  1  0
 22 23  2  0
 23 19  1  0
 24 25  1  0
 26 24  2  0
M  END
$$$$
