PLH.pdb
     RDKit          3D

 26 27  0  0  1  0  0  0  0  0999 V2000
    6.8578  -15.5698   21.1823 N   0  0  0  0  0  0  0  0  0  0  0  0
    6.7513  -15.2818   19.7451 C   0  0  0  0  0  0  0  0  0  0  0  0
    7.5963  -14.0702   19.4970 C   0  0  0  0  0  0  0  0  0  0  0  0
    8.2141  -13.7590   20.8535 C   0  0  0  0  0  0  0  0  0  0  0  0
    8.1955  -15.1574   21.4651 C   0  0  1  0  0  0  0  0  0  0  0  0
    8.5342  -15.1399   22.8923 C   0  0  0  0  0  0  0  0  0  0  0  0
    9.7430  -15.1914   23.2282 O   0  0  0  0  0  0  0  0  0  0  0  0
    6.0393  -11.6456   26.1207 C   0  0  0  0  0  0  0  0  0  0  0  0
    7.1150  -12.5437   25.6388 C   0  0  1  0  0  0  0  0  0  0  0  0
    8.4944  -11.9039   25.9122 C   0  0  0  0  0  0  0  0  0  0  0  0
    7.1060  -13.9647   25.9989 C   0  0  0  0  0  0  0  0  0  0  0  0
    7.9539  -14.9703   25.3491 C   0  0  2  0  0  0  0  0  0  0  0  0
    7.5604  -15.0675   23.9057 N   0  0  0  0  0  0  0  0  0  0  0  0
    7.8833  -16.3155   25.9407 C   0  0  0  0  0  0  0  0  0  0  0  0
    6.9654  -17.1508   25.7408 O   0  0  0  0  0  0  0  0  0  0  0  0
    8.9414  -16.7522   26.8351 N   0  0  0  0  0  0  0  0  0  0  0  0
    9.1904  -18.1812   27.0244 C   0  0  1  0  0  0  0  0  0  0  0  0
    9.5644  -18.8445   25.7307 C   0  0  0  0  0  0  0  0  0  0  0  0
    8.3657  -19.3100   25.0068 C   0  0  0  0  0  0  0  0  0  0  0  0
    7.0435  -19.2694   25.4301 C   0  0  0  0  0  0  0  0  0  0  0  0
    6.3082  -19.7940   24.4589 N   0  0  0  0  0  0  0  0  0  0  0  0
    7.0794  -20.1676   23.4403 C   0  0  0  0  0  0  0  0  0  0  0  0
    8.3302  -19.8667   23.7882 N   0  0  0  0  0  0  0  0  0  0  0  0
   10.2578  -18.2917   28.0492 C   0  0  0  0  0  0  0  0  0  0  0  0
   10.2590  -19.2832   29.0373 O   0  0  0  0  0  0  0  0  0  0  0  0
   11.2428  -17.4905   28.0966 O   0  0  0  0  0  0  0  0  0  0  0  0
  1  2  1  0
  3  2  1  0
  4  5  1  0
  4  3  1  0
  5  6  1  1
  5  1  1  0
  6  7  2  0
  9  8  1  1
 10  9  1  0
 11  9  1  0
 12 11  1  1
 13  6  1  0
 13 12  1  0
 14 12  1  0
 14 15  2  0
 16 14  1  0
 17 16  1  0
 17 24  1  0
 17 18  1  6
 19 18  1  0
 20 19  2  0
 21 22  1  0
 21 20  1  0
 22 23  2  0
 23 19  1  0
 24 25  1  0
 26 24  2  0
M  END
$$$$
