DNS.pdb
     RDKit          3D

 23 22  0  0  1  0  0  0  0  0999 V2000
    9.8728  -18.1972   20.5040 N   0  0  0  0  0  0  0  0  0  0  0  0
    9.0017  -17.0468   20.4193 C   0  0  1  0  0  0  0  0  0  0  0  0
    8.0502  -17.1766   19.2261 C   0  0  0  0  0  0  0  0  0  0  0  0
    8.7922  -16.8555   17.9849 C   0  0  0  0  0  0  0  0  0  0  0  0
   10.0201  -16.5535   18.0017 O   0  0  0  0  0  0  0  0  0  0  0  0
    8.1369  -17.0081   21.6296 C   0  0  0  0  0  0  0  0  0  0  0  0
    7.1543  -17.7761   21.6835 O   0  0  0  0  0  0  0  0  0  0  0  0
    8.1696  -16.8738   16.7581 O   0  0  0  0  0  0  0  0  0  0  0  0
   10.2399  -16.7784   24.5529 N   0  0  0  0  0  0  0  0  0  0  0  0
    9.1689  -17.6083   24.9727 C   0  0  0  0  0  0  0  0  0  0  0  0
    9.4084  -18.6335   25.6845 O   0  0  0  0  0  0  0  0  0  0  0  0
    7.7829  -17.3119   24.6042 C   0  0  0  0  0  0  0  0  0  0  0  0
    7.7036  -15.9858   23.8381 C   0  0  2  0  0  0  0  0  0  0  0  0
    8.4876  -16.0980   22.6453 N   0  0  0  0  0  0  0  0  0  0  0  0
    8.0902  -14.8570   24.7032 C   0  0  0  0  0  0  0  0  0  0  0  0
    9.3148  -14.5692   24.7680 O   0  0  0  0  0  0  0  0  0  0  0  0
    5.5502  -12.0084   25.3943 O   0  0  0  0  0  0  0  0  0  0  0  0
    6.5458  -11.8682   26.3285 C   0  0  0  0  0  0  0  0  0  0  0  0
    7.6415  -12.8858   26.1121 C   0  0  2  0  0  0  0  0  0  0  0  0
    7.1996  -14.0743   25.4637 N   0  0  0  0  0  0  0  0  0  0  0  0
    8.2782  -13.1298   27.4328 C   0  0  0  0  0  0  0  0  0  0  0  0
    8.7801  -12.0396   28.1110 O   0  0  0  0  0  0  0  0  0  0  0  0
    8.3762  -14.2684   27.9478 O   0  0  0  0  0  0  0  0  0  0  0  0
  2  1  1  1
  2  3  1  0
  3  4  1  0
  4  8  1  0
  5  4  2  0
  6  2  1  0
  7  6  2  0
 10  9  1  0
 11 10  2  0
 12 10  1  0
 13 12  1  1
 13 14  1  0
 13 15  1  0
 14  6  1  0
 15 20  1  0
 16 15  2  0
 18 17  1  0
 19 18  1  1
 19 21  1  0
 20 19  1  0
 21 23  2  0
 21 22  1  0
M  END
$$$$
