DNS.pdb
     RDKit          3D

 23 22  0  0  1  0  0  0  0  0999 V2000
   -1.5530  -28.0631   29.4981 N   0  0  0  0  0  0  0  0  0  0  0  0
   -1.8532  -26.7505   30.0240 C   0  0  1  0  0  0  0  0  0  0  0  0
   -1.0800  -25.6724   29.2587 C   0  0  0  0  0  0  0  0  0  0  0  0
    0.3482  -25.7419   29.6454 C   0  0  0  0  0  0  0  0  0  0  0  0
    1.2641  -25.2970   28.8954 O   0  0  0  0  0  0  0  0  0  0  0  0
   -3.2945  -26.4594   29.7965 C   0  0  0  0  0  0  0  0  0  0  0  0
   -3.7777  -26.6918   28.6693 O   0  0  0  0  0  0  0  0  0  0  0  0
    0.7354  -26.2969   30.8433 O   0  0  0  0  0  0  0  0  0  0  0  0
   -8.4332  -27.0290   31.3823 N   0  0  0  0  0  0  0  0  0  0  0  0
   -7.5467  -26.1185   32.0126 C   0  0  0  0  0  0  0  0  0  0  0  0
   -8.0089  -25.0761   32.5740 O   0  0  0  0  0  0  0  0  0  0  0  0
   -6.1009  -26.3502   32.0335 C   0  0  0  0  0  0  0  0  0  0  0  0
   -5.4425  -25.7433   30.7885 C   0  0  2  0  0  0  0  0  0  0  0  0
   -4.0265  -25.9353   30.8793 N   0  0  0  0  0  0  0  0  0  0  0  0
   -5.8449  -24.3360   30.6164 C   0  0  0  0  0  0  0  0  0  0  0  0
   -5.3631  -23.4931   31.4188 O   0  0  0  0  0  0  0  0  0  0  0  0
   -8.7229  -22.8994   27.9213 O   0  0  0  0  0  0  0  0  0  0  0  0
   -7.6462  -22.0909   28.1871 C   0  0  0  0  0  0  0  0  0  0  0  0
   -6.9956  -22.4659   29.4982 C   0  0  2  0  0  0  0  0  0  0  0  0
   -6.7255  -23.8583   29.6262 N   0  0  0  0  0  0  0  0  0  0  0  0
   -7.8552  -21.9241   30.5831 C   0  0  0  0  0  0  0  0  0  0  0  0
   -8.3779  -22.8199   31.4913 O   0  0  0  0  0  0  0  0  0  0  0  0
   -8.1206  -20.7050   30.7046 O   0  0  0  0  0  0  0  0  0  0  0  0
  2  1  1  6
  2  3  1  0
  3  4  1  0
  4  8  1  0
  5  4  2  0
  6  2  1  0
  7  6  2  0
 10  9  1  0
 11 10  2  0
 12 10  1  0
 13 12  1  1
 13 14  1  0
 13 15  1  0
 14  6  1  0
 15 20  1  0
 16 15  2  0
 18 17  1  0
 19 18  1  6
 19 21  1  0
 20 19  1  0
 21 23  2  0
 21 22  1  0
M  END
$$$$
