DNS.pdb
     RDKit          3D

 23 22  0  0  1  0  0  0  0  0999 V2000
   11.0478  -16.0814   16.4094 N   0  0  0  0  0  0  0  0  0  0  0  0
   11.8039  -17.3013   16.5821 C   0  0  1  0  0  0  0  0  0  0  0  0
   12.6532  -17.5905   15.3408 C   0  0  0  0  0  0  0  0  0  0  0  0
   12.1025  -16.8289   14.1958 C   0  0  0  0  0  0  0  0  0  0  0  0
   12.8521  -16.2391   13.3654 O   0  0  0  0  0  0  0  0  0  0  0  0
   12.7661  -17.1162   17.7019 C   0  0  0  0  0  0  0  0  0  0  0  0
   13.9595  -17.4339   17.5195 O   0  0  0  0  0  0  0  0  0  0  0  0
   10.7454  -16.7335   13.9908 O   0  0  0  0  0  0  0  0  0  0  0  0
   16.3901  -15.5280   20.6202 N   0  0  0  0  0  0  0  0  0  0  0  0
   15.1691  -14.8426   20.3937 C   0  0  0  0  0  0  0  0  0  0  0  0
   14.8744  -13.8301   21.1032 O   0  0  0  0  0  0  0  0  0  0  0  0
   14.2314  -15.2748   19.3552 C   0  0  0  0  0  0  0  0  0  0  0  0
   13.1432  -16.1732   19.9556 C   0  0  2  0  0  0  0  0  0  0  0  0
   12.2620  -16.5892   18.9065 N   0  0  0  0  0  0  0  0  0  0  0  0
   12.4629  -15.4961   21.0740 C   0  0  0  0  0  0  0  0  0  0  0  0
   11.7170  -14.5205   20.7935 O   0  0  0  0  0  0  0  0  0  0  0  0
    9.5795  -16.7838   21.8304 O   0  0  0  0  0  0  0  0  0  0  0  0
   10.5963  -17.2945   22.5977 C   0  0  0  0  0  0  0  0  0  0  0  0
   11.4299  -16.1883   23.2013 C   0  0  2  0  0  0  0  0  0  0  0  0
   12.5802  -15.8526   22.4316 N   0  0  0  0  0  0  0  0  0  0  0  0
   11.7444  -16.5904   24.5973 C   0  0  0  0  0  0  0  0  0  0  0  0
   13.0733  -16.7157   24.9419 O   0  0  0  0  0  0  0  0  0  0  0  0
   10.8648  -16.8168   25.4612 O   0  0  0  0  0  0  0  0  0  0  0  0
  2  1  1  6
  2  3  1  0
  3  4  1  0
  4  8  1  0
  5  4  2  0
  6  2  1  0
  7  6  2  0
 10  9  1  0
 11 10  2  0
 12 10  1  0
 13 12  1  6
 13 14  1  0
 13 15  1  0
 14  6  1  0
 15 20  1  0
 16 15  2  0
 18 17  1  0
 19 18  1  6
 19 21  1  0
 20 19  1  0
 21 23  2  0
 21 22  1  0
M  END
$$$$
