DNS.pdb
     RDKit          3D

 23 22  0  0  1  0  0  0  0  0999 V2000
   15.1735  -16.3236   17.7692 N   0  0  0  0  0  0  0  0  0  0  0  0
   15.1693  -14.8957   17.5445 C   0  0  1  0  0  0  0  0  0  0  0  0
   14.9090  -14.5821   16.0681 C   0  0  0  0  0  0  0  0  0  0  0  0
   16.1099  -14.9481   15.2819 C   0  0  0  0  0  0  0  0  0  0  0  0
   17.2621  -14.9823   15.8022 O   0  0  0  0  0  0  0  0  0  0  0  0
   14.0352  -14.2938   18.2966 C   0  0  0  0  0  0  0  0  0  0  0  0
   14.1802  -13.1512   18.7779 O   0  0  0  0  0  0  0  0  0  0  0  0
   16.0170  -15.2670   13.9468 O   0  0  0  0  0  0  0  0  0  0  0  0
   10.5101  -16.6602   16.6410 N   0  0  0  0  0  0  0  0  0  0  0  0
   10.4621  -15.4082   17.3060 C   0  0  0  0  0  0  0  0  0  0  0  0
   10.3932  -14.3365   16.6264 O   0  0  0  0  0  0  0  0  0  0  0  0
   10.4901  -15.3177   18.7673 C   0  0  0  0  0  0  0  0  0  0  0  0
   11.7725  -14.6200   19.2369 C   0  0  2  0  0  0  0  0  0  0  0  0
   12.8605  -15.0609   18.4172 N   0  0  0  0  0  0  0  0  0  0  0  0
   11.9866  -14.8328   20.6794 C   0  0  0  0  0  0  0  0  0  0  0  0
   11.0336  -14.5533   21.4543 O   0  0  0  0  0  0  0  0  0  0  0  0
   12.4103  -16.7514   24.5327 O   0  0  0  0  0  0  0  0  0  0  0  0
   12.2659  -16.5629   23.1810 C   0  0  0  0  0  0  0  0  0  0  0  0
   13.2591  -15.5481   22.6646 C   0  0  2  0  0  0  0  0  0  0  0  0
   13.1718  -15.3239   21.2609 N   0  0  0  0  0  0  0  0  0  0  0  0
   14.6060  -15.9869   23.1147 C   0  0  0  0  0  0  0  0  0  0  0  0
   14.8688  -15.9560   24.4676 O   0  0  0  0  0  0  0  0  0  0  0  0
   15.4994  -16.3779   22.3271 O   0  0  0  0  0  0  0  0  0  0  0  0
  2  1  1  6
  2  3  1  0
  3  4  1  0
  4  8  1  0
  5  4  2  0
  6  2  1  0
  7  6  2  0
 10  9  1  0
 11 10  2  0
 12 10  1  0
 13 12  1  6
 13 14  1  0
 13 15  1  0
 14  6  1  0
 15 20  1  0
 16 15  2  0
 18 17  1  0
 19 18  1  6
 19 21  1  0
 20 19  1  0
 21 23  2  0
 21 22  1  0
M  END
$$$$
