DNS.pdb
     RDKit          3D

 23 22  0  0  1  0  0  0  0  0999 V2000
   11.8598  -19.9016   16.7138 N   0  0  0  0  0  0  0  0  0  0  0  0
   10.7838  -18.9654   16.9488 C   0  0  1  0  0  0  0  0  0  0  0  0
    9.5054  -19.4231   16.2402 C   0  0  0  0  0  0  0  0  0  0  0  0
    9.7652  -19.4960   14.7837 C   0  0  0  0  0  0  0  0  0  0  0  0
   10.5821  -18.7176   14.2127 O   0  0  0  0  0  0  0  0  0  0  0  0
   10.4644  -18.9548   18.4021 C   0  0  0  0  0  0  0  0  0  0  0  0
    9.5326  -18.2262   18.8011 O   0  0  0  0  0  0  0  0  0  0  0  0
    9.1235  -20.4196   13.9913 O   0  0  0  0  0  0  0  0  0  0  0  0
   11.7330  -22.4340   23.3210 N   0  0  0  0  0  0  0  0  0  0  0  0
   11.0030  -21.5619   22.4733 C   0  0  0  0  0  0  0  0  0  0  0  0
    9.9564  -20.9887   22.9106 O   0  0  0  0  0  0  0  0  0  0  0  0
   11.4274  -21.3028   21.0959 C   0  0  0  0  0  0  0  0  0  0  0  0
   10.9168  -19.9353   20.6257 C   0  0  2  0  0  0  0  0  0  0  0  0
   11.2426  -19.7759   19.2406 N   0  0  0  0  0  0  0  0  0  0  0  0
   11.4334  -18.8581   21.4888 C   0  0  0  0  0  0  0  0  0  0  0  0
   12.6715  -18.6290   21.4517 O   0  0  0  0  0  0  0  0  0  0  0  0
    9.9470  -15.3676   21.9205 O   0  0  0  0  0  0  0  0  0  0  0  0
   10.3592  -15.7643   23.1680 C   0  0  0  0  0  0  0  0  0  0  0  0
   11.2362  -16.9919   23.0857 C   0  0  2  0  0  0  0  0  0  0  0  0
   10.6532  -18.0644   22.3522 N   0  0  0  0  0  0  0  0  0  0  0  0
   11.6093  -17.3563   24.4776 C   0  0  0  0  0  0  0  0  0  0  0  0
   12.2666  -16.4078   25.2318 O   0  0  0  0  0  0  0  0  0  0  0  0
   11.3549  -18.4733   24.9865 O   0  0  0  0  0  0  0  0  0  0  0  0
  2  1  1  1
  2  3  1  0
  3  4  1  0
  4  8  1  0
  5  4  2  0
  6  2  1  0
  7  6  2  0
 10  9  1  0
 11 10  2  0
 12 10  1  0
 13 12  1  1
 13 14  1  0
 13 15  1  0
 14  6  1  0
 15 20  1  0
 16 15  2  0
 18 17  1  0
 19 18  1  1
 19 21  1  0
 20 19  1  0
 21 23  2  0
 21 22  1  0
M  END
$$$$
