DNS.pdb
     RDKit          3D

 23 22  0  0  1  0  0  0  0  0999 V2000
   14.0275  -18.2452   14.8079 N   0  0  0  0  0  0  0  0  0  0  0  0
   14.9523  -18.9218   15.6891 C   0  0  1  0  0  0  0  0  0  0  0  0
   16.3950  -18.7201   15.2159 C   0  0  0  0  0  0  0  0  0  0  0  0
   16.5293  -19.2632   13.8443 C   0  0  0  0  0  0  0  0  0  0  0  0
   16.9832  -18.5650   12.8925 O   0  0  0  0  0  0  0  0  0  0  0  0
   14.8737  -18.2995   17.0384 C   0  0  0  0  0  0  0  0  0  0  0  0
   15.0063  -17.0617   17.1313 O   0  0  0  0  0  0  0  0  0  0  0  0
   16.1628  -20.5566   13.5515 O   0  0  0  0  0  0  0  0  0  0  0  0
   12.4751  -19.3672   22.3649 N   0  0  0  0  0  0  0  0  0  0  0  0
   12.8353  -18.5090   21.2944 C   0  0  0  0  0  0  0  0  0  0  0  0
   12.9607  -17.2615   21.5023 O   0  0  0  0  0  0  0  0  0  0  0  0
   13.0683  -19.0274   19.9448 C   0  0  0  0  0  0  0  0  0  0  0  0
   14.4669  -18.6344   19.4535 C   0  0  2  0  0  0  0  0  0  0  0  0
   14.6525  -19.1567   18.1334 N   0  0  0  0  0  0  0  0  0  0  0  0
   15.4990  -19.0607   20.4154 C   0  0  0  0  0  0  0  0  0  0  0  0
   15.7022  -20.2978   20.5372 O   0  0  0  0  0  0  0  0  0  0  0  0
   19.0429  -17.4155   21.2033 O   0  0  0  0  0  0  0  0  0  0  0  0
   18.3985  -17.7508   22.3677 C   0  0  0  0  0  0  0  0  0  0  0  0
   17.2601  -18.7081   22.1025 C   0  0  2  0  0  0  0  0  0  0  0  0
   16.2763  -18.1951   21.2096 N   0  0  0  0  0  0  0  0  0  0  0  0
   16.7120  -19.1118   23.4237 C   0  0  0  0  0  0  0  0  0  0  0  0
   17.5602  -19.7599   24.2961 O   0  0  0  0  0  0  0  0  0  0  0  0
   15.5283  -18.8909   23.7726 O   0  0  0  0  0  0  0  0  0  0  0  0
  2  1  1  6
  2  3  1  0
  3  4  1  0
  4  8  1  0
  5  4  2  0
  6  2  1  0
  7  6  2  0
 10  9  1  0
 11 10  2  0
 12 10  1  0
 13 12  1  1
 13 14  1  0
 13 15  1  0
 14  6  1  0
 15 20  1  0
 16 15  2  0
 18 17  1  0
 19 18  1  1
 19 21  1  0
 20 19  1  0
 21 23  2  0
 21 22  1  0
M  END
$$$$
