DNS.pdb
     RDKit          3D

 23 22  0  0  1  0  0  0  0  0999 V2000
    8.5513  -17.2456   16.7504 N   0  0  0  0  0  0  0  0  0  0  0  0
    9.9781  -17.1674   16.9687 C   0  0  1  0  0  0  0  0  0  0  0  0
   10.6570  -16.3976   15.8318 C   0  0  0  0  0  0  0  0  0  0  0  0
   10.4315  -17.1237   14.5605 C   0  0  0  0  0  0  0  0  0  0  0  0
   10.4043  -18.3871   14.5104 O   0  0  0  0  0  0  0  0  0  0  0  0
   10.2330  -16.3798   18.2051 C   0  0  0  0  0  0  0  0  0  0  0  0
   11.4158  -16.1428   18.5262 O   0  0  0  0  0  0  0  0  0  0  0  0
   10.2419  -16.4469   13.3777 O   0  0  0  0  0  0  0  0  0  0  0  0
    6.8106  -13.3445   18.4109 N   0  0  0  0  0  0  0  0  0  0  0  0
    7.8582  -13.3260   19.3670 C   0  0  0  0  0  0  0  0  0  0  0  0
    8.7076  -12.3807   19.3523 O   0  0  0  0  0  0  0  0  0  0  0  0
    7.9877  -14.3766   20.3790 C   0  0  0  0  0  0  0  0  0  0  0  0
    9.2653  -15.1920   20.1450 C   0  0  2  0  0  0  0  0  0  0  0  0
    9.1114  -15.9490   18.9395 N   0  0  0  0  0  0  0  0  0  0  0  0
    9.5885  -16.0103   21.3273 C   0  0  0  0  0  0  0  0  0  0  0  0
    8.8922  -17.0409   21.5268 O   0  0  0  0  0  0  0  0  0  0  0  0
   13.1224  -16.7962   22.6322 O   0  0  0  0  0  0  0  0  0  0  0  0
   12.3206  -16.6876   23.7407 C   0  0  0  0  0  0  0  0  0  0  0  0
   10.8633  -16.6029   23.3511 C   0  0  2  0  0  0  0  0  0  0  0  0
   10.6137  -15.7319   22.2523 N   0  0  0  0  0  0  0  0  0  0  0  0
   10.1031  -16.2466   24.5777 C   0  0  0  0  0  0  0  0  0  0  0  0
   10.2338  -17.0737   25.6728 O   0  0  0  0  0  0  0  0  0  0  0  0
    9.3594  -15.2406   24.6565 O   0  0  0  0  0  0  0  0  0  0  0  0
  2  1  1  6
  2  3  1  0
  3  4  1  0
  4  8  1  0
  5  4  2  0
  6  2  1  0
  7  6  2  0
 10  9  1  0
 11 10  2  0
 12 10  1  0
 13 12  1  1
 13 14  1  0
 13 15  1  0
 14  6  1  0
 15 20  1  0
 16 15  2  0
 18 17  1  0
 19 18  1  1
 19 21  1  0
 20 19  1  0
 21 23  2  0
 21 22  1  0
M  END
$$$$
