DNS.pdb
     RDKit          3D

 23 22  0  0  1  0  0  0  0  0999 V2000
    7.5594  -12.9226   16.8688 N   0  0  0  0  0  0  0  0  0  0  0  0
    7.8426  -14.2802   17.2767 C   0  0  1  0  0  0  0  0  0  0  0  0
    8.8641  -14.9250   16.3350 C   0  0  0  0  0  0  0  0  0  0  0  0
    9.0510  -16.3408   16.7285 C   0  0  0  0  0  0  0  0  0  0  0  0
    8.0995  -17.0361   17.1874 O   0  0  0  0  0  0  0  0  0  0  0  0
    8.4830  -14.2552   18.6195 C   0  0  0  0  0  0  0  0  0  0  0  0
    9.6109  -13.7321   18.7311 O   0  0  0  0  0  0  0  0  0  0  0  0
   10.2750  -16.9575   16.6089 O   0  0  0  0  0  0  0  0  0  0  0  0
    7.9265  -13.4061   24.0510 N   0  0  0  0  0  0  0  0  0  0  0  0
    7.5087  -14.5788   23.3710 C   0  0  0  0  0  0  0  0  0  0  0  0
    7.5138  -15.6948   23.9790 O   0  0  0  0  0  0  0  0  0  0  0  0
    7.0680  -14.5365   21.9751 C   0  0  0  0  0  0  0  0  0  0  0  0
    8.2570  -14.7512   21.0307 C   0  0  2  0  0  0  0  0  0  0  0  0
    7.7671  -14.8294   19.6876 N   0  0  0  0  0  0  0  0  0  0  0  0
    9.0514  -15.9209   21.4460 C   0  0  0  0  0  0  0  0  0  0  0  0
    8.6407  -17.0569   21.0890 O   0  0  0  0  0  0  0  0  0  0  0  0
   13.0003  -15.9108   22.8166 O   0  0  0  0  0  0  0  0  0  0  0  0
   12.4124  -17.0074   22.2374 C   0  0  0  0  0  0  0  0  0  0  0  0
   10.9355  -17.0615   22.5512 C   0  0  2  0  0  0  0  0  0  0  0  0
   10.2334  -15.8701   22.2105 N   0  0  0  0  0  0  0  0  0  0  0  0
   10.8066  -17.4395   23.9829 C   0  0  0  0  0  0  0  0  0  0  0  0
   11.4462  -18.5872   24.4005 O   0  0  0  0  0  0  0  0  0  0  0  0
   10.1505  -16.7684   24.8138 O   0  0  0  0  0  0  0  0  0  0  0  0
  2  1  1  6
  2  3  1  0
  3  4  1  0
  4  8  1  0
  5  4  2  0
  6  2  1  0
  7  6  2  0
 10  9  1  0
 11 10  2  0
 12 10  1  0
 13 12  1  1
 13 14  1  0
 13 15  1  0
 14  6  1  0
 15 20  1  0
 16 15  2  0
 18 17  1  0
 19 18  1  1
 19 21  1  0
 20 19  1  0
 21 23  2  0
 21 22  1  0
M  END
$$$$
