DNS.pdb
     RDKit          3D

 23 22  0  0  1  0  0  0  0  0999 V2000
   12.1634  -17.3447   15.9787 N   0  0  0  0  0  0  0  0  0  0  0  0
   13.1496  -16.4958   16.6084 C   0  0  1  0  0  0  0  0  0  0  0  0
   13.7628  -15.5319   15.5883 C   0  0  0  0  0  0  0  0  0  0  0  0
   14.3742  -16.3196   14.4927 C   0  0  0  0  0  0  0  0  0  0  0  0
   15.0290  -17.3778   14.7179 O   0  0  0  0  0  0  0  0  0  0  0  0
   12.4727  -15.6423   17.6220 C   0  0  0  0  0  0  0  0  0  0  0  0
   13.1504  -14.7862   18.2270 O   0  0  0  0  0  0  0  0  0  0  0  0
   14.2522  -15.9272   13.1797 O   0  0  0  0  0  0  0  0  0  0  0  0
    8.8934  -12.7473   17.6830 N   0  0  0  0  0  0  0  0  0  0  0  0
    8.6976  -14.1349   17.4633 C   0  0  0  0  0  0  0  0  0  0  0  0
    8.3268  -14.5451   16.3189 O   0  0  0  0  0  0  0  0  0  0  0  0
    8.9133  -15.1153   18.5295 C   0  0  0  0  0  0  0  0  0  0  0  0
   10.4010  -15.1931   18.8935 C   0  0  2  0  0  0  0  0  0  0  0  0
   11.0976  -15.8588   17.8344 N   0  0  0  0  0  0  0  0  0  0  0  0
   10.5849  -15.8184   20.2153 C   0  0  0  0  0  0  0  0  0  0  0  0
   11.1044  -16.9655   20.2466 O   0  0  0  0  0  0  0  0  0  0  0  0
    8.8447  -14.4523   23.6986 O   0  0  0  0  0  0  0  0  0  0  0  0
   10.0082  -15.1535   23.8936 C   0  0  0  0  0  0  0  0  0  0  0  0
   10.3709  -15.9566   22.6662 C   0  0  2  0  0  0  0  0  0  0  0  0
   10.2261  -15.2358   21.4465 N   0  0  0  0  0  0  0  0  0  0  0  0
    9.5753  -17.2112   22.7142 C   0  0  0  0  0  0  0  0  0  0  0  0
    9.8045  -18.0730   23.7655 O   0  0  0  0  0  0  0  0  0  0  0  0
    8.7175  -17.5136   21.8516 O   0  0  0  0  0  0  0  0  0  0  0  0
  2  1  1  6
  2  3  1  0
  3  4  1  0
  4  8  1  0
  5  4  2  0
  6  2  1  0
  7  6  2  0
 10  9  1  0
 11 10  2  0
 12 10  1  0
 13 12  1  6
 13 14  1  0
 13 15  1  0
 14  6  1  0
 15 20  1  0
 16 15  2  0
 18 17  1  0
 19 18  1  1
 19 21  1  0
 20 19  1  0
 21 23  2  0
 21 22  1  0
M  END
$$$$
