DNS.pdb
     RDKit          3D

 23 22  0  0  1  0  0  0  0  0999 V2000
   10.5434  -16.7219   14.5474 N   0  0  0  0  0  0  0  0  0  0  0  0
   11.8625  -16.4183   15.0550 C   0  0  1  0  0  0  0  0  0  0  0  0
   12.6422  -15.5608   14.0537 C   0  0  0  0  0  0  0  0  0  0  0  0
   12.7786  -16.3120   12.7843 C   0  0  0  0  0  0  0  0  0  0  0  0
   13.8181  -16.9793   12.5132 O   0  0  0  0  0  0  0  0  0  0  0  0
   11.7261  -15.5902   16.2836 C   0  0  0  0  0  0  0  0  0  0  0  0
   12.7614  -15.1353   16.8124 O   0  0  0  0  0  0  0  0  0  0  0  0
   11.7729  -16.3122   11.8454 O   0  0  0  0  0  0  0  0  0  0  0  0
    9.4165  -12.9623   20.0350 N   0  0  0  0  0  0  0  0  0  0  0  0
    8.4391  -13.2167   19.0389 C   0  0  0  0  0  0  0  0  0  0  0  0
    7.2913  -12.6790   19.1311 O   0  0  0  0  0  0  0  0  0  0  0  0
    8.7206  -14.0901   17.8976 C   0  0  0  0  0  0  0  0  0  0  0  0
   10.1939  -14.5157   17.8987 C   0  0  2  0  0  0  0  0  0  0  0  0
   10.4244  -15.3718   16.7744 N   0  0  0  0  0  0  0  0  0  0  0  0
   10.5649  -15.1158   19.1927 C   0  0  0  0  0  0  0  0  0  0  0  0
   10.2136  -16.3074   19.4009 O   0  0  0  0  0  0  0  0  0  0  0  0
   14.0638  -15.5197   22.3171 O   0  0  0  0  0  0  0  0  0  0  0  0
   13.3559  -14.6566   21.5188 C   0  0  0  0  0  0  0  0  0  0  0  0
   11.9847  -15.2078   21.2045 C   0  0  2  0  0  0  0  0  0  0  0  0
   11.2809  -14.4633   20.2152 N   0  0  0  0  0  0  0  0  0  0  0  0
   11.2544  -15.3234   22.4939 C   0  0  0  0  0  0  0  0  0  0  0  0
   11.7606  -16.1897   23.4392 O   0  0  0  0  0  0  0  0  0  0  0  0
   10.2130  -14.6757   22.7535 O   0  0  0  0  0  0  0  0  0  0  0  0
  2  1  1  6
  2  3  1  0
  3  4  1  0
  4  8  1  0
  5  4  2  0
  6  2  1  0
  7  6  2  0
 10  9  1  0
 11 10  2  0
 12 10  1  0
 13 12  1  1
 13 14  1  0
 13 15  1  0
 14  6  1  0
 15 20  1  0
 16 15  2  0
 18 17  1  0
 19 18  1  1
 19 21  1  0
 20 19  1  0
 21 23  2  0
 21 22  1  0
M  END
$$$$
