DNS.pdb
     RDKit          3D

 23 22  0  0  1  0  0  0  0  0999 V2000
   13.4017  -14.5910   17.1876 N   0  0  0  0  0  0  0  0  0  0  0  0
   13.7536  -15.3851   18.3431 C   0  0  1  0  0  0  0  0  0  0  0  0
   14.7997  -14.6622   19.1969 C   0  0  0  0  0  0  0  0  0  0  0  0
   16.0724  -14.5977   18.4418 C   0  0  0  0  0  0  0  0  0  0  0  0
   16.5216  -15.5947   17.8065 O   0  0  0  0  0  0  0  0  0  0  0  0
   12.5520  -15.5345   19.2080 C   0  0  0  0  0  0  0  0  0  0  0  0
   11.7321  -14.5944   19.2547 O   0  0  0  0  0  0  0  0  0  0  0  0
   16.8194  -13.4430   18.4025 O   0  0  0  0  0  0  0  0  0  0  0  0
    9.4406  -17.3191   18.7940 N   0  0  0  0  0  0  0  0  0  0  0  0
    9.8658  -18.4814   19.4872 C   0  0  0  0  0  0  0  0  0  0  0  0
    9.4216  -19.6201   19.1390 O   0  0  0  0  0  0  0  0  0  0  0  0
   10.8112  -18.4027   20.6028 C   0  0  0  0  0  0  0  0  0  0  0  0
   11.2996  -16.9612   20.7912 C   0  0  2  0  0  0  0  0  0  0  0  0
   12.4175  -16.7392   19.9246 N   0  0  0  0  0  0  0  0  0  0  0  0
   11.5802  -16.6845   22.2113 C   0  0  0  0  0  0  0  0  0  0  0  0
   12.7319  -16.9618   22.6393 O   0  0  0  0  0  0  0  0  0  0  0  0
    8.7918  -15.2907   24.9932 O   0  0  0  0  0  0  0  0  0  0  0  0
   10.1068  -14.9696   25.2200 C   0  0  0  0  0  0  0  0  0  0  0  0
   11.0310  -15.9130   24.4862 C   0  0  2  0  0  0  0  0  0  0  0  0
   10.6632  -16.1346   23.1283 N   0  0  0  0  0  0  0  0  0  0  0  0
   11.1124  -17.1594   25.2918 C   0  0  0  0  0  0  0  0  0  0  0  0
   11.6215  -17.0622   26.5692 O   0  0  0  0  0  0  0  0  0  0  0  0
   10.7428  -18.2785   24.8644 O   0  0  0  0  0  0  0  0  0  0  0  0
  2  1  1  6
  2  3  1  0
  3  4  1  0
  4  8  1  0
  5  4  2  0
  6  2  1  0
  7  6  2  0
 10  9  1  0
 11 10  2  0
 12 10  1  0
 13 12  1  1
 13 14  1  0
 13 15  1  0
 14  6  1  0
 15 20  1  0
 16 15  2  0
 18 17  1  0
 19 18  1  1
 19 21  1  0
 20 19  1  0
 21 23  2  0
 21 22  1  0
M  END
$$$$
