DNS.pdb
     RDKit          3D

 23 22  0  0  1  0  0  0  0  0999 V2000
    9.4570  -19.0953   17.0662 N   0  0  0  0  0  0  0  0  0  0  0  0
   10.3578  -18.7266   18.1349 C   0  0  1  0  0  0  0  0  0  0  0  0
   11.4166  -17.7404   17.6327 C   0  0  0  0  0  0  0  0  0  0  0  0
   12.4216  -18.4816   16.8358 C   0  0  0  0  0  0  0  0  0  0  0  0
   13.4196  -17.9031   16.3175 O   0  0  0  0  0  0  0  0  0  0  0  0
    9.5893  -18.0027   19.1835 C   0  0  0  0  0  0  0  0  0  0  0  0
    9.0012  -16.9478   18.8683 O   0  0  0  0  0  0  0  0  0  0  0  0
   12.3068  -19.8368   16.6279 O   0  0  0  0  0  0  0  0  0  0  0  0
    6.9216  -20.8806   20.7212 N   0  0  0  0  0  0  0  0  0  0  0  0
    6.8876  -19.6240   21.3784 C   0  0  0  0  0  0  0  0  0  0  0  0
    5.8678  -18.8757   21.2542 O   0  0  0  0  0  0  0  0  0  0  0  0
    8.0064  -19.1625   22.2031 C   0  0  0  0  0  0  0  0  0  0  0  0
    8.7472  -18.0140   21.5075 C   0  0  2  0  0  0  0  0  0  0  0  0
    9.5759  -18.5612   20.4761 N   0  0  0  0  0  0  0  0  0  0  0  0
    9.4784  -17.1922   22.4884 C   0  0  0  0  0  0  0  0  0  0  0  0
   10.6683  -17.5168   22.7443 O   0  0  0  0  0  0  0  0  0  0  0  0
    7.8084  -14.1581   24.8105 O   0  0  0  0  0  0  0  0  0  0  0  0
    9.1394  -14.0218   24.5048 C   0  0  0  0  0  0  0  0  0  0  0  0
    9.7424  -15.3465   24.0996 C   0  0  2  0  0  0  0  0  0  0  0  0
    8.9529  -16.0727   23.1627 N   0  0  0  0  0  0  0  0  0  0  0  0
   10.0242  -16.0990   25.3500 C   0  0  0  0  0  0  0  0  0  0  0  0
   10.8943  -15.5301   26.2555 O   0  0  0  0  0  0  0  0  0  0  0  0
    9.5114  -17.2126   25.6116 O   0  0  0  0  0  0  0  0  0  0  0  0
  2  1  1  6
  2  3  1  0
  3  4  1  0
  4  8  1  0
  5  4  2  0
  6  2  1  0
  7  6  2  0
 10  9  1  0
 11 10  2  0
 12 10  1  0
 13 12  1  1
 13 14  1  0
 13 15  1  0
 14  6  1  0
 15 20  1  0
 16 15  2  0
 18 17  1  0
 19 18  1  1
 19 21  1  0
 20 19  1  0
 21 23  2  0
 21 22  1  0
M  END
$$$$
