REP.pdb
     RDKit          3D

 28 28  0  0  1  0  0  0  0  0999 V2000
    7.8627  -13.5431   16.4121 N   0  0  0  0  0  0  0  0  0  0  0  0
    8.5918  -13.3733   17.6208 C   0  0  0  0  0  0  0  0  0  0  0  0
    8.7133  -12.2081   18.1836 N   0  0  0  0  0  0  0  0  0  0  0  0
    9.1975  -14.4948   18.2197 N   0  0  0  0  0  0  0  0  0  0  0  0
    8.8158  -15.0471   19.4939 C   0  0  0  0  0  0  0  0  0  0  0  0
    7.5235  -14.4415   19.9662 C   0  0  0  0  0  0  0  0  0  0  0  0
    6.5271  -15.5181   20.3511 C   0  0  0  0  0  0  0  0  0  0  0  0
    7.2703  -16.6402   21.0407 C   0  0  2  0  0  0  0  0  0  0  0  0
    6.6693  -17.9085   20.6794 N   0  0  0  0  0  0  0  0  0  0  0  0
    7.2200  -16.5083   22.5133 C   0  0  0  0  0  0  0  0  0  0  0  0
    6.1575  -16.2215   23.0791 O   0  0  0  0  0  0  0  0  0  0  0  0
    9.2533  -12.0712   19.0649 N   0  0  0  0  0  0  0  0  0  0  0  0
    8.3729  -16.7034   23.3424 C   0  0  2  0  0  0  0  0  0  0  0  0
    8.4105  -16.6020   24.7574 C   0  0  0  0  0  0  0  0  0  0  0  0
    8.8707  -17.7847   25.5258 C   0  0  0  0  0  0  0  0  0  0  0  0
    9.0164  -17.7240   26.9806 C   0  0  0  0  0  0  0  0  0  0  0  0
    9.5653  -18.8797   27.6870 O   0  0  0  0  0  0  0  0  0  0  0  0
    9.1957  -19.1708   28.8361 C   0  0  0  0  0  0  0  0  0  0  0  0
    8.7868  -15.3143   25.3532 O   0  0  0  0  0  0  0  0  0  0  0  0
    9.8885  -14.7961   24.8778 O   0  0  0  0  0  0  0  0  0  0  0  0
   10.5161  -19.6785   27.0829 N   0  0  0  0  0  0  0  0  0  0  0  0
    8.1812  -14.5404   26.3430 C   0  0  0  0  0  0  0  0  0  0  0  0
    6.9333  -14.7289   27.0085 C   0  0  0  0  0  0  0  0  0  0  0  0
    6.4742  -13.3203   27.3417 C   0  0  0  0  0  0  0  0  0  0  0  0
    7.5800  -12.3959   26.9290 C   0  0  1  0  0  0  0  0  0  0  0  0
    8.7702  -13.3244   26.9343 C   0  0  0  0  0  0  0  0  0  0  0  0
    9.1546  -13.5642   28.3426 O   0  0  0  0  0  0  0  0  0  0  0  0
    8.8890  -14.6214   28.9761 O   0  0  0  0  0  0  0  0  0  0  0  0
  1  2  1  0
  2  3  2  0
  4  5  1  0
  4  2  1  0
  6  5  1  0
  7  6  1  0
  8  7  1  0
  8  9  1  1
 10  8  1  0
 11 10  2  0
 12 10  1  0
 13 12  1  0
 14 15  1  0
 13 14  1  6
 16 15  1  0
 16 20  1  0
 17 16  2  0
 18 21  1  0
 18 13  1  0
 19 18  2  0
 21 22  1  0
 22 23  1  0
 24 23  1  0
 25 21  1  0
 25 24  1  0
 25 26  1  1
 27 26  2  0
 28 26  1  0
M  END
$$$$
