REP.pdb
     RDKit          3D

 28 28  0  0  1  0  0  0  0  0999 V2000
   10.0427  -13.0569   18.1526 N   0  0  0  0  0  0  0  0  0  0  0  0
    8.9768  -12.4468   18.8688 C   0  0  0  0  0  0  0  0  0  0  0  0
    9.1791  -11.4316   19.6547 N   0  0  0  0  0  0  0  0  0  0  0  0
    7.6724  -12.9571   18.7235 N   0  0  0  0  0  0  0  0  0  0  0  0
    7.3423  -14.1688   18.0185 C   0  0  0  0  0  0  0  0  0  0  0  0
    7.7138  -15.3739   18.8369 C   0  0  0  0  0  0  0  0  0  0  0  0
    6.9536  -15.3956   20.1489 C   0  0  0  0  0  0  0  0  0  0  0  0
    7.2466  -16.7000   20.8558 C   0  0  2  0  0  0  0  0  0  0  0  0
    6.3606  -17.7300   20.3515 N   0  0  0  0  0  0  0  0  0  0  0  0
    7.0427  -16.5904   22.3170 C   0  0  0  0  0  0  0  0  0  0  0  0
    5.9969  -16.1057   22.7673 O   0  0  0  0  0  0  0  0  0  0  0  0
    8.4039  -10.9738   20.1806 N   0  0  0  0  0  0  0  0  0  0  0  0
    8.0228  -17.0317   23.2652 C   0  0  2  0  0  0  0  0  0  0  0  0
    8.0167  -16.7629   24.6586 C   0  0  0  0  0  0  0  0  0  0  0  0
    8.3994  -17.8618   25.5789 C   0  0  0  0  0  0  0  0  0  0  0  0
    8.4628  -17.6423   27.0243 C   0  0  0  0  0  0  0  0  0  0  0  0
    8.9224  -18.7288   27.8870 O   0  0  0  0  0  0  0  0  0  0  0  0
   10.0559  -19.2197   27.7608 C   0  0  0  0  0  0  0  0  0  0  0  0
    8.4275  -15.4285   25.1120 O   0  0  0  0  0  0  0  0  0  0  0  0
    9.4744  -14.9436   24.4978 O   0  0  0  0  0  0  0  0  0  0  0  0
    8.0950  -19.2357   28.8697 N   0  0  0  0  0  0  0  0  0  0  0  0
    7.9033  -14.5805   26.0874 C   0  0  0  0  0  0  0  0  0  0  0  0
    6.7046  -14.7042   26.8513 C   0  0  0  0  0  0  0  0  0  0  0  0
    6.2863  -13.2694   27.1197 C   0  0  0  0  0  0  0  0  0  0  0  0
    7.3695  -12.3924   26.5676 C   0  0  2  0  0  0  0  0  0  0  0  0
    8.5467  -13.3371   26.5513 C   0  0  0  0  0  0  0  0  0  0  0  0
    9.0289  -13.4881   27.9418 O   0  0  0  0  0  0  0  0  0  0  0  0
    8.8314  -14.5126   28.6496 O   0  0  0  0  0  0  0  0  0  0  0  0
  1  2  1  0
  2  3  2  0
  4  5  1  0
  4  2  1  0
  6  5  1  0
  7  6  1  0
  8  7  1  0
  8  9  1  6
 10  8  1  0
 11 10  2  0
 12 10  1  0
 13 12  1  0
 14 15  1  0
 13 14  1  6
 16 15  1  0
 16 20  1  0
 17 16  2  0
 18 21  1  0
 18 13  1  0
 19 18  2  0
 21 22  1  0
 22 23  1  0
 24 23  1  0
 25 21  1  0
 25 24  1  0
 25 26  1  1
 27 26  2  0
 28 26  1  0
M  END
$$$$
