REP.pdb
     RDKit          3D

 28 28  0  0  1  0  0  0  0  0999 V2000
    8.7005  -13.3687   15.1661 N   0  0  0  0  0  0  0  0  0  0  0  0
    8.4167  -14.5810   15.8525 C   0  0  0  0  0  0  0  0  0  0  0  0
    8.6561  -15.7394   15.3139 N   0  0  0  0  0  0  0  0  0  0  0  0
    7.8615  -14.5233   17.1453 N   0  0  0  0  0  0  0  0  0  0  0  0
    7.7425  -13.3222   17.9311 C   0  0  0  0  0  0  0  0  0  0  0  0
    7.2406  -13.6419   19.3117 C   0  0  0  0  0  0  0  0  0  0  0  0
    8.3195  -14.3111   20.1411 C   0  0  0  0  0  0  0  0  0  0  0  0
    7.8108  -15.6599   20.5984 C   0  0  2  0  0  0  0  0  0  0  0  0
    6.6975  -16.0626   19.7625 N   0  0  0  0  0  0  0  0  0  0  0  0
    7.3449  -15.6237   22.0020 C   0  0  0  0  0  0  0  0  0  0  0  0
    6.2883  -15.0500   22.2951 O   0  0  0  0  0  0  0  0  0  0  0  0
    8.4813  -16.6337   15.8206 N   0  0  0  0  0  0  0  0  0  0  0  0
    8.0755  -16.2391   23.0706 C   0  0  1  0  0  0  0  0  0  0  0  0
    7.7838  -16.1264   24.4548 C   0  0  0  0  0  0  0  0  0  0  0  0
    7.6876  -17.3766   25.2477 C   0  0  0  0  0  0  0  0  0  0  0  0
    7.4052  -18.6572   24.5982 C   0  0  0  0  0  0  0  0  0  0  0  0
    8.2139  -19.8232   24.9479 O   0  0  0  0  0  0  0  0  0  0  0  0
    8.0535  -20.9155   24.3797 C   0  0  0  0  0  0  0  0  0  0  0  0
    8.3426  -14.9875   25.1934 O   0  0  0  0  0  0  0  0  0  0  0  0
    9.5342  -14.6181   24.8036 O   0  0  0  0  0  0  0  0  0  0  0  0
    9.1824  -19.7309   25.9280 N   0  0  0  0  0  0  0  0  0  0  0  0
    7.8321  -14.2259   26.2445 C   0  0  0  0  0  0  0  0  0  0  0  0
    6.5483  -14.2771   26.8649 C   0  0  0  0  0  0  0  0  0  0  0  0
    6.3037  -12.8521   27.3289 C   0  0  0  0  0  0  0  0  0  0  0  0
    7.5535  -12.0795   27.0311 C   0  0  1  0  0  0  0  0  0  0  0  0
    8.5833  -13.1812   26.9652 C   0  0  0  0  0  0  0  0  0  0  0  0
    8.8777  -13.6130   28.3492 O   0  0  0  0  0  0  0  0  0  0  0  0
    9.5387  -12.9284   29.1763 O   0  0  0  0  0  0  0  0  0  0  0  0
  1  2  1  0
  2  3  2  0
  4  5  1  0
  4  2  1  0
  6  5  1  0
  7  6  1  0
  8  7  1  0
  8  9  1  6
 10  8  1  0
 11 10  2  0
 12 10  1  0
 13 12  1  0
 14 15  1  0
 13 14  1  6
 16 15  1  0
 16 20  1  0
 17 16  2  0
 18 21  1  0
 18 13  1  0
 19 18  2  0
 21 22  1  0
 22 23  1  0
 24 23  1  0
 25 21  1  0
 25 24  1  0
 25 26  1  1
 27 26  2  0
 28 26  1  0
M  END
$$$$
