REP.pdb
     RDKit          3D

 28 28  0  0  1  0  0  0  0  0999 V2000
    9.4770  -13.0893   15.8384 N   0  0  0  0  0  0  0  0  0  0  0  0
    8.3684  -13.8298   15.3443 C   0  0  0  0  0  0  0  0  0  0  0  0
    8.3462  -14.2916   14.1297 N   0  0  0  0  0  0  0  0  0  0  0  0
    7.2687  -14.0655   16.1918 N   0  0  0  0  0  0  0  0  0  0  0  0
    7.3384  -14.7748   17.4434 C   0  0  0  0  0  0  0  0  0  0  0  0
    8.4240  -14.2053   18.3135 C   0  0  0  0  0  0  0  0  0  0  0  0
    7.9647  -14.0959   19.7546 C   0  0  0  0  0  0  0  0  0  0  0  0
    8.3088  -15.3828   20.4706 C   0  0  2  0  0  0  0  0  0  0  0  0
    7.7753  -16.5054   19.7253 N   0  0  0  0  0  0  0  0  0  0  0  0
    7.7381  -15.4213   21.8349 C   0  0  0  0  0  0  0  0  0  0  0  0
    6.6766  -14.8365   22.0850 O   0  0  0  0  0  0  0  0  0  0  0  0
    7.5737  -14.8989   13.7809 N   0  0  0  0  0  0  0  0  0  0  0  0
    8.3698  -16.1238   22.9128 C   0  0  1  0  0  0  0  0  0  0  0  0
    7.9439  -16.1331   24.2665 C   0  0  0  0  0  0  0  0  0  0  0  0
    7.6240  -17.4434   24.8843 C   0  0  0  0  0  0  0  0  0  0  0  0
    7.2988  -17.5425   26.3076 C   0  0  0  0  0  0  0  0  0  0  0  0
    7.0834  -18.8631   26.8955 O   0  0  0  0  0  0  0  0  0  0  0  0
    6.3614  -19.7079   26.3414 C   0  0  0  0  0  0  0  0  0  0  0  0
    8.5423  -15.1626   25.1911 O   0  0  0  0  0  0  0  0  0  0  0  0
    9.8450  -15.0799   25.1250 O   0  0  0  0  0  0  0  0  0  0  0  0
    7.6857  -19.1999   28.0917 N   0  0  0  0  0  0  0  0  0  0  0  0
    7.9706  -14.3104   26.1357 C   0  0  0  0  0  0  0  0  0  0  0  0
    6.5981  -13.9936   26.3622 C   0  0  0  0  0  0  0  0  0  0  0  0
    6.6287  -12.5724   26.8959 C   0  0  0  0  0  0  0  0  0  0  0  0
    8.0725  -12.1984   27.0484 C   0  0  2  0  0  0  0  0  0  0  0  0
    8.7284  -13.5542   27.1503 C   0  0  0  0  0  0  0  0  0  0  0  0
    8.4621  -14.0885   28.5039 O   0  0  0  0  0  0  0  0  0  0  0  0
    7.6056  -14.9789   28.7549 O   0  0  0  0  0  0  0  0  0  0  0  0
  1  2  1  0
  2  3  2  0
  4  5  1  0
  4  2  1  0
  6  5  1  0
  7  6  1  0
  8  7  1  0
  8  9  1  6
 10  8  1  0
 11 10  2  0
 12 10  1  0
 13 12  1  0
 14 15  1  0
 13 14  1  1
 16 15  1  0
 16 20  1  0
 17 16  2  0
 18 21  1  0
 18 13  1  0
 19 18  2  0
 21 22  1  0
 22 23  1  0
 24 23  1  0
 25 21  1  0
 25 24  1  0
 25 26  1  1
 27 26  2  0
 28 26  1  0
M  END
$$$$
