REP.pdb
     RDKit          3D

 28 28  0  0  1  0  0  0  0  0999 V2000
    6.3310  -14.3523   15.8840 N   0  0  0  0  0  0  0  0  0  0  0  0
    7.6635  -13.8681   15.7777 C   0  0  0  0  0  0  0  0  0  0  0  0
    7.9705  -12.8927   14.9756 N   0  0  0  0  0  0  0  0  0  0  0  0
    8.6733  -14.4620   16.5592 N   0  0  0  0  0  0  0  0  0  0  0  0
    8.4953  -15.6416   17.3661 C   0  0  0  0  0  0  0  0  0  0  0  0
    7.6446  -15.3364   18.5674 C   0  0  0  0  0  0  0  0  0  0  0  0
    8.2686  -14.2422   19.4118 C   0  0  0  0  0  0  0  0  0  0  0  0
    9.0962  -14.8856   20.5018 C   0  0  2  0  0  0  0  0  0  0  0  0
    9.4097  -16.2497   20.1260 N   0  0  0  0  0  0  0  0  0  0  0  0
    8.3747  -14.9165   21.7929 C   0  0  0  0  0  0  0  0  0  0  0  0
    7.7647  -13.9165   22.1920 O   0  0  0  0  0  0  0  0  0  0  0  0
    8.9563  -12.5902   14.8217 N   0  0  0  0  0  0  0  0  0  0  0  0
    8.3438  -16.0807   22.6286 C   0  0  1  0  0  0  0  0  0  0  0  0
    7.9043  -16.1290   23.9770 C   0  0  0  0  0  0  0  0  0  0  0  0
    7.5385  -17.4518   24.5405 C   0  0  0  0  0  0  0  0  0  0  0  0
    7.1068  -17.5809   25.9328 C   0  0  0  0  0  0  0  0  0  0  0  0
    6.7864  -18.9075   26.4557 O   0  0  0  0  0  0  0  0  0  0  0  0
    6.3634  -19.8098   25.7151 C   0  0  0  0  0  0  0  0  0  0  0  0
    8.5226  -15.2138   24.9439 O   0  0  0  0  0  0  0  0  0  0  0  0
    9.8136  -15.0657   24.8042 O   0  0  0  0  0  0  0  0  0  0  0  0
    6.9498  -19.1852   27.7986 N   0  0  0  0  0  0  0  0  0  0  0  0
    7.9804  -14.4721   25.9934 C   0  0  0  0  0  0  0  0  0  0  0  0
    6.6319  -14.3982   26.4533 C   0  0  0  0  0  0  0  0  0  0  0  0
    6.5076  -12.9922   27.0134 C   0  0  0  0  0  0  0  0  0  0  0  0
    7.8707  -12.3730   26.9342 C   0  0  2  0  0  0  0  0  0  0  0  0
    8.7570  -13.5940   26.8885 C   0  0  0  0  0  0  0  0  0  0  0  0
    8.8180  -14.1640   28.2523 O   0  0  0  0  0  0  0  0  0  0  0  0
    8.2026  -15.2046   28.6101 O   0  0  0  0  0  0  0  0  0  0  0  0
  1  2  1  0
  2  3  2  0
  4  5  1  0
  4  2  1  0
  6  5  1  0
  7  6  1  0
  8  7  1  0
  8  9  1  6
 10  8  1  0
 11 10  2  0
 12 10  1  0
 13 12  1  0
 14 15  1  0
 13 14  1  1
 16 15  1  0
 16 20  1  0
 17 16  2  0
 18 21  1  0
 18 13  1  0
 19 18  2  0
 21 22  1  0
 22 23  1  0
 24 23  1  0
 25 21  1  0
 25 24  1  0
 25 26  1  1
 27 26  2  0
 28 26  1  0
M  END
$$$$
