REP.pdb
     RDKit          3D

 28 28  0  0  1  0  0  0  0  0999 V2000
    8.7395  -13.0399   16.2395 N   0  0  0  0  0  0  0  0  0  0  0  0
    8.3731  -14.3473   16.6613 C   0  0  0  0  0  0  0  0  0  0  0  0
    7.2609  -14.8990   16.2770 N   0  0  0  0  0  0  0  0  0  0  0  0
    9.2360  -15.0587   17.5171 N   0  0  0  0  0  0  0  0  0  0  0  0
   10.1032  -14.4510   18.4933 C   0  0  0  0  0  0  0  0  0  0  0  0
    9.3247  -13.5294   19.3903 C   0  0  0  0  0  0  0  0  0  0  0  0
    9.2879  -14.0568   20.8117 C   0  0  0  0  0  0  0  0  0  0  0  0
    7.9003  -14.5875   21.0945 C   0  0  2  0  0  0  0  0  0  0  0  0
    6.9155  -13.6315   20.6291 N   0  0  0  0  0  0  0  0  0  0  0  0
    7.6815  -14.8087   22.5408 C   0  0  0  0  0  0  0  0  0  0  0  0
    7.5090  -13.8475   23.3009 O   0  0  0  0  0  0  0  0  0  0  0  0
    6.9913  -15.8638   16.5659 N   0  0  0  0  0  0  0  0  0  0  0  0
    7.6565  -16.1182   23.1231 C   0  0  2  0  0  0  0  0  0  0  0  0
    7.7390  -16.4179   24.5077 C   0  0  0  0  0  0  0  0  0  0  0  0
    7.1797  -17.7112   24.9722 C   0  0  0  0  0  0  0  0  0  0  0  0
    7.3498  -18.1476   26.3585 C   0  0  0  0  0  0  0  0  0  0  0  0
    6.8494  -19.4624   26.7545 O   0  0  0  0  0  0  0  0  0  0  0  0
    6.2690  -20.2042   25.9453 C   0  0  0  0  0  0  0  0  0  0  0  0
    8.9295  -15.9782   25.2454 O   0  0  0  0  0  0  0  0  0  0  0  0
   10.0653  -16.2628   24.6646 O   0  0  0  0  0  0  0  0  0  0  0  0
    7.0146  -19.9094   28.0506 N   0  0  0  0  0  0  0  0  0  0  0  0
    9.0702  -15.3114   26.4624 C   0  0  0  0  0  0  0  0  0  0  0  0
    8.0695  -14.7784   27.3284 C   0  0  0  0  0  0  0  0  0  0  0  0
    8.7493  -13.5971   27.9977 C   0  0  0  0  0  0  0  0  0  0  0  0
   10.1759  -13.6007   27.5368 C   0  0  2  0  0  0  0  0  0  0  0  0
   10.3591  -15.0419   27.1268 C   0  0  0  0  0  0  0  0  0  0  0  0
   10.4897  -15.8526   28.3574 O   0  0  0  0  0  0  0  0  0  0  0  0
    9.6086  -16.6538   28.7712 O   0  0  0  0  0  0  0  0  0  0  0  0
  1  2  1  0
  2  3  2  0
  4  5  1  0
  4  2  1  0
  6  5  1  0
  7  6  1  0
  8  7  1  0
  8  9  1  1
 10  8  1  0
 11 10  2  0
 12 10  1  0
 13 12  1  0
 14 15  1  0
 13 14  1  1
 16 15  1  0
 16 20  1  0
 17 16  2  0
 18 21  1  0
 18 13  1  0
 19 18  2  0
 21 22  1  0
 22 23  1  0
 24 23  1  0
 25 21  1  0
 25 24  1  0
 25 26  1  1
 27 26  2  0
 28 26  1  0
M  END
$$$$
