REP.pdb
     RDKit          3D

 28 28  0  0  1  0  0  0  0  0999 V2000
    8.7691  -14.7003   15.8666 N   0  0  0  0  0  0  0  0  0  0  0  0
    8.4014  -13.6427   16.7428 C   0  0  0  0  0  0  0  0  0  0  0  0
    7.6048  -12.6893   16.3611 N   0  0  0  0  0  0  0  0  0  0  0  0
    8.9148  -13.6286   18.0541 N   0  0  0  0  0  0  0  0  0  0  0  0
    8.1247  -13.4158   19.2393 C   0  0  0  0  0  0  0  0  0  0  0  0
    8.1803  -14.6222   20.1347 C   0  0  0  0  0  0  0  0  0  0  0  0
    7.1087  -15.6275   19.7597 C   0  0  0  0  0  0  0  0  0  0  0  0
    7.2457  -16.8373   20.6568 C   0  0  2  0  0  0  0  0  0  0  0  0
    6.2983  -17.8528   20.2429 N   0  0  0  0  0  0  0  0  0  0  0  0
    6.9763  -16.5041   22.0727 C   0  0  0  0  0  0  0  0  0  0  0  0
    5.8436  -16.1541   22.4277 O   0  0  0  0  0  0  0  0  0  0  0  0
    7.2975  -11.9309   17.0072 N   0  0  0  0  0  0  0  0  0  0  0  0
    7.9897  -16.5698   23.0842 C   0  0  1  0  0  0  0  0  0  0  0  0
    7.7803  -16.4653   24.4839 C   0  0  0  0  0  0  0  0  0  0  0  0
    7.6663  -17.7220   25.2641 C   0  0  0  0  0  0  0  0  0  0  0  0
    7.4953  -17.6903   26.7171 C   0  0  0  0  0  0  0  0  0  0  0  0
    7.4788  -18.9506   27.4568 O   0  0  0  0  0  0  0  0  0  0  0  0
    6.5673  -19.7795   27.3023 C   0  0  0  0  0  0  0  0  0  0  0  0
    8.4341  -15.3669   25.2055 O   0  0  0  0  0  0  0  0  0  0  0  0
    9.6634  -15.1264   24.8323 O   0  0  0  0  0  0  0  0  0  0  0  0
    8.4882  -19.2465   28.3517 N   0  0  0  0  0  0  0  0  0  0  0  0
    7.9810  -14.5307   26.2258 C   0  0  0  0  0  0  0  0  0  0  0  0
    6.7283  -14.5256   26.9086 C   0  0  0  0  0  0  0  0  0  0  0  0
    6.5178  -13.0700   27.2863 C   0  0  0  0  0  0  0  0  0  0  0  0
    7.7579  -12.3333   26.8778 C   0  0  2  0  0  0  0  0  0  0  0  0
    8.7745  -13.4485   26.8376 C   0  0  0  0  0  0  0  0  0  0  0  0
    9.1318  -13.7896   28.2321 O   0  0  0  0  0  0  0  0  0  0  0  0
    8.7324  -14.8256   28.8294 O   0  0  0  0  0  0  0  0  0  0  0  0
  1  2  1  0
  2  3  2  0
  4  5  1  0
  4  2  1  0
  6  5  1  0
  7  6  1  0
  8  7  1  0
  8  9  1  6
 10  8  1  0
 11 10  2  0
 12 10  1  0
 13 12  1  0
 14 15  1  0
 13 14  1  1
 16 15  1  0
 16 20  1  0
 17 16  2  0
 18 21  1  0
 18 13  1  0
 19 18  2  0
 21 22  1  0
 22 23  1  0
 24 23  1  0
 25 21  1  0
 25 24  1  0
 25 26  1  1
 27 26  2  0
 28 26  1  0
M  END
$$$$
