REP.pdb
     RDKit          3D

 28 28  0  0  1  0  0  0  0  0999 V2000
    8.2021  -11.9072   18.5093 N   0  0  0  0  0  0  0  0  0  0  0  0
    8.6590  -13.2218   18.2188 C   0  0  0  0  0  0  0  0  0  0  0  0
    9.9026  -13.5614   18.3836 N   0  0  0  0  0  0  0  0  0  0  0  0
    7.7413  -14.1764   17.7394 N   0  0  0  0  0  0  0  0  0  0  0  0
    7.4934  -15.4540   18.3563 C   0  0  0  0  0  0  0  0  0  0  0  0
    7.0778  -15.2764   19.7901 C   0  0  0  0  0  0  0  0  0  0  0  0
    7.7994  -16.2598   20.6913 C   0  0  0  0  0  0  0  0  0  0  0  0
    6.7790  -17.1932   21.3032 C   0  0  2  0  0  0  0  0  0  0  0  0
    5.5164  -17.0488   20.6067 N   0  0  0  0  0  0  0  0  0  0  0  0
    6.5531  -16.8970   22.7349 C   0  0  0  0  0  0  0  0  0  0  0  0
    5.7240  -16.0428   23.0730 O   0  0  0  0  0  0  0  0  0  0  0  0
   10.2384  -14.5349   18.2203 N   0  0  0  0  0  0  0  0  0  0  0  0
    7.2653  -17.5701   23.7809 C   0  0  2  0  0  0  0  0  0  0  0  0
    7.5001  -17.0690   25.0876 C   0  0  0  0  0  0  0  0  0  0  0  0
    8.0138  -18.0126   26.1107 C   0  0  0  0  0  0  0  0  0  0  0  0
    8.2919  -17.5619   27.4749 C   0  0  0  0  0  0  0  0  0  0  0  0
    8.9171  -18.4902   28.4147 O   0  0  0  0  0  0  0  0  0  0  0  0
   10.0362  -18.2616   28.9018 C   0  0  0  0  0  0  0  0  0  0  0  0
    8.0052  -15.6978   25.2269 O   0  0  0  0  0  0  0  0  0  0  0  0
    9.0467  -15.4237   24.4864 O   0  0  0  0  0  0  0  0  0  0  0  0
    8.2677  -19.6520   28.7827 N   0  0  0  0  0  0  0  0  0  0  0  0
    7.5758  -14.6289   26.0134 C   0  0  0  0  0  0  0  0  0  0  0  0
    6.4351  -14.5263   26.8642 C   0  0  0  0  0  0  0  0  0  0  0  0
    6.0722  -13.0524   26.8218 C   0  0  0  0  0  0  0  0  0  0  0  0
    7.1316  -12.3691   26.0104 C   0  0  1  0  0  0  0  0  0  0  0  0
    8.2815  -13.3393   26.1333 C   0  0  0  0  0  0  0  0  0  0  0  0
    8.8628  -13.1880   27.4853 O   0  0  0  0  0  0  0  0  0  0  0  0
    9.5382  -12.1897   27.8551 O   0  0  0  0  0  0  0  0  0  0  0  0
  1  2  1  0
  2  3  2  0
  4  5  1  0
  4  2  1  0
  6  5  1  0
  7  6  1  0
  8  7  1  0
  8  9  1  6
 10  8  1  0
 11 10  2  0
 12 10  1  0
 13 12  1  0
 14 15  1  0
 13 14  1  6
 16 15  1  0
 16 20  1  0
 17 16  2  0
 18 21  1  0
 18 13  1  0
 19 18  2  0
 21 22  1  0
 22 23  1  0
 24 23  1  0
 25 21  1  0
 25 24  1  0
 25 26  1  1
 27 26  2  0
 28 26  1  0
M  END
$$$$
