REP.pdb
     RDKit          3D

 28 28  0  0  1  0  0  0  0  0999 V2000
    8.8442  -11.4837   19.5479 N   0  0  0  0  0  0  0  0  0  0  0  0
    8.9031  -12.7732   18.9520 C   0  0  0  0  0  0  0  0  0  0  0  0
   10.0174  -13.2598   18.4929 N   0  0  0  0  0  0  0  0  0  0  0  0
    7.7250  -13.5387   18.8559 N   0  0  0  0  0  0  0  0  0  0  0  0
    7.5795  -14.7163   18.0395 C   0  0  0  0  0  0  0  0  0  0  0  0
    7.8271  -15.9564   18.8525 C   0  0  0  0  0  0  0  0  0  0  0  0
    7.8722  -15.6354   20.3339 C   0  0  0  0  0  0  0  0  0  0  0  0
    7.5629  -16.8954   21.1111 C   0  0  2  0  0  0  0  0  0  0  0  0
    6.6065  -17.6943   20.3713 N   0  0  0  0  0  0  0  0  0  0  0  0
    6.9835  -16.5933   22.4383 C   0  0  0  0  0  0  0  0  0  0  0  0
    5.9940  -15.8565   22.5352 O   0  0  0  0  0  0  0  0  0  0  0  0
   10.0542  -14.1558   17.9611 N   0  0  0  0  0  0  0  0  0  0  0  0
    7.5248  -17.1278   23.6531 C   0  0  2  0  0  0  0  0  0  0  0  0
    7.2153  -16.6923   24.9678 C   0  0  0  0  0  0  0  0  0  0  0  0
    6.6647  -17.6900   25.9177 C   0  0  0  0  0  0  0  0  0  0  0  0
    7.0784  -19.0924   25.8564 C   0  0  0  0  0  0  0  0  0  0  0  0
    7.7295  -19.6911   27.0198 O   0  0  0  0  0  0  0  0  0  0  0  0
    7.7735  -19.1009   28.1114 C   0  0  0  0  0  0  0  0  0  0  0  0
    8.0834  -15.6852   25.5899 O   0  0  0  0  0  0  0  0  0  0  0  0
    9.3020  -15.6515   25.1187 O   0  0  0  0  0  0  0  0  0  0  0  0
    8.3146  -20.9384   26.9257 N   0  0  0  0  0  0  0  0  0  0  0  0
    7.8442  -14.7548   26.6012 C   0  0  0  0  0  0  0  0  0  0  0  0
    6.6201  -14.4078   27.2468 C   0  0  0  0  0  0  0  0  0  0  0  0
    6.8018  -12.9488   27.6265 C   0  0  0  0  0  0  0  0  0  0  0  0
    8.2072  -12.5779   27.2591 C   0  0  1  0  0  0  0  0  0  0  0  0
    8.8832  -13.9275   27.2425 C   0  0  0  0  0  0  0  0  0  0  0  0
    9.0924  -14.3495   28.6448 O   0  0  0  0  0  0  0  0  0  0  0  0
    8.4265  -15.2551   29.2159 O   0  0  0  0  0  0  0  0  0  0  0  0
  1  2  1  0
  2  3  2  0
  4  5  1  0
  4  2  1  0
  6  5  1  0
  7  6  1  0
  8  7  1  0
  8  9  1  6
 10  8  1  0
 11 10  2  0
 12 10  1  0
 13 12  1  0
 14 15  1  0
 13 14  1  6
 16 15  1  0
 16 20  1  0
 17 16  2  0
 18 21  1  0
 18 13  1  0
 19 18  2  0
 21 22  1  0
 22 23  1  0
 24 23  1  0
 25 21  1  0
 25 24  1  0
 25 26  1  1
 27 26  2  0
 28 26  1  0
M  END
$$$$
