REP.pdb
     RDKit          3D

 28 28  0  0  1  0  0  0  0  0999 V2000
    8.1074  -12.8545   16.0408 N   0  0  0  0  0  0  0  0  0  0  0  0
    8.4547  -14.2068   16.3093 C   0  0  0  0  0  0  0  0  0  0  0  0
    8.7539  -15.0346   15.3531 N   0  0  0  0  0  0  0  0  0  0  0  0
    8.4724  -14.6584   17.6430 N   0  0  0  0  0  0  0  0  0  0  0  0
    8.6936  -13.8146   18.7890 C   0  0  0  0  0  0  0  0  0  0  0  0
    7.3951  -13.2345   19.2762 C   0  0  0  0  0  0  0  0  0  0  0  0
    6.4428  -14.3286   19.7188 C   0  0  0  0  0  0  0  0  0  0  0  0
    7.2398  -15.4134   20.4082 C   0  0  2  0  0  0  0  0  0  0  0  0
    6.8466  -16.7060   19.8840 N   0  0  0  0  0  0  0  0  0  0  0  0
    7.0102  -15.4185   21.8696 C   0  0  0  0  0  0  0  0  0  0  0  0
    6.0010  -14.8833   22.3455 O   0  0  0  0  0  0  0  0  0  0  0  0
    9.1139  -15.9946   15.5426 N   0  0  0  0  0  0  0  0  0  0  0  0
    7.9229  -16.0317   22.7890 C   0  0  2  0  0  0  0  0  0  0  0  0
    7.7523  -16.1301   24.1944 C   0  0  0  0  0  0  0  0  0  0  0  0
    7.6680  -17.4864   24.7898 C   0  0  0  0  0  0  0  0  0  0  0  0
    7.4936  -17.6633   26.2319 C   0  0  0  0  0  0  0  0  0  0  0  0
    7.5457  -19.0121   26.7923 O   0  0  0  0  0  0  0  0  0  0  0  0
    6.9093  -19.9490   26.2834 C   0  0  0  0  0  0  0  0  0  0  0  0
    8.4194  -15.1394   25.0477 O   0  0  0  0  0  0  0  0  0  0  0  0
    9.6495  -14.8640   24.7023 O   0  0  0  0  0  0  0  0  0  0  0  0
    8.3123  -19.2727   27.9110 N   0  0  0  0  0  0  0  0  0  0  0  0
    7.9782  -14.4371   26.1691 C   0  0  0  0  0  0  0  0  0  0  0  0
    6.7283  -14.5087   26.8535 C   0  0  0  0  0  0  0  0  0  0  0  0
    6.5329  -13.1118   27.4158 C   0  0  0  0  0  0  0  0  0  0  0  0
    7.7782  -12.3396   27.0987 C   0  0  2  0  0  0  0  0  0  0  0  0
    8.7842  -13.4492   26.9106 C   0  0  0  0  0  0  0  0  0  0  0  0
    9.1440  -13.9695   28.2479 O   0  0  0  0  0  0  0  0  0  0  0  0
    8.7221  -15.0610   28.7171 O   0  0  0  0  0  0  0  0  0  0  0  0
  1  2  1  0
  2  3  2  0
  4  5  1  0
  4  2  1  0
  6  5  1  0
  7  6  1  0
  8  7  1  0
  8  9  1  6
 10  8  1  0
 11 10  2  0
 12 10  1  0
 13 12  1  0
 14 15  1  0
 13 14  1  6
 16 15  1  0
 16 20  1  0
 17 16  2  0
 18 21  1  0
 18 13  1  0
 19 18  2  0
 21 22  1  0
 22 23  1  0
 24 23  1  0
 25 21  1  0
 25 24  1  0
 25 26  1  1
 27 26  2  0
 28 26  1  0
M  END
$$$$
