REP.pdb
     RDKit          3D

 28 28  0  0  1  0  0  0  0  0999 V2000
    9.9560  -13.7171   16.8905 N   0  0  0  0  0  0  0  0  0  0  0  0
    8.8043  -13.7092   16.0569 C   0  0  0  0  0  0  0  0  0  0  0  0
    8.6876  -12.8759   15.0664 N   0  0  0  0  0  0  0  0  0  0  0  0
    7.7658  -14.6251   16.3134 N   0  0  0  0  0  0  0  0  0  0  0  0
    7.4620  -15.1748   17.6095 C   0  0  0  0  0  0  0  0  0  0  0  0
    7.4106  -14.0869   18.6457 C   0  0  0  0  0  0  0  0  0  0  0  0
    6.9671  -14.6352   19.9883 C   0  0  0  0  0  0  0  0  0  0  0  0
    8.1095  -15.4224   20.5901 C   0  0  2  0  0  0  0  0  0  0  0  0
    8.1845  -16.7230   19.9552 N   0  0  0  0  0  0  0  0  0  0  0  0
    7.9284  -15.6280   22.0439 C   0  0  0  0  0  0  0  0  0  0  0  0
    6.7982  -15.5817   22.5456 O   0  0  0  0  0  0  0  0  0  0  0  0
    7.8401  -12.8504   14.4595 N   0  0  0  0  0  0  0  0  0  0  0  0
    9.0277  -15.8876   22.9263 C   0  0  1  0  0  0  0  0  0  0  0  0
    8.9342  -16.1943   24.3087 C   0  0  0  0  0  0  0  0  0  0  0  0
    9.2407  -17.5823   24.7337 C   0  0  0  0  0  0  0  0  0  0  0  0
   10.3901  -17.8673   25.5934 C   0  0  0  0  0  0  0  0  0  0  0  0
   10.5994  -19.2338   26.0677 O   0  0  0  0  0  0  0  0  0  0  0  0
   10.7314  -20.1804   25.2750 C   0  0  0  0  0  0  0  0  0  0  0  0
    9.3328  -15.1668   25.2783 O   0  0  0  0  0  0  0  0  0  0  0  0
   10.5372  -14.6907   25.1023 O   0  0  0  0  0  0  0  0  0  0  0  0
   10.6546  -19.5007   27.4215 N   0  0  0  0  0  0  0  0  0  0  0  0
    8.6577  -14.6056   26.3621 C   0  0  0  0  0  0  0  0  0  0  0  0
    7.3163  -14.8104   26.8031 C   0  0  0  0  0  0  0  0  0  0  0  0
    6.9316  -13.4897   27.4462 C   0  0  0  0  0  0  0  0  0  0  0  0
    8.1572  -12.6264   27.4279 C   0  0  2  0  0  0  0  0  0  0  0  0
    9.2541  -13.6581   27.3222 C   0  0  0  0  0  0  0  0  0  0  0  0
    9.4124  -14.2923   28.6493 O   0  0  0  0  0  0  0  0  0  0  0  0
    8.9833  -15.4424   28.9373 O   0  0  0  0  0  0  0  0  0  0  0  0
  1  2  1  0
  2  3  2  0
  4  5  1  0
  4  2  1  0
  6  5  1  0
  7  6  1  0
  8  7  1  0
  8  9  1  6
 10  8  1  0
 11 10  2  0
 12 10  1  0
 13 12  1  0
 14 15  1  0
 13 14  1  6
 16 15  1  0
 16 20  1  0
 17 16  2  0
 18 21  1  0
 18 13  1  0
 19 18  2  0
 21 22  1  0
 22 23  1  0
 24 23  1  0
 25 21  1  0
 25 24  1  0
 25 26  1  1
 27 26  2  0
 28 26  1  0
M  END
$$$$
