SWK.pdb
     RDKit          3D

 30 31  0  0  1  0  0  0  0  0999 V2000
    6.6715  -18.6396   18.3498 O   0  0  0  0  0  0  0  0  0  0  0  0
    7.5117  -18.3146   19.3894 C   0  0  0  0  0  0  0  0  0  0  0  0
    8.1514  -16.9527   19.2472 C   0  0  2  0  0  0  0  0  0  0  0  0
    9.2512  -17.0647   18.2989 N   0  0  0  0  0  0  0  0  0  0  0  0
    8.6965  -16.5586   20.5625 C   0  0  0  0  0  0  0  0  0  0  0  0
    9.8183  -16.9997   20.9118 O   0  0  0  0  0  0  0  0  0  0  0  0
    8.0247  -15.7113   21.4493 N   0  0  0  0  0  0  0  0  0  0  0  0
    8.5568  -15.3585   22.7503 C   0  0  1  0  0  0  0  0  0  0  0  0
    7.6213  -14.3256   23.3261 C   0  0  0  0  0  0  0  0  0  0  0  0
    7.8601  -14.0212   24.7375 C   0  0  0  0  0  0  0  0  0  0  0  0
    8.7575  -14.5996   25.6176 C   0  0  0  0  0  0  0  0  0  0  0  0
    8.6390  -14.0151   26.8044 N   0  0  0  0  0  0  0  0  0  0  0  0
    7.6879  -13.0449   26.7872 C   0  0  0  0  0  0  0  0  0  0  0  0
    7.1982  -12.1762   27.7268 C   0  0  0  0  0  0  0  0  0  0  0  0
    6.2094  -11.2916   27.3928 C   0  0  0  0  0  0  0  0  0  0  0  0
    5.7166  -11.2875   26.1057 C   0  0  0  0  0  0  0  0  0  0  0  0
    6.2109  -12.1604   25.1672 C   0  0  0  0  0  0  0  0  0  0  0  0
    7.2031  -13.0533   25.4889 C   0  0  0  0  0  0  0  0  0  0  0  0
    8.7598  -16.5112   23.6214 C   0  0  0  0  0  0  0  0  0  0  0  0
    7.8224  -17.3390   23.7553 O   0  0  0  0  0  0  0  0  0  0  0  0
    9.9613  -16.7880   24.3537 N   0  0  0  0  0  0  0  0  0  0  0  0
   10.2124  -18.0872   24.9407 C   0  0  1  0  0  0  0  0  0  0  0  0
   11.1679  -18.8957   24.0695 C   0  0  0  0  0  0  0  0  0  0  0  0
   11.4637  -20.1903   24.7644 C   0  0  0  0  0  0  0  0  0  0  0  0
   12.3417  -21.1111   23.9975 C   0  0  0  0  0  0  0  0  0  0  0  0
   12.6499  -22.4177   24.6424 C   0  0  0  0  0  0  0  0  0  0  0  0
   13.3173  -23.3766   23.8259 N   0  0  0  0  0  0  0  0  0  0  0  0
   10.7876  -17.8809   26.2833 C   0  0  0  0  0  0  0  0  0  0  0  0
   10.6241  -18.7382   27.1811 O   0  0  0  0  0  0  0  0  0  0  0  0
   11.5136  -16.7418   26.5707 O   0  0  0  0  0  0  0  0  0  0  0  0
  1  2  1  0
  2  3  1  0
  3  5  1  0
  3  4  1  6
  5  6  2  0
  7  8  1  0
  7  5  1  0
  9 10  1  0
  8  9  1  1
 10 11  2  0
 12 11  1  0
 13 12  1  0
 14 13  2  0
 15 14  1  0
 16 15  2  0
 16 17  1  0
 17 18  2  0
 18 13  1  0
 18 10  1  0
 19 20  2  0
 19  8  1  0
 21 19  1  0
 22 21  1  0
 22 28  1  0
 22 23  1  6
 24 23  1  0
 25 24  1  0
 26 25  1  0
 27 26  1  0
 28 29  2  0
 28 30  1  0
M  END
$$$$
