SWK.pdb
     RDKit          3D

 30 31  0  0  1  0  0  0  0  0999 V2000
    8.5484  -17.8714   19.9538 O   0  0  0  0  0  0  0  0  0  0  0  0
    7.3919  -18.0804   20.6689 C   0  0  0  0  0  0  0  0  0  0  0  0
    6.8353  -16.8247   21.2995 C   0  0  2  0  0  0  0  0  0  0  0  0
    6.6006  -15.8513   20.2418 N   0  0  0  0  0  0  0  0  0  0  0  0
    7.8507  -16.2837   22.2261 C   0  0  0  0  0  0  0  0  0  0  0  0
    8.5749  -15.3323   21.8451 O   0  0  0  0  0  0  0  0  0  0  0  0
    8.0513  -16.7781   23.5188 N   0  0  0  0  0  0  0  0  0  0  0  0
    9.1683  -16.3721   24.3480 C   0  0  1  0  0  0  0  0  0  0  0  0
    8.6241  -16.2110   25.7450 C   0  0  0  0  0  0  0  0  0  0  0  0
    7.5762  -15.1967   25.8666 C   0  0  0  0  0  0  0  0  0  0  0  0
    6.2017  -15.3494   25.8249 C   0  0  0  0  0  0  0  0  0  0  0  0
    5.6285  -14.1610   25.9781 N   0  0  0  0  0  0  0  0  0  0  0  0
    6.5551  -13.1783   26.1261 C   0  0  0  0  0  0  0  0  0  0  0  0
    6.4825  -11.8224   26.3093 C   0  0  0  0  0  0  0  0  0  0  0  0
    7.6286  -11.0846   26.4269 C   0  0  0  0  0  0  0  0  0  0  0  0
    8.8490  -11.7214   26.3587 C   0  0  0  0  0  0  0  0  0  0  0  0
    8.9165  -13.0811   26.1750 C   0  0  0  0  0  0  0  0  0  0  0  0
    7.7742  -13.8335   26.0554 C   0  0  0  0  0  0  0  0  0  0  0  0
   10.3063  -17.2816   24.2670 C   0  0  0  0  0  0  0  0  0  0  0  0
   10.0981  -18.5185   24.3600 O   0  0  0  0  0  0  0  0  0  0  0  0
   11.6707  -16.8788   24.0865 N   0  0  0  0  0  0  0  0  0  0  0  0
   12.7446  -17.8457   24.0015 C   0  0  1  0  0  0  0  0  0  0  0  0
   13.9339  -17.2638   23.2447 C   0  0  0  0  0  0  0  0  0  0  0  0
   14.0825  -18.0058   21.9510 C   0  0  0  0  0  0  0  0  0  0  0  0
   14.5664  -17.1740   20.8193 C   0  0  0  0  0  0  0  0  0  0  0  0
   14.9190  -17.9028   19.5693 C   0  0  0  0  0  0  0  0  0  0  0  0
   15.3022  -17.0938   18.4601 N   0  0  0  0  0  0  0  0  0  0  0  0
   13.1378  -18.2169   25.3739 C   0  0  0  0  0  0  0  0  0  0  0  0
   13.8655  -19.2156   25.5761 O   0  0  0  0  0  0  0  0  0  0  0  0
   12.7106  -17.4710   26.4548 O   0  0  0  0  0  0  0  0  0  0  0  0
  1  2  1  0
  2  3  1  0
  3  5  1  0
  3  4  1  6
  5  6  2  0
  7  8  1  0
  7  5  1  0
  9 10  1  0
  8  9  1  1
 10 11  2  0
 12 11  1  0
 13 12  1  0
 14 13  2  0
 15 14  1  0
 16 15  2  0
 16 17  1  0
 17 18  2  0
 18 13  1  0
 18 10  1  0
 19 20  2  0
 19  8  1  0
 21 19  1  0
 22 21  1  0
 22 28  1  0
 22 23  1  1
 24 23  1  0
 25 24  1  0
 26 25  1  0
 27 26  1  0
 28 29  2  0
 28 30  1  0
M  END
$$$$
