SWK.pdb
     RDKit          3D

 30 31  0  0  1  0  0  0  0  0999 V2000
    8.7832  -16.4007   19.8065 O   0  0  0  0  0  0  0  0  0  0  0  0
    7.5439  -15.8046   19.8423 C   0  0  0  0  0  0  0  0  0  0  0  0
    7.5277  -14.4865   20.5816 C   0  0  2  0  0  0  0  0  0  0  0  0
    8.0280  -13.4557   19.6824 N   0  0  0  0  0  0  0  0  0  0  0  0
    8.4420  -14.5935   21.7371 C   0  0  0  0  0  0  0  0  0  0  0  0
    9.5412  -13.9892   21.6997 O   0  0  0  0  0  0  0  0  0  0  0  0
    8.1467  -15.3385   22.8831 N   0  0  0  0  0  0  0  0  0  0  0  0
    9.0422  -15.4147   24.0200 C   0  0  1  0  0  0  0  0  0  0  0  0
    8.2109  -15.8898   25.1847 C   0  0  0  0  0  0  0  0  0  0  0  0
    7.1389  -14.9712   25.5701 C   0  0  0  0  0  0  0  0  0  0  0  0
    5.7879  -15.2221   25.7324 C   0  0  0  0  0  0  0  0  0  0  0  0
    5.1780  -14.0977   26.0904 N   0  0  0  0  0  0  0  0  0  0  0  0
    6.0559  -13.0651   26.1849 C   0  0  0  0  0  0  0  0  0  0  0  0
    5.9338  -11.7395   26.5093 C   0  0  0  0  0  0  0  0  0  0  0  0
    7.0375  -10.9311   26.5151 C   0  0  0  0  0  0  0  0  0  0  0  0
    8.2657  -11.4665   26.1920 C   0  0  0  0  0  0  0  0  0  0  0  0
    8.3830  -12.7961   25.8675 C   0  0  0  0  0  0  0  0  0  0  0  0
    7.2836  -13.6186   25.8577 C   0  0  0  0  0  0  0  0  0  0  0  0
   10.2207  -16.2380   23.7706 C   0  0  0  0  0  0  0  0  0  0  0  0
   10.8011  -16.7733   24.7496 O   0  0  0  0  0  0  0  0  0  0  0  0
   10.7865  -16.4953   22.4782 N   0  0  0  0  0  0  0  0  0  0  0  0
   11.7868  -17.5219   22.2762 C   0  0  1  0  0  0  0  0  0  0  0  0
   11.8395  -17.9411   20.8109 C   0  0  0  0  0  0  0  0  0  0  0  0
   12.9032  -18.9852   20.6538 C   0  0  0  0  0  0  0  0  0  0  0  0
   13.1742  -19.3774   19.2468 C   0  0  0  0  0  0  0  0  0  0  0  0
   14.2263  -20.4113   19.0417 C   0  0  0  0  0  0  0  0  0  0  0  0
   13.7633  -21.7450   18.8453 N   0  0  0  0  0  0  0  0  0  0  0  0
   13.0909  -16.9830   22.7060 C   0  0  0  0  0  0  0  0  0  0  0  0
   14.0879  -17.7349   22.7982 O   0  0  0  0  0  0  0  0  0  0  0  0
   13.2328  -15.6439   23.0128 O   0  0  0  0  0  0  0  0  0  0  0  0
  1  2  1  0
  2  3  1  0
  3  5  1  0
  3  4  1  6
  5  6  2  0
  7  8  1  0
  7  5  1  0
  9 10  1  0
  8  9  1  1
 10 11  2  0
 12 11  1  0
 13 12  1  0
 14 13  2  0
 15 14  1  0
 16 15  2  0
 16 17  1  0
 17 18  2  0
 18 13  1  0
 18 10  1  0
 19 20  2  0
 19  8  1  0
 21 19  1  0
 22 21  1  0
 22 28  1  0
 22 23  1  6
 24 23  1  0
 25 24  1  0
 26 25  1  0
 27 26  1  0
 28 29  2  0
 28 30  1  0
M  END
$$$$
