SWK.pdb
     RDKit          3D

 30 31  0  0  1  0  0  0  0  0999 V2000
    8.2290  -17.5634   20.0737 O   0  0  0  0  0  0  0  0  0  0  0  0
    6.9658  -17.2126   20.4906 C   0  0  0  0  0  0  0  0  0  0  0  0
    6.8875  -15.8234   21.0807 C   0  0  2  0  0  0  0  0  0  0  0  0
    7.2054  -14.8656   20.0305 N   0  0  0  0  0  0  0  0  0  0  0  0
    7.9055  -15.7158   22.1458 C   0  0  0  0  0  0  0  0  0  0  0  0
    8.9024  -14.9763   21.9605 O   0  0  0  0  0  0  0  0  0  0  0  0
    7.8186  -16.3991   23.3628 N   0  0  0  0  0  0  0  0  0  0  0  0
    8.8077  -16.2583   24.4125 C   0  0  1  0  0  0  0  0  0  0  0  0
    8.0448  -16.2164   25.7124 C   0  0  0  0  0  0  0  0  0  0  0  0
    7.1244  -15.0848   25.8309 C   0  0  0  0  0  0  0  0  0  0  0  0
    5.7436  -15.0675   25.7451 C   0  0  0  0  0  0  0  0  0  0  0  0
    5.3142  -13.8218   25.9135 N   0  0  0  0  0  0  0  0  0  0  0  0
    6.3480  -12.9634   26.1150 C   0  0  0  0  0  0  0  0  0  0  0  0
    6.4347  -11.6134   26.3326 C   0  0  0  0  0  0  0  0  0  0  0  0
    7.6575  -11.0241   26.5033 C   0  0  0  0  0  0  0  0  0  0  0  0
    8.7931  -11.8034   26.4536 C   0  0  0  0  0  0  0  0  0  0  0  0
    8.7010  -13.1565   26.2352 C   0  0  0  0  0  0  0  0  0  0  0  0
    7.4802  -13.7608   26.0622 C   0  0  0  0  0  0  0  0  0  0  0  0
    9.8386  -17.2901   24.3746 C   0  0  0  0  0  0  0  0  0  0  0  0
    9.4883  -18.4878   24.2172 O   0  0  0  0  0  0  0  0  0  0  0  0
   11.2468  -17.0519   24.5040 N   0  0  0  0  0  0  0  0  0  0  0  0
   12.2030  -18.1383   24.5316 C   0  0  1  0  0  0  0  0  0  0  0  0
   13.5819  -17.6526   24.0976 C   0  0  0  0  0  0  0  0  0  0  0  0
   14.2073  -18.7075   23.2360 C   0  0  0  0  0  0  0  0  0  0  0  0
   15.5838  -18.3882   22.7776 C   0  0  0  0  0  0  0  0  0  0  0  0
   16.2054  -19.3575   21.8331 C   0  0  0  0  0  0  0  0  0  0  0  0
   17.5290  -19.0505   21.4024 N   0  0  0  0  0  0  0  0  0  0  0  0
   12.2525  -18.6713   25.9060 C   0  0  0  0  0  0  0  0  0  0  0  0
   11.7059  -18.0508   26.8463 O   0  0  0  0  0  0  0  0  0  0  0  0
   12.9009  -19.8602   26.1772 O   0  0  0  0  0  0  0  0  0  0  0  0
  1  2  1  0
  2  3  1  0
  3  5  1  0
  3  4  1  6
  5  6  2  0
  7  8  1  0
  7  5  1  0
  9 10  1  0
  8  9  1  1
 10 11  2  0
 12 11  1  0
 13 12  1  0
 14 13  2  0
 15 14  1  0
 16 15  2  0
 16 17  1  0
 17 18  2  0
 18 13  1  0
 18 10  1  0
 19 20  2  0
 19  8  1  0
 21 19  1  0
 22 21  1  0
 22 28  1  0
 22 23  1  1
 24 23  1  0
 25 24  1  0
 26 25  1  0
 27 26  1  0
 28 29  2  0
 28 30  1  0
M  END
$$$$
