SWK.pdb
     RDKit          3D

 30 31  0  0  1  0  0  0  0  0999 V2000
    7.8834  -19.8610   20.0719 O   0  0  0  0  0  0  0  0  0  0  0  0
    7.2865  -18.6244   19.9871 C   0  0  0  0  0  0  0  0  0  0  0  0
    8.2557  -17.5043   19.6860 C   0  0  2  0  0  0  0  0  0  0  0  0
    9.3085  -18.0330   18.8297 N   0  0  0  0  0  0  0  0  0  0  0  0
    8.8577  -17.0594   20.9596 C   0  0  0  0  0  0  0  0  0  0  0  0
   10.0098  -17.4574   21.2583 O   0  0  0  0  0  0  0  0  0  0  0  0
    8.2081  -16.2095   21.8603 N   0  0  0  0  0  0  0  0  0  0  0  0
    8.8177  -15.7667   23.0982 C   0  0  1  0  0  0  0  0  0  0  0  0
    8.0220  -14.5722   23.5603 C   0  0  0  0  0  0  0  0  0  0  0  0
    8.4044  -14.0720   24.8813 C   0  0  0  0  0  0  0  0  0  0  0  0
    9.6297  -14.1378   25.5208 C   0  0  0  0  0  0  0  0  0  0  0  0
    9.5298  -13.5552   26.7102 N   0  0  0  0  0  0  0  0  0  0  0  0
    8.2748  -13.0822   26.9277 C   0  0  0  0  0  0  0  0  0  0  0  0
    7.6741  -12.4215   27.9669 C   0  0  0  0  0  0  0  0  0  0  0  0
    6.3546  -12.0696   27.8838 C   0  0  0  0  0  0  0  0  0  0  0  0
    5.6436  -12.3875   26.7468 C   0  0  0  0  0  0  0  0  0  0  0  0
    6.2503  -13.0499   25.7075 C   0  0  0  0  0  0  0  0  0  0  0  0
    7.5737  -13.4090   25.7777 C   0  0  0  0  0  0  0  0  0  0  0  0
    8.9193  -16.8225   24.1000 C   0  0  0  0  0  0  0  0  0  0  0  0
    7.8857  -17.4750   24.3962 O   0  0  0  0  0  0  0  0  0  0  0  0
   10.1214  -17.1886   24.7910 N   0  0  0  0  0  0  0  0  0  0  0  0
   10.1491  -18.2763   25.7457 C   0  0  1  0  0  0  0  0  0  0  0  0
   11.3643  -19.1673   25.5112 C   0  0  0  0  0  0  0  0  0  0  0  0
   11.3387  -19.6403   24.0893 C   0  0  0  0  0  0  0  0  0  0  0  0
   12.5141  -20.4584   23.6940 C   0  0  0  0  0  0  0  0  0  0  0  0
   12.6360  -20.7802   22.2450 C   0  0  0  0  0  0  0  0  0  0  0  0
   13.9634  -20.9042   21.7410 N   0  0  0  0  0  0  0  0  0  0  0  0
   10.1884  -17.6963   27.1014 C   0  0  0  0  0  0  0  0  0  0  0  0
   10.1187  -18.4361   28.1092 O   0  0  0  0  0  0  0  0  0  0  0  0
   10.3023  -16.3316   27.2803 O   0  0  0  0  0  0  0  0  0  0  0  0
  1  2  1  0
  2  3  1  0
  3  5  1  0
  3  4  1  6
  5  6  2  0
  7  8  1  0
  7  5  1  0
  9 10  1  0
  8  9  1  1
 10 11  2  0
 12 11  1  0
 13 12  1  0
 14 13  2  0
 15 14  1  0
 16 15  2  0
 16 17  1  0
 17 18  2  0
 18 13  1  0
 18 10  1  0
 19 20  2  0
 19  8  1  0
 21 19  1  0
 22 21  1  0
 22 28  1  0
 22 23  1  6
 24 23  1  0
 25 24  1  0
 26 25  1  0
 27 26  1  0
 28 29  2  0
 28 30  1  0
M  END
$$$$
