SWK.pdb
     RDKit          3D

 30 31  0  0  1  0  0  0  0  0999 V2000
    8.3611  -16.4765   19.0644 O   0  0  0  0  0  0  0  0  0  0  0  0
    7.1727  -16.5159   19.7561 C   0  0  0  0  0  0  0  0  0  0  0  0
    6.9045  -15.2704   20.5693 C   0  0  2  0  0  0  0  0  0  0  0  0
    6.9407  -14.1250   19.6702 N   0  0  0  0  0  0  0  0  0  0  0  0
    7.9861  -15.1270   21.5652 C   0  0  0  0  0  0  0  0  0  0  0  0
    8.9071  -14.3030   21.3470 O   0  0  0  0  0  0  0  0  0  0  0  0
    8.0406  -15.8661   22.7511 N   0  0  0  0  0  0  0  0  0  0  0  0
    9.0901  -15.6918   23.7351 C   0  0  1  0  0  0  0  0  0  0  0  0
    8.4603  -15.9553   25.0795 C   0  0  0  0  0  0  0  0  0  0  0  0
    7.3961  -15.0166   25.4370 C   0  0  0  0  0  0  0  0  0  0  0  0
    6.0303  -15.2273   25.5060 C   0  0  0  0  0  0  0  0  0  0  0  0
    5.4353  -14.0979   25.8731 N   0  0  0  0  0  0  0  0  0  0  0  0
    6.3380  -13.1005   26.0642 C   0  0  0  0  0  0  0  0  0  0  0  0
    6.2381  -11.7856   26.4360 C   0  0  0  0  0  0  0  0  0  0  0  0
    7.3644  -11.0163   26.5429 C   0  0  0  0  0  0  0  0  0  0  0  0
    8.5927  -11.5801   26.2730 C   0  0  0  0  0  0  0  0  0  0  0  0
    8.6877  -12.8990   25.9007 C   0  0  0  0  0  0  0  0  0  0  0  0
    7.5655  -13.6823   25.7895 C   0  0  0  0  0  0  0  0  0  0  0  0
   10.2679  -16.5118   23.4723 C   0  0  0  0  0  0  0  0  0  0  0  0
   10.1090  -17.7349   23.2258 O   0  0  0  0  0  0  0  0  0  0  0  0
   11.6200  -16.0339   23.4707 N   0  0  0  0  0  0  0  0  0  0  0  0
   12.7363  -16.9097   23.1841 C   0  0  1  0  0  0  0  0  0  0  0  0
   13.8555  -16.1442   22.4861 C   0  0  0  0  0  0  0  0  0  0  0  0
   13.3098  -15.5544   21.2209 C   0  0  0  0  0  0  0  0  0  0  0  0
   14.2575  -14.6661   20.5000 C   0  0  0  0  0  0  0  0  0  0  0  0
   13.7435  -14.0223   19.2593 C   0  0  0  0  0  0  0  0  0  0  0  0
   14.6643  -13.1902   18.5584 N   0  0  0  0  0  0  0  0  0  0  0  0
   13.2153  -17.4752   24.4595 C   0  0  0  0  0  0  0  0  0  0  0  0
   14.0734  -18.3870   24.4656 O   0  0  0  0  0  0  0  0  0  0  0  0
   12.7263  -17.0092   25.6640 O   0  0  0  0  0  0  0  0  0  0  0  0
  1  2  1  0
  2  3  1  0
  3  5  1  0
  3  4  1  6
  5  6  2  0
  7  8  1  0
  7  5  1  0
  9 10  1  0
  8  9  1  1
 10 11  2  0
 12 11  1  0
 13 12  1  0
 14 13  2  0
 15 14  1  0
 16 15  2  0
 16 17  1  0
 17 18  2  0
 18 13  1  0
 18 10  1  0
 19 20  2  0
 19  8  1  0
 21 19  1  0
 22 21  1  0
 22 28  1  0
 22 23  1  1
 24 23  1  0
 25 24  1  0
 26 25  1  0
 27 26  1  0
 28 29  2  0
 28 30  1  0
M  END
$$$$
