SWK.pdb
     RDKit          3D

 30 31  0  0  1  0  0  0  0  0999 V2000
    7.7845  -20.1110   21.3929 O   0  0  0  0  0  0  0  0  0  0  0  0
    6.8618  -19.3611   20.7010 C   0  0  0  0  0  0  0  0  0  0  0  0
    6.2327  -18.2630   21.5274 C   0  0  2  0  0  0  0  0  0  0  0  0
    5.3362  -17.5040   20.6662 N   0  0  0  0  0  0  0  0  0  0  0  0
    7.3079  -17.3675   22.0010 C   0  0  0  0  0  0  0  0  0  0  0  0
    7.7490  -16.4852   21.2251 O   0  0  0  0  0  0  0  0  0  0  0  0
    7.8669  -17.4487   23.2802 N   0  0  0  0  0  0  0  0  0  0  0  0
    8.8802  -16.5265   23.7522 C   0  0  1  0  0  0  0  0  0  0  0  0
    8.5855  -16.2811   25.2104 C   0  0  0  0  0  0  0  0  0  0  0  0
    7.4567  -15.3811   25.4505 C   0  0  0  0  0  0  0  0  0  0  0  0
    6.1098  -15.6774   25.5614 C   0  0  0  0  0  0  0  0  0  0  0  0
    5.4354  -14.5542   25.7805 N   0  0  0  0  0  0  0  0  0  0  0  0
    6.2641  -13.4785   25.8272 C   0  0  0  0  0  0  0  0  0  0  0  0
    6.0702  -12.1361   26.0209 C   0  0  0  0  0  0  0  0  0  0  0  0
    7.1383  -11.2812   26.0122 C   0  0  0  0  0  0  0  0  0  0  0  0
    8.4038  -11.7873   25.8072 C   0  0  0  0  0  0  0  0  0  0  0  0
    8.5931  -13.1340   25.6135 C   0  0  0  0  0  0  0  0  0  0  0  0
    7.5300  -14.0030   25.6197 C   0  0  0  0  0  0  0  0  0  0  0  0
   10.2412  -16.9891   23.5024 C   0  0  0  0  0  0  0  0  0  0  0  0
   10.5585  -18.1523   23.8601 O   0  0  0  0  0  0  0  0  0  0  0  0
   11.2705  -16.2157   22.8706 N   0  0  0  0  0  0  0  0  0  0  0  0
   12.5594  -16.7874   22.5434 C   0  0  1  0  0  0  0  0  0  0  0  0
   13.2744  -15.9391   21.4971 C   0  0  0  0  0  0  0  0  0  0  0  0
   14.6259  -16.5360   21.2448 C   0  0  0  0  0  0  0  0  0  0  0  0
   15.4313  -15.8198   20.2225 C   0  0  0  0  0  0  0  0  0  0  0  0
   16.7493  -16.4230   19.8805 C   0  0  0  0  0  0  0  0  0  0  0  0
   17.5534  -15.6894   18.9602 N   0  0  0  0  0  0  0  0  0  0  0  0
   13.3572  -16.8599   23.7820 C   0  0  0  0  0  0  0  0  0  0  0  0
   14.4352  -17.4964   23.8049 O   0  0  0  0  0  0  0  0  0  0  0  0
   12.9290  -16.2286   24.9332 O   0  0  0  0  0  0  0  0  0  0  0  0
  1  2  1  0
  2  3  1  0
  3  5  1  0
  3  4  1  6
  5  6  2  0
  7  8  1  0
  7  5  1  0
  9 10  1  0
  8  9  1  1
 10 11  2  0
 12 11  1  0
 13 12  1  0
 14 13  2  0
 15 14  1  0
 16 15  2  0
 16 17  1  0
 17 18  2  0
 18 13  1  0
 18 10  1  0
 19 20  2  0
 19  8  1  0
 21 19  1  0
 22 21  1  0
 22 28  1  0
 22 23  1  6
 24 23  1  0
 25 24  1  0
 26 25  1  0
 27 26  1  0
 28 29  2  0
 28 30  1  0
M  END
$$$$
