SWK.pdb
     RDKit          3D

 30 31  0  0  1  0  0  0  0  0999 V2000
    8.3631  -19.7261   20.7306 O   0  0  0  0  0  0  0  0  0  0  0  0
    7.6674  -18.7394   20.0713 C   0  0  0  0  0  0  0  0  0  0  0  0
    8.4482  -17.4558   19.9061 C   0  0  2  0  0  0  0  0  0  0  0  0
    9.6066  -17.7339   19.0683 N   0  0  0  0  0  0  0  0  0  0  0  0
    8.9181  -17.0261   21.2391 C   0  0  0  0  0  0  0  0  0  0  0  0
   10.0730  -17.3491   21.6090 O   0  0  0  0  0  0  0  0  0  0  0  0
    8.1391  -16.2704   22.1209 N   0  0  0  0  0  0  0  0  0  0  0  0
    8.6242  -15.8288   23.4132 C   0  0  1  0  0  0  0  0  0  0  0  0
    7.7884  -14.6334   23.7951 C   0  0  0  0  0  0  0  0  0  0  0  0
    8.0951  -14.0853   25.1168 C   0  0  0  0  0  0  0  0  0  0  0  0
    9.1149  -14.4230   25.9889 C   0  0  0  0  0  0  0  0  0  0  0  0
    9.0192  -13.6713   27.0798 N   0  0  0  0  0  0  0  0  0  0  0  0
    7.9658  -12.8166   27.0031 C   0  0  0  0  0  0  0  0  0  0  0  0
    7.4520  -11.8626   27.8416 C   0  0  0  0  0  0  0  0  0  0  0  0
    6.3474  -11.1462   27.4692 C   0  0  0  0  0  0  0  0  0  0  0  0
    5.7634  -11.3969   26.2463 C   0  0  0  0  0  0  0  0  0  0  0  0
    6.2823  -12.3545   25.4091 C   0  0  0  0  0  0  0  0  0  0  0  0
    7.3902  -13.0806   25.7703 C   0  0  0  0  0  0  0  0  0  0  0  0
    8.6250  -16.8851   24.4196 C   0  0  0  0  0  0  0  0  0  0  0  0
    7.7841  -17.8149   24.3194 O   0  0  0  0  0  0  0  0  0  0  0  0
    9.5210  -16.9565   25.5372 N   0  0  0  0  0  0  0  0  0  0  0  0
   10.0547  -18.2180   26.0051 C   0  0  1  0  0  0  0  0  0  0  0  0
   10.9669  -18.8398   24.9530 C   0  0  0  0  0  0  0  0  0  0  0  0
   10.8031  -20.3288   25.0029 C   0  0  0  0  0  0  0  0  0  0  0  0
   11.6036  -21.0678   23.9930 C   0  0  0  0  0  0  0  0  0  0  0  0
   11.4791  -22.5518   24.0107 C   0  0  0  0  0  0  0  0  0  0  0  0
   10.3507  -23.0933   23.3288 N   0  0  0  0  0  0  0  0  0  0  0  0
   10.8016  -17.9662   27.2519 C   0  0  0  0  0  0  0  0  0  0  0  0
   11.9306  -17.4258   27.2159 O   0  0  0  0  0  0  0  0  0  0  0  0
   10.2692  -18.3215   28.4757 O   0  0  0  0  0  0  0  0  0  0  0  0
  1  2  1  0
  2  3  1  0
  3  5  1  0
  3  4  1  6
  5  6  2  0
  7  8  1  0
  7  5  1  0
  9 10  1  0
  8  9  1  1
 10 11  2  0
 12 11  1  0
 13 12  1  0
 14 13  2  0
 15 14  1  0
 16 15  2  0
 16 17  1  0
 17 18  2  0
 18 13  1  0
 18 10  1  0
 19 20  2  0
 19  8  1  0
 21 19  1  0
 22 21  1  0
 22 28  1  0
 22 23  1  6
 24 23  1  0
 25 24  1  0
 26 25  1  0
 27 26  1  0
 28 29  2  0
 28 30  1  0
M  END
$$$$
