SWK.pdb
     RDKit          3D

 30 31  0  0  1  0  0  0  0  0999 V2000
    7.8557  -18.0169   19.9171 O   0  0  0  0  0  0  0  0  0  0  0  0
    6.7159  -17.8963   20.6779 C   0  0  0  0  0  0  0  0  0  0  0  0
    6.5064  -16.5081   21.2377 C   0  0  2  0  0  0  0  0  0  0  0  0
    6.4733  -15.5699   20.1241 N   0  0  0  0  0  0  0  0  0  0  0  0
    7.6588  -16.1795   22.1017 C   0  0  0  0  0  0  0  0  0  0  0  0
    8.5496  -15.4134   21.6605 O   0  0  0  0  0  0  0  0  0  0  0  0
    7.8134  -16.6796   23.3984 N   0  0  0  0  0  0  0  0  0  0  0  0
    8.9344  -16.3258   24.2459 C   0  0  1  0  0  0  0  0  0  0  0  0
    8.3795  -16.1617   25.6383 C   0  0  0  0  0  0  0  0  0  0  0  0
    7.3931  -15.0885   25.7676 C   0  0  0  0  0  0  0  0  0  0  0  0
    6.0121  -15.1683   25.7975 C   0  0  0  0  0  0  0  0  0  0  0  0
    5.5097  -13.9457   25.9286 N   0  0  0  0  0  0  0  0  0  0  0  0
    6.4923  -13.0094   25.9917 C   0  0  0  0  0  0  0  0  0  0  0  0
    6.4995  -11.6455   26.1220 C   0  0  0  0  0  0  0  0  0  0  0  0
    7.6868  -10.9665   26.1545 C   0  0  0  0  0  0  0  0  0  0  0  0
    8.8676  -11.6704   26.0548 C   0  0  0  0  0  0  0  0  0  0  0  0
    8.8551  -13.0378   25.9243 C   0  0  0  0  0  0  0  0  0  0  0  0
    7.6708  -13.7316   25.8904 C   0  0  0  0  0  0  0  0  0  0  0  0
   10.0387  -17.2761   24.1667 C   0  0  0  0  0  0  0  0  0  0  0  0
    9.7941  -18.4999   24.3227 O   0  0  0  0  0  0  0  0  0  0  0  0
   11.4081  -16.9282   23.9211 N   0  0  0  0  0  0  0  0  0  0  0  0
   12.4541  -17.9285   23.8933 C   0  0  1  0  0  0  0  0  0  0  0  0
   13.6311  -17.4528   23.0484 C   0  0  0  0  0  0  0  0  0  0  0  0
   13.1516  -17.2375   21.6448 C   0  0  0  0  0  0  0  0  0  0  0  0
   14.2050  -16.7866   20.6994 C   0  0  0  0  0  0  0  0  0  0  0  0
   13.7722  -16.5505   19.2940 C   0  0  0  0  0  0  0  0  0  0  0  0
   14.7959  -16.1646   18.3804 N   0  0  0  0  0  0  0  0  0  0  0  0
   12.8841  -18.1815   25.2814 C   0  0  0  0  0  0  0  0  0  0  0  0
   12.4462  -17.4763   26.2188 O   0  0  0  0  0  0  0  0  0  0  0  0
   13.7743  -19.1976   25.5686 O   0  0  0  0  0  0  0  0  0  0  0  0
  1  2  1  0
  2  3  1  0
  3  5  1  0
  3  4  1  6
  5  6  2  0
  7  8  1  0
  7  5  1  0
  9 10  1  0
  8  9  1  1
 10 11  2  0
 12 11  1  0
 13 12  1  0
 14 13  2  0
 15 14  1  0
 16 15  2  0
 16 17  1  0
 17 18  2  0
 18 13  1  0
 18 10  1  0
 19 20  2  0
 19  8  1  0
 21 19  1  0
 22 21  1  0
 22 28  1  0
 22 23  1  6
 24 23  1  0
 25 24  1  0
 26 25  1  0
 27 26  1  0
 28 29  2  0
 28 30  1  0
M  END
$$$$
