SWK.pdb
     RDKit          3D

 30 31  0  0  1  0  0  0  0  0999 V2000
    8.5776  -14.6012   16.1979 O   0  0  0  0  0  0  0  0  0  0  0  0
    8.7192  -14.7548   17.5576 C   0  0  0  0  0  0  0  0  0  0  0  0
    7.8608  -13.8091   18.3659 C   0  0  2  0  0  0  0  0  0  0  0  0
    8.1141  -12.4535   17.8974 N   0  0  0  0  0  0  0  0  0  0  0  0
    8.2720  -13.9073   19.7814 C   0  0  0  0  0  0  0  0  0  0  0  0
    9.2691  -13.2523   20.1708 O   0  0  0  0  0  0  0  0  0  0  0  0
    7.6038  -14.6976   20.7219 N   0  0  0  0  0  0  0  0  0  0  0  0
    7.9876  -14.7459   22.1185 C   0  0  1  0  0  0  0  0  0  0  0  0
    6.7359  -15.0750   22.8921 C   0  0  0  0  0  0  0  0  0  0  0  0
    6.9245  -15.1295   24.3423 C   0  0  0  0  0  0  0  0  0  0  0  0
    7.0482  -16.2331   25.1676 C   0  0  0  0  0  0  0  0  0  0  0  0
    7.2049  -15.8220   26.4209 N   0  0  0  0  0  0  0  0  0  0  0  0
    7.1954  -14.4658   26.5034 C   0  0  0  0  0  0  0  0  0  0  0  0
    7.3160  -13.5749   27.5373 C   0  0  0  0  0  0  0  0  0  0  0  0
    7.2637  -12.2299   27.2924 C   0  0  0  0  0  0  0  0  0  0  0  0
    7.0891  -11.7876   25.9988 C   0  0  0  0  0  0  0  0  0  0  0  0
    6.9687  -12.6848   24.9656 C   0  0  0  0  0  0  0  0  0  0  0  0
    7.0194  -14.0372   25.1972 C   0  0  0  0  0  0  0  0  0  0  0  0
    9.0927  -15.6617   22.3807 C   0  0  0  0  0  0  0  0  0  0  0  0
    9.0074  -16.8454   21.9643 O   0  0  0  0  0  0  0  0  0  0  0  0
   10.2935  -15.3217   23.0872 N   0  0  0  0  0  0  0  0  0  0  0  0
   11.3835  -16.2632   23.2322 C   0  0  1  0  0  0  0  0  0  0  0  0
   12.7133  -15.6053   22.8796 C   0  0  0  0  0  0  0  0  0  0  0  0
   12.7062  -15.2740   21.4179 C   0  0  0  0  0  0  0  0  0  0  0  0
   13.9420  -14.6061   20.9346 C   0  0  0  0  0  0  0  0  0  0  0  0
   13.9389  -14.1634   19.5126 C   0  0  0  0  0  0  0  0  0  0  0  0
   13.6383  -15.1663   18.5455 N   0  0  0  0  0  0  0  0  0  0  0  0
   11.3970  -16.7382   24.6287 C   0  0  0  0  0  0  0  0  0  0  0  0
   12.2944  -17.5165   25.0244 O   0  0  0  0  0  0  0  0  0  0  0  0
   10.4225  -16.3332   25.5196 O   0  0  0  0  0  0  0  0  0  0  0  0
  1  2  1  0
  2  3  1  0
  3  5  1  0
  3  4  1  6
  5  6  2  0
  7  8  1  0
  7  5  1  0
  9 10  1  0
  8  9  1  1
 10 11  2  0
 12 11  1  0
 13 12  1  0
 14 13  2  0
 15 14  1  0
 16 15  2  0
 16 17  1  0
 17 18  2  0
 18 13  1  0
 18 10  1  0
 19 20  2  0
 19  8  1  0
 21 19  1  0
 22 21  1  0
 22 28  1  0
 22 23  1  1
 24 23  1  0
 25 24  1  0
 26 25  1  0
 27 26  1  0
 28 29  2  0
 28 30  1  0
M  END
$$$$
