SWK.pdb
     RDKit          3D

 30 31  0  0  1  0  0  0  0  0999 V2000
    7.8847  -17.9635   20.2878 O   0  0  0  0  0  0  0  0  0  0  0  0
    6.6693  -17.3464   20.4732 C   0  0  0  0  0  0  0  0  0  0  0  0
    6.7818  -15.9361   21.0051 C   0  0  2  0  0  0  0  0  0  0  0  0
    7.1653  -15.0646   19.9029 N   0  0  0  0  0  0  0  0  0  0  0  0
    7.8505  -15.9108   22.0247 C   0  0  0  0  0  0  0  0  0  0  0  0
    8.9960  -15.5192   21.6941 O   0  0  0  0  0  0  0  0  0  0  0  0
    7.6539  -16.3024   23.3528 N   0  0  0  0  0  0  0  0  0  0  0  0
    8.7104  -16.2680   24.3440 C   0  0  1  0  0  0  0  0  0  0  0  0
    8.0322  -16.1279   25.6834 C   0  0  0  0  0  0  0  0  0  0  0  0
    7.1539  -14.9623   25.7914 C   0  0  0  0  0  0  0  0  0  0  0  0
    5.7715  -14.9050   25.7875 C   0  0  0  0  0  0  0  0  0  0  0  0
    5.3896  -13.6387   25.9094 N   0  0  0  0  0  0  0  0  0  0  0  0
    6.4582  -12.8042   25.9988 C   0  0  0  0  0  0  0  0  0  0  0  0
    6.5971  -11.4478   26.1326 C   0  0  0  0  0  0  0  0  0  0  0  0
    7.8446  -10.8897   26.1957 C   0  0  0  0  0  0  0  0  0  0  0  0
    8.9520  -11.7070   26.1230 C   0  0  0  0  0  0  0  0  0  0  0  0
    8.8075  -13.0665   25.9888 C   0  0  0  0  0  0  0  0  0  0  0  0
    7.5615  -13.6396   25.9243 C   0  0  0  0  0  0  0  0  0  0  0  0
    9.6124  -17.4120   24.2642 C   0  0  0  0  0  0  0  0  0  0  0  0
    9.2130  -18.4566   23.6888 O   0  0  0  0  0  0  0  0  0  0  0  0
   10.9436  -17.4492   24.7964 N   0  0  0  0  0  0  0  0  0  0  0  0
   11.8199  -18.5801   24.5757 C   0  0  1  0  0  0  0  0  0  0  0  0
   12.1747  -18.7055   23.0979 C   0  0  0  0  0  0  0  0  0  0  0  0
   13.3000  -17.7620   22.7981 C   0  0  0  0  0  0  0  0  0  0  0  0
   13.7581  -17.7834   21.3851 C   0  0  0  0  0  0  0  0  0  0  0  0
   14.8990  -16.8873   21.0485 C   0  0  0  0  0  0  0  0  0  0  0  0
   14.5566  -15.6186   20.4965 N   0  0  0  0  0  0  0  0  0  0  0  0
   13.0379  -18.3815   25.3838 C   0  0  0  0  0  0  0  0  0  0  0  0
   13.9482  -19.2412   25.3792 O   0  0  0  0  0  0  0  0  0  0  0  0
   13.1931  -17.2473   26.1563 O   0  0  0  0  0  0  0  0  0  0  0  0
  1  2  1  0
  2  3  1  0
  3  5  1  0
  3  4  1  6
  5  6  2  0
  7  8  1  0
  7  5  1  0
  9 10  1  0
  8  9  1  1
 10 11  2  0
 12 11  1  0
 13 12  1  0
 14 13  2  0
 15 14  1  0
 16 15  2  0
 16 17  1  0
 17 18  2  0
 18 13  1  0
 18 10  1  0
 19 20  2  0
 19  8  1  0
 21 19  1  0
 22 21  1  0
 22 28  1  0
 22 23  1  6
 24 23  1  0
 25 24  1  0
 26 25  1  0
 27 26  1  0
 28 29  2  0
 28 30  1  0
M  END
$$$$
