CDN.pdb
     RDKit          3D

 23 22  0  0  1  0  0  0  0  0999 V2000
   33.0607  -29.5703  -17.6243 N   0  0  0  0  0  0  0  0  0  0  0  0
   32.9135  -28.1852  -17.9865 C   0  0  1  0  0  0  0  0  0  0  0  0
   34.1533  -27.5993  -18.5912 C   0  0  0  0  0  0  0  0  0  0  0  0
   35.6292  -27.9574  -17.5991 S   0  0  0  0  0  0  0  0  0  0  0  0
   31.7713  -28.0171  -18.9285 C   0  0  0  0  0  0  0  0  0  0  0  0
   31.4197  -26.8353  -19.2600 O   0  0  0  0  0  0  0  0  0  0  0  0
   31.1033  -29.1513  -19.4350 N   0  0  0  0  0  0  0  0  0  0  0  0
   29.9255  -28.9438  -20.2926 C   0  0  1  0  0  0  0  0  0  0  0  0
   30.2349  -29.4862  -21.6769 C   0  0  0  0  0  0  0  0  0  0  0  0
   31.1317  -28.6339  -22.4686 C   0  0  0  0  0  0  0  0  0  0  0  0
   31.1619  -27.3919  -22.2372 O   0  0  0  0  0  0  0  0  0  0  0  0
   28.8085  -29.6127  -19.6209 C   0  0  0  0  0  0  0  0  0  0  0  0
   27.7440  -29.9756  -20.2383 O   0  0  0  0  0  0  0  0  0  0  0  0
   31.9391  -29.1692  -23.4592 O   0  0  0  0  0  0  0  0  0  0  0  0
   30.1334  -33.1011  -16.2527 N   0  0  0  0  0  0  0  0  0  0  0  0
   29.0144  -32.5826  -16.9738 C   0  0  0  0  0  0  0  0  0  0  0  0
   28.7435  -33.1351  -18.0641 O   0  0  0  0  0  0  0  0  0  0  0  0
   28.2243  -31.4544  -16.4601 C   0  0  0  0  0  0  0  0  0  0  0  0
   27.6672  -30.5883  -17.5874 C   0  0  2  0  0  0  0  0  0  0  0  0
   28.7591  -29.9431  -18.2252 N   0  0  0  0  0  0  0  0  0  0  0  0
   26.5645  -29.7552  -17.1753 C   0  0  0  0  0  0  0  0  0  0  0  0
   25.5450  -30.2275  -16.6486 O   0  0  0  0  0  0  0  0  0  0  0  0
   26.6119  -28.3936  -17.3571 O   0  0  0  0  0  0  0  0  0  0  0  0
  2  1  1  6
  2  5  1  0
  3  2  1  0
  4  3  1  0
  5  6  2  0
  7  8  1  0
  7  5  1  0
  8 12  1  0
  8  9  1  6
 10  9  1  0
 11 10  2  0
 12 20  1  0
 12 13  2  0
 14 10  1  0
 15 16  1  0
 16 17  2  0
 16 18  1  0
 19 18  1  1
 19 21  1  0
 20 19  1  0
 21 22  2  0
 21 23  1  0
M  END
$$$$
