CDN.pdb
     RDKit          3D

 23 22  0  0  1  0  0  0  0  0999 V2000
   18.1285  -12.8509  -16.1112 N   0  0  0  0  0  0  0  0  0  0  0  0
   17.5271  -11.5528  -16.2679 C   0  0  1  0  0  0  0  0  0  0  0  0
   16.8516  -11.0622  -15.0233 C   0  0  0  0  0  0  0  0  0  0  0  0
   15.5252  -12.1763  -14.4845 S   0  0  0  0  0  0  0  0  0  0  0  0
   18.5489  -10.5604  -16.7053 C   0  0  0  0  0  0  0  0  0  0  0  0
   19.7820  -10.8200  -16.5001 O   0  0  0  0  0  0  0  0  0  0  0  0
   18.1450   -9.3635  -17.3327 N   0  0  0  0  0  0  0  0  0  0  0  0
   19.1857   -8.4385  -17.8092 C   0  0  1  0  0  0  0  0  0  0  0  0
   18.6469   -7.6841  -19.0120 C   0  0  0  0  0  0  0  0  0  0  0  0
   19.5926   -6.7187  -19.5875 C   0  0  0  0  0  0  0  0  0  0  0  0
   20.7295   -6.5795  -19.0538 O   0  0  0  0  0  0  0  0  0  0  0  0
   19.5269   -7.5852  -16.6683 C   0  0  0  0  0  0  0  0  0  0  0  0
   18.6412   -7.0810  -15.8889 O   0  0  0  0  0  0  0  0  0  0  0  0
   19.2572   -5.9632  -20.6995 O   0  0  0  0  0  0  0  0  0  0  0  0
   21.7910   -5.1594  -12.7321 N   0  0  0  0  0  0  0  0  0  0  0  0
   22.1974   -6.5182  -12.9033 C   0  0  0  0  0  0  0  0  0  0  0  0
   22.8492   -7.0322  -11.9661 O   0  0  0  0  0  0  0  0  0  0  0  0
   21.8680   -7.2717  -14.1219 C   0  0  0  0  0  0  0  0  0  0  0  0
   21.1738   -6.3970  -15.1630 C   0  0  2  0  0  0  0  0  0  0  0  0
   20.8577   -7.2130  -16.2809 N   0  0  0  0  0  0  0  0  0  0  0  0
   21.8723   -5.1637  -15.4295 C   0  0  0  0  0  0  0  0  0  0  0  0
   22.3735   -4.9187  -16.5380 O   0  0  0  0  0  0  0  0  0  0  0  0
   22.0049   -4.2101  -14.4485 O   0  0  0  0  0  0  0  0  0  0  0  0
  2  1  1  1
  2  5  1  0
  3  2  1  0
  4  3  1  0
  5  6  2  0
  7  8  1  0
  7  5  1  0
  8 12  1  0
  8  9  1  6
 10  9  1  0
 11 10  2  0
 12 20  1  0
 12 13  2  0
 14 10  1  0
 15 16  1  0
 16 17  2  0
 16 18  1  0
 19 18  1  1
 19 21  1  0
 20 19  1  0
 21 22  2  0
 21 23  1  0
M  END
$$$$
