CDN.pdb
     RDKit          3D

 23 22  0  0  1  0  0  0  0  0999 V2000
   25.9794  -11.6390  -17.9288 N   0  0  0  0  0  0  0  0  0  0  0  0
   25.5214  -11.3600  -16.5933 C   0  0  1  0  0  0  0  0  0  0  0  0
   26.5438  -10.6545  -15.7550 C   0  0  0  0  0  0  0  0  0  0  0  0
   28.0912  -11.5939  -15.6351 S   0  0  0  0  0  0  0  0  0  0  0  0
   24.2687  -10.5542  -16.6356 C   0  0  0  0  0  0  0  0  0  0  0  0
   24.1388   -9.6714  -17.5487 O   0  0  0  0  0  0  0  0  0  0  0  0
   23.2563  -10.7755  -15.6788 N   0  0  0  0  0  0  0  0  0  0  0  0
   22.0214   -9.9804  -15.7713 C   0  0  1  0  0  0  0  0  0  0  0  0
   20.9278  -10.6954  -14.9973 C   0  0  0  0  0  0  0  0  0  0  0  0
   20.4856  -11.9555  -15.6090 C   0  0  0  0  0  0  0  0  0  0  0  0
   20.2741  -12.9571  -14.8681 O   0  0  0  0  0  0  0  0  0  0  0  0
   22.3525   -8.6504  -15.2538 C   0  0  0  0  0  0  0  0  0  0  0  0
   23.1365   -8.4696  -14.2545 O   0  0  0  0  0  0  0  0  0  0  0  0
   20.2991  -12.0605  -16.9779 O   0  0  0  0  0  0  0  0  0  0  0  0
   23.9166   -3.1438  -16.4166 N   0  0  0  0  0  0  0  0  0  0  0  0
   23.8160   -4.2781  -15.5539 C   0  0  0  0  0  0  0  0  0  0  0  0
   24.1253   -4.1006  -14.3538 O   0  0  0  0  0  0  0  0  0  0  0  0
   23.3742   -5.5880  -16.0540 C   0  0  0  0  0  0  0  0  0  0  0  0
   22.1844   -6.1282  -15.2644 C   0  0  2  0  0  0  0  0  0  0  0  0
   21.8603   -7.4099  -15.7817 N   0  0  0  0  0  0  0  0  0  0  0  0
   21.1045   -5.1805  -15.1398 C   0  0  0  0  0  0  0  0  0  0  0  0
   20.0737   -5.2649  -15.8256 O   0  0  0  0  0  0  0  0  0  0  0  0
   21.1875   -4.1408  -14.2445 O   0  0  0  0  0  0  0  0  0  0  0  0
  2  1  1  6
  2  5  1  0
  3  2  1  0
  4  3  1  0
  5  6  2  0
  7  8  1  0
  7  5  1  0
  8 12  1  0
  8  9  1  1
 10  9  1  0
 11 10  2  0
 12 20  1  0
 12 13  2  0
 14 10  1  0
 15 16  1  0
 16 17  2  0
 16 18  1  0
 19 18  1  6
 19 21  1  0
 20 19  1  0
 21 22  2  0
 21 23  1  0
M  END
$$$$
