CDN.pdb
     RDKit          3D

 23 22  0  0  1  0  0  0  0  0999 V2000
   12.0762   -9.2090   -8.3512 N   0  0  0  0  0  0  0  0  0  0  0  0
   13.1144   -8.2288   -8.5322 C   0  0  1  0  0  0  0  0  0  0  0  0
   13.5763   -7.6152   -7.2454 C   0  0  0  0  0  0  0  0  0  0  0  0
   12.2228   -6.7962   -6.3575 S   0  0  0  0  0  0  0  0  0  0  0  0
   14.2766   -8.8337   -9.2421 C   0  0  0  0  0  0  0  0  0  0  0  0
   14.2880  -10.0960   -9.4335 O   0  0  0  0  0  0  0  0  0  0  0  0
   15.3342   -8.0138   -9.6876 N   0  0  0  0  0  0  0  0  0  0  0  0
   16.3177   -8.5870  -10.6203 C   0  0  1  0  0  0  0  0  0  0  0  0
   15.5708   -9.2109  -11.7861 C   0  0  0  0  0  0  0  0  0  0  0  0
   16.4378   -9.6540  -12.8859 C   0  0  0  0  0  0  0  0  0  0  0  0
   17.3021  -10.5488  -12.6645 O   0  0  0  0  0  0  0  0  0  0  0  0
   17.2108   -7.4886  -10.9975 C   0  0  0  0  0  0  0  0  0  0  0  0
   16.7800   -6.3292  -11.3382 O   0  0  0  0  0  0  0  0  0  0  0  0
   16.3220   -9.1076  -14.1539 O   0  0  0  0  0  0  0  0  0  0  0  0
   21.4631   -4.6427  -12.1488 N   0  0  0  0  0  0  0  0  0  0  0  0
   21.8878   -5.8590  -11.5315 C   0  0  0  0  0  0  0  0  0  0  0  0
   23.1081   -5.9609  -11.2710 O   0  0  0  0  0  0  0  0  0  0  0  0
   20.9373   -6.9370  -11.2220 C   0  0  0  0  0  0  0  0  0  0  0  0
   19.4931   -6.5163  -11.4832 C   0  0  2  0  0  0  0  0  0  0  0  0
   18.6438   -7.5609  -11.0329 N   0  0  0  0  0  0  0  0  0  0  0  0
   19.2746   -6.0261  -12.8218 C   0  0  0  0  0  0  0  0  0  0  0  0
   18.9552   -6.7805  -13.7539 O   0  0  0  0  0  0  0  0  0  0  0  0
   19.4163   -4.6892  -13.1078 O   0  0  0  0  0  0  0  0  0  0  0  0
  2  1  1  1
  2  5  1  0
  3  2  1  0
  4  3  1  0
  5  6  2  0
  7  8  1  0
  7  5  1  0
  8 12  1  0
  8  9  1  6
 10  9  1  0
 11 10  2  0
 12 20  1  0
 12 13  2  0
 14 10  1  0
 15 16  1  0
 16 17  2  0
 16 18  1  0
 19 18  1  6
 19 21  1  0
 20 19  1  0
 21 22  2  0
 21 23  1  0
M  END
$$$$
