CDN.pdb
     RDKit          3D

 23 22  0  0  1  0  0  0  0  0999 V2000
   12.2671  -12.3052  -10.2032 N   0  0  0  0  0  0  0  0  0  0  0  0
   12.3288  -10.9278  -10.6162 C   0  0  1  0  0  0  0  0  0  0  0  0
   11.3808  -10.0441   -9.8636 C   0  0  0  0  0  0  0  0  0  0  0  0
    9.6517  -10.3669  -10.3072 S   0  0  0  0  0  0  0  0  0  0  0  0
   13.7176  -10.4077  -10.4713 C   0  0  0  0  0  0  0  0  0  0  0  0
   14.3608  -10.6689   -9.3998 O   0  0  0  0  0  0  0  0  0  0  0  0
   14.2954   -9.6444  -11.5071 N   0  0  0  0  0  0  0  0  0  0  0  0
   15.6176   -9.0410  -11.2765 C   0  0  1  0  0  0  0  0  0  0  0  0
   16.4400   -9.1809  -12.5455 C   0  0  0  0  0  0  0  0  0  0  0  0
   16.8733  -10.5550  -12.8311 C   0  0  0  0  0  0  0  0  0  0  0  0
   17.3275  -11.2643  -11.8891 O   0  0  0  0  0  0  0  0  0  0  0  0
   15.3690   -7.6552  -10.8714 C   0  0  0  0  0  0  0  0  0  0  0  0
   14.4741   -6.9202  -11.4239 O   0  0  0  0  0  0  0  0  0  0  0  0
   16.7920  -11.0803  -14.1106 O   0  0  0  0  0  0  0  0  0  0  0  0
   15.5022   -2.9887   -8.5620 N   0  0  0  0  0  0  0  0  0  0  0  0
   15.6064   -4.0418   -7.6023 C   0  0  0  0  0  0  0  0  0  0  0  0
   15.5350   -3.7124   -6.3966 O   0  0  0  0  0  0  0  0  0  0  0  0
   15.7915   -5.4412   -8.0130 C   0  0  0  0  0  0  0  0  0  0  0  0
   15.9024   -5.5805   -9.5294 C   0  0  2  0  0  0  0  0  0  0  0  0
   16.0707   -6.9572   -9.8321 N   0  0  0  0  0  0  0  0  0  0  0  0
   16.8434   -4.6607  -10.1197 C   0  0  0  0  0  0  0  0  0  0  0  0
   17.9886   -5.0107  -10.4451 O   0  0  0  0  0  0  0  0  0  0  0  0
   16.4934   -3.3502  -10.3419 O   0  0  0  0  0  0  0  0  0  0  0  0
  2  1  1  1
  2  5  1  0
  3  2  1  0
  4  3  1  0
  5  6  2  0
  7  8  1  0
  7  5  1  0
  8 12  1  0
  8  9  1  6
 10  9  1  0
 11 10  2  0
 12 20  1  0
 12 13  2  0
 14 10  1  0
 15 16  1  0
 16 17  2  0
 16 18  1  0
 19 18  1  1
 19 21  1  0
 20 19  1  0
 21 22  2  0
 21 23  1  0
M  END
$$$$
