CDN.pdb
     RDKit          3D

 23 22  0  0  1  0  0  0  0  0999 V2000
   19.4239  -14.9435  -16.4637 N   0  0  0  0  0  0  0  0  0  0  0  0
   18.8738  -13.6230  -16.6212 C   0  0  1  0  0  0  0  0  0  0  0  0
   18.1132  -13.1542  -15.4180 C   0  0  0  0  0  0  0  0  0  0  0  0
   16.7544  -14.2779  -14.9913 S   0  0  0  0  0  0  0  0  0  0  0  0
   19.9552  -12.6483  -16.9388 C   0  0  0  0  0  0  0  0  0  0  0  0
   21.1035  -12.8122  -16.4053 O   0  0  0  0  0  0  0  0  0  0  0  0
   19.6989  -11.5723  -17.8139 N   0  0  0  0  0  0  0  0  0  0  0  0
   20.7878  -10.6220  -18.0909 C   0  0  1  0  0  0  0  0  0  0  0  0
   20.6357  -10.1151  -19.5143 C   0  0  0  0  0  0  0  0  0  0  0  0
   21.6235   -9.0978  -19.8976 C   0  0  0  0  0  0  0  0  0  0  0  0
   22.7739   -9.1312  -19.3759 O   0  0  0  0  0  0  0  0  0  0  0  0
   20.6891   -9.5783  -17.0675 C   0  0  0  0  0  0  0  0  0  0  0  0
   19.7483   -9.5477  -16.1956 O   0  0  0  0  0  0  0  0  0  0  0  0
   21.3131   -8.1085  -20.8167 O   0  0  0  0  0  0  0  0  0  0  0  0
   21.2959   -5.9610  -13.5507 N   0  0  0  0  0  0  0  0  0  0  0  0
   21.7217   -7.3163  -13.3996 C   0  0  0  0  0  0  0  0  0  0  0  0
   22.0629   -7.6732  -12.2492 O   0  0  0  0  0  0  0  0  0  0  0  0
   21.7594   -8.2424  -14.5407 C   0  0  0  0  0  0  0  0  0  0  0  0
   21.5371   -7.5212  -15.8680 C   0  0  2  0  0  0  0  0  0  0  0  0
   21.6054   -8.4854  -16.9077 N   0  0  0  0  0  0  0  0  0  0  0  0
   22.3486   -6.3385  -16.0177 C   0  0  0  0  0  0  0  0  0  0  0  0
   22.2871   -5.3934  -15.2158 O   0  0  0  0  0  0  0  0  0  0  0  0
   23.2266   -6.2223  -17.0688 O   0  0  0  0  0  0  0  0  0  0  0  0
  2  1  1  1
  2  5  1  0
  3  2  1  0
  4  3  1  0
  5  6  2  0
  7  8  1  0
  7  5  1  0
  8 12  1  0
  8  9  1  6
 10  9  1  0
 11 10  2  0
 12 20  1  0
 12 13  2  0
 14 10  1  0
 15 16  1  0
 16 17  2  0
 16 18  1  0
 19 18  1  1
 19 21  1  0
 20 19  1  0
 21 22  2  0
 21 23  1  0
M  END
$$$$
