CDN.pdb
     RDKit          3D

 23 22  0  0  1  0  0  0  0  0999 V2000
   26.4841  -20.1507   -8.7568 N   0  0  0  0  0  0  0  0  0  0  0  0
   25.5476  -20.8877   -9.5638 C   0  0  1  0  0  0  0  0  0  0  0  0
   24.1241  -20.6996   -9.1345 C   0  0  0  0  0  0  0  0  0  0  0  0
   23.7650  -21.5538   -7.5750 S   0  0  0  0  0  0  0  0  0  0  0  0
   25.6910  -20.5072  -10.9973 C   0  0  0  0  0  0  0  0  0  0  0  0
   25.8538  -19.2754  -11.2908 O   0  0  0  0  0  0  0  0  0  0  0  0
   25.6460  -21.5006  -11.9976 N   0  0  0  0  0  0  0  0  0  0  0  0
   25.8110  -21.0879  -13.4004 C   0  0  1  0  0  0  0  0  0  0  0  0
   26.5467  -22.1887  -14.1441 C   0  0  0  0  0  0  0  0  0  0  0  0
   26.8509  -21.8668  -15.5446 C   0  0  0  0  0  0  0  0  0  0  0  0
   25.9038  -21.5679  -16.3260 O   0  0  0  0  0  0  0  0  0  0  0  0
   24.4634  -20.8171  -13.9075 C   0  0  0  0  0  0  0  0  0  0  0  0
   23.4728  -21.6063  -13.7024 O   0  0  0  0  0  0  0  0  0  0  0  0
   28.1530  -21.8870  -16.0177 O   0  0  0  0  0  0  0  0  0  0  0  0
   20.9390  -16.5233  -16.6997 N   0  0  0  0  0  0  0  0  0  0  0  0
   21.2671  -17.5445  -15.7560 C   0  0  0  0  0  0  0  0  0  0  0  0
   20.3103  -18.0791  -15.1510 O   0  0  0  0  0  0  0  0  0  0  0  0
   22.6601  -17.9432  -15.5075 C   0  0  0  0  0  0  0  0  0  0  0  0
   22.7784  -19.4305  -15.1834 C   0  0  2  0  0  0  0  0  0  0  0  0
   24.0832  -19.6662  -14.6760 N   0  0  0  0  0  0  0  0  0  0  0  0
   22.3279  -20.2855  -16.2538 C   0  0  0  0  0  0  0  0  0  0  0  0
   22.9262  -20.3503  -17.3391 O   0  0  0  0  0  0  0  0  0  0  0  0
   21.2060  -21.0646  -16.1004 O   0  0  0  0  0  0  0  0  0  0  0  0
  2  1  1  1
  2  5  1  0
  3  2  1  0
  4  3  1  0
  5  6  2  0
  7  8  1  0
  7  5  1  0
  8 12  1  0
  8  9  1  6
 10  9  1  0
 11 10  2  0
 12 20  1  0
 12 13  2  0
 14 10  1  0
 15 16  1  0
 16 17  2  0
 16 18  1  0
 19 18  1  6
 19 21  1  0
 20 19  1  0
 21 22  2  0
 21 23  1  0
M  END
$$$$
