CDN.pdb
     RDKit          3D

 23 22  0  0  1  0  0  0  0  0999 V2000
   22.2835  -12.6815  -17.9104 N   0  0  0  0  0  0  0  0  0  0  0  0
   22.5962  -11.7322  -16.8748 C   0  0  1  0  0  0  0  0  0  0  0  0
   24.0111  -11.2416  -16.9328 C   0  0  0  0  0  0  0  0  0  0  0  0
   25.1994  -12.5369  -16.4845 S   0  0  0  0  0  0  0  0  0  0  0  0
   21.6629  -10.5724  -16.9395 C   0  0  0  0  0  0  0  0  0  0  0  0
   21.2623  -10.1715  -18.0836 O   0  0  0  0  0  0  0  0  0  0  0  0
   21.2396   -9.9418  -15.7510 N   0  0  0  0  0  0  0  0  0  0  0  0
   20.3082   -8.8072  -15.8552 C   0  0  1  0  0  0  0  0  0  0  0  0
   19.1831   -9.0130  -14.8562 C   0  0  0  0  0  0  0  0  0  0  0  0
   18.2423  -10.0796  -15.2235 C   0  0  0  0  0  0  0  0  0  0  0  0
   17.9239  -10.2267  -16.4375 O   0  0  0  0  0  0  0  0  0  0  0  0
   21.1063   -7.6011  -15.6214 C   0  0  0  0  0  0  0  0  0  0  0  0
   22.1834   -7.6056  -14.9243 O   0  0  0  0  0  0  0  0  0  0  0  0
   17.7024  -10.9203  -14.2637 O   0  0  0  0  0  0  0  0  0  0  0  0
   22.9591   -2.7083  -15.7250 N   0  0  0  0  0  0  0  0  0  0  0  0
   21.8922   -2.8012  -16.6706 C   0  0  0  0  0  0  0  0  0  0  0  0
   21.6430   -1.7728  -17.3397 O   0  0  0  0  0  0  0  0  0  0  0  0
   21.1248   -4.0430  -16.8446 C   0  0  0  0  0  0  0  0  0  0  0  0
   21.5632   -5.1266  -15.8625 C   0  0  2  0  0  0  0  0  0  0  0  0
   20.7997   -6.2937  -16.1277 N   0  0  0  0  0  0  0  0  0  0  0  0
   21.6102   -4.6720  -14.4946 C   0  0  0  0  0  0  0  0  0  0  0  0
   20.6984   -4.9166  -13.6892 O   0  0  0  0  0  0  0  0  0  0  0  0
   22.6824   -3.9438  -14.0371 O   0  0  0  0  0  0  0  0  0  0  0  0
  2  1  1  6
  2  5  1  0
  3  2  1  0
  4  3  1  0
  5  6  2  0
  7  8  1  0
  7  5  1  0
  8 12  1  0
  8  9  1  1
 10  9  1  0
 11 10  2  0
 12 20  1  0
 12 13  2  0
 14 10  1  0
 15 16  1  0
 16 17  2  0
 16 18  1  0
 19 18  1  6
 19 21  1  0
 20 19  1  0
 21 22  2  0
 21 23  1  0
M  END
$$$$
