CDN.pdb
     RDKit          3D

 23 22  0  0  1  0  0  0  0  0999 V2000
   18.4968  -11.2623  -16.3176 N   0  0  0  0  0  0  0  0  0  0  0  0
   18.0995   -9.9072  -16.0394 C   0  0  1  0  0  0  0  0  0  0  0  0
   16.6156   -9.7051  -16.0948 C   0  0  0  0  0  0  0  0  0  0  0  0
   15.9644   -9.9004  -17.7766 S   0  0  0  0  0  0  0  0  0  0  0  0
   18.6115   -9.4833  -14.7058 C   0  0  0  0  0  0  0  0  0  0  0  0
   18.6871  -10.3528  -13.7740 O   0  0  0  0  0  0  0  0  0  0  0  0
   19.0012   -8.1444  -14.4941 N   0  0  0  0  0  0  0  0  0  0  0  0
   19.5227   -7.7692  -13.1701 C   0  0  1  0  0  0  0  0  0  0  0  0
   20.6671   -6.7896  -13.3620 C   0  0  0  0  0  0  0  0  0  0  0  0
   21.2172   -6.2567  -12.1086 C   0  0  0  0  0  0  0  0  0  0  0  0
   21.8339   -5.1540  -12.1281 O   0  0  0  0  0  0  0  0  0  0  0  0
   18.3859   -7.2262  -12.4225 C   0  0  0  0  0  0  0  0  0  0  0  0
   17.6290   -6.2996  -12.8858 O   0  0  0  0  0  0  0  0  0  0  0  0
   21.0708   -6.9423  -10.9135 O   0  0  0  0  0  0  0  0  0  0  0  0
   13.8337   -6.7746   -9.7352 N   0  0  0  0  0  0  0  0  0  0  0  0
   14.8616   -7.5544   -9.1218 C   0  0  0  0  0  0  0  0  0  0  0  0
   14.7668   -7.7378   -7.8870 O   0  0  0  0  0  0  0  0  0  0  0  0
   15.9758   -8.1097   -9.9038 C   0  0  0  0  0  0  0  0  0  0  0  0
   16.9568   -7.0269  -10.3469 C   0  0  2  0  0  0  0  0  0  0  0  0
   17.9786   -7.6476  -11.1124 N   0  0  0  0  0  0  0  0  0  0  0  0
   17.3777   -6.1634   -9.2713 C   0  0  0  0  0  0  0  0  0  0  0  0
   18.4888   -6.2804   -8.7312 O   0  0  0  0  0  0  0  0  0  0  0  0
   16.5477   -5.1713   -8.8065 O   0  0  0  0  0  0  0  0  0  0  0  0
  2  1  1  1
  2  5  1  0
  3  2  1  0
  4  3  1  0
  5  6  2  0
  7  8  1  0
  7  5  1  0
  8 12  1  0
  8  9  1  6
 10  9  1  0
 11 10  2  0
 12 20  1  0
 12 13  2  0
 14 10  1  0
 15 16  1  0
 16 17  2  0
 16 18  1  0
 19 18  1  1
 19 21  1  0
 20 19  1  0
 21 22  2  0
 21 23  1  0
M  END
$$$$
