CDN.pdb
     RDKit          3D

 23 22  0  0  1  0  0  0  0  0999 V2000
   25.9930  -12.3593  -17.7552 N   0  0  0  0  0  0  0  0  0  0  0  0
   25.8763  -11.1738  -16.9476 C   0  0  1  0  0  0  0  0  0  0  0  0
   27.2003  -10.5576  -16.6107 C   0  0  0  0  0  0  0  0  0  0  0  0
   28.1914  -11.6238  -15.5281 S   0  0  0  0  0  0  0  0  0  0  0  0
   25.0167  -10.1667  -17.6311 C   0  0  0  0  0  0  0  0  0  0  0  0
   25.2947   -9.8393  -18.8335 O   0  0  0  0  0  0  0  0  0  0  0  0
   23.9215   -9.5968  -16.9494 N   0  0  0  0  0  0  0  0  0  0  0  0
   23.0326   -8.6881  -17.6911 C   0  0  1  0  0  0  0  0  0  0  0  0
   21.9303   -9.5104  -18.3352 C   0  0  0  0  0  0  0  0  0  0  0  0
   20.9533   -8.7161  -19.0916 C   0  0  0  0  0  0  0  0  0  0  0  0
   19.7284   -9.0184  -19.0198 O   0  0  0  0  0  0  0  0  0  0  0  0
   22.5560   -7.7004  -16.7197 C   0  0  0  0  0  0  0  0  0  0  0  0
   22.2142   -8.0123  -15.5230 O   0  0  0  0  0  0  0  0  0  0  0  0
   21.3536   -7.6477  -19.8776 O   0  0  0  0  0  0  0  0  0  0  0  0
   22.4672   -3.3344  -13.5266 N   0  0  0  0  0  0  0  0  0  0  0  0
   22.4200   -3.1968  -14.9478 C   0  0  0  0  0  0  0  0  0  0  0  0
   21.9337   -2.1328  -15.3936 O   0  0  0  0  0  0  0  0  0  0  0  0
   22.9155   -4.2552  -15.8397 C   0  0  0  0  0  0  0  0  0  0  0  0
   21.8815   -5.3601  -16.0428 C   0  0  2  0  0  0  0  0  0  0  0  0
   22.4144   -6.2942  -16.9696 N   0  0  0  0  0  0  0  0  0  0  0  0
   20.5554   -4.8591  -16.3076 C   0  0  0  0  0  0  0  0  0  0  0  0
   20.1709   -4.5927  -17.4570 O   0  0  0  0  0  0  0  0  0  0  0  0
   19.6660   -4.6591  -15.2789 O   0  0  0  0  0  0  0  0  0  0  0  0
  2  1  1  6
  2  5  1  0
  3  2  1  0
  4  3  1  0
  5  6  2  0
  7  8  1  0
  7  5  1  0
  8 12  1  0
  8  9  1  1
 10  9  1  0
 11 10  2  0
 12 20  1  0
 12 13  2  0
 14 10  1  0
 15 16  1  0
 16 17  2  0
 16 18  1  0
 19 18  1  6
 19 21  1  0
 20 19  1  0
 21 22  2  0
 21 23  1  0
M  END
$$$$
