CDN.pdb
     RDKit          3D

 23 22  0  0  1  0  0  0  0  0999 V2000
   14.4788  -11.0955  -13.9020 N   0  0  0  0  0  0  0  0  0  0  0  0
   15.8236  -11.6047  -13.9610 C   0  0  1  0  0  0  0  0  0  0  0  0
   16.2880  -11.8819  -15.3587 C   0  0  0  0  0  0  0  0  0  0  0  0
   15.2583  -13.1271  -16.1835 S   0  0  0  0  0  0  0  0  0  0  0  0
   16.7640  -10.6551  -13.3019 C   0  0  0  0  0  0  0  0  0  0  0  0
   18.0165  -10.8968  -13.3560 O   0  0  0  0  0  0  0  0  0  0  0  0
   16.2639   -9.5166  -12.6363 N   0  0  0  0  0  0  0  0  0  0  0  0
   17.2228   -8.5033  -12.1680 C   0  0  1  0  0  0  0  0  0  0  0  0
   18.0053   -7.9901  -13.3640 C   0  0  0  0  0  0  0  0  0  0  0  0
   18.9839   -6.9446  -13.0368 C   0  0  0  0  0  0  0  0  0  0  0  0
   19.6340   -6.3972  -13.9720 O   0  0  0  0  0  0  0  0  0  0  0  0
   16.4315   -7.4783  -11.4829 C   0  0  0  0  0  0  0  0  0  0  0  0
   15.4821   -6.8345  -12.0578 O   0  0  0  0  0  0  0  0  0  0  0  0
   19.2028   -6.5535  -11.7258 O   0  0  0  0  0  0  0  0  0  0  0  0
   14.5141   -8.9065   -7.9265 N   0  0  0  0  0  0  0  0  0  0  0  0
   14.3175   -7.5371   -8.2831 C   0  0  0  0  0  0  0  0  0  0  0  0
   13.1889   -7.2289   -8.7287 O   0  0  0  0  0  0  0  0  0  0  0  0
   15.3901   -6.5425   -8.1362 C   0  0  0  0  0  0  0  0  0  0  0  0
   15.8793   -6.0276   -9.4877 C   0  0  2  0  0  0  0  0  0  0  0  0
   16.6063   -7.0717  -10.1177 N   0  0  0  0  0  0  0  0  0  0  0  0
   16.5208   -4.7384   -9.4090 C   0  0  0  0  0  0  0  0  0  0  0  0
   17.7131   -4.5780   -9.7134 O   0  0  0  0  0  0  0  0  0  0  0  0
   15.8193   -3.6338   -8.9882 O   0  0  0  0  0  0  0  0  0  0  0  0
  2  1  1  6
  2  5  1  0
  3  2  1  0
  4  3  1  0
  5  6  2  0
  7  8  1  0
  7  5  1  0
  8 12  1  0
  8  9  1  6
 10  9  1  0
 11 10  2  0
 12 20  1  0
 12 13  2  0
 14 10  1  0
 15 16  1  0
 16 17  2  0
 16 18  1  0
 19 18  1  1
 19 21  1  0
 20 19  1  0
 21 22  2  0
 21 23  1  0
M  END
$$$$
