CDN.pdb
     RDKit          3D

 23 22  0  0  1  0  0  0  0  0999 V2000
   12.5905  -10.8644  -10.2741 N   0  0  0  0  0  0  0  0  0  0  0  0
   13.4711   -9.7264  -10.3031 C   0  0  1  0  0  0  0  0  0  0  0  0
   14.0174   -9.3695   -8.9540 C   0  0  0  0  0  0  0  0  0  0  0  0
   12.6996   -9.0429   -7.7508 S   0  0  0  0  0  0  0  0  0  0  0  0
   14.5967   -9.9694  -11.2489 C   0  0  0  0  0  0  0  0  0  0  0  0
   14.8004  -11.1588  -11.6660 O   0  0  0  0  0  0  0  0  0  0  0  0
   15.4108   -8.8956  -11.6655 N   0  0  0  0  0  0  0  0  0  0  0  0
   16.4004   -9.1397  -12.7270 C   0  0  1  0  0  0  0  0  0  0  0  0
   15.6635   -9.5610  -13.9862 C   0  0  0  0  0  0  0  0  0  0  0  0
   16.5376   -9.7929  -15.1437 C   0  0  0  0  0  0  0  0  0  0  0  0
   16.0166   -9.9717  -16.2810 O   0  0  0  0  0  0  0  0  0  0  0  0
   17.1652   -7.8979  -12.8654 C   0  0  0  0  0  0  0  0  0  0  0  0
   16.6078   -6.7468  -12.9680 O   0  0  0  0  0  0  0  0  0  0  0  0
   17.9161   -9.8188  -15.0064 O   0  0  0  0  0  0  0  0  0  0  0  0
   21.0242   -4.3880  -13.1924 N   0  0  0  0  0  0  0  0  0  0  0  0
   21.6053   -5.6548  -12.8786 C   0  0  0  0  0  0  0  0  0  0  0  0
   22.8448   -5.6768  -12.7042 O   0  0  0  0  0  0  0  0  0  0  0  0
   20.7863   -6.8708  -12.7699 C   0  0  0  0  0  0  0  0  0  0  0  0
   19.3233   -6.6058  -13.1171 C   0  0  2  0  0  0  0  0  0  0  0  0
   18.5971   -7.8064  -12.9012 N   0  0  0  0  0  0  0  0  0  0  0  0
   19.1481   -5.9551  -14.3922 C   0  0  0  0  0  0  0  0  0  0  0  0
   18.8864   -4.7454  -14.4821 O   0  0  0  0  0  0  0  0  0  0  0  0
   19.2678   -6.6670  -15.5619 O   0  0  0  0  0  0  0  0  0  0  0  0
  2  1  1  1
  2  5  1  0
  3  2  1  0
  4  3  1  0
  5  6  2  0
  7  8  1  0
  7  5  1  0
  8 12  1  0
  8  9  1  6
 10  9  1  0
 11 10  2  0
 12 20  1  0
 12 13  2  0
 14 10  1  0
 15 16  1  0
 16 17  2  0
 16 18  1  0
 19 18  1  6
 19 21  1  0
 20 19  1  0
 21 22  2  0
 21 23  1  0
M  END
$$$$
