CDN.pdb
     RDKit          3D

 23 22  0  0  1  0  0  0  0  0999 V2000
   18.9723  -10.8309  -15.8267 N   0  0  0  0  0  0  0  0  0  0  0  0
   18.3950   -9.5324  -15.5987 C   0  0  1  0  0  0  0  0  0  0  0  0
   16.8968   -9.5396  -15.6316 C   0  0  0  0  0  0  0  0  0  0  0  0
   16.2519   -9.3416  -17.3156 S   0  0  0  0  0  0  0  0  0  0  0  0
   18.8630   -8.9816  -14.2957 C   0  0  0  0  0  0  0  0  0  0  0  0
   19.0693   -9.7887  -13.3282 O   0  0  0  0  0  0  0  0  0  0  0  0
   19.0695   -7.5939  -14.1510 N   0  0  0  0  0  0  0  0  0  0  0  0
   19.4150   -7.0738  -12.8184 C   0  0  1  0  0  0  0  0  0  0  0  0
   20.3887   -5.9208  -12.9878 C   0  0  0  0  0  0  0  0  0  0  0  0
   21.7235   -6.3255  -13.4483 C   0  0  0  0  0  0  0  0  0  0  0  0
   22.2515   -7.3660  -12.9631 O   0  0  0  0  0  0  0  0  0  0  0  0
   18.1478   -6.7020  -12.1842 C   0  0  0  0  0  0  0  0  0  0  0  0
   17.0856   -6.4421  -12.8551 O   0  0  0  0  0  0  0  0  0  0  0  0
   22.4071   -5.5867  -14.4005 O   0  0  0  0  0  0  0  0  0  0  0  0
   14.1580   -6.0053   -9.0028 N   0  0  0  0  0  0  0  0  0  0  0  0
   14.3420   -7.0208   -9.9908 C   0  0  0  0  0  0  0  0  0  0  0  0
   13.3272   -7.6767  -10.3182 O   0  0  0  0  0  0  0  0  0  0  0  0
   15.6592   -7.2823  -10.5888 C   0  0  0  0  0  0  0  0  0  0  0  0
   16.6930   -6.2401  -10.1692 C   0  0  2  0  0  0  0  0  0  0  0  0
   17.9321   -6.5849  -10.7701 N   0  0  0  0  0  0  0  0  0  0  0  0
   16.7025   -5.9849   -8.7498 C   0  0  0  0  0  0  0  0  0  0  0  0
   15.7203   -5.5058   -8.1617 O   0  0  0  0  0  0  0  0  0  0  0  0
   17.8165   -6.2691   -7.9964 O   0  0  0  0  0  0  0  0  0  0  0  0
  2  1  1  1
  2  5  1  0
  3  2  1  0
  4  3  1  0
  5  6  2  0
  7  8  1  0
  7  5  1  0
  8 12  1  0
  8  9  1  6
 10  9  1  0
 11 10  2  0
 12 20  1  0
 12 13  2  0
 14 10  1  0
 15 16  1  0
 16 17  2  0
 16 18  1  0
 19 18  1  1
 19 21  1  0
 20 19  1  0
 21 22  2  0
 21 23  1  0
M  END
$$$$
