CDN.pdb
     RDKit          3D

 23 22  0  0  1  0  0  0  0  0999 V2000
   15.4748  -11.6967  -11.3893 N   0  0  0  0  0  0  0  0  0  0  0  0
   16.5195  -10.7582  -11.0745 C   0  0  1  0  0  0  0  0  0  0  0  0
   17.6586  -10.7962  -12.0477 C   0  0  0  0  0  0  0  0  0  0  0  0
   18.6008  -12.3421  -11.9327 S   0  0  0  0  0  0  0  0  0  0  0  0
   15.9674   -9.3759  -11.0062 C   0  0  0  0  0  0  0  0  0  0  0  0
   15.1161   -9.0121  -11.8855 O   0  0  0  0  0  0  0  0  0  0  0  0
   16.3871   -8.4996   -9.9838 N   0  0  0  0  0  0  0  0  0  0  0  0
   15.8425   -7.1326   -9.9677 C   0  0  1  0  0  0  0  0  0  0  0  0
   15.9670   -6.5799   -8.5587 C   0  0  0  0  0  0  0  0  0  0  0  0
   14.9019   -7.0172   -7.6465 C   0  0  0  0  0  0  0  0  0  0  0  0
   13.8480   -7.5205   -8.1290 O   0  0  0  0  0  0  0  0  0  0  0  0
   16.5944   -6.3817  -10.9762 C   0  0  0  0  0  0  0  0  0  0  0  0
   17.8709   -6.4514  -11.0850 O   0  0  0  0  0  0  0  0  0  0  0  0
   15.0358   -6.8856   -6.2738 O   0  0  0  0  0  0  0  0  0  0  0  0
   17.0971   -4.9057  -16.6689 N   0  0  0  0  0  0  0  0  0  0  0  0
   17.4705   -4.8595  -15.2907 C   0  0  0  0  0  0  0  0  0  0  0  0
   18.5334   -4.2575  -15.0162 O   0  0  0  0  0  0  0  0  0  0  0  0
   16.6474   -5.4914  -14.2493 C   0  0  0  0  0  0  0  0  0  0  0  0
   16.7633   -4.7644  -12.9117 C   0  0  2  0  0  0  0  0  0  0  0  0
   16.0199   -5.4965  -11.9490 N   0  0  0  0  0  0  0  0  0  0  0  0
   16.4982   -3.3500  -13.0060 C   0  0  0  0  0  0  0  0  0  0  0  0
   15.4051   -2.8629  -12.6776 O   0  0  0  0  0  0  0  0  0  0  0  0
   17.4633   -2.4880  -13.4695 O   0  0  0  0  0  0  0  0  0  0  0  0
  2  1  1  6
  2  5  1  0
  3  2  1  0
  4  3  1  0
  5  6  2  0
  7  8  1  0
  7  5  1  0
  8 12  1  0
  8  9  1  1
 10  9  1  0
 11 10  2  0
 12 20  1  0
 12 13  2  0
 14 10  1  0
 15 16  1  0
 16 17  2  0
 16 18  1  0
 19 18  1  6
 19 21  1  0
 20 19  1  0
 21 22  2  0
 21 23  1  0
M  END
$$$$
