TDA.pdb
     RDKit          3D

 21 20  0  0  1  0  0  0  0  0999 V2000
    8.6718  -12.4017   20.5519 C   0  0  0  0  0  0  0  0  0  0  0  0
    7.7552  -13.1348   19.5925 C   0  0  1  0  0  0  0  0  0  0  0  0
    8.1044  -12.7047   18.3023 O   0  0  0  0  0  0  0  0  0  0  0  0
    8.0320  -14.5965   19.7221 C   0  0  2  0  0  0  0  0  0  0  0  0
    7.2035  -15.2945   18.7752 N   0  0  0  0  0  0  0  0  0  0  0  0
    7.8406  -15.1469   21.0680 C   0  0  0  0  0  0  0  0  0  0  0  0
    6.6603  -15.3795   21.4183 O   0  0  0  0  0  0  0  0  0  0  0  0
    8.8673  -15.4317   21.9880 N   0  0  0  0  0  0  0  0  0  0  0  0
    8.7199  -15.9411   23.3030 C   0  0  1  0  0  0  0  0  0  0  0  0
    9.5249  -17.1296   23.6706 C   0  0  0  0  0  0  0  0  0  0  0  0
    9.3544  -17.5243   25.0922 C   0  0  0  0  0  0  0  0  0  0  0  0
    8.2145  -17.7774   25.5590 O   0  0  0  0  0  0  0  0  0  0  0  0
    8.8630  -14.8413   24.3249 C   0  0  0  0  0  0  0  0  0  0  0  0
    9.9736  -14.2916   24.5427 O   0  0  0  0  0  0  0  0  0  0  0  0
   10.4196  -17.6350   25.9719 O   0  0  0  0  0  0  0  0  0  0  0  0
    6.6205  -12.6583   26.4084 C   0  0  0  0  0  0  0  0  0  0  0  0
    7.9264  -13.3663   26.0902 C   0  0  2  0  0  0  0  0  0  0  0  0
    7.7575  -14.3767   25.0853 N   0  0  0  0  0  0  0  0  0  0  0  0
    8.4173  -13.9592   27.3623 C   0  0  0  0  0  0  0  0  0  0  0  0
    8.6425  -15.3006   27.5308 O   0  0  0  0  0  0  0  0  0  0  0  0
    8.6396  -13.1774   28.3462 O   0  0  0  0  0  0  0  0  0  0  0  0
  2  1  1  1
  2  4  1  0
  2  3  1  0
  4  5  1  6
  6  4  1  0
  7  6  2  0
  8  6  1  0
  9 13  1  0
  9  8  1  0
  9 10  1  1
 11 15  1  0
 11 10  1  0
 12 11  2  0
 13 18  1  0
 14 13  2  0
 17 16  1  1
 17 19  1  0
 18 17  1  0
 19 21  2  0
 19 20  1  0
M  END
$$$$
