TDA.pdb
     RDKit          3D

 21 20  0  0  1  0  0  0  0  0999 V2000
    4.2015  -18.4398   20.4263 C   0  0  0  0  0  0  0  0  0  0  0  0
    2.8499  -19.1091   20.5785 C   0  0  1  0  0  0  0  0  0  0  0  0
    2.3167  -19.2269   19.2849 O   0  0  0  0  0  0  0  0  0  0  0  0
    3.0752  -20.4701   21.1502 C   0  0  2  0  0  0  0  0  0  0  0  0
    1.8006  -21.1306   21.2489 N   0  0  0  0  0  0  0  0  0  0  0  0
    3.7613  -20.4926   22.4463 C   0  0  0  0  0  0  0  0  0  0  0  0
    3.1712  -19.9424   23.4050 O   0  0  0  0  0  0  0  0  0  0  0  0
    5.0171  -21.0773   22.6960 N   0  0  0  0  0  0  0  0  0  0  0  0
    5.7248  -21.0911   23.9247 C   0  0  1  0  0  0  0  0  0  0  0  0
    6.4631  -22.3271   24.2751 C   0  0  0  0  0  0  0  0  0  0  0  0
    7.1343  -22.2424   25.5973 C   0  0  0  0  0  0  0  0  0  0  0  0
    8.3652  -21.9993   25.6815 O   0  0  0  0  0  0  0  0  0  0  0  0
    6.6008  -19.8705   24.0544 C   0  0  0  0  0  0  0  0  0  0  0  0
    7.4994  -19.6179   23.2108 O   0  0  0  0  0  0  0  0  0  0  0  0
    6.4580  -22.4226   26.7936 O   0  0  0  0  0  0  0  0  0  0  0  0
    6.5605  -16.5990   25.7924 C   0  0  0  0  0  0  0  0  0  0  0  0
    7.3032  -17.8019   25.2364 C   0  0  2  0  0  0  0  0  0  0  0  0
    6.4539  -18.9536   25.1287 N   0  0  0  0  0  0  0  0  0  0  0  0
    8.4436  -18.0668   26.1530 C   0  0  0  0  0  0  0  0  0  0  0  0
    8.6089  -19.2481   26.8281 O   0  0  0  0  0  0  0  0  0  0  0  0
    9.3116  -17.1459   26.3180 O   0  0  0  0  0  0  0  0  0  0  0  0
  2  1  1  6
  2  4  1  0
  2  3  1  0
  4  5  1  1
  6  4  1  0
  7  6  2  0
  8  6  1  0
  9 13  1  0
  9  8  1  0
  9 10  1  6
 11 15  1  0
 11 10  1  0
 12 11  2  0
 13 18  1  0
 14 13  2  0
 17 16  1  1
 17 19  1  0
 18 17  1  0
 19 21  2  0
 19 20  1  0
M  END
$$$$
