TDA.pdb
     RDKit          3D

 21 20  0  0  1  0  0  0  0  0999 V2000
    8.0502  -13.5691   22.7020 C   0  0  0  0  0  0  0  0  0  0  0  0
    7.0035  -14.6582   22.8293 C   0  0  1  0  0  0  0  0  0  0  0  0
    6.0038  -14.3607   21.8893 O   0  0  0  0  0  0  0  0  0  0  0  0
    7.6495  -15.9571   22.4751 C   0  0  2  0  0  0  0  0  0  0  0  0
    6.6327  -16.9752   22.4678 N   0  0  0  0  0  0  0  0  0  0  0  0
    8.7610  -16.3547   23.3455 C   0  0  0  0  0  0  0  0  0  0  0  0
    8.5169  -17.2345   24.2037 O   0  0  0  0  0  0  0  0  0  0  0  0
   10.0668  -15.8317   23.2938 N   0  0  0  0  0  0  0  0  0  0  0  0
   11.1927  -16.2681   24.0370 C   0  0  1  0  0  0  0  0  0  0  0  0
   12.5251  -16.1346   23.4024 C   0  0  0  0  0  0  0  0  0  0  0  0
   13.6184  -16.7010   24.2328 C   0  0  0  0  0  0  0  0  0  0  0  0
   13.4884  -17.8178   24.7959 O   0  0  0  0  0  0  0  0  0  0  0  0
   11.1821  -15.6786   25.4251 C   0  0  0  0  0  0  0  0  0  0  0  0
   12.0700  -15.9718   26.2668 O   0  0  0  0  0  0  0  0  0  0  0  0
   14.8234  -16.0460   24.4328 O   0  0  0  0  0  0  0  0  0  0  0  0
    9.0608  -13.2240   27.3830 C   0  0  0  0  0  0  0  0  0  0  0  0
   10.1632  -14.2498   27.1828 C   0  0  2  0  0  0  0  0  0  0  0  0
   10.1752  -14.7698   25.8454 N   0  0  0  0  0  0  0  0  0  0  0  0
    9.9284  -15.3346   28.1723 C   0  0  0  0  0  0  0  0  0  0  0  0
    9.6441  -16.6280   27.8191 O   0  0  0  0  0  0  0  0  0  0  0  0
    9.9956  -15.0443   29.4133 O   0  0  0  0  0  0  0  0  0  0  0  0
  2  1  1  6
  2  4  1  0
  2  3  1  0
  4  5  1  1
  6  4  1  0
  7  6  2  0
  8  6  1  0
  9 13  1  0
  9  8  1  0
  9 10  1  6
 11 15  1  0
 11 10  1  0
 12 11  2  0
 13 18  1  0
 14 13  2  0
 17 16  1  6
 17 19  1  0
 18 17  1  0
 19 21  2  0
 19 20  1  0
M  END
$$$$
