TDA.pdb
     RDKit          3D

 21 20  0  0  1  0  0  0  0  0999 V2000
    7.7506  -12.2357   19.1406 C   0  0  0  0  0  0  0  0  0  0  0  0
    8.4811  -13.1654   20.0893 C   0  0  1  0  0  0  0  0  0  0  0  0
    7.9451  -12.9321   21.3659 O   0  0  0  0  0  0  0  0  0  0  0  0
    8.1846  -14.5686   19.6734 C   0  0  2  0  0  0  0  0  0  0  0  0
    6.7584  -14.7036   19.5390 N   0  0  0  0  0  0  0  0  0  0  0  0
    8.7114  -15.6049   20.5678 C   0  0  0  0  0  0  0  0  0  0  0  0
    7.8917  -16.1475   21.3449 O   0  0  0  0  0  0  0  0  0  0  0  0
   10.0510  -16.0338   20.6217 N   0  0  0  0  0  0  0  0  0  0  0  0
   10.6196  -16.9477   21.5448 C   0  0  1  0  0  0  0  0  0  0  0  0
   11.9217  -17.5587   21.1888 C   0  0  0  0  0  0  0  0  0  0  0  0
   11.7888  -18.9541   20.6980 C   0  0  0  0  0  0  0  0  0  0  0  0
   11.1319  -19.8068   21.3482 O   0  0  0  0  0  0  0  0  0  0  0  0
   10.6477  -16.3614   22.9340 C   0  0  0  0  0  0  0  0  0  0  0  0
   11.3814  -15.3785   23.2141 O   0  0  0  0  0  0  0  0  0  0  0  0
   12.3689  -19.3916   19.5177 O   0  0  0  0  0  0  0  0  0  0  0  0
    8.4828  -15.6946   25.6281 C   0  0  0  0  0  0  0  0  0  0  0  0
    9.8440  -16.2738   25.2825 C   0  0  2  0  0  0  0  0  0  0  0  0
    9.8518  -16.8878   23.9856 N   0  0  0  0  0  0  0  0  0  0  0  0
   10.1731  -17.2647   26.3412 C   0  0  0  0  0  0  0  0  0  0  0  0
   10.3442  -16.9301   27.6593 O   0  0  0  0  0  0  0  0  0  0  0  0
   10.3024  -18.4885   26.0031 O   0  0  0  0  0  0  0  0  0  0  0  0
  2  1  1  6
  2  4  1  0
  2  3  1  0
  4  5  1  1
  6  4  1  0
  7  6  2  0
  8  6  1  0
  9 13  1  0
  9  8  1  0
  9 10  1  6
 11 15  1  0
 11 10  1  0
 12 11  2  0
 13 18  1  0
 14 13  2  0
 17 16  1  1
 17 19  1  0
 18 17  1  0
 19 21  2  0
 19 20  1  0
M  END
$$$$
