TDA.pdb
     RDKit          3D

 21 20  0  0  1  0  0  0  0  0999 V2000
    9.2213  -13.8726   18.6434 C   0  0  0  0  0  0  0  0  0  0  0  0
    8.9699  -14.2967   20.0769 C   0  0  1  0  0  0  0  0  0  0  0  0
    9.4686  -13.2661   20.8897 O   0  0  0  0  0  0  0  0  0  0  0  0
    7.4933  -14.4113   20.2679 C   0  0  2  0  0  0  0  0  0  0  0  0
    6.8911  -13.1716   19.8545 N   0  0  0  0  0  0  0  0  0  0  0  0
    7.0688  -14.7537   21.6294 C   0  0  0  0  0  0  0  0  0  0  0  0
    6.3694  -13.9058   22.2309 O   0  0  0  0  0  0  0  0  0  0  0  0
    7.3817  -15.9472   22.3070 N   0  0  0  0  0  0  0  0  0  0  0  0
    7.1446  -16.2420   23.6736 C   0  0  1  0  0  0  0  0  0  0  0  0
    7.2528  -17.6578   24.0970 C   0  0  0  0  0  0  0  0  0  0  0  0
    7.0911  -17.8352   25.5626 C   0  0  0  0  0  0  0  0  0  0  0  0
    6.1064  -17.3395   26.1676 O   0  0  0  0  0  0  0  0  0  0  0  0
    7.9540  -15.3362   24.5673 C   0  0  0  0  0  0  0  0  0  0  0  0
    9.2083  -15.2855   24.4831 O   0  0  0  0  0  0  0  0  0  0  0  0
    7.9974  -18.5433   26.3360 O   0  0  0  0  0  0  0  0  0  0  0  0
    7.2799  -12.5144   26.9686 C   0  0  0  0  0  0  0  0  0  0  0  0
    8.1273  -13.6102   26.3449 C   0  0  2  0  0  0  0  0  0  0  0  0
    7.3424  -14.5024   25.5405 N   0  0  0  0  0  0  0  0  0  0  0  0
    8.7813  -14.3397   27.4634 C   0  0  0  0  0  0  0  0  0  0  0  0
    9.6550  -13.7495   28.3390 O   0  0  0  0  0  0  0  0  0  0  0  0
    8.5141  -15.5785   27.6138 O   0  0  0  0  0  0  0  0  0  0  0  0
  2  1  1  6
  2  4  1  0
  2  3  1  0
  4  5  1  1
  6  4  1  0
  7  6  2  0
  8  6  1  0
  9 13  1  0
  9  8  1  0
  9 10  1  6
 11 15  1  0
 11 10  1  0
 12 11  2  0
 13 18  1  0
 14 13  2  0
 17 16  1  1
 17 19  1  0
 18 17  1  0
 19 21  2  0
 19 20  1  0
M  END
$$$$
