TDA.pdb
     RDKit          3D

 21 20  0  0  1  0  0  0  0  0999 V2000
    8.0212  -12.8883   19.3980 C   0  0  0  0  0  0  0  0  0  0  0  0
    8.5267  -13.4419   20.7156 C   0  0  1  0  0  0  0  0  0  0  0  0
    8.1162  -12.5393   21.7097 O   0  0  0  0  0  0  0  0  0  0  0  0
    7.8679  -14.7631   20.9396 C   0  0  2  0  0  0  0  0  0  0  0  0
    6.4474  -14.5850   20.7955 N   0  0  0  0  0  0  0  0  0  0  0  0
    8.1728  -15.3979   22.2262 C   0  0  0  0  0  0  0  0  0  0  0  0
    7.2992  -15.3067   23.1198 O   0  0  0  0  0  0  0  0  0  0  0  0
    9.3569  -16.0943   22.5335 N   0  0  0  0  0  0  0  0  0  0  0  0
    9.7020  -16.6886   23.7738 C   0  0  1  0  0  0  0  0  0  0  0  0
   10.7461  -17.7398   23.7618 C   0  0  0  0  0  0  0  0  0  0  0  0
   10.9652  -18.3500   25.0980 C   0  0  0  0  0  0  0  0  0  0  0  0
   12.0550  -18.1965   25.7065 O   0  0  0  0  0  0  0  0  0  0  0  0
    9.9931  -15.6346   24.8125 C   0  0  0  0  0  0  0  0  0  0  0  0
   11.0572  -14.9640   24.7830 O   0  0  0  0  0  0  0  0  0  0  0  0
   10.0013  -19.1099   25.7417 O   0  0  0  0  0  0  0  0  0  0  0  0
    8.2005  -13.4950   27.1968 C   0  0  0  0  0  0  0  0  0  0  0  0
    9.3983  -14.3684   26.8648 C   0  0  2  0  0  0  0  0  0  0  0  0
    9.0852  -15.3508   25.8668 N   0  0  0  0  0  0  0  0  0  0  0  0
    9.8247  -15.0169   28.1331 C   0  0  0  0  0  0  0  0  0  0  0  0
   10.2805  -14.3181   29.2204 O   0  0  0  0  0  0  0  0  0  0  0  0
    9.7623  -16.2892   28.2109 O   0  0  0  0  0  0  0  0  0  0  0  0
  2  1  1  6
  2  4  1  0
  2  3  1  0
  4  5  1  1
  6  4  1  0
  7  6  2  0
  8  6  1  0
  9 13  1  0
  9  8  1  0
  9 10  1  6
 11 15  1  0
 11 10  1  0
 12 11  2  0
 13 18  1  0
 14 13  2  0
 17 16  1  1
 17 19  1  0
 18 17  1  0
 19 21  2  0
 19 20  1  0
M  END
$$$$
