TDA.pdb
     RDKit          3D

 21 20  0  0  1  0  0  0  0  0999 V2000
    7.2172  -12.7587   18.7313 C   0  0  0  0  0  0  0  0  0  0  0  0
    8.4638  -13.3572   19.3524 C   0  0  1  0  0  0  0  0  0  0  0  0
    8.0246  -14.2764   20.3186 O   0  0  0  0  0  0  0  0  0  0  0  0
    9.2078  -14.0806   18.2786 C   0  0  2  0  0  0  0  0  0  0  0  0
    8.2713  -14.9070   17.5641 N   0  0  0  0  0  0  0  0  0  0  0  0
   10.3430  -14.8842   18.7441 C   0  0  0  0  0  0  0  0  0  0  0  0
   10.1858  -16.1273   18.7547 O   0  0  0  0  0  0  0  0  0  0  0  0
   11.5823  -14.3749   19.1755 N   0  0  0  0  0  0  0  0  0  0  0  0
   12.6188  -15.0880   19.8295 C   0  0  1  0  0  0  0  0  0  0  0  0
   13.9964  -14.5555   19.7102 C   0  0  0  0  0  0  0  0  0  0  0  0
   14.5584  -14.7112   18.3443 C   0  0  0  0  0  0  0  0  0  0  0  0
   15.1066  -13.7431   17.7581 O   0  0  0  0  0  0  0  0  0  0  0  0
   12.2574  -15.3638   21.2674 C   0  0  0  0  0  0  0  0  0  0  0  0
   13.0399  -15.9870   22.0304 O   0  0  0  0  0  0  0  0  0  0  0  0
   14.5133  -15.9085   17.6477 O   0  0  0  0  0  0  0  0  0  0  0  0
    9.3987  -14.5835   23.6228 C   0  0  0  0  0  0  0  0  0  0  0  0
   10.6442  -15.3170   23.1555 C   0  0  2  0  0  0  0  0  0  0  0  0
   11.0237  -14.9356   21.8252 N   0  0  0  0  0  0  0  0  0  0  0  0
   10.3407  -16.7710   23.2250 C   0  0  0  0  0  0  0  0  0  0  0  0
   10.1325  -17.4418   24.4018 O   0  0  0  0  0  0  0  0  0  0  0  0
   10.2709  -17.4257   22.1317 O   0  0  0  0  0  0  0  0  0  0  0  0
  2  1  1  6
  2  4  1  0
  2  3  1  0
  4  5  1  1
  6  4  1  0
  7  6  2  0
  8  6  1  0
  9 13  1  0
  9  8  1  0
  9 10  1  1
 11 15  1  0
 11 10  1  0
 12 11  2  0
 13 18  1  0
 14 13  2  0
 17 16  1  6
 17 19  1  0
 18 17  1  0
 19 21  2  0
 19 20  1  0
M  END
$$$$
