TDA.pdb
     RDKit          3D

 21 20  0  0  1  0  0  0  0  0999 V2000
    7.7142  -18.5383   18.6970 C   0  0  0  0  0  0  0  0  0  0  0  0
    8.1486  -19.7388   19.5143 C   0  0  1  0  0  0  0  0  0  0  0  0
    9.1447  -20.3885   18.7680 O   0  0  0  0  0  0  0  0  0  0  0  0
    8.7332  -19.2346   20.7926 C   0  0  2  0  0  0  0  0  0  0  0  0
    9.9607  -19.9454   21.0343 N   0  0  0  0  0  0  0  0  0  0  0  0
    7.8503  -19.3330   21.9597 C   0  0  0  0  0  0  0  0  0  0  0  0
    7.2804  -18.2785   22.3247 O   0  0  0  0  0  0  0  0  0  0  0  0
    7.5951  -20.5062   22.6945 N   0  0  0  0  0  0  0  0  0  0  0  0
    6.6806  -20.6613   23.7670 C   0  0  1  0  0  0  0  0  0  0  0  0
    5.9492  -21.9465   23.8621 C   0  0  0  0  0  0  0  0  0  0  0  0
    5.1465  -22.0623   25.1063 C   0  0  0  0  0  0  0  0  0  0  0  0
    4.2766  -21.2014   25.3952 O   0  0  0  0  0  0  0  0  0  0  0  0
    7.3252  -20.2958   25.0805 C   0  0  0  0  0  0  0  0  0  0  0  0
    7.9725  -21.1425   25.7492 O   0  0  0  0  0  0  0  0  0  0  0  0
    5.3048  -23.1050   26.0055 O   0  0  0  0  0  0  0  0  0  0  0  0
    7.2014  -19.6250   27.9853 C   0  0  0  0  0  0  0  0  0  0  0  0
    7.7548  -18.6886   26.9248 C   0  0  2  0  0  0  0  0  0  0  0  0
    7.2329  -18.9863   25.6217 N   0  0  0  0  0  0  0  0  0  0  0  0
    9.2344  -18.8336   26.9502 C   0  0  0  0  0  0  0  0  0  0  0  0
    9.9968  -18.5848   28.0616 O   0  0  0  0  0  0  0  0  0  0  0  0
    9.8223  -19.2089   25.8814 O   0  0  0  0  0  0  0  0  0  0  0  0
  2  1  1  6
  2  4  1  0
  2  3  1  0
  4  5  1  1
  6  4  1  0
  7  6  2  0
  8  6  1  0
  9 13  1  0
  9  8  1  0
  9 10  1  1
 11 15  1  0
 11 10  1  0
 12 11  2  0
 13 18  1  0
 14 13  2  0
 17 16  1  1
 17 19  1  0
 18 17  1  0
 19 21  2  0
 19 20  1  0
M  END
$$$$
