TDA.pdb
     RDKit          3D

 21 20  0  0  1  0  0  0  0  0999 V2000
    7.7560  -12.7841   19.4838 C   0  0  0  0  0  0  0  0  0  0  0  0
    8.3904  -13.3216   20.7513 C   0  0  1  0  0  0  0  0  0  0  0  0
    7.9369  -12.5054   21.7998 O   0  0  0  0  0  0  0  0  0  0  0  0
    7.8950  -14.7155   20.9552 C   0  0  2  0  0  0  0  0  0  0  0  0
    6.4585  -14.6962   20.8745 N   0  0  0  0  0  0  0  0  0  0  0  0
    8.3256  -15.3500   22.2055 C   0  0  0  0  0  0  0  0  0  0  0  0
    7.4765  -15.4163   23.1245 O   0  0  0  0  0  0  0  0  0  0  0  0
    9.6041  -15.8848   22.4523 N   0  0  0  0  0  0  0  0  0  0  0  0
   10.0611  -16.4899   23.6505 C   0  0  1  0  0  0  0  0  0  0  0  0
   11.1946  -17.4387   23.5487 C   0  0  0  0  0  0  0  0  0  0  0  0
   10.9579  -18.5149   22.5529 C   0  0  0  0  0  0  0  0  0  0  0  0
   11.8641  -18.8659   21.7549 O   0  0  0  0  0  0  0  0  0  0  0  0
   10.3050  -15.4525   24.7176 C   0  0  0  0  0  0  0  0  0  0  0  0
   11.1955  -14.5739   24.5839 O   0  0  0  0  0  0  0  0  0  0  0  0
    9.7486  -19.1834   22.4455 O   0  0  0  0  0  0  0  0  0  0  0  0
    8.7217  -13.5354   27.2478 C   0  0  0  0  0  0  0  0  0  0  0  0
    9.8662  -14.4939   26.9665 C   0  0  2  0  0  0  0  0  0  0  0  0
    9.5455  -15.4184   25.9169 N   0  0  0  0  0  0  0  0  0  0  0  0
   10.1510  -15.2113   28.2375 C   0  0  0  0  0  0  0  0  0  0  0  0
   10.5839  -14.5835   29.3762 O   0  0  0  0  0  0  0  0  0  0  0  0
    9.9830  -16.4761   28.2672 O   0  0  0  0  0  0  0  0  0  0  0  0
  2  1  1  6
  2  4  1  0
  2  3  1  0
  4  5  1  1
  6  4  1  0
  7  6  2  0
  8  6  1  0
  9 13  1  0
  9  8  1  0
  9 10  1  6
 11 15  1  0
 11 10  1  0
 12 11  2  0
 13 18  1  0
 14 13  2  0
 17 16  1  1
 17 19  1  0
 18 17  1  0
 19 21  2  0
 19 20  1  0
M  END
$$$$
