TDA.pdb
     RDKit          3D

 21 20  0  0  1  0  0  0  0  0999 V2000
    8.0598  -12.6854   19.6106 C   0  0  0  0  0  0  0  0  0  0  0  0
    8.1600  -13.2951   20.9949 C   0  0  1  0  0  0  0  0  0  0  0  0
    6.8445  -13.4251   21.4682 O   0  0  0  0  0  0  0  0  0  0  0  0
    8.7751  -14.6486   20.8552 C   0  0  2  0  0  0  0  0  0  0  0  0
    8.0133  -15.3883   19.8843 N   0  0  0  0  0  0  0  0  0  0  0  0
    8.8857  -15.4113   22.1031 C   0  0  0  0  0  0  0  0  0  0  0  0
    7.8134  -15.6967   22.6852 O   0  0  0  0  0  0  0  0  0  0  0  0
   10.0886  -15.8437   22.6926 N   0  0  0  0  0  0  0  0  0  0  0  0
   10.2426  -16.4930   23.9438 C   0  0  1  0  0  0  0  0  0  0  0  0
   11.1562  -17.6581   24.0022 C   0  0  0  0  0  0  0  0  0  0  0  0
   10.8352  -18.6938   22.9873 C   0  0  0  0  0  0  0  0  0  0  0  0
   11.4380  -18.7247   21.8841 O   0  0  0  0  0  0  0  0  0  0  0  0
   10.5508  -15.4960   25.0325 C   0  0  0  0  0  0  0  0  0  0  0  0
   11.6164  -14.8271   25.0240 O   0  0  0  0  0  0  0  0  0  0  0  0
    9.8715  -19.6689   23.1910 O   0  0  0  0  0  0  0  0  0  0  0  0
    8.8834  -13.4393   27.5471 C   0  0  0  0  0  0  0  0  0  0  0  0
   10.0149  -14.3879   27.1898 C   0  0  2  0  0  0  0  0  0  0  0  0
    9.6582  -15.2663   26.1127 N   0  0  0  0  0  0  0  0  0  0  0  0
   10.3365  -15.1590   28.4198 C   0  0  0  0  0  0  0  0  0  0  0  0
   10.8642  -14.5899   29.5494 O   0  0  0  0  0  0  0  0  0  0  0  0
   10.1088  -16.4148   28.4215 O   0  0  0  0  0  0  0  0  0  0  0  0
  2  1  1  6
  2  4  1  0
  2  3  1  0
  4  5  1  6
  6  4  1  0
  7  6  2  0
  8  6  1  0
  9 13  1  0
  9  8  1  0
  9 10  1  6
 11 15  1  0
 11 10  1  0
 12 11  2  0
 13 18  1  0
 14 13  2  0
 17 16  1  1
 17 19  1  0
 18 17  1  0
 19 21  2  0
 19 20  1  0
M  END
$$$$
