TDA.pdb
     RDKit          3D

 21 20  0  0  1  0  0  0  0  0999 V2000
    6.9645  -13.5699   17.2517 C   0  0  0  0  0  0  0  0  0  0  0  0
    7.8271  -14.2467   18.2985 C   0  0  1  0  0  0  0  0  0  0  0  0
    9.0299  -14.5903   17.6609 O   0  0  0  0  0  0  0  0  0  0  0  0
    8.1020  -13.2518   19.3777 C   0  0  2  0  0  0  0  0  0  0  0  0
    8.6109  -12.0543   18.7633 N   0  0  0  0  0  0  0  0  0  0  0  0
    9.0164  -13.7126   20.4277 C   0  0  0  0  0  0  0  0  0  0  0  0
   10.1744  -13.2341   20.4154 O   0  0  0  0  0  0  0  0  0  0  0  0
    8.6995  -14.6402   21.4379 N   0  0  0  0  0  0  0  0  0  0  0  0
    9.5494  -15.0962   22.4773 C   0  0  1  0  0  0  0  0  0  0  0  0
    8.9079  -15.6656   23.6855 C   0  0  0  0  0  0  0  0  0  0  0  0
    9.8393  -15.7705   24.8376 C   0  0  0  0  0  0  0  0  0  0  0  0
   11.0598  -15.4975   24.7073 O   0  0  0  0  0  0  0  0  0  0  0  0
   10.6165  -16.0140   21.9357 C   0  0  0  0  0  0  0  0  0  0  0  0
   10.3345  -17.1619   21.5048 O   0  0  0  0  0  0  0  0  0  0  0  0
    9.4275  -16.1675   26.1001 O   0  0  0  0  0  0  0  0  0  0  0  0
   14.0857  -15.7168   20.6362 C   0  0  0  0  0  0  0  0  0  0  0  0
   12.9733  -16.4957   21.3170 C   0  0  2  0  0  0  0  0  0  0  0  0
   11.9822  -15.6282   21.8865 N   0  0  0  0  0  0  0  0  0  0  0  0
   13.6122  -17.3332   22.3665 C   0  0  0  0  0  0  0  0  0  0  0  0
   14.3023  -18.4857   22.0941 O   0  0  0  0  0  0  0  0  0  0  0  0
   13.5117  -16.9579   23.5821 O   0  0  0  0  0  0  0  0  0  0  0  0
  2  1  1  6
  2  4  1  0
  2  3  1  0
  4  5  1  6
  6  4  1  0
  7  6  2  0
  8  6  1  0
  9 13  1  0
  9  8  1  0
  9 10  1  1
 11 15  1  0
 11 10  1  0
 12 11  2  0
 13 18  1  0
 14 13  2  0
 17 16  1  1
 17 19  1  0
 18 17  1  0
 19 21  2  0
 19 20  1  0
M  END
$$$$
