TDA.pdb
     RDKit          3D

 21 20  0  0  1  0  0  0  0  0999 V2000
    7.5338  -12.3419   19.5813 C   0  0  0  0  0  0  0  0  0  0  0  0
    8.1502  -13.3030   20.5784 C   0  0  1  0  0  0  0  0  0  0  0  0
    7.1757  -13.5339   21.5626 O   0  0  0  0  0  0  0  0  0  0  0  0
    8.4459  -14.5790   19.8612 C   0  0  2  0  0  0  0  0  0  0  0  0
    7.2361  -15.0235   19.2215 N   0  0  0  0  0  0  0  0  0  0  0  0
    9.0000  -15.6474   20.6994 C   0  0  0  0  0  0  0  0  0  0  0  0
    8.1765  -16.3738   21.3028 O   0  0  0  0  0  0  0  0  0  0  0  0
   10.3697  -15.9186   20.8779 N   0  0  0  0  0  0  0  0  0  0  0  0
   10.9456  -16.8664   21.7614 C   0  0  1  0  0  0  0  0  0  0  0  0
   12.3551  -17.2562   21.5226 C   0  0  0  0  0  0  0  0  0  0  0  0
   12.5556  -17.9170   20.2078 C   0  0  0  0  0  0  0  0  0  0  0  0
   13.5816  -17.6846   19.5188 O   0  0  0  0  0  0  0  0  0  0  0  0
   10.7200  -16.4684   23.1984 C   0  0  0  0  0  0  0  0  0  0  0  0
   11.3550  -15.5159   23.7205 O   0  0  0  0  0  0  0  0  0  0  0  0
   11.6425  -18.8116   19.6719 O   0  0  0  0  0  0  0  0  0  0  0  0
    8.0716  -16.9056   25.7579 C   0  0  0  0  0  0  0  0  0  0  0  0
    9.5236  -16.6966   25.3631 C   0  0  2  0  0  0  0  0  0  0  0  0
    9.7854  -17.1457   24.0256 N   0  0  0  0  0  0  0  0  0  0  0  0
   10.3505  -17.4453   26.3462 C   0  0  0  0  0  0  0  0  0  0  0  0
   10.4292  -17.1120   27.6733 O   0  0  0  0  0  0  0  0  0  0  0  0
   11.0204  -18.4490   25.9310 O   0  0  0  0  0  0  0  0  0  0  0  0
  2  1  1  6
  2  4  1  0
  2  3  1  0
  4  5  1  1
  6  4  1  0
  7  6  2  0
  8  6  1  0
  9 13  1  0
  9  8  1  0
  9 10  1  6
 11 15  1  0
 11 10  1  0
 12 11  2  0
 13 18  1  0
 14 13  2  0
 17 16  1  1
 17 19  1  0
 18 17  1  0
 19 21  2  0
 19 20  1  0
M  END
$$$$
