TDA.pdb
     RDKit          3D

 21 20  0  0  1  0  0  0  0  0999 V2000
    7.1412  -14.0328   19.9638 C   0  0  0  0  0  0  0  0  0  0  0  0
    7.2127  -14.7727   21.2849 C   0  0  1  0  0  0  0  0  0  0  0  0
    6.8233  -16.0957   21.0211 O   0  0  0  0  0  0  0  0  0  0  0  0
    8.6336  -14.7537   21.7435 C   0  0  2  0  0  0  0  0  0  0  0  0
    9.4283  -15.4505   20.7672 N   0  0  0  0  0  0  0  0  0  0  0  0
    8.8617  -15.3152   23.0792 C   0  0  0  0  0  0  0  0  0  0  0  0
    8.1956  -14.8212   24.0186 O   0  0  0  0  0  0  0  0  0  0  0  0
    9.7603  -16.3542   23.3863 N   0  0  0  0  0  0  0  0  0  0  0  0
    9.9522  -16.9740   24.6471 C   0  0  1  0  0  0  0  0  0  0  0  0
   10.7561  -18.2182   24.6826 C   0  0  0  0  0  0  0  0  0  0  0  0
   10.7759  -18.8536   26.0249 C   0  0  0  0  0  0  0  0  0  0  0  0
    9.8845  -18.5963   26.8736 O   0  0  0  0  0  0  0  0  0  0  0  0
   10.4362  -15.9759   25.6688 C   0  0  0  0  0  0  0  0  0  0  0  0
   11.6261  -15.5670   25.6707 O   0  0  0  0  0  0  0  0  0  0  0  0
   11.7582  -19.7503   26.4148 O   0  0  0  0  0  0  0  0  0  0  0  0
    9.1224  -13.4579   28.0156 C   0  0  0  0  0  0  0  0  0  0  0  0
   10.0837  -14.5911   27.7003 C   0  0  2  0  0  0  0  0  0  0  0  0
    9.5770  -15.4533   26.6712 N   0  0  0  0  0  0  0  0  0  0  0  0
   10.2957  -15.3423   28.9659 C   0  0  0  0  0  0  0  0  0  0  0  0
   10.0193  -16.6775   29.1049 O   0  0  0  0  0  0  0  0  0  0  0  0
   10.7588  -14.7095   29.9728 O   0  0  0  0  0  0  0  0  0  0  0  0
  2  1  1  6
  2  4  1  0
  2  3  1  0
  4  5  1  6
  6  4  1  0
  7  6  2  0
  8  6  1  0
  9 13  1  0
  9  8  1  0
  9 10  1  6
 11 15  1  0
 11 10  1  0
 12 11  2  0
 13 18  1  0
 14 13  2  0
 17 16  1  1
 17 19  1  0
 18 17  1  0
 19 21  2  0
 19 20  1  0
M  END
$$$$
