FHV.pdb
     RDKit          3D

 29 30  0  0  1  0  0  0  0  0999 V2000
    6.8162  -16.0312   20.9974 N   0  0  0  0  0  0  0  0  0  0  0  0
    7.2327  -15.2980   22.1476 C   0  0  1  0  0  0  0  0  0  0  0  0
    6.1782  -14.2703   22.5507 C   0  0  0  0  0  0  0  0  0  0  0  0
    6.6440  -13.3930   23.6473 C   0  0  0  0  0  0  0  0  0  0  0  0
    6.0055  -13.4731   24.8626 C   0  0  0  0  0  0  0  0  0  0  0  0
    6.3827  -12.6825   25.9425 C   0  0  0  0  0  0  0  0  0  0  0  0
    7.4293  -11.8076   25.7488 C   0  0  0  0  0  0  0  0  0  0  0  0
    8.0784  -11.7178   24.5336 C   0  0  0  0  0  0  0  0  0  0  0  0
    7.6824  -12.5195   23.4683 C   0  0  0  0  0  0  0  0  0  0  0  0
    7.5101  -16.1480   23.3237 C   0  0  0  0  0  0  0  0  0  0  0  0
    6.5381  -16.5391   24.0401 O   0  0  0  0  0  0  0  0  0  0  0  0
    8.7926  -16.5671   23.7211 N   0  0  0  0  0  0  0  0  0  0  0  0
    9.0060  -17.4358   24.9185 C   0  0  1  0  0  0  0  0  0  0  0  0
    9.2921  -18.8213   24.4665 C   0  0  0  0  0  0  0  0  0  0  0  0
    8.1256  -19.5441   23.9450 C   0  0  0  0  0  0  0  0  0  0  0  0
    6.8112  -19.0459   23.9433 C   0  0  0  0  0  0  0  0  0  0  0  0
    5.9736  -19.9409   23.4007 N   0  0  0  0  0  0  0  0  0  0  0  0
    6.7179  -21.0029   23.0536 C   0  0  0  0  0  0  0  0  0  0  0  0
    7.9856  -20.7566   23.3798 N   0  0  0  0  0  0  0  0  0  0  0  0
    9.9755  -16.7670   25.7651 C   0  0  0  0  0  0  0  0  0  0  0  0
   11.1205  -16.4719   25.2638 O   0  0  0  0  0  0  0  0  0  0  0  0
    9.6156  -15.1652   29.7798 C   0  0  0  0  0  0  0  0  0  0  0  0
   10.7588  -14.8577   28.8327 C   0  0  2  0  0  0  0  0  0  0  0  0
   10.3769  -13.6210   28.0542 C   0  0  0  0  0  0  0  0  0  0  0  0
   10.9517  -16.0607   27.9532 C   0  0  2  0  0  0  0  0  0  0  0  0
    9.8506  -16.3667   27.1122 N   0  0  0  0  0  0  0  0  0  0  0  0
   11.3604  -17.2290   28.7316 C   0  0  0  0  0  0  0  0  0  0  0  0
   12.6196  -17.3755   29.3083 O   0  0  0  0  0  0  0  0  0  0  0  0
   10.5673  -18.1803   28.9187 O   0  0  0  0  0  0  0  0  0  0  0  0
  2  1  1  6
  2  3  1  0
  2 10  1  0
  3  4  1  0
  4  9  1  0
  5  4  2  0
  5  6  1  0
  6  7  2  0
  7  8  1  0
  9  8  2  0
 10 12  1  0
 10 11  2  0
 12 13  1  0
 13 20  1  0
 13 14  1  6
 14 15  1  0
 15 19  1  0
 15 16  2  0
 16 17  1  0
 18 17  1  0
 19 18  2  0
 20 21  2  0
 23 22  1  1
 23 24  1  0
 23 25  1  0
 25 27  1  0
 26 20  1  0
 25 26  1  1
 27 28  1  0
 29 27  2  0
M  END
$$$$
