FHV.pdb
     RDKit          3D

 29 30  0  0  1  0  0  0  0  0999 V2000
    7.5964  -18.0156   19.7368 N   0  0  0  0  0  0  0  0  0  0  0  0
    7.8738  -16.7674   20.3685 C   0  0  1  0  0  0  0  0  0  0  0  0
    6.7037  -15.8008   20.2040 C   0  0  0  0  0  0  0  0  0  0  0  0
    7.0013  -14.4636   20.7630 C   0  0  0  0  0  0  0  0  0  0  0  0
    6.5571  -14.1735   22.0318 C   0  0  0  0  0  0  0  0  0  0  0  0
    6.7952  -12.9400   22.6277 C   0  0  0  0  0  0  0  0  0  0  0  0
    7.4989  -12.0101   21.8939 C   0  0  0  0  0  0  0  0  0  0  0  0
    7.9501  -12.2891   20.6193 C   0  0  0  0  0  0  0  0  0  0  0  0
    7.6993  -13.5306   20.0448 C   0  0  0  0  0  0  0  0  0  0  0  0
    8.1645  -16.8856   21.8122 C   0  0  0  0  0  0  0  0  0  0  0  0
    7.3120  -17.4494   22.5648 O   0  0  0  0  0  0  0  0  0  0  0  0
    9.3353  -16.4133   22.4321 N   0  0  0  0  0  0  0  0  0  0  0  0
    9.6948  -16.7865   23.8340 C   0  0  1  0  0  0  0  0  0  0  0  0
   10.9147  -17.6332   23.8119 C   0  0  0  0  0  0  0  0  0  0  0  0
   10.6970  -19.0013   23.3259 C   0  0  0  0  0  0  0  0  0  0  0  0
    9.5393  -19.7610   23.5675 C   0  0  0  0  0  0  0  0  0  0  0  0
    9.6443  -20.9673   22.9923 N   0  0  0  0  0  0  0  0  0  0  0  0
   10.8418  -21.0015   22.3865 C   0  0  0  0  0  0  0  0  0  0  0  0
   11.4533  -19.8358   22.5906 N   0  0  0  0  0  0  0  0  0  0  0  0
    9.7129  -15.5622   24.6116 C   0  0  0  0  0  0  0  0  0  0  0  0
   10.5967  -14.6743   24.3289 O   0  0  0  0  0  0  0  0  0  0  0  0
    6.8464  -13.8868   27.1835 C   0  0  0  0  0  0  0  0  0  0  0  0
    8.1204  -13.1395   26.8418 C   0  0  2  0  0  0  0  0  0  0  0  0
    7.8379  -12.3088   25.6123 C   0  0  0  0  0  0  0  0  0  0  0  0
    9.1969  -14.1633   26.6158 C   0  0  2  0  0  0  0  0  0  0  0  0
    8.8702  -15.1735   25.6744 N   0  0  0  0  0  0  0  0  0  0  0  0
    9.6503  -14.7463   27.8777 C   0  0  0  0  0  0  0  0  0  0  0  0
    9.6294  -16.1112   28.1537 O   0  0  0  0  0  0  0  0  0  0  0  0
   10.0919  -14.0170   28.7953 O   0  0  0  0  0  0  0  0  0  0  0  0
  2  1  1  1
  2  3  1  0
  2 10  1  0
  3  4  1  0
  4  9  1  0
  5  4  2  0
  5  6  1  0
  6  7  2  0
  7  8  1  0
  9  8  2  0
 10 12  1  0
 10 11  2  0
 12 13  1  0
 13 20  1  0
 13 14  1  6
 14 15  1  0
 15 19  1  0
 15 16  2  0
 16 17  1  0
 18 17  1  0
 19 18  2  0
 20 21  2  0
 23 22  1  6
 23 24  1  0
 23 25  1  0
 25 27  1  0
 26 20  1  0
 25 26  1  6
 27 28  1  0
 29 27  2  0
M  END
$$$$
