FHV.pdb
     RDKit          3D

 29 30  0  0  1  0  0  0  0  0999 V2000
    7.2352  -16.5346   21.0571 N   0  0  0  0  0  0  0  0  0  0  0  0
    7.5972  -15.7046   22.1589 C   0  0  1  0  0  0  0  0  0  0  0  0
    6.3744  -15.3546   23.0032 C   0  0  0  0  0  0  0  0  0  0  0  0
    6.6755  -14.3252   24.0223 C   0  0  0  0  0  0  0  0  0  0  0  0
    6.3988  -14.6103   25.3389 C   0  0  0  0  0  0  0  0  0  0  0  0
    6.6519  -13.6963   26.3558 C   0  0  0  0  0  0  0  0  0  0  0  0
    7.1951  -12.4832   25.9930 C   0  0  0  0  0  0  0  0  0  0  0  0
    7.4774  -12.1849   24.6749 C   0  0  0  0  0  0  0  0  0  0  0  0
    7.2151  -13.1161   23.6756 C   0  0  0  0  0  0  0  0  0  0  0  0
    8.6058  -16.3116   23.0518 C   0  0  0  0  0  0  0  0  0  0  0  0
    8.2774  -17.3171   23.7532 O   0  0  0  0  0  0  0  0  0  0  0  0
    9.9287  -15.8542   23.1893 N   0  0  0  0  0  0  0  0  0  0  0  0
   10.9557  -16.6210   23.9583 C   0  0  1  0  0  0  0  0  0  0  0  0
   12.1575  -16.8093   23.1065 C   0  0  0  0  0  0  0  0  0  0  0  0
   11.9574  -17.7065   21.9618 C   0  0  0  0  0  0  0  0  0  0  0  0
   10.9308  -18.6616   21.8643 C   0  0  0  0  0  0  0  0  0  0  0  0
   11.0166  -19.3216   20.7007 N   0  0  0  0  0  0  0  0  0  0  0  0
   12.0738  -18.8138   20.0475 C   0  0  0  0  0  0  0  0  0  0  0  0
   12.6204  -17.8617   20.8019 N   0  0  0  0  0  0  0  0  0  0  0  0
   11.1097  -15.9622   25.2413 C   0  0  0  0  0  0  0  0  0  0  0  0
   11.8589  -14.9210   25.3051 O   0  0  0  0  0  0  0  0  0  0  0  0
    9.0050  -15.1247   28.6513 C   0  0  0  0  0  0  0  0  0  0  0  0
   10.4628  -14.7779   28.4216 C   0  0  2  0  0  0  0  0  0  0  0  0
   10.4991  -13.5239   27.5803 C   0  0  0  0  0  0  0  0  0  0  0  0
   11.1038  -15.9533   27.7393 C   0  0  2  0  0  0  0  0  0  0  0  0
   10.5351  -16.2974   26.4856 N   0  0  0  0  0  0  0  0  0  0  0  0
   11.1658  -17.1144   28.6258 C   0  0  0  0  0  0  0  0  0  0  0  0
   11.8153  -17.1163   29.8577 O   0  0  0  0  0  0  0  0  0  0  0  0
   10.6183  -18.1937   28.3028 O   0  0  0  0  0  0  0  0  0  0  0  0
  2  1  1  6
  2  3  1  0
  2 10  1  0
  3  4  1  0
  4  9  1  0
  5  4  2  0
  5  6  1  0
  6  7  2  0
  7  8  1  0
  9  8  2  0
 10 12  1  0
 10 11  2  0
 12 13  1  0
 13 20  1  0
 13 14  1  6
 14 15  1  0
 15 19  1  0
 15 16  2  0
 16 17  1  0
 18 17  1  0
 19 18  2  0
 20 21  2  0
 23 22  1  6
 23 24  1  0
 23 25  1  0
 25 27  1  0
 26 20  1  0
 25 26  1  6
 27 28  1  0
 29 27  2  0
M  END
$$$$
