FHV.pdb
     RDKit          3D

 29 30  0  0  1  0  0  0  0  0999 V2000
    5.6147  -17.4456   20.7943 N   0  0  0  0  0  0  0  0  0  0  0  0
    6.5578  -16.6302   21.4867 C   0  0  1  0  0  0  0  0  0  0  0  0
    6.0227  -15.2121   21.6692 C   0  0  0  0  0  0  0  0  0  0  0  0
    6.9218  -14.1958   21.0794 C   0  0  0  0  0  0  0  0  0  0  0  0
    7.0062  -14.1161   19.7091 C   0  0  0  0  0  0  0  0  0  0  0  0
    7.8282  -13.1891   19.0778 C   0  0  0  0  0  0  0  0  0  0  0  0
    8.5620  -12.3453   19.8828 C   0  0  0  0  0  0  0  0  0  0  0  0
    8.4860  -12.4153   21.2595 C   0  0  0  0  0  0  0  0  0  0  0  0
    7.6562  -13.3514   21.8674 C   0  0  0  0  0  0  0  0  0  0  0  0
    6.9254  -17.1508   22.8196 C   0  0  0  0  0  0  0  0  0  0  0  0
    6.0236  -17.2558   23.7066 O   0  0  0  0  0  0  0  0  0  0  0  0
    8.2223  -17.5479   23.1917 N   0  0  0  0  0  0  0  0  0  0  0  0
    8.5471  -17.9884   24.5826 C   0  0  1  0  0  0  0  0  0  0  0  0
    9.2800  -19.2787   24.5231 C   0  0  0  0  0  0  0  0  0  0  0  0
    9.7902  -19.7488   25.8169 C   0  0  0  0  0  0  0  0  0  0  0  0
    9.5886  -19.0912   27.0428 C   0  0  0  0  0  0  0  0  0  0  0  0
   10.1771  -19.7691   28.0382 N   0  0  0  0  0  0  0  0  0  0  0  0
   10.7524  -20.8470   27.4820 C   0  0  0  0  0  0  0  0  0  0  0  0
   10.5170  -20.8236   26.1711 N   0  0  0  0  0  0  0  0  0  0  0  0
    9.1729  -16.8642   25.2523 C   0  0  0  0  0  0  0  0  0  0  0  0
   10.1810  -16.3034   24.6879 O   0  0  0  0  0  0  0  0  0  0  0  0
    7.9186  -13.4961   26.1222 C   0  0  0  0  0  0  0  0  0  0  0  0
    8.5860  -13.9853   27.3925 C   0  0  2  0  0  0  0  0  0  0  0  0
    9.3360  -12.8156   27.9850 C   0  0  0  0  0  0  0  0  0  0  0  0
    9.4908  -15.1245   27.0165 C   0  0  2  0  0  0  0  0  0  0  0  0
    8.8289  -16.2590   26.4796 N   0  0  0  0  0  0  0  0  0  0  0  0
   10.3627  -15.5009   28.1283 C   0  0  0  0  0  0  0  0  0  0  0  0
   11.5627  -14.8595   28.4249 O   0  0  0  0  0  0  0  0  0  0  0  0
   10.0560  -16.4492   28.8870 O   0  0  0  0  0  0  0  0  0  0  0  0
  2  1  1  1
  2  3  1  0
  2 10  1  0
  3  4  1  0
  4  9  1  0
  5  4  2  0
  5  6  1  0
  6  7  2  0
  7  8  1  0
  9  8  2  0
 10 12  1  0
 10 11  2  0
 12 13  1  0
 13 20  1  0
 13 14  1  6
 14 15  1  0
 15 19  1  0
 15 16  2  0
 16 17  1  0
 18 17  1  0
 19 18  2  0
 20 21  2  0
 23 22  1  6
 23 24  1  0
 23 25  1  0
 25 27  1  0
 26 20  1  0
 25 26  1  1
 27 28  1  0
 29 27  2  0
M  END
$$$$
