FHV.pdb
     RDKit          3D

 29 30  0  0  1  0  0  0  0  0999 V2000
    7.9003  -15.0735   20.6206 N   0  0  0  0  0  0  0  0  0  0  0  0
    8.0185  -14.5773   21.9524 C   0  0  1  0  0  0  0  0  0  0  0  0
    6.7812  -13.7750   22.3475 C   0  0  0  0  0  0  0  0  0  0  0  0
    6.9026  -13.1924   23.7020 C   0  0  0  0  0  0  0  0  0  0  0  0
    6.2060  -13.7823   24.7307 C   0  0  0  0  0  0  0  0  0  0  0  0
    6.2666  -13.2949   26.0315 C   0  0  0  0  0  0  0  0  0  0  0  0
    7.0574  -12.1889   26.2546 C   0  0  0  0  0  0  0  0  0  0  0  0
    7.7616  -11.5876   25.2306 C   0  0  0  0  0  0  0  0  0  0  0  0
    7.6846  -12.0941   23.9375 C   0  0  0  0  0  0  0  0  0  0  0  0
    8.2143  -15.6361   22.9640 C   0  0  0  0  0  0  0  0  0  0  0  0
    7.1991  -16.2565   23.4061 O   0  0  0  0  0  0  0  0  0  0  0  0
    9.4623  -16.0194   23.4872 N   0  0  0  0  0  0  0  0  0  0  0  0
    9.5855  -17.0298   24.5817 C   0  0  1  0  0  0  0  0  0  0  0  0
   10.0002  -18.3299   23.9959 C   0  0  0  0  0  0  0  0  0  0  0  0
   10.7414  -18.2195   22.7335 C   0  0  0  0  0  0  0  0  0  0  0  0
   11.0507  -17.0081   22.0910 C   0  0  0  0  0  0  0  0  0  0  0  0
   11.7338  -17.2403   20.9612 N   0  0  0  0  0  0  0  0  0  0  0  0
   11.8712  -18.5720   20.8617 C   0  0  0  0  0  0  0  0  0  0  0  0
   11.2815  -19.1385   21.9132 N   0  0  0  0  0  0  0  0  0  0  0  0
   10.4113  -16.4397   25.6180 C   0  0  0  0  0  0  0  0  0  0  0  0
   11.4345  -15.7500   25.2621 O   0  0  0  0  0  0  0  0  0  0  0  0
    9.5749  -14.8588   29.3161 C   0  0  0  0  0  0  0  0  0  0  0  0
   10.8819  -14.6923   28.5662 C   0  0  2  0  0  0  0  0  0  0  0  0
   10.6756  -13.6027   27.5405 C   0  0  0  0  0  0  0  0  0  0  0  0
   11.2172  -16.0186   27.9445 C   0  0  2  0  0  0  0  0  0  0  0  0
   10.2568  -16.5027   27.0190 N   0  0  0  0  0  0  0  0  0  0  0  0
   11.5193  -17.0227   28.9635 C   0  0  0  0  0  0  0  0  0  0  0  0
   10.8062  -18.2087   29.1197 O   0  0  0  0  0  0  0  0  0  0  0  0
   12.4653  -16.8522   29.7666 O   0  0  0  0  0  0  0  0  0  0  0  0
  2  1  1  6
  2  3  1  0
  2 10  1  0
  3  4  1  0
  4  9  1  0
  5  4  2  0
  5  6  1  0
  6  7  2  0
  7  8  1  0
  9  8  2  0
 10 12  1  0
 10 11  2  0
 12 13  1  0
 13 20  1  0
 13 14  1  6
 14 15  1  0
 15 19  1  0
 15 16  2  0
 16 17  1  0
 18 17  1  0
 19 18  2  0
 20 21  2  0
 23 22  1  6
 23 24  1  0
 23 25  1  0
 25 27  1  0
 26 20  1  0
 25 26  1  1
 27 28  1  0
 29 27  2  0
M  END
$$$$
