FHV.pdb
     RDKit          3D

 29 30  0  0  1  0  0  0  0  0999 V2000
    7.3276  -16.4913   20.5989 N   0  0  0  0  0  0  0  0  0  0  0  0
    7.6925  -15.6912   21.7217 C   0  0  1  0  0  0  0  0  0  0  0  0
    6.4567  -15.2505   22.5022 C   0  0  0  0  0  0  0  0  0  0  0  0
    6.7921  -14.3115   23.5952 C   0  0  0  0  0  0  0  0  0  0  0  0
    7.2923  -13.0745   23.2620 C   0  0  0  0  0  0  0  0  0  0  0  0
    7.6324  -12.1361   24.2301 C   0  0  0  0  0  0  0  0  0  0  0  0
    7.4482  -12.4940   25.5479 C   0  0  0  0  0  0  0  0  0  0  0  0
    6.9469  -13.7325   25.8954 C   0  0  0  0  0  0  0  0  0  0  0  0
    6.6141  -14.6542   24.9084 C   0  0  0  0  0  0  0  0  0  0  0  0
    8.6043  -16.3726   22.6636 C   0  0  0  0  0  0  0  0  0  0  0  0
    8.1579  -17.3344   23.3611 O   0  0  0  0  0  0  0  0  0  0  0  0
    9.9560  -16.0331   22.8529 N   0  0  0  0  0  0  0  0  0  0  0  0
   10.8390  -16.7914   23.7906 C   0  0  1  0  0  0  0  0  0  0  0  0
   12.0987  -17.1465   23.0888 C   0  0  0  0  0  0  0  0  0  0  0  0
   11.9951  -18.3154   22.2068 C   0  0  0  0  0  0  0  0  0  0  0  0
   10.7872  -18.8488   21.7246 C   0  0  0  0  0  0  0  0  0  0  0  0
   11.0253  -19.9126   20.9445 N   0  0  0  0  0  0  0  0  0  0  0  0
   12.3574  -20.0761   20.9133 C   0  0  0  0  0  0  0  0  0  0  0  0
   12.9183  -19.1277   21.6619 N   0  0  0  0  0  0  0  0  0  0  0  0
   10.9203  -16.0225   25.0179 C   0  0  0  0  0  0  0  0  0  0  0  0
   11.6630  -14.9748   25.0319 O   0  0  0  0  0  0  0  0  0  0  0  0
    9.9120  -13.4300   27.0053 C   0  0  0  0  0  0  0  0  0  0  0  0
    9.8254  -14.5737   27.9966 C   0  0  2  0  0  0  0  0  0  0  0  0
   10.2822  -14.0436   29.3352 C   0  0  0  0  0  0  0  0  0  0  0  0
   10.6992  -15.6829   27.4827 C   0  0  2  0  0  0  0  0  0  0  0  0
   10.2783  -16.2522   26.2530 N   0  0  0  0  0  0  0  0  0  0  0  0
   10.9019  -16.7148   28.4986 C   0  0  0  0  0  0  0  0  0  0  0  0
   10.4568  -18.0282   28.3702 O   0  0  0  0  0  0  0  0  0  0  0  0
   11.5054  -16.4515   29.5641 O   0  0  0  0  0  0  0  0  0  0  0  0
  2  1  1  6
  2  3  1  0
  2 10  1  0
  3  4  1  0
  4  9  1  0
  5  4  2  0
  5  6  1  0
  6  7  2  0
  7  8  1  0
  9  8  2  0
 10 12  1  0
 10 11  2  0
 12 13  1  0
 13 20  1  0
 13 14  1  6
 14 15  1  0
 15 19  1  0
 15 16  2  0
 16 17  1  0
 18 17  1  0
 19 18  2  0
 20 21  2  0
 23 22  1  6
 23 24  1  0
 23 25  1  0
 25 27  1  0
 26 20  1  0
 25 26  1  6
 27 28  1  0
 29 27  2  0
M  END
$$$$
