FHV.pdb
     RDKit          3D

 29 30  0  0  1  0  0  0  0  0999 V2000
    6.4515  -17.6609   20.2883 N   0  0  0  0  0  0  0  0  0  0  0  0
    6.9470  -16.5501   21.0330 C   0  0  1  0  0  0  0  0  0  0  0  0
    6.1967  -15.2712   20.6694 C   0  0  0  0  0  0  0  0  0  0  0  0
    6.7730  -14.0790   21.3291 C   0  0  0  0  0  0  0  0  0  0  0  0
    7.7250  -13.3544   20.6508 C   0  0  0  0  0  0  0  0  0  0  0  0
    8.3153  -12.2224   21.2018 C   0  0  0  0  0  0  0  0  0  0  0  0
    7.9077  -11.8494   22.4641 C   0  0  0  0  0  0  0  0  0  0  0  0
    6.9530  -12.5682   23.1553 C   0  0  0  0  0  0  0  0  0  0  0  0
    6.3773  -13.6973   22.5826 C   0  0  0  0  0  0  0  0  0  0  0  0
    6.8546  -16.7293   22.4966 C   0  0  0  0  0  0  0  0  0  0  0  0
    5.7069  -16.8026   23.0337 O   0  0  0  0  0  0  0  0  0  0  0  0
    7.9603  -16.8272   23.3603 N   0  0  0  0  0  0  0  0  0  0  0  0
    7.8229  -17.2978   24.7723 C   0  0  1  0  0  0  0  0  0  0  0  0
    7.6713  -18.7751   24.7776 C   0  0  0  0  0  0  0  0  0  0  0  0
    7.5785  -19.3724   26.1155 C   0  0  0  0  0  0  0  0  0  0  0  0
    7.5946  -18.6456   27.3185 C   0  0  0  0  0  0  0  0  0  0  0  0
    7.4932  -19.4754   28.3664 N   0  0  0  0  0  0  0  0  0  0  0  0
    7.4122  -20.7185   27.8660 C   0  0  0  0  0  0  0  0  0  0  0  0
    7.4636  -20.6444   26.5371 N   0  0  0  0  0  0  0  0  0  0  0  0
    8.9119  -16.7084   25.5276 C   0  0  0  0  0  0  0  0  0  0  0  0
   10.1071  -16.8400   25.0764 O   0  0  0  0  0  0  0  0  0  0  0  0
    8.6612  -14.2323   29.0143 C   0  0  0  0  0  0  0  0  0  0  0  0
    9.7934  -14.0923   28.0159 C   0  0  2  0  0  0  0  0  0  0  0  0
    9.3847  -13.0339   27.0188 C   0  0  0  0  0  0  0  0  0  0  0  0
   10.0034  -15.4378   27.3807 C   0  0  2  0  0  0  0  0  0  0  0  0
    8.8616  -15.9753   26.7320 N   0  0  0  0  0  0  0  0  0  0  0  0
   10.5667  -16.3938   28.3330 C   0  0  0  0  0  0  0  0  0  0  0  0
    9.9482  -17.5893   28.6902 O   0  0  0  0  0  0  0  0  0  0  0  0
   11.6676  -16.1695   28.8867 O   0  0  0  0  0  0  0  0  0  0  0  0
  2  1  1  6
  2  3  1  0
  2 10  1  0
  3  4  1  0
  4  9  1  0
  5  4  2  0
  5  6  1  0
  6  7  2  0
  7  8  1  0
  9  8  2  0
 10 12  1  0
 10 11  2  0
 12 13  1  0
 13 20  1  0
 13 14  1  6
 14 15  1  0
 15 19  1  0
 15 16  2  0
 16 17  1  0
 18 17  1  0
 19 18  2  0
 20 21  2  0
 23 22  1  1
 23 24  1  0
 23 25  1  0
 25 27  1  0
 26 20  1  0
 25 26  1  1
 27 28  1  0
 29 27  2  0
M  END
$$$$
