FHV.pdb
     RDKit          3D

 29 30  0  0  1  0  0  0  0  0999 V2000
    7.3557  -15.6892   20.5983 N   0  0  0  0  0  0  0  0  0  0  0  0
    7.7576  -15.0491   21.8077 C   0  0  1  0  0  0  0  0  0  0  0  0
    6.5561  -14.4454   22.5306 C   0  0  0  0  0  0  0  0  0  0  0  0
    6.9573  -13.6463   23.7094 C   0  0  0  0  0  0  0  0  0  0  0  0
    6.6145  -14.1089   24.9584 C   0  0  0  0  0  0  0  0  0  0  0  0
    6.9538  -13.4162   26.1153 C   0  0  0  0  0  0  0  0  0  0  0  0
    7.6526  -12.2385   25.9635 C   0  0  0  0  0  0  0  0  0  0  0  0
    8.0026  -11.7635   24.7153 C   0  0  0  0  0  0  0  0  0  0  0  0
    7.6516  -12.4747   23.5728 C   0  0  0  0  0  0  0  0  0  0  0  0
    8.4499  -15.9492   22.7528 C   0  0  0  0  0  0  0  0  0  0  0  0
    7.8178  -16.9418   23.2284 O   0  0  0  0  0  0  0  0  0  0  0  0
    9.7816  -15.7905   23.1764 N   0  0  0  0  0  0  0  0  0  0  0  0
   10.4774  -16.8220   24.0046 C   0  0  1  0  0  0  0  0  0  0  0  0
   11.5858  -17.4123   23.2118 C   0  0  0  0  0  0  0  0  0  0  0  0
   11.1534  -18.1630   22.0265 C   0  0  0  0  0  0  0  0  0  0  0  0
   10.4437  -19.3758   22.0630 C   0  0  0  0  0  0  0  0  0  0  0  0
   10.1968  -19.8095   20.8189 N   0  0  0  0  0  0  0  0  0  0  0  0
   10.7307  -18.9047   19.9832 C   0  0  0  0  0  0  0  0  0  0  0  0
   11.2921  -17.9382   20.7077 N   0  0  0  0  0  0  0  0  0  0  0  0
   10.7870  -16.2079   25.2817 C   0  0  0  0  0  0  0  0  0  0  0  0
   11.7025  -15.3079   25.3186 O   0  0  0  0  0  0  0  0  0  0  0  0
    8.6351  -15.6878   28.8956 C   0  0  0  0  0  0  0  0  0  0  0  0
    9.9352  -15.0046   28.5196 C   0  0  2  0  0  0  0  0  0  0  0  0
    9.5827  -13.7971   27.6833 C   0  0  0  0  0  0  0  0  0  0  0  0
   10.7703  -16.0050   27.7713 C   0  0  2  0  0  0  0  0  0  0  0  0
   10.2104  -16.4511   26.5462 N   0  0  0  0  0  0  0  0  0  0  0  0
   11.1389  -17.1343   28.6238 C   0  0  0  0  0  0  0  0  0  0  0  0
   11.8917  -17.0135   29.7893 O   0  0  0  0  0  0  0  0  0  0  0  0
   10.7806  -18.2983   28.3313 O   0  0  0  0  0  0  0  0  0  0  0  0
  2  1  1  6
  2  3  1  0
  2 10  1  0
  3  4  1  0
  4  9  1  0
  5  4  2  0
  5  6  1  0
  6  7  2  0
  7  8  1  0
  9  8  2  0
 10 12  1  0
 10 11  2  0
 12 13  1  0
 13 20  1  0
 13 14  1  6
 14 15  1  0
 15 19  1  0
 15 16  2  0
 16 17  1  0
 18 17  1  0
 19 18  2  0
 20 21  2  0
 23 22  1  6
 23 24  1  0
 23 25  1  0
 25 27  1  0
 26 20  1  0
 25 26  1  6
 27 28  1  0
 29 27  2  0
M  END
$$$$
