FHV.pdb
     RDKit          3D

 29 30  0  0  1  0  0  0  0  0999 V2000
    6.7415  -15.7688   20.9596 N   0  0  0  0  0  0  0  0  0  0  0  0
    7.2308  -15.0867   22.1125 C   0  0  1  0  0  0  0  0  0  0  0  0
    6.0790  -14.5484   22.9576 C   0  0  0  0  0  0  0  0  0  0  0  0
    6.5542  -13.7070   24.0780 C   0  0  0  0  0  0  0  0  0  0  0  0
    6.2286  -14.0832   25.3601 C   0  0  0  0  0  0  0  0  0  0  0  0
    6.6362  -13.3460   26.4663 C   0  0  0  0  0  0  0  0  0  0  0  0
    7.3853  -12.2142   26.2291 C   0  0  0  0  0  0  0  0  0  0  0  0
    7.7187  -11.8258   24.9469 C   0  0  0  0  0  0  0  0  0  0  0  0
    7.2990  -12.5802   23.8564 C   0  0  0  0  0  0  0  0  0  0  0  0
    8.0777  -15.9275   22.9835 C   0  0  0  0  0  0  0  0  0  0  0  0
    7.5765  -16.9719   23.5022 O   0  0  0  0  0  0  0  0  0  0  0  0
    9.4234  -15.6571   23.2901 N   0  0  0  0  0  0  0  0  0  0  0  0
   10.3000  -16.6638   23.9626 C   0  0  1  0  0  0  0  0  0  0  0  0
   11.3327  -17.1260   23.0006 C   0  0  0  0  0  0  0  0  0  0  0  0
   12.2568  -18.1327   23.5371 C   0  0  0  0  0  0  0  0  0  0  0  0
   13.5460  -17.8559   24.0241 C   0  0  0  0  0  0  0  0  0  0  0  0
   14.1384  -18.9830   24.4431 N   0  0  0  0  0  0  0  0  0  0  0  0
   13.2611  -19.9781   24.2373 C   0  0  0  0  0  0  0  0  0  0  0  0
   12.1549  -19.4636   23.7024 N   0  0  0  0  0  0  0  0  0  0  0  0
   10.7318  -16.0833   25.2197 C   0  0  0  0  0  0  0  0  0  0  0  0
   11.4716  -15.0341   25.1837 O   0  0  0  0  0  0  0  0  0  0  0  0
    9.1459  -15.2410   28.7925 C   0  0  0  0  0  0  0  0  0  0  0  0
   10.5484  -14.8583   28.3624 C   0  0  2  0  0  0  0  0  0  0  0  0
   10.4269  -13.6641   27.4455 C   0  0  0  0  0  0  0  0  0  0  0  0
   11.1532  -16.0536   27.6817 C   0  0  2  0  0  0  0  0  0  0  0  0
   10.4493  -16.5062   26.5358 N   0  0  0  0  0  0  0  0  0  0  0  0
   11.3792  -17.1464   28.6266 C   0  0  0  0  0  0  0  0  0  0  0  0
   12.1437  -17.0255   29.7843 O   0  0  0  0  0  0  0  0  0  0  0  0
   10.8770  -18.2764   28.4271 O   0  0  0  0  0  0  0  0  0  0  0  0
  2  1  1  6
  2  3  1  0
  2 10  1  0
  3  4  1  0
  4  9  1  0
  5  4  2  0
  5  6  1  0
  6  7  2  0
  7  8  1  0
  9  8  2  0
 10 12  1  0
 10 11  2  0
 12 13  1  0
 13 20  1  0
 13 14  1  6
 14 15  1  0
 15 19  1  0
 15 16  2  0
 16 17  1  0
 18 17  1  0
 19 18  2  0
 20 21  2  0
 23 22  1  6
 23 24  1  0
 23 25  1  0
 25 27  1  0
 26 20  1  0
 25 26  1  6
 27 28  1  0
 29 27  2  0
M  END
$$$$
