FHV.pdb
     RDKit          3D

 29 30  0  0  1  0  0  0  0  0999 V2000
    7.6610  -17.3108   20.5808 N   0  0  0  0  0  0  0  0  0  0  0  0
    8.3419  -16.3795   21.4192 C   0  0  1  0  0  0  0  0  0  0  0  0
    7.3854  -15.3050   21.9303 C   0  0  0  0  0  0  0  0  0  0  0  0
    7.5287  -14.0320   21.1901 C   0  0  0  0  0  0  0  0  0  0  0  0
    6.7133  -13.8134   20.1045 C   0  0  0  0  0  0  0  0  0  0  0  0
    6.7864  -12.6436   19.3563 C   0  0  0  0  0  0  0  0  0  0  0  0
    7.7143  -11.7025   19.7460 C   0  0  0  0  0  0  0  0  0  0  0  0
    8.5386  -11.9100   20.8339 C   0  0  0  0  0  0  0  0  0  0  0  0
    8.4463  -13.0887   21.5664 C   0  0  0  0  0  0  0  0  0  0  0  0
    8.9920  -17.0020   22.5907 C   0  0  0  0  0  0  0  0  0  0  0  0
    8.2693  -17.5931   23.4505 O   0  0  0  0  0  0  0  0  0  0  0  0
   10.3772  -16.9918   22.8342 N   0  0  0  0  0  0  0  0  0  0  0  0
   10.9720  -17.6245   24.0508 C   0  0  1  0  0  0  0  0  0  0  0  0
   12.2468  -18.2884   23.6769 C   0  0  0  0  0  0  0  0  0  0  0  0
   12.0869  -19.4899   22.8485 C   0  0  0  0  0  0  0  0  0  0  0  0
   10.8994  -20.2343   22.7402 C   0  0  0  0  0  0  0  0  0  0  0  0
   11.0731  -21.2714   21.9089 N   0  0  0  0  0  0  0  0  0  0  0  0
   12.3438  -21.2118   21.4799 C   0  0  0  0  0  0  0  0  0  0  0  0
   12.9314  -20.1565   22.0415 N   0  0  0  0  0  0  0  0  0  0  0  0
   10.9940  -16.6142   25.0913 C   0  0  0  0  0  0  0  0  0  0  0  0
   11.7204  -15.5705   24.9114 O   0  0  0  0  0  0  0  0  0  0  0  0
    9.7683  -13.6786   28.5984 C   0  0  0  0  0  0  0  0  0  0  0  0
    9.4880  -14.5218   27.3701 C   0  0  2  0  0  0  0  0  0  0  0  0
    8.0781  -15.0483   27.4988 C   0  0  0  0  0  0  0  0  0  0  0  0
   10.5155  -15.6175   27.3313 C   0  0  2  0  0  0  0  0  0  0  0  0
   10.3070  -16.5945   26.3235 N   0  0  0  0  0  0  0  0  0  0  0  0
   10.6781  -16.2413   28.6437 C   0  0  0  0  0  0  0  0  0  0  0  0
   11.1779  -15.5779   29.7616 O   0  0  0  0  0  0  0  0  0  0  0  0
   10.3637  -17.4403   28.8236 O   0  0  0  0  0  0  0  0  0  0  0  0
  2  1  1  1
  2  3  1  0
  2 10  1  0
  3  4  1  0
  4  9  1  0
  5  4  2  0
  5  6  1  0
  6  7  2  0
  7  8  1  0
  9  8  2  0
 10 12  1  0
 10 11  2  0
 12 13  1  0
 13 20  1  0
 13 14  1  6
 14 15  1  0
 15 19  1  0
 15 16  2  0
 16 17  1  0
 18 17  1  0
 19 18  2  0
 20 21  2  0
 23 22  1  1
 23 24  1  0
 23 25  1  0
 25 27  1  0
 26 20  1  0
 25 26  1  6
 27 28  1  0
 29 27  2  0
M  END
$$$$
