FHV.pdb
     RDKit          3D

 29 30  0  0  1  0  0  0  0  0999 V2000
    7.4164  -15.6917   20.8285 N   0  0  0  0  0  0  0  0  0  0  0  0
    7.7411  -15.1115   22.0902 C   0  0  1  0  0  0  0  0  0  0  0  0
    6.4769  -14.7640   22.8723 C   0  0  0  0  0  0  0  0  0  0  0  0
    6.7751  -14.0058   24.1073 C   0  0  0  0  0  0  0  0  0  0  0  0
    7.4912  -12.8368   23.9982 C   0  0  0  0  0  0  0  0  0  0  0  0
    7.8126  -12.0673   25.1109 C   0  0  0  0  0  0  0  0  0  0  0  0
    7.3834  -12.5229   26.3383 C   0  0  0  0  0  0  0  0  0  0  0  0
    6.6638  -13.6947   26.4611 C   0  0  0  0  0  0  0  0  0  0  0  0
    6.3547  -14.4471   25.3329 C   0  0  0  0  0  0  0  0  0  0  0  0
    8.5779  -15.9796   22.9438 C   0  0  0  0  0  0  0  0  0  0  0  0
    8.0316  -16.9496   23.5535 O   0  0  0  0  0  0  0  0  0  0  0  0
    9.9608  -15.8134   23.1388 N   0  0  0  0  0  0  0  0  0  0  0  0
   10.7507  -16.7229   24.0236 C   0  0  1  0  0  0  0  0  0  0  0  0
   11.9173  -17.2427   23.2657 C   0  0  0  0  0  0  0  0  0  0  0  0
   11.5701  -17.9784   22.0436 C   0  0  0  0  0  0  0  0  0  0  0  0
   11.0272  -17.3947   20.8858 C   0  0  0  0  0  0  0  0  0  0  0  0
   10.8214  -18.3276   19.9455 N   0  0  0  0  0  0  0  0  0  0  0  0
   11.2190  -19.4973   20.4707 C   0  0  0  0  0  0  0  0  0  0  0  0
   11.6586  -19.2780   21.7089 N   0  0  0  0  0  0  0  0  0  0  0  0
   10.9897  -16.0113   25.2647 C   0  0  0  0  0  0  0  0  0  0  0  0
   11.9466  -15.1555   25.3014 O   0  0  0  0  0  0  0  0  0  0  0  0
    8.7247  -15.0729   28.7023 C   0  0  0  0  0  0  0  0  0  0  0  0
   10.1502  -14.6241   28.4479 C   0  0  2  0  0  0  0  0  0  0  0  0
   10.0832  -13.3657   27.6150 C   0  0  0  0  0  0  0  0  0  0  0  0
   10.8582  -15.7480   27.7453 C   0  0  2  0  0  0  0  0  0  0  0  0
   10.3012  -16.1122   26.4921 N   0  0  0  0  0  0  0  0  0  0  0  0
   11.0019  -16.9135   28.6164 C   0  0  0  0  0  0  0  0  0  0  0  0
   10.4940  -18.1748   28.3150 O   0  0  0  0  0  0  0  0  0  0  0  0
   11.6088  -16.8231   29.7083 O   0  0  0  0  0  0  0  0  0  0  0  0
  2  1  1  6
  2  3  1  0
  2 10  1  0
  3  4  1  0
  4  9  1  0
  5  4  2  0
  5  6  1  0
  6  7  2  0
  7  8  1  0
  9  8  2  0
 10 12  1  0
 10 11  2  0
 12 13  1  0
 13 20  1  0
 13 14  1  6
 14 15  1  0
 15 19  1  0
 15 16  2  0
 16 17  1  0
 18 17  1  0
 19 18  2  0
 20 21  2  0
 23 22  1  6
 23 24  1  0
 23 25  1  0
 25 27  1  0
 26 20  1  0
 25 26  1  6
 27 28  1  0
 29 27  2  0
M  END
$$$$
