FHV.pdb
     RDKit          3D

 29 30  0  0  1  0  0  0  0  0999 V2000
    5.8491  -18.1159   24.2411 N   0  0  0  0  0  0  0  0  0  0  0  0
    6.5610  -16.8801   24.2410 C   0  0  1  0  0  0  0  0  0  0  0  0
    6.1556  -16.0169   25.4331 C   0  0  0  0  0  0  0  0  0  0  0  0
    6.3819  -14.5765   25.1821 C   0  0  0  0  0  0  0  0  0  0  0  0
    6.9820  -14.2065   24.0013 C   0  0  0  0  0  0  0  0  0  0  0  0
    7.2301  -12.8740   23.6910 C   0  0  0  0  0  0  0  0  0  0  0  0
    6.8491  -11.9288   24.6183 C   0  0  0  0  0  0  0  0  0  0  0  0
    6.2459  -12.2873   25.8073 C   0  0  0  0  0  0  0  0  0  0  0  0
    6.0085  -13.6272   26.0947 C   0  0  0  0  0  0  0  0  0  0  0  0
    8.0291  -17.0420   24.2770 C   0  0  0  0  0  0  0  0  0  0  0  0
    8.5233  -18.0055   24.9392 O   0  0  0  0  0  0  0  0  0  0  0  0
    8.9419  -16.1958   23.6221 N   0  0  0  0  0  0  0  0  0  0  0  0
   10.3976  -16.5219   23.5292 C   0  0  1  0  0  0  0  0  0  0  0  0
   10.9684  -15.8518   22.3331 C   0  0  0  0  0  0  0  0  0  0  0  0
   12.4032  -16.0875   22.1304 C   0  0  0  0  0  0  0  0  0  0  0  0
   13.1856  -16.9665   22.8992 C   0  0  0  0  0  0  0  0  0  0  0  0
   14.4548  -16.9602   22.4678 N   0  0  0  0  0  0  0  0  0  0  0  0
   14.5073  -16.0982   21.4399 C   0  0  0  0  0  0  0  0  0  0  0  0
   13.2906  -15.5900   21.2507 N   0  0  0  0  0  0  0  0  0  0  0  0
   10.9822  -16.2431   24.8270 C   0  0  0  0  0  0  0  0  0  0  0  0
   12.2495  -16.3950   24.9693 O   0  0  0  0  0  0  0  0  0  0  0  0
    9.1301  -15.6411   28.7757 C   0  0  0  0  0  0  0  0  0  0  0  0
   10.2717  -14.7921   28.2522 C   0  0  2  0  0  0  0  0  0  0  0  0
    9.6658  -13.5460   27.6508 C   0  0  0  0  0  0  0  0  0  0  0  0
   11.0220  -15.6170   27.2449 C   0  0  2  0  0  0  0  0  0  0  0  0
   10.3494  -15.8061   26.0099 N   0  0  0  0  0  0  0  0  0  0  0  0
   11.4470  -16.8950   27.8141 C   0  0  0  0  0  0  0  0  0  0  0  0
   12.3985  -17.0166   28.8238 O   0  0  0  0  0  0  0  0  0  0  0  0
   10.9560  -17.9714   27.4030 O   0  0  0  0  0  0  0  0  0  0  0  0
  2  1  1  1
  2  3  1  0
  2 10  1  0
  3  4  1  0
  4  9  1  0
  5  4  2  0
  5  6  1  0
  6  7  2  0
  7  8  1  0
  9  8  2  0
 10 12  1  0
 10 11  2  0
 12 13  1  0
 13 20  1  0
 13 14  1  6
 14 15  1  0
 15 19  1  0
 15 16  2  0
 16 17  1  0
 18 17  1  0
 19 18  2  0
 20 21  2  0
 23 22  1  6
 23 24  1  0
 23 25  1  0
 25 27  1  0
 26 20  1  0
 25 26  1  6
 27 28  1  0
 29 27  2  0
M  END
$$$$
