FHV.pdb
     RDKit          3D

 29 30  0  0  1  0  0  0  0  0999 V2000
    6.3806  -17.8775   20.3871 N   0  0  0  0  0  0  0  0  0  0  0  0
    7.0109  -16.7833   21.0501 C   0  0  1  0  0  0  0  0  0  0  0  0
    6.2072  -15.4983   20.8667 C   0  0  0  0  0  0  0  0  0  0  0  0
    7.0688  -14.3447   20.5262 C   0  0  0  0  0  0  0  0  0  0  0  0
    8.4302  -14.5356   20.4901 C   0  0  0  0  0  0  0  0  0  0  0  0
    9.3075  -13.5024   20.1794 C   0  0  0  0  0  0  0  0  0  0  0  0
    8.7578  -12.2688   19.9064 C   0  0  0  0  0  0  0  0  0  0  0  0
    7.3929  -12.0643   19.9393 C   0  0  0  0  0  0  0  0  0  0  0  0
    6.5359  -13.1139   20.2529 C   0  0  0  0  0  0  0  0  0  0  0  0
    7.1986  -16.9974   22.4998 C   0  0  0  0  0  0  0  0  0  0  0  0
    6.1765  -17.1808   23.2296 O   0  0  0  0  0  0  0  0  0  0  0  0
    8.4461  -17.0147   23.1492 N   0  0  0  0  0  0  0  0  0  0  0  0
    8.5667  -17.2005   24.6274 C   0  0  1  0  0  0  0  0  0  0  0  0
    9.3178  -18.4526   24.8983 C   0  0  0  0  0  0  0  0  0  0  0  0
    8.6204  -19.6798   24.4947 C   0  0  0  0  0  0  0  0  0  0  0  0
    7.2412  -19.9033   24.6487 C   0  0  0  0  0  0  0  0  0  0  0  0
    6.9104  -21.1165   24.1844 N   0  0  0  0  0  0  0  0  0  0  0  0
    8.0438  -21.6787   23.7355 C   0  0  0  0  0  0  0  0  0  0  0  0
    9.0455  -20.8212   23.9242 N   0  0  0  0  0  0  0  0  0  0  0  0
    9.0706  -15.9556   25.1754 C   0  0  0  0  0  0  0  0  0  0  0  0
   10.2494  -15.5744   24.8371 O   0  0  0  0  0  0  0  0  0  0  0  0
    7.0779  -12.8340   27.4410 C   0  0  0  0  0  0  0  0  0  0  0  0
    8.3452  -12.6606   26.6274 C   0  0  2  0  0  0  0  0  0  0  0  0
    7.9306  -12.2819   25.2251 C   0  0  0  0  0  0  0  0  0  0  0  0
    9.0959  -13.9612   26.6793 C   0  0  2  0  0  0  0  0  0  0  0  0
    8.4383  -15.0540   26.0575 N   0  0  0  0  0  0  0  0  0  0  0  0
    9.4907  -14.2936   28.0474 C   0  0  0  0  0  0  0  0  0  0  0  0
   10.3316  -13.5025   28.8263 O   0  0  0  0  0  0  0  0  0  0  0  0
    9.0745  -15.3403   28.5951 O   0  0  0  0  0  0  0  0  0  0  0  0
  2  1  1  1
  2  3  1  0
  2 10  1  0
  3  4  1  0
  4  9  1  0
  5  4  2  0
  5  6  1  0
  6  7  2  0
  7  8  1  0
  9  8  2  0
 10 12  1  0
 10 11  2  0
 12 13  1  0
 13 20  1  0
 13 14  1  6
 14 15  1  0
 15 19  1  0
 15 16  2  0
 16 17  1  0
 18 17  1  0
 19 18  2  0
 20 21  2  0
 23 22  1  1
 23 24  1  0
 23 25  1  0
 25 27  1  0
 26 20  1  0
 25 26  1  1
 27 28  1  0
 29 27  2  0
M  END
$$$$
