FHV.pdb
     RDKit          3D

 29 30  0  0  1  0  0  0  0  0999 V2000
    5.8762  -16.2642   25.1005 N   0  0  0  0  0  0  0  0  0  0  0  0
    6.7701  -15.9984   24.0216 C   0  0  1  0  0  0  0  0  0  0  0  0
    6.8218  -14.5046   23.7114 C   0  0  0  0  0  0  0  0  0  0  0  0
    6.8996  -13.6818   24.9385 C   0  0  0  0  0  0  0  0  0  0  0  0
    5.9254  -13.8442   25.8956 C   0  0  0  0  0  0  0  0  0  0  0  0
    5.9270  -13.1088   27.0756 C   0  0  0  0  0  0  0  0  0  0  0  0
    6.9499  -12.2028   27.2530 C   0  0  0  0  0  0  0  0  0  0  0  0
    7.9337  -12.0304   26.2999 C   0  0  0  0  0  0  0  0  0  0  0  0
    7.9101  -12.7782   25.1274 C   0  0  0  0  0  0  0  0  0  0  0  0
    8.1521  -16.4579   24.2702 C   0  0  0  0  0  0  0  0  0  0  0  0
    8.3692  -17.2534   25.2350 O   0  0  0  0  0  0  0  0  0  0  0  0
    9.2698  -16.0759   23.5067 N   0  0  0  0  0  0  0  0  0  0  0  0
   10.6347  -16.6245   23.7717 C   0  0  1  0  0  0  0  0  0  0  0  0
   11.4719  -16.4468   22.5581 C   0  0  0  0  0  0  0  0  0  0  0  0
   11.0166  -17.2078   21.3881 C   0  0  0  0  0  0  0  0  0  0  0  0
   10.2251  -18.3679   21.4473 C   0  0  0  0  0  0  0  0  0  0  0  0
    9.9778  -18.8276   20.2126 N   0  0  0  0  0  0  0  0  0  0  0  0
   10.5914  -17.9909   19.3607 C   0  0  0  0  0  0  0  0  0  0  0  0
   11.2007  -17.0395   20.0664 N   0  0  0  0  0  0  0  0  0  0  0  0
   11.0921  -16.0484   25.0218 C   0  0  0  0  0  0  0  0  0  0  0  0
   11.9646  -15.1071   24.9753 O   0  0  0  0  0  0  0  0  0  0  0  0
    9.4037  -15.1977   28.6991 C   0  0  0  0  0  0  0  0  0  0  0  0
   10.7593  -14.7475   28.1913 C   0  0  2  0  0  0  0  0  0  0  0  0
   10.5261  -13.5781   27.2641 C   0  0  0  0  0  0  0  0  0  0  0  0
   11.3935  -15.9203   27.4982 C   0  0  2  0  0  0  0  0  0  0  0  0
   10.7075  -16.3704   26.3405 N   0  0  0  0  0  0  0  0  0  0  0  0
   11.6348  -17.0218   28.4290 C   0  0  0  0  0  0  0  0  0  0  0  0
   12.4487  -16.9224   29.5546 O   0  0  0  0  0  0  0  0  0  0  0  0
   11.1008  -18.1400   28.2463 O   0  0  0  0  0  0  0  0  0  0  0  0
  2  1  1  1
  2  3  1  0
  2 10  1  0
  3  4  1  0
  4  9  1  0
  5  4  2  0
  5  6  1  0
  6  7  2  0
  7  8  1  0
  9  8  2  0
 10 12  1  0
 10 11  2  0
 12 13  1  0
 13 20  1  0
 13 14  1  6
 14 15  1  0
 15 19  1  0
 15 16  2  0
 16 17  1  0
 18 17  1  0
 19 18  2  0
 20 21  2  0
 23 22  1  6
 23 24  1  0
 23 25  1  0
 25 27  1  0
 26 20  1  0
 25 26  1  6
 27 28  1  0
 29 27  2  0
M  END
$$$$
