CTF.pdb
     RDKit          3D

 25 25  0  0  1  0  0  0  0  0999 V2000
   23.3085  -16.2985  -16.8453 N   0  0  0  0  0  0  0  0  0  0  0  0
   23.2778  -15.0746  -17.5833 C   0  0  1  0  0  0  0  0  0  0  0  0
   21.8916  -14.7109  -18.0658 C   0  0  0  0  0  0  0  0  0  0  0  0
   21.1753  -15.9589  -19.1357 S   0  0  0  0  0  0  0  0  0  0  0  0
   23.7149  -13.9537  -16.6789 C   0  0  0  0  0  0  0  0  0  0  0  0
   23.4472  -13.9811  -15.4496 O   0  0  0  0  0  0  0  0  0  0  0  0
   26.6445  -10.3455  -15.5113 C   0  0  0  0  0  0  0  0  0  0  0  0
   26.2667  -11.4991  -16.3946 C   0  0  1  0  0  0  0  0  0  0  0  0
   26.9860  -12.6155  -15.9731 O   0  0  0  0  0  0  0  0  0  0  0  0
   24.7604  -11.7496  -16.2688 C   0  0  2  0  0  0  0  0  0  0  0  0
   24.4349  -12.8389  -17.1689 N   0  0  0  0  0  0  0  0  0  0  0  0
   24.0201  -10.5194  -16.6667 C   0  0  0  0  0  0  0  0  0  0  0  0
   23.9240  -10.2338  -17.8829 O   0  0  0  0  0  0  0  0  0  0  0  0
   23.4226   -9.6629  -15.7258 N   0  0  0  0  0  0  0  0  0  0  0  0
   22.6940   -8.4668  -16.1098 C   0  0  1  0  0  0  0  0  0  0  0  0
   21.5450   -8.9015  -16.9603 C   0  0  0  0  0  0  0  0  0  0  0  0
   20.7237   -7.7624  -17.4303 C   0  0  0  0  0  0  0  0  0  0  0  0
   19.5428   -7.4798  -16.7612 C   0  0  0  0  0  0  0  0  0  0  0  0
   18.7238   -6.4369  -17.1304 C   0  0  0  0  0  0  0  0  0  0  0  0
   19.0989   -5.6550  -18.2006 C   0  0  0  0  0  0  0  0  0  0  0  0
   20.2702   -5.9173  -18.8819 C   0  0  0  0  0  0  0  0  0  0  0  0
   21.0736   -6.9683  -18.4921 C   0  0  0  0  0  0  0  0  0  0  0  0
   22.3170   -7.6473  -14.9564 C   0  0  0  0  0  0  0  0  0  0  0  0
   22.1387   -8.2311  -13.6886 O   0  0  0  0  0  0  0  0  0  0  0  0
   22.1365   -6.4104  -15.0316 O   0  0  0  0  0  0  0  0  0  0  0  0
  2  1  1  1
  3  2  1  0
  4  3  1  0
  5  2  1  0
  5  6  2  0
  8  7  1  1
  8  9  1  0
  8 10  1  0
 10 11  1  6
 11  5  1  0
 12 10  1  0
 13 12  2  0
 14 12  1  0
 15 14  1  0
 15 16  1  1
 16 17  1  0
 17 22  2  0
 18 19  2  0
 18 17  1  0
 19 20  1  0
 20 21  2  0
 22 21  1  0
 23 15  1  0
 24 23  1  0
 25 23  2  0
M  END
$$$$
