CTF.pdb
     RDKit          3D

 25 25  0  0  1  0  0  0  0  0999 V2000
   13.2214   -5.1853   -9.1527 N   0  0  0  0  0  0  0  0  0  0  0  0
   14.5996   -5.5568   -9.0749 C   0  0  1  0  0  0  0  0  0  0  0  0
   14.8016   -6.9804   -8.6069 C   0  0  0  0  0  0  0  0  0  0  0  0
   15.0214   -7.1068   -6.8317 S   0  0  0  0  0  0  0  0  0  0  0  0
   15.1998   -5.4790  -10.4530 C   0  0  0  0  0  0  0  0  0  0  0  0
   14.5937   -5.9632  -11.4439 O   0  0  0  0  0  0  0  0  0  0  0  0
   17.7481   -3.1658  -13.7236 C   0  0  0  0  0  0  0  0  0  0  0  0
   17.0060   -3.3126  -12.4270 C   0  0  1  0  0  0  0  0  0  0  0  0
   15.7146   -2.8242  -12.6142 O   0  0  0  0  0  0  0  0  0  0  0  0
   16.9707   -4.7943  -12.0388 C   0  0  2  0  0  0  0  0  0  0  0  0
   16.4534   -4.8663  -10.6860 N   0  0  0  0  0  0  0  0  0  0  0  0
   18.3518   -5.3510  -12.0880 C   0  0  0  0  0  0  0  0  0  0  0  0
   19.1338   -5.1232  -11.1360 O   0  0  0  0  0  0  0  0  0  0  0  0
   18.8133   -6.1255  -13.1665 N   0  0  0  0  0  0  0  0  0  0  0  0
   20.1860   -6.5890  -13.2648 C   0  0  1  0  0  0  0  0  0  0  0  0
   20.1624   -7.8939  -13.9922 C   0  0  0  0  0  0  0  0  0  0  0  0
   21.5201   -8.4321  -14.2371 C   0  0  0  0  0  0  0  0  0  0  0  0
   22.0561   -9.3163  -13.3137 C   0  0  0  0  0  0  0  0  0  0  0  0
   23.3087   -9.8657  -13.4680 C   0  0  0  0  0  0  0  0  0  0  0  0
   24.0451   -9.5192  -14.5793 C   0  0  0  0  0  0  0  0  0  0  0  0
   23.5321   -8.6408  -15.5121 C   0  0  0  0  0  0  0  0  0  0  0  0
   22.2742   -8.1040  -15.3344 C   0  0  0  0  0  0  0  0  0  0  0  0
   21.0746   -5.5846  -13.8526 C   0  0  0  0  0  0  0  0  0  0  0  0
   22.3735   -5.3913  -13.3469 O   0  0  0  0  0  0  0  0  0  0  0  0
   20.7368   -4.8586  -14.8153 O   0  0  0  0  0  0  0  0  0  0  0  0
  2  1  1  6
  3  2  1  0
  4  3  1  0
  5  2  1  0
  5  6  2  0
  8  7  1  6
  8  9  1  0
  8 10  1  0
 10 11  1  1
 11  5  1  0
 12 10  1  0
 13 12  2  0
 14 12  1  0
 15 14  1  0
 15 16  1  6
 16 17  1  0
 17 22  2  0
 18 19  2  0
 18 17  1  0
 19 20  1  0
 20 21  2  0
 22 21  1  0
 23 15  1  0
 24 23  1  0
 25 23  2  0
M  END
$$$$
