CTF.pdb
     RDKit          3D

 25 25  0  0  1  0  0  0  0  0999 V2000
   25.5105  -22.9366  -16.8570 N   0  0  0  0  0  0  0  0  0  0  0  0
   25.3601  -23.1945  -15.4591 C   0  0  1  0  0  0  0  0  0  0  0  0
   25.9032  -24.5440  -15.0460 C   0  0  0  0  0  0  0  0  0  0  0  0
   24.8665  -25.9063  -15.5795 S   0  0  0  0  0  0  0  0  0  0  0  0
   26.1517  -22.1706  -14.6907 C   0  0  0  0  0  0  0  0  0  0  0  0
   26.7710  -21.2556  -15.2932 O   0  0  0  0  0  0  0  0  0  0  0  0
   25.7500  -19.5885  -14.3874 C   0  0  0  0  0  0  0  0  0  0  0  0
   25.6296  -19.9015  -12.9241 C   0  0  1  0  0  0  0  0  0  0  0  0
   24.3268  -20.3331  -12.6836 O   0  0  0  0  0  0  0  0  0  0  0  0
   26.6359  -20.9999  -12.5659 C   0  0  2  0  0  0  0  0  0  0  0  0
   26.2301  -22.1959  -13.2785 N   0  0  0  0  0  0  0  0  0  0  0  0
   26.5992  -21.2434  -11.0965 C   0  0  0  0  0  0  0  0  0  0  0  0
   25.8736  -22.1620  -10.6499 O   0  0  0  0  0  0  0  0  0  0  0  0
   27.3510  -20.4786  -10.1877 N   0  0  0  0  0  0  0  0  0  0  0  0
   27.3036  -20.7001   -8.7533 C   0  0  1  0  0  0  0  0  0  0  0  0
   28.3720  -19.8556   -8.1387 C   0  0  0  0  0  0  0  0  0  0  0  0
   28.3323  -19.8781   -6.6585 C   0  0  0  0  0  0  0  0  0  0  0  0
   27.5254  -18.9589   -6.0059 C   0  0  0  0  0  0  0  0  0  0  0  0
   27.4277  -18.9150   -4.6336 C   0  0  0  0  0  0  0  0  0  0  0  0
   28.1596  -19.8179   -3.8943 C   0  0  0  0  0  0  0  0  0  0  0  0
   28.9697  -20.7422   -4.5221 C   0  0  0  0  0  0  0  0  0  0  0  0
   29.0502  -20.7656   -5.8987 C   0  0  0  0  0  0  0  0  0  0  0  0
   25.9663  -20.4829   -8.1979 C   0  0  0  0  0  0  0  0  0  0  0  0
   25.1704  -19.4105   -8.6411 O   0  0  0  0  0  0  0  0  0  0  0  0
   25.4677  -21.2217   -7.3182 O   0  0  0  0  0  0  0  0  0  0  0  0
  2  1  1  6
  3  2  1  0
  4  3  1  0
  5  2  1  0
  5  6  2  0
  8  7  1  6
  8  9  1  0
  8 10  1  0
 10 11  1  6
 11  5  1  0
 12 10  1  0
 13 12  2  0
 14 12  1  0
 15 14  1  0
 15 16  1  1
 16 17  1  0
 17 22  2  0
 18 19  2  0
 18 17  1  0
 19 20  1  0
 20 21  2  0
 22 21  1  0
 23 15  1  0
 24 23  1  0
 25 23  2  0
M  END
$$$$
