CTF.pdb
     RDKit          3D

 25 25  0  0  1  0  0  0  0  0999 V2000
   27.3490  -21.1976   -9.8679 N   0  0  0  0  0  0  0  0  0  0  0  0
   26.0616  -21.0369  -10.4681 C   0  0  1  0  0  0  0  0  0  0  0  0
   25.1284  -20.1800   -9.6426 C   0  0  0  0  0  0  0  0  0  0  0  0
   24.1628  -21.1312   -8.4686 S   0  0  0  0  0  0  0  0  0  0  0  0
   26.2274  -20.3277  -11.7853 C   0  0  0  0  0  0  0  0  0  0  0  0
   26.8615  -19.2428  -11.8534 O   0  0  0  0  0  0  0  0  0  0  0  0
   26.0746  -22.2780  -15.3937 C   0  0  0  0  0  0  0  0  0  0  0  0
   26.7613  -20.9708  -15.1227 C   0  0  1  0  0  0  0  0  0  0  0  0
   26.9764  -20.3377  -16.3451 O   0  0  0  0  0  0  0  0  0  0  0  0
   25.8641  -20.1146  -14.2230 C   0  0  2  0  0  0  0  0  0  0  0  0
   25.6838  -20.8462  -12.9840 N   0  0  0  0  0  0  0  0  0  0  0  0
   24.5483  -19.9080  -14.8905 C   0  0  0  0  0  0  0  0  0  0  0  0
   23.6744  -20.8015  -14.8023 O   0  0  0  0  0  0  0  0  0  0  0  0
   24.2482  -18.7437  -15.6188 N   0  0  0  0  0  0  0  0  0  0  0  0
   22.9939  -18.5679  -16.3292 C   0  0  1  0  0  0  0  0  0  0  0  0
   22.2808  -17.4196  -15.6925 C   0  0  0  0  0  0  0  0  0  0  0  0
   20.9824  -17.1271  -16.3418 C   0  0  0  0  0  0  0  0  0  0  0  0
   20.9124  -16.0627  -17.2274 C   0  0  0  0  0  0  0  0  0  0  0  0
   19.7462  -15.7260  -17.8764 C   0  0  0  0  0  0  0  0  0  0  0  0
   18.6181  -16.4773  -17.6310 C   0  0  0  0  0  0  0  0  0  0  0  0
   18.6638  -17.5415  -16.7534 C   0  0  0  0  0  0  0  0  0  0  0  0
   19.8448  -17.8585  -16.1156 C   0  0  0  0  0  0  0  0  0  0  0  0
   23.1839  -18.4355  -17.7750 C   0  0  0  0  0  0  0  0  0  0  0  0
   22.2572  -18.9936  -18.6749 O   0  0  0  0  0  0  0  0  0  0  0  0
   24.1585  -17.8326  -18.2799 O   0  0  0  0  0  0  0  0  0  0  0  0
  2  1  1  1
  3  2  1  0
  4  3  1  0
  5  2  1  0
  5  6  2  0
  8  7  1  6
  8  9  1  0
  8 10  1  0
 10 11  1  1
 11  5  1  0
 12 10  1  0
 13 12  2  0
 14 12  1  0
 15 14  1  0
 15 16  1  1
 16 17  1  0
 17 22  2  0
 18 19  2  0
 18 17  1  0
 19 20  1  0
 20 21  2  0
 22 21  1  0
 23 15  1  0
 24 23  1  0
 25 23  2  0
M  END
$$$$
