CTF.pdb
     RDKit          3D

 25 25  0  0  1  0  0  0  0  0999 V2000
   29.0194  -20.4383  -17.6026 N   0  0  0  0  0  0  0  0  0  0  0  0
   27.9199  -21.3165  -17.3510 C   0  0  1  0  0  0  0  0  0  0  0  0
   28.3488  -22.6531  -16.7888 C   0  0  0  0  0  0  0  0  0  0  0  0
   29.1398  -23.7021  -18.0092 S   0  0  0  0  0  0  0  0  0  0  0  0
   27.0292  -20.6905  -16.3117 C   0  0  0  0  0  0  0  0  0  0  0  0
   27.5135  -20.2356  -15.2430 O   0  0  0  0  0  0  0  0  0  0  0  0
   25.6438  -17.7035  -16.0563 C   0  0  0  0  0  0  0  0  0  0  0  0
   24.4236  -18.5764  -16.0015 C   0  0  1  0  0  0  0  0  0  0  0  0
   23.9116  -18.6795  -17.2933 O   0  0  0  0  0  0  0  0  0  0  0  0
   24.8225  -19.9563  -15.4683 C   0  0  2  0  0  0  0  0  0  0  0  0
   25.6298  -20.5899  -16.4929 N   0  0  0  0  0  0  0  0  0  0  0  0
   23.5950  -20.7616  -15.2143 C   0  0  0  0  0  0  0  0  0  0  0  0
   23.1871  -21.5454  -16.1025 O   0  0  0  0  0  0  0  0  0  0  0  0
   22.8737  -20.6752  -14.0109 N   0  0  0  0  0  0  0  0  0  0  0  0
   21.6350  -21.3999  -13.7885 C   0  0  1  0  0  0  0  0  0  0  0  0
   21.3504  -21.3521  -12.3225 C   0  0  0  0  0  0  0  0  0  0  0  0
   20.0844  -22.0334  -11.9674 C   0  0  0  0  0  0  0  0  0  0  0  0
   18.9754  -21.2546  -11.6748 C   0  0  0  0  0  0  0  0  0  0  0  0
   17.7603  -21.8078  -11.3400 C   0  0  0  0  0  0  0  0  0  0  0  0
   17.6535  -23.1805  -11.2971 C   0  0  0  0  0  0  0  0  0  0  0  0
   18.7440  -23.9761  -11.5845 C   0  0  0  0  0  0  0  0  0  0  0  0
   19.9508  -23.3972  -11.9174 C   0  0  0  0  0  0  0  0  0  0  0  0
   20.5428  -20.9126  -14.6332 C   0  0  0  0  0  0  0  0  0  0  0  0
   20.3788  -19.5354  -14.8709 O   0  0  0  0  0  0  0  0  0  0  0  0
   19.7130  -21.6758  -15.1784 O   0  0  0  0  0  0  0  0  0  0  0  0
  2  1  1  1
  3  2  1  0
  4  3  1  0
  5  2  1  0
  5  6  2  0
  8  7  1  6
  8  9  1  0
  8 10  1  0
 10 11  1  6
 11  5  1  0
 12 10  1  0
 13 12  2  0
 14 12  1  0
 15 14  1  0
 15 16  1  1
 16 17  1  0
 17 22  2  0
 18 19  2  0
 18 17  1  0
 19 20  1  0
 20 21  2  0
 22 21  1  0
 23 15  1  0
 24 23  1  0
 25 23  2  0
M  END
$$$$
