CTF.pdb
     RDKit          3D

 25 25  0  0  1  0  0  0  0  0999 V2000
   19.6698  -14.2316  -18.0621 N   0  0  0  0  0  0  0  0  0  0  0  0
   18.9653  -13.3829  -17.1527 C   0  0  1  0  0  0  0  0  0  0  0  0
   19.0051  -13.8838  -15.7265 C   0  0  0  0  0  0  0  0  0  0  0  0
   17.7878  -15.1596  -15.4009 S   0  0  0  0  0  0  0  0  0  0  0  0
   19.6275  -12.0312  -17.1413 C   0  0  0  0  0  0  0  0  0  0  0  0
   20.8752  -11.9281  -17.2692 O   0  0  0  0  0  0  0  0  0  0  0  0
   18.8962   -9.2990  -19.4362 C   0  0  0  0  0  0  0  0  0  0  0  0
   18.7727   -8.6989  -18.0658 C   0  0  1  0  0  0  0  0  0  0  0  0
   17.4211   -8.6750  -17.7282 O   0  0  0  0  0  0  0  0  0  0  0  0
   19.5610   -9.5593  -17.0729 C   0  0  2  0  0  0  0  0  0  0  0  0
   18.8828  -10.8383  -16.9882 N   0  0  0  0  0  0  0  0  0  0  0  0
   19.5670   -8.8948  -15.7394 C   0  0  0  0  0  0  0  0  0  0  0  0
   18.8389   -9.3525  -14.8283 O   0  0  0  0  0  0  0  0  0  0  0  0
   20.3619   -7.7689  -15.4630 N   0  0  0  0  0  0  0  0  0  0  0  0
   20.3334   -7.0880  -14.1806 C   0  0  1  0  0  0  0  0  0  0  0  0
   21.6752   -7.2738  -13.5500 C   0  0  0  0  0  0  0  0  0  0  0  0
   22.7757   -6.7527  -14.3927 C   0  0  0  0  0  0  0  0  0  0  0  0
   23.0363   -5.3912  -14.3702 C   0  0  0  0  0  0  0  0  0  0  0  0
   24.0432   -4.8262  -15.1195 C   0  0  0  0  0  0  0  0  0  0  0  0
   24.8109   -5.6489  -15.9139 C   0  0  0  0  0  0  0  0  0  0  0  0
   24.5700   -7.0073  -15.9525 C   0  0  0  0  0  0  0  0  0  0  0  0
   23.5549   -7.5491  -15.1920 C   0  0  0  0  0  0  0  0  0  0  0  0
   19.9083   -5.6918  -14.2982 C   0  0  0  0  0  0  0  0  0  0  0  0
   19.7135   -5.1048  -15.5622 O   0  0  0  0  0  0  0  0  0  0  0  0
   19.6992   -4.9591  -13.3044 O   0  0  0  0  0  0  0  0  0  0  0  0
  2  1  1  6
  3  2  1  0
  4  3  1  0
  5  2  1  0
  5  6  2  0
  8  7  1  6
  8  9  1  0
  8 10  1  0
 10 11  1  1
 11  5  1  0
 12 10  1  0
 13 12  2  0
 14 12  1  0
 15 14  1  0
 15 16  1  6
 16 17  1  0
 17 22  2  0
 18 19  2  0
 18 17  1  0
 19 20  1  0
 20 21  2  0
 22 21  1  0
 23 15  1  0
 24 23  1  0
 25 23  2  0
M  END
$$$$
