CTF.pdb
     RDKit          3D

 25 25  0  0  1  0  0  0  0  0999 V2000
   19.7436  -15.3054  -19.4915 N   0  0  0  0  0  0  0  0  0  0  0  0
   19.6091  -14.4936  -18.3225 C   0  0  1  0  0  0  0  0  0  0  0  0
   19.9034  -15.2460  -17.0443 C   0  0  0  0  0  0  0  0  0  0  0  0
   19.5964  -14.2684  -15.5728 S   0  0  0  0  0  0  0  0  0  0  0  0
   20.6143  -13.3755  -18.3922 C   0  0  0  0  0  0  0  0  0  0  0  0
   21.5009  -13.3659  -19.2853 O   0  0  0  0  0  0  0  0  0  0  0  0
   21.2439  -11.4904  -20.1021 C   0  0  0  0  0  0  0  0  0  0  0  0
   21.0903  -10.5068  -18.9784 C   0  0  1  0  0  0  0  0  0  0  0  0
   19.7541  -10.1146  -18.9314 O   0  0  0  0  0  0  0  0  0  0  0  0
   21.5000  -11.1829  -17.6659 C   0  0  2  0  0  0  0  0  0  0  0  0
   20.6023  -12.3044  -17.4682 N   0  0  0  0  0  0  0  0  0  0  0  0
   21.3589  -10.2117  -16.5449 C   0  0  0  0  0  0  0  0  0  0  0  0
   20.2447  -10.0851  -15.9862 O   0  0  0  0  0  0  0  0  0  0  0  0
   22.4329   -9.4282  -16.0880 N   0  0  0  0  0  0  0  0  0  0  0  0
   22.2801   -8.4192  -15.0548 C   0  0  1  0  0  0  0  0  0  0  0  0
   23.4603   -8.5333  -14.1457 C   0  0  0  0  0  0  0  0  0  0  0  0
   24.6570   -9.0700  -14.8334 C   0  0  0  0  0  0  0  0  0  0  0  0
   25.1482  -10.3042  -14.4365 C   0  0  0  0  0  0  0  0  0  0  0  0
   26.2524  -10.8765  -15.0261 C   0  0  0  0  0  0  0  0  0  0  0  0
   26.8824  -10.1926  -16.0424 C   0  0  0  0  0  0  0  0  0  0  0  0
   26.4114   -8.9624  -16.4544 C   0  0  0  0  0  0  0  0  0  0  0  0
   25.3028   -8.4104  -15.8473 C   0  0  0  0  0  0  0  0  0  0  0  0
   22.0696   -7.0799  -15.6079 C   0  0  0  0  0  0  0  0  0  0  0  0
   21.5778   -6.0386  -14.7993 O   0  0  0  0  0  0  0  0  0  0  0  0
   22.3095   -6.7928  -16.8029 O   0  0  0  0  0  0  0  0  0  0  0  0
  2  1  1  6
  3  2  1  0
  4  3  1  0
  5  2  1  0
  5  6  2  0
  8  7  1  6
  8  9  1  0
  8 10  1  0
 10 11  1  1
 11  5  1  0
 12 10  1  0
 13 12  2  0
 14 12  1  0
 15 14  1  0
 15 16  1  6
 16 17  1  0
 17 22  2  0
 18 19  2  0
 18 17  1  0
 19 20  1  0
 20 21  2  0
 22 21  1  0
 23 15  1  0
 24 23  1  0
 25 23  2  0
M  END
$$$$
