CTF.pdb
     RDKit          3D

 25 25  0  0  1  0  0  0  0  0999 V2000
   30.5677  -26.0567  -17.3210 N   0  0  0  0  0  0  0  0  0  0  0  0
   29.4711  -25.6289  -16.5099 C   0  0  1  0  0  0  0  0  0  0  0  0
   29.5037  -24.1478  -16.2068 C   0  0  0  0  0  0  0  0  0  0  0  0
   29.3452  -23.1313  -17.6754 S   0  0  0  0  0  0  0  0  0  0  0  0
   28.1898  -25.8754  -17.2603 C   0  0  0  0  0  0  0  0  0  0  0  0
   28.1903  -25.9697  -18.5152 O   0  0  0  0  0  0  0  0  0  0  0  0
   25.8364  -28.6861  -16.8960 C   0  0  0  0  0  0  0  0  0  0  0  0
   25.0265  -27.4379  -16.6963 C   0  0  1  0  0  0  0  0  0  0  0  0
   24.9037  -27.2211  -15.3254 O   0  0  0  0  0  0  0  0  0  0  0  0
   25.7489  -26.2638  -17.3650 C   0  0  2  0  0  0  0  0  0  0  0  0
   26.9497  -26.0093  -16.5928 N   0  0  0  0  0  0  0  0  0  0  0  0
   24.8652  -25.0644  -17.3457 C   0  0  0  0  0  0  0  0  0  0  0  0
   25.1497  -24.1113  -16.5838 O   0  0  0  0  0  0  0  0  0  0  0  0
   23.7192  -24.9607  -18.1530 N   0  0  0  0  0  0  0  0  0  0  0  0
   22.8306  -23.8131  -18.1049 C   0  0  1  0  0  0  0  0  0  0  0  0
   23.5915  -22.6407  -18.6331 C   0  0  0  0  0  0  0  0  0  0  0  0
   22.7654  -21.4138  -18.7060 C   0  0  0  0  0  0  0  0  0  0  0  0
   22.0432  -21.1722  -19.8645 C   0  0  0  0  0  0  0  0  0  0  0  0
   21.2478  -20.0587  -20.0123 C   0  0  0  0  0  0  0  0  0  0  0  0
   21.1739  -19.1617  -18.9696 C   0  0  0  0  0  0  0  0  0  0  0  0
   21.8839  -19.3812  -17.8066 C   0  0  0  0  0  0  0  0  0  0  0  0
   22.6740  -20.5049  -17.6833 C   0  0  0  0  0  0  0  0  0  0  0  0
   21.5571  -24.0631  -18.7828 C   0  0  0  0  0  0  0  0  0  0  0  0
   20.3640  -23.4922  -18.3024 O   0  0  0  0  0  0  0  0  0  0  0  0
   21.4603  -24.7819  -19.8036 O   0  0  0  0  0  0  0  0  0  0  0  0
  2  1  1  6
  3  2  1  0
  4  3  1  0
  5  2  1  0
  5  6  2  0
  8  7  1  1
  8  9  1  0
  8 10  1  0
 10 11  1  1
 11  5  1  0
 12 10  1  0
 13 12  2  0
 14 12  1  0
 15 14  1  0
 15 16  1  6
 16 17  1  0
 17 22  2  0
 18 19  2  0
 18 17  1  0
 19 20  1  0
 20 21  2  0
 22 21  1  0
 23 15  1  0
 24 23  1  0
 25 23  2  0
M  END
$$$$
