CTF.pdb
     RDKit          3D

 25 25  0  0  1  0  0  0  0  0999 V2000
   23.7103  -19.3848  -16.4450 N   0  0  0  0  0  0  0  0  0  0  0  0
   24.2512  -18.5069  -15.4550 C   0  0  1  0  0  0  0  0  0  0  0  0
   23.5317  -17.1786  -15.3876 C   0  0  0  0  0  0  0  0  0  0  0  0
   24.2920  -15.9203  -16.4142 S   0  0  0  0  0  0  0  0  0  0  0  0
   24.0846  -19.1436  -14.1014 C   0  0  0  0  0  0  0  0  0  0  0  0
   22.9566  -19.1788  -13.5446 O   0  0  0  0  0  0  0  0  0  0  0  0
   23.9373  -22.3099  -13.3083 C   0  0  0  0  0  0  0  0  0  0  0  0
   25.0522  -21.8894  -12.3951 C   0  0  1  0  0  0  0  0  0  0  0  0
   26.2584  -22.1963  -13.0214 O   0  0  0  0  0  0  0  0  0  0  0  0
   24.9453  -20.3823  -12.1407 C   0  0  2  0  0  0  0  0  0  0  0  0
   25.1758  -19.7203  -13.4101 N   0  0  0  0  0  0  0  0  0  0  0  0
   25.9845  -19.9728  -11.1547 C   0  0  0  0  0  0  0  0  0  0  0  0
   27.0917  -19.5618  -11.5731 O   0  0  0  0  0  0  0  0  0  0  0  0
   25.7695  -20.0302   -9.7668 N   0  0  0  0  0  0  0  0  0  0  0  0
   26.8448  -19.8793   -8.8025 C   0  0  1  0  0  0  0  0  0  0  0  0
   26.2234  -19.4765   -7.5048 C   0  0  0  0  0  0  0  0  0  0  0  0
   27.2225  -19.3097   -6.4245 C   0  0  0  0  0  0  0  0  0  0  0  0
   27.5544  -20.4150   -5.6561 C   0  0  0  0  0  0  0  0  0  0  0  0
   28.4760  -20.3472   -4.6360 C   0  0  0  0  0  0  0  0  0  0  0  0
   29.0823  -19.1374   -4.3786 C   0  0  0  0  0  0  0  0  0  0  0  0
   28.7678  -18.0235   -5.1303 C   0  0  0  0  0  0  0  0  0  0  0  0
   27.8408  -18.1177   -6.1472 C   0  0  0  0  0  0  0  0  0  0  0  0
   27.6954  -21.0684   -8.7228 C   0  0  0  0  0  0  0  0  0  0  0  0
   29.0962  -20.9465   -8.6674 O   0  0  0  0  0  0  0  0  0  0  0  0
   27.2353  -22.2328   -8.7000 O   0  0  0  0  0  0  0  0  0  0  0  0
  2  1  1  6
  3  2  1  0
  4  3  1  0
  5  2  1  0
  5  6  2  0
  8  7  1  6
  8  9  1  0
  8 10  1  0
 10 11  1  6
 11  5  1  0
 12 10  1  0
 13 12  2  0
 14 12  1  0
 15 14  1  0
 15 16  1  1
 16 17  1  0
 17 22  2  0
 18 19  2  0
 18 17  1  0
 19 20  1  0
 20 21  2  0
 22 21  1  0
 23 15  1  0
 24 23  1  0
 25 23  2  0
M  END
$$$$
