CTF.pdb
     RDKit          3D

 25 25  0  0  1  0  0  0  0  0999 V2000
   13.0768   -9.1743   -8.7685 N   0  0  0  0  0  0  0  0  0  0  0  0
   14.0553   -8.1770   -9.0708 C   0  0  1  0  0  0  0  0  0  0  0  0
   14.7635   -7.6533   -7.8417 C   0  0  0  0  0  0  0  0  0  0  0  0
   13.6917   -6.6867   -6.7776 S   0  0  0  0  0  0  0  0  0  0  0  0
   15.1204   -8.7920   -9.9386 C   0  0  0  0  0  0  0  0  0  0  0  0
   15.1367  -10.0324  -10.1505 O   0  0  0  0  0  0  0  0  0  0  0  0
   15.0508  -10.0905  -12.1504 C   0  0  0  0  0  0  0  0  0  0  0  0
   15.9501   -9.0253  -12.7074 C   0  0  1  0  0  0  0  0  0  0  0  0
   15.1506   -7.9600  -13.1168 O   0  0  0  0  0  0  0  0  0  0  0  0
   16.9267   -8.5773  -11.6151 C   0  0  2  0  0  0  0  0  0  0  0  0
   16.1325   -8.0098  -10.5427 N   0  0  0  0  0  0  0  0  0  0  0  0
   17.8484   -7.5462  -12.1691 C   0  0  0  0  0  0  0  0  0  0  0  0
   17.4281   -6.3766  -12.3276 O   0  0  0  0  0  0  0  0  0  0  0  0
   19.1776   -7.8366  -12.5223 N   0  0  0  0  0  0  0  0  0  0  0  0
   20.0325   -6.8794  -13.2019 C   0  0  1  0  0  0  0  0  0  0  0  0
   21.4257   -7.4173  -13.1544 C   0  0  0  0  0  0  0  0  0  0  0  0
   22.3738   -6.6094  -13.9553 C   0  0  0  0  0  0  0  0  0  0  0  0
   23.0125   -7.2124  -15.0279 C   0  0  0  0  0  0  0  0  0  0  0  0
   23.9043   -6.5319  -15.8255 C   0  0  0  0  0  0  0  0  0  0  0  0
   24.1635   -5.2095  -15.5401 C   0  0  0  0  0  0  0  0  0  0  0  0
   23.5396   -4.5881  -14.4774 C   0  0  0  0  0  0  0  0  0  0  0  0
   22.6498   -5.2920  -13.6932 C   0  0  0  0  0  0  0  0  0  0  0  0
   19.5533   -6.5585  -14.5477 C   0  0  0  0  0  0  0  0  0  0  0  0
   19.5042   -5.2246  -14.9931 O   0  0  0  0  0  0  0  0  0  0  0  0
   19.1695   -7.4321  -15.3587 O   0  0  0  0  0  0  0  0  0  0  0  0
  2  1  1  1
  3  2  1  0
  4  3  1  0
  5  2  1  0
  5  6  2  0
  8  7  1  1
  8  9  1  0
  8 10  1  0
 10 11  1  1
 11  5  1  0
 12 10  1  0
 13 12  2  0
 14 12  1  0
 15 14  1  0
 15 16  1  6
 16 17  1  0
 17 22  2  0
 18 19  2  0
 18 17  1  0
 19 20  1  0
 20 21  2  0
 22 21  1  0
 23 15  1  0
 24 23  1  0
 25 23  2  0
M  END
$$$$
