CTF.pdb
     RDKit          3D

 25 25  0  0  1  0  0  0  0  0999 V2000
   21.7827  -13.7578  -19.2404 N   0  0  0  0  0  0  0  0  0  0  0  0
   21.3719  -13.0576  -18.0638 C   0  0  1  0  0  0  0  0  0  0  0  0
   22.1523  -13.4622  -16.8335 C   0  0  0  0  0  0  0  0  0  0  0  0
   21.6054  -12.6154  -15.3505 S   0  0  0  0  0  0  0  0  0  0  0  0
   21.6311  -11.5880  -18.2606 C   0  0  0  0  0  0  0  0  0  0  0  0
   22.7246  -11.1888  -18.7385 O   0  0  0  0  0  0  0  0  0  0  0  0
   19.9178   -9.3040  -20.4326 C   0  0  0  0  0  0  0  0  0  0  0  0
   19.8040   -8.6892  -19.0678 C   0  0  1  0  0  0  0  0  0  0  0  0
   18.5694   -9.0539  -18.5347 O   0  0  0  0  0  0  0  0  0  0  0  0
   20.9456   -9.2121  -18.1897 C   0  0  2  0  0  0  0  0  0  0  0  0
   20.6676  -10.6096  -17.9203 N   0  0  0  0  0  0  0  0  0  0  0  0
   20.9800   -8.4429  -16.9143 C   0  0  0  0  0  0  0  0  0  0  0  0
   20.3100   -8.8530  -15.9382 O   0  0  0  0  0  0  0  0  0  0  0  0
   21.7388   -7.2693  -16.7633 N   0  0  0  0  0  0  0  0  0  0  0  0
   21.7448   -6.4952  -15.5346 C   0  0  1  0  0  0  0  0  0  0  0  0
   23.1634   -6.4048  -15.0744 C   0  0  0  0  0  0  0  0  0  0  0  0
   23.7644   -7.7346  -14.8223 C   0  0  0  0  0  0  0  0  0  0  0  0
   24.8235   -8.1418  -15.6188 C   0  0  0  0  0  0  0  0  0  0  0  0
   25.4414   -9.3599  -15.4483 C   0  0  0  0  0  0  0  0  0  0  0  0
   24.9850  -10.1936  -14.4513 C   0  0  0  0  0  0  0  0  0  0  0  0
   23.9320   -9.8095  -13.6460 C   0  0  0  0  0  0  0  0  0  0  0  0
   23.3297   -8.5836  -13.8371 C   0  0  0  0  0  0  0  0  0  0  0  0
   21.0738   -5.2025  -15.6848 C   0  0  0  0  0  0  0  0  0  0  0  0
   20.7600   -4.4214  -14.5571 O   0  0  0  0  0  0  0  0  0  0  0  0
   20.7493   -4.7306  -16.7984 O   0  0  0  0  0  0  0  0  0  0  0  0
  2  1  1  6
  3  2  1  0
  4  3  1  0
  5  2  1  0
  5  6  2  0
  8  7  1  6
  8  9  1  0
  8 10  1  0
 10 11  1  1
 11  5  1  0
 12 10  1  0
 13 12  2  0
 14 12  1  0
 15 14  1  0
 15 16  1  6
 16 17  1  0
 17 22  2  0
 18 19  2  0
 18 17  1  0
 19 20  1  0
 20 21  2  0
 22 21  1  0
 23 15  1  0
 24 23  1  0
 25 23  2  0
M  END
$$$$
