CHT.pdb
     RDKit          3D

 24 24  0  0  1  0  0  0  0  0999 V2000
    8.1018  -15.3796   16.6312 N   0  0  0  0  0  0  0  0  0  0  0  0
    8.8902  -14.7327   17.6582 C   0  0  1  0  0  0  0  0  0  0  0  0
    8.1327  -13.5321   18.1498 C   0  0  0  0  0  0  0  0  0  0  0  0
    8.1373  -12.3102   16.7827 S   0  0  0  0  0  0  0  0  0  0  0  0
    9.2547  -15.6750   18.7206 C   0  0  0  0  0  0  0  0  0  0  0  0
    8.3667  -16.4553   19.1635 O   0  0  0  0  0  0  0  0  0  0  0  0
   10.5371  -15.7841   19.2989 N   0  0  0  0  0  0  0  0  0  0  0  0
   10.8520  -16.5843   20.4424 C   0  0  1  0  0  0  0  0  0  0  0  0
   12.3490  -16.9230   20.4673 C   0  0  0  0  0  0  0  0  0  0  0  0
   12.6759  -17.8289   21.5943 C   0  0  0  0  0  0  0  0  0  0  0  0
   11.7626  -18.3442   22.5191 C   0  0  0  0  0  0  0  0  0  0  0  0
   12.4170  -19.1262   23.3960 N   0  0  0  0  0  0  0  0  0  0  0  0
   13.7352  -19.1211   23.0490 C   0  0  0  0  0  0  0  0  0  0  0  0
   13.8627  -18.3364   21.9667 N   0  0  0  0  0  0  0  0  0  0  0  0
   10.5558  -15.9047   21.7264 C   0  0  0  0  0  0  0  0  0  0  0  0
   11.1228  -14.7895   21.9169 O   0  0  0  0  0  0  0  0  0  0  0  0
    7.7604  -14.0123   22.8983 C   0  0  0  0  0  0  0  0  0  0  0  0
    7.9806  -15.1129   23.8876 C   0  0  1  0  0  0  0  0  0  0  0  0
    7.0501  -16.1431   23.7687 O   0  0  0  0  0  0  0  0  0  0  0  0
    9.4045  -15.6219   23.8813 C   0  0  2  0  0  0  0  0  0  0  0  0
    9.7058  -16.4106   22.7184 N   0  0  0  0  0  0  0  0  0  0  0  0
    9.6519  -16.3839   25.1350 C   0  0  0  0  0  0  0  0  0  0  0  0
    9.8282  -17.7715   25.0493 O   0  0  0  0  0  0  0  0  0  0  0  0
    9.6953  -15.7678   26.2239 O   0  0  0  0  0  0  0  0  0  0  0  0
  2  5  1  0
  2  1  1  6
  3  2  1  0
  4  3  1  0
  5  6  2  0
  7  8  1  0
  7  5  1  0
  9 10  1  0
  8  9  1  1
 10 14  1  0
 11 12  1  0
 11 10  2  0
 12 13  1  0
 13 14  2  0
 15  8  1  0
 15 21  1  0
 16 15  2  0
 18 17  1  6
 19 18  1  0
 20 21  1  6
 20 18  1  0
 22 20  1  0
 23 22  1  0
 24 22  2  0
M  END
$$$$
