CHT.pdb
     RDKit          3D

 24 24  0  0  1  0  0  0  0  0999 V2000
    7.6620  -19.0084   17.8708 N   0  0  0  0  0  0  0  0  0  0  0  0
    7.4793  -18.6713   19.2664 C   0  0  1  0  0  0  0  0  0  0  0  0
    7.5981  -19.9307   20.0766 C   0  0  0  0  0  0  0  0  0  0  0  0
    7.3914  -19.4483   21.8335 S   0  0  0  0  0  0  0  0  0  0  0  0
    8.4050  -17.6133   19.6828 C   0  0  0  0  0  0  0  0  0  0  0  0
    9.6026  -17.6720   19.2881 O   0  0  0  0  0  0  0  0  0  0  0  0
    8.0627  -16.5166   20.5019 N   0  0  0  0  0  0  0  0  0  0  0  0
    8.9626  -15.4735   20.8882 C   0  0  1  0  0  0  0  0  0  0  0  0
    8.2422  -14.1181   20.9022 C   0  0  0  0  0  0  0  0  0  0  0  0
    7.8658  -13.6959   19.5319 C   0  0  0  0  0  0  0  0  0  0  0  0
    8.6749  -12.9749   18.6484 C   0  0  0  0  0  0  0  0  0  0  0  0
    8.0034  -12.7733   17.5006 N   0  0  0  0  0  0  0  0  0  0  0  0
    6.7769  -13.3530   17.6332 C   0  0  0  0  0  0  0  0  0  0  0  0
    6.7207  -13.8984   18.8591 N   0  0  0  0  0  0  0  0  0  0  0  0
    9.5226  -15.6634   22.2478 C   0  0  0  0  0  0  0  0  0  0  0  0
    8.7110  -15.5485   23.2119 O   0  0  0  0  0  0  0  0  0  0  0  0
   11.1154  -18.7937   23.0022 C   0  0  0  0  0  0  0  0  0  0  0  0
   10.7553  -17.8380   24.0955 C   0  0  1  0  0  0  0  0  0  0  0  0
   11.1280  -18.2934   25.3585 O   0  0  0  0  0  0  0  0  0  0  0  0
   11.2467  -16.4340   23.8235 C   0  0  2  0  0  0  0  0  0  0  0  0
   10.8647  -15.9554   22.5234 N   0  0  0  0  0  0  0  0  0  0  0  0
   12.7226  -16.3935   24.0066 C   0  0  0  0  0  0  0  0  0  0  0  0
   13.2445  -16.6460   25.2825 O   0  0  0  0  0  0  0  0  0  0  0  0
   13.4518  -16.1366   23.0220 O   0  0  0  0  0  0  0  0  0  0  0  0
  2  5  1  0
  2  1  1  6
  3  2  1  0
  4  3  1  0
  5  6  2  0
  7  8  1  0
  7  5  1  0
  9 10  1  0
  8  9  1  1
 10 14  1  0
 11 12  1  0
 11 10  2  0
 12 13  1  0
 13 14  2  0
 15  8  1  0
 15 21  1  0
 16 15  2  0
 18 17  1  6
 19 18  1  0
 20 21  1  6
 20 18  1  0
 22 20  1  0
 23 22  1  0
 24 22  2  0
M  END
$$$$
