CHT.pdb
     RDKit          3D

 24 24  0  0  1  0  0  0  0  0999 V2000
    7.6709  -15.2712   17.7680 N   0  0  0  0  0  0  0  0  0  0  0  0
    8.4416  -14.6947   18.8490 C   0  0  1  0  0  0  0  0  0  0  0  0
    7.6514  -13.5630   19.4419 C   0  0  0  0  0  0  0  0  0  0  0  0
    7.8170  -12.1452   18.2910 S   0  0  0  0  0  0  0  0  0  0  0  0
    8.8325  -15.7156   19.8260 C   0  0  0  0  0  0  0  0  0  0  0  0
    7.9568  -16.5322   20.2260 O   0  0  0  0  0  0  0  0  0  0  0  0
   10.1279  -15.8638   20.3652 N   0  0  0  0  0  0  0  0  0  0  0  0
   10.4802  -16.7834   21.4031 C   0  0  1  0  0  0  0  0  0  0  0  0
   11.9510  -17.2035   21.2745 C   0  0  0  0  0  0  0  0  0  0  0  0
   12.1310  -18.2056   20.1969 C   0  0  0  0  0  0  0  0  0  0  0  0
   11.1507  -19.0855   19.7281 C   0  0  0  0  0  0  0  0  0  0  0  0
   11.6727  -19.8456   18.7490 N   0  0  0  0  0  0  0  0  0  0  0  0
   12.9717  -19.4678   18.5819 C   0  0  0  0  0  0  0  0  0  0  0  0
   13.2202  -18.4840   19.4615 N   0  0  0  0  0  0  0  0  0  0  0  0
   10.3260  -16.2121   22.7625 C   0  0  0  0  0  0  0  0  0  0  0  0
   10.9636  -15.1451   23.0002 O   0  0  0  0  0  0  0  0  0  0  0  0
    7.8874  -14.2512   24.4810 C   0  0  0  0  0  0  0  0  0  0  0  0
    8.0922  -15.4895   25.2953 C   0  0  1  0  0  0  0  0  0  0  0  0
    7.0490  -16.4038   25.1638 O   0  0  0  0  0  0  0  0  0  0  0  0
    9.4443  -16.1233   25.0569 C   0  0  2  0  0  0  0  0  0  0  0  0
    9.5355  -16.7689   23.7762 N   0  0  0  0  0  0  0  0  0  0  0  0
    9.7376  -17.0704   26.1661 C   0  0  0  0  0  0  0  0  0  0  0  0
    9.8345  -16.5634   27.4690 O   0  0  0  0  0  0  0  0  0  0  0  0
    9.8886  -18.2855   25.9058 O   0  0  0  0  0  0  0  0  0  0  0  0
  2  5  1  0
  2  1  1  6
  3  2  1  0
  4  3  1  0
  5  6  2  0
  7  8  1  0
  7  5  1  0
  9 10  1  0
  8  9  1  6
 10 14  1  0
 11 12  1  0
 11 10  2  0
 12 13  1  0
 13 14  2  0
 15  8  1  0
 15 21  1  0
 16 15  2  0
 18 17  1  6
 19 18  1  0
 20 21  1  6
 20 18  1  0
 22 20  1  0
 23 22  1  0
 24 22  2  0
M  END
$$$$
