CHT.pdb
     RDKit          3D

 24 24  0  0  1  0  0  0  0  0999 V2000
    5.0828  -18.8902   19.8379 N   0  0  0  0  0  0  0  0  0  0  0  0
    5.2003  -18.0348   20.9995 C   0  0  1  0  0  0  0  0  0  0  0  0
    4.8054  -18.8279   22.2127 C   0  0  0  0  0  0  0  0  0  0  0  0
    3.0379  -18.4586   22.5310 S   0  0  0  0  0  0  0  0  0  0  0  0
    6.5394  -17.4449   21.0914 C   0  0  0  0  0  0  0  0  0  0  0  0
    7.5326  -18.1535   20.7674 O   0  0  0  0  0  0  0  0  0  0  0  0
    6.8149  -16.1288   21.5191 N   0  0  0  0  0  0  0  0  0  0  0  0
    8.1255  -15.5700   21.6499 C   0  0  1  0  0  0  0  0  0  0  0  0
    8.0899  -14.0529   21.4188 C   0  0  0  0  0  0  0  0  0  0  0  0
    7.9855  -13.7320   19.9753 C   0  0  0  0  0  0  0  0  0  0  0  0
    6.9727  -12.9751   19.3783 C   0  0  0  0  0  0  0  0  0  0  0  0
    7.2054  -12.8924   18.0562 N   0  0  0  0  0  0  0  0  0  0  0  0
    8.3508  -13.5838   17.7952 C   0  0  0  0  0  0  0  0  0  0  0  0
    8.7974  -14.0764   18.9619 N   0  0  0  0  0  0  0  0  0  0  0  0
    8.7125  -15.7743   22.9960 C   0  0  0  0  0  0  0  0  0  0  0  0
    8.0061  -15.4069   23.9796 O   0  0  0  0  0  0  0  0  0  0  0  0
    8.7531  -18.5177   25.0691 C   0  0  0  0  0  0  0  0  0  0  0  0
   10.1895  -18.1383   24.8925 C   0  0  1  0  0  0  0  0  0  0  0  0
   10.8589  -18.9566   23.9849 O   0  0  0  0  0  0  0  0  0  0  0  0
   10.3671  -16.6694   24.5803 C   0  0  2  0  0  0  0  0  0  0  0  0
    9.9724  -16.3363   23.2392 N   0  0  0  0  0  0  0  0  0  0  0  0
   11.7804  -16.2859   24.8430 C   0  0  0  0  0  0  0  0  0  0  0  0
   12.2653  -16.3805   26.1544 O   0  0  0  0  0  0  0  0  0  0  0  0
   12.4918  -15.8921   23.8911 O   0  0  0  0  0  0  0  0  0  0  0  0
  2  5  1  0
  2  1  1  6
  3  2  1  0
  4  3  1  0
  5  6  2  0
  7  8  1  0
  7  5  1  0
  9 10  1  0
  8  9  1  1
 10 14  1  0
 11 12  1  0
 11 10  2  0
 12 13  1  0
 13 14  2  0
 15  8  1  0
 15 21  1  0
 16 15  2  0
 18 17  1  6
 19 18  1  0
 20 21  1  6
 20 18  1  0
 22 20  1  0
 23 22  1  0
 24 22  2  0
M  END
$$$$
