CHT.pdb
     RDKit          3D

 24 24  0  0  1  0  0  0  0  0999 V2000
    8.2094  -14.9624   17.2549 N   0  0  0  0  0  0  0  0  0  0  0  0
    8.6070  -14.3821   18.5198 C   0  0  1  0  0  0  0  0  0  0  0  0
    7.7159  -13.2059   18.8013 C   0  0  0  0  0  0  0  0  0  0  0  0
    8.2560  -12.5087   20.4089 S   0  0  0  0  0  0  0  0  0  0  0  0
    8.6110  -15.3871   19.5873 C   0  0  0  0  0  0  0  0  0  0  0  0
    7.6466  -16.1989   19.6530 O   0  0  0  0  0  0  0  0  0  0  0  0
    9.6202  -15.5245   20.5638 N   0  0  0  0  0  0  0  0  0  0  0  0
    9.6028  -16.4815   21.6273 C   0  0  1  0  0  0  0  0  0  0  0  0
   10.8420  -17.3848   21.5596 C   0  0  0  0  0  0  0  0  0  0  0  0
   10.6791  -18.4440   20.5354 C   0  0  0  0  0  0  0  0  0  0  0  0
   11.2238  -18.4255   19.2477 C   0  0  0  0  0  0  0  0  0  0  0  0
   10.8673  -19.5503   18.6022 N   0  0  0  0  0  0  0  0  0  0  0  0
   10.1029  -20.2901   19.4545 C   0  0  0  0  0  0  0  0  0  0  0  0
   10.0059  -19.6045   20.6052 N   0  0  0  0  0  0  0  0  0  0  0  0
    9.6140  -15.8562   22.9716 C   0  0  0  0  0  0  0  0  0  0  0  0
   10.4472  -14.9207   23.1502 O   0  0  0  0  0  0  0  0  0  0  0  0
    7.4354  -13.5429   24.8869 C   0  0  0  0  0  0  0  0  0  0  0  0
    7.5978  -14.8162   25.6555 C   0  0  1  0  0  0  0  0  0  0  0  0
    6.4739  -15.6370   25.5887 O   0  0  0  0  0  0  0  0  0  0  0  0
    8.8686  -15.5526   25.2957 C   0  0  2  0  0  0  0  0  0  0  0  0
    8.7775  -16.2298   24.0314 N   0  0  0  0  0  0  0  0  0  0  0  0
    9.2098  -16.4955   26.3949 C   0  0  0  0  0  0  0  0  0  0  0  0
    9.4136  -15.9765   27.6806 O   0  0  0  0  0  0  0  0  0  0  0  0
    9.3044  -17.7178   26.1417 O   0  0  0  0  0  0  0  0  0  0  0  0
  2  5  1  0
  2  1  1  6
  3  2  1  0
  4  3  1  0
  5  6  2  0
  7  8  1  0
  7  5  1  0
  9 10  1  0
  8  9  1  1
 10 14  1  0
 11 12  1  0
 11 10  2  0
 12 13  1  0
 13 14  2  0
 15  8  1  0
 15 21  1  0
 16 15  2  0
 18 17  1  6
 19 18  1  0
 20 21  1  6
 20 18  1  0
 22 20  1  0
 23 22  1  0
 24 22  2  0
M  END
$$$$
