CHT.pdb
     RDKit          3D

 24 24  0  0  1  0  0  0  0  0999 V2000
   12.6355  -15.1671   18.9401 N   0  0  0  0  0  0  0  0  0  0  0  0
   13.1581  -15.2680   20.2861 C   0  0  1  0  0  0  0  0  0  0  0  0
   14.0420  -14.0803   20.5403 C   0  0  0  0  0  0  0  0  0  0  0  0
   15.5863  -14.3604   19.5922 S   0  0  0  0  0  0  0  0  0  0  0  0
   12.0774  -15.4187   21.2654 C   0  0  0  0  0  0  0  0  0  0  0  0
   10.9827  -14.8288   21.0489 O   0  0  0  0  0  0  0  0  0  0  0  0
   12.1610  -16.1811   22.4498 N   0  0  0  0  0  0  0  0  0  0  0  0
   11.0684  -16.4306   23.3392 C   0  0  1  0  0  0  0  0  0  0  0  0
   10.6401  -17.9029   23.2668 C   0  0  0  0  0  0  0  0  0  0  0  0
    9.9468  -18.1982   21.9902 C   0  0  0  0  0  0  0  0  0  0  0  0
    8.8192  -17.5322   21.5003 C   0  0  0  0  0  0  0  0  0  0  0  0
    8.4689  -18.0696   20.3182 N   0  0  0  0  0  0  0  0  0  0  0  0
    9.3531  -19.0694   20.0417 C   0  0  0  0  0  0  0  0  0  0  0  0
   10.2277  -19.1252   21.0593 N   0  0  0  0  0  0  0  0  0  0  0  0
   11.4017  -16.1614   24.7586 C   0  0  0  0  0  0  0  0  0  0  0  0
   12.5467  -16.5336   25.1481 O   0  0  0  0  0  0  0  0  0  0  0  0
    8.7590  -14.2631   27.5302 C   0  0  0  0  0  0  0  0  0  0  0  0
   10.2434  -14.1769   27.6964 C   0  0  1  0  0  0  0  0  0  0  0  0
   10.6314  -14.0047   29.0235 O   0  0  0  0  0  0  0  0  0  0  0  0
   10.9690  -15.3244   27.0305 C   0  0  2  0  0  0  0  0  0  0  0  0
   10.5456  -15.5347   25.6733 N   0  0  0  0  0  0  0  0  0  0  0  0
   10.7916  -16.5518   27.8525 C   0  0  0  0  0  0  0  0  0  0  0  0
   11.4884  -16.6503   29.0644 O   0  0  0  0  0  0  0  0  0  0  0  0
   10.0299  -17.4558   27.4408 O   0  0  0  0  0  0  0  0  0  0  0  0
  2  5  1  0
  2  1  1  6
  3  2  1  0
  4  3  1  0
  5  6  2  0
  7  8  1  0
  7  5  1  0
  9 10  1  0
  8  9  1  1
 10 14  1  0
 11 12  1  0
 11 10  2  0
 12 13  1  0
 13 14  2  0
 15  8  1  0
 15 21  1  0
 16 15  2  0
 18 17  1  1
 19 18  1  0
 20 21  1  6
 20 18  1  0
 22 20  1  0
 23 22  1  0
 24 22  2  0
M  END
$$$$
