CHT.pdb
     RDKit          3D

 24 24  0  0  1  0  0  0  0  0999 V2000
    6.5400  -19.2234   18.7363 N   0  0  0  0  0  0  0  0  0  0  0  0
    6.4449  -18.9329   20.1510 C   0  0  1  0  0  0  0  0  0  0  0  0
    6.2215  -20.2245   20.8849 C   0  0  0  0  0  0  0  0  0  0  0  0
    6.1076  -19.8053   22.6663 S   0  0  0  0  0  0  0  0  0  0  0  0
    7.6152  -18.1840   20.6193 C   0  0  0  0  0  0  0  0  0  0  0  0
    8.7567  -18.5333   20.2089 O   0  0  0  0  0  0  0  0  0  0  0  0
    7.5707  -17.0869   21.5054 N   0  0  0  0  0  0  0  0  0  0  0  0
    8.7153  -16.3640   21.9683 C   0  0  1  0  0  0  0  0  0  0  0  0
    8.3401  -14.9114   22.2928 C   0  0  0  0  0  0  0  0  0  0  0  0
    8.1740  -14.1106   21.0563 C   0  0  0  0  0  0  0  0  0  0  0  0
    8.3894  -14.5674   19.7525 C   0  0  0  0  0  0  0  0  0  0  0  0
    8.1411  -13.5672   18.8884 N   0  0  0  0  0  0  0  0  0  0  0  0
    7.7700  -12.4761   19.6164 C   0  0  0  0  0  0  0  0  0  0  0  0
    7.7981  -12.8289   20.9118 N   0  0  0  0  0  0  0  0  0  0  0  0
    9.2992  -16.9318   23.2072 C   0  0  0  0  0  0  0  0  0  0  0  0
    8.4809  -17.2696   24.1114 O   0  0  0  0  0  0  0  0  0  0  0  0
   12.9971  -19.3517   25.4000 C   0  0  0  0  0  0  0  0  0  0  0  0
   12.5244  -18.4807   24.2791 C   0  0  1  0  0  0  0  0  0  0  0  0
   12.6809  -19.0741   23.0281 O   0  0  0  0  0  0  0  0  0  0  0  0
   11.1198  -17.9650   24.4982 C   0  0  2  0  0  0  0  0  0  0  0  0
   10.6700  -17.1128   23.4321 N   0  0  0  0  0  0  0  0  0  0  0  0
   11.0583  -17.2711   25.8128 C   0  0  0  0  0  0  0  0  0  0  0  0
   11.0830  -18.0473   26.9794 O   0  0  0  0  0  0  0  0  0  0  0  0
   10.9866  -16.0216   25.8394 O   0  0  0  0  0  0  0  0  0  0  0  0
  2  5  1  0
  2  1  1  6
  3  2  1  0
  4  3  1  0
  5  6  2  0
  7  8  1  0
  7  5  1  0
  9 10  1  0
  8  9  1  1
 10 14  1  0
 11 12  1  0
 11 10  2  0
 12 13  1  0
 13 14  2  0
 15  8  1  0
 15 21  1  0
 16 15  2  0
 18 17  1  1
 19 18  1  0
 20 21  1  6
 20 18  1  0
 22 20  1  0
 23 22  1  0
 24 22  2  0
M  END
$$$$
