CHT.pdb
     RDKit          3D

 24 24  0  0  1  0  0  0  0  0999 V2000
    7.8496  -14.7744   18.2238 N   0  0  0  0  0  0  0  0  0  0  0  0
    8.4157  -14.0937   19.3688 C   0  0  1  0  0  0  0  0  0  0  0  0
    7.8990  -12.6832   19.3835 C   0  0  0  0  0  0  0  0  0  0  0  0
    9.1272  -11.6629   18.4820 S   0  0  0  0  0  0  0  0  0  0  0  0
    8.1521  -14.8307   20.6086 C   0  0  0  0  0  0  0  0  0  0  0  0
    6.9886  -15.2785   20.8066 O   0  0  0  0  0  0  0  0  0  0  0  0
    9.1070  -15.0852   21.6157 N   0  0  0  0  0  0  0  0  0  0  0  0
    8.8678  -15.8689   22.7886 C   0  0  1  0  0  0  0  0  0  0  0  0
    9.8809  -17.0181   22.8847 C   0  0  0  0  0  0  0  0  0  0  0  0
    9.5406  -18.1138   21.9460 C   0  0  0  0  0  0  0  0  0  0  0  0
    8.2576  -18.6161   21.7078 C   0  0  0  0  0  0  0  0  0  0  0  0
    8.3328  -19.6031   20.7972 N   0  0  0  0  0  0  0  0  0  0  0  0
    9.6428  -19.7422   20.4472 C   0  0  0  0  0  0  0  0  0  0  0  0
   10.3446  -18.8382   21.1499 N   0  0  0  0  0  0  0  0  0  0  0  0
    8.9980  -15.0907   24.0439 C   0  0  0  0  0  0  0  0  0  0  0  0
   10.0236  -14.3565   24.1470 O   0  0  0  0  0  0  0  0  0  0  0  0
    6.7436  -12.3208   25.4988 C   0  0  0  0  0  0  0  0  0  0  0  0
    6.9577  -13.4272   26.4830 C   0  0  1  0  0  0  0  0  0  0  0  0
    5.8421  -14.2497   26.6255 O   0  0  0  0  0  0  0  0  0  0  0  0
    8.2191  -14.2138   26.2057 C   0  0  2  0  0  0  0  0  0  0  0  0
    8.0759  -15.1182   25.0981 N   0  0  0  0  0  0  0  0  0  0  0  0
    8.6251  -14.9305   27.4447 C   0  0  0  0  0  0  0  0  0  0  0  0
    8.8826  -14.1771   28.5980 O   0  0  0  0  0  0  0  0  0  0  0  0
    8.7246  -16.1781   27.4220 O   0  0  0  0  0  0  0  0  0  0  0  0
  2  5  1  0
  2  1  1  6
  3  2  1  0
  4  3  1  0
  5  6  2  0
  7  8  1  0
  7  5  1  0
  9 10  1  0
  8  9  1  1
 10 14  1  0
 11 12  1  0
 11 10  2  0
 12 13  1  0
 13 14  2  0
 15  8  1  0
 15 21  1  0
 16 15  2  0
 18 17  1  6
 19 18  1  0
 20 21  1  6
 20 18  1  0
 22 20  1  0
 23 22  1  0
 24 22  2  0
M  END
$$$$
