CHT.pdb
     RDKit          3D

 24 24  0  0  1  0  0  0  0  0999 V2000
    8.1158  -13.8616   16.7528 N   0  0  0  0  0  0  0  0  0  0  0  0
    8.6740  -13.4041   18.0074 C   0  0  1  0  0  0  0  0  0  0  0  0
    7.5437  -13.1551   18.9650 C   0  0  0  0  0  0  0  0  0  0  0  0
    8.3033  -12.6708   20.5621 S   0  0  0  0  0  0  0  0  0  0  0  0
    9.6801  -14.3422   18.5146 C   0  0  0  0  0  0  0  0  0  0  0  0
    9.4615  -15.5800   18.3982 O   0  0  0  0  0  0  0  0  0  0  0  0
   10.8928  -13.9702   19.1325 N   0  0  0  0  0  0  0  0  0  0  0  0
   11.8653  -14.8880   19.6415 C   0  0  1  0  0  0  0  0  0  0  0  0
   13.2635  -14.2546   19.6269 C   0  0  0  0  0  0  0  0  0  0  0  0
   14.0112  -14.6320   18.4038 C   0  0  0  0  0  0  0  0  0  0  0  0
   13.5785  -15.5355   17.4283 C   0  0  0  0  0  0  0  0  0  0  0  0
   14.5146  -15.6281   16.4671 N   0  0  0  0  0  0  0  0  0  0  0  0
   15.5408  -14.7989   16.8098 C   0  0  0  0  0  0  0  0  0  0  0  0
   15.2136  -14.2146   17.9738 N   0  0  0  0  0  0  0  0  0  0  0  0
   11.6042  -15.2927   21.0437 C   0  0  0  0  0  0  0  0  0  0  0  0
   11.4687  -14.3560   21.8838 O   0  0  0  0  0  0  0  0  0  0  0  0
    8.6182  -17.1195   22.4434 C   0  0  0  0  0  0  0  0  0  0  0  0
    9.8715  -17.8073   22.8845 C   0  0  1  0  0  0  0  0  0  0  0  0
   10.0870  -19.0164   22.2264 O   0  0  0  0  0  0  0  0  0  0  0  0
   11.0805  -16.9006   22.8296 C   0  0  2  0  0  0  0  0  0  0  0  0
   11.5008  -16.6183   21.4847 N   0  0  0  0  0  0  0  0  0  0  0  0
   12.1792  -17.5096   23.6269 C   0  0  0  0  0  0  0  0  0  0  0  0
   11.9886  -17.6813   25.0046 O   0  0  0  0  0  0  0  0  0  0  0  0
   13.2359  -17.8493   23.0481 O   0  0  0  0  0  0  0  0  0  0  0  0
  2  5  1  0
  2  1  1  6
  3  2  1  0
  4  3  1  0
  5  6  2  0
  7  8  1  0
  7  5  1  0
  9 10  1  0
  8  9  1  1
 10 14  1  0
 11 12  1  0
 11 10  2  0
 12 13  1  0
 13 14  2  0
 15  8  1  0
 15 21  1  0
 16 15  2  0
 18 17  1  6
 19 18  1  0
 20 21  1  6
 20 18  1  0
 22 20  1  0
 23 22  1  0
 24 22  2  0
M  END
$$$$
