CHT.pdb
     RDKit          3D

 24 24  0  0  1  0  0  0  0  0999 V2000
    6.7480  -15.5055   18.9796 N   0  0  0  0  0  0  0  0  0  0  0  0
    7.6615  -14.8903   19.9187 C   0  0  1  0  0  0  0  0  0  0  0  0
    7.6189  -13.4027   19.7143 C   0  0  0  0  0  0  0  0  0  0  0  0
    8.8019  -12.6726   20.9099 S   0  0  0  0  0  0  0  0  0  0  0  0
    7.3681  -15.3047   21.2941 C   0  0  0  0  0  0  0  0  0  0  0  0
    6.1927  -15.1557   21.7297 O   0  0  0  0  0  0  0  0  0  0  0  0
    8.3062  -15.8657   22.1863 N   0  0  0  0  0  0  0  0  0  0  0  0
    7.9902  -16.3943   23.4778 C   0  0  1  0  0  0  0  0  0  0  0  0
    8.2296  -17.9101   23.5130 C   0  0  0  0  0  0  0  0  0  0  0  0
    7.8773  -18.4789   24.8359 C   0  0  0  0  0  0  0  0  0  0  0  0
    6.9073  -17.9763   25.7086 C   0  0  0  0  0  0  0  0  0  0  0  0
    6.8637  -18.7471   26.8099 N   0  0  0  0  0  0  0  0  0  0  0  0
    7.7897  -19.7358   26.6581 C   0  0  0  0  0  0  0  0  0  0  0  0
    8.3824  -19.5517   25.4673 N   0  0  0  0  0  0  0  0  0  0  0  0
    8.8196  -15.8148   24.5615 C   0  0  0  0  0  0  0  0  0  0  0  0
   10.0328  -15.5882   24.2818 O   0  0  0  0  0  0  0  0  0  0  0  0
    9.4890  -13.2036   28.6195 C   0  0  0  0  0  0  0  0  0  0  0  0
    8.5586  -13.8446   27.6387 C   0  0  1  0  0  0  0  0  0  0  0  0
    7.8800  -12.9181   26.8497 O   0  0  0  0  0  0  0  0  0  0  0  0
    9.2347  -14.9159   26.8129 C   0  0  2  0  0  0  0  0  0  0  0  0
    8.3524  -15.5098   25.8465 N   0  0  0  0  0  0  0  0  0  0  0  0
    9.8107  -15.9397   27.7259 C   0  0  0  0  0  0  0  0  0  0  0  0
   11.1314  -15.7755   28.1651 O   0  0  0  0  0  0  0  0  0  0  0  0
    9.1038  -16.9125   28.0737 O   0  0  0  0  0  0  0  0  0  0  0  0
  2  5  1  0
  2  1  1  6
  3  2  1  0
  4  3  1  0
  5  6  2  0
  7  8  1  0
  7  5  1  0
  9 10  1  0
  8  9  1  6
 10 14  1  0
 11 12  1  0
 11 10  2  0
 12 13  1  0
 13 14  2  0
 15  8  1  0
 15 21  1  0
 16 15  2  0
 18 17  1  6
 19 18  1  0
 20 21  1  6
 20 18  1  0
 22 20  1  0
 23 22  1  0
 24 22  2  0
M  END
$$$$
