CHT.pdb
     RDKit          3D

 24 24  0  0  1  0  0  0  0  0999 V2000
    8.2877  -13.9614   16.8787 N   0  0  0  0  0  0  0  0  0  0  0  0
    9.2099  -13.3661   17.8221 C   0  0  1  0  0  0  0  0  0  0  0  0
    8.4198  -12.5493   18.8045 C   0  0  0  0  0  0  0  0  0  0  0  0
    7.3719  -13.7243   19.7443 S   0  0  0  0  0  0  0  0  0  0  0  0
   10.0584  -14.3839   18.4497 C   0  0  0  0  0  0  0  0  0  0  0  0
    9.7188  -15.5955   18.3495 O   0  0  0  0  0  0  0  0  0  0  0  0
   11.2428  -14.1170   19.1686 N   0  0  0  0  0  0  0  0  0  0  0  0
   12.0250  -15.1031   19.8490 C   0  0  1  0  0  0  0  0  0  0  0  0
   13.5140  -14.7323   19.8077 C   0  0  0  0  0  0  0  0  0  0  0  0
   14.1309  -15.1308   18.5199 C   0  0  0  0  0  0  0  0  0  0  0  0
   14.4030  -14.2774   17.4462 C   0  0  0  0  0  0  0  0  0  0  0  0
   14.9624  -14.9871   16.4500 N   0  0  0  0  0  0  0  0  0  0  0  0
   15.0536  -16.2817   16.8670 C   0  0  0  0  0  0  0  0  0  0  0  0
   14.5486  -16.3400   18.1099 N   0  0  0  0  0  0  0  0  0  0  0  0
   11.6680  -15.2407   21.2815 C   0  0  0  0  0  0  0  0  0  0  0  0
   11.8388  -14.2165   22.0049 O   0  0  0  0  0  0  0  0  0  0  0  0
    8.3341  -15.8611   22.9603 C   0  0  0  0  0  0  0  0  0  0  0  0
    9.3321  -16.8691   23.4362 C   0  0  1  0  0  0  0  0  0  0  0  0
    9.1140  -18.1396   22.9074 O   0  0  0  0  0  0  0  0  0  0  0  0
   10.7592  -16.4059   23.2475 C   0  0  2  0  0  0  0  0  0  0  0  0
   11.1648  -16.4087   21.8688 N   0  0  0  0  0  0  0  0  0  0  0  0
   11.6567  -17.2508   24.0807 C   0  0  0  0  0  0  0  0  0  0  0  0
   11.5705  -17.1430   25.4753 O   0  0  0  0  0  0  0  0  0  0  0  0
   12.4583  -18.0290   23.5160 O   0  0  0  0  0  0  0  0  0  0  0  0
  2  5  1  0
  2  1  1  6
  3  2  1  0
  4  3  1  0
  5  6  2  0
  7  8  1  0
  7  5  1  0
  9 10  1  0
  8  9  1  1
 10 14  1  0
 11 12  1  0
 11 10  2  0
 12 13  1  0
 13 14  2  0
 15  8  1  0
 15 21  1  0
 16 15  2  0
 18 17  1  6
 19 18  1  0
 20 21  1  6
 20 18  1  0
 22 20  1  0
 23 22  1  0
 24 22  2  0
M  END
$$$$
