CHT.pdb
     RDKit          3D

 24 24  0  0  1  0  0  0  0  0999 V2000
    8.4502  -19.0329   17.5143 N   0  0  0  0  0  0  0  0  0  0  0  0
    7.8489  -18.9384   18.8274 C   0  0  1  0  0  0  0  0  0  0  0  0
    7.6375  -20.3301   19.3519 C   0  0  0  0  0  0  0  0  0  0  0  0
    5.9644  -20.8488   18.8100 S   0  0  0  0  0  0  0  0  0  0  0  0
    8.6464  -18.0884   19.7168 C   0  0  0  0  0  0  0  0  0  0  0  0
    9.9027  -18.1004   19.5937 O   0  0  0  0  0  0  0  0  0  0  0  0
    8.1175  -17.2439   20.7158 N   0  0  0  0  0  0  0  0  0  0  0  0
    8.8900  -16.3496   21.5225 C   0  0  1  0  0  0  0  0  0  0  0  0
    8.0677  -15.1057   21.8866 C   0  0  0  0  0  0  0  0  0  0  0  0
    7.9354  -14.1912   20.7273 C   0  0  0  0  0  0  0  0  0  0  0  0
    8.5403  -14.3631   19.4785 C   0  0  0  0  0  0  0  0  0  0  0  0
    8.1957  -13.3393   18.6773 N   0  0  0  0  0  0  0  0  0  0  0  0
    7.3796  -12.5135   19.3915 C   0  0  0  0  0  0  0  0  0  0  0  0
    7.2401  -13.0471   20.6159 N   0  0  0  0  0  0  0  0  0  0  0  0
    9.3255  -16.9531   22.8048 C   0  0  0  0  0  0  0  0  0  0  0  0
    8.4111  -17.4093   23.5513 O   0  0  0  0  0  0  0  0  0  0  0  0
   10.9879  -20.0975   23.2949 C   0  0  0  0  0  0  0  0  0  0  0  0
   11.7989  -19.0711   24.0210 C   0  0  1  0  0  0  0  0  0  0  0  0
   12.9852  -18.7527   23.3633 O   0  0  0  0  0  0  0  0  0  0  0  0
   10.9932  -17.8424   24.3787 C   0  0  2  0  0  0  0  0  0  0  0  0
   10.6569  -17.0467   23.2302 N   0  0  0  0  0  0  0  0  0  0  0  0
   11.7428  -17.0493   25.3899 C   0  0  0  0  0  0  0  0  0  0  0  0
   11.9352  -17.6020   26.6633 O   0  0  0  0  0  0  0  0  0  0  0  0
   12.1775  -15.9179   25.0766 O   0  0  0  0  0  0  0  0  0  0  0  0
  2  5  1  0
  2  1  1  6
  3  2  1  0
  4  3  1  0
  5  6  2  0
  7  8  1  0
  7  5  1  0
  9 10  1  0
  8  9  1  1
 10 14  1  0
 11 12  1  0
 11 10  2  0
 12 13  1  0
 13 14  2  0
 15  8  1  0
 15 21  1  0
 16 15  2  0
 18 17  1  6
 19 18  1  0
 20 21  1  6
 20 18  1  0
 22 20  1  0
 23 22  1  0
 24 22  2  0
M  END
$$$$
