ASG.pdb
     RDKit          3D

 16 15  0  0  1  0  0  0  0  0999 V2000
    6.1220  -23.1230   22.3632 C   0  0  0  0  0  0  0  0  0  0  0  0
    5.9740  -22.9260   23.8557 C   0  0  2  0  0  0  0  0  0  0  0  0
    4.6710  -22.4774   24.2294 N   0  0  0  0  0  0  0  0  0  0  0  0
    7.0399  -21.9721   24.2840 C   0  0  0  0  0  0  0  0  0  0  0  0
    8.2545  -22.2295   24.0804 O   0  0  0  0  0  0  0  0  0  0  0  0
    5.9913  -18.2365   25.2904 O   0  0  0  0  0  0  0  0  0  0  0  0
    7.3284  -18.4175   24.9655 C   0  0  0  0  0  0  0  0  0  0  0  0
    7.7942  -19.8166   25.3205 C   0  0  2  0  0  0  0  0  0  0  0  0
    6.7440  -20.7381   24.9363 N   0  0  0  0  0  0  0  0  0  0  0  0
    8.0136  -19.8420   26.7977 C   0  0  0  0  0  0  0  0  0  0  0  0
    7.0739  -20.0977   27.5912 O   0  0  0  0  0  0  0  0  0  0  0  0
    9.3149  -19.5695   27.2917 N   0  0  0  0  0  0  0  0  0  0  0  0
    9.5404  -19.5783   28.7263 C   0  0  0  0  0  0  0  0  0  0  0  0
   10.9659  -19.2463   28.9963 C   0  0  0  0  0  0  0  0  0  0  0  0
   11.7764  -19.0115   28.0784 O   0  0  0  0  0  0  0  0  0  0  0  0
   11.4476  -19.1862   30.3008 O   0  0  0  0  0  0  0  0  0  0  0  0
  2  1  1  6
  2  3  1  0
  4  2  1  0
  4  5  2  0
  6  7  1  0
  8  7  1  1
  8  9  1  0
  9  4  1  0
 10  8  1  0
 11 10  2  0
 12 10  1  0
 13 12  1  0
 14 13  1  0
 14 16  1  0
 15 14  2  0
M  END
$$$$
