ASG.pdb
     RDKit          3D

 16 15  0  0  1  0  0  0  0  0999 V2000
    8.3316  -14.2359   17.5413 C   0  0  0  0  0  0  0  0  0  0  0  0
    7.3400  -13.7777   18.5878 C   0  0  2  0  0  0  0  0  0  0  0  0
    7.1517  -12.3623   18.5913 N   0  0  0  0  0  0  0  0  0  0  0  0
    7.8238  -14.2824   19.9070 C   0  0  0  0  0  0  0  0  0  0  0  0
    8.5725  -13.5769   20.6315 O   0  0  0  0  0  0  0  0  0  0  0  0
    7.3618  -18.2833   21.0613 O   0  0  0  0  0  0  0  0  0  0  0  0
    7.2027  -17.3066   22.0344 C   0  0  0  0  0  0  0  0  0  0  0  0
    7.9739  -16.0494   21.6804 C   0  0  2  0  0  0  0  0  0  0  0  0
    7.4695  -15.5701   20.4093 N   0  0  0  0  0  0  0  0  0  0  0  0
    9.4127  -16.4356   21.5732 C   0  0  0  0  0  0  0  0  0  0  0  0
    9.9144  -16.7792   20.4740 O   0  0  0  0  0  0  0  0  0  0  0  0
   10.2088  -16.4066   22.7466 N   0  0  0  0  0  0  0  0  0  0  0  0
   11.6352  -16.6557   22.6371 C   0  0  0  0  0  0  0  0  0  0  0  0
   12.2510  -16.5580   23.9886 C   0  0  0  0  0  0  0  0  0  0  0  0
   11.5792  -16.2915   25.0046 O   0  0  0  0  0  0  0  0  0  0  0  0
   13.6162  -16.7639   24.1650 O   0  0  0  0  0  0  0  0  0  0  0  0
  2  1  1  6
  2  3  1  0
  4  2  1  0
  4  5  2  0
  6  7  1  0
  8  7  1  6
  8  9  1  0
  9  4  1  0
 10  8  1  0
 11 10  2  0
 12 10  1  0
 13 12  1  0
 14 13  1  0
 14 16  1  0
 15 14  2  0
M  END
$$$$
