ASG.pdb
     RDKit          3D

 16 15  0  0  1  0  0  0  0  0999 V2000
    7.0243  -18.4547   17.1401 C   0  0  0  0  0  0  0  0  0  0  0  0
    7.2129  -18.7299   18.6155 C   0  0  2  0  0  0  0  0  0  0  0  0
    5.9770  -18.8950   19.3113 N   0  0  0  0  0  0  0  0  0  0  0  0
    8.0258  -17.6092   19.1744 C   0  0  0  0  0  0  0  0  0  0  0  0
    9.1882  -17.3822   18.7496 O   0  0  0  0  0  0  0  0  0  0  0  0
    6.4012  -14.8402   21.8433 O   0  0  0  0  0  0  0  0  0  0  0  0
    7.4669  -14.5015   21.0212 C   0  0  0  0  0  0  0  0  0  0  0  0
    8.3623  -15.6983   20.7635 C   0  0  2  0  0  0  0  0  0  0  0  0
    7.5372  -16.7495   20.2030 N   0  0  0  0  0  0  0  0  0  0  0  0
    8.9305  -16.1104   22.0819 C   0  0  0  0  0  0  0  0  0  0  0  0
    8.2046  -16.6142   22.9748 O   0  0  0  0  0  0  0  0  0  0  0  0
   10.3176  -15.9201   22.3084 N   0  0  0  0  0  0  0  0  0  0  0  0
   10.8799  -16.2952   23.5937 C   0  0  0  0  0  0  0  0  0  0  0  0
   12.3456  -16.0368   23.5771 C   0  0  0  0  0  0  0  0  0  0  0  0
   12.9416  -15.6702   22.5451 O   0  0  0  0  0  0  0  0  0  0  0  0
   13.1096  -16.1982   24.7292 O   0  0  0  0  0  0  0  0  0  0  0  0
  2  1  1  6
  2  3  1  0
  4  2  1  0
  4  5  2  0
  6  7  1  0
  8  7  1  1
  8  9  1  0
  9  4  1  0
 10  8  1  0
 11 10  2  0
 12 10  1  0
 13 12  1  0
 14 13  1  0
 14 16  1  0
 15 14  2  0
M  END
$$$$
