ASG.pdb
     RDKit          3D

 16 15  0  0  1  0  0  0  0  0999 V2000
    7.0632  -14.6862   19.0793 C   0  0  0  0  0  0  0  0  0  0  0  0
    7.6694  -13.3978   19.5898 C   0  0  2  0  0  0  0  0  0  0  0  0
    8.4952  -12.7513   18.6208 N   0  0  0  0  0  0  0  0  0  0  0  0
    8.4208  -13.7261   20.8376 C   0  0  0  0  0  0  0  0  0  0  0  0
    9.6716  -13.8611   20.8197 O   0  0  0  0  0  0  0  0  0  0  0  0
    8.2528  -14.5105   25.6442 O   0  0  0  0  0  0  0  0  0  0  0  0
    7.6120  -14.1302   24.4733 C   0  0  0  0  0  0  0  0  0  0  0  0
    8.5017  -14.3513   23.2650 C   0  0  2  0  0  0  0  0  0  0  0  0
    7.7723  -13.9015   22.0964 N   0  0  0  0  0  0  0  0  0  0  0  0
    8.7799  -15.8168   23.1901 C   0  0  0  0  0  0  0  0  0  0  0  0
    7.9362  -16.6161   22.7133 O   0  0  0  0  0  0  0  0  0  0  0  0
   10.0261  -16.2929   23.6718 N   0  0  0  0  0  0  0  0  0  0  0  0
   10.3148  -17.7141   23.5958 C   0  0  0  0  0  0  0  0  0  0  0  0
   11.6998  -17.9556   24.0842 C   0  0  0  0  0  0  0  0  0  0  0  0
   12.6952  -17.8210   23.3456 O   0  0  0  0  0  0  0  0  0  0  0  0
   11.9325  -18.3450   25.4001 O   0  0  0  0  0  0  0  0  0  0  0  0
  2  1  1  6
  2  3  1  0
  4  2  1  0
  4  5  2  0
  6  7  1  0
  8  7  1  1
  8  9  1  0
  9  4  1  0
 10  8  1  0
 11 10  2  0
 12 10  1  0
 13 12  1  0
 14 13  1  0
 14 16  1  0
 15 14  2  0
M  END
$$$$
