ASG.pdb
     RDKit          3D

 16 15  0  0  1  0  0  0  0  0999 V2000
    7.6584  -19.1846   19.4906 C   0  0  0  0  0  0  0  0  0  0  0  0
    7.6243  -17.8280   18.8222 C   0  0  2  0  0  0  0  0  0  0  0  0
    8.0093  -17.8770   17.4482 N   0  0  0  0  0  0  0  0  0  0  0  0
    8.5021  -16.9200   19.6187 C   0  0  0  0  0  0  0  0  0  0  0  0
    9.7203  -16.7878   19.3331 O   0  0  0  0  0  0  0  0  0  0  0  0
    7.0256  -14.7120   22.8823 O   0  0  0  0  0  0  0  0  0  0  0  0
    8.0157  -14.1820   22.0666 C   0  0  0  0  0  0  0  0  0  0  0  0
    8.8825  -15.2769   21.4748 C   0  0  2  0  0  0  0  0  0  0  0  0
    8.0155  -16.1659   20.7279 N   0  0  0  0  0  0  0  0  0  0  0  0
    9.5239  -15.9920   22.6185 C   0  0  0  0  0  0  0  0  0  0  0  0
    8.8618  -16.7606   23.3594 O   0  0  0  0  0  0  0  0  0  0  0  0
   10.9071  -15.7849   22.8541 N   0  0  0  0  0  0  0  0  0  0  0  0
   11.5436  -16.4714   23.9642 C   0  0  0  0  0  0  0  0  0  0  0  0
   12.9714  -16.0574   24.0374 C   0  0  0  0  0  0  0  0  0  0  0  0
   13.4922  -15.3207   23.1767 O   0  0  0  0  0  0  0  0  0  0  0  0
   13.7835  -16.4852   25.0837 O   0  0  0  0  0  0  0  0  0  0  0  0
  2  1  1  1
  2  3  1  0
  4  2  1  0
  4  5  2  0
  6  7  1  0
  8  7  1  1
  8  9  1  0
  9  4  1  0
 10  8  1  0
 11 10  2  0
 12 10  1  0
 13 12  1  0
 14 13  1  0
 14 16  1  0
 15 14  2  0
M  END
$$$$
