ASG.pdb
     RDKit          3D

 16 15  0  0  1  0  0  0  0  0999 V2000
   -6.9079  -26.5070   23.6198 C   0  0  0  0  0  0  0  0  0  0  0  0
   -6.3856  -25.2147   24.2075 C   0  0  2  0  0  0  0  0  0  0  0  0
   -4.9611  -25.1240   24.1694 N   0  0  0  0  0  0  0  0  0  0  0  0
   -6.9170  -25.1147   25.5992 C   0  0  0  0  0  0  0  0  0  0  0  0
   -8.1554  -25.0559   25.8132 O   0  0  0  0  0  0  0  0  0  0  0  0
   -6.0553  -25.7766   30.3061 O   0  0  0  0  0  0  0  0  0  0  0  0
   -5.5801  -25.6943   29.0046 C   0  0  0  0  0  0  0  0  0  0  0  0
   -6.6041  -25.0543   28.0868 C   0  0  2  0  0  0  0  0  0  0  0  0
   -6.0639  -25.0810   26.7424 N   0  0  0  0  0  0  0  0  0  0  0  0
   -6.7956  -23.6501   28.5581 C   0  0  0  0  0  0  0  0  0  0  0  0
   -6.0771  -22.7146   28.1260 O   0  0  0  0  0  0  0  0  0  0  0  0
   -7.8132  -23.3907   29.5114 N   0  0  0  0  0  0  0  0  0  0  0  0
   -8.0776  -22.0179   29.9043 C   0  0  0  0  0  0  0  0  0  0  0  0
   -9.1302  -22.0077   30.9567 C   0  0  0  0  0  0  0  0  0  0  0  0
   -9.5119  -20.9529   31.5011 O   0  0  0  0  0  0  0  0  0  0  0  0
   -9.7313  -23.1919   31.3732 O   0  0  0  0  0  0  0  0  0  0  0  0
  2  1  1  1
  2  3  1  0
  4  2  1  0
  4  5  2  0
  6  7  1  0
  8  7  1  1
  8  9  1  0
  9  4  1  0
 10  8  1  0
 11 10  2  0
 12 10  1  0
 13 12  1  0
 14 13  1  0
 14 16  1  0
 15 14  2  0
M  END
$$$$
