ASG.pdb
     RDKit          3D

 16 15  0  0  1  0  0  0  0  0999 V2000
    6.8531  -17.2996   18.3594 C   0  0  0  0  0  0  0  0  0  0  0  0
    7.3254  -17.7663   19.7186 C   0  0  2  0  0  0  0  0  0  0  0  0
    6.2490  -18.1032   20.5942 N   0  0  0  0  0  0  0  0  0  0  0  0
    8.1896  -16.6867   20.2816 C   0  0  0  0  0  0  0  0  0  0  0  0
    9.2171  -16.2983   19.6681 O   0  0  0  0  0  0  0  0  0  0  0  0
    7.1051  -14.6009   23.7252 O   0  0  0  0  0  0  0  0  0  0  0  0
    7.9450  -14.0157   22.7880 C   0  0  0  0  0  0  0  0  0  0  0  0
    8.7970  -15.0579   22.0892 C   0  0  2  0  0  0  0  0  0  0  0  0
    7.9020  -16.0478   21.5245 N   0  0  0  0  0  0  0  0  0  0  0  0
    9.6809  -15.6669   23.1277 C   0  0  0  0  0  0  0  0  0  0  0  0
    9.2003  -16.2654   24.1222 O   0  0  0  0  0  0  0  0  0  0  0  0
   11.0858  -15.5557   22.9682 N   0  0  0  0  0  0  0  0  0  0  0  0
   11.9580  -16.2565   23.8940 C   0  0  0  0  0  0  0  0  0  0  0  0
   13.3743  -15.9500   23.5542 C   0  0  0  0  0  0  0  0  0  0  0  0
   13.6816  -15.2342   22.5806 O   0  0  0  0  0  0  0  0  0  0  0  0
   14.4167  -16.4596   24.3229 O   0  0  0  0  0  0  0  0  0  0  0  0
  2  1  1  6
  2  3  1  0
  4  2  1  0
  4  5  2  0
  6  7  1  0
  8  7  1  1
  8  9  1  0
  9  4  1  0
 10  8  1  0
 11 10  2  0
 12 10  1  0
 13 12  1  0
 14 13  1  0
 14 16  1  0
 15 14  2  0
M  END
$$$$
