ASG.pdb
     RDKit          3D

 16 15  0  0  1  0  0  0  0  0999 V2000
   -1.2990  -28.1062   28.2451 C   0  0  0  0  0  0  0  0  0  0  0  0
   -2.6638  -27.8240   28.8332 C   0  0  2  0  0  0  0  0  0  0  0  0
   -3.6581  -28.7513   28.3972 N   0  0  0  0  0  0  0  0  0  0  0  0
   -3.0158  -26.4167   28.4797 C   0  0  0  0  0  0  0  0  0  0  0  0
   -2.2905  -25.4583   28.8519 O   0  0  0  0  0  0  0  0  0  0  0  0
   -5.5251  -23.3595   25.7356 O   0  0  0  0  0  0  0  0  0  0  0  0
   -5.2117  -24.6629   26.0951 C   0  0  0  0  0  0  0  0  0  0  0  0
   -4.5415  -24.7104   27.4549 C   0  0  2  0  0  0  0  0  0  0  0  0
   -4.1737  -26.0879   27.7136 N   0  0  0  0  0  0  0  0  0  0  0  0
   -5.5432  -24.2282   28.4523 C   0  0  0  0  0  0  0  0  0  0  0  0
   -6.4040  -25.0037   28.9377 O   0  0  0  0  0  0  0  0  0  0  0  0
   -5.5035  -22.8657   28.8445 N   0  0  0  0  0  0  0  0  0  0  0  0
   -6.3076  -22.4336   29.9738 C   0  0  0  0  0  0  0  0  0  0  0  0
   -7.6562  -22.0350   29.4861 C   0  0  0  0  0  0  0  0  0  0  0  0
   -8.5228  -21.5625   30.2479 O   0  0  0  0  0  0  0  0  0  0  0  0
   -7.9988  -22.1787   28.1448 O   0  0  0  0  0  0  0  0  0  0  0  0
  2  1  1  6
  2  3  1  0
  4  2  1  0
  4  5  2  0
  6  7  1  0
  8  7  1  6
  8  9  1  0
  9  4  1  0
 10  8  1  0
 11 10  2  0
 12 10  1  0
 13 12  1  0
 14 13  1  0
 14 16  1  0
 15 14  2  0
M  END
$$$$
