ASG.pdb
     RDKit          3D

 16 15  0  0  1  0  0  0  0  0999 V2000
    7.5445  -13.1106   17.6190 C   0  0  0  0  0  0  0  0  0  0  0  0
    8.2160  -14.3922   18.0604 C   0  0  2  0  0  0  0  0  0  0  0  0
    7.3385  -15.5181   18.0266 N   0  0  0  0  0  0  0  0  0  0  0  0
    8.7703  -14.1538   19.4261 C   0  0  0  0  0  0  0  0  0  0  0  0
    9.7712  -13.4102   19.5943 O   0  0  0  0  0  0  0  0  0  0  0  0
    6.9184  -15.6194   22.8952 O   0  0  0  0  0  0  0  0  0  0  0  0
    7.7917  -14.5417   22.9430 C   0  0  0  0  0  0  0  0  0  0  0  0
    8.8674  -14.6604   21.8804 C   0  0  2  0  0  0  0  0  0  0  0  0
    8.2048  -14.7461   20.5945 N   0  0  0  0  0  0  0  0  0  0  0  0
    9.6328  -15.9095   22.1716 C   0  0  0  0  0  0  0  0  0  0  0  0
    9.2201  -17.0311   21.7846 O   0  0  0  0  0  0  0  0  0  0  0  0
   10.8452  -15.8041   22.9000 N   0  0  0  0  0  0  0  0  0  0  0  0
   11.5715  -17.0151   23.2388 C   0  0  0  0  0  0  0  0  0  0  0  0
   12.9034  -16.6449   23.7905 C   0  0  0  0  0  0  0  0  0  0  0  0
   13.3032  -15.4642   23.8194 O   0  0  0  0  0  0  0  0  0  0  0  0
   13.7582  -17.6182   24.2995 O   0  0  0  0  0  0  0  0  0  0  0  0
  2  1  1  1
  2  3  1  0
  4  2  1  0
  4  5  2  0
  6  7  1  0
  8  7  1  1
  8  9  1  0
  9  4  1  0
 10  8  1  0
 11 10  2  0
 12 10  1  0
 13 12  1  0
 14 13  1  0
 14 16  1  0
 15 14  2  0
M  END
$$$$
