WND.pdb
     RDKit          3D

 31 32  0  0  1  0  0  0  0  0999 V2000
   27.9585  -21.2233  -10.9403 N   0  0  0  0  0  0  0  0  0  0  0  0
   26.6285  -21.0424  -10.3776 C   0  0  1  0  0  0  0  0  0  0  0  0
   26.8190  -20.0785   -9.1987 C   0  0  0  0  0  0  0  0  0  0  0  0
   27.9906  -20.5910   -8.4478 C   0  0  0  0  0  0  0  0  0  0  0  0
   29.0666  -21.3117   -8.9172 C   0  0  0  0  0  0  0  0  0  0  0  0
   29.9167  -21.5912   -7.9159 N   0  0  0  0  0  0  0  0  0  0  0  0
   29.4143  -21.0619   -6.7846 C   0  0  0  0  0  0  0  0  0  0  0  0
   29.8462  -21.0321   -5.4801 C   0  0  0  0  0  0  0  0  0  0  0  0
   29.1281  -20.4058   -4.4976 C   0  0  0  0  0  0  0  0  0  0  0  0
   27.9361  -19.7842   -4.8140 C   0  0  0  0  0  0  0  0  0  0  0  0
   27.4833  -19.8016   -6.1172 C   0  0  0  0  0  0  0  0  0  0  0  0
   28.2082  -20.4307   -7.0952 C   0  0  0  0  0  0  0  0  0  0  0  0
   25.6677  -20.5380  -11.3556 C   0  0  0  0  0  0  0  0  0  0  0  0
   25.8856  -19.4346  -11.9157 O   0  0  0  0  0  0  0  0  0  0  0  0
   23.6629  -19.1615  -15.7884 N   0  0  0  0  0  0  0  0  0  0  0  0
   24.5418  -19.5086  -14.7255 C   0  0  0  0  0  0  0  0  0  0  0  0
   25.4100  -18.6655  -14.3595 O   0  0  0  0  0  0  0  0  0  0  0  0
   24.3693  -20.8416  -14.1260 C   0  0  0  0  0  0  0  0  0  0  0  0
   23.6299  -20.8130  -12.8054 C   0  0  2  0  0  0  0  0  0  0  0  0
   24.4842  -21.2384  -11.7110 N   0  0  0  0  0  0  0  0  0  0  0  0
   22.4471  -21.7266  -12.8525 C   0  0  0  0  0  0  0  0  0  0  0  0
   22.5890  -22.9659  -12.6367 O   0  0  0  0  0  0  0  0  0  0  0  0
   21.1442  -21.2556  -13.1330 N   0  0  0  0  0  0  0  0  0  0  0  0
   19.9809  -22.0288  -12.6495 C   0  0  1  0  0  0  0  0  0  0  0  0
   20.0471  -22.1342  -11.1597 C   0  0  0  0  0  0  0  0  0  0  0  0
   18.9455  -22.9166  -10.6183 C   0  0  0  0  0  0  0  0  0  0  0  0
   18.0477  -23.3865  -11.3184 O   0  0  0  0  0  0  0  0  0  0  0  0
   18.7642  -21.3101  -13.1169 C   0  0  0  0  0  0  0  0  0  0  0  0
   17.6234  -21.8163  -13.1381 O   0  0  0  0  0  0  0  0  0  0  0  0
   18.8414  -23.1860   -9.2372 O   0  0  0  0  0  0  0  0  0  0  0  0
   18.8971  -19.9914  -13.5593 O   0  0  0  0  0  0  0  0  0  0  0  0
  2 13  1  0
  2  1  1  6
  3  2  1  0
  4  3  1  0
  4  5  2  0
  6  5  1  0
  7 12  2  0
  7  6  1  0
  8  7  1  0
  9 10  1  0
  9  8  2  0
 10 11  2  0
 11 12  1  0
 12  4  1  0
 13 14  2  0
 15 16  1  0
 16 17  2  0
 18 16  1  0
 19 18  1  6
 19 21  1  0
 20 19  1  0
 20 13  1  0
 21 22  2  0
 23 24  1  0
 23 21  1  0
 24 28  1  0
 24 25  1  1
 26 25  1  0
 26 30  1  0
 27 26  2  0
 28 29  2  0
 28 31  1  0
M  END
$$$$
