WND.pdb
     RDKit          3D

 31 32  0  0  1  0  0  0  0  0999 V2000
   26.4673  -21.2467  -13.1747 N   0  0  0  0  0  0  0  0  0  0  0  0
   26.2221  -21.3591  -11.7445 C   0  0  1  0  0  0  0  0  0  0  0  0
   27.1334  -20.3076  -11.0971 C   0  0  0  0  0  0  0  0  0  0  0  0
   28.5034  -20.6179  -11.5725 C   0  0  0  0  0  0  0  0  0  0  0  0
   29.0825  -20.3187  -12.7860 C   0  0  0  0  0  0  0  0  0  0  0  0
   30.3437  -20.7778  -12.8298 N   0  0  0  0  0  0  0  0  0  0  0  0
   30.6076  -21.3797  -11.6549 C   0  0  0  0  0  0  0  0  0  0  0  0
   31.7146  -22.0139  -11.1436 C   0  0  0  0  0  0  0  0  0  0  0  0
   31.7203  -22.5502   -9.8843 C   0  0  0  0  0  0  0  0  0  0  0  0
   30.5888  -22.4578   -9.0978 C   0  0  0  0  0  0  0  0  0  0  0  0
   29.4660  -21.8254   -9.5907 C   0  0  0  0  0  0  0  0  0  0  0  0
   29.4683  -21.2909  -10.8525 C   0  0  0  0  0  0  0  0  0  0  0  0
   24.8167  -21.1627  -11.3976 C   0  0  0  0  0  0  0  0  0  0  0  0
   24.4995  -21.0044  -10.1922 O   0  0  0  0  0  0  0  0  0  0  0  0
   20.3867  -19.5832   -9.9166 N   0  0  0  0  0  0  0  0  0  0  0  0
   20.9627  -18.9911  -11.0743 C   0  0  0  0  0  0  0  0  0  0  0  0
   20.2760  -18.1581  -11.7324 O   0  0  0  0  0  0  0  0  0  0  0  0
   22.3333  -19.4004  -11.4209 C   0  0  0  0  0  0  0  0  0  0  0  0
   22.4095  -20.7861  -12.0253 C   0  0  2  0  0  0  0  0  0  0  0  0
   23.7761  -21.1415  -12.3642 N   0  0  0  0  0  0  0  0  0  0  0  0
   21.5895  -20.8540  -13.2739 C   0  0  0  0  0  0  0  0  0  0  0  0
   21.9918  -20.2892  -14.3330 O   0  0  0  0  0  0  0  0  0  0  0  0
   20.3544  -21.5395  -13.3257 N   0  0  0  0  0  0  0  0  0  0  0  0
   19.5963  -21.5597  -14.5944 C   0  0  1  0  0  0  0  0  0  0  0  0
   18.9816  -22.9102  -14.7770 C   0  0  0  0  0  0  0  0  0  0  0  0
   18.2582  -23.0152  -16.0357 C   0  0  0  0  0  0  0  0  0  0  0  0
   18.6197  -22.4479  -17.0675 O   0  0  0  0  0  0  0  0  0  0  0  0
   18.5786  -20.4774  -14.5031 C   0  0  0  0  0  0  0  0  0  0  0  0
   18.2270  -19.9429  -13.4313 O   0  0  0  0  0  0  0  0  0  0  0  0
   17.0816  -23.7857  -16.1478 O   0  0  0  0  0  0  0  0  0  0  0  0
   17.9767  -20.0269  -15.6809 O   0  0  0  0  0  0  0  0  0  0  0  0
  2 13  1  0
  2  1  1  6
  3  2  1  0
  4  3  1  0
  4  5  2  0
  6  5  1  0
  7 12  2  0
  7  6  1  0
  8  7  1  0
  9 10  1  0
  9  8  2  0
 10 11  2  0
 11 12  1  0
 12  4  1  0
 13 14  2  0
 15 16  1  0
 16 17  2  0
 18 16  1  0
 19 18  1  6
 19 21  1  0
 20 19  1  0
 20 13  1  0
 21 22  2  0
 23 24  1  0
 23 21  1  0
 24 28  1  0
 24 25  1  1
 26 25  1  0
 26 30  1  0
 27 26  2  0
 28 29  2  0
 28 31  1  0
M  END
$$$$
