WND.pdb
     RDKit          3D

 31 32  0  0  1  0  0  0  0  0999 V2000
   25.4957  -21.1544   -8.0234 N   0  0  0  0  0  0  0  0  0  0  0  0
   26.0533  -20.4248   -9.1527 C   0  0  1  0  0  0  0  0  0  0  0  0
   27.5748  -20.4987   -8.9665 C   0  0  0  0  0  0  0  0  0  0  0  0
   27.8657  -19.7238   -7.7359 C   0  0  0  0  0  0  0  0  0  0  0  0
   27.4775  -18.4423   -7.4130 C   0  0  0  0  0  0  0  0  0  0  0  0
   27.9501  -18.0997   -6.2036 N   0  0  0  0  0  0  0  0  0  0  0  0
   28.6494  -19.1435   -5.7200 C   0  0  0  0  0  0  0  0  0  0  0  0
   29.3394  -19.3609   -4.5514 C   0  0  0  0  0  0  0  0  0  0  0  0
   29.9763  -20.5461   -4.3006 C   0  0  0  0  0  0  0  0  0  0  0  0
   29.9314  -21.5575   -5.2401 C   0  0  0  0  0  0  0  0  0  0  0  0
   29.2444  -21.3611   -6.4204 C   0  0  0  0  0  0  0  0  0  0  0  0
   28.6092  -20.1716   -6.6639 C   0  0  0  0  0  0  0  0  0  0  0  0
   25.6260  -20.9680  -10.4397 C   0  0  0  0  0  0  0  0  0  0  0  0
   25.7186  -22.2042  -10.6441 O   0  0  0  0  0  0  0  0  0  0  0  0
   21.6517  -21.6790  -12.8035 N   0  0  0  0  0  0  0  0  0  0  0  0
   22.1921  -20.3921  -12.5303 C   0  0  0  0  0  0  0  0  0  0  0  0
   21.6000  -19.6535  -11.6921 O   0  0  0  0  0  0  0  0  0  0  0  0
   23.4162  -20.0152  -13.2553 C   0  0  0  0  0  0  0  0  0  0  0  0
   24.6545  -20.7223  -12.7475 C   0  0  2  0  0  0  0  0  0  0  0  0
   25.1048  -20.1612  -11.4862 N   0  0  0  0  0  0  0  0  0  0  0  0
   25.7686  -20.5934  -13.7365 C   0  0  0  0  0  0  0  0  0  0  0  0
   26.4273  -19.5155  -13.8187 O   0  0  0  0  0  0  0  0  0  0  0  0
   26.1290  -21.6491  -14.6045 N   0  0  0  0  0  0  0  0  0  0  0  0
   27.2697  -21.4641  -15.5262 C   0  0  1  0  0  0  0  0  0  0  0  0
   28.2704  -22.5499  -15.2922 C   0  0  0  0  0  0  0  0  0  0  0  0
   29.3595  -22.5057  -16.2567 C   0  0  0  0  0  0  0  0  0  0  0  0
   29.4221  -21.6723  -17.1615 O   0  0  0  0  0  0  0  0  0  0  0  0
   26.7139  -21.4886  -16.9067 C   0  0  0  0  0  0  0  0  0  0  0  0
   27.4084  -21.3729  -17.9375 O   0  0  0  0  0  0  0  0  0  0  0  0
   30.4240  -23.4306  -16.2097 O   0  0  0  0  0  0  0  0  0  0  0  0
   25.3355  -21.6506  -17.0679 O   0  0  0  0  0  0  0  0  0  0  0  0
  2 13  1  0
  2  1  1  1
  3  2  1  0
  4  3  1  0
  4  5  2  0
  6  5  1  0
  7 12  2  0
  7  6  1  0
  8  7  1  0
  9 10  1  0
  9  8  2  0
 10 11  2  0
 11 12  1  0
 12  4  1  0
 13 14  2  0
 15 16  1  0
 16 17  2  0
 18 16  1  0
 19 18  1  6
 19 21  1  0
 20 19  1  0
 20 13  1  0
 21 22  2  0
 23 24  1  0
 23 21  1  0
 24 28  1  0
 24 25  1  6
 26 25  1  0
 26 30  1  0
 27 26  2  0
 28 29  2  0
 28 31  1  0
M  END
$$$$
