WND.pdb
     RDKit          3D

 31 32  0  0  1  0  0  0  0  0999 V2000
   23.2450  -20.8288  -10.5770 N   0  0  0  0  0  0  0  0  0  0  0  0
   24.4368  -20.4760  -11.3342 C   0  0  1  0  0  0  0  0  0  0  0  0
   25.5173  -21.4586  -10.8630 C   0  0  0  0  0  0  0  0  0  0  0  0
   26.0437  -20.8971   -9.5953 C   0  0  0  0  0  0  0  0  0  0  0  0
   25.3446  -20.4088   -8.5136 C   0  0  0  0  0  0  0  0  0  0  0  0
   26.1907  -19.9848   -7.5609 N   0  0  0  0  0  0  0  0  0  0  0  0
   27.4468  -20.1875   -8.0008 C   0  0  0  0  0  0  0  0  0  0  0  0
   28.6886  -19.9535   -7.4602 C   0  0  0  0  0  0  0  0  0  0  0  0
   29.8382  -20.2647   -8.1346 C   0  0  0  0  0  0  0  0  0  0  0  0
   29.7603  -20.8289   -9.3928 C   0  0  0  0  0  0  0  0  0  0  0  0
   28.5241  -21.0726   -9.9549 C   0  0  0  0  0  0  0  0  0  0  0  0
   27.3777  -20.7584   -9.2732 C   0  0  0  0  0  0  0  0  0  0  0  0
   24.2245  -20.5373  -12.7783 C   0  0  0  0  0  0  0  0  0  0  0  0
   23.6265  -21.5278  -13.2681 O   0  0  0  0  0  0  0  0  0  0  0  0
   21.8954  -18.7978  -17.0587 N   0  0  0  0  0  0  0  0  0  0  0  0
   23.2423  -18.3552  -16.9453 C   0  0  0  0  0  0  0  0  0  0  0  0
   23.8749  -18.0677  -18.0016 O   0  0  0  0  0  0  0  0  0  0  0  0
   23.8025  -18.2652  -15.5873 C   0  0  0  0  0  0  0  0  0  0  0  0
   24.3912  -19.5699  -15.0949 C   0  0  2  0  0  0  0  0  0  0  0  0
   24.6648  -19.5227  -13.6695 N   0  0  0  0  0  0  0  0  0  0  0  0
   25.6750  -19.8610  -15.8041 C   0  0  0  0  0  0  0  0  0  0  0  0
   26.7827  -19.6779  -15.2193 O   0  0  0  0  0  0  0  0  0  0  0  0
   25.7073  -20.3453  -17.1316 N   0  0  0  0  0  0  0  0  0  0  0  0
   26.3266  -21.6598  -17.4022 C   0  0  1  0  0  0  0  0  0  0  0  0
   26.7139  -22.2957  -16.1058 C   0  0  0  0  0  0  0  0  0  0  0  0
   28.1582  -22.4006  -15.9591 C   0  0  0  0  0  0  0  0  0  0  0  0
   28.8745  -22.9910  -16.7687 O   0  0  0  0  0  0  0  0  0  0  0  0
   25.3215  -22.4610  -18.1527 C   0  0  0  0  0  0  0  0  0  0  0  0
   25.1186  -23.6775  -17.9602 O   0  0  0  0  0  0  0  0  0  0  0  0
   28.8319  -21.8222  -14.8626 O   0  0  0  0  0  0  0  0  0  0  0  0
   24.5556  -21.8224  -19.1314 O   0  0  0  0  0  0  0  0  0  0  0  0
  2 13  1  0
  2  1  1  1
  3  2  1  0
  4  3  1  0
  4  5  2  0
  6  5  1  0
  7 12  2  0
  7  6  1  0
  8  7  1  0
  9 10  1  0
  9  8  2  0
 10 11  2  0
 11 12  1  0
 12  4  1  0
 13 14  2  0
 15 16  1  0
 16 17  2  0
 18 16  1  0
 19 18  1  6
 19 21  1  0
 20 19  1  0
 20 13  1  0
 21 22  2  0
 23 24  1  0
 23 21  1  0
 24 28  1  0
 24 25  1  1
 26 25  1  0
 26 30  1  0
 27 26  2  0
 28 29  2  0
 28 31  1  0
M  END
$$$$
