WND.pdb
     RDKit          3D

 31 32  0  0  1  0  0  0  0  0999 V2000
   20.9417  -15.0003  -16.3908 N   0  0  0  0  0  0  0  0  0  0  0  0
   19.6990  -15.5100  -16.9514 C   0  0  1  0  0  0  0  0  0  0  0  0
   20.0724  -16.8471  -17.6054 C   0  0  0  0  0  0  0  0  0  0  0  0
   20.5779  -16.5045  -18.9568 C   0  0  0  0  0  0  0  0  0  0  0  0
   21.8466  -16.1190  -19.3298 C   0  0  0  0  0  0  0  0  0  0  0  0
   21.8983  -15.8925  -20.6524 N   0  0  0  0  0  0  0  0  0  0  0  0
   20.6739  -16.1244  -21.1616 C   0  0  0  0  0  0  0  0  0  0  0  0
   20.1477  -16.0581  -22.4296 C   0  0  0  0  0  0  0  0  0  0  0  0
   18.8362  -16.3574  -22.6820 C   0  0  0  0  0  0  0  0  0  0  0  0
   18.0102  -16.7368  -21.6422 C   0  0  0  0  0  0  0  0  0  0  0  0
   18.5171  -16.8102  -20.3611 C   0  0  0  0  0  0  0  0  0  0  0  0
   19.8314  -16.5092  -20.1166 C   0  0  0  0  0  0  0  0  0  0  0  0
   18.6483  -15.6589  -15.9475 C   0  0  0  0  0  0  0  0  0  0  0  0
   18.9573  -16.0296  -14.7875 O   0  0  0  0  0  0  0  0  0  0  0  0
   13.7226  -13.4525  -13.6272 N   0  0  0  0  0  0  0  0  0  0  0  0
   14.0984  -14.6159  -14.3538 C   0  0  0  0  0  0  0  0  0  0  0  0
   13.4787  -15.6949  -14.1296 O   0  0  0  0  0  0  0  0  0  0  0  0
   15.1955  -14.4707  -15.3241 C   0  0  0  0  0  0  0  0  0  0  0  0
   16.2462  -15.5540  -15.2062 C   0  0  2  0  0  0  0  0  0  0  0  0
   17.2773  -15.4037  -16.2176 N   0  0  0  0  0  0  0  0  0  0  0  0
   15.6231  -16.9027  -15.3761 C   0  0  0  0  0  0  0  0  0  0  0  0
   15.2652  -17.3003  -16.5234 O   0  0  0  0  0  0  0  0  0  0  0  0
   15.4121  -17.7760  -14.2849 N   0  0  0  0  0  0  0  0  0  0  0  0
   14.7407  -19.0715  -14.5206 C   0  0  1  0  0  0  0  0  0  0  0  0
   15.6101  -20.1748  -14.0086 C   0  0  0  0  0  0  0  0  0  0  0  0
   16.4743  -20.7156  -15.0475 C   0  0  0  0  0  0  0  0  0  0  0  0
   16.5114  -20.2641  -16.1928 O   0  0  0  0  0  0  0  0  0  0  0  0
   13.4285  -19.0080  -13.8210 C   0  0  0  0  0  0  0  0  0  0  0  0
   13.2555  -18.4502  -12.7178 O   0  0  0  0  0  0  0  0  0  0  0  0
   17.3336  -21.8065  -14.7977 O   0  0  0  0  0  0  0  0  0  0  0  0
   12.3199  -19.6047  -14.4272 O   0  0  0  0  0  0  0  0  0  0  0  0
  2 13  1  0
  2  1  1  1
  3  2  1  0
  4  3  1  0
  4  5  2  0
  6  5  1  0
  7 12  2  0
  7  6  1  0
  8  7  1  0
  9 10  1  0
  9  8  2  0
 10 11  2  0
 11 12  1  0
 12  4  1  0
 13 14  2  0
 15 16  1  0
 16 17  2  0
 18 16  1  0
 19 18  1  6
 19 21  1  0
 20 19  1  0
 20 13  1  0
 21 22  2  0
 23 24  1  0
 23 21  1  0
 24 28  1  0
 24 25  1  1
 26 25  1  0
 26 30  1  0
 27 26  2  0
 28 29  2  0
 28 31  1  0
M  END
$$$$
