WND.pdb
     RDKit          3D

 31 32  0  0  1  0  0  0  0  0999 V2000
   24.0358  -20.6805  -17.2971 N   0  0  0  0  0  0  0  0  0  0  0  0
   22.9641  -19.7847  -16.8880 C   0  0  1  0  0  0  0  0  0  0  0  0
   22.1344  -19.5458  -18.1568 C   0  0  0  0  0  0  0  0  0  0  0  0
   22.9974  -18.7395  -19.0536 C   0  0  0  0  0  0  0  0  0  0  0  0
   23.8775  -19.1728  -20.0206 C   0  0  0  0  0  0  0  0  0  0  0  0
   24.4750  -18.1265  -20.6136 N   0  0  0  0  0  0  0  0  0  0  0  0
   23.9990  -17.0012  -20.0485 C   0  0  0  0  0  0  0  0  0  0  0  0
   24.2423  -15.6638  -20.2514 C   0  0  0  0  0  0  0  0  0  0  0  0
   23.6033  -14.6967  -19.5236 C   0  0  0  0  0  0  0  0  0  0  0  0
   22.6879  -15.0631  -18.5564 C   0  0  0  0  0  0  0  0  0  0  0  0
   22.4281  -16.4001  -18.3358 C   0  0  0  0  0  0  0  0  0  0  0  0
   23.0719  -17.3623  -19.0689 C   0  0  0  0  0  0  0  0  0  0  0  0
   22.1613  -20.3297  -15.7960 C   0  0  0  0  0  0  0  0  0  0  0  0
   21.6019  -21.4448  -15.9441 O   0  0  0  0  0  0  0  0  0  0  0  0
   20.1578  -21.4548  -11.2945 N   0  0  0  0  0  0  0  0  0  0  0  0
   20.9625  -20.3181  -11.0063 C   0  0  0  0  0  0  0  0  0  0  0  0
   21.1633  -20.0110   -9.7964 O   0  0  0  0  0  0  0  0  0  0  0  0
   21.5065  -19.5775  -12.1560 C   0  0  0  0  0  0  0  0  0  0  0  0
   21.1633  -20.2058  -13.4896 C   0  0  2  0  0  0  0  0  0  0  0  0
   21.9773  -19.6559  -14.5591 N   0  0  0  0  0  0  0  0  0  0  0  0
   19.7274  -19.9590  -13.8260 C   0  0  0  0  0  0  0  0  0  0  0  0
   19.2615  -18.7820  -13.8099 O   0  0  0  0  0  0  0  0  0  0  0  0
   18.8453  -21.0080  -14.1713 N   0  0  0  0  0  0  0  0  0  0  0  0
   17.4332  -20.6902  -14.4714 C   0  0  1  0  0  0  0  0  0  0  0  0
   17.0236  -21.4063  -15.7182 C   0  0  0  0  0  0  0  0  0  0  0  0
   16.9901  -20.5189  -16.8715 C   0  0  0  0  0  0  0  0  0  0  0  0
   17.2285  -19.3127  -16.7981 O   0  0  0  0  0  0  0  0  0  0  0  0
   16.6379  -21.1096  -13.2853 C   0  0  0  0  0  0  0  0  0  0  0  0
   15.5951  -20.5355  -12.9096 O   0  0  0  0  0  0  0  0  0  0  0  0
   16.6773  -20.9977  -18.1613 O   0  0  0  0  0  0  0  0  0  0  0  0
   17.0763  -22.2095  -12.5434 O   0  0  0  0  0  0  0  0  0  0  0  0
  2 13  1  0
  2  1  1  6
  3  2  1  0
  4  3  1  0
  4  5  2  0
  6  5  1  0
  7 12  2  0
  7  6  1  0
  8  7  1  0
  9 10  1  0
  9  8  2  0
 10 11  2  0
 11 12  1  0
 12  4  1  0
 13 14  2  0
 15 16  1  0
 16 17  2  0
 18 16  1  0
 19 18  1  1
 19 21  1  0
 20 19  1  0
 20 13  1  0
 21 22  2  0
 23 24  1  0
 23 21  1  0
 24 28  1  0
 24 25  1  6
 26 25  1  0
 26 30  1  0
 27 26  2  0
 28 29  2  0
 28 31  1  0
M  END
$$$$
