WND.pdb
     RDKit          3D

 31 32  0  0  1  0  0  0  0  0999 V2000
   27.1594  -22.2022  -13.6394 N   0  0  0  0  0  0  0  0  0  0  0  0
   26.0659  -21.5184  -12.9648 C   0  0  1  0  0  0  0  0  0  0  0  0
   26.6286  -20.1435  -12.5802 C   0  0  0  0  0  0  0  0  0  0  0  0
   27.5719  -20.3950  -11.4639 C   0  0  0  0  0  0  0  0  0  0  0  0
   28.9435  -20.5151  -11.5056 C   0  0  0  0  0  0  0  0  0  0  0  0
   29.4318  -20.7466  -10.2762 N   0  0  0  0  0  0  0  0  0  0  0  0
   28.3955  -20.7813   -9.4176 C   0  0  0  0  0  0  0  0  0  0  0  0
   28.2965  -20.9749   -8.0604 C   0  0  0  0  0  0  0  0  0  0  0  0
   27.0890  -20.9578   -7.4164 C   0  0  0  0  0  0  0  0  0  0  0  0
   25.9325  -20.7415   -8.1397 C   0  0  0  0  0  0  0  0  0  0  0  0
   26.0082  -20.5448   -9.5032 C   0  0  0  0  0  0  0  0  0  0  0  0
   27.2210  -20.5632  -10.1406 C   0  0  0  0  0  0  0  0  0  0  0  0
   24.8694  -21.4140  -13.7964 C   0  0  0  0  0  0  0  0  0  0  0  0
   24.9771  -20.9914  -14.9746 O   0  0  0  0  0  0  0  0  0  0  0  0
   23.8581  -24.8992  -14.7080 N   0  0  0  0  0  0  0  0  0  0  0  0
   23.2331  -23.8156  -15.3848 C   0  0  0  0  0  0  0  0  0  0  0  0
   23.6791  -23.4721  -16.5168 O   0  0  0  0  0  0  0  0  0  0  0  0
   22.0992  -23.1694  -14.7043 C   0  0  0  0  0  0  0  0  0  0  0  0
   22.4139  -21.7734  -14.2109 C   0  0  2  0  0  0  0  0  0  0  0  0
   23.5733  -21.7696  -13.3366 N   0  0  0  0  0  0  0  0  0  0  0  0
   21.2546  -21.2191  -13.4462 C   0  0  0  0  0  0  0  0  0  0  0  0
   20.4176  -21.9981  -12.9028 O   0  0  0  0  0  0  0  0  0  0  0  0
   21.0474  -19.8288  -13.2981 N   0  0  0  0  0  0  0  0  0  0  0  0
   19.7659  -19.2417  -13.7430 C   0  0  1  0  0  0  0  0  0  0  0  0
   19.8080  -19.0368  -15.2233 C   0  0  0  0  0  0  0  0  0  0  0  0
   18.5834  -18.4313  -15.7256 C   0  0  0  0  0  0  0  0  0  0  0  0
   17.6549  -18.0869  -14.9933 O   0  0  0  0  0  0  0  0  0  0  0  0
   18.6941  -20.1875  -13.3283 C   0  0  0  0  0  0  0  0  0  0  0  0
   17.8386  -19.9294  -12.4568 O   0  0  0  0  0  0  0  0  0  0  0  0
   18.3865  -18.2002  -17.1035 O   0  0  0  0  0  0  0  0  0  0  0  0
   18.6340  -21.4396  -13.9456 O   0  0  0  0  0  0  0  0  0  0  0  0
  2 13  1  0
  2  1  1  6
  3  2  1  0
  4  3  1  0
  4  5  2  0
  6  5  1  0
  7 12  2  0
  7  6  1  0
  8  7  1  0
  9 10  1  0
  9  8  2  0
 10 11  2  0
 11 12  1  0
 12  4  1  0
 13 14  2  0
 15 16  1  0
 16 17  2  0
 18 16  1  0
 19 18  1  1
 19 21  1  0
 20 19  1  0
 20 13  1  0
 21 22  2  0
 23 24  1  0
 23 21  1  0
 24 28  1  0
 24 25  1  6
 26 25  1  0
 26 30  1  0
 27 26  2  0
 28 29  2  0
 28 31  1  0
M  END
$$$$
