WND.pdb
     RDKit          3D

 31 32  0  0  1  0  0  0  0  0999 V2000
   28.7103  -30.2266  -16.5628 N   0  0  0  0  0  0  0  0  0  0  0  0
   28.6454  -29.1261  -17.5132 C   0  0  1  0  0  0  0  0  0  0  0  0
   27.3354  -29.3380  -18.2839 C   0  0  0  0  0  0  0  0  0  0  0  0
   27.5999  -30.4540  -19.2240 C   0  0  0  0  0  0  0  0  0  0  0  0
   27.5353  -31.8101  -18.9913 C   0  0  0  0  0  0  0  0  0  0  0  0
   27.8532  -32.4925  -20.1033 N   0  0  0  0  0  0  0  0  0  0  0  0
   28.1286  -31.6007  -21.0734 C   0  0  0  0  0  0  0  0  0  0  0  0
   28.5012  -31.7198  -22.3910 C   0  0  0  0  0  0  0  0  0  0  0  0
   28.7210  -30.6230  -23.1796 C   0  0  0  0  0  0  0  0  0  0  0  0
   28.5678  -29.3578  -22.6475 C   0  0  0  0  0  0  0  0  0  0  0  0
   28.1943  -29.2145  -21.3270 C   0  0  0  0  0  0  0  0  0  0  0  0
   27.9759  -30.3177  -20.5441 C   0  0  0  0  0  0  0  0  0  0  0  0
   28.7008  -27.8185  -16.8644 C   0  0  0  0  0  0  0  0  0  0  0  0
   28.3769  -27.7207  -15.6544 O   0  0  0  0  0  0  0  0  0  0  0  0
   32.5360  -25.9303  -16.2170 N   0  0  0  0  0  0  0  0  0  0  0  0
   31.3967  -25.1609  -15.8524 C   0  0  0  0  0  0  0  0  0  0  0  0
   31.2086  -24.9019  -14.6293 O   0  0  0  0  0  0  0  0  0  0  0  0
   30.5129  -24.7199  -16.9436 C   0  0  0  0  0  0  0  0  0  0  0  0
   29.1333  -25.3400  -16.8842 C   0  0  2  0  0  0  0  0  0  0  0  0
   29.1068  -26.6360  -17.5387 N   0  0  0  0  0  0  0  0  0  0  0  0
   28.1371  -24.4565  -17.5645 C   0  0  0  0  0  0  0  0  0  0  0  0
   27.8159  -24.6675  -18.7707 O   0  0  0  0  0  0  0  0  0  0  0  0
   27.5213  -23.3695  -16.9033 N   0  0  0  0  0  0  0  0  0  0  0  0
   26.4274  -22.6423  -17.5810 C   0  0  1  0  0  0  0  0  0  0  0  0
   25.3346  -23.6049  -17.9196 C   0  0  0  0  0  0  0  0  0  0  0  0
   24.1525  -22.9296  -18.4344 C   0  0  0  0  0  0  0  0  0  0  0  0
   24.1169  -21.7204  -18.6659 O   0  0  0  0  0  0  0  0  0  0  0  0
   25.9779  -21.5752  -16.6458 C   0  0  0  0  0  0  0  0  0  0  0  0
   25.7577  -20.3961  -16.9913 O   0  0  0  0  0  0  0  0  0  0  0  0
   22.9593  -23.6335  -18.7023 O   0  0  0  0  0  0  0  0  0  0  0  0
   25.7884  -21.9034  -15.3010 O   0  0  0  0  0  0  0  0  0  0  0  0
  2 13  1  0
  2  1  1  1
  3  2  1  0
  4  3  1  0
  4  5  2  0
  6  5  1  0
  7 12  2  0
  7  6  1  0
  8  7  1  0
  9 10  1  0
  9  8  2  0
 10 11  2  0
 11 12  1  0
 12  4  1  0
 13 14  2  0
 15 16  1  0
 16 17  2  0
 18 16  1  0
 19 18  1  6
 19 21  1  0
 20 19  1  0
 20 13  1  0
 21 22  2  0
 23 24  1  0
 23 21  1  0
 24 28  1  0
 24 25  1  1
 26 25  1  0
 26 30  1  0
 27 26  2  0
 28 29  2  0
 28 31  1  0
M  END
$$$$
