WND.pdb
     RDKit          3D

 31 32  0  0  1  0  0  0  0  0999 V2000
   25.2737  -19.6152  -17.1172 N   0  0  0  0  0  0  0  0  0  0  0  0
   24.1854  -19.3645  -16.1840 C   0  0  1  0  0  0  0  0  0  0  0  0
   22.9021  -19.5467  -17.0056 C   0  0  0  0  0  0  0  0  0  0  0  0
   22.8049  -18.3444  -17.8683 C   0  0  0  0  0  0  0  0  0  0  0  0
   23.4352  -18.0907  -19.0665 C   0  0  0  0  0  0  0  0  0  0  0  0
   23.0867  -16.8805  -19.5328 N   0  0  0  0  0  0  0  0  0  0  0  0
   22.2296  -16.3278  -18.6540 C   0  0  0  0  0  0  0  0  0  0  0  0
   21.5585  -15.1291  -18.6121 C   0  0  0  0  0  0  0  0  0  0  0  0
   20.7214  -14.8078  -17.5780 C   0  0  0  0  0  0  0  0  0  0  0  0
   20.5392  -15.7043  -16.5433 C   0  0  0  0  0  0  0  0  0  0  0  0
   21.2030  -16.9137  -16.5647 C   0  0  0  0  0  0  0  0  0  0  0  0
   22.0392  -17.2280  -17.6038 C   0  0  0  0  0  0  0  0  0  0  0  0
   24.2277  -20.2467  -15.0204 C   0  0  0  0  0  0  0  0  0  0  0  0
   24.5857  -21.4416  -15.1701 O   0  0  0  0  0  0  0  0  0  0  0  0
   25.5489  -21.7620  -10.1730 N   0  0  0  0  0  0  0  0  0  0  0  0
   24.5298  -20.7712  -10.1233 C   0  0  0  0  0  0  0  0  0  0  0  0
   23.8277  -20.6783   -9.0759 O   0  0  0  0  0  0  0  0  0  0  0  0
   24.3697  -19.9190  -11.3126 C   0  0  0  0  0  0  0  0  0  0  0  0
   23.9859  -20.6923  -12.5559 C   0  0  2  0  0  0  0  0  0  0  0  0
   23.8804  -19.8188  -13.7112 N   0  0  0  0  0  0  0  0  0  0  0  0
   22.6652  -21.3659  -12.3617 C   0  0  0  0  0  0  0  0  0  0  0  0
   22.4846  -22.5480  -12.7772 O   0  0  0  0  0  0  0  0  0  0  0  0
   21.5824  -20.7257  -11.7170 N   0  0  0  0  0  0  0  0  0  0  0  0
   20.3184  -20.5308  -12.4579 C   0  0  1  0  0  0  0  0  0  0  0  0
   20.4846  -19.4008  -13.4227 C   0  0  0  0  0  0  0  0  0  0  0  0
   19.2970  -19.2020  -14.2405 C   0  0  0  0  0  0  0  0  0  0  0  0
   19.0640  -18.1532  -14.8427 O   0  0  0  0  0  0  0  0  0  0  0  0
   20.0158  -21.8204  -13.1367 C   0  0  0  0  0  0  0  0  0  0  0  0
   20.8012  -22.3951  -13.9184 O   0  0  0  0  0  0  0  0  0  0  0  0
   18.3284  -20.2166  -14.3927 O   0  0  0  0  0  0  0  0  0  0  0  0
   18.7834  -22.4308  -12.8900 O   0  0  0  0  0  0  0  0  0  0  0  0
  2 13  1  0
  2  1  1  6
  3  2  1  0
  4  3  1  0
  4  5  2  0
  6  5  1  0
  7 12  2  0
  7  6  1  0
  8  7  1  0
  9 10  1  0
  9  8  2  0
 10 11  2  0
 11 12  1  0
 12  4  1  0
 13 14  2  0
 15 16  1  0
 16 17  2  0
 18 16  1  0
 19 18  1  1
 19 21  1  0
 20 19  1  0
 20 13  1  0
 21 22  2  0
 23 24  1  0
 23 21  1  0
 24 28  1  0
 24 25  1  6
 26 25  1  0
 26 30  1  0
 27 26  2  0
 28 29  2  0
 28 31  1  0
M  END
$$$$
