WND.pdb
     RDKit          3D

 31 32  0  0  1  0  0  0  0  0999 V2000
   26.6898  -19.6657  -11.5149 N   0  0  0  0  0  0  0  0  0  0  0  0
   26.4022  -21.0905  -11.5914 C   0  0  1  0  0  0  0  0  0  0  0  0
   25.6313  -21.4141  -10.3045 C   0  0  0  0  0  0  0  0  0  0  0  0
   26.3629  -20.7233   -9.2151 C   0  0  0  0  0  0  0  0  0  0  0  0
   25.8773  -19.8393   -8.2770 C   0  0  0  0  0  0  0  0  0  0  0  0
   26.8639  -19.4304   -7.4629 N   0  0  0  0  0  0  0  0  0  0  0  0
   28.0015  -20.0357   -7.8525 C   0  0  0  0  0  0  0  0  0  0  0  0
   29.2975  -19.9995   -7.3961 C   0  0  0  0  0  0  0  0  0  0  0  0
   30.2899  -20.7347   -7.9859 C   0  0  0  0  0  0  0  0  0  0  0  0
   29.9925  -21.5375   -9.0697 C   0  0  0  0  0  0  0  0  0  0  0  0
   28.6982  -21.5892   -9.5447 C   0  0  0  0  0  0  0  0  0  0  0  0
   27.7102  -20.8503   -8.9485 C   0  0  0  0  0  0  0  0  0  0  0  0
   25.6510  -21.4490  -12.7919 C   0  0  0  0  0  0  0  0  0  0  0  0
   25.2390  -20.5374  -13.5519 O   0  0  0  0  0  0  0  0  0  0  0  0
   24.8531  -24.5883  -17.1800 N   0  0  0  0  0  0  0  0  0  0  0  0
   24.2043  -24.9949  -15.9814 C   0  0  0  0  0  0  0  0  0  0  0  0
   23.1313  -25.6578  -16.0699 O   0  0  0  0  0  0  0  0  0  0  0  0
   24.8422  -24.6065  -14.7131 C   0  0  0  0  0  0  0  0  0  0  0  0
   24.6873  -23.1356  -14.3910 C   0  0  2  0  0  0  0  0  0  0  0  0
   25.3577  -22.7921  -13.1496 N   0  0  0  0  0  0  0  0  0  0  0  0
   23.2407  -22.7844  -14.2494 C   0  0  0  0  0  0  0  0  0  0  0  0
   22.6144  -23.0753  -13.1884 O   0  0  0  0  0  0  0  0  0  0  0  0
   22.5239  -22.1238  -15.2729 N   0  0  0  0  0  0  0  0  0  0  0  0
   21.1125  -21.7531  -15.0377 C   0  0  1  0  0  0  0  0  0  0  0  0
   20.8206  -20.4648  -15.7380 C   0  0  0  0  0  0  0  0  0  0  0  0
   21.1501  -19.3098  -14.9160 C   0  0  0  0  0  0  0  0  0  0  0  0
   21.0098  -19.2941  -13.6924 O   0  0  0  0  0  0  0  0  0  0  0  0
   20.2829  -22.8794  -15.5462 C   0  0  0  0  0  0  0  0  0  0  0  0
   20.6551  -23.6690  -16.4384 O   0  0  0  0  0  0  0  0  0  0  0  0
   21.6577  -18.1218  -15.4833 O   0  0  0  0  0  0  0  0  0  0  0  0
   19.0120  -23.0718  -14.9984 O   0  0  0  0  0  0  0  0  0  0  0  0
  2 13  1  0
  2  1  1  6
  3  2  1  0
  4  3  1  0
  4  5  2  0
  6  5  1  0
  7 12  2  0
  7  6  1  0
  8  7  1  0
  9 10  1  0
  9  8  2  0
 10 11  2  0
 11 12  1  0
 12  4  1  0
 13 14  2  0
 15 16  1  0
 16 17  2  0
 18 16  1  0
 19 18  1  1
 19 21  1  0
 20 19  1  0
 20 13  1  0
 21 22  2  0
 23 24  1  0
 23 21  1  0
 24 28  1  0
 24 25  1  6
 26 25  1  0
 26 30  1  0
 27 26  2  0
 28 29  2  0
 28 31  1  0
M  END
$$$$
