WND.pdb
     RDKit          3D

 31 32  0  0  1  0  0  0  0  0999 V2000
   25.5242  -21.8404   -7.7985 N   0  0  0  0  0  0  0  0  0  0  0  0
   25.5751  -20.6769   -8.6713 C   0  0  1  0  0  0  0  0  0  0  0  0
   27.0694  -20.3949   -8.8776 C   0  0  0  0  0  0  0  0  0  0  0  0
   27.6867  -20.5038   -7.5337 C   0  0  0  0  0  0  0  0  0  0  0  0
   28.2876  -21.5961   -6.9476 C   0  0  0  0  0  0  0  0  0  0  0  0
   28.7189  -21.2883   -5.7137 N   0  0  0  0  0  0  0  0  0  0  0  0
   28.4096  -20.0000   -5.4750 C   0  0  0  0  0  0  0  0  0  0  0  0
   28.6055  -19.1623   -4.4031 C   0  0  0  0  0  0  0  0  0  0  0  0
   28.1855  -17.8597   -4.4204 C   0  0  0  0  0  0  0  0  0  0  0  0
   27.5462  -17.3634   -5.5395 C   0  0  0  0  0  0  0  0  0  0  0  0
   27.3389  -18.1866   -6.6272 C   0  0  0  0  0  0  0  0  0  0  0  0
   27.7626  -19.4895   -6.6021 C   0  0  0  0  0  0  0  0  0  0  0  0
   24.8723  -20.8899   -9.9342 C   0  0  0  0  0  0  0  0  0  0  0  0
   25.2547  -21.8089  -10.7007 O   0  0  0  0  0  0  0  0  0  0  0  0
   20.6878  -18.9551   -9.7027 N   0  0  0  0  0  0  0  0  0  0  0  0
   20.8795  -19.7938  -10.8352 C   0  0  0  0  0  0  0  0  0  0  0  0
   20.1559  -20.8238  -10.9539 O   0  0  0  0  0  0  0  0  0  0  0  0
   21.9206  -19.3912  -11.7946 C   0  0  0  0  0  0  0  0  0  0  0  0
   23.1908  -20.2059  -11.6764 C   0  0  2  0  0  0  0  0  0  0  0  0
   23.7649  -20.1017  -10.3466 N   0  0  0  0  0  0  0  0  0  0  0  0
   24.2094  -19.7256  -12.6601 C   0  0  0  0  0  0  0  0  0  0  0  0
   25.3923  -19.4770  -12.2839 O   0  0  0  0  0  0  0  0  0  0  0  0
   23.9026  -19.5334  -14.0265 N   0  0  0  0  0  0  0  0  0  0  0  0
   24.7341  -20.2004  -15.0505 C   0  0  1  0  0  0  0  0  0  0  0  0
   25.2802  -21.4726  -14.4863 C   0  0  0  0  0  0  0  0  0  0  0  0
   26.7341  -21.4603  -14.4192 C   0  0  0  0  0  0  0  0  0  0  0  0
   27.3933  -22.3940  -13.9601 O   0  0  0  0  0  0  0  0  0  0  0  0
   23.8577  -20.4301  -16.2314 C   0  0  0  0  0  0  0  0  0  0  0  0
   23.0874  -21.4056  -16.3458 O   0  0  0  0  0  0  0  0  0  0  0  0
   27.4843  -20.3595  -14.8841 O   0  0  0  0  0  0  0  0  0  0  0  0
   23.8924  -19.5046  -17.2777 O   0  0  0  0  0  0  0  0  0  0  0  0
  2 13  1  0
  2  1  1  1
  3  2  1  0
  4  3  1  0
  4  5  2  0
  6  5  1  0
  7 12  2  0
  7  6  1  0
  8  7  1  0
  9 10  1  0
  9  8  2  0
 10 11  2  0
 11 12  1  0
 12  4  1  0
 13 14  2  0
 15 16  1  0
 16 17  2  0
 18 16  1  0
 19 18  1  1
 19 21  1  0
 20 19  1  0
 20 13  1  0
 21 22  2  0
 23 24  1  0
 23 21  1  0
 24 28  1  0
 24 25  1  1
 26 25  1  0
 26 30  1  0
 27 26  2  0
 28 29  2  0
 28 31  1  0
M  END
$$$$
