WND.pdb
     RDKit          3D

 31 32  0  0  1  0  0  0  0  0999 V2000
   23.2536  -13.8804  -18.0357 N   0  0  0  0  0  0  0  0  0  0  0  0
   23.5146  -12.6128  -17.3699 C   0  0  1  0  0  0  0  0  0  0  0  0
   24.5885  -11.9247  -18.2233 C   0  0  0  0  0  0  0  0  0  0  0  0
   25.7887  -12.7909  -18.1313 C   0  0  0  0  0  0  0  0  0  0  0  0
   26.3344  -13.6118  -19.0935 C   0  0  0  0  0  0  0  0  0  0  0  0
   27.4228  -14.2362  -18.6151 N   0  0  0  0  0  0  0  0  0  0  0  0
   27.6049  -13.8367  -17.3425 C   0  0  0  0  0  0  0  0  0  0  0  0
   28.5400  -14.1364  -16.3808 C   0  0  0  0  0  0  0  0  0  0  0  0
   28.4976  -13.5729  -15.1342 C   0  0  0  0  0  0  0  0  0  0  0  0
   27.4924  -12.6783  -14.8232 C   0  0  0  0  0  0  0  0  0  0  0  0
   26.5429  -12.3629  -15.7733 C   0  0  0  0  0  0  0  0  0  0  0  0
   26.5925  -12.9312  -17.0192 C   0  0  0  0  0  0  0  0  0  0  0  0
   22.3128  -11.7946  -17.2269 C   0  0  0  0  0  0  0  0  0  0  0  0
   21.4699  -11.7760  -18.1583 O   0  0  0  0  0  0  0  0  0  0  0  0
   17.5455  -10.2499  -16.0487 N   0  0  0  0  0  0  0  0  0  0  0  0
   18.5223  -10.1834  -15.0171 C   0  0  0  0  0  0  0  0  0  0  0  0
   18.2845   -9.4635  -14.0052 O   0  0  0  0  0  0  0  0  0  0  0  0
   19.7515  -10.9692  -15.2110 C   0  0  0  0  0  0  0  0  0  0  0  0
   20.8373  -10.2110  -15.9441 C   0  0  2  0  0  0  0  0  0  0  0  0
   22.0439  -11.0083  -16.0749 N   0  0  0  0  0  0  0  0  0  0  0  0
   21.1866   -8.9591  -15.2047 C   0  0  0  0  0  0  0  0  0  0  0  0
   22.3178   -8.8409  -14.6489 O   0  0  0  0  0  0  0  0  0  0  0  0
   20.2875   -7.8738  -15.0974 N   0  0  0  0  0  0  0  0  0  0  0  0
   20.7966   -6.5602  -14.6501 C   0  0  1  0  0  0  0  0  0  0  0  0
   21.8936   -6.1216  -15.5663 C   0  0  0  0  0  0  0  0  0  0  0  0
   22.3068   -4.7505  -15.3059 C   0  0  0  0  0  0  0  0  0  0  0  0
   22.4354   -4.2919  -14.1700 O   0  0  0  0  0  0  0  0  0  0  0  0
   19.6382   -5.6256  -14.6590 C   0  0  0  0  0  0  0  0  0  0  0  0
   18.8249   -5.5361  -15.6016 O   0  0  0  0  0  0  0  0  0  0  0  0
   22.5885   -3.8529  -16.3575 O   0  0  0  0  0  0  0  0  0  0  0  0
   19.4416   -4.7967  -13.5515 O   0  0  0  0  0  0  0  0  0  0  0  0
  2 13  1  0
  2  1  1  6
  3  2  1  0
  4  3  1  0
  4  5  2  0
  6  5  1  0
  7 12  2  0
  7  6  1  0
  8  7  1  0
  9 10  1  0
  9  8  2  0
 10 11  2  0
 11 12  1  0
 12  4  1  0
 13 14  2  0
 15 16  1  0
 16 17  2  0
 18 16  1  0
 19 18  1  1
 19 21  1  0
 20 19  1  0
 20 13  1  0
 21 22  2  0
 23 24  1  0
 23 21  1  0
 24 28  1  0
 24 25  1  6
 26 25  1  0
 26 30  1  0
 27 26  2  0
 28 29  2  0
 28 31  1  0
M  END
$$$$
