DSQ.pdb
     RDKit          3D

 24 23  0  0  1  0  0  0  0  0999 V2000
   24.8392  -22.4183  -11.2847 N   0  0  0  0  0  0  0  0  0  0  0  0
   24.3192  -21.6533  -12.4010 C   0  0  1  0  0  0  0  0  0  0  0  0
   23.0371  -20.9582  -12.0797 C   0  0  0  0  0  0  0  0  0  0  0  0
   21.9249  -21.9312  -12.2267 C   0  0  0  0  0  0  0  0  0  0  0  0
   22.1226  -23.0909  -12.6307 O   0  0  0  0  0  0  0  0  0  0  0  0
   25.3454  -20.7473  -12.9724 C   0  0  0  0  0  0  0  0  0  0  0  0
   25.7138  -19.7720  -12.2581 O   0  0  0  0  0  0  0  0  0  0  0  0
   20.6331  -21.5429  -11.9075 O   0  0  0  0  0  0  0  0  0  0  0  0
   27.4660  -21.7460  -16.1366 O   0  0  0  0  0  0  0  0  0  0  0  0
   28.0754  -20.8659  -15.2477 C   0  0  0  0  0  0  0  0  0  0  0  0
   26.9650  -19.9920  -14.6602 C   0  0  2  0  0  0  0  0  0  0  0  0
   25.9247  -20.9031  -14.2388 N   0  0  0  0  0  0  0  0  0  0  0  0
   26.5239  -19.0858  -15.7392 C   0  0  0  0  0  0  0  0  0  0  0  0
   25.5315  -19.4253  -16.4298 O   0  0  0  0  0  0  0  0  0  0  0  0
   25.6685  -13.0829  -15.4289 N   0  0  0  0  0  0  0  0  0  0  0  0
   25.4535  -13.3161  -16.8258 C   0  0  0  0  0  0  0  0  0  0  0  0
   24.9619  -12.3456  -17.4688 O   0  0  0  0  0  0  0  0  0  0  0  0
   25.7848  -14.5969  -17.4881 C   0  0  0  0  0  0  0  0  0  0  0  0
   26.3225  -15.6335  -16.5915 C   0  0  0  0  0  0  0  0  0  0  0  0
   26.6521  -16.9680  -17.1365 C   0  0  2  0  0  0  0  0  0  0  0  0
   27.1421  -17.8532  -16.0548 N   0  0  0  0  0  0  0  0  0  0  0  0
   27.4916  -17.0773  -18.3240 C   0  0  0  0  0  0  0  0  0  0  0  0
   27.0061  -16.7585  -19.6132 O   0  0  0  0  0  0  0  0  0  0  0  0
   28.7060  -17.4556  -18.3395 O   0  0  0  0  0  0  0  0  0  0  0  0
  2  1  1  1
  2  3  1  0
  3  4  1  0
  4  8  1  0
  5  4  2  0
  6  2  1  0
  7  6  2  0
  9 10  1  0
 11 10  1  6
 11 13  1  0
 11 12  1  0
 12  6  1  0
 13 21  1  0
 14 13  2  0
 16 18  1  0
 16 15  1  0
 17 16  2  0
 19 18  1  0
 20 19  1  1
 21 20  1  0
 22 23  1  0
 22 20  1  0
 24 22  2  0
M  END
$$$$
