DSQ.pdb
     RDKit          3D

 24 23  0  0  1  0  0  0  0  0999 V2000
   25.9274  -33.7780   -5.9464 N   0  0  0  0  0  0  0  0  0  0  0  0
   24.8889  -33.9939   -4.9582 C   0  0  1  0  0  0  0  0  0  0  0  0
   25.4257  -34.1070   -3.5692 C   0  0  0  0  0  0  0  0  0  0  0  0
   26.1342  -35.4060   -3.4429 C   0  0  0  0  0  0  0  0  0  0  0  0
   25.5490  -36.4881   -3.6270 O   0  0  0  0  0  0  0  0  0  0  0  0
   23.7970  -32.9975   -5.0811 C   0  0  0  0  0  0  0  0  0  0  0  0
   24.1291  -31.7783   -5.0911 O   0  0  0  0  0  0  0  0  0  0  0  0
   27.4801  -35.4188   -3.1121 O   0  0  0  0  0  0  0  0  0  0  0  0
   20.1099  -34.1334   -5.7554 O   0  0  0  0  0  0  0  0  0  0  0  0
   20.3573  -32.8505   -6.2340 C   0  0  0  0  0  0  0  0  0  0  0  0
   21.4689  -32.2608   -5.3630 C   0  0  2  0  0  0  0  0  0  0  0  0
   22.4371  -33.3195   -5.1856 N   0  0  0  0  0  0  0  0  0  0  0  0
   20.8381  -31.8488   -4.0933 C   0  0  0  0  0  0  0  0  0  0  0  0
   20.9963  -32.5834   -3.0871 O   0  0  0  0  0  0  0  0  0  0  0  0
   18.2300  -26.1516   -2.7022 N   0  0  0  0  0  0  0  0  0  0  0  0
   17.7681  -26.9965   -1.6416 C   0  0  0  0  0  0  0  0  0  0  0  0
   17.0233  -26.4374   -0.7875 O   0  0  0  0  0  0  0  0  0  0  0  0
   18.1236  -28.4291   -1.5413 C   0  0  0  0  0  0  0  0  0  0  0  0
   18.8700  -28.9612   -2.6933 C   0  0  0  0  0  0  0  0  0  0  0  0
   19.3764  -30.3499   -2.6543 C   0  0  2  0  0  0  0  0  0  0  0  0
   20.0623  -30.6779   -3.9254 N   0  0  0  0  0  0  0  0  0  0  0  0
   18.4896  -31.4320   -2.2426 C   0  0  0  0  0  0  0  0  0  0  0  0
   18.5717  -32.0165   -0.9577 O   0  0  0  0  0  0  0  0  0  0  0  0
   17.5779  -31.9547   -2.9593 O   0  0  0  0  0  0  0  0  0  0  0  0
  2  1  1  6
  2  3  1  0
  3  4  1  0
  4  8  1  0
  5  4  2  0
  6  2  1  0
  7  6  2  0
  9 10  1  0
 11 10  1  6
 11 13  1  0
 11 12  1  0
 12  6  1  0
 13 21  1  0
 14 13  2  0
 16 18  1  0
 16 15  1  0
 17 16  2  0
 19 18  1  0
 20 19  1  6
 21 20  1  0
 22 23  1  0
 22 20  1  0
 24 22  2  0
M  END
$$$$
