DSQ.pdb
     RDKit          3D

 24 23  0  0  1  0  0  0  0  0999 V2000
   18.6908  -11.3312  -14.8781 N   0  0  0  0  0  0  0  0  0  0  0  0
   17.9593  -10.0809  -14.8217 C   0  0  1  0  0  0  0  0  0  0  0  0
   16.5174  -10.2369  -15.1776 C   0  0  0  0  0  0  0  0  0  0  0  0
   16.4263  -10.6523  -16.6004 C   0  0  0  0  0  0  0  0  0  0  0  0
   16.1432  -11.8202  -16.9214 O   0  0  0  0  0  0  0  0  0  0  0  0
   18.1681   -9.3792  -13.5316 C   0  0  0  0  0  0  0  0  0  0  0  0
   17.7965   -9.9794  -12.4834 O   0  0  0  0  0  0  0  0  0  0  0  0
   16.6613   -9.7201  -17.5989 O   0  0  0  0  0  0  0  0  0  0  0  0
   21.2054   -7.1238  -12.2956 O   0  0  0  0  0  0  0  0  0  0  0  0
   19.9856   -6.4575  -12.2295 C   0  0  0  0  0  0  0  0  0  0  0  0
   18.9033   -7.5302  -12.0883 C   0  0  2  0  0  0  0  0  0  0  0  0
   18.7443   -8.1082  -13.4038 N   0  0  0  0  0  0  0  0  0  0  0  0
   17.6843   -6.8424  -11.6186 C   0  0  0  0  0  0  0  0  0  0  0  0
   16.9641   -6.2650  -12.4701 O   0  0  0  0  0  0  0  0  0  0  0  0
   13.7660   -9.1679   -7.5466 N   0  0  0  0  0  0  0  0  0  0  0  0
   13.2032   -7.8657   -7.7452 C   0  0  0  0  0  0  0  0  0  0  0  0
   12.0904   -7.6635   -7.1814 O   0  0  0  0  0  0  0  0  0  0  0  0
   13.8687   -6.8152   -8.5468 C   0  0  0  0  0  0  0  0  0  0  0  0
   15.2145   -7.1673   -9.0286 C   0  0  0  0  0  0  0  0  0  0  0  0
   15.9655   -6.2028   -9.8607 C   0  0  2  0  0  0  0  0  0  0  0  0
   17.2645   -6.7854  -10.2689 N   0  0  0  0  0  0  0  0  0  0  0  0
   16.1279   -4.8271   -9.4049 C   0  0  0  0  0  0  0  0  0  0  0  0
   15.0317   -3.9397   -9.3041 O   0  0  0  0  0  0  0  0  0  0  0  0
   17.2266   -4.2869   -9.0595 O   0  0  0  0  0  0  0  0  0  0  0  0
  2  1  1  1
  2  3  1  0
  3  4  1  0
  4  8  1  0
  5  4  2  0
  6  2  1  0
  7  6  2  0
  9 10  1  0
 11 10  1  6
 11 13  1  0
 11 12  1  0
 12  6  1  0
 13 21  1  0
 14 13  2  0
 16 18  1  0
 16 15  1  0
 17 16  2  0
 19 18  1  0
 20 19  1  1
 21 20  1  0
 22 23  1  0
 22 20  1  0
 24 22  2  0
M  END
$$$$
