DSQ.pdb
     RDKit          3D

 24 23  0  0  1  0  0  0  0  0999 V2000
   14.0029   -9.5725  -12.4419 N   0  0  0  0  0  0  0  0  0  0  0  0
   15.4180   -9.6774  -12.1450 C   0  0  1  0  0  0  0  0  0  0  0  0
   16.1094  -10.7070  -12.9769 C   0  0  0  0  0  0  0  0  0  0  0  0
   15.5477  -12.0396  -12.6391 C   0  0  0  0  0  0  0  0  0  0  0  0
   15.1535  -12.3085  -11.4904 O   0  0  0  0  0  0  0  0  0  0  0  0
   16.0872   -8.3542  -12.1813 C   0  0  0  0  0  0  0  0  0  0  0  0
   16.0411   -7.7157  -13.2709 O   0  0  0  0  0  0  0  0  0  0  0  0
   15.4582  -13.0109  -13.6238 O   0  0  0  0  0  0  0  0  0  0  0  0
   17.7032   -6.7763   -8.9517 O   0  0  0  0  0  0  0  0  0  0  0  0
   17.3277   -5.8130   -9.8829 C   0  0  0  0  0  0  0  0  0  0  0  0
   17.3852   -6.4819  -11.2582 C   0  0  2  0  0  0  0  0  0  0  0  0
   16.7590   -7.7748  -11.0965 N   0  0  0  0  0  0  0  0  0  0  0  0
   18.8130   -6.5832  -11.6202 C   0  0  0  0  0  0  0  0  0  0  0  0
   19.4906   -7.5074  -11.1067 O   0  0  0  0  0  0  0  0  0  0  0  0
   21.4376   -8.4011  -16.3434 N   0  0  0  0  0  0  0  0  0  0  0  0
   20.8388   -8.9399  -15.1588 C   0  0  0  0  0  0  0  0  0  0  0  0
   20.5295  -10.1638  -15.2155 O   0  0  0  0  0  0  0  0  0  0  0  0
   20.5980   -8.1346  -13.9413 C   0  0  0  0  0  0  0  0  0  0  0  0
   21.0736   -6.7435  -14.0182 C   0  0  0  0  0  0  0  0  0  0  0  0
   20.9140   -5.8537  -12.8480 C   0  0  2  0  0  0  0  0  0  0  0  0
   19.4792   -5.7086  -12.5103 N   0  0  0  0  0  0  0  0  0  0  0  0
   21.5917   -4.5626  -12.8232 C   0  0  0  0  0  0  0  0  0  0  0  0
   22.9921   -4.4577  -12.6586 O   0  0  0  0  0  0  0  0  0  0  0  0
   21.0277   -3.4285  -12.9414 O   0  0  0  0  0  0  0  0  0  0  0  0
  2  1  1  6
  2  3  1  0
  3  4  1  0
  4  8  1  0
  5  4  2  0
  6  2  1  0
  7  6  2  0
  9 10  1  0
 11 10  1  1
 11 13  1  0
 11 12  1  0
 12  6  1  0
 13 21  1  0
 14 13  2  0
 16 18  1  0
 16 15  1  0
 17 16  2  0
 19 18  1  0
 20 19  1  6
 21 20  1  0
 22 23  1  0
 22 20  1  0
 24 22  2  0
M  END
$$$$
