DSQ.pdb
     RDKit          3D

 24 23  0  0  1  0  0  0  0  0999 V2000
   15.6166  -10.9930  -15.5204 N   0  0  0  0  0  0  0  0  0  0  0  0
   16.9773  -10.9065  -15.0278 C   0  0  1  0  0  0  0  0  0  0  0  0
   17.9881  -11.3344  -16.0403 C   0  0  0  0  0  0  0  0  0  0  0  0
   17.8758  -12.8036  -16.2254 C   0  0  0  0  0  0  0  0  0  0  0  0
   18.0901  -13.5964  -15.2912 O   0  0  0  0  0  0  0  0  0  0  0  0
   17.2668   -9.5745  -14.4429 C   0  0  0  0  0  0  0  0  0  0  0  0
   16.9666   -8.5630  -15.1384 O   0  0  0  0  0  0  0  0  0  0  0  0
   17.5239  -13.3091  -17.4671 O   0  0  0  0  0  0  0  0  0  0  0  0
   17.2417   -8.4903  -10.6091 O   0  0  0  0  0  0  0  0  0  0  0  0
   18.4271   -8.1292  -11.2422 C   0  0  0  0  0  0  0  0  0  0  0  0
   18.1149   -8.0216  -12.7365 C   0  0  2  0  0  0  0  0  0  0  0  0
   17.8453   -9.3698  -13.1830 N   0  0  0  0  0  0  0  0  0  0  0  0
   19.3102   -7.4388  -13.3777 C   0  0  0  0  0  0  0  0  0  0  0  0
   20.2327   -8.2153  -13.7287 O   0  0  0  0  0  0  0  0  0  0  0  0
   19.3729   -2.2387  -16.9005 N   0  0  0  0  0  0  0  0  0  0  0  0
   20.7594   -2.5968  -16.8600 C   0  0  0  0  0  0  0  0  0  0  0  0
   21.5233   -1.8915  -17.5783 O   0  0  0  0  0  0  0  0  0  0  0  0
   21.2794   -3.7088  -16.0343 C   0  0  0  0  0  0  0  0  0  0  0  0
   20.2611   -4.4146  -15.2391 C   0  0  0  0  0  0  0  0  0  0  0  0
   20.6696   -5.5293  -14.3575 C   0  0  2  0  0  0  0  0  0  0  0  0
   19.4943   -6.0587  -13.6280 N   0  0  0  0  0  0  0  0  0  0  0  0
   21.8105   -5.3644  -13.4642 C   0  0  0  0  0  0  0  0  0  0  0  0
   21.6468   -5.1391  -12.0779 O   0  0  0  0  0  0  0  0  0  0  0  0
   23.0337   -5.4021  -13.8115 O   0  0  0  0  0  0  0  0  0  0  0  0
  2  1  1  6
  2  3  1  0
  3  4  1  0
  4  8  1  0
  5  4  2  0
  6  2  1  0
  7  6  2  0
  9 10  1  0
 11 10  1  1
 11 13  1  0
 11 12  1  0
 12  6  1  0
 13 21  1  0
 14 13  2  0
 16 18  1  0
 16 15  1  0
 17 16  2  0
 19 18  1  0
 20 19  1  1
 21 20  1  0
 22 23  1  0
 22 20  1  0
 24 22  2  0
M  END
$$$$
