DSQ.pdb
     RDKit          3D

 24 23  0  0  1  0  0  0  0  0999 V2000
   13.7580  -10.2971   -8.9272 N   0  0  0  0  0  0  0  0  0  0  0  0
   14.5864   -9.9664  -10.0701 C   0  0  1  0  0  0  0  0  0  0  0  0
   14.0333  -10.4862  -11.3561 C   0  0  0  0  0  0  0  0  0  0  0  0
   13.8566  -11.9555  -11.2325 C   0  0  0  0  0  0  0  0  0  0  0  0
   14.8159  -12.7092  -10.9895 O   0  0  0  0  0  0  0  0  0  0  0  0
   14.9065   -8.5187  -10.1168 C   0  0  0  0  0  0  0  0  0  0  0  0
   14.9125   -7.9672  -11.2538 O   0  0  0  0  0  0  0  0  0  0  0  0
   12.5943  -12.5058  -11.3907 O   0  0  0  0  0  0  0  0  0  0  0  0
   13.9605   -5.7175   -7.3935 O   0  0  0  0  0  0  0  0  0  0  0  0
   15.3064   -5.7143   -7.7467 C   0  0  0  0  0  0  0  0  0  0  0  0
   15.3955   -6.3108   -9.1532 C   0  0  2  0  0  0  0  0  0  0  0  0
   15.1990   -7.7341   -8.9932 N   0  0  0  0  0  0  0  0  0  0  0  0
   16.7374   -5.9769   -9.6704 C   0  0  0  0  0  0  0  0  0  0  0  0
   17.7295   -6.5542   -9.1609 O   0  0  0  0  0  0  0  0  0  0  0  0
   19.8373   -8.8588  -12.3552 N   0  0  0  0  0  0  0  0  0  0  0  0
   20.5707   -7.6953  -12.7557 C   0  0  0  0  0  0  0  0  0  0  0  0
   21.6599   -7.9202  -13.3557 O   0  0  0  0  0  0  0  0  0  0  0  0
   20.0969   -6.3176  -12.4985 C   0  0  0  0  0  0  0  0  0  0  0  0
   18.8455   -6.2297  -11.7281 C   0  0  0  0  0  0  0  0  0  0  0  0
   18.3191   -4.9026  -11.3431 C   0  0  2  0  0  0  0  0  0  0  0  0
   16.9898   -5.0470  -10.7061 N   0  0  0  0  0  0  0  0  0  0  0  0
   18.3198   -3.8145  -12.3141 C   0  0  0  0  0  0  0  0  0  0  0  0
   19.5158   -3.1841  -12.7280 O   0  0  0  0  0  0  0  0  0  0  0  0
   17.2898   -3.3257  -12.8784 O   0  0  0  0  0  0  0  0  0  0  0  0
  2  1  1  1
  2  3  1  0
  3  4  1  0
  4  8  1  0
  5  4  2  0
  6  2  1  0
  7  6  2  0
  9 10  1  0
 11 10  1  1
 11 13  1  0
 11 12  1  0
 12  6  1  0
 13 21  1  0
 14 13  2  0
 16 18  1  0
 16 15  1  0
 17 16  2  0
 19 18  1  0
 20 19  1  6
 21 20  1  0
 22 23  1  0
 22 20  1  0
 24 22  2  0
M  END
$$$$
