DSQ.pdb
     RDKit          3D

 24 23  0  0  1  0  0  0  0  0999 V2000
   18.6812  -11.2690  -15.9245 N   0  0  0  0  0  0  0  0  0  0  0  0
   18.1974   -9.9353  -15.6265 C   0  0  1  0  0  0  0  0  0  0  0  0
   16.7979   -9.7085  -16.0958 C   0  0  0  0  0  0  0  0  0  0  0  0
   16.7960   -9.6953  -17.5807 C   0  0  0  0  0  0  0  0  0  0  0  0
   16.4094  -10.6763  -18.2407 O   0  0  0  0  0  0  0  0  0  0  0  0
   18.3972   -9.5838  -14.1993 C   0  0  0  0  0  0  0  0  0  0  0  0
   18.0079  -10.4244  -13.3398 O   0  0  0  0  0  0  0  0  0  0  0  0
   17.2344   -8.5651  -18.2528 O   0  0  0  0  0  0  0  0  0  0  0  0
   21.4457   -7.8001  -12.3943 O   0  0  0  0  0  0  0  0  0  0  0  0
   20.2451   -7.1292  -12.1830 C   0  0  0  0  0  0  0  0  0  0  0  0
   19.1283   -8.1651  -12.3298 C   0  0  2  0  0  0  0  0  0  0  0  0
   18.9832   -8.3928  -13.7500 N   0  0  0  0  0  0  0  0  0  0  0  0
   17.9196   -7.5734  -11.7226 C   0  0  0  0  0  0  0  0  0  0  0  0
   17.2549   -6.7536  -12.4033 O   0  0  0  0  0  0  0  0  0  0  0  0
   13.3809  -10.4548   -8.9809 N   0  0  0  0  0  0  0  0  0  0  0  0
   13.0302   -9.0943   -8.7014 C   0  0  0  0  0  0  0  0  0  0  0  0
   11.9144   -8.9274   -8.1320 O   0  0  0  0  0  0  0  0  0  0  0  0
   13.9053   -7.9513   -9.0429 C   0  0  0  0  0  0  0  0  0  0  0  0
   15.2593   -8.3225   -9.4860 C   0  0  0  0  0  0  0  0  0  0  0  0
   16.2189   -7.2619   -9.8613 C   0  0  2  0  0  0  0  0  0  0  0  0
   17.4513   -7.8643  -10.4199 N   0  0  0  0  0  0  0  0  0  0  0  0
   16.5374   -6.2045   -8.9088 C   0  0  0  0  0  0  0  0  0  0  0  0
   15.6044   -5.1965   -8.5729 O   0  0  0  0  0  0  0  0  0  0  0  0
   17.6434   -6.0701   -8.2949 O   0  0  0  0  0  0  0  0  0  0  0  0
  2  1  1  1
  2  3  1  0
  3  4  1  0
  4  8  1  0
  5  4  2  0
  6  2  1  0
  7  6  2  0
  9 10  1  0
 11 10  1  6
 11 13  1  0
 11 12  1  0
 12  6  1  0
 13 21  1  0
 14 13  2  0
 16 18  1  0
 16 15  1  0
 17 16  2  0
 19 18  1  0
 20 19  1  1
 21 20  1  0
 22 23  1  0
 22 20  1  0
 24 22  2  0
M  END
$$$$
