DSQ.pdb
     RDKit          3D

 24 23  0  0  1  0  0  0  0  0999 V2000
   18.5063   -9.0209  -14.6675 N   0  0  0  0  0  0  0  0  0  0  0  0
   18.8040   -8.5957  -13.3139 C   0  0  1  0  0  0  0  0  0  0  0  0
   19.7470   -7.4388  -13.2643 C   0  0  0  0  0  0  0  0  0  0  0  0
   21.0041   -7.8266  -13.9531 C   0  0  0  0  0  0  0  0  0  0  0  0
   21.6333   -7.0220  -14.6629 O   0  0  0  0  0  0  0  0  0  0  0  0
   17.5689   -8.3745  -12.5227 C   0  0  0  0  0  0  0  0  0  0  0  0
   16.6767   -7.6448  -13.0408 O   0  0  0  0  0  0  0  0  0  0  0  0
   21.4927   -9.1153  -13.8050 O   0  0  0  0  0  0  0  0  0  0  0  0
   14.4859   -9.8588   -9.3015 O   0  0  0  0  0  0  0  0  0  0  0  0
   15.7923   -9.9551   -9.7708 C   0  0  0  0  0  0  0  0  0  0  0  0
   16.0501   -8.7075  -10.6188 C   0  0  2  0  0  0  0  0  0  0  0  0
   17.3324   -8.9172  -11.2526 N   0  0  0  0  0  0  0  0  0  0  0  0
   16.0557   -7.5589   -9.6912 C   0  0  0  0  0  0  0  0  0  0  0  0
   17.0193   -7.4455   -8.8939 O   0  0  0  0  0  0  0  0  0  0  0  0
   16.3085   -1.7717  -10.4874 N   0  0  0  0  0  0  0  0  0  0  0  0
   15.9930   -1.7889   -9.0902 C   0  0  0  0  0  0  0  0  0  0  0  0
   16.1347   -0.6870   -8.4882 O   0  0  0  0  0  0  0  0  0  0  0  0
   15.5254   -3.0030   -8.3859 C   0  0  0  0  0  0  0  0  0  0  0  0
   15.4832   -4.2189   -9.2149 C   0  0  0  0  0  0  0  0  0  0  0  0
   15.0393   -5.4949   -8.6138 C   0  0  2  0  0  0  0  0  0  0  0  0
   15.0472   -6.5686   -9.6340 N   0  0  0  0  0  0  0  0  0  0  0  0
   13.8160   -5.5342   -7.8208 C   0  0  0  0  0  0  0  0  0  0  0  0
   13.6774   -4.7925   -6.6250 O   0  0  0  0  0  0  0  0  0  0  0  0
   12.7752   -6.2105   -8.0991 O   0  0  0  0  0  0  0  0  0  0  0  0
  2  1  1  6
  2  3  1  0
  3  4  1  0
  4  8  1  0
  5  4  2  0
  6  2  1  0
  7  6  2  0
  9 10  1  0
 11 10  1  1
 11 13  1  0
 11 12  1  0
 12  6  1  0
 13 21  1  0
 14 13  2  0
 16 18  1  0
 16 15  1  0
 17 16  2  0
 19 18  1  0
 20 19  1  6
 21 20  1  0
 22 23  1  0
 22 20  1  0
 24 22  2  0
M  END
$$$$
