DSQ.pdb
     RDKit          3D

 24 23  0  0  1  0  0  0  0  0999 V2000
   20.9402  -13.3319  -17.1968 N   0  0  0  0  0  0  0  0  0  0  0  0
   20.1644  -12.1184  -17.0317 C   0  0  1  0  0  0  0  0  0  0  0  0
   18.7278  -12.3867  -16.7244 C   0  0  0  0  0  0  0  0  0  0  0  0
   18.1519  -13.1905  -17.8323 C   0  0  0  0  0  0  0  0  0  0  0  0
   18.8395  -13.5439  -18.8068 O   0  0  0  0  0  0  0  0  0  0  0  0
   20.8011  -11.1852  -16.0704 C   0  0  0  0  0  0  0  0  0  0  0  0
   20.0643  -10.7002  -15.1654 O   0  0  0  0  0  0  0  0  0  0  0  0
   16.8164  -13.5586  -17.7845 O   0  0  0  0  0  0  0  0  0  0  0  0
   24.4947   -9.9459  -16.5831 O   0  0  0  0  0  0  0  0  0  0  0  0
   24.1719   -9.9170  -15.2299 C   0  0  0  0  0  0  0  0  0  0  0  0
   22.6455   -9.8522  -15.1411 C   0  0  2  0  0  0  0  0  0  0  0  0
   22.1515  -10.8122  -16.1024 N   0  0  0  0  0  0  0  0  0  0  0  0
   22.2607   -8.4660  -15.4731 C   0  0  0  0  0  0  0  0  0  0  0  0
   21.7574   -8.2447  -16.6022 O   0  0  0  0  0  0  0  0  0  0  0  0
   17.9340   -6.2270  -16.5851 N   0  0  0  0  0  0  0  0  0  0  0  0
   18.5035   -4.9470  -16.2863 C   0  0  0  0  0  0  0  0  0  0  0  0
   17.7472   -3.9554  -16.4907 O   0  0  0  0  0  0  0  0  0  0  0  0
   19.8787   -4.7796  -15.7671 C   0  0  0  0  0  0  0  0  0  0  0  0
   20.6041   -6.0378  -15.5262 C   0  0  0  0  0  0  0  0  0  0  0  0
   21.9711   -5.9940  -14.9639 C   0  0  2  0  0  0  0  0  0  0  0  0
   22.4186   -7.3597  -14.6058 N   0  0  0  0  0  0  0  0  0  0  0  0
   22.2871   -5.0438  -13.9037 C   0  0  0  0  0  0  0  0  0  0  0  0
   22.3695   -3.6534  -14.1476 O   0  0  0  0  0  0  0  0  0  0  0  0
   22.5158   -5.3405  -12.6881 O   0  0  0  0  0  0  0  0  0  0  0  0
  2  1  1  1
  2  3  1  0
  3  4  1  0
  4  8  1  0
  5  4  2  0
  6  2  1  0
  7  6  2  0
  9 10  1  0
 11 10  1  6
 11 13  1  0
 11 12  1  0
 12  6  1  0
 13 21  1  0
 14 13  2  0
 16 18  1  0
 16 15  1  0
 17 16  2  0
 19 18  1  0
 20 19  1  1
 21 20  1  0
 22 23  1  0
 22 20  1  0
 24 22  2  0
M  END
$$$$
