DSQ.pdb
     RDKit          3D

 24 23  0  0  1  0  0  0  0  0999 V2000
   15.6957  -11.3893  -16.8444 N   0  0  0  0  0  0  0  0  0  0  0  0
   16.4110  -10.9657  -15.6568 C   0  0  1  0  0  0  0  0  0  0  0  0
   17.1780  -12.0753  -15.0160 C   0  0  0  0  0  0  0  0  0  0  0  0
   16.2114  -13.0678  -14.4813 C   0  0  0  0  0  0  0  0  0  0  0  0
   15.1743  -12.7155  -13.8919 O   0  0  0  0  0  0  0  0  0  0  0  0
   17.2357   -9.7595  -15.9123 C   0  0  0  0  0  0  0  0  0  0  0  0
   17.9991   -9.7872  -16.9191 O   0  0  0  0  0  0  0  0  0  0  0  0
   16.4661  -14.4210  -14.6402 O   0  0  0  0  0  0  0  0  0  0  0  0
   16.5099   -6.3737  -14.0779 O   0  0  0  0  0  0  0  0  0  0  0  0
   17.1141   -6.2413  -15.3243 C   0  0  0  0  0  0  0  0  0  0  0  0
   18.0161   -7.4635  -15.5101 C   0  0  2  0  0  0  0  0  0  0  0  0
   17.2217   -8.6057  -15.1173 N   0  0  0  0  0  0  0  0  0  0  0  0
   19.1895   -7.2602  -14.6374 C   0  0  0  0  0  0  0  0  0  0  0  0
   19.0859   -7.5665  -13.4239 O   0  0  0  0  0  0  0  0  0  0  0  0
   24.5616  -10.5012  -14.7997 N   0  0  0  0  0  0  0  0  0  0  0  0
   23.7655   -9.5463  -15.5113 C   0  0  0  0  0  0  0  0  0  0  0  0
   24.1299   -9.3130  -16.6986 O   0  0  0  0  0  0  0  0  0  0  0  0
   22.5898   -8.8749  -14.9147 C   0  0  0  0  0  0  0  0  0  0  0  0
   22.7364   -7.4214  -14.7329 C   0  0  0  0  0  0  0  0  0  0  0  0
   21.6100   -6.6396  -14.1792 C   0  0  2  0  0  0  0  0  0  0  0  0
   20.4320   -6.7415  -15.0712 N   0  0  0  0  0  0  0  0  0  0  0  0
   21.8264   -5.2621  -13.7519 C   0  0  0  0  0  0  0  0  0  0  0  0
   21.1181   -4.1820  -14.3272 O   0  0  0  0  0  0  0  0  0  0  0  0
   22.6420   -4.8864  -12.8509 O   0  0  0  0  0  0  0  0  0  0  0  0
  2  1  1  6
  2  3  1  0
  3  4  1  0
  4  8  1  0
  5  4  2  0
  6  2  1  0
  7  6  2  0
  9 10  1  0
 11 10  1  1
 11 13  1  0
 11 12  1  0
 12  6  1  0
 13 21  1  0
 14 13  2  0
 16 18  1  0
 16 15  1  0
 17 16  2  0
 19 18  1  0
 20 19  1  6
 21 20  1  0
 22 23  1  0
 22 20  1  0
 24 22  2  0
M  END
$$$$
