DSQ.pdb
     RDKit          3D

 24 23  0  0  1  0  0  0  0  0999 V2000
   14.0359  -11.9725  -13.5687 N   0  0  0  0  0  0  0  0  0  0  0  0
   14.9776  -11.8646  -12.4718 C   0  0  1  0  0  0  0  0  0  0  0  0
   16.3439  -12.3485  -12.8317 C   0  0  0  0  0  0  0  0  0  0  0  0
   16.3175  -13.8322  -12.8888 C   0  0  0  0  0  0  0  0  0  0  0  0
   15.3405  -14.4830  -12.4776 O   0  0  0  0  0  0  0  0  0  0  0  0
   14.9789  -10.5046  -11.8797 C   0  0  0  0  0  0  0  0  0  0  0  0
   15.1616   -9.5339  -12.6680 O   0  0  0  0  0  0  0  0  0  0  0  0
   17.4053  -14.5134  -13.4121 O   0  0  0  0  0  0  0  0  0  0  0  0
   13.8380   -7.6042   -8.2796 O   0  0  0  0  0  0  0  0  0  0  0  0
   14.0398   -8.9196   -8.6859 C   0  0  0  0  0  0  0  0  0  0  0  0
   14.6704   -8.8599  -10.0790 C   0  0  2  0  0  0  0  0  0  0  0  0
   14.7924  -10.2319  -10.5178 N   0  0  0  0  0  0  0  0  0  0  0  0
   15.9790   -8.1945   -9.9231 C   0  0  0  0  0  0  0  0  0  0  0  0
   16.9694   -8.9004   -9.6099 O   0  0  0  0  0  0  0  0  0  0  0  0
   20.0814   -8.0415  -13.0554 N   0  0  0  0  0  0  0  0  0  0  0  0
   20.5941   -6.9617  -12.2660 C   0  0  0  0  0  0  0  0  0  0  0  0
   21.7899   -6.6324  -12.5080 O   0  0  0  0  0  0  0  0  0  0  0  0
   19.7905   -6.2640  -11.2382 C   0  0  0  0  0  0  0  0  0  0  0  0
   18.4467   -6.8247  -11.0210 C   0  0  0  0  0  0  0  0  0  0  0  0
   17.5492   -6.2000  -10.0256 C   0  0  2  0  0  0  0  0  0  0  0  0
   16.2013   -6.8090  -10.1020 N   0  0  0  0  0  0  0  0  0  0  0  0
   17.4639   -4.7467   -9.9399 C   0  0  0  0  0  0  0  0  0  0  0  0
   18.4891   -3.9722   -9.3496 O   0  0  0  0  0  0  0  0  0  0  0  0
   16.4995   -4.0356  -10.3672 O   0  0  0  0  0  0  0  0  0  0  0  0
  2  1  1  6
  2  3  1  0
  3  4  1  0
  4  8  1  0
  5  4  2  0
  6  2  1  0
  7  6  2  0
  9 10  1  0
 11 10  1  1
 11 13  1  0
 11 12  1  0
 12  6  1  0
 13 21  1  0
 14 13  2  0
 16 18  1  0
 16 15  1  0
 17 16  2  0
 19 18  1  0
 20 19  1  6
 21 20  1  0
 22 23  1  0
 22 20  1  0
 24 22  2  0
M  END
$$$$
