DSQ.pdb
     RDKit          3D

 24 23  0  0  1  0  0  0  0  0999 V2000
   29.2402  -21.8518  -17.5826 N   0  0  0  0  0  0  0  0  0  0  0  0
   29.1472  -23.0322  -16.7461 C   0  0  1  0  0  0  0  0  0  0  0  0
   27.8060  -23.6855  -16.8134 C   0  0  0  0  0  0  0  0  0  0  0  0
   26.8636  -22.9139  -15.9639 C   0  0  0  0  0  0  0  0  0  0  0  0
   26.9833  -21.6856  -15.8075 O   0  0  0  0  0  0  0  0  0  0  0  0
   30.2664  -23.9730  -16.9959 C   0  0  0  0  0  0  0  0  0  0  0  0
   30.3511  -24.4720  -18.1539 O   0  0  0  0  0  0  0  0  0  0  0  0
   25.8236  -23.5731  -15.3276 O   0  0  0  0  0  0  0  0  0  0  0  0
   34.2026  -26.2589  -15.5238 O   0  0  0  0  0  0  0  0  0  0  0  0
   33.1749  -25.3863  -15.1795 C   0  0  0  0  0  0  0  0  0  0  0  0
   32.2381  -25.3088  -16.3872 C   0  0  2  0  0  0  0  0  0  0  0  0
   31.2239  -24.3388  -16.0403 N   0  0  0  0  0  0  0  0  0  0  0  0
   31.6856  -26.6640  -16.5820 C   0  0  0  0  0  0  0  0  0  0  0  0
   30.5018  -26.8788  -16.2219 O   0  0  0  0  0  0  0  0  0  0  0  0
   29.7218  -31.6333  -18.4991 N   0  0  0  0  0  0  0  0  0  0  0  0
   28.8901  -30.7398  -17.7495 C   0  0  0  0  0  0  0  0  0  0  0  0
   27.8288  -31.2459  -17.2865 O   0  0  0  0  0  0  0  0  0  0  0  0
   29.2378  -29.3205  -17.5178 C   0  0  0  0  0  0  0  0  0  0  0  0
   30.4981  -28.8849  -18.1416 C   0  0  0  0  0  0  0  0  0  0  0  0
   31.7717  -29.0635  -17.4117 C   0  0  2  0  0  0  0  0  0  0  0  0
   32.3973  -27.7470  -17.1490 N   0  0  0  0  0  0  0  0  0  0  0  0
   32.7556  -30.0239  -17.8979 C   0  0  0  0  0  0  0  0  0  0  0  0
   33.8167  -29.6392  -18.7496 O   0  0  0  0  0  0  0  0  0  0  0  0
   32.7744  -31.2663  -17.6252 O   0  0  0  0  0  0  0  0  0  0  0  0
  2  1  1  6
  2  3  1  0
  3  4  1  0
  4  8  1  0
  5  4  2  0
  6  2  1  0
  7  6  2  0
  9 10  1  0
 11 10  1  1
 11 13  1  0
 11 12  1  0
 12  6  1  0
 13 21  1  0
 14 13  2  0
 16 18  1  0
 16 15  1  0
 17 16  2  0
 19 18  1  0
 20 19  1  6
 21 20  1  0
 22 23  1  0
 22 20  1  0
 24 22  2  0
M  END
$$$$
