QMM.pdb
     RDKit          3D

 26 25  0  0  1  0  0  0  0  0999 V2000
   16.8120  -12.2878  -10.9239 N   0  0  0  0  0  0  0  0  0  0  0  0
   15.5090  -12.7244  -10.5287 C   0  0  0  0  0  0  0  0  0  0  0  0
   15.4151  -13.9200  -10.1720 O   0  0  0  0  0  0  0  0  0  0  0  0
   14.3409  -11.8376  -10.5405 C   0  0  0  0  0  0  0  0  0  0  0  0
   14.6692  -10.4497  -10.9875 C   0  0  0  0  0  0  0  0  0  0  0  0
   14.1482   -9.4198  -10.0503 C   0  0  2  0  0  0  0  0  0  0  0  0
   12.7292   -9.3234   -9.9618 N   0  0  0  0  0  0  0  0  0  0  0  0
   14.7238   -8.0816  -10.3093 C   0  0  0  0  0  0  0  0  0  0  0  0
   14.2239   -7.4123  -11.2715 O   0  0  0  0  0  0  0  0  0  0  0  0
   17.0669   -1.0838   -8.2036 C   0  0  0  0  0  0  0  0  0  0  0  0
   16.4671   -2.7428   -7.7530 S   0  0  0  0  0  0  0  0  0  0  0  0
   16.7644   -3.8392   -9.1909 C   0  0  0  0  0  0  0  0  0  0  0  0
   16.1766   -5.1827   -8.8299 C   0  0  0  0  0  0  0  0  0  0  0  0
   16.3303   -6.1937   -9.9522 C   0  0  2  0  0  0  0  0  0  0  0  0
   15.7663   -7.4723   -9.6037 N   0  0  0  0  0  0  0  0  0  0  0  0
   17.7575   -6.2584  -10.2995 C   0  0  0  0  0  0  0  0  0  0  0  0
   18.5847   -6.7228   -9.4886 O   0  0  0  0  0  0  0  0  0  0  0  0
   22.5356  -10.1407  -13.0503 C   0  0  0  0  0  0  0  0  0  0  0  0
   21.2604   -9.1763  -13.9136 S   0  0  0  0  0  0  0  0  0  0  0  0
   21.2104   -7.4888  -13.2227 C   0  0  0  0  0  0  0  0  0  0  0  0
   19.8310   -7.2812  -12.6597 C   0  0  0  0  0  0  0  0  0  0  0  0
   19.6481   -5.9853  -11.9469 C   0  0  2  0  0  0  0  0  0  0  0  0
   18.2412   -5.8053  -11.5449 N   0  0  0  0  0  0  0  0  0  0  0  0
   20.0418   -4.7846  -12.6961 C   0  0  0  0  0  0  0  0  0  0  0  0
   21.3764   -4.5114  -12.9180 O   0  0  0  0  0  0  0  0  0  0  0  0
   19.1882   -4.0010  -13.1389 O   0  0  0  0  0  0  0  0  0  0  0  0
  1  2  1  0
  2  3  2  0
  4  2  1  0
  4  5  1  0
  6  5  1  0
  6  7  1  6
  8  6  1  0
  8  9  2  0
 11 10  1  0
 12 11  1  0
 12 13  1  0
 14 13  1  1
 14 15  1  0
 15  8  1  0
 16 14  1  0
 17 16  2  0
 19 18  1  0
 19 20  1  0
 20 21  1  0
 22 23  1  0
 22 21  1  6
 23 16  1  0
 24 22  1  0
 25 24  1  0
 26 24  2  0
M  END
$$$$
