QMM.pdb
     RDKit          3D

 26 25  0  0  1  0  0  0  0  0999 V2000
   19.8563  -18.4421  -15.7968 N   0  0  0  0  0  0  0  0  0  0  0  0
   19.1968  -19.4188  -14.9872 C   0  0  0  0  0  0  0  0  0  0  0  0
   17.9847  -19.6081  -15.2328 O   0  0  0  0  0  0  0  0  0  0  0  0
   19.8846  -20.1592  -13.9243 C   0  0  0  0  0  0  0  0  0  0  0  0
   21.3144  -19.7538  -13.7650 C   0  0  0  0  0  0  0  0  0  0  0  0
   22.2520  -20.8558  -14.1072 C   0  0  2  0  0  0  0  0  0  0  0  0
   22.0046  -22.1026  -13.4629 N   0  0  0  0  0  0  0  0  0  0  0  0
   23.6674  -20.4687  -13.9176 C   0  0  0  0  0  0  0  0  0  0  0  0
   24.0807  -19.4499  -14.5618 O   0  0  0  0  0  0  0  0  0  0  0  0
   27.7379  -20.7944   -8.9271 C   0  0  0  0  0  0  0  0  0  0  0  0
   28.8096  -21.5144  -10.2109 S   0  0  0  0  0  0  0  0  0  0  0  0
   28.1709  -20.9510  -11.8334 C   0  0  0  0  0  0  0  0  0  0  0  0
   26.7169  -21.3562  -11.8819 C   0  0  0  0  0  0  0  0  0  0  0  0
   26.0141  -20.8161  -13.1147 C   0  0  2  0  0  0  0  0  0  0  0  0
   24.6041  -21.1096  -13.1004 N   0  0  0  0  0  0  0  0  0  0  0  0
   26.7115  -21.3506  -14.2935 C   0  0  0  0  0  0  0  0  0  0  0  0
   26.6332  -22.5632  -14.5781 O   0  0  0  0  0  0  0  0  0  0  0  0
   23.6789  -21.8936  -17.9948 C   0  0  0  0  0  0  0  0  0  0  0  0
   24.8034  -21.5120  -19.3700 S   0  0  0  0  0  0  0  0  0  0  0  0
   26.4992  -21.3200  -18.7261 C   0  0  0  0  0  0  0  0  0  0  0  0
   26.3846  -21.0370  -17.2532 C   0  0  0  0  0  0  0  0  0  0  0  0
   27.6907  -20.8437  -16.5622 C   0  0  2  0  0  0  0  0  0  0  0  0
   27.4850  -20.5261  -15.1374 N   0  0  0  0  0  0  0  0  0  0  0  0
   28.5575  -19.7964  -17.1190 C   0  0  0  0  0  0  0  0  0  0  0  0
   29.6601  -20.1376  -17.8760 O   0  0  0  0  0  0  0  0  0  0  0  0
   28.3157  -18.5961  -16.9198 O   0  0  0  0  0  0  0  0  0  0  0  0
  1  2  1  0
  2  3  2  0
  4  2  1  0
  4  5  1  0
  6  5  1  0
  6  7  1  1
  8  6  1  0
  8  9  2  0
 11 10  1  0
 12 11  1  0
 12 13  1  0
 14 13  1  1
 14 15  1  0
 15  8  1  0
 16 14  1  0
 17 16  2  0
 19 18  1  0
 19 20  1  0
 20 21  1  0
 22 23  1  0
 22 21  1  6
 23 16  1  0
 24 22  1  0
 25 24  1  0
 26 24  2  0
M  END
$$$$
