QMM.pdb
     RDKit          3D

 26 25  0  0  1  0  0  0  0  0999 V2000
   27.5974  -28.7464  -17.1080 N   0  0  0  0  0  0  0  0  0  0  0  0
   28.9288  -28.7734  -17.6287 C   0  0  0  0  0  0  0  0  0  0  0  0
   29.4526  -27.6600  -17.8554 O   0  0  0  0  0  0  0  0  0  0  0  0
   29.6492  -30.0234  -17.8923 C   0  0  0  0  0  0  0  0  0  0  0  0
   28.8536  -31.2384  -17.5393 C   0  0  0  0  0  0  0  0  0  0  0  0
   29.0169  -31.6215  -16.1120 C   0  0  2  0  0  0  0  0  0  0  0  0
   30.2497  -32.2529  -15.7769 N   0  0  0  0  0  0  0  0  0  0  0  0
   27.8873  -32.4385  -15.6165 C   0  0  0  0  0  0  0  0  0  0  0  0
   26.7131  -32.0501  -15.9232 O   0  0  0  0  0  0  0  0  0  0  0  0
   24.8117  -36.8397  -17.6466 C   0  0  0  0  0  0  0  0  0  0  0  0
   25.1020  -37.6618  -16.0481 S   0  0  0  0  0  0  0  0  0  0  0  0
   25.3662  -36.3473  -14.7990 C   0  0  0  0  0  0  0  0  0  0  0  0
   26.5942  -35.5851  -15.2371 C   0  0  0  0  0  0  0  0  0  0  0  0
   26.8327  -34.3493  -14.3879 C   0  0  2  0  0  0  0  0  0  0  0  0
   27.9756  -33.5991  -14.8411 N   0  0  0  0  0  0  0  0  0  0  0  0
   26.9366  -34.7857  -12.9877 C   0  0  0  0  0  0  0  0  0  0  0  0
   27.8847  -35.5090  -12.6200 O   0  0  0  0  0  0  0  0  0  0  0  0
   24.2720  -31.4929   -7.8865 C   0  0  0  0  0  0  0  0  0  0  0  0
   25.8507  -32.2458   -7.3944 S   0  0  0  0  0  0  0  0  0  0  0  0
   26.0524  -33.8405   -8.2567 C   0  0  0  0  0  0  0  0  0  0  0  0
   25.9609  -33.5613   -9.7320 C   0  0  0  0  0  0  0  0  0  0  0  0
   26.1361  -34.7629  -10.5957 C   0  0  2  0  0  0  0  0  0  0  0  0
   25.9829  -34.4092  -12.0187 N   0  0  0  0  0  0  0  0  0  0  0  0
   25.2216  -35.8806  -10.3261 C   0  0  0  0  0  0  0  0  0  0  0  0
   25.5586  -36.8447   -9.3976 O   0  0  0  0  0  0  0  0  0  0  0  0
   24.1389  -35.9769  -10.9237 O   0  0  0  0  0  0  0  0  0  0  0  0
  1  2  1  0
  2  3  2  0
  4  2  1  0
  4  5  1  0
  6  5  1  0
  6  7  1  6
  8  6  1  0
  8  9  2  0
 11 10  1  0
 12 11  1  0
 12 13  1  0
 14 13  1  6
 14 15  1  0
 15  8  1  0
 16 14  1  0
 17 16  2  0
 19 18  1  0
 19 20  1  0
 20 21  1  0
 22 23  1  0
 22 21  1  1
 23 16  1  0
 24 22  1  0
 25 24  1  0
 26 24  2  0
M  END
$$$$
