QMM.pdb
     RDKit          3D

 26 25  0  0  1  0  0  0  0  0999 V2000
   28.8621  -18.1863  -14.8927 N   0  0  0  0  0  0  0  0  0  0  0  0
   28.6998  -18.5448  -16.2673 C   0  0  0  0  0  0  0  0  0  0  0  0
   29.6405  -18.2332  -17.0310 O   0  0  0  0  0  0  0  0  0  0  0  0
   27.5052  -19.2319  -16.7692 C   0  0  0  0  0  0  0  0  0  0  0  0
   26.6624  -19.8056  -15.6764 C   0  0  0  0  0  0  0  0  0  0  0  0
   27.3653  -20.8837  -14.9320 C   0  0  2  0  0  0  0  0  0  0  0  0
   27.8003  -21.9938  -15.7126 N   0  0  0  0  0  0  0  0  0  0  0  0
   26.5855  -21.3656  -13.7707 C   0  0  0  0  0  0  0  0  0  0  0  0
   25.7747  -22.3270  -13.9760 O   0  0  0  0  0  0  0  0  0  0  0  0
   26.2005  -19.9214   -7.1067 C   0  0  0  0  0  0  0  0  0  0  0  0
   27.6921  -20.2423   -8.1003 S   0  0  0  0  0  0  0  0  0  0  0  0
   27.1682  -21.1865   -9.5809 C   0  0  0  0  0  0  0  0  0  0  0  0
   25.9678  -20.4634  -10.1436 C   0  0  0  0  0  0  0  0  0  0  0  0
   25.5722  -20.9912  -11.5111 C   0  0  2  0  0  0  0  0  0  0  0  0
   26.6458  -20.8715  -12.4637 N   0  0  0  0  0  0  0  0  0  0  0  0
   24.3459  -20.2906  -11.9200 C   0  0  0  0  0  0  0  0  0  0  0  0
   24.4126  -19.2216  -12.5606 O   0  0  0  0  0  0  0  0  0  0  0  0
   22.8822  -21.1946  -16.7716 C   0  0  0  0  0  0  0  0  0  0  0  0
   21.2002  -21.6764  -16.2815 S   0  0  0  0  0  0  0  0  0  0  0  0
   20.8044  -20.9247  -14.6673 C   0  0  0  0  0  0  0  0  0  0  0  0
   22.0077  -21.1121  -13.7842 C   0  0  0  0  0  0  0  0  0  0  0  0
   21.8849  -20.4837  -12.4386 C   0  0  2  0  0  0  0  0  0  0  0  0
   23.0643  -20.7918  -11.6095 N   0  0  0  0  0  0  0  0  0  0  0  0
   20.6976  -20.8661  -11.6625 C   0  0  0  0  0  0  0  0  0  0  0  0
   19.4856  -20.2494  -11.8988 O   0  0  0  0  0  0  0  0  0  0  0  0
   20.7631  -21.7430  -10.7877 O   0  0  0  0  0  0  0  0  0  0  0  0
  1  2  1  0
  2  3  2  0
  4  2  1  0
  4  5  1  0
  6  5  1  0
  6  7  1  6
  8  6  1  0
  8  9  2  0
 11 10  1  0
 12 11  1  0
 12 13  1  0
 14 13  1  1
 14 15  1  0
 15  8  1  0
 16 14  1  0
 17 16  2  0
 19 18  1  0
 19 20  1  0
 20 21  1  0
 22 23  1  0
 22 21  1  6
 23 16  1  0
 24 22  1  0
 25 24  1  0
 26 24  2  0
M  END
$$$$
