QMM.pdb
     RDKit          3D

 26 25  0  0  1  0  0  0  0  0999 V2000
   16.6002  -13.0913  -18.7303 N   0  0  0  0  0  0  0  0  0  0  0  0
   17.3824  -14.2742  -18.5476 C   0  0  0  0  0  0  0  0  0  0  0  0
   16.8384  -15.3497  -18.8832 O   0  0  0  0  0  0  0  0  0  0  0  0
   18.7409  -14.2461  -17.9957 C   0  0  0  0  0  0  0  0  0  0  0  0
   19.2070  -12.8642  -17.6687 C   0  0  0  0  0  0  0  0  0  0  0  0
   20.5709  -12.8567  -17.0769 C   0  0  2  0  0  0  0  0  0  0  0  0
   20.8917  -13.9684  -16.2449 N   0  0  0  0  0  0  0  0  0  0  0  0
   20.8660  -11.5962  -16.3606 C   0  0  0  0  0  0  0  0  0  0  0  0
   20.1934  -11.3588  -15.3047 O   0  0  0  0  0  0  0  0  0  0  0  0
   26.6785   -9.5572  -15.7331 C   0  0  0  0  0  0  0  0  0  0  0  0
   25.6851  -10.9919  -15.2133 S   0  0  0  0  0  0  0  0  0  0  0  0
   24.0728  -10.3531  -14.6216 C   0  0  0  0  0  0  0  0  0  0  0  0
   23.6071   -9.3532  -15.6532 C   0  0  0  0  0  0  0  0  0  0  0  0
   22.1191   -9.4706  -15.9316 C   0  0  2  0  0  0  0  0  0  0  0  0
   21.8117  -10.6325  -16.7253 N   0  0  0  0  0  0  0  0  0  0  0  0
   21.6814   -8.2089  -16.5466 C   0  0  0  0  0  0  0  0  0  0  0  0
   21.9034   -7.9840  -17.7539 O   0  0  0  0  0  0  0  0  0  0  0  0
   15.7488   -7.1998  -18.7982 C   0  0  0  0  0  0  0  0  0  0  0  0
   16.5952   -6.3588  -17.4279 S   0  0  0  0  0  0  0  0  0  0  0  0
   18.3950   -6.6102  -17.5864 C   0  0  0  0  0  0  0  0  0  0  0  0
   19.0449   -5.9023  -16.4292 C   0  0  0  0  0  0  0  0  0  0  0  0
   20.5338   -5.9656  -16.4293 C   0  0  2  0  0  0  0  0  0  0  0  0
   21.0026   -7.2174  -15.8074 N   0  0  0  0  0  0  0  0  0  0  0  0
   21.2189   -4.8596  -15.7471 C   0  0  0  0  0  0  0  0  0  0  0  0
   21.1420   -3.5778  -16.2533 O   0  0  0  0  0  0  0  0  0  0  0  0
   21.8738   -5.0568  -14.7122 O   0  0  0  0  0  0  0  0  0  0  0  0
  1  2  1  0
  2  3  2  0
  4  2  1  0
  4  5  1  0
  6  5  1  0
  6  7  1  1
  8  6  1  0
  8  9  2  0
 11 10  1  0
 12 11  1  0
 12 13  1  0
 14 13  1  6
 14 15  1  0
 15  8  1  0
 16 14  1  0
 17 16  2  0
 19 18  1  0
 19 20  1  0
 20 21  1  0
 22 23  1  0
 22 21  1  1
 23 16  1  0
 24 22  1  0
 25 24  1  0
 26 24  2  0
M  END
$$$$
