QMM.pdb
     RDKit          3D

 26 25  0  0  1  0  0  0  0  0999 V2000
   27.1083  -15.9872  -15.8085 N   0  0  0  0  0  0  0  0  0  0  0  0
   27.7588  -17.0244  -16.5471 C   0  0  0  0  0  0  0  0  0  0  0  0
   29.0086  -16.9758  -16.5778 O   0  0  0  0  0  0  0  0  0  0  0  0
   27.0192  -18.0859  -17.2380 C   0  0  0  0  0  0  0  0  0  0  0  0
   26.2828  -18.9866  -16.2998 C   0  0  0  0  0  0  0  0  0  0  0  0
   27.2032  -19.8281  -15.4904 C   0  0  2  0  0  0  0  0  0  0  0  0
   27.9677  -20.7862  -16.2174 N   0  0  0  0  0  0  0  0  0  0  0  0
   26.5125  -20.4927  -14.3634 C   0  0  0  0  0  0  0  0  0  0  0  0
   25.9465  -21.6080  -14.6073 O   0  0  0  0  0  0  0  0  0  0  0  0
   27.6269  -20.4213   -8.0358 C   0  0  0  0  0  0  0  0  0  0  0  0
   25.8154  -20.2472   -7.9761 S   0  0  0  0  0  0  0  0  0  0  0  0
   25.1569  -20.8490   -9.5768 C   0  0  0  0  0  0  0  0  0  0  0  0
   25.9099  -20.1042  -10.6534 C   0  0  0  0  0  0  0  0  0  0  0  0
   25.5792  -20.6197  -12.0427 C   0  0  2  0  0  0  0  0  0  0  0  0
   26.4153  -20.0201  -13.0507 N   0  0  0  0  0  0  0  0  0  0  0  0
   24.1428  -20.4011  -12.2675 C   0  0  0  0  0  0  0  0  0  0  0  0
   23.6785  -19.2433  -12.3074 O   0  0  0  0  0  0  0  0  0  0  0  0
   18.9835  -24.9510  -11.9319 C   0  0  0  0  0  0  0  0  0  0  0  0
   19.0018  -24.0970  -13.5356 S   0  0  0  0  0  0  0  0  0  0  0  0
   19.6605  -22.4107  -13.3127 C   0  0  0  0  0  0  0  0  0  0  0  0
   21.1289  -22.5442  -13.0149 C   0  0  0  0  0  0  0  0  0  0  0  0
   21.8085  -21.2582  -12.6907 C   0  0  2  0  0  0  0  0  0  0  0  0
   23.2457  -21.4754  -12.4447 N   0  0  0  0  0  0  0  0  0  0  0  0
   21.2755  -20.5302  -11.5314 C   0  0  0  0  0  0  0  0  0  0  0  0
   20.3198  -19.5498  -11.7068 O   0  0  0  0  0  0  0  0  0  0  0  0
   21.6720  -20.7817  -10.3832 O   0  0  0  0  0  0  0  0  0  0  0  0
  1  2  1  0
  2  3  2  0
  4  2  1  0
  4  5  1  0
  6  5  1  0
  6  7  1  6
  8  6  1  0
  8  9  2  0
 11 10  1  0
 12 11  1  0
 12 13  1  0
 14 13  1  1
 14 15  1  0
 15  8  1  0
 16 14  1  0
 17 16  2  0
 19 18  1  0
 19 20  1  0
 20 21  1  0
 22 23  1  0
 22 21  1  1
 23 16  1  0
 24 22  1  0
 25 24  1  0
 26 24  2  0
M  END
$$$$
