QMM.pdb
     RDKit          3D

 26 25  0  0  1  0  0  0  0  0999 V2000
   24.8066  -20.6036  -20.0766 N   0  0  0  0  0  0  0  0  0  0  0  0
   25.5802  -19.4061  -19.9663 C   0  0  0  0  0  0  0  0  0  0  0  0
   25.7077  -18.7360  -21.0151 O   0  0  0  0  0  0  0  0  0  0  0  0
   26.1987  -18.9779  -18.7073 C   0  0  0  0  0  0  0  0  0  0  0  0
   25.8048  -19.8323  -17.5460 C   0  0  0  0  0  0  0  0  0  0  0  0
   24.6777  -19.2457  -16.7739 C   0  0  2  0  0  0  0  0  0  0  0  0
   24.8860  -17.9257  -16.2791 N   0  0  0  0  0  0  0  0  0  0  0  0
   24.2325  -20.1270  -15.6720 C   0  0  0  0  0  0  0  0  0  0  0  0
   23.8733  -21.3090  -15.9845 O   0  0  0  0  0  0  0  0  0  0  0  0
   26.5864  -20.7916   -9.6209 C   0  0  0  0  0  0  0  0  0  0  0  0
   24.7881  -20.8099   -9.3364 S   0  0  0  0  0  0  0  0  0  0  0  0
   23.9969  -21.3858  -10.8857 C   0  0  0  0  0  0  0  0  0  0  0  0
   24.2746  -20.3255  -11.9246 C   0  0  0  0  0  0  0  0  0  0  0  0
   23.7248  -20.7039  -13.2883 C   0  0  2  0  0  0  0  0  0  0  0  0
   24.1639  -19.7945  -14.3153 N   0  0  0  0  0  0  0  0  0  0  0  0
   22.2619  -20.7902  -13.1691 C   0  0  0  0  0  0  0  0  0  0  0  0
   21.5829  -19.7633  -12.9641 O   0  0  0  0  0  0  0  0  0  0  0  0
   18.9806  -25.2321  -16.1780 C   0  0  0  0  0  0  0  0  0  0  0  0
   17.7567  -25.0190  -14.8520 S   0  0  0  0  0  0  0  0  0  0  0  0
   18.1291  -23.4908  -13.9283 C   0  0  0  0  0  0  0  0  0  0  0  0
   19.6198  -23.2952  -13.9777 C   0  0  0  0  0  0  0  0  0  0  0  0
   20.1064  -22.0990  -13.2341 C   0  0  2  0  0  0  0  0  0  0  0  0
   21.5778  -22.0190  -13.2805 N   0  0  0  0  0  0  0  0  0  0  0  0
   19.7125  -22.0231  -11.8209 C   0  0  0  0  0  0  0  0  0  0  0  0
   18.5298  -21.4088  -11.4620 O   0  0  0  0  0  0  0  0  0  0  0  0
   20.4307  -22.5059  -10.9321 O   0  0  0  0  0  0  0  0  0  0  0  0
  1  2  1  0
  2  3  2  0
  4  2  1  0
  4  5  1  0
  6  5  1  0
  6  7  1  1
  8  6  1  0
  8  9  2  0
 11 10  1  0
 12 11  1  0
 12 13  1  0
 14 13  1  1
 14 15  1  0
 15  8  1  0
 16 14  1  0
 17 16  2  0
 19 18  1  0
 19 20  1  0
 20 21  1  0
 22 23  1  0
 22 21  1  1
 23 16  1  0
 24 22  1  0
 25 24  1  0
 26 24  2  0
M  END
$$$$
