QMM.pdb
     RDKit          3D

 26 25  0  0  1  0  0  0  0  0999 V2000
   27.4202  -15.7979  -14.8901 N   0  0  0  0  0  0  0  0  0  0  0  0
   27.9576  -16.3562  -16.0918 C   0  0  0  0  0  0  0  0  0  0  0  0
   28.7713  -15.6386  -16.7149 O   0  0  0  0  0  0  0  0  0  0  0  0
   27.5833  -17.6872  -16.5812 C   0  0  0  0  0  0  0  0  0  0  0  0
   26.6804  -18.4193  -15.6418 C   0  0  0  0  0  0  0  0  0  0  0  0
   27.4104  -19.4352  -14.8383 C   0  0  2  0  0  0  0  0  0  0  0  0
   28.3713  -20.2127  -15.5475 N   0  0  0  0  0  0  0  0  0  0  0  0
   26.4943  -20.3297  -14.0969 C   0  0  0  0  0  0  0  0  0  0  0  0
   25.9819  -21.3001  -14.7447 O   0  0  0  0  0  0  0  0  0  0  0  0
   25.9663  -19.4759   -8.0418 C   0  0  0  0  0  0  0  0  0  0  0  0
   26.3964  -21.2305   -8.2694 S   0  0  0  0  0  0  0  0  0  0  0  0
   26.3977  -21.5621  -10.0716 C   0  0  0  0  0  0  0  0  0  0  0  0
   25.1429  -20.9268  -10.6218 C   0  0  0  0  0  0  0  0  0  0  0  0
   25.0844  -20.9968  -12.1373 C   0  0  2  0  0  0  0  0  0  0  0  0
   26.1298  -20.2191  -12.7512 N   0  0  0  0  0  0  0  0  0  0  0  0
   23.7330  -20.5896  -12.5491 C   0  0  0  0  0  0  0  0  0  0  0  0
   23.3784  -19.3963  -12.4611 O   0  0  0  0  0  0  0  0  0  0  0  0
   21.4058  -21.2854  -18.1491 C   0  0  0  0  0  0  0  0  0  0  0  0
   19.9472  -21.9162  -17.2684 S   0  0  0  0  0  0  0  0  0  0  0  0
   19.9495  -21.2736  -15.5612 C   0  0  0  0  0  0  0  0  0  0  0  0
   21.3151  -21.5399  -14.9894 C   0  0  0  0  0  0  0  0  0  0  0  0
   21.4859  -21.0961  -13.5770 C   0  0  2  0  0  0  0  0  0  0  0  0
   22.7976  -21.5178  -13.0528 N   0  0  0  0  0  0  0  0  0  0  0  0
   20.4676  -21.5728  -12.6315 C   0  0  0  0  0  0  0  0  0  0  0  0
   19.1744  -21.0961  -12.7054 O   0  0  0  0  0  0  0  0  0  0  0  0
   20.7502  -22.4055  -11.7566 O   0  0  0  0  0  0  0  0  0  0  0  0
  1  2  1  0
  2  3  2  0
  4  2  1  0
  4  5  1  0
  6  5  1  0
  6  7  1  6
  8  6  1  0
  8  9  2  0
 11 10  1  0
 12 11  1  0
 12 13  1  0
 14 13  1  1
 14 15  1  0
 15  8  1  0
 16 14  1  0
 17 16  2  0
 19 18  1  0
 19 20  1  0
 20 21  1  0
 22 23  1  0
 22 21  1  6
 23 16  1  0
 24 22  1  0
 25 24  1  0
 26 24  2  0
M  END
$$$$
