QMM.pdb
     RDKit          3D

 26 25  0  0  1  0  0  0  0  0999 V2000
   12.2014  -13.0859   -9.3049 N   0  0  0  0  0  0  0  0  0  0  0  0
   12.5745  -12.0013  -10.1586 C   0  0  0  0  0  0  0  0  0  0  0  0
   12.0520  -10.8942   -9.9004 O   0  0  0  0  0  0  0  0  0  0  0  0
   13.5084  -12.1618  -11.2781 C   0  0  0  0  0  0  0  0  0  0  0  0
   14.0345  -10.8589  -11.7876 C   0  0  0  0  0  0  0  0  0  0  0  0
   15.3422  -10.5034  -11.1759 C   0  0  2  0  0  0  0  0  0  0  0  0
   15.6281  -11.1189   -9.9228 N   0  0  0  0  0  0  0  0  0  0  0  0
   15.5330   -9.0402  -11.0680 C   0  0  0  0  0  0  0  0  0  0  0  0
   15.4214   -8.3607  -12.1402 O   0  0  0  0  0  0  0  0  0  0  0  0
   14.4137   -2.4916   -7.0086 C   0  0  0  0  0  0  0  0  0  0  0  0
   14.4050   -4.3115   -7.0661 S   0  0  0  0  0  0  0  0  0  0  0  0
   15.3465   -4.8143   -8.5556 C   0  0  0  0  0  0  0  0  0  0  0  0
   15.3562   -6.3245   -8.5628 C   0  0  0  0  0  0  0  0  0  0  0  0
   15.9271   -6.8860   -9.8527 C   0  0  2  0  0  0  0  0  0  0  0  0
   15.8257   -8.3218   -9.9043 N   0  0  0  0  0  0  0  0  0  0  0  0
   17.3058   -6.3915   -9.9807 C   0  0  0  0  0  0  0  0  0  0  0  0
   18.1472   -6.6281   -9.0899 O   0  0  0  0  0  0  0  0  0  0  0  0
   20.5136   -9.4119  -13.1396 C   0  0  0  0  0  0  0  0  0  0  0  0
   21.8074   -8.4694  -12.2800 S   0  0  0  0  0  0  0  0  0  0  0  0
   21.2419   -6.7520  -12.0383 C   0  0  0  0  0  0  0  0  0  0  0  0
   19.8027   -6.8162  -11.6055 C   0  0  0  0  0  0  0  0  0  0  0  0
   19.1514   -5.4858  -11.4424 C   0  0  2  0  0  0  0  0  0  0  0  0
   17.7261   -5.6414  -11.0991 N   0  0  0  0  0  0  0  0  0  0  0  0
   19.2217   -4.5944  -12.6080 C   0  0  0  0  0  0  0  0  0  0  0  0
   20.3874   -3.9114  -12.8902 O   0  0  0  0  0  0  0  0  0  0  0  0
   18.2419   -4.4409  -13.3531 O   0  0  0  0  0  0  0  0  0  0  0  0
  1  2  1  0
  2  3  2  0
  4  2  1  0
  4  5  1  0
  6  5  1  0
  6  7  1  1
  8  6  1  0
  8  9  2  0
 11 10  1  0
 12 11  1  0
 12 13  1  0
 14 13  1  1
 14 15  1  0
 15  8  1  0
 16 14  1  0
 17 16  2  0
 19 18  1  0
 19 20  1  0
 20 21  1  0
 22 23  1  0
 22 21  1  6
 23 16  1  0
 24 22  1  0
 25 24  1  0
 26 24  2  0
M  END
$$$$
