QMM.pdb
     RDKit          3D

 26 25  0  0  1  0  0  0  0  0999 V2000
   24.9147  -21.0735  -18.8313 N   0  0  0  0  0  0  0  0  0  0  0  0
   24.9994  -22.4653  -19.1482 C   0  0  0  0  0  0  0  0  0  0  0  0
   24.2983  -22.8535  -20.1090 O   0  0  0  0  0  0  0  0  0  0  0  0
   25.8485  -23.3964  -18.3979 C   0  0  0  0  0  0  0  0  0  0  0  0
   26.6305  -22.7262  -17.3148 C   0  0  0  0  0  0  0  0  0  0  0  0
   26.1975  -23.1584  -15.9597 C   0  0  2  0  0  0  0  0  0  0  0  0
   24.8015  -23.3974  -15.8020 N   0  0  0  0  0  0  0  0  0  0  0  0
   26.6692  -22.2405  -14.8995 C   0  0  0  0  0  0  0  0  0  0  0  0
   27.9269  -22.0567  -14.8098 O   0  0  0  0  0  0  0  0  0  0  0  0
   27.2204  -16.2195  -16.0147 C   0  0  0  0  0  0  0  0  0  0  0  0
   26.2710  -16.9267  -14.6313 S   0  0  0  0  0  0  0  0  0  0  0  0
   26.8121  -18.6660  -14.4315 C   0  0  0  0  0  0  0  0  0  0  0  0
   26.0469  -19.2164  -13.2515 C   0  0  0  0  0  0  0  0  0  0  0  0
   26.3965  -20.6669  -12.9703 C   0  0  2  0  0  0  0  0  0  0  0  0
   25.8728  -21.5507  -13.9798 N   0  0  0  0  0  0  0  0  0  0  0  0
   25.9248  -20.9827  -11.6139 C   0  0  0  0  0  0  0  0  0  0  0  0
   24.8064  -21.5085  -11.4403 O   0  0  0  0  0  0  0  0  0  0  0  0
   29.2855  -19.4309   -6.3097 C   0  0  0  0  0  0  0  0  0  0  0  0
   27.5995  -19.1732   -5.6833 S   0  0  0  0  0  0  0  0  0  0  0  0
   26.4208  -20.0895   -6.7315 C   0  0  0  0  0  0  0  0  0  0  0  0
   26.9839  -20.1005   -8.1263 C   0  0  0  0  0  0  0  0  0  0  0  0
   26.1796  -20.8837   -9.1063 C   0  0  2  0  0  0  0  0  0  0  0  0
   26.7064  -20.7081  -10.4720 N   0  0  0  0  0  0  0  0  0  0  0  0
   24.7456  -20.5680   -9.1510 C   0  0  0  0  0  0  0  0  0  0  0  0
   24.2654  -19.6478  -10.0608 O   0  0  0  0  0  0  0  0  0  0  0  0
   23.9472  -21.1186   -8.3776 O   0  0  0  0  0  0  0  0  0  0  0  0
  1  2  1  0
  2  3  2  0
  4  2  1  0
  4  5  1  0
  6  5  1  0
  6  7  1  6
  8  6  1  0
  8  9  2  0
 11 10  1  0
 12 11  1  0
 12 13  1  0
 14 13  1  6
 14 15  1  0
 15  8  1  0
 16 14  1  0
 17 16  2  0
 19 18  1  0
 19 20  1  0
 20 21  1  0
 22 23  1  0
 22 21  1  1
 23 16  1  0
 24 22  1  0
 25 24  1  0
 26 24  2  0
M  END
$$$$
