QMM.pdb
     RDKit          3D

 26 25  0  0  1  0  0  0  0  0999 V2000
   27.1287  -20.4803  -18.0168 N   0  0  0  0  0  0  0  0  0  0  0  0
   28.4620  -20.2039  -17.5804 C   0  0  0  0  0  0  0  0  0  0  0  0
   29.1682  -19.5317  -18.3644 O   0  0  0  0  0  0  0  0  0  0  0  0
   28.9874  -20.6779  -16.2958 C   0  0  0  0  0  0  0  0  0  0  0  0
   27.9697  -21.4173  -15.4886 C   0  0  0  0  0  0  0  0  0  0  0  0
   27.1335  -20.5037  -14.6660 C   0  0  2  0  0  0  0  0  0  0  0  0
   27.7825  -19.3261  -14.1938 N   0  0  0  0  0  0  0  0  0  0  0  0
   26.4834  -21.2022  -13.5353 C   0  0  0  0  0  0  0  0  0  0  0  0
   25.8635  -22.2832  -13.8015 O   0  0  0  0  0  0  0  0  0  0  0  0
   26.1894  -19.4726   -7.3571 C   0  0  0  0  0  0  0  0  0  0  0  0
   27.4060  -20.7826   -7.7022 S   0  0  0  0  0  0  0  0  0  0  0  0
   27.0374  -21.4429   -9.3714 C   0  0  0  0  0  0  0  0  0  0  0  0
   25.7920  -20.7317   -9.8445 C   0  0  0  0  0  0  0  0  0  0  0  0
   25.4236  -21.1106  -11.2679 C   0  0  2  0  0  0  0  0  0  0  0  0
   26.4781  -20.7958  -12.1971 N   0  0  0  0  0  0  0  0  0  0  0  0
   24.1473  -20.4538  -11.5863 C   0  0  0  0  0  0  0  0  0  0  0  0
   24.0868  -19.2126  -11.7011 O   0  0  0  0  0  0  0  0  0  0  0  0
   22.0327  -19.4592  -16.8421 C   0  0  0  0  0  0  0  0  0  0  0  0
   20.6262  -20.4484  -16.2552 S   0  0  0  0  0  0  0  0  0  0  0  0
   20.4393  -20.2213  -14.4549 C   0  0  0  0  0  0  0  0  0  0  0  0
   21.6856  -20.7613  -13.8084 C   0  0  0  0  0  0  0  0  0  0  0  0
   21.7403  -20.5749  -12.3309 C   0  0  2  0  0  0  0  0  0  0  0  0
   22.9582  -21.1897  -11.7724 N   0  0  0  0  0  0  0  0  0  0  0  0
   20.5990  -21.1122  -11.5779 C   0  0  0  0  0  0  0  0  0  0  0  0
   19.3803  -20.4651  -11.6091 O   0  0  0  0  0  0  0  0  0  0  0  0
   20.7100  -22.1488  -10.9058 O   0  0  0  0  0  0  0  0  0  0  0  0
  1  2  1  0
  2  3  2  0
  4  2  1  0
  4  5  1  0
  6  5  1  0
  6  7  1  1
  8  6  1  0
  8  9  2  0
 11 10  1  0
 12 11  1  0
 12 13  1  0
 14 13  1  1
 14 15  1  0
 15  8  1  0
 16 14  1  0
 17 16  2  0
 19 18  1  0
 19 20  1  0
 20 21  1  0
 22 23  1  0
 22 21  1  6
 23 16  1  0
 24 22  1  0
 25 24  1  0
 26 24  2  0
M  END
$$$$
