QMM.pdb
     RDKit          3D

 26 25  0  0  1  0  0  0  0  0999 V2000
   28.3634  -27.0097  -16.3396 N   0  0  0  0  0  0  0  0  0  0  0  0
   28.5988  -26.6627  -17.7066 C   0  0  0  0  0  0  0  0  0  0  0  0
   28.6181  -27.6138  -18.5192 O   0  0  0  0  0  0  0  0  0  0  0  0
   28.8125  -25.2796  -18.1454 C   0  0  0  0  0  0  0  0  0  0  0  0
   28.7451  -24.2963  -17.0219 C   0  0  0  0  0  0  0  0  0  0  0  0
   27.3848  -23.7178  -16.8626 C   0  0  2  0  0  0  0  0  0  0  0  0
   26.7747  -23.2310  -18.0549 N   0  0  0  0  0  0  0  0  0  0  0  0
   27.3372  -22.6734  -15.8157 C   0  0  0  0  0  0  0  0  0  0  0  0
   27.9610  -22.9121  -14.7305 O   0  0  0  0  0  0  0  0  0  0  0  0
   28.1716  -16.0477  -17.6244 C   0  0  0  0  0  0  0  0  0  0  0  0
   26.8820  -16.7718  -16.5623 S   0  0  0  0  0  0  0  0  0  0  0  0
   27.4546  -18.4417  -16.0709 C   0  0  0  0  0  0  0  0  0  0  0  0
   26.3038  -19.0866  -15.3358 C   0  0  0  0  0  0  0  0  0  0  0  0
   26.6549  -20.4745  -14.8299 C   0  0  2  0  0  0  0  0  0  0  0  0
   26.6738  -21.4447  -15.8942 N   0  0  0  0  0  0  0  0  0  0  0  0
   25.7118  -20.8062  -13.7519 C   0  0  0  0  0  0  0  0  0  0  0  0
   24.6512  -21.4134  -14.0048 O   0  0  0  0  0  0  0  0  0  0  0  0
   24.4586  -20.3859   -5.8908 C   0  0  0  0  0  0  0  0  0  0  0  0
   25.4766  -20.0065   -7.3472 S   0  0  0  0  0  0  0  0  0  0  0  0
   24.6431  -20.6320   -8.8444 C   0  0  0  0  0  0  0  0  0  0  0  0
   25.5724  -20.3907  -10.0024 C   0  0  0  0  0  0  0  0  0  0  0  0
   25.0069  -20.7617  -11.3303 C   0  0  2  0  0  0  0  0  0  0  0  0
   25.9648  -20.4568  -12.4087 N   0  0  0  0  0  0  0  0  0  0  0  0
   23.7356  -20.1164  -11.6846 C   0  0  0  0  0  0  0  0  0  0  0  0
   22.5371  -20.7162  -11.3544 O   0  0  0  0  0  0  0  0  0  0  0  0
   23.7171  -19.0296  -12.2822 O   0  0  0  0  0  0  0  0  0  0  0  0
  1  2  1  0
  2  3  2  0
  4  2  1  0
  4  5  1  0
  6  5  1  0
  6  7  1  6
  8  6  1  0
  8  9  2  0
 11 10  1  0
 12 11  1  0
 12 13  1  0
 14 13  1  6
 14 15  1  0
 15  8  1  0
 16 14  1  0
 17 16  2  0
 19 18  1  0
 19 20  1  0
 20 21  1  0
 22 23  1  0
 22 21  1  1
 23 16  1  0
 24 22  1  0
 25 24  1  0
 26 24  2  0
M  END
$$$$
