QMM.pdb
     RDKit          3D

 26 25  0  0  1  0  0  0  0  0999 V2000
   28.3682  -23.2636  -17.6637 N   0  0  0  0  0  0  0  0  0  0  0  0
   29.2349  -22.1264  -17.6799 C   0  0  0  0  0  0  0  0  0  0  0  0
   29.8769  -21.9402  -18.7374 O   0  0  0  0  0  0  0  0  0  0  0  0
   29.3783  -21.2255  -16.5315 C   0  0  0  0  0  0  0  0  0  0  0  0
   28.5783  -21.6619  -15.3468 C   0  0  0  0  0  0  0  0  0  0  0  0
   27.5337  -20.6703  -14.9784 C   0  0  2  0  0  0  0  0  0  0  0  0
   28.0108  -19.3987  -14.5468 N   0  0  0  0  0  0  0  0  0  0  0  0
   26.5749  -21.2059  -13.9869 C   0  0  0  0  0  0  0  0  0  0  0  0
   25.9345  -22.2589  -14.3106 O   0  0  0  0  0  0  0  0  0  0  0  0
   26.1707  -19.3531   -7.9732 C   0  0  0  0  0  0  0  0  0  0  0  0
   26.8318  -21.0418   -8.1356 S   0  0  0  0  0  0  0  0  0  0  0  0
   26.6750  -21.5215   -9.8972 C   0  0  0  0  0  0  0  0  0  0  0  0
   25.4550  -20.8054  -10.4260 C   0  0  0  0  0  0  0  0  0  0  0  0
   25.2051  -21.1090  -11.8925 C   0  0  2  0  0  0  0  0  0  0  0  0
   26.2967  -20.6723  -12.7245 N   0  0  0  0  0  0  0  0  0  0  0  0
   23.9140  -20.5074  -12.2570 C   0  0  0  0  0  0  0  0  0  0  0  0
   23.8193  -19.2763  -12.4382 O   0  0  0  0  0  0  0  0  0  0  0  0
   23.3501  -20.4995  -17.2716 C   0  0  0  0  0  0  0  0  0  0  0  0
   21.5356  -20.5777  -17.3232 S   0  0  0  0  0  0  0  0  0  0  0  0
   20.8790  -20.4631  -15.6253 C   0  0  0  0  0  0  0  0  0  0  0  0
   21.9672  -20.9289  -14.6970 C   0  0  0  0  0  0  0  0  0  0  0  0
   21.6195  -20.8399  -13.2507 C   0  0  2  0  0  0  0  0  0  0  0  0
   22.7485  -21.2864  -12.4144 N   0  0  0  0  0  0  0  0  0  0  0  0
   20.4390  -21.6068  -12.8306 C   0  0  0  0  0  0  0  0  0  0  0  0
   19.2086  -20.9889  -12.7326 O   0  0  0  0  0  0  0  0  0  0  0  0
   20.5266  -22.8138  -12.5583 O   0  0  0  0  0  0  0  0  0  0  0  0
  1  2  1  0
  2  3  2  0
  4  2  1  0
  4  5  1  0
  6  5  1  0
  6  7  1  1
  8  6  1  0
  8  9  2  0
 11 10  1  0
 12 11  1  0
 12 13  1  0
 14 13  1  1
 14 15  1  0
 15  8  1  0
 16 14  1  0
 17 16  2  0
 19 18  1  0
 19 20  1  0
 20 21  1  0
 22 23  1  0
 22 21  1  6
 23 16  1  0
 24 22  1  0
 25 24  1  0
 26 24  2  0
M  END
$$$$
