QMM.pdb
     RDKit          3D

 26 25  0  0  1  0  0  0  0  0999 V2000
   23.5073  -26.9061  -14.8185 N   0  0  0  0  0  0  0  0  0  0  0  0
   23.1999  -26.5425  -16.1668 C   0  0  0  0  0  0  0  0  0  0  0  0
   22.6520  -27.4262  -16.8626 O   0  0  0  0  0  0  0  0  0  0  0  0
   23.5071  -25.2186  -16.7180 C   0  0  0  0  0  0  0  0  0  0  0  0
   24.2302  -24.3392  -15.7497 C   0  0  0  0  0  0  0  0  0  0  0  0
   25.5432  -23.8832  -16.2774 C   0  0  2  0  0  0  0  0  0  0  0  0
   26.4737  -24.9136  -16.5987 N   0  0  0  0  0  0  0  0  0  0  0  0
   26.1882  -22.8863  -15.3946 C   0  0  0  0  0  0  0  0  0  0  0  0
   27.3270  -23.1914  -14.9111 O   0  0  0  0  0  0  0  0  0  0  0  0
   27.6514  -16.8161  -15.8653 C   0  0  0  0  0  0  0  0  0  0  0  0
   26.8448  -16.7114  -14.2362 S   0  0  0  0  0  0  0  0  0  0  0  0
   26.8837  -18.3888  -13.4997 C   0  0  0  0  0  0  0  0  0  0  0  0
   26.2309  -19.3092  -14.5034 C   0  0  0  0  0  0  0  0  0  0  0  0
   26.2931  -20.7631  -14.0703 C   0  0  2  0  0  0  0  0  0  0  0  0
   25.6738  -21.6370  -15.0333 N   0  0  0  0  0  0  0  0  0  0  0  0
   25.6967  -20.8531  -12.7295 C   0  0  0  0  0  0  0  0  0  0  0  0
   24.4569  -20.8869  -12.5903 O   0  0  0  0  0  0  0  0  0  0  0  0
   29.1711  -20.1490   -7.3133 C   0  0  0  0  0  0  0  0  0  0  0  0
   27.5999  -19.3830   -6.8173 S   0  0  0  0  0  0  0  0  0  0  0  0
   26.2565  -20.0280   -7.8694 C   0  0  0  0  0  0  0  0  0  0  0  0
   26.8188  -20.1920   -9.2549 C   0  0  0  0  0  0  0  0  0  0  0  0
   25.8978  -20.8635  -10.2150 C   0  0  2  0  0  0  0  0  0  0  0  0
   26.4904  -20.9045  -11.5643 N   0  0  0  0  0  0  0  0  0  0  0  0
   24.5639  -20.2621  -10.3456 C   0  0  0  0  0  0  0  0  0  0  0  0
   23.5300  -20.6838   -9.5342 O   0  0  0  0  0  0  0  0  0  0  0  0
   24.3450  -19.3717  -11.1810 O   0  0  0  0  0  0  0  0  0  0  0  0
  1  2  1  0
  2  3  2  0
  4  2  1  0
  4  5  1  0
  6  5  1  0
  6  7  1  1
  8  6  1  0
  8  9  2  0
 11 10  1  0
 12 11  1  0
 12 13  1  0
 14 13  1  6
 14 15  1  0
 15  8  1  0
 16 14  1  0
 17 16  2  0
 19 18  1  0
 19 20  1  0
 20 21  1  0
 22 23  1  0
 22 21  1  1
 23 16  1  0
 24 22  1  0
 25 24  1  0
 26 24  2  0
M  END
$$$$
