MVC.pdb
     RDKit          3D

 22 21  0  0  1  0  0  0  0  0999 V2000
    7.4543  -12.0578   26.3675 C   0  0  0  0  0  0  0  0  0  0  0  0
    6.4313  -12.9578   27.5559 S   0  0  0  0  0  0  0  0  0  0  0  0
    5.7401  -14.4503   26.8119 C   0  0  0  0  0  0  0  0  0  0  0  0
    6.8833  -15.3017   26.3076 C   0  0  0  0  0  0  0  0  0  0  0  0
    6.3414  -16.2535   25.2785 C   0  0  2  0  0  0  0  0  0  0  0  0
    6.1166  -17.5884   25.7702 N   0  0  0  0  0  0  0  0  0  0  0  0
    7.3432  -16.3108   24.1622 C   0  0  0  0  0  0  0  0  0  0  0  0
    8.0797  -17.3224   24.0663 O   0  0  0  0  0  0  0  0  0  0  0  0
    6.7694  -14.4292   20.5353 C   0  0  0  0  0  0  0  0  0  0  0  0
    8.1295  -14.3871   21.1220 C   0  0  1  0  0  0  0  0  0  0  0  0
    8.4511  -13.0450   21.7934 C   0  0  0  0  0  0  0  0  0  0  0  0
    8.4596  -15.4524   22.1257 C   0  0  2  0  0  0  0  0  0  0  0  0
    7.4950  -15.2745   23.2116 N   0  0  0  0  0  0  0  0  0  0  0  0
    9.8445  -15.4229   22.6274 C   0  0  0  0  0  0  0  0  0  0  0  0
   10.7641  -15.2932   21.7476 O   0  0  0  0  0  0  0  0  0  0  0  0
   10.2731  -15.5184   23.9491 N   0  0  0  0  0  0  0  0  0  0  0  0
   11.6545  -15.5571   24.2944 C   0  0  1  0  0  0  0  0  0  0  0  0
   11.9237  -15.3358   25.7611 C   0  0  0  0  0  0  0  0  0  0  0  0
   10.6120  -14.3301   26.5137 S   0  0  0  0  0  0  0  0  0  0  0  0
   12.2405  -16.8627   23.8929 C   0  0  0  0  0  0  0  0  0  0  0  0
   11.5023  -17.7368   23.3729 O   0  0  0  0  0  0  0  0  0  0  0  0
   13.5761  -17.1659   24.0662 O   0  0  0  0  0  0  0  0  0  0  0  0
  2  1  1  0
  3  2  1  0
  3  4  1  0
  4  5  1  0
  5  7  1  0
  5  6  1  1
  7  8  2  0
 10  9  1  1
 10 12  1  0
 10 11  1  0
 12 14  1  0
 13  7  1  0
 12 13  1  1
 14 16  1  0
 15 14  2  0
 16 17  1  0
 17 18  1  1
 18 19  1  0
 20 22  1  0
 20 17  1  0
 21 20  2  0
M  END
$$$$
