MVC.pdb
     RDKit          3D

 22 21  0  0  1  0  0  0  0  0999 V2000
    7.5208  -11.7719   26.3122 C   0  0  0  0  0  0  0  0  0  0  0  0
    6.5448  -12.8184   27.4172 S   0  0  0  0  0  0  0  0  0  0  0  0
    5.9227  -14.2721   26.5465 C   0  0  0  0  0  0  0  0  0  0  0  0
    6.8296  -14.5426   25.3674 C   0  0  0  0  0  0  0  0  0  0  0  0
    6.2573  -15.6939   24.5892 C   0  0  2  0  0  0  0  0  0  0  0  0
    6.2150  -16.9354   25.3180 N   0  0  0  0  0  0  0  0  0  0  0  0
    7.1195  -15.8747   23.3739 C   0  0  0  0  0  0  0  0  0  0  0  0
    7.6860  -16.9806   23.1975 O   0  0  0  0  0  0  0  0  0  0  0  0
    6.5426  -13.6877   19.8861 C   0  0  0  0  0  0  0  0  0  0  0  0
    7.9313  -13.9775   20.3146 C   0  0  1  0  0  0  0  0  0  0  0  0
    8.6073  -12.7837   21.0026 C   0  0  0  0  0  0  0  0  0  0  0  0
    8.1194  -15.1539   21.2266 C   0  0  2  0  0  0  0  0  0  0  0  0
    7.3227  -14.8535   22.4166 N   0  0  0  0  0  0  0  0  0  0  0  0
    9.5198  -15.4475   21.5778 C   0  0  0  0  0  0  0  0  0  0  0  0
   10.3676  -15.3952   20.6214 O   0  0  0  0  0  0  0  0  0  0  0  0
   10.0323  -15.7748   22.8308 N   0  0  0  0  0  0  0  0  0  0  0  0
   11.4110  -16.0730   23.0287 C   0  0  1  0  0  0  0  0  0  0  0  0
   11.8312  -16.0856   24.4764 C   0  0  0  0  0  0  0  0  0  0  0  0
   11.0272  -14.7401   25.3939 S   0  0  0  0  0  0  0  0  0  0  0  0
   11.7356  -17.3920   22.4256 C   0  0  0  0  0  0  0  0  0  0  0  0
   10.8258  -18.0571   21.8695 O   0  0  0  0  0  0  0  0  0  0  0  0
   13.0069  -17.9297   22.4471 O   0  0  0  0  0  0  0  0  0  0  0  0
  2  1  1  0
  3  2  1  0
  3  4  1  0
  4  5  1  0
  5  7  1  0
  5  6  1  1
  7  8  2  0
 10  9  1  1
 10 12  1  0
 10 11  1  0
 12 14  1  0
 13  7  1  0
 12 13  1  1
 14 16  1  0
 15 14  2  0
 16 17  1  0
 17 18  1  1
 18 19  1  0
 20 22  1  0
 20 17  1  0
 21 20  2  0
M  END
$$$$
