MVC.pdb
     RDKit          3D

 22 21  0  0  1  0  0  0  0  0999 V2000
    4.7881  -22.6654   25.0585 C   0  0  0  0  0  0  0  0  0  0  0  0
    6.0830  -21.4083   25.1680 S   0  0  0  0  0  0  0  0  0  0  0  0
    5.6353  -19.9369   24.2231 C   0  0  0  0  0  0  0  0  0  0  0  0
    6.7444  -18.9206   24.3744 C   0  0  0  0  0  0  0  0  0  0  0  0
    6.3145  -17.6516   23.6938 C   0  0  2  0  0  0  0  0  0  0  0  0
    6.4507  -17.6758   22.2601 N   0  0  0  0  0  0  0  0  0  0  0  0
    7.1695  -16.5470   24.2429 C   0  0  0  0  0  0  0  0  0  0  0  0
    8.3397  -16.4190   23.8077 O   0  0  0  0  0  0  0  0  0  0  0  0
    7.5000  -12.6262   27.2733 C   0  0  0  0  0  0  0  0  0  0  0  0
    6.8167  -13.5796   26.3677 C   0  0  1  0  0  0  0  0  0  0  0  0
    6.1250  -12.8903   25.1837 C   0  0  0  0  0  0  0  0  0  0  0  0
    7.6621  -14.6739   25.7854 C   0  0  2  0  0  0  0  0  0  0  0  0
    6.7155  -15.6418   25.2305 N   0  0  0  0  0  0  0  0  0  0  0  0
    8.5886  -15.3130   26.7360 C   0  0  0  0  0  0  0  0  0  0  0  0
    8.0659  -16.1105   27.5888 O   0  0  0  0  0  0  0  0  0  0  0  0
    9.9698  -15.1530   26.8164 N   0  0  0  0  0  0  0  0  0  0  0  0
   10.7824  -15.9980   27.6256 C   0  0  1  0  0  0  0  0  0  0  0  0
   12.2039  -16.1252   27.1400 C   0  0  0  0  0  0  0  0  0  0  0  0
   12.8201  -14.5324   26.5222 S   0  0  0  0  0  0  0  0  0  0  0  0
   10.7986  -15.4964   29.0246 C   0  0  0  0  0  0  0  0  0  0  0  0
   10.2899  -14.3772   29.2850 O   0  0  0  0  0  0  0  0  0  0  0  0
   11.3536  -16.2113   30.0671 O   0  0  0  0  0  0  0  0  0  0  0  0
  2  1  1  0
  3  2  1  0
  3  4  1  0
  4  5  1  0
  5  7  1  0
  5  6  1  6
  7  8  2  0
 10  9  1  6
 10 12  1  0
 10 11  1  0
 12 14  1  0
 13  7  1  0
 12 13  1  1
 14 16  1  0
 15 14  2  0
 16 17  1  0
 17 18  1  6
 18 19  1  0
 20 22  1  0
 20 17  1  0
 21 20  2  0
M  END
$$$$
