MVC.pdb
     RDKit          3D

 22 21  0  0  1  0  0  0  0  0999 V2000
   10.2535  -14.4951   28.8657 C   0  0  0  0  0  0  0  0  0  0  0  0
    9.6333  -16.1541   29.2292 S   0  0  0  0  0  0  0  0  0  0  0  0
   10.2781  -17.3570   28.0478 C   0  0  0  0  0  0  0  0  0  0  0  0
    9.2272  -18.4230   27.8352 C   0  0  0  0  0  0  0  0  0  0  0  0
    7.8745  -17.7827   27.9724 C   0  0  2  0  0  0  0  0  0  0  0  0
    6.7998  -18.7159   28.1929 N   0  0  0  0  0  0  0  0  0  0  0  0
    7.6116  -17.0335   26.6987 C   0  0  0  0  0  0  0  0  0  0  0  0
    7.6103  -17.6689   25.6164 O   0  0  0  0  0  0  0  0  0  0  0  0
    7.8248  -12.7995   26.5130 C   0  0  0  0  0  0  0  0  0  0  0  0
    6.8737  -13.5607   25.6693 C   0  0  1  0  0  0  0  0  0  0  0  0
    6.5955  -12.8840   24.3202 C   0  0  0  0  0  0  0  0  0  0  0  0
    7.2405  -14.9827   25.3619 C   0  0  2  0  0  0  0  0  0  0  0  0
    7.3648  -15.6412   26.6626 N   0  0  0  0  0  0  0  0  0  0  0  0
    8.4641  -15.1467   24.5578 C   0  0  0  0  0  0  0  0  0  0  0  0
    9.5449  -15.3630   25.2069 O   0  0  0  0  0  0  0  0  0  0  0  0
    8.5845  -15.0954   23.1712 N   0  0  0  0  0  0  0  0  0  0  0  0
    9.5549  -15.8653   22.4681 C   0  0  1  0  0  0  0  0  0  0  0  0
    9.2663  -16.0145   20.9960 C   0  0  0  0  0  0  0  0  0  0  0  0
    7.5810  -16.6361   20.7283 S   0  0  0  0  0  0  0  0  0  0  0  0
   10.9005  -15.2555   22.6317 C   0  0  0  0  0  0  0  0  0  0  0  0
   11.0288  -14.2233   23.3369 O   0  0  0  0  0  0  0  0  0  0  0  0
   12.0327  -15.7761   22.0376 O   0  0  0  0  0  0  0  0  0  0  0  0
  2  1  1  0
  3  2  1  0
  3  4  1  0
  4  5  1  0
  5  7  1  0
  5  6  1  6
  7  8  2  0
 10  9  1  6
 10 12  1  0
 10 11  1  0
 12 14  1  0
 13  7  1  0
 12 13  1  1
 14 16  1  0
 15 14  2  0
 16 17  1  0
 17 18  1  6
 18 19  1  0
 20 22  1  0
 20 17  1  0
 21 20  2  0
M  END
$$$$
