MVC.pdb
     RDKit          3D

 22 21  0  0  1  0  0  0  0  0999 V2000
    7.7718  -11.7513   20.2446 C   0  0  0  0  0  0  0  0  0  0  0  0
    7.8044  -12.6360   18.6681 S   0  0  0  0  0  0  0  0  0  0  0  0
    8.1335  -14.3927   18.9210 C   0  0  0  0  0  0  0  0  0  0  0  0
    8.0679  -14.6786   20.4043 C   0  0  0  0  0  0  0  0  0  0  0  0
    8.2506  -16.1566   20.6061 C   0  0  2  0  0  0  0  0  0  0  0  0
    7.2803  -16.9701   19.9195 N   0  0  0  0  0  0  0  0  0  0  0  0
    8.1431  -16.4154   22.0807 C   0  0  0  0  0  0  0  0  0  0  0  0
    7.0294  -16.7492   22.5531 O   0  0  0  0  0  0  0  0  0  0  0  0
   11.0950  -17.9724   23.7235 C   0  0  0  0  0  0  0  0  0  0  0  0
    9.9445  -17.7994   24.6414 C   0  0  1  0  0  0  0  0  0  0  0  0
   10.3631  -17.6996   26.1145 C   0  0  0  0  0  0  0  0  0  0  0  0
    9.0463  -16.6271   24.3762 C   0  0  2  0  0  0  0  0  0  0  0  0
    9.2421  -16.3000   22.9636 N   0  0  0  0  0  0  0  0  0  0  0  0
    9.2864  -15.4558   25.2370 C   0  0  0  0  0  0  0  0  0  0  0  0
   10.3710  -14.8106   25.0278 O   0  0  0  0  0  0  0  0  0  0  0  0
    8.4705  -14.9650   26.2535 N   0  0  0  0  0  0  0  0  0  0  0  0
    8.8102  -13.7996   26.9986 C   0  0  1  0  0  0  0  0  0  0  0  0
    7.6172  -13.0203   27.4906 C   0  0  0  0  0  0  0  0  0  0  0  0
    6.1528  -13.3721   26.4756 S   0  0  0  0  0  0  0  0  0  0  0  0
    9.6519  -14.1720   28.1656 C   0  0  0  0  0  0  0  0  0  0  0  0
    9.8542  -15.3863   28.4183 O   0  0  0  0  0  0  0  0  0  0  0  0
   10.2306  -13.2346   28.9975 O   0  0  0  0  0  0  0  0  0  0  0  0
  2  1  1  0
  3  2  1  0
  3  4  1  0
  4  5  1  0
  5  7  1  0
  5  6  1  6
  7  8  2  0
 10  9  1  6
 10 12  1  0
 10 11  1  0
 12 14  1  0
 13  7  1  0
 12 13  1  6
 14 16  1  0
 15 14  2  0
 16 17  1  0
 17 18  1  1
 18 19  1  0
 20 22  1  0
 20 17  1  0
 21 20  2  0
M  END
$$$$
