MVC.pdb
     RDKit          3D

 22 21  0  0  1  0  0  0  0  0999 V2000
    6.7127  -10.8616   26.5003 C   0  0  0  0  0  0  0  0  0  0  0  0
    6.6018  -12.3045   27.5841 S   0  0  0  0  0  0  0  0  0  0  0  0
    5.8928  -13.7154   26.7093 C   0  0  0  0  0  0  0  0  0  0  0  0
    6.9328  -14.2505   25.7512 C   0  0  0  0  0  0  0  0  0  0  0  0
    6.3310  -15.4062   25.0024 C   0  0  2  0  0  0  0  0  0  0  0  0
    6.0675  -16.5641   25.8174 N   0  0  0  0  0  0  0  0  0  0  0  0
    7.3031  -15.7846   23.9231 C   0  0  0  0  0  0  0  0  0  0  0  0
    7.8787  -16.8975   23.9953 O   0  0  0  0  0  0  0  0  0  0  0  0
    6.9251  -14.7081   19.9381 C   0  0  0  0  0  0  0  0  0  0  0  0
    8.2474  -14.5640   20.5915 C   0  0  1  0  0  0  0  0  0  0  0  0
    8.5430  -13.1246   21.0345 C   0  0  0  0  0  0  0  0  0  0  0  0
    8.5032  -15.4354   21.7858 C   0  0  2  0  0  0  0  0  0  0  0  0
    7.6003  -14.9424   22.8263 N   0  0  0  0  0  0  0  0  0  0  0  0
    9.9008  -15.4530   22.2516 C   0  0  0  0  0  0  0  0  0  0  0  0
   10.6540  -14.5125   21.8221 O   0  0  0  0  0  0  0  0  0  0  0  0
   10.5012  -16.3734   23.1073 N   0  0  0  0  0  0  0  0  0  0  0  0
   11.8616  -16.2532   23.5118 C   0  0  1  0  0  0  0  0  0  0  0  0
   12.1300  -16.7539   24.9082 C   0  0  0  0  0  0  0  0  0  0  0  0
   10.8496  -16.1750   26.0588 S   0  0  0  0  0  0  0  0  0  0  0  0
   12.7387  -16.9887   22.5638 C   0  0  0  0  0  0  0  0  0  0  0  0
   12.2202  -17.6502   21.6295 O   0  0  0  0  0  0  0  0  0  0  0  0
   14.1158  -16.9801   22.6615 O   0  0  0  0  0  0  0  0  0  0  0  0
  2  1  1  0
  3  2  1  0
  3  4  1  0
  4  5  1  0
  5  7  1  0
  5  6  1  1
  7  8  2  0
 10  9  1  1
 10 12  1  0
 10 11  1  0
 12 14  1  0
 13  7  1  0
 12 13  1  1
 14 16  1  0
 15 14  2  0
 16 17  1  0
 17 18  1  1
 18 19  1  0
 20 22  1  0
 20 17  1  0
 21 20  2  0
M  END
$$$$
