MVC.pdb
     RDKit          3D

 22 21  0  0  1  0  0  0  0  0999 V2000
    7.9723  -18.7086   26.9464 C   0  0  0  0  0  0  0  0  0  0  0  0
    6.5424  -17.9544   26.1368 S   0  0  0  0  0  0  0  0  0  0  0  0
    6.6602  -18.1109   24.3423 C   0  0  0  0  0  0  0  0  0  0  0  0
    5.5414  -17.3052   23.7217 C   0  0  0  0  0  0  0  0  0  0  0  0
    5.5616  -17.5394   22.2373 C   0  0  2  0  0  0  0  0  0  0  0  0
    5.5133  -18.9281   21.8586 N   0  0  0  0  0  0  0  0  0  0  0  0
    6.8342  -16.9389   21.7150 C   0  0  0  0  0  0  0  0  0  0  0  0
    7.8202  -17.6915   21.5236 O   0  0  0  0  0  0  0  0  0  0  0  0
    6.9570  -13.5332   19.4003 C   0  0  0  0  0  0  0  0  0  0  0  0
    7.9972  -13.6788   20.4457 C   0  0  1  0  0  0  0  0  0  0  0  0
    7.7194  -12.8246   21.6902 C   0  0  0  0  0  0  0  0  0  0  0  0
    8.2619  -15.0710   20.9384 C   0  0  2  0  0  0  0  0  0  0  0  0
    6.9730  -15.5609   21.4280 N   0  0  0  0  0  0  0  0  0  0  0  0
    9.3043  -15.1736   21.9745 C   0  0  0  0  0  0  0  0  0  0  0  0
    9.1052  -14.5065   23.0476 O   0  0  0  0  0  0  0  0  0  0  0  0
   10.4833  -15.9134   21.9252 N   0  0  0  0  0  0  0  0  0  0  0  0
   11.3835  -15.9742   23.0273 C   0  0  1  0  0  0  0  0  0  0  0  0
   11.0497  -17.0496   24.0298 C   0  0  0  0  0  0  0  0  0  0  0  0
   12.0782  -16.8869   25.5178 S   0  0  0  0  0  0  0  0  0  0  0  0
   12.7699  -16.1917   22.5375 C   0  0  0  0  0  0  0  0  0  0  0  0
   13.7218  -16.1895   23.3578 O   0  0  0  0  0  0  0  0  0  0  0  0
   13.0664  -16.3989   21.2052 O   0  0  0  0  0  0  0  0  0  0  0  0
  2  1  1  0
  3  2  1  0
  3  4  1  0
  4  5  1  0
  5  7  1  0
  5  6  1  1
  7  8  2  0
 10  9  1  6
 10 12  1  0
 10 11  1  0
 12 14  1  0
 13  7  1  0
 12 13  1  1
 14 16  1  0
 15 14  2  0
 16 17  1  0
 17 18  1  1
 18 19  1  0
 20 22  1  0
 20 17  1  0
 21 20  2  0
M  END
$$$$
