MVC.pdb
     RDKit          3D

 22 21  0  0  1  0  0  0  0  0999 V2000
    8.2728  -12.0922   27.5889 C   0  0  0  0  0  0  0  0  0  0  0  0
    6.4790  -11.8886   27.4902 S   0  0  0  0  0  0  0  0  0  0  0  0
    5.7142  -13.2992   26.6632 C   0  0  0  0  0  0  0  0  0  0  0  0
    6.7205  -13.8865   25.6996 C   0  0  0  0  0  0  0  0  0  0  0  0
    6.0615  -15.0207   24.9661 C   0  0  2  0  0  0  0  0  0  0  0  0
    5.7911  -16.1746   25.7847 N   0  0  0  0  0  0  0  0  0  0  0  0
    6.9869  -15.4216   23.8544 C   0  0  0  0  0  0  0  0  0  0  0  0
    7.7859  -16.3696   24.0493 O   0  0  0  0  0  0  0  0  0  0  0  0
    8.0619  -12.8705   20.6753 C   0  0  0  0  0  0  0  0  0  0  0  0
    7.7746  -14.3017   20.4204 C   0  0  1  0  0  0  0  0  0  0  0  0
    8.6037  -14.8831   19.2671 C   0  0  0  0  0  0  0  0  0  0  0  0
    7.9489  -15.2371   21.5805 C   0  0  2  0  0  0  0  0  0  0  0  0
    6.9991  -14.7785   22.5947 N   0  0  0  0  0  0  0  0  0  0  0  0
    9.3183  -15.3067   22.1195 C   0  0  0  0  0  0  0  0  0  0  0  0
    9.7327  -14.2743   22.7511 O   0  0  0  0  0  0  0  0  0  0  0  0
   10.2176  -16.3659   22.0242 N   0  0  0  0  0  0  0  0  0  0  0  0
   11.5237  -16.3012   22.5889 C   0  0  1  0  0  0  0  0  0  0  0  0
   11.7885  -17.3520   23.6370 C   0  0  0  0  0  0  0  0  0  0  0  0
   10.7722  -17.0613   25.1139 S   0  0  0  0  0  0  0  0  0  0  0  0
   12.5457  -16.4274   21.5171 C   0  0  0  0  0  0  0  0  0  0  0  0
   13.7583  -16.2530   21.7969 O   0  0  0  0  0  0  0  0  0  0  0  0
   12.2222  -16.7315   20.2099 O   0  0  0  0  0  0  0  0  0  0  0  0
  2  1  1  0
  3  2  1  0
  3  4  1  0
  4  5  1  0
  5  7  1  0
  5  6  1  1
  7  8  2  0
 10  9  1  1
 10 12  1  0
 10 11  1  0
 12 14  1  0
 13  7  1  0
 12 13  1  1
 14 16  1  0
 15 14  2  0
 16 17  1  0
 17 18  1  1
 18 19  1  0
 20 22  1  0
 20 17  1  0
 21 20  2  0
M  END
$$$$
