MVC.pdb
     RDKit          3D

 22 21  0  0  1  0  0  0  0  0999 V2000
    6.7496  -11.2118   26.8892 C   0  0  0  0  0  0  0  0  0  0  0  0
    5.6226  -12.6059   26.6543 S   0  0  0  0  0  0  0  0  0  0  0  0
    6.2987  -14.1121   27.3843 C   0  0  0  0  0  0  0  0  0  0  0  0
    7.3453  -14.6660   26.4441 C   0  0  0  0  0  0  0  0  0  0  0  0
    6.6777  -15.6515   25.5266 C   0  0  2  0  0  0  0  0  0  0  0  0
    6.3075  -16.8906   26.1606 N   0  0  0  0  0  0  0  0  0  0  0  0
    7.6458  -15.9450   24.4178 C   0  0  0  0  0  0  0  0  0  0  0  0
    8.4067  -16.9367   24.5304 O   0  0  0  0  0  0  0  0  0  0  0  0
    6.7689  -14.7487   20.5652 C   0  0  0  0  0  0  0  0  0  0  0  0
    8.1945  -14.7635   20.9696 C   0  0  1  0  0  0  0  0  0  0  0  0
    8.7390  -13.3663   21.2965 C   0  0  0  0  0  0  0  0  0  0  0  0
    8.5517  -15.6401   22.1337 C   0  0  2  0  0  0  0  0  0  0  0  0
    7.7396  -15.1534   23.2494 N   0  0  0  0  0  0  0  0  0  0  0  0
    9.9838  -15.6575   22.4793 C   0  0  0  0  0  0  0  0  0  0  0  0
   10.4235  -14.6462   23.1275 O   0  0  0  0  0  0  0  0  0  0  0  0
   10.9183  -16.6473   22.1847 N   0  0  0  0  0  0  0  0  0  0  0  0
   12.2403  -16.6198   22.7144 C   0  0  1  0  0  0  0  0  0  0  0  0
   12.5100  -17.6926   23.7386 C   0  0  0  0  0  0  0  0  0  0  0  0
   14.1393  -17.4576   24.5060 S   0  0  0  0  0  0  0  0  0  0  0  0
   13.2299  -16.7510   21.6133 C   0  0  0  0  0  0  0  0  0  0  0  0
   14.4524  -16.5977   21.8607 O   0  0  0  0  0  0  0  0  0  0  0  0
   12.8655  -17.0373   20.3129 O   0  0  0  0  0  0  0  0  0  0  0  0
  2  1  1  0
  3  2  1  0
  3  4  1  0
  4  5  1  0
  5  7  1  0
  5  6  1  1
  7  8  2  0
 10  9  1  1
 10 12  1  0
 10 11  1  0
 12 14  1  0
 13  7  1  0
 12 13  1  1
 14 16  1  0
 15 14  2  0
 16 17  1  0
 17 18  1  1
 18 19  1  0
 20 22  1  0
 20 17  1  0
 21 20  2  0
M  END
$$$$
