MVC.pdb
     RDKit          3D

 22 21  0  0  1  0  0  0  0  0999 V2000
    6.4872  -10.9926   26.8221 C   0  0  0  0  0  0  0  0  0  0  0  0
    6.7041  -12.4454   27.8763 S   0  0  0  0  0  0  0  0  0  0  0  0
    6.0533  -13.9265   27.0754 C   0  0  0  0  0  0  0  0  0  0  0  0
    7.0248  -14.3475   25.9961 C   0  0  0  0  0  0  0  0  0  0  0  0
    6.3839  -15.4406   25.1879 C   0  0  2  0  0  0  0  0  0  0  0  0
    6.1407  -16.6539   25.9249 N   0  0  0  0  0  0  0  0  0  0  0  0
    7.3105  -15.7444   24.0469 C   0  0  0  0  0  0  0  0  0  0  0  0
    7.9250  -16.8387   24.0461 O   0  0  0  0  0  0  0  0  0  0  0  0
    6.5600  -14.5414   20.2994 C   0  0  0  0  0  0  0  0  0  0  0  0
    7.9850  -14.4461   20.6948 C   0  0  1  0  0  0  0  0  0  0  0  0
    8.4325  -13.0061   20.9801 C   0  0  0  0  0  0  0  0  0  0  0  0
    8.4075  -15.2634   21.8799 C   0  0  2  0  0  0  0  0  0  0  0  0
    7.5229  -14.8519   22.9704 N   0  0  0  0  0  0  0  0  0  0  0  0
    9.8250  -15.1222   22.2559 C   0  0  0  0  0  0  0  0  0  0  0  0
   10.0920  -14.2380   23.1410 O   0  0  0  0  0  0  0  0  0  0  0  0
   10.9120  -15.8394   21.7622 N   0  0  0  0  0  0  0  0  0  0  0  0
   11.9245  -16.3609   22.6177 C   0  0  1  0  0  0  0  0  0  0  0  0
   11.4125  -17.3403   23.6431 C   0  0  0  0  0  0  0  0  0  0  0  0
   11.9779  -16.8863   25.3083 S   0  0  0  0  0  0  0  0  0  0  0  0
   12.9792  -17.0249   21.8080 C   0  0  0  0  0  0  0  0  0  0  0  0
   12.6549  -17.6593   20.7728 O   0  0  0  0  0  0  0  0  0  0  0  0
   14.3176  -16.9775   22.1432 O   0  0  0  0  0  0  0  0  0  0  0  0
  2  1  1  0
  3  2  1  0
  3  4  1  0
  4  5  1  0
  5  7  1  0
  5  6  1  1
  7  8  2  0
 10  9  1  1
 10 12  1  0
 10 11  1  0
 12 14  1  0
 13  7  1  0
 12 13  1  1
 14 16  1  0
 15 14  2  0
 16 17  1  0
 17 18  1  1
 18 19  1  0
 20 22  1  0
 20 17  1  0
 21 20  2  0
M  END
$$$$
