MVC.pdb
     RDKit          3D

 22 21  0  0  1  0  0  0  0  0999 V2000
    7.1875  -10.8813   27.2522 C   0  0  0  0  0  0  0  0  0  0  0  0
    6.1428  -12.3250   26.9468 S   0  0  0  0  0  0  0  0  0  0  0  0
    7.1307  -13.7306   26.3931 C   0  0  0  0  0  0  0  0  0  0  0  0
    6.2020  -14.9012   26.1622 C   0  0  0  0  0  0  0  0  0  0  0  0
    7.0206  -16.0588   25.6638 C   0  0  2  0  0  0  0  0  0  0  0  0
    8.3500  -16.1216   26.2146 N   0  0  0  0  0  0  0  0  0  0  0  0
    7.1202  -15.9170   24.1729 C   0  0  0  0  0  0  0  0  0  0  0  0
    6.1724  -16.3349   23.4643 O   0  0  0  0  0  0  0  0  0  0  0  0
    8.5814  -13.9460   20.0766 C   0  0  0  0  0  0  0  0  0  0  0  0
    8.2987  -14.0954   21.5236 C   0  0  1  0  0  0  0  0  0  0  0  0
    6.9260  -13.5395   21.9263 C   0  0  0  0  0  0  0  0  0  0  0  0
    8.3718  -15.4867   22.0804 C   0  0  2  0  0  0  0  0  0  0  0  0
    8.2358  -15.3326   23.5291 N   0  0  0  0  0  0  0  0  0  0  0  0
    9.5954  -16.2297   21.7319 C   0  0  0  0  0  0  0  0  0  0  0  0
   10.1661  -15.9008   20.6353 O   0  0  0  0  0  0  0  0  0  0  0  0
   10.2074  -17.2495   22.4567 N   0  0  0  0  0  0  0  0  0  0  0  0
   11.5953  -17.5417   22.3255 C   0  0  1  0  0  0  0  0  0  0  0  0
   12.4996  -16.4104   22.7439 C   0  0  0  0  0  0  0  0  0  0  0  0
   12.3533  -16.0922   24.5260 S   0  0  0  0  0  0  0  0  0  0  0  0
   11.9369  -18.7470   23.1251 C   0  0  0  0  0  0  0  0  0  0  0  0
   13.0821  -19.2536   23.0196 O   0  0  0  0  0  0  0  0  0  0  0  0
   11.0436  -19.3457   23.9909 O   0  0  0  0  0  0  0  0  0  0  0  0
  2  1  1  0
  3  2  1  0
  3  4  1  0
  4  5  1  0
  5  7  1  0
  5  6  1  1
  7  8  2  0
 10  9  1  6
 10 12  1  0
 10 11  1  0
 12 14  1  0
 13  7  1  0
 12 13  1  1
 14 16  1  0
 15 14  2  0
 16 17  1  0
 17 18  1  1
 18 19  1  0
 20 22  1  0
 20 17  1  0
 21 20  2  0
M  END
$$$$
