MVC.pdb
     RDKit          3D

 22 21  0  0  1  0  0  0  0  0999 V2000
    7.3479  -20.7935   25.6838 C   0  0  0  0  0  0  0  0  0  0  0  0
    5.9857  -21.0207   24.5168 S   0  0  0  0  0  0  0  0  0  0  0  0
    5.8329  -19.5964   23.4184 C   0  0  0  0  0  0  0  0  0  0  0  0
    6.7392  -18.5012   23.9334 C   0  0  0  0  0  0  0  0  0  0  0  0
    6.5376  -17.2832   23.0764 C   0  0  2  0  0  0  0  0  0  0  0  0
    6.9156  -17.4626   21.6982 N   0  0  0  0  0  0  0  0  0  0  0  0
    7.3729  -16.1859   23.6689 C   0  0  0  0  0  0  0  0  0  0  0  0
    8.5835  -16.1106   23.3465 O   0  0  0  0  0  0  0  0  0  0  0  0
    5.8715  -13.6050   26.7122 C   0  0  0  0  0  0  0  0  0  0  0  0
    6.8940  -13.1757   25.7293 C   0  0  1  0  0  0  0  0  0  0  0  0
    7.8343  -12.0934   26.2770 C   0  0  0  0  0  0  0  0  0  0  0  0
    7.7723  -14.2522   25.1627 C   0  0  2  0  0  0  0  0  0  0  0  0
    6.8567  -15.2309   24.5755 N   0  0  0  0  0  0  0  0  0  0  0  0
    8.6828  -14.8835   26.1337 C   0  0  0  0  0  0  0  0  0  0  0  0
    8.1835  -15.8104   26.8602 O   0  0  0  0  0  0  0  0  0  0  0  0
   10.0266  -14.5916   26.3547 N   0  0  0  0  0  0  0  0  0  0  0  0
   10.8277  -15.3543   27.2522 C   0  0  1  0  0  0  0  0  0  0  0  0
   12.3099  -15.2213   27.0112 C   0  0  0  0  0  0  0  0  0  0  0  0
   13.2502  -16.2096   28.2103 S   0  0  0  0  0  0  0  0  0  0  0  0
   10.5343  -14.9583   28.6544 C   0  0  0  0  0  0  0  0  0  0  0  0
   10.5506  -15.8309   29.5585 O   0  0  0  0  0  0  0  0  0  0  0  0
   10.2404  -13.6589   29.0167 O   0  0  0  0  0  0  0  0  0  0  0  0
  2  1  1  0
  3  2  1  0
  3  4  1  0
  4  5  1  0
  5  7  1  0
  5  6  1  6
  7  8  2  0
 10  9  1  1
 10 12  1  0
 10 11  1  0
 12 14  1  0
 13  7  1  0
 12 13  1  1
 14 16  1  0
 15 14  2  0
 16 17  1  0
 17 18  1  6
 18 19  1  0
 20 22  1  0
 20 17  1  0
 21 20  2  0
M  END
$$$$
