MVC.pdb
     RDKit          3D

 22 21  0  0  1  0  0  0  0  0999 V2000
    7.9163  -11.9104   27.0122 C   0  0  0  0  0  0  0  0  0  0  0  0
    6.1194  -12.1004   26.9485 S   0  0  0  0  0  0  0  0  0  0  0  0
    5.6576  -13.8435   26.8649 C   0  0  0  0  0  0  0  0  0  0  0  0
    6.7630  -14.5933   26.1565 C   0  0  0  0  0  0  0  0  0  0  0  0
    6.1338  -15.6384   25.2787 C   0  0  2  0  0  0  0  0  0  0  0  0
    5.9289  -16.9079   25.9272 N   0  0  0  0  0  0  0  0  0  0  0  0
    7.0489  -15.8359   24.1055 C   0  0  0  0  0  0  0  0  0  0  0  0
    7.7678  -16.8640   24.0698 O   0  0  0  0  0  0  0  0  0  0  0  0
    7.9692  -12.7293   21.3626 C   0  0  0  0  0  0  0  0  0  0  0  0
    7.8050  -14.1324   20.9148 C   0  0  1  0  0  0  0  0  0  0  0  0
    8.6761  -14.4793   19.6998 C   0  0  0  0  0  0  0  0  0  0  0  0
    8.0643  -15.1974   21.9394 C   0  0  2  0  0  0  0  0  0  0  0  0
    7.1380  -14.9144   23.0362 N   0  0  0  0  0  0  0  0  0  0  0  0
    9.4560  -15.2712   22.4174 C   0  0  0  0  0  0  0  0  0  0  0  0
    9.8732  -14.2767   23.1052 O   0  0  0  0  0  0  0  0  0  0  0  0
   10.3736  -16.2982   22.2100 N   0  0  0  0  0  0  0  0  0  0  0  0
   11.6834  -16.2651   22.7687 C   0  0  1  0  0  0  0  0  0  0  0  0
   11.9598  -17.3814   23.7435 C   0  0  0  0  0  0  0  0  0  0  0  0
   10.7085  -17.4141   25.0595 S   0  0  0  0  0  0  0  0  0  0  0  0
   12.6982  -16.3161   21.6839 C   0  0  0  0  0  0  0  0  0  0  0  0
   13.9148  -16.1856   21.9702 O   0  0  0  0  0  0  0  0  0  0  0  0
   12.3636  -16.5025   20.3576 O   0  0  0  0  0  0  0  0  0  0  0  0
  2  1  1  0
  3  2  1  0
  3  4  1  0
  4  5  1  0
  5  7  1  0
  5  6  1  1
  7  8  2  0
 10  9  1  1
 10 12  1  0
 10 11  1  0
 12 14  1  0
 13  7  1  0
 12 13  1  1
 14 16  1  0
 15 14  2  0
 16 17  1  0
 17 18  1  1
 18 19  1  0
 20 22  1  0
 20 17  1  0
 21 20  2  0
M  END
$$$$
