MVC.pdb
     RDKit          3D

 22 21  0  0  1  0  0  0  0  0999 V2000
    7.9267  -19.2750   29.6139 C   0  0  0  0  0  0  0  0  0  0  0  0
    7.8438  -17.9541   28.3821 S   0  0  0  0  0  0  0  0  0  0  0  0
    8.9076  -18.3208   26.9705 C   0  0  0  0  0  0  0  0  0  0  0  0
    8.0511  -18.9070   25.8711 C   0  0  0  0  0  0  0  0  0  0  0  0
    6.7929  -18.0911   25.7706 C   0  0  2  0  0  0  0  0  0  0  0  0
    5.7356  -18.7267   25.0272 N   0  0  0  0  0  0  0  0  0  0  0  0
    7.1571  -16.8037   25.0902 C   0  0  0  0  0  0  0  0  0  0  0  0
    7.7276  -16.8540   23.9735 O   0  0  0  0  0  0  0  0  0  0  0  0
    5.4128  -13.4626   26.1948 C   0  0  0  0  0  0  0  0  0  0  0  0
    6.7484  -13.1811   25.6177 C   0  0  1  0  0  0  0  0  0  0  0  0
    7.7056  -12.5188   26.6180 C   0  0  0  0  0  0  0  0  0  0  0  0
    7.4868  -14.3504   25.0358 C   0  0  2  0  0  0  0  0  0  0  0  0
    6.8860  -15.5341   25.6514 N   0  0  0  0  0  0  0  0  0  0  0  0
    8.9462  -14.3231   25.2361 C   0  0  0  0  0  0  0  0  0  0  0  0
    9.5544  -13.2717   24.8348 O   0  0  0  0  0  0  0  0  0  0  0  0
    9.7446  -15.3077   25.8129 N   0  0  0  0  0  0  0  0  0  0  0  0
   11.1464  -15.1326   25.9954 C   0  0  1  0  0  0  0  0  0  0  0  0
   11.5593  -14.9734   27.4365 C   0  0  0  0  0  0  0  0  0  0  0  0
   10.8831  -13.4399   28.1363 S   0  0  0  0  0  0  0  0  0  0  0  0
   11.8809  -16.2859   25.4127 C   0  0  0  0  0  0  0  0  0  0  0  0
   11.2380  -17.2023   24.8416 O   0  0  0  0  0  0  0  0  0  0  0  0
   13.2555  -16.4005   25.4694 O   0  0  0  0  0  0  0  0  0  0  0  0
  2  1  1  0
  3  2  1  0
  3  4  1  0
  4  5  1  0
  5  7  1  0
  5  6  1  6
  7  8  2  0
 10  9  1  1
 10 12  1  0
 10 11  1  0
 12 14  1  0
 13  7  1  0
 12 13  1  1
 14 16  1  0
 15 14  2  0
 16 17  1  0
 17 18  1  1
 18 19  1  0
 20 22  1  0
 20 17  1  0
 21 20  2  0
M  END
$$$$
