MVC.pdb
     RDKit          3D

 22 21  0  0  1  0  0  0  0  0999 V2000
    8.2585  -12.0917   27.6755 C   0  0  0  0  0  0  0  0  0  0  0  0
    6.4905  -11.8056   27.4283 S   0  0  0  0  0  0  0  0  0  0  0  0
    5.7284  -13.1910   26.5575 C   0  0  0  0  0  0  0  0  0  0  0  0
    6.7928  -13.8729   25.7282 C   0  0  0  0  0  0  0  0  0  0  0  0
    6.1472  -14.9970   24.9677 C   0  0  2  0  0  0  0  0  0  0  0  0
    5.7018  -16.0891   25.7944 N   0  0  0  0  0  0  0  0  0  0  0  0
    7.1668  -15.5113   23.9937 C   0  0  0  0  0  0  0  0  0  0  0  0
    7.8099  -16.5482   24.2875 O   0  0  0  0  0  0  0  0  0  0  0  0
    6.8888  -14.7922   19.9303 C   0  0  0  0  0  0  0  0  0  0  0  0
    8.2378  -14.7701   20.5433 C   0  0  1  0  0  0  0  0  0  0  0  0
    8.7652  -13.3484   20.7799 C   0  0  0  0  0  0  0  0  0  0  0  0
    8.3949  -15.5017   21.8438 C   0  0  2  0  0  0  0  0  0  0  0  0
    7.4362  -14.8793   22.7573 N   0  0  0  0  0  0  0  0  0  0  0  0
    9.7579  -15.4853   22.4029 C   0  0  0  0  0  0  0  0  0  0  0  0
   10.2280  -14.3383   22.7187 O   0  0  0  0  0  0  0  0  0  0  0  0
   10.5976  -16.5730   22.6303 N   0  0  0  0  0  0  0  0  0  0  0  0
   11.9051  -16.4173   23.1734 C   0  0  1  0  0  0  0  0  0  0  0  0
   12.2632  -17.4523   24.2094 C   0  0  0  0  0  0  0  0  0  0  0  0
   11.0886  -17.4132   25.5940 S   0  0  0  0  0  0  0  0  0  0  0  0
   12.9148  -16.4631   22.0836 C   0  0  0  0  0  0  0  0  0  0  0  0
   12.5444  -16.7126   20.9090 O   0  0  0  0  0  0  0  0  0  0  0  0
   14.2597  -16.2415   22.3029 O   0  0  0  0  0  0  0  0  0  0  0  0
  2  1  1  0
  3  2  1  0
  3  4  1  0
  4  5  1  0
  5  7  1  0
  5  6  1  1
  7  8  2  0
 10  9  1  1
 10 12  1  0
 10 11  1  0
 12 14  1  0
 13  7  1  0
 12 13  1  1
 14 16  1  0
 15 14  2  0
 16 17  1  0
 17 18  1  1
 18 19  1  0
 20 22  1  0
 20 17  1  0
 21 20  2  0
M  END
$$$$
