MVV.pdb
     RDKit          3D

 23 22  0  0  1  0  0  0  0  0999 V2000
   17.3484  -16.6115  -15.4981 C   0  0  0  0  0  0  0  0  0  0  0  0
   15.8234  -15.7261  -15.9135 S   0  0  0  0  0  0  0  0  0  0  0  0
   15.9800  -14.8008  -17.4571 C   0  0  0  0  0  0  0  0  0  0  0  0
   17.3009  -14.0980  -17.5882 C   0  0  0  0  0  0  0  0  0  0  0  0
   17.3852  -13.2598  -18.8500 C   0  0  2  0  0  0  0  0  0  0  0  0
   17.2855  -14.1234  -19.9683 N   0  0  0  0  0  0  0  0  0  0  0  0
   18.4607  -12.2838  -18.8440 C   0  0  0  0  0  0  0  0  0  0  0  0
   19.5433  -12.6149  -19.4350 O   0  0  0  0  0  0  0  0  0  0  0  0
   17.4455   -9.0506  -19.3970 C   0  0  0  0  0  0  0  0  0  0  0  0
   18.8401   -8.7635  -18.9422 C   0  0  1  0  0  0  0  0  0  0  0  0
   18.7678   -7.6777  -17.8906 C   0  0  0  0  0  0  0  0  0  0  0  0
   19.4298   -9.9971  -18.2895 C   0  0  2  0  0  0  0  0  0  0  0  0
   18.3794  -11.0359  -18.2417 N   0  0  0  0  0  0  0  0  0  0  0  0
   19.8206   -9.6460  -16.9079 C   0  0  0  0  0  0  0  0  0  0  0  0
   18.9185   -9.7079  -15.9834 O   0  0  0  0  0  0  0  0  0  0  0  0
   23.7643   -9.4996  -15.5519 C   0  0  0  0  0  0  0  0  0  0  0  0
   22.5905   -9.9179  -14.7181 C   0  0  1  0  0  0  0  0  0  0  0  0
   22.9418   -9.9131  -13.2675 C   0  0  0  0  0  0  0  0  0  0  0  0
   21.3670   -9.0594  -15.0185 C   0  0  2  0  0  0  0  0  0  0  0  0
   21.0949   -9.2448  -16.4603 N   0  0  0  0  0  0  0  0  0  0  0  0
   21.7185   -7.6609  -14.7052 C   0  0  0  0  0  0  0  0  0  0  0  0
   22.1101   -6.8371  -15.5712 O   0  0  0  0  0  0  0  0  0  0  0  0
   21.6149   -7.2245  -13.4003 O   0  0  0  0  0  0  0  0  0  0  0  0
  1  2  1  0
  3  2  1  0
  4  3  1  0
  5  6  1  6
  5  4  1  0
  7  5  1  0
  7 13  1  0
  8  7  2  0
 10  9  1  1
 10 12  1  0
 11 10  1  0
 12 13  1  1
 12 14  1  0
 14 20  1  0
 15 14  2  0
 17 19  1  0
 17 16  1  6
 18 17  1  0
 19 21  1  0
 19 20  1  6
 21 22  2  0
 21 23  1  0
M  END
$$$$
