MVV.pdb
     RDKit          3D

 23 22  0  0  1  0  0  0  0  0999 V2000
   10.2273  -24.0046    3.8142 C   0  0  0  0  0  0  0  0  0  0  0  0
   10.6107  -25.3254    2.6349 S   0  0  0  0  0  0  0  0  0  0  0  0
   12.1460  -25.0045    1.7386 C   0  0  0  0  0  0  0  0  0  0  0  0
   13.1880  -24.3290    2.5834 C   0  0  0  0  0  0  0  0  0  0  0  0
   14.4549  -24.0279    1.8049 C   0  0  2  0  0  0  0  0  0  0  0  0
   14.9519  -25.2425    1.2720 N   0  0  0  0  0  0  0  0  0  0  0  0
   15.3902  -23.1639    2.5035 C   0  0  0  0  0  0  0  0  0  0  0  0
   16.3568  -23.7338    3.1133 O   0  0  0  0  0  0  0  0  0  0  0  0
   17.4146  -18.7168    2.8784 C   0  0  0  0  0  0  0  0  0  0  0  0
   16.6056  -19.7742    2.1989 C   0  0  1  0  0  0  0  0  0  0  0  0
   17.4607  -20.3778    1.1060 C   0  0  0  0  0  0  0  0  0  0  0  0
   16.2730  -20.8763    3.1840 C   0  0  2  0  0  0  0  0  0  0  0  0
   15.2928  -21.7799    2.5457 N   0  0  0  0  0  0  0  0  0  0  0  0
   15.6519  -20.2588    4.3747 C   0  0  0  0  0  0  0  0  0  0  0  0
   14.5387  -19.6190    4.2207 O   0  0  0  0  0  0  0  0  0  0  0  0
   15.2809  -21.8492    7.9989 C   0  0  0  0  0  0  0  0  0  0  0  0
   15.7607  -20.4299    8.0564 C   0  0  1  0  0  0  0  0  0  0  0  0
   17.2295  -20.3766    8.3156 C   0  0  0  0  0  0  0  0  0  0  0  0
   15.3686  -19.6641    6.7979 C   0  0  2  0  0  0  0  0  0  0  0  0
   16.1361  -20.2869    5.6976 N   0  0  0  0  0  0  0  0  0  0  0  0
   15.7514  -18.2534    6.9995 C   0  0  0  0  0  0  0  0  0  0  0  0
   15.0183  -17.4164    7.5861 O   0  0  0  0  0  0  0  0  0  0  0  0
   16.9729  -17.8204    6.5256 O   0  0  0  0  0  0  0  0  0  0  0  0
  1  2  1  0
  3  2  1  0
  4  3  1  0
  5  6  1  1
  5  4  1  0
  7  5  1  0
  7 13  1  0
  8  7  2  0
 10  9  1  1
 10 12  1  0
 11 10  1  0
 12 13  1  6
 12 14  1  0
 14 20  1  0
 15 14  2  0
 17 19  1  0
 17 16  1  6
 18 17  1  0
 19 21  1  0
 19 20  1  6
 21 22  2  0
 21 23  1  0
M  END
$$$$
