MVV.pdb
     RDKit          3D

 23 22  0  0  1  0  0  0  0  0999 V2000
   19.7790  -18.4640  -15.8910 C   0  0  0  0  0  0  0  0  0  0  0  0
   21.1015  -18.1470  -17.0880 S   0  0  0  0  0  0  0  0  0  0  0  0
   22.6890  -17.8546  -16.2771 C   0  0  0  0  0  0  0  0  0  0  0  0
   22.9744  -18.8349  -15.1755 C   0  0  0  0  0  0  0  0  0  0  0  0
   23.9471  -19.9172  -15.6045 C   0  0  2  0  0  0  0  0  0  0  0  0
   23.2745  -20.8001  -16.4845 N   0  0  0  0  0  0  0  0  0  0  0  0
   24.7064  -20.5004  -14.5124 C   0  0  0  0  0  0  0  0  0  0  0  0
   24.0650  -21.2457  -13.6976 O   0  0  0  0  0  0  0  0  0  0  0  0
   28.6200  -19.2066  -13.6213 C   0  0  0  0  0  0  0  0  0  0  0  0
   28.3224  -20.6676  -13.5159 C   0  0  1  0  0  0  0  0  0  0  0  0
   29.1225  -21.2187  -12.3558 C   0  0  0  0  0  0  0  0  0  0  0  0
   26.8545  -20.8693  -13.1991 C   0  0  2  0  0  0  0  0  0  0  0  0
   26.0639  -20.2953  -14.3081 N   0  0  0  0  0  0  0  0  0  0  0  0
   26.5450  -20.1306  -11.9568 C   0  0  0  0  0  0  0  0  0  0  0  0
   26.4729  -18.8407  -12.0147 O   0  0  0  0  0  0  0  0  0  0  0  0
   23.6566  -20.2582   -9.6906 C   0  0  0  0  0  0  0  0  0  0  0  0
   24.8621  -20.3368   -8.8027 C   0  0  1  0  0  0  0  0  0  0  0  0
   25.0591  -21.7272   -8.2975 C   0  0  0  0  0  0  0  0  0  0  0  0
   26.1019  -19.7978   -9.5075 C   0  0  2  0  0  0  0  0  0  0  0  0
   26.3069  -20.6761  -10.6797 N   0  0  0  0  0  0  0  0  0  0  0  0
   27.2266  -19.8860   -8.5565 C   0  0  0  0  0  0  0  0  0  0  0  0
   28.1036  -20.7863   -8.6063 O   0  0  0  0  0  0  0  0  0  0  0  0
   27.3317  -18.9379   -7.5595 O   0  0  0  0  0  0  0  0  0  0  0  0
  1  2  1  0
  3  2  1  0
  4  3  1  0
  5  6  1  1
  5  4  1  0
  7  5  1  0
  7 13  1  0
  8  7  2  0
 10  9  1  1
 10 12  1  0
 11 10  1  0
 12 13  1  6
 12 14  1  0
 14 20  1  0
 15 14  2  0
 17 19  1  0
 17 16  1  6
 18 17  1  0
 19 21  1  0
 19 20  1  6
 21 22  2  0
 21 23  1  0
M  END
$$$$
