MVV.pdb
     RDKit          3D

 23 22  0  0  1  0  0  0  0  0999 V2000
   19.9681  -18.7232  -10.5559 C   0  0  0  0  0  0  0  0  0  0  0  0
   20.2577  -19.5180  -12.1580 S   0  0  0  0  0  0  0  0  0  0  0  0
   22.0199  -19.6906  -12.5163 C   0  0  0  0  0  0  0  0  0  0  0  0
   22.7623  -20.4521  -11.4558 C   0  0  0  0  0  0  0  0  0  0  0  0
   24.2643  -20.4189  -11.6669 C   0  0  2  0  0  0  0  0  0  0  0  0
   24.5393  -20.8388  -12.9914 N   0  0  0  0  0  0  0  0  0  0  0  0
   25.0287  -21.0280  -10.5927 C   0  0  0  0  0  0  0  0  0  0  0  0
   24.8130  -22.2652  -10.3610 O   0  0  0  0  0  0  0  0  0  0  0  0
   27.8844  -22.0193  -10.9387 C   0  0  0  0  0  0  0  0  0  0  0  0
   28.2075  -21.2515   -9.6977 C   0  0  1  0  0  0  0  0  0  0  0  0
   28.7695  -19.9108  -10.1181 C   0  0  0  0  0  0  0  0  0  0  0  0
   26.9386  -20.9919   -8.9114 C   0  0  2  0  0  0  0  0  0  0  0  0
   25.9615  -20.3527   -9.8177 N   0  0  0  0  0  0  0  0  0  0  0  0
   27.2593  -20.0551   -7.8140 C   0  0  0  0  0  0  0  0  0  0  0  0
   27.1336  -18.7874   -8.0365 O   0  0  0  0  0  0  0  0  0  0  0  0
   26.9338  -20.7653   -3.8217 C   0  0  0  0  0  0  0  0  0  0  0  0
   28.1885  -20.0366   -4.1995 C   0  0  1  0  0  0  0  0  0  0  0  0
   29.3623  -20.9582   -4.1841 C   0  0  0  0  0  0  0  0  0  0  0  0
   28.0308  -19.3251   -5.5386 C   0  0  2  0  0  0  0  0  0  0  0  0
   27.6937  -20.3840   -6.5146 N   0  0  0  0  0  0  0  0  0  0  0  0
   29.3212  -18.6829   -5.8545 C   0  0  0  0  0  0  0  0  0  0  0  0
   30.1281  -19.1372   -6.7057 O   0  0  0  0  0  0  0  0  0  0  0  0
   29.6694  -17.5251   -5.1895 O   0  0  0  0  0  0  0  0  0  0  0  0
  1  2  1  0
  3  2  1  0
  4  3  1  0
  5  6  1  6
  5  4  1  0
  7  5  1  0
  7 13  1  0
  8  7  2  0
 10  9  1  6
 10 12  1  0
 11 10  1  0
 12 13  1  6
 12 14  1  0
 14 20  1  0
 15 14  2  0
 17 19  1  0
 17 16  1  6
 18 17  1  0
 19 21  1  0
 19 20  1  6
 21 22  2  0
 21 23  1  0
M  END
$$$$
