MVV.pdb
     RDKit          3D

 23 22  0  0  1  0  0  0  0  0999 V2000
   20.6234  -21.4512  -14.3338 C   0  0  0  0  0  0  0  0  0  0  0  0
   20.1470  -20.4826  -12.8788 S   0  0  0  0  0  0  0  0  0  0  0  0
   21.5801  -19.7540  -12.0549 C   0  0  0  0  0  0  0  0  0  0  0  0
   22.5116  -20.7823  -11.4798 C   0  0  0  0  0  0  0  0  0  0  0  0
   23.8822  -20.7460  -12.1291 C   0  0  2  0  0  0  0  0  0  0  0  0
   23.7598  -21.2170  -13.4593 N   0  0  0  0  0  0  0  0  0  0  0  0
   24.9429  -21.3050  -11.3095 C   0  0  0  0  0  0  0  0  0  0  0  0
   24.9827  -22.5773  -11.2068 O   0  0  0  0  0  0  0  0  0  0  0  0
   28.5738  -19.4305  -10.6762 C   0  0  0  0  0  0  0  0  0  0  0  0
   28.2916  -20.8920  -10.5398 C   0  0  1  0  0  0  0  0  0  0  0  0
   29.3920  -21.4972   -9.6955 C   0  0  0  0  0  0  0  0  0  0  0  0
   26.9831  -21.0940   -9.8032 C   0  0  2  0  0  0  0  0  0  0  0  0
   25.8963  -20.5477  -10.6429 N   0  0  0  0  0  0  0  0  0  0  0  0
   27.0426  -20.3304   -8.5390 C   0  0  0  0  0  0  0  0  0  0  0  0
   26.5603  -19.1306   -8.5266 O   0  0  0  0  0  0  0  0  0  0  0  0
   28.5207  -19.8214   -3.8210 C   0  0  0  0  0  0  0  0  0  0  0  0
   28.1835  -20.6906   -4.9953 C   0  0  1  0  0  0  0  0  0  0  0  0
   27.3126  -21.8291   -4.5797 C   0  0  0  0  0  0  0  0  0  0  0  0
   27.5665  -19.8748   -6.1258 C   0  0  2  0  0  0  0  0  0  0  0  0
   27.5718  -20.7643   -7.3074 N   0  0  0  0  0  0  0  0  0  0  0  0
   28.4186  -18.6880   -6.3328 C   0  0  0  0  0  0  0  0  0  0  0  0
   28.1730  -17.5646   -5.8231 O   0  0  0  0  0  0  0  0  0  0  0  0
   29.5441  -18.8057   -7.1224 O   0  0  0  0  0  0  0  0  0  0  0  0
  1  2  1  0
  3  2  1  0
  4  3  1  0
  5  6  1  6
  5  4  1  0
  7  5  1  0
  7 13  1  0
  8  7  2  0
 10  9  1  1
 10 12  1  0
 11 10  1  0
 12 13  1  6
 12 14  1  0
 14 20  1  0
 15 14  2  0
 17 19  1  0
 17 16  1  1
 18 17  1  0
 19 21  1  0
 19 20  1  6
 21 22  2  0
 21 23  1  0
M  END
$$$$
