MVV.pdb
     RDKit          3D

 23 22  0  0  1  0  0  0  0  0999 V2000
   25.2131  -26.8798  -16.6119 C   0  0  0  0  0  0  0  0  0  0  0  0
   23.8430  -25.8582  -17.2132 S   0  0  0  0  0  0  0  0  0  0  0  0
   23.9610  -24.1557  -16.6211 C   0  0  0  0  0  0  0  0  0  0  0  0
   25.2881  -23.8447  -15.9904 C   0  0  0  0  0  0  0  0  0  0  0  0
   25.7825  -22.4545  -16.3432 C   0  0  2  0  0  0  0  0  0  0  0  0
   26.2395  -22.4690  -17.6838 N   0  0  0  0  0  0  0  0  0  0  0  0
   26.6488  -21.8598  -15.3406 C   0  0  0  0  0  0  0  0  0  0  0  0
   27.7762  -21.4149  -15.7431 O   0  0  0  0  0  0  0  0  0  0  0  0
   27.5280  -19.3826  -14.9152 C   0  0  0  0  0  0  0  0  0  0  0  0
   26.9316  -19.4498  -13.5463 C   0  0  1  0  0  0  0  0  0  0  0  0
   25.4686  -19.0811  -13.6620 C   0  0  0  0  0  0  0  0  0  0  0  0
   27.0079  -20.8700  -13.0239 C   0  0  2  0  0  0  0  0  0  0  0  0
   26.3264  -21.7518  -13.9948 N   0  0  0  0  0  0  0  0  0  0  0  0
   26.2862  -20.9270  -11.7352 C   0  0  0  0  0  0  0  0  0  0  0  0
   25.0427  -21.2816  -11.7465 O   0  0  0  0  0  0  0  0  0  0  0  0
   28.3688  -21.2222   -8.2783 C   0  0  0  0  0  0  0  0  0  0  0  0
   26.9875  -20.6771   -8.0715 C   0  0  1  0  0  0  0  0  0  0  0  0
   27.0295  -19.2063   -7.8219 C   0  0  0  0  0  0  0  0  0  0  0  0
   26.0721  -21.0390   -9.2357 C   0  0  2  0  0  0  0  0  0  0  0  0
   26.8040  -20.6384  -10.4570 N   0  0  0  0  0  0  0  0  0  0  0  0
   24.8223  -20.2717   -9.0726 C   0  0  0  0  0  0  0  0  0  0  0  0
   24.6220  -19.1551   -9.6159 O   0  0  0  0  0  0  0  0  0  0  0  0
   23.8161  -20.7968   -8.2878 O   0  0  0  0  0  0  0  0  0  0  0  0
  1  2  1  0
  3  2  1  0
  4  3  1  0
  5  6  1  6
  5  4  1  0
  7  5  1  0
  7 13  1  0
  8  7  2  0
 10  9  1  6
 10 12  1  0
 11 10  1  0
 12 13  1  6
 12 14  1  0
 14 20  1  0
 15 14  2  0
 17 19  1  0
 17 16  1  6
 18 17  1  0
 19 21  1  0
 19 20  1  6
 21 22  2  0
 21 23  1  0
M  END
$$$$
