MVV.pdb
     RDKit          3D

 23 22  0  0  1  0  0  0  0  0999 V2000
   27.5339  -18.5356   -6.0660 C   0  0  0  0  0  0  0  0  0  0  0  0
   27.3810  -20.3380   -5.9661 S   0  0  0  0  0  0  0  0  0  0  0  0
   27.7326  -21.1334   -7.5494 C   0  0  0  0  0  0  0  0  0  0  0  0
   26.9757  -20.5224   -8.6937 C   0  0  0  0  0  0  0  0  0  0  0  0
   27.2028  -21.2647   -9.9971 C   0  0  2  0  0  0  0  0  0  0  0  0
   28.5986  -21.3859  -10.2056 N   0  0  0  0  0  0  0  0  0  0  0  0
   26.3939  -20.7839  -11.1033 C   0  0  0  0  0  0  0  0  0  0  0  0
   26.7554  -19.6870  -11.6482 O   0  0  0  0  0  0  0  0  0  0  0  0
   24.0310  -23.5088  -12.9730 C   0  0  0  0  0  0  0  0  0  0  0  0
   24.5919  -22.3484  -13.7300 C   0  0  1  0  0  0  0  0  0  0  0  0
   23.6833  -22.0859  -14.9113 C   0  0  0  0  0  0  0  0  0  0  0  0
   24.5774  -21.1114  -12.8551 C   0  0  2  0  0  0  0  0  0  0  0  0
   25.2702  -21.4371  -11.5908 N   0  0  0  0  0  0  0  0  0  0  0  0
   23.1696  -20.7734  -12.5574 C   0  0  0  0  0  0  0  0  0  0  0  0
   22.5834  -21.3967  -11.5877 O   0  0  0  0  0  0  0  0  0  0  0  0
   20.8655  -17.9252  -14.6486 C   0  0  0  0  0  0  0  0  0  0  0  0
   20.6755  -18.1294  -13.1754 C   0  0  1  0  0  0  0  0  0  0  0  0
   19.3107  -17.6990  -12.7519 C   0  0  0  0  0  0  0  0  0  0  0  0
   20.9767  -19.5693  -12.7752 C   0  0  2  0  0  0  0  0  0  0  0  0
   22.3651  -19.8233  -13.2172 N   0  0  0  0  0  0  0  0  0  0  0  0
   20.0129  -20.4366  -13.4796 C   0  0  0  0  0  0  0  0  0  0  0  0
   20.1883  -20.8522  -14.6538 O   0  0  0  0  0  0  0  0  0  0  0  0
   18.8586  -20.8175  -12.8265 O   0  0  0  0  0  0  0  0  0  0  0  0
  1  2  1  0
  3  2  1  0
  4  3  1  0
  5  6  1  6
  5  4  1  0
  7  5  1  0
  7 13  1  0
  8  7  2  0
 10  9  1  1
 10 12  1  0
 11 10  1  0
 12 13  1  1
 12 14  1  0
 14 20  1  0
 15 14  2  0
 17 19  1  0
 17 16  1  6
 18 17  1  0
 19 21  1  0
 19 20  1  6
 21 22  2  0
 21 23  1  0
M  END
$$$$
