MVV.pdb
     RDKit          3D

 23 22  0  0  1  0  0  0  0  0999 V2000
   23.7764  -20.9340  -21.7282 C   0  0  0  0  0  0  0  0  0  0  0  0
   23.1689  -20.4429  -20.0936 S   0  0  0  0  0  0  0  0  0  0  0  0
   24.4710  -19.7000  -19.0855 C   0  0  0  0  0  0  0  0  0  0  0  0
   23.9589  -19.1277  -17.7948 C   0  0  0  0  0  0  0  0  0  0  0  0
   25.0673  -18.5280  -16.9501 C   0  0  2  0  0  0  0  0  0  0  0  0
   25.8154  -19.5855  -16.3772 N   0  0  0  0  0  0  0  0  0  0  0  0
   24.6315  -17.4561  -16.0724 C   0  0  0  0  0  0  0  0  0  0  0  0
   24.3614  -17.7730  -14.8651 O   0  0  0  0  0  0  0  0  0  0  0  0
   26.1999  -15.0699  -14.3976 C   0  0  0  0  0  0  0  0  0  0  0  0
   25.2680  -14.2188  -15.1985 C   0  0  1  0  0  0  0  0  0  0  0  0
   25.9850  -13.8208  -16.4703 C   0  0  0  0  0  0  0  0  0  0  0  0
   24.0479  -15.0262  -15.5921 C   0  0  2  0  0  0  0  0  0  0  0  0
   24.4933  -16.1321  -16.4657 N   0  0  0  0  0  0  0  0  0  0  0  0
   23.1396  -14.1463  -16.3573 C   0  0  0  0  0  0  0  0  0  0  0  0
   23.4365  -13.8839  -17.5883 O   0  0  0  0  0  0  0  0  0  0  0  0
   19.9318  -14.6122  -17.7184 C   0  0  0  0  0  0  0  0  0  0  0  0
   19.8082  -13.3360  -16.9411 C   0  0  1  0  0  0  0  0  0  0  0  0
   19.1363  -13.5762  -15.6303 C   0  0  0  0  0  0  0  0  0  0  0  0
   21.1630  -12.6559  -16.7791 C   0  0  2  0  0  0  0  0  0  0  0  0
   21.9515  -13.5442  -15.8978 N   0  0  0  0  0  0  0  0  0  0  0  0
   20.9270  -11.3393  -16.1562 C   0  0  0  0  0  0  0  0  0  0  0  0
   21.1287  -11.1066  -14.9366 O   0  0  0  0  0  0  0  0  0  0  0  0
   20.4627  -10.3043  -16.9419 O   0  0  0  0  0  0  0  0  0  0  0  0
  1  2  1  0
  3  2  1  0
  4  3  1  0
  5  6  1  1
  5  4  1  0
  7  5  1  0
  7 13  1  0
  8  7  2  0
 10  9  1  1
 10 12  1  0
 11 10  1  0
 12 13  1  6
 12 14  1  0
 14 20  1  0
 15 14  2  0
 17 19  1  0
 17 16  1  1
 18 17  1  0
 19 21  1  0
 19 20  1  1
 21 22  2  0
 21 23  1  0
M  END
$$$$
