MVV.pdb
     RDKit          3D

 23 22  0  0  1  0  0  0  0  0999 V2000
   19.2616  -20.1727  -13.7538 C   0  0  0  0  0  0  0  0  0  0  0  0
   19.7922  -19.2083  -15.1928 S   0  0  0  0  0  0  0  0  0  0  0  0
   21.4993  -19.5736  -15.6572 C   0  0  0  0  0  0  0  0  0  0  0  0
   22.2218  -20.4003  -14.6323 C   0  0  0  0  0  0  0  0  0  0  0  0
   23.6900  -20.5816  -14.9687 C   0  0  2  0  0  0  0  0  0  0  0  0
   23.7854  -21.1664  -16.2552 N   0  0  0  0  0  0  0  0  0  0  0  0
   24.4762  -21.1705  -13.8990 C   0  0  0  0  0  0  0  0  0  0  0  0
   24.1185  -22.3259  -13.4892 O   0  0  0  0  0  0  0  0  0  0  0  0
   28.0120  -21.8660  -14.0113 C   0  0  0  0  0  0  0  0  0  0  0  0
   27.8640  -21.0982  -12.7374 C   0  0  1  0  0  0  0  0  0  0  0  0
   28.1840  -19.6489  -13.0327 C   0  0  0  0  0  0  0  0  0  0  0  0
   26.4262  -21.1643  -12.2641 C   0  0  2  0  0  0  0  0  0  0  0  0
   25.5727  -20.5583  -13.3075 N   0  0  0  0  0  0  0  0  0  0  0  0
   26.3109  -20.3651  -11.0260 C   0  0  0  0  0  0  0  0  0  0  0  0
   26.1466  -19.0872  -11.1368 O   0  0  0  0  0  0  0  0  0  0  0  0
   23.9109  -20.7899   -8.2293 C   0  0  0  0  0  0  0  0  0  0  0  0
   25.2519  -20.5800   -7.5924 C   0  0  1  0  0  0  0  0  0  0  0  0
   25.7893  -21.8634   -7.0524 C   0  0  0  0  0  0  0  0  0  0  0  0
   26.2220  -19.9091   -8.5583 C   0  0  2  0  0  0  0  0  0  0  0  0
   26.3544  -20.8397   -9.7001 N   0  0  0  0  0  0  0  0  0  0  0  0
   27.5032  -19.7311   -7.8483 C   0  0  0  0  0  0  0  0  0  0  0  0
   28.4999  -20.4776   -8.0255 O   0  0  0  0  0  0  0  0  0  0  0  0
   27.6251  -18.6966   -6.9433 O   0  0  0  0  0  0  0  0  0  0  0  0
  1  2  1  0
  3  2  1  0
  4  3  1  0
  5  6  1  6
  5  4  1  0
  7  5  1  0
  7 13  1  0
  8  7  2  0
 10  9  1  6
 10 12  1  0
 11 10  1  0
 12 13  1  6
 12 14  1  0
 14 20  1  0
 15 14  2  0
 17 19  1  0
 17 16  1  6
 18 17  1  0
 19 21  1  0
 19 20  1  6
 21 22  2  0
 21 23  1  0
M  END
$$$$
