MVV.pdb
     RDKit          3D

 23 22  0  0  1  0  0  0  0  0999 V2000
   32.4210  -22.0569  -10.3478 C   0  0  0  0  0  0  0  0  0  0  0  0
   32.7344  -22.7713  -11.9830 S   0  0  0  0  0  0  0  0  0  0  0  0
   31.6270  -22.0930  -13.2387 C   0  0  0  0  0  0  0  0  0  0  0  0
   30.4845  -21.3131  -12.6536 C   0  0  0  0  0  0  0  0  0  0  0  0
   29.4507  -20.9341  -13.6973 C   0  0  2  0  0  0  0  0  0  0  0  0
   30.1195  -20.3334  -14.7919 N   0  0  0  0  0  0  0  0  0  0  0  0
   28.2865  -20.2519  -13.1601 C   0  0  0  0  0  0  0  0  0  0  0  0
   28.3148  -18.9752  -13.1610 O   0  0  0  0  0  0  0  0  0  0  0  0
   24.6674  -22.1333  -12.7217 C   0  0  0  0  0  0  0  0  0  0  0  0
   24.7586  -20.6425  -12.6630 C   0  0  1  0  0  0  0  0  0  0  0  0
   23.6010  -20.1423  -11.8265 C   0  0  0  0  0  0  0  0  0  0  0  0
   26.0401  -20.2353  -11.9647 C   0  0  2  0  0  0  0  0  0  0  0  0
   27.1672  -20.8982  -12.6539 N   0  0  0  0  0  0  0  0  0  0  0  0
   25.9793  -20.7196  -10.5695 C   0  0  0  0  0  0  0  0  0  0  0  0
   25.9461  -21.9964  -10.3668 O   0  0  0  0  0  0  0  0  0  0  0  0
   26.5441  -20.0958   -5.7006 C   0  0  0  0  0  0  0  0  0  0  0  0
   26.5051  -19.5581   -7.0997 C   0  0  1  0  0  0  0  0  0  0  0  0
   27.8597  -19.1042   -7.5314 C   0  0  0  0  0  0  0  0  0  0  0  0
   25.9023  -20.5736   -8.0638 C   0  0  2  0  0  0  0  0  0  0  0  0
   25.9573  -19.9374   -9.3979 N   0  0  0  0  0  0  0  0  0  0  0  0
   24.5124  -20.8220   -7.6350 C   0  0  0  0  0  0  0  0  0  0  0  0
   23.5216  -20.2194   -8.1221 O   0  0  0  0  0  0  0  0  0  0  0  0
   24.2765  -21.7609   -6.6517 O   0  0  0  0  0  0  0  0  0  0  0  0
  1  2  1  0
  3  2  1  0
  4  3  1  0
  5  6  1  6
  5  4  1  0
  7  5  1  0
  7 13  1  0
  8  7  2  0
 10  9  1  1
 10 12  1  0
 11 10  1  0
 12 13  1  6
 12 14  1  0
 14 20  1  0
 15 14  2  0
 17 19  1  0
 17 16  1  1
 18 17  1  0
 19 21  1  0
 19 20  1  6
 21 22  2  0
 21 23  1  0
M  END
$$$$
