MVV.pdb
     RDKit          3D

 23 22  0  0  1  0  0  0  0  0999 V2000
   27.7396  -18.1020   -6.4590 C   0  0  0  0  0  0  0  0  0  0  0  0
   27.7691  -19.8548   -6.0020 S   0  0  0  0  0  0  0  0  0  0  0  0
   27.6421  -20.9308   -7.4475 C   0  0  0  0  0  0  0  0  0  0  0  0
   26.9820  -20.2629   -8.6196 C   0  0  0  0  0  0  0  0  0  0  0  0
   26.9029  -21.1718   -9.8318 C   0  0  2  0  0  0  0  0  0  0  0  0
   28.1814  -21.7420  -10.0477 N   0  0  0  0  0  0  0  0  0  0  0  0
   26.2247  -20.5826  -10.9728 C   0  0  0  0  0  0  0  0  0  0  0  0
   26.9367  -19.8815  -11.7681 O   0  0  0  0  0  0  0  0  0  0  0  0
   26.2423  -21.4502  -13.6190 C   0  0  0  0  0  0  0  0  0  0  0  0
   24.7548  -21.5556  -13.5167 C   0  0  1  0  0  0  0  0  0  0  0  0
   24.4276  -22.9149  -12.9379 C   0  0  0  0  0  0  0  0  0  0  0  0
   24.2325  -20.5082  -12.5544 C   0  0  2  0  0  0  0  0  0  0  0  0
   24.8712  -20.7347  -11.2409 N   0  0  0  0  0  0  0  0  0  0  0  0
   22.7728  -20.6954  -12.4167 C   0  0  0  0  0  0  0  0  0  0  0  0
   22.3428  -21.4819  -11.4846 O   0  0  0  0  0  0  0  0  0  0  0  0
   18.3443  -18.5989  -12.8806 C   0  0  0  0  0  0  0  0  0  0  0  0
   19.7987  -18.7320  -13.2201 C   0  0  1  0  0  0  0  0  0  0  0  0
   20.5711  -17.5598  -12.7134 C   0  0  0  0  0  0  0  0  0  0  0  0
   20.3631  -20.0560  -12.7175 C   0  0  2  0  0  0  0  0  0  0  0  0
   21.7616  -20.1001  -13.1968 N   0  0  0  0  0  0  0  0  0  0  0  0
   19.5503  -21.1373  -13.3070 C   0  0  0  0  0  0  0  0  0  0  0  0
   18.5244  -21.6098  -12.7534 O   0  0  0  0  0  0  0  0  0  0  0  0
   19.9247  -21.6627  -14.5268 O   0  0  0  0  0  0  0  0  0  0  0  0
  1  2  1  0
  3  2  1  0
  4  3  1  0
  5  6  1  6
  5  4  1  0
  7  5  1  0
  7 13  1  0
  8  7  2  0
 10  9  1  1
 10 12  1  0
 11 10  1  0
 12 13  1  1
 12 14  1  0
 14 20  1  0
 15 14  2  0
 17 19  1  0
 17 16  1  1
 18 17  1  0
 19 21  1  0
 19 20  1  6
 21 22  2  0
 21 23  1  0
M  END
$$$$
