MVV.pdb
     RDKit          3D

 23 22  0  0  1  0  0  0  0  0999 V2000
   10.9403  -22.0968   -5.3385 C   0  0  0  0  0  0  0  0  0  0  0  0
   11.1501  -21.2311   -6.9160 S   0  0  0  0  0  0  0  0  0  0  0  0
   12.8186  -21.4317   -7.5787 C   0  0  0  0  0  0  0  0  0  0  0  0
   13.3494  -22.8276   -7.4186 C   0  0  0  0  0  0  0  0  0  0  0  0
   14.7811  -22.9591   -7.9029 C   0  0  2  0  0  0  0  0  0  0  0  0
   14.8470  -22.4888   -9.2373 N   0  0  0  0  0  0  0  0  0  0  0  0
   15.3923  -24.2432   -7.6082 C   0  0  0  0  0  0  0  0  0  0  0  0
   15.5659  -25.0386   -8.5921 O   0  0  0  0  0  0  0  0  0  0  0  0
   17.7826  -25.4282   -8.1541 C   0  0  0  0  0  0  0  0  0  0  0  0
   17.9492  -25.6849   -6.6911 C   0  0  1  0  0  0  0  0  0  0  0  0
   18.6017  -24.4639   -6.0801 C   0  0  0  0  0  0  0  0  0  0  0  0
   16.5901  -25.8527   -6.0428 C   0  0  2  0  0  0  0  0  0  0  0  0
   15.7890  -24.6468   -6.3407 N   0  0  0  0  0  0  0  0  0  0  0  0
   16.7850  -25.9500   -4.5809 C   0  0  0  0  0  0  0  0  0  0  0  0
   17.0385  -24.8649   -3.9247 O   0  0  0  0  0  0  0  0  0  0  0  0
   14.5136  -28.0051   -2.0794 C   0  0  0  0  0  0  0  0  0  0  0  0
   15.9724  -28.2036   -1.7957 C   0  0  1  0  0  0  0  0  0  0  0  0
   16.4445  -29.5125   -2.3355 C   0  0  0  0  0  0  0  0  0  0  0  0
   16.7993  -27.0330   -2.3153 C   0  0  2  0  0  0  0  0  0  0  0  0
   16.7219  -27.1144   -3.7900 N   0  0  0  0  0  0  0  0  0  0  0  0
   18.1810  -27.2159   -1.8307 C   0  0  0  0  0  0  0  0  0  0  0  0
   19.1026  -27.6975   -2.5385 O   0  0  0  0  0  0  0  0  0  0  0  0
   18.4886  -26.8424   -0.5385 O   0  0  0  0  0  0  0  0  0  0  0  0
  1  2  1  0
  3  2  1  0
  4  3  1  0
  5  6  1  6
  5  4  1  0
  7  5  1  0
  7 13  1  0
  8  7  2  0
 10  9  1  6
 10 12  1  0
 11 10  1  0
 12 13  1  1
 12 14  1  0
 14 20  1  0
 15 14  2  0
 17 19  1  0
 17 16  1  6
 18 17  1  0
 19 21  1  0
 19 20  1  6
 21 22  2  0
 21 23  1  0
M  END
$$$$
