DCR.pdb
     RDKit          3D

 26 25  0  0  1  0  0  0  0  0999 V2000
    7.8829  -12.4577   19.0228 N   0  0  0  0  0  0  0  0  0  0  0  0
    7.4779  -13.6732   19.7695 C   0  0  1  0  0  0  0  0  0  0  0  0
    8.1812  -14.8416   19.1209 C   0  0  0  0  0  0  0  0  0  0  0  0
    7.6051  -15.1616   17.8086 C   0  0  0  0  0  0  0  0  0  0  0  0
    7.0161  -14.2997   17.1408 O   0  0  0  0  0  0  0  0  0  0  0  0
    8.0890  -13.4713   21.1209 C   0  0  0  0  0  0  0  0  0  0  0  0
    8.6685  -12.4029   21.3578 O   0  0  0  0  0  0  0  0  0  0  0  0
    7.7136  -16.4637   17.2836 O   0  0  0  0  0  0  0  0  0  0  0  0
    8.0593  -14.4167   22.1674 N   0  0  0  0  0  0  0  0  0  0  0  0
    8.5460  -14.1730   23.4995 C   0  0  1  0  0  0  0  0  0  0  0  0
    7.8737  -13.0732   24.2213 C   0  0  0  0  0  0  0  0  0  0  0  0
    6.1626  -13.5792   24.6257 S   0  0  0  0  0  0  0  0  0  0  0  0
    8.4685  -15.4152   24.3380 C   0  0  0  0  0  0  0  0  0  0  0  0
    7.5056  -16.2370   24.2267 O   0  0  0  0  0  0  0  0  0  0  0  0
   14.2135  -14.6665   21.6296 N   0  0  0  0  0  0  0  0  0  0  0  0
   14.8187  -15.7883   22.2334 C   0  0  0  0  0  0  0  0  0  0  0  0
   16.1141  -15.8695   22.3408 N   0  0  0  0  0  0  0  0  0  0  0  0
   14.0171  -16.8537   22.7369 N   0  0  0  0  0  0  0  0  0  0  0  0
   12.5916  -16.8051   22.5707 C   0  0  0  0  0  0  0  0  0  0  0  0
   11.9993  -16.4209   23.9415 C   0  0  0  0  0  0  0  0  0  0  0  0
   10.8243  -17.3073   24.1507 C   0  0  0  0  0  0  0  0  0  0  0  0
   10.0351  -17.0558   25.4109 C   0  0  2  0  0  0  0  0  0  0  0  0
    9.4926  -15.6854   25.2794 N   0  0  0  0  0  0  0  0  0  0  0  0
   10.9339  -17.1332   26.5693 C   0  0  0  0  0  0  0  0  0  0  0  0
   11.2560  -18.3798   27.1403 O   0  0  0  0  0  0  0  0  0  0  0  0
   11.4525  -16.1272   27.1034 O   0  0  0  0  0  0  0  0  0  0  0  0
  2  3  1  0
  2  1  1  6
  3  4  1  0
  4  8  1  0
  4  5  2  0
  6  7  2  0
  6  2  1  0
  9  6  1  0
 10  9  1  0
 11 12  1  0
 10 11  1  1
 13 23  1  0
 13 10  1  0
 14 13  2  0
 16 15  1  0
 17 16  2  0
 18 16  1  0
 19 18  1  0
 20 19  1  0
 21 20  1  0
 22 21  1  6
 22 23  1  0
 24 22  1  0
 25 24  1  0
 26 24  2  0
M  END
$$$$
