DCR.pdb
     RDKit          3D

 26 25  0  0  1  0  0  0  0  0999 V2000
   10.3898  -18.3998   17.0835 N   0  0  0  0  0  0  0  0  0  0  0  0
    9.7638  -18.7717   18.3753 C   0  0  1  0  0  0  0  0  0  0  0  0
   10.6542  -19.8127   19.0110 C   0  0  0  0  0  0  0  0  0  0  0  0
   10.2524  -21.1740   18.6341 C   0  0  0  0  0  0  0  0  0  0  0  0
   10.4276  -21.5975   17.4827 O   0  0  0  0  0  0  0  0  0  0  0  0
    9.8777  -17.5213   19.1901 C   0  0  0  0  0  0  0  0  0  0  0  0
   10.8936  -16.8234   19.0695 O   0  0  0  0  0  0  0  0  0  0  0  0
    9.6566  -22.0271   19.5830 O   0  0  0  0  0  0  0  0  0  0  0  0
    8.9043  -17.0633   20.1026 N   0  0  0  0  0  0  0  0  0  0  0  0
    9.0069  -15.8438   20.8595 C   0  0  1  0  0  0  0  0  0  0  0  0
    7.8104  -14.9782   20.8192 C   0  0  0  0  0  0  0  0  0  0  0  0
    6.3555  -15.9403   21.3716 S   0  0  0  0  0  0  0  0  0  0  0  0
    9.3469  -16.1258   22.2937 C   0  0  0  0  0  0  0  0  0  0  0  0
    8.8965  -17.1490   22.8980 O   0  0  0  0  0  0  0  0  0  0  0  0
    5.1007  -12.1947   27.2841 N   0  0  0  0  0  0  0  0  0  0  0  0
    6.4053  -11.7486   26.9862 C   0  0  0  0  0  0  0  0  0  0  0  0
    6.6680  -10.4770   26.8859 N   0  0  0  0  0  0  0  0  0  0  0  0
    7.4589  -12.6879   26.7901 N   0  0  0  0  0  0  0  0  0  0  0  0
    7.1399  -14.0560   26.4921 C   0  0  0  0  0  0  0  0  0  0  0  0
    8.4816  -14.7930   26.3076 C   0  0  0  0  0  0  0  0  0  0  0  0
    8.8411  -14.6504   24.8721 C   0  0  0  0  0  0  0  0  0  0  0  0
   10.1826  -15.2151   24.4776 C   0  0  2  0  0  0  0  0  0  0  0  0
   10.1923  -15.2330   22.9980 N   0  0  0  0  0  0  0  0  0  0  0  0
   10.3055  -16.5821   24.9991 C   0  0  0  0  0  0  0  0  0  0  0  0
   11.4829  -16.9924   25.6543 O   0  0  0  0  0  0  0  0  0  0  0  0
    9.3996  -17.4394   24.8963 O   0  0  0  0  0  0  0  0  0  0  0  0
  2  3  1  0
  2  1  1  6
  3  4  1  0
  4  8  1  0
  4  5  2  0
  6  7  2  0
  6  2  1  0
  9  6  1  0
 10  9  1  0
 11 12  1  0
 10 11  1  1
 13 23  1  0
 13 10  1  0
 14 13  2  0
 16 15  1  0
 17 16  2  0
 18 16  1  0
 19 18  1  0
 20 19  1  0
 21 20  1  0
 22 21  1  6
 22 23  1  0
 24 22  1  0
 25 24  1  0
 26 24  2  0
M  END
$$$$
