DCR.pdb
     RDKit          3D

 26 25  0  0  1  0  0  0  0  0999 V2000
    1.9600  -22.7984   24.7153 N   0  0  0  0  0  0  0  0  0  0  0  0
    3.1802  -23.6356   24.8111 C   0  0  1  0  0  0  0  0  0  0  0  0
    2.9669  -24.8273   23.9084 C   0  0  0  0  0  0  0  0  0  0  0  0
    1.8473  -25.6607   24.3650 C   0  0  0  0  0  0  0  0  0  0  0  0
    0.9892  -26.0711   23.5706 O   0  0  0  0  0  0  0  0  0  0  0  0
    4.2389  -22.7805   24.1881 C   0  0  0  0  0  0  0  0  0  0  0  0
    5.4215  -23.1364   24.2807 O   0  0  0  0  0  0  0  0  0  0  0  0
    1.7299  -26.0099   25.7241 O   0  0  0  0  0  0  0  0  0  0  0  0
    3.9962  -21.5785   23.4908 N   0  0  0  0  0  0  0  0  0  0  0  0
    5.0180  -20.7713   22.8784 C   0  0  1  0  0  0  0  0  0  0  0  0
    4.5224  -19.6253   22.0886 C   0  0  0  0  0  0  0  0  0  0  0  0
    3.2935  -20.2225   20.8718 S   0  0  0  0  0  0  0  0  0  0  0  0
    5.9906  -20.2635   23.9022 C   0  0  0  0  0  0  0  0  0  0  0  0
    5.6002  -19.7517   24.9980 O   0  0  0  0  0  0  0  0  0  0  0  0
    8.3188  -22.6950   30.5940 N   0  0  0  0  0  0  0  0  0  0  0  0
    9.5677  -22.1234   30.2732 C   0  0  0  0  0  0  0  0  0  0  0  0
   10.4213  -21.8192   31.2086 N   0  0  0  0  0  0  0  0  0  0  0  0
    9.9145  -21.8698   28.9144 N   0  0  0  0  0  0  0  0  0  0  0  0
    8.8969  -21.9265   27.9028 C   0  0  0  0  0  0  0  0  0  0  0  0
    9.1856  -20.7741   26.9198 C   0  0  0  0  0  0  0  0  0  0  0  0
    8.2027  -20.9144   25.8134 C   0  0  0  0  0  0  0  0  0  0  0  0
    8.3531  -19.9310   24.6802 C   0  0  2  0  0  0  0  0  0  0  0  0
    7.3815  -20.3549   23.6477 N   0  0  0  0  0  0  0  0  0  0  0  0
    9.7196  -20.0090   24.1488 C   0  0  0  0  0  0  0  0  0  0  0  0
   10.7771  -19.3446   24.7999 O   0  0  0  0  0  0  0  0  0  0  0  0
   10.0186  -20.6506   23.1167 O   0  0  0  0  0  0  0  0  0  0  0  0
  2  3  1  0
  2  1  1  6
  3  4  1  0
  4  8  1  0
  4  5  2  0
  6  7  2  0
  6  2  1  0
  9  6  1  0
 10  9  1  0
 11 12  1  0
 10 11  1  1
 13 23  1  0
 13 10  1  0
 14 13  2  0
 16 15  1  0
 17 16  2  0
 18 16  1  0
 19 18  1  0
 20 19  1  0
 21 20  1  0
 22 21  1  1
 22 23  1  0
 24 22  1  0
 25 24  1  0
 26 24  2  0
M  END
$$$$
