DCR.pdb
     RDKit          3D

 26 25  0  0  1  0  0  0  0  0999 V2000
   14.2110  -16.1137   17.5170 N   0  0  0  0  0  0  0  0  0  0  0  0
   14.6617  -15.2255   18.6155 C   0  0  1  0  0  0  0  0  0  0  0  0
   14.7649  -13.8331   18.0400 C   0  0  0  0  0  0  0  0  0  0  0  0
   16.0410  -13.6269   17.3432 C   0  0  0  0  0  0  0  0  0  0  0  0
   17.0787  -14.1830   17.7300 O   0  0  0  0  0  0  0  0  0  0  0  0
   13.5071  -15.2364   19.5680 C   0  0  0  0  0  0  0  0  0  0  0  0
   13.5893  -14.5715   20.6096 O   0  0  0  0  0  0  0  0  0  0  0  0
   16.1065  -12.7871   16.2148 O   0  0  0  0  0  0  0  0  0  0  0  0
   12.3097  -15.9562   19.3737 N   0  0  0  0  0  0  0  0  0  0  0  0
   11.2847  -16.1169   20.3709 C   0  0  1  0  0  0  0  0  0  0  0  0
   10.1906  -17.0388   20.0026 C   0  0  0  0  0  0  0  0  0  0  0  0
    8.9092  -17.0004   21.3080 S   0  0  0  0  0  0  0  0  0  0  0  0
   11.8694  -16.5644   21.6785 C   0  0  0  0  0  0  0  0  0  0  0  0
   12.7844  -17.4444   21.7345 O   0  0  0  0  0  0  0  0  0  0  0  0
    9.4538  -16.3006   29.7045 N   0  0  0  0  0  0  0  0  0  0  0  0
   10.4108  -15.2783   29.8738 C   0  0  0  0  0  0  0  0  0  0  0  0
   10.4300  -14.5563   30.9575 N   0  0  0  0  0  0  0  0  0  0  0  0
   11.3746  -15.0201   28.8562 N   0  0  0  0  0  0  0  0  0  0  0  0
   10.9372  -14.8169   27.5036 C   0  0  0  0  0  0  0  0  0  0  0  0
   11.7258  -15.8125   26.6294 C   0  0  0  0  0  0  0  0  0  0  0  0
   11.2888  -15.5737   25.2287 C   0  0  0  0  0  0  0  0  0  0  0  0
   11.9608  -16.4269   24.1825 C   0  0  2  0  0  0  0  0  0  0  0  0
   11.3943  -15.9944   22.8856 N   0  0  0  0  0  0  0  0  0  0  0  0
   11.6387  -17.8382   24.4277 C   0  0  0  0  0  0  0  0  0  0  0  0
   10.4464  -18.3954   23.9260 O   0  0  0  0  0  0  0  0  0  0  0  0
   12.3811  -18.6083   25.0775 O   0  0  0  0  0  0  0  0  0  0  0  0
  2  3  1  0
  2  1  1  6
  3  4  1  0
  4  8  1  0
  4  5  2  0
  6  7  2  0
  6  2  1  0
  9  6  1  0
 10  9  1  0
 11 12  1  0
 10 11  1  6
 13 23  1  0
 13 10  1  0
 14 13  2  0
 16 15  1  0
 17 16  2  0
 18 16  1  0
 19 18  1  0
 20 19  1  0
 21 20  1  0
 22 21  1  1
 22 23  1  0
 24 22  1  0
 25 24  1  0
 26 24  2  0
M  END
$$$$
