DCR.pdb
     RDKit          3D

 26 25  0  0  1  0  0  0  0  0999 V2000
    9.3251  -16.3258   15.4708 N   0  0  0  0  0  0  0  0  0  0  0  0
    8.0982  -16.2437   16.2996 C   0  0  1  0  0  0  0  0  0  0  0  0
    7.6124  -17.6587   16.5059 C   0  0  0  0  0  0  0  0  0  0  0  0
    6.9323  -18.1786   15.3127 C   0  0  0  0  0  0  0  0  0  0  0  0
    6.9843  -17.5743   14.2320 O   0  0  0  0  0  0  0  0  0  0  0  0
    8.6010  -15.7419   17.6171 C   0  0  0  0  0  0  0  0  0  0  0  0
    9.7263  -16.0927   17.9968 O   0  0  0  0  0  0  0  0  0  0  0  0
    6.2042  -19.3821   15.3780 O   0  0  0  0  0  0  0  0  0  0  0  0
    7.8843  -14.8858   18.4793 N   0  0  0  0  0  0  0  0  0  0  0  0
    8.3581  -14.4391   19.7625 C   0  0  1  0  0  0  0  0  0  0  0  0
    7.5126  -13.4246   20.4247 C   0  0  0  0  0  0  0  0  0  0  0  0
    7.3966  -11.9476   19.3512 S   0  0  0  0  0  0  0  0  0  0  0  0
    8.5446  -15.5950   20.7012 C   0  0  0  0  0  0  0  0  0  0  0  0
    8.0201  -16.7302   20.4751 O   0  0  0  0  0  0  0  0  0  0  0  0
   14.5744  -20.1089   19.3383 N   0  0  0  0  0  0  0  0  0  0  0  0
   14.0417  -20.7584   20.4713 C   0  0  0  0  0  0  0  0  0  0  0  0
   14.3215  -22.0064   20.7169 N   0  0  0  0  0  0  0  0  0  0  0  0
   13.1856  -20.0546   21.3673 N   0  0  0  0  0  0  0  0  0  0  0  0
   12.4937  -18.8825   20.9097 C   0  0  0  0  0  0  0  0  0  0  0  0
   11.6176  -18.3996   22.0831 C   0  0  0  0  0  0  0  0  0  0  0  0
   10.8669  -17.2177   21.5835 C   0  0  0  0  0  0  0  0  0  0  0  0
    9.8966  -16.6022   22.5600 C   0  0  2  0  0  0  0  0  0  0  0  0
    9.3254  -15.4236   21.8712 N   0  0  0  0  0  0  0  0  0  0  0  0
   10.6229  -16.1795   23.7639 C   0  0  0  0  0  0  0  0  0  0  0  0
   10.7431  -17.0480   24.8662 O   0  0  0  0  0  0  0  0  0  0  0  0
   11.1627  -15.0564   23.8804 O   0  0  0  0  0  0  0  0  0  0  0  0
  2  3  1  0
  2  1  1  6
  3  4  1  0
  4  8  1  0
  4  5  2  0
  6  7  2  0
  6  2  1  0
  9  6  1  0
 10  9  1  0
 11 12  1  0
 10 11  1  1
 13 23  1  0
 13 10  1  0
 14 13  2  0
 16 15  1  0
 17 16  2  0
 18 16  1  0
 19 18  1  0
 20 19  1  0
 21 20  1  0
 22 21  1  6
 22 23  1  0
 24 22  1  0
 25 24  1  0
 26 24  2  0
M  END
$$$$
