DCR.pdb
     RDKit          3D

 26 25  0  0  1  0  0  0  0  0999 V2000
   12.8196  -17.9675   17.4715 N   0  0  0  0  0  0  0  0  0  0  0  0
   11.4792  -17.4170   17.1564 C   0  0  1  0  0  0  0  0  0  0  0  0
   10.8709  -18.3164   16.1068 C   0  0  0  0  0  0  0  0  0  0  0  0
   11.4420  -18.0632   14.7778 C   0  0  0  0  0  0  0  0  0  0  0  0
   12.3841  -17.2724   14.6260 O   0  0  0  0  0  0  0  0  0  0  0  0
   10.7122  -17.6205   18.4255 C   0  0  0  0  0  0  0  0  0  0  0  0
    9.5178  -17.2948   18.4571 O   0  0  0  0  0  0  0  0  0  0  0  0
   10.9241  -18.7203   13.6452 O   0  0  0  0  0  0  0  0  0  0  0  0
   11.2482  -18.1629   19.6123 N   0  0  0  0  0  0  0  0  0  0  0  0
   10.5147  -18.3199   20.8403 C   0  0  1  0  0  0  0  0  0  0  0  0
   10.9923  -19.4051   21.7216 C   0  0  0  0  0  0  0  0  0  0  0  0
   12.6937  -19.0228   22.2753 S   0  0  0  0  0  0  0  0  0  0  0  0
   10.4934  -17.0400   21.6235 C   0  0  0  0  0  0  0  0  0  0  0  0
   11.4944  -16.2576   21.6516 O   0  0  0  0  0  0  0  0  0  0  0  0
    7.7124  -14.7199   17.9428 N   0  0  0  0  0  0  0  0  0  0  0  0
    7.8746  -13.3759   18.3390 C   0  0  0  0  0  0  0  0  0  0  0  0
    8.3550  -12.4910   17.5129 N   0  0  0  0  0  0  0  0  0  0  0  0
    7.5132  -12.9657   19.6551 N   0  0  0  0  0  0  0  0  0  0  0  0
    7.2843  -13.9586   20.6670 C   0  0  0  0  0  0  0  0  0  0  0  0
    8.2444  -13.6351   21.8293 C   0  0  0  0  0  0  0  0  0  0  0  0
    8.0704  -14.7224   22.8281 C   0  0  0  0  0  0  0  0  0  0  0  0
    9.3244  -15.4739   23.1977 C   0  0  2  0  0  0  0  0  0  0  0  0
    9.3300  -16.6882   22.3519 N   0  0  0  0  0  0  0  0  0  0  0  0
    9.2652  -15.8480   24.6163 C   0  0  0  0  0  0  0  0  0  0  0  0
    9.5324  -14.8938   25.6173 O   0  0  0  0  0  0  0  0  0  0  0  0
    8.9825  -17.0017   25.0102 O   0  0  0  0  0  0  0  0  0  0  0  0
  2  3  1  0
  2  1  1  1
  3  4  1  0
  4  8  1  0
  4  5  2  0
  6  7  2  0
  6  2  1  0
  9  6  1  0
 10  9  1  0
 11 12  1  0
 10 11  1  1
 13 23  1  0
 13 10  1  0
 14 13  2  0
 16 15  1  0
 17 16  2  0
 18 16  1  0
 19 18  1  0
 20 19  1  0
 21 20  1  0
 22 21  1  6
 22 23  1  0
 24 22  1  0
 25 24  1  0
 26 24  2  0
M  END
$$$$
