DCR.pdb
     RDKit          3D

 26 25  0  0  1  0  0  0  0  0999 V2000
    8.4980  -14.2761   20.0925 N   0  0  0  0  0  0  0  0  0  0  0  0
    7.4120  -14.6373   21.0354 C   0  0  1  0  0  0  0  0  0  0  0  0
    7.1612  -16.1174   20.8701 C   0  0  0  0  0  0  0  0  0  0  0  0
    6.7995  -16.4555   19.4876 C   0  0  0  0  0  0  0  0  0  0  0  0
    6.9287  -15.6303   18.5720 O   0  0  0  0  0  0  0  0  0  0  0  0
    8.0361  -14.4322   22.3804 C   0  0  0  0  0  0  0  0  0  0  0  0
    9.2506  -14.6372   22.5098 O   0  0  0  0  0  0  0  0  0  0  0  0
    6.2959  -17.7334   19.1774 O   0  0  0  0  0  0  0  0  0  0  0  0
    7.3413  -14.0171   23.5357 N   0  0  0  0  0  0  0  0  0  0  0  0
    7.9246  -13.9243   24.8479 C   0  0  1  0  0  0  0  0  0  0  0  0
    7.4116  -12.8207   25.6855 C   0  0  0  0  0  0  0  0  0  0  0  0
    5.6677  -13.1605   26.1225 S   0  0  0  0  0  0  0  0  0  0  0  0
    7.7658  -15.2123   25.6014 C   0  0  0  0  0  0  0  0  0  0  0  0
    6.7136  -15.9181   25.5030 O   0  0  0  0  0  0  0  0  0  0  0  0
    6.9581  -18.4329   21.8548 N   0  0  0  0  0  0  0  0  0  0  0  0
    6.7977  -19.7323   22.3794 C   0  0  0  0  0  0  0  0  0  0  0  0
    5.7850  -20.4722   22.0286 N   0  0  0  0  0  0  0  0  0  0  0  0
    7.7464  -20.2561   23.3050 N   0  0  0  0  0  0  0  0  0  0  0  0
    8.7641  -19.3944   23.8378 C   0  0  0  0  0  0  0  0  0  0  0  0
    8.1711  -18.7376   25.1005 C   0  0  0  0  0  0  0  0  0  0  0  0
    9.2398  -17.8677   25.6584 C   0  0  0  0  0  0  0  0  0  0  0  0
    8.8596  -17.0726   26.8820 C   0  0  2  0  0  0  0  0  0  0  0  0
    8.8125  -15.6595   26.4453 N   0  0  0  0  0  0  0  0  0  0  0  0
    9.8900  -17.2475   27.9132 C   0  0  0  0  0  0  0  0  0  0  0  0
    9.6990  -18.1657   28.9641 O   0  0  0  0  0  0  0  0  0  0  0  0
   10.9675  -16.6109   27.9211 O   0  0  0  0  0  0  0  0  0  0  0  0
  2  3  1  0
  2  1  1  6
  3  4  1  0
  4  8  1  0
  4  5  2  0
  6  7  2  0
  6  2  1  0
  9  6  1  0
 10  9  1  0
 11 12  1  0
 10 11  1  1
 13 23  1  0
 13 10  1  0
 14 13  2  0
 16 15  1  0
 17 16  2  0
 18 16  1  0
 19 18  1  0
 20 19  1  0
 21 20  1  0
 22 21  1  6
 22 23  1  0
 24 22  1  0
 25 24  1  0
 26 24  2  0
M  END
$$$$
