DCR.pdb
     RDKit          3D

 26 25  0  0  1  0  0  0  0  0999 V2000
    5.6500  -15.1880   21.1603 N   0  0  0  0  0  0  0  0  0  0  0  0
    7.0228  -14.8954   20.6820 C   0  0  1  0  0  0  0  0  0  0  0  0
    6.9229  -13.6984   19.7667 C   0  0  0  0  0  0  0  0  0  0  0  0
    8.2120  -13.3890   19.1349 C   0  0  0  0  0  0  0  0  0  0  0  0
    9.1964  -14.1245   19.2956 O   0  0  0  0  0  0  0  0  0  0  0  0
    7.7377  -14.4577   21.9220 C   0  0  0  0  0  0  0  0  0  0  0  0
    8.8867  -14.0076   21.8184 O   0  0  0  0  0  0  0  0  0  0  0  0
    8.3513  -12.2423   18.3297 O   0  0  0  0  0  0  0  0  0  0  0  0
    7.2002  -14.5174   23.2249 N   0  0  0  0  0  0  0  0  0  0  0  0
    7.9540  -14.2852   24.4285 C   0  0  1  0  0  0  0  0  0  0  0  0
    7.1547  -13.8640   25.5975 C   0  0  0  0  0  0  0  0  0  0  0  0
    5.6768  -14.9344   25.7304 S   0  0  0  0  0  0  0  0  0  0  0  0
    8.7545  -15.4971   24.8063 C   0  0  0  0  0  0  0  0  0  0  0  0
    8.2648  -16.6679   24.7403 O   0  0  0  0  0  0  0  0  0  0  0  0
   15.9780  -14.6157   21.4587 N   0  0  0  0  0  0  0  0  0  0  0  0
   15.2334  -15.7586   21.0998 C   0  0  0  0  0  0  0  0  0  0  0  0
   15.1779  -16.1557   19.8607 N   0  0  0  0  0  0  0  0  0  0  0  0
   14.5280  -16.4981   22.0931 N   0  0  0  0  0  0  0  0  0  0  0  0
   14.4749  -16.0014   23.4394 C   0  0  0  0  0  0  0  0  0  0  0  0
   13.3819  -16.8103   24.1665 C   0  0  0  0  0  0  0  0  0  0  0  0
   12.2682  -15.8617   24.4309 C   0  0  0  0  0  0  0  0  0  0  0  0
   11.0555  -16.4528   25.1045 C   0  0  2  0  0  0  0  0  0  0  0  0
   10.0916  -15.3391   25.2476 N   0  0  0  0  0  0  0  0  0  0  0  0
   11.4363  -16.9630   26.4275 C   0  0  0  0  0  0  0  0  0  0  0  0
   12.1931  -18.1450   26.5455 O   0  0  0  0  0  0  0  0  0  0  0  0
   11.1212  -16.3963   27.4980 O   0  0  0  0  0  0  0  0  0  0  0  0
  2  3  1  0
  2  1  1  1
  3  4  1  0
  4  8  1  0
  4  5  2  0
  6  7  2  0
  6  2  1  0
  9  6  1  0
 10  9  1  0
 11 12  1  0
 10 11  1  1
 13 23  1  0
 13 10  1  0
 14 13  2  0
 16 15  1  0
 17 16  2  0
 18 16  1  0
 19 18  1  0
 20 19  1  0
 21 20  1  0
 22 21  1  1
 22 23  1  0
 24 22  1  0
 25 24  1  0
 26 24  2  0
M  END
$$$$
