DCR.pdb
     RDKit          3D

 26 25  0  0  1  0  0  0  0  0999 V2000
    8.6050  -16.9403   16.6850 N   0  0  0  0  0  0  0  0  0  0  0  0
    9.9616  -17.1034   17.2612 C   0  0  1  0  0  0  0  0  0  0  0  0
   10.9328  -16.4976   16.2761 C   0  0  0  0  0  0  0  0  0  0  0  0
   10.9854  -17.2640   15.0245 C   0  0  0  0  0  0  0  0  0  0  0  0
   10.9402  -18.5024   15.0299 O   0  0  0  0  0  0  0  0  0  0  0  0
    9.9348  -16.2212   18.4701 C   0  0  0  0  0  0  0  0  0  0  0  0
   10.9571  -16.1309   19.1631 O   0  0  0  0  0  0  0  0  0  0  0  0
   11.0890  -16.5984   13.7879 O   0  0  0  0  0  0  0  0  0  0  0  0
    8.8188  -15.4696   18.8939 N   0  0  0  0  0  0  0  0  0  0  0  0
    8.7564  -14.7273   20.1250 C   0  0  1  0  0  0  0  0  0  0  0  0
    7.6095  -13.8035   20.2428 C   0  0  0  0  0  0  0  0  0  0  0  0
    7.6775  -12.5863   18.8786 S   0  0  0  0  0  0  0  0  0  0  0  0
    8.7550  -15.6474   21.3105 C   0  0  0  0  0  0  0  0  0  0  0  0
    7.8644  -16.5414   21.4609 O   0  0  0  0  0  0  0  0  0  0  0  0
   15.0821  -20.2249   23.2705 N   0  0  0  0  0  0  0  0  0  0  0  0
   13.8594  -20.8366   23.6172 C   0  0  0  0  0  0  0  0  0  0  0  0
   13.7068  -22.1260   23.5153 N   0  0  0  0  0  0  0  0  0  0  0  0
   12.7687  -20.0483   24.0862 N   0  0  0  0  0  0  0  0  0  0  0  0
   12.9076  -18.6208   24.1576 C   0  0  0  0  0  0  0  0  0  0  0  0
   11.5064  -18.0549   24.4644 C   0  0  0  0  0  0  0  0  0  0  0  0
   11.1850  -17.1159   23.3576 C   0  0  0  0  0  0  0  0  0  0  0  0
    9.8244  -16.4694   23.4266 C   0  0  2  0  0  0  0  0  0  0  0  0
    9.7705  -15.5225   22.2908 N   0  0  0  0  0  0  0  0  0  0  0  0
    9.6970  -15.7421   24.6957 C   0  0  0  0  0  0  0  0  0  0  0  0
    9.6744  -14.3339   24.7117 O   0  0  0  0  0  0  0  0  0  0  0  0
    9.6037  -16.3116   25.8062 O   0  0  0  0  0  0  0  0  0  0  0  0
  2  3  1  0
  2  1  1  6
  3  4  1  0
  4  8  1  0
  4  5  2  0
  6  7  2  0
  6  2  1  0
  9  6  1  0
 10  9  1  0
 11 12  1  0
 10 11  1  6
 13 23  1  0
 13 10  1  0
 14 13  2  0
 16 15  1  0
 17 16  2  0
 18 16  1  0
 19 18  1  0
 20 19  1  0
 21 20  1  0
 22 21  1  1
 22 23  1  0
 24 22  1  0
 25 24  1  0
 26 24  2  0
M  END
$$$$
