IHR.pdb
     RDKit          3D

 30 30  0  0  1  0  0  0  0  0999 V2000
   19.2552  -18.1636  -15.8755 C   0  0  0  0  0  0  0  0  0  0  0  0
   20.0290  -16.8797  -15.7188 C   0  0  0  0  0  0  0  0  0  0  0  0
   21.3625  -16.8967  -16.4111 C   0  0  2  0  0  0  0  0  0  0  0  0
   21.0997  -17.3018  -17.8480 C   0  0  0  0  0  0  0  0  0  0  0  0
   22.3062  -17.8136  -15.7184 C   0  0  2  0  0  0  0  0  0  0  0  0
   22.1784  -17.7204  -14.2660 N   0  0  0  0  0  0  0  0  0  0  0  0
   23.7177  -17.5564  -16.0996 C   0  0  0  0  0  0  0  0  0  0  0  0
   24.1443  -17.6358  -17.2824 O   0  0  0  0  0  0  0  0  0  0  0  0
   24.6600  -17.2012  -15.1069 N   0  0  0  0  0  0  0  0  0  0  0  0
   26.1153  -17.0016  -15.5166 C   0  0  1  0  0  0  0  0  0  0  0  0
   26.3801  -15.6154  -15.0200 C   0  0  0  0  0  0  0  0  0  0  0  0
   26.8137  -14.5918  -15.9494 C   0  0  0  0  0  0  0  0  0  0  0  0
   26.9503  -14.5617  -17.3076 C   0  0  0  0  0  0  0  0  0  0  0  0
   27.3177  -13.3114  -17.7203 N   0  0  0  0  0  0  0  0  0  0  0  0
   27.4015  -12.5844  -16.6043 C   0  0  0  0  0  0  0  0  0  0  0  0
   27.1074  -13.3229  -15.5510 N   0  0  0  0  0  0  0  0  0  0  0  0
   26.8402  -18.0698  -14.7684 C   0  0  0  0  0  0  0  0  0  0  0  0
   26.9173  -17.9628  -13.4849 O   0  0  0  0  0  0  0  0  0  0  0  0
   21.8794  -22.1721  -13.4429 N   0  0  0  0  0  0  0  0  0  0  0  0
   22.6074  -23.0569  -14.2794 C   0  0  0  0  0  0  0  0  0  0  0  0
   21.9685  -24.0267  -14.8817 N   0  0  0  0  0  0  0  0  0  0  0  0
   24.0125  -22.8985  -14.4661 N   0  0  0  0  0  0  0  0  0  0  0  0
   24.7307  -21.8515  -13.7890 C   0  0  0  0  0  0  0  0  0  0  0  0
   26.1939  -21.9089  -14.1750 C   0  0  0  0  0  0  0  0  0  0  0  0
   27.0119  -20.8537  -13.5244 C   0  0  0  0  0  0  0  0  0  0  0  0
   28.0318  -20.2506  -14.4270 C   0  0  2  0  0  0  0  0  0  0  0  0
   27.4644  -19.2058  -15.2740 N   0  0  0  0  0  0  0  0  0  0  0  0
   28.5403  -21.2988  -15.3522 C   0  0  0  0  0  0  0  0  0  0  0  0
   28.2176  -21.3075  -16.5455 O   0  0  0  0  0  0  0  0  0  0  0  0
   29.4057  -22.3181  -14.9080 O   0  0  0  0  0  0  0  0  0  0  0  0
  1  2  1  0
  3  5  1  0
  3  2  1  0
  3  4  1  6
  5  7  1  0
  5  6  1  1
  7  8  2  0
  9 10  1  0
  9  7  1  0
 10 17  1  0
 11 12  1  0
 10 11  1  1
 12 13  2  0
 13 14  1  0
 15 14  1  0
 16 12  1  0
 16 15  2  0
 17 27  1  0
 17 18  2  0
 19 20  1  0
 20 22  1  0
 21 20  2  0
 23 22  1  0
 23 24  1  0
 24 25  1  0
 26 25  1  1
 26 28  1  0
 27 26  1  0
 28 29  2  0
 28 30  1  0
M  END
$$$$
