IHR.pdb
     RDKit          3D

 30 30  0  0  1  0  0  0  0  0999 V2000
   15.6684  -28.5843  -17.5520 C   0  0  0  0  0  0  0  0  0  0  0  0
   16.1733  -27.1647  -17.5928 C   0  0  0  0  0  0  0  0  0  0  0  0
   17.0249  -26.7986  -16.4102 C   0  0  2  0  0  0  0  0  0  0  0  0
   16.1065  -26.7788  -15.2044 C   0  0  0  0  0  0  0  0  0  0  0  0
   17.7088  -25.4973  -16.6339 C   0  0  2  0  0  0  0  0  0  0  0  0
   18.6787  -25.5794  -17.7233 N   0  0  0  0  0  0  0  0  0  0  0  0
   18.3921  -25.0068  -15.4106 C   0  0  0  0  0  0  0  0  0  0  0  0
   19.6262  -24.7591  -15.3550 O   0  0  0  0  0  0  0  0  0  0  0  0
   17.6478  -24.7953  -14.2270 N   0  0  0  0  0  0  0  0  0  0  0  0
   18.3408  -24.1503  -13.0315 C   0  0  1  0  0  0  0  0  0  0  0  0
   18.6535  -22.7878  -13.5643 C   0  0  0  0  0  0  0  0  0  0  0  0
   19.9623  -22.5208  -14.1258 C   0  0  0  0  0  0  0  0  0  0  0  0
   21.1957  -23.0689  -13.9199 C   0  0  0  0  0  0  0  0  0  0  0  0
   22.1097  -22.5157  -14.7726 N   0  0  0  0  0  0  0  0  0  0  0  0
   21.4223  -21.6303  -15.4968 C   0  0  0  0  0  0  0  0  0  0  0  0
   20.1549  -21.6202  -15.1293 N   0  0  0  0  0  0  0  0  0  0  0  0
   17.2945  -24.1675  -11.9679 C   0  0  0  0  0  0  0  0  0  0  0  0
   16.1257  -23.7070  -12.2625 O   0  0  0  0  0  0  0  0  0  0  0  0
   17.8547  -27.5749   -4.9883 N   0  0  0  0  0  0  0  0  0  0  0  0
   17.5697  -26.1890   -4.8859 C   0  0  0  0  0  0  0  0  0  0  0  0
   16.9941  -25.7407   -3.8000 N   0  0  0  0  0  0  0  0  0  0  0  0
   17.9023  -25.2927   -5.9443 N   0  0  0  0  0  0  0  0  0  0  0  0
   18.3376  -25.7926   -7.2215 C   0  0  0  0  0  0  0  0  0  0  0  0
   18.5491  -24.6343   -8.1738 C   0  0  0  0  0  0  0  0  0  0  0  0
   17.3342  -23.8003   -8.3587 C   0  0  0  0  0  0  0  0  0  0  0  0
   16.5482  -24.1553   -9.5731 C   0  0  2  0  0  0  0  0  0  0  0  0
   17.4016  -24.6274  -10.6593 N   0  0  0  0  0  0  0  0  0  0  0  0
   15.8692  -22.9345  -10.0847 C   0  0  0  0  0  0  0  0  0  0  0  0
   16.5046  -21.8983  -10.3105 O   0  0  0  0  0  0  0  0  0  0  0  0
   14.4822  -22.9102  -10.3312 O   0  0  0  0  0  0  0  0  0  0  0  0
  1  2  1  0
  3  5  1  0
  3  2  1  0
  3  4  1  1
  5  7  1  0
  5  6  1  6
  7  8  2  0
  9 10  1  0
  9  7  1  0
 10 17  1  0
 11 12  1  0
 10 11  1  6
 12 13  2  0
 13 14  1  0
 15 14  1  0
 16 12  1  0
 16 15  2  0
 17 27  1  0
 17 18  2  0
 19 20  1  0
 20 22  1  0
 21 20  2  0
 23 22  1  0
 23 24  1  0
 24 25  1  0
 26 25  1  1
 26 28  1  0
 27 26  1  0
 28 29  2  0
 28 30  1  0
M  END
$$$$
