IHR.pdb
     RDKit          3D

 30 30  0  0  1  0  0  0  0  0999 V2000
   29.3414  -20.6254  -10.4734 C   0  0  0  0  0  0  0  0  0  0  0  0
   28.9537  -21.3509  -11.7364 C   0  0  0  0  0  0  0  0  0  0  0  0
   27.8675  -20.6616  -12.5128 C   0  0  2  0  0  0  0  0  0  0  0  0
   28.1287  -19.1730  -12.3953 C   0  0  0  0  0  0  0  0  0  0  0  0
   26.5256  -21.0519  -12.0050 C   0  0  2  0  0  0  0  0  0  0  0  0
   26.3499  -22.5023  -12.0085 N   0  0  0  0  0  0  0  0  0  0  0  0
   25.4283  -20.4275  -12.7860 C   0  0  0  0  0  0  0  0  0  0  0  0
   24.9999  -19.2618  -12.5744 O   0  0  0  0  0  0  0  0  0  0  0  0
   24.8089  -21.1522  -13.8304 N   0  0  0  0  0  0  0  0  0  0  0  0
   23.7936  -20.4373  -14.7158 C   0  0  1  0  0  0  0  0  0  0  0  0
   24.3470  -20.7004  -16.0806 C   0  0  0  0  0  0  0  0  0  0  0  0
   25.3173  -19.7866  -16.6489 C   0  0  0  0  0  0  0  0  0  0  0  0
   25.8802  -18.6260  -16.2012 C   0  0  0  0  0  0  0  0  0  0  0  0
   26.8217  -18.1821  -17.0873 N   0  0  0  0  0  0  0  0  0  0  0  0
   26.8266  -19.0814  -18.0734 C   0  0  0  0  0  0  0  0  0  0  0  0
   25.9462  -20.0342  -17.8314 N   0  0  0  0  0  0  0  0  0  0  0  0
   22.5137  -21.1472  -14.4259 C   0  0  0  0  0  0  0  0  0  0  0  0
   22.5767  -22.3855  -14.0689 O   0  0  0  0  0  0  0  0  0  0  0  0
   15.9588  -24.1677  -11.2296 N   0  0  0  0  0  0  0  0  0  0  0  0
   17.2486  -24.5708  -11.6615 C   0  0  0  0  0  0  0  0  0  0  0  0
   17.4347  -25.8149  -12.0209 N   0  0  0  0  0  0  0  0  0  0  0  0
   18.3296  -23.6414  -11.7065 N   0  0  0  0  0  0  0  0  0  0  0  0
   18.1217  -22.2555  -11.3799 C   0  0  0  0  0  0  0  0  0  0  0  0
   18.0090  -21.4457  -12.6545 C   0  0  0  0  0  0  0  0  0  0  0  0
   19.2664  -20.7408  -13.0122 C   0  0  0  0  0  0  0  0  0  0  0  0
   20.0430  -21.4184  -14.0875 C   0  0  2  0  0  0  0  0  0  0  0  0
   21.2168  -20.6469  -14.4847 N   0  0  0  0  0  0  0  0  0  0  0  0
   19.1926  -21.5287  -15.3032 C   0  0  0  0  0  0  0  0  0  0  0  0
   19.2966  -20.7172  -16.2301 O   0  0  0  0  0  0  0  0  0  0  0  0
   18.2400  -22.5568  -15.4465 O   0  0  0  0  0  0  0  0  0  0  0  0
  1  2  1  0
  3  5  1  0
  3  2  1  0
  3  4  1  1
  5  7  1  0
  5  6  1  6
  7  8  2  0
  9 10  1  0
  9  7  1  0
 10 17  1  0
 11 12  1  0
 10 11  1  6
 12 13  2  0
 13 14  1  0
 15 14  1  0
 16 12  1  0
 16 15  2  0
 17 27  1  0
 17 18  2  0
 19 20  1  0
 20 22  1  0
 21 20  2  0
 23 22  1  0
 23 24  1  0
 24 25  1  0
 26 25  1  1
 26 28  1  0
 27 26  1  0
 28 29  2  0
 28 30  1  0
M  END
$$$$
