IHR.pdb
     RDKit          3D

 30 30  0  0  1  0  0  0  0  0999 V2000
   21.5163  -19.5403  -18.1638 C   0  0  0  0  0  0  0  0  0  0  0  0
   21.4596  -18.4481  -17.1266 C   0  0  0  0  0  0  0  0  0  0  0  0
   20.9070  -17.1531  -17.6512 C   0  0  2  0  0  0  0  0  0  0  0  0
   21.8344  -16.7052  -18.7635 C   0  0  0  0  0  0  0  0  0  0  0  0
   20.7888  -16.1486  -16.5613 C   0  0  2  0  0  0  0  0  0  0  0  0
   20.0163  -16.6657  -15.4343 N   0  0  0  0  0  0  0  0  0  0  0  0
   20.1738  -14.8820  -17.0318 C   0  0  0  0  0  0  0  0  0  0  0  0
   20.6299  -14.2004  -17.9882 O   0  0  0  0  0  0  0  0  0  0  0  0
   19.0131  -14.3856  -16.3947 N   0  0  0  0  0  0  0  0  0  0  0  0
   18.3477  -13.1339  -16.9570 C   0  0  1  0  0  0  0  0  0  0  0  0
   16.8979  -13.4618  -16.7870 C   0  0  0  0  0  0  0  0  0  0  0  0
   15.9027  -12.4236  -16.9639 C   0  0  0  0  0  0  0  0  0  0  0  0
   15.9752  -11.1193  -17.3608 C   0  0  0  0  0  0  0  0  0  0  0  0
   14.7224  -10.5796  -17.4498 N   0  0  0  0  0  0  0  0  0  0  0  0
   13.8910  -11.5652  -17.1055 C   0  0  0  0  0  0  0  0  0  0  0  0
   14.5695  -12.6595  -16.8162 N   0  0  0  0  0  0  0  0  0  0  0  0
   18.8386  -12.0441  -16.0639 C   0  0  0  0  0  0  0  0  0  0  0  0
   19.0743  -12.3347  -14.8290 O   0  0  0  0  0  0  0  0  0  0  0  0
   22.8378   -3.9797  -16.4549 N   0  0  0  0  0  0  0  0  0  0  0  0
   22.3158   -4.1417  -15.1458 C   0  0  0  0  0  0  0  0  0  0  0  0
   22.5172   -3.1969  -14.2636 N   0  0  0  0  0  0  0  0  0  0  0  0
   21.5821   -5.3118  -14.7895 N   0  0  0  0  0  0  0  0  0  0  0  0
   21.2593   -6.3065  -15.7779 C   0  0  0  0  0  0  0  0  0  0  0  0
   20.5531   -7.4701  -15.1141 C   0  0  0  0  0  0  0  0  0  0  0  0
   20.1764   -8.5456  -16.0666 C   0  0  0  0  0  0  0  0  0  0  0  0
   19.5592   -9.7318  -15.4106 C   0  0  2  0  0  0  0  0  0  0  0  0
   19.0898  -10.7135  -16.3837 N   0  0  0  0  0  0  0  0  0  0  0  0
   18.3552   -9.2951  -14.6537 C   0  0  0  0  0  0  0  0  0  0  0  0
   17.2490   -9.2233  -15.2009 O   0  0  0  0  0  0  0  0  0  0  0  0
   18.4269   -8.9479  -13.2901 O   0  0  0  0  0  0  0  0  0  0  0  0
  1  2  1  0
  3  5  1  0
  3  2  1  0
  3  4  1  6
  5  7  1  0
  5  6  1  1
  7  8  2  0
  9 10  1  0
  9  7  1  0
 10 17  1  0
 11 12  1  0
 10 11  1  1
 12 13  2  0
 13 14  1  0
 15 14  1  0
 16 12  1  0
 16 15  2  0
 17 27  1  0
 17 18  2  0
 19 20  1  0
 20 22  1  0
 21 20  2  0
 23 22  1  0
 23 24  1  0
 24 25  1  0
 26 25  1  6
 26 28  1  0
 27 26  1  0
 28 29  2  0
 28 30  1  0
M  END
$$$$
