IHR.pdb
     RDKit          3D

 30 30  0  0  1  0  0  0  0  0999 V2000
   20.3715  -30.4783   -9.8006 C   0  0  0  0  0  0  0  0  0  0  0  0
   20.4933  -29.0776  -10.3439 C   0  0  0  0  0  0  0  0  0  0  0  0
   19.3672  -28.6916  -11.2607 C   0  0  2  0  0  0  0  0  0  0  0  0
   19.3460  -29.7173  -12.3766 C   0  0  0  0  0  0  0  0  0  0  0  0
   19.5445  -27.3021  -11.7599 C   0  0  2  0  0  0  0  0  0  0  0  0
   20.7709  -27.1636  -12.5417 N   0  0  0  0  0  0  0  0  0  0  0  0
   19.5563  -26.3085  -10.6569 C   0  0  0  0  0  0  0  0  0  0  0  0
   20.5620  -25.6097  -10.3609 O   0  0  0  0  0  0  0  0  0  0  0  0
   18.3934  -26.1107   -9.8770 N   0  0  0  0  0  0  0  0  0  0  0  0
   18.3851  -24.9862   -8.8469 C   0  0  1  0  0  0  0  0  0  0  0  0
   17.4437  -24.0087   -9.4765 C   0  0  0  0  0  0  0  0  0  0  0  0
   17.9550  -23.0104  -10.3939 C   0  0  0  0  0  0  0  0  0  0  0  0
   19.1908  -22.7773  -10.9255 C   0  0  0  0  0  0  0  0  0  0  0  0
   19.1353  -21.7471  -11.8224 N   0  0  0  0  0  0  0  0  0  0  0  0
   17.8586  -21.3587  -11.8315 C   0  0  0  0  0  0  0  0  0  0  0  0
   17.1484  -22.0926  -10.9956 N   0  0  0  0  0  0  0  0  0  0  0  0
   17.8551  -25.6420   -7.6158 C   0  0  0  0  0  0  0  0  0  0  0  0
   16.7898  -26.3617   -7.7252 O   0  0  0  0  0  0  0  0  0  0  0  0
   13.3987  -21.7120   -2.4403 N   0  0  0  0  0  0  0  0  0  0  0  0
   13.2596  -22.4535   -3.6417 C   0  0  0  0  0  0  0  0  0  0  0  0
   12.3572  -22.0819   -4.5129 N   0  0  0  0  0  0  0  0  0  0  0  0
   14.0859  -23.5863   -3.9030 N   0  0  0  0  0  0  0  0  0  0  0  0
   15.1047  -23.9845   -2.9680 C   0  0  0  0  0  0  0  0  0  0  0  0
   15.8677  -25.1687   -3.5237 C   0  0  0  0  0  0  0  0  0  0  0  0
   16.8315  -24.7947   -4.5901 C   0  0  0  0  0  0  0  0  0  0  0  0
   17.5880  -25.9534   -5.1411 C   0  0  2  0  0  0  0  0  0  0  0  0
   18.3645  -25.5888   -6.3223 N   0  0  0  0  0  0  0  0  0  0  0  0
   16.6229  -26.9935   -5.5885 C   0  0  0  0  0  0  0  0  0  0  0  0
   15.9889  -26.8645   -6.6419 O   0  0  0  0  0  0  0  0  0  0  0  0
   16.3941  -28.1610   -4.8338 O   0  0  0  0  0  0  0  0  0  0  0  0
  1  2  1  0
  3  5  1  0
  3  2  1  0
  3  4  1  6
  5  7  1  0
  5  6  1  1
  7  8  2  0
  9 10  1  0
  9  7  1  0
 10 17  1  0
 11 12  1  0
 10 11  1  6
 12 13  2  0
 13 14  1  0
 15 14  1  0
 16 12  1  0
 16 15  2  0
 17 27  1  0
 17 18  2  0
 19 20  1  0
 20 22  1  0
 21 20  2  0
 23 22  1  0
 23 24  1  0
 24 25  1  0
 26 25  1  6
 26 28  1  0
 27 26  1  0
 28 29  2  0
 28 30  1  0
M  END
$$$$
