IHR.pdb
     RDKit          3D

 30 30  0  0  1  0  0  0  0  0999 V2000
   24.9727  -11.9593  -15.3412 C   0  0  0  0  0  0  0  0  0  0  0  0
   26.1275  -12.8704  -15.6702 C   0  0  0  0  0  0  0  0  0  0  0  0
   25.7013  -14.2497  -16.0865 C   0  0  2  0  0  0  0  0  0  0  0  0
   24.9121  -14.8275  -14.9284 C   0  0  0  0  0  0  0  0  0  0  0  0
   26.8800  -15.0800  -16.4504 C   0  0  2  0  0  0  0  0  0  0  0  0
   27.6815  -14.4477  -17.4955 N   0  0  0  0  0  0  0  0  0  0  0  0
   26.4897  -16.4418  -16.8942 C   0  0  0  0  0  0  0  0  0  0  0  0
   25.8044  -16.6673  -17.9270 O   0  0  0  0  0  0  0  0  0  0  0  0
   26.8921  -17.5686  -16.1403 N   0  0  0  0  0  0  0  0  0  0  0  0
   26.5089  -18.9579  -16.6388 C   0  0  1  0  0  0  0  0  0  0  0  0
   27.7807  -19.7159  -16.4238 C   0  0  0  0  0  0  0  0  0  0  0  0
   27.7623  -21.1647  -16.4353 C   0  0  0  0  0  0  0  0  0  0  0  0
   26.7934  -22.0834  -16.7206 C   0  0  0  0  0  0  0  0  0  0  0  0
   27.3088  -23.3485  -16.6695 N   0  0  0  0  0  0  0  0  0  0  0  0
   28.5956  -23.1902  -16.3528 C   0  0  0  0  0  0  0  0  0  0  0  0
   28.8804  -21.9095  -16.2113 N   0  0  0  0  0  0  0  0  0  0  0  0
   25.3943  -19.3610  -15.7323 C   0  0  0  0  0  0  0  0  0  0  0  0
   25.4940  -19.0610  -14.4814 O   0  0  0  0  0  0  0  0  0  0  0  0
   18.7578  -23.1218  -14.9242 N   0  0  0  0  0  0  0  0  0  0  0  0
   18.0345  -22.1199  -14.2274 C   0  0  0  0  0  0  0  0  0  0  0  0
   17.0831  -22.4830  -13.4062 N   0  0  0  0  0  0  0  0  0  0  0  0
   18.3336  -20.7378  -14.4130 N   0  0  0  0  0  0  0  0  0  0  0  0
   19.3386  -20.3232  -15.3557 C   0  0  0  0  0  0  0  0  0  0  0  0
   20.7098  -20.4607  -14.7280 C   0  0  0  0  0  0  0  0  0  0  0  0
   21.8116  -20.0460  -15.6337 C   0  0  0  0  0  0  0  0  0  0  0  0
   23.1685  -20.3184  -15.0832 C   0  0  2  0  0  0  0  0  0  0  0  0
   24.2207  -20.0351  -16.0546 N   0  0  0  0  0  0  0  0  0  0  0  0
   23.2808  -21.7676  -14.7664 C   0  0  0  0  0  0  0  0  0  0  0  0
   23.2622  -22.1682  -13.5969 O   0  0  0  0  0  0  0  0  0  0  0  0
   23.4119  -22.7366  -15.7807 O   0  0  0  0  0  0  0  0  0  0  0  0
  1  2  1  0
  3  5  1  0
  3  2  1  0
  3  4  1  1
  5  7  1  0
  5  6  1  6
  7  8  2  0
  9 10  1  0
  9  7  1  0
 10 17  1  0
 11 12  1  0
 10 11  1  1
 12 13  2  0
 13 14  1  0
 15 14  1  0
 16 12  1  0
 16 15  2  0
 17 27  1  0
 17 18  2  0
 19 20  1  0
 20 22  1  0
 21 20  2  0
 23 22  1  0
 23 24  1  0
 24 25  1  0
 26 25  1  6
 26 28  1  0
 27 26  1  0
 28 29  2  0
 28 30  1  0
M  END
$$$$
