IHR.pdb
     RDKit          3D

 30 30  0  0  1  0  0  0  0  0999 V2000
   21.2808  -23.8673  -20.1330 C   0  0  0  0  0  0  0  0  0  0  0  0
   20.7192  -22.7588  -19.2799 C   0  0  0  0  0  0  0  0  0  0  0  0
   21.1908  -22.8038  -17.8540 C   0  0  2  0  0  0  0  0  0  0  0  0
   20.7691  -24.1505  -17.3004 C   0  0  0  0  0  0  0  0  0  0  0  0
   20.6362  -21.6635  -17.0775 C   0  0  2  0  0  0  0  0  0  0  0  0
   21.0378  -20.3792  -17.6464 N   0  0  0  0  0  0  0  0  0  0  0  0
   21.0396  -21.7100  -15.6496 C   0  0  0  0  0  0  0  0  0  0  0  0
   22.1883  -21.3930  -15.2405 O   0  0  0  0  0  0  0  0  0  0  0  0
   20.1093  -22.1277  -14.6700 N   0  0  0  0  0  0  0  0  0  0  0  0
   20.4799  -21.9802  -13.1980 C   0  0  1  0  0  0  0  0  0  0  0  0
   20.5976  -20.4948  -13.0649 C   0  0  0  0  0  0  0  0  0  0  0  0
   20.7918  -19.9057  -11.7554 C   0  0  0  0  0  0  0  0  0  0  0  0
   21.0746  -20.4323  -10.5278 C   0  0  0  0  0  0  0  0  0  0  0  0
   21.2472  -19.4333   -9.6109 N   0  0  0  0  0  0  0  0  0  0  0  0
   21.0685  -18.2988  -10.2907 C   0  0  0  0  0  0  0  0  0  0  0  0
   20.7996  -18.5584  -11.5563 N   0  0  0  0  0  0  0  0  0  0  0  0
   19.3113  -22.5693  -12.4812 C   0  0  0  0  0  0  0  0  0  0  0  0
   18.1351  -22.1322  -12.7813 O   0  0  0  0  0  0  0  0  0  0  0  0
   18.3604  -26.7516   -4.7570 N   0  0  0  0  0  0  0  0  0  0  0  0
   17.6816  -27.3742   -5.8360 C   0  0  0  0  0  0  0  0  0  0  0  0
   17.3487  -28.6349   -5.7301 N   0  0  0  0  0  0  0  0  0  0  0  0
   17.3633  -26.6448   -7.0196 N   0  0  0  0  0  0  0  0  0  0  0  0
   17.7050  -25.2521   -7.1391 C   0  0  0  0  0  0  0  0  0  0  0  0
   17.3228  -24.7529   -8.5168 C   0  0  0  0  0  0  0  0  0  0  0  0
   18.4965  -24.4466   -9.3738 C   0  0  0  0  0  0  0  0  0  0  0  0
   18.1309  -23.8935  -10.7076 C   0  0  2  0  0  0  0  0  0  0  0  0
   19.3081  -23.5590  -11.5033 N   0  0  0  0  0  0  0  0  0  0  0  0
   17.3882  -22.6187  -10.5163 C   0  0  0  0  0  0  0  0  0  0  0  0
   17.9808  -21.5344  -10.4799 O   0  0  0  0  0  0  0  0  0  0  0  0
   15.9871  -22.5961  -10.3701 O   0  0  0  0  0  0  0  0  0  0  0  0
  1  2  1  0
  3  5  1  0
  3  2  1  0
  3  4  1  1
  5  7  1  0
  5  6  1  6
  7  8  2  0
  9 10  1  0
  9  7  1  0
 10 17  1  0
 11 12  1  0
 10 11  1  1
 12 13  2  0
 13 14  1  0
 15 14  1  0
 16 12  1  0
 16 15  2  0
 17 27  1  0
 17 18  2  0
 19 20  1  0
 20 22  1  0
 21 20  2  0
 23 22  1  0
 23 24  1  0
 24 25  1  0
 26 25  1  1
 26 28  1  0
 27 26  1  0
 28 29  2  0
 28 30  1  0
M  END
$$$$
