IHR.pdb
     RDKit          3D

 30 30  0  0  1  0  0  0  0  0999 V2000
   13.4616   -5.5751   -6.1820 C   0  0  0  0  0  0  0  0  0  0  0  0
   13.5306   -5.2829   -7.6591 C   0  0  0  0  0  0  0  0  0  0  0  0
   14.1623   -6.3873   -8.4584 C   0  0  2  0  0  0  0  0  0  0  0  0
   15.5884   -6.5204   -7.9620 C   0  0  0  0  0  0  0  0  0  0  0  0
   14.0849   -6.0969   -9.9146 C   0  0  2  0  0  0  0  0  0  0  0  0
   12.7008   -5.9770  -10.3666 N   0  0  0  0  0  0  0  0  0  0  0  0
   14.7744   -7.1294  -10.7286 C   0  0  0  0  0  0  0  0  0  0  0  0
   14.2430   -8.2223  -11.0611 O   0  0  0  0  0  0  0  0  0  0  0  0
   16.0988   -6.9064  -11.1710 N   0  0  0  0  0  0  0  0  0  0  0  0
   16.7366   -7.9211  -12.1139 C   0  0  1  0  0  0  0  0  0  0  0  0
   15.8247   -7.8462  -13.2976 C   0  0  0  0  0  0  0  0  0  0  0  0
   16.1475   -8.5891  -14.4991 C   0  0  0  0  0  0  0  0  0  0  0  0
   17.1225   -9.4956  -14.8022 C   0  0  0  0  0  0  0  0  0  0  0  0
   16.9433   -9.9805  -16.0676 N   0  0  0  0  0  0  0  0  0  0  0  0
   15.8534   -9.3633  -16.5284 C   0  0  0  0  0  0  0  0  0  0  0  0
   15.3711   -8.5398  -15.6170 N   0  0  0  0  0  0  0  0  0  0  0  0
   18.1009   -7.3671  -12.3550 C   0  0  0  0  0  0  0  0  0  0  0  0
   18.2580   -6.0892  -12.2705 O   0  0  0  0  0  0  0  0  0  0  0  0
   24.2631  -12.3588  -15.4106 N   0  0  0  0  0  0  0  0  0  0  0  0
   23.2195  -11.8824  -16.2452 C   0  0  0  0  0  0  0  0  0  0  0  0
   23.0178  -12.4641  -17.3995 N   0  0  0  0  0  0  0  0  0  0  0  0
   22.3991  -10.7884  -15.8398 N   0  0  0  0  0  0  0  0  0  0  0  0
   22.5552  -10.1952  -14.5381 C   0  0  0  0  0  0  0  0  0  0  0  0
   21.5402   -9.0853  -14.3619 C   0  0  0  0  0  0  0  0  0  0  0  0
   21.6608   -8.3846  -13.0579 C   0  0  0  0  0  0  0  0  0  0  0  0
   20.5682   -7.4041  -12.8062 C   0  0  2  0  0  0  0  0  0  0  0  0
   19.2693   -8.0554  -12.6660 N   0  0  0  0  0  0  0  0  0  0  0  0
   20.4496   -6.4988  -13.9808 C   0  0  0  0  0  0  0  0  0  0  0  0
   19.5418   -6.6423  -14.8077 O   0  0  0  0  0  0  0  0  0  0  0  0
   21.3618   -5.4472  -14.1968 O   0  0  0  0  0  0  0  0  0  0  0  0
  1  2  1  0
  3  5  1  0
  3  2  1  0
  3  4  1  1
  5  7  1  0
  5  6  1  6
  7  8  2  0
  9 10  1  0
  9  7  1  0
 10 17  1  0
 11 12  1  0
 10 11  1  6
 12 13  2  0
 13 14  1  0
 15 14  1  0
 16 12  1  0
 16 15  2  0
 17 27  1  0
 17 18  2  0
 19 20  1  0
 20 22  1  0
 21 20  2  0
 23 22  1  0
 23 24  1  0
 24 25  1  0
 26 25  1  6
 26 28  1  0
 27 26  1  0
 28 29  2  0
 28 30  1  0
M  END
$$$$
