IHR.pdb
     RDKit          3D

 30 30  0  0  1  0  0  0  0  0999 V2000
   34.9100  -34.0909  -21.3308 C   0  0  0  0  0  0  0  0  0  0  0  0
   33.6485  -33.3109  -21.5994 C   0  0  0  0  0  0  0  0  0  0  0  0
   33.8360  -31.8225  -21.5146 C   0  0  2  0  0  0  0  0  0  0  0  0
   34.2972  -31.5237  -20.1019 C   0  0  0  0  0  0  0  0  0  0  0  0
   32.5809  -31.1102  -21.8727 C   0  0  2  0  0  0  0  0  0  0  0  0
   32.2031  -31.3517  -23.2632 N   0  0  0  0  0  0  0  0  0  0  0  0
   32.6830  -29.6470  -21.6439 C   0  0  0  0  0  0  0  0  0  0  0  0
   32.8500  -28.8082  -22.5689 O   0  0  0  0  0  0  0  0  0  0  0  0
   32.5920  -29.1335  -20.3294 N   0  0  0  0  0  0  0  0  0  0  0  0
   32.6586  -27.6235  -20.1269 C   0  0  1  0  0  0  0  0  0  0  0  0
   31.4463  -27.1660  -20.8748 C   0  0  0  0  0  0  0  0  0  0  0  0
   30.9767  -25.8047  -20.7144 C   0  0  0  0  0  0  0  0  0  0  0  0
   31.6124  -24.6201  -20.4761 C   0  0  0  0  0  0  0  0  0  0  0  0
   30.7165  -23.5878  -20.4965 N   0  0  0  0  0  0  0  0  0  0  0  0
   29.5350  -24.1542  -20.7498 C   0  0  0  0  0  0  0  0  0  0  0  0
   29.6696  -25.4603  -20.8815 N   0  0  0  0  0  0  0  0  0  0  0  0
   32.5624  -27.4633  -18.6466 C   0  0  0  0  0  0  0  0  0  0  0  0
   32.0197  -28.4180  -17.9693 O   0  0  0  0  0  0  0  0  0  0  0  0
   35.6602  -22.1492  -12.0182 N   0  0  0  0  0  0  0  0  0  0  0  0
   35.0320  -23.2848  -11.4454 C   0  0  0  0  0  0  0  0  0  0  0  0
   35.1001  -23.4590  -10.1506 N   0  0  0  0  0  0  0  0  0  0  0  0
   34.3354  -24.2255  -12.2604 N   0  0  0  0  0  0  0  0  0  0  0  0
   34.5893  -24.3029  -13.6747 C   0  0  0  0  0  0  0  0  0  0  0  0
   33.6467  -25.3067  -14.3047 C   0  0  0  0  0  0  0  0  0  0  0  0
   33.8016  -25.4091  -15.7783 C   0  0  0  0  0  0  0  0  0  0  0  0
   32.8447  -26.3580  -16.4125 C   0  0  2  0  0  0  0  0  0  0  0  0
   32.9917  -26.3958  -17.8643 N   0  0  0  0  0  0  0  0  0  0  0  0
   31.4560  -25.8923  -16.1518 C   0  0  0  0  0  0  0  0  0  0  0  0
   30.9368  -25.0128  -16.8485 O   0  0  0  0  0  0  0  0  0  0  0  0
   30.6809  -26.4319  -15.1063 O   0  0  0  0  0  0  0  0  0  0  0  0
  1  2  1  0
  3  5  1  0
  3  2  1  0
  3  4  1  1
  5  7  1  0
  5  6  1  6
  7  8  2  0
  9 10  1  0
  9  7  1  0
 10 17  1  0
 11 12  1  0
 10 11  1  6
 12 13  2  0
 13 14  1  0
 15 14  1  0
 16 12  1  0
 16 15  2  0
 17 27  1  0
 17 18  2  0
 19 20  1  0
 20 22  1  0
 21 20  2  0
 23 22  1  0
 23 24  1  0
 24 25  1  0
 26 25  1  1
 26 28  1  0
 27 26  1  0
 28 29  2  0
 28 30  1  0
M  END
$$$$
