IHR.pdb
     RDKit          3D

 30 30  0  0  1  0  0  0  0  0999 V2000
   28.8872  -15.8874  -18.5091 C   0  0  0  0  0  0  0  0  0  0  0  0
   28.1986  -17.2161  -18.3300 C   0  0  0  0  0  0  0  0  0  0  0  0
   27.0614  -17.1730  -17.3488 C   0  0  2  0  0  0  0  0  0  0  0  0
   26.8369  -18.5979  -16.8828 C   0  0  0  0  0  0  0  0  0  0  0  0
   25.8505  -16.5730  -17.9689 C   0  0  2  0  0  0  0  0  0  0  0  0
   26.0604  -15.1679  -18.3097 N   0  0  0  0  0  0  0  0  0  0  0  0
   24.6577  -16.6877  -17.0925 C   0  0  0  0  0  0  0  0  0  0  0  0
   24.4647  -15.9610  -16.0816 O   0  0  0  0  0  0  0  0  0  0  0  0
   23.6656  -17.6537  -17.3791 N   0  0  0  0  0  0  0  0  0  0  0  0
   22.4437  -17.7402  -16.4709 C   0  0  1  0  0  0  0  0  0  0  0  0
   21.3347  -17.8531  -17.4687 C   0  0  0  0  0  0  0  0  0  0  0  0
   20.0135  -17.3636  -17.1303 C   0  0  0  0  0  0  0  0  0  0  0  0
   19.5001  -16.7527  -16.0224 C   0  0  0  0  0  0  0  0  0  0  0  0
   18.1953  -16.4042  -16.2340 N   0  0  0  0  0  0  0  0  0  0  0  0
   17.9222  -16.8066  -17.4768 C   0  0  0  0  0  0  0  0  0  0  0  0
   18.9825  -17.3739  -18.0202 N   0  0  0  0  0  0  0  0  0  0  0  0
   22.6832  -18.9810  -15.6775 C   0  0  0  0  0  0  0  0  0  0  0  0
   23.1863  -20.0007  -16.2873 O   0  0  0  0  0  0  0  0  0  0  0  0
   27.5084  -20.9805   -9.1494 N   0  0  0  0  0  0  0  0  0  0  0  0
   27.6058  -21.0858  -10.5607 C   0  0  0  0  0  0  0  0  0  0  0  0
   28.7883  -21.0366  -11.1181 N   0  0  0  0  0  0  0  0  0  0  0  0
   26.4389  -21.2433  -11.3657 N   0  0  0  0  0  0  0  0  0  0  0  0
   25.1345  -21.3185  -10.7628 C   0  0  0  0  0  0  0  0  0  0  0  0
   24.0890  -21.5174  -11.8400 C   0  0  0  0  0  0  0  0  0  0  0  0
   23.8249  -20.2891  -12.6322 C   0  0  0  0  0  0  0  0  0  0  0  0
   22.7514  -20.4576  -13.6508 C   0  0  2  0  0  0  0  0  0  0  0  0
   22.4356  -19.2028  -14.3265 N   0  0  0  0  0  0  0  0  0  0  0  0
   21.4996  -20.8841  -12.9694 C   0  0  0  0  0  0  0  0  0  0  0  0
   20.7304  -20.0547  -12.4708 O   0  0  0  0  0  0  0  0  0  0  0  0
   21.1423  -22.2430  -12.8656 O   0  0  0  0  0  0  0  0  0  0  0  0
  1  2  1  0
  3  5  1  0
  3  2  1  0
  3  4  1  6
  5  7  1  0
  5  6  1  1
  7  8  2  0
  9 10  1  0
  9  7  1  0
 10 17  1  0
 11 12  1  0
 10 11  1  6
 12 13  2  0
 13 14  1  0
 15 14  1  0
 16 12  1  0
 16 15  2  0
 17 27  1  0
 17 18  2  0
 19 20  1  0
 20 22  1  0
 21 20  2  0
 23 22  1  0
 23 24  1  0
 24 25  1  0
 26 25  1  1
 26 28  1  0
 27 26  1  0
 28 29  2  0
 28 30  1  0
M  END
$$$$
