IHR.pdb
     RDKit          3D

 30 30  0  0  1  0  0  0  0  0999 V2000
   27.8545  -14.2064  -16.5652 C   0  0  0  0  0  0  0  0  0  0  0  0
   26.5734  -14.8626  -16.1178 C   0  0  0  0  0  0  0  0  0  0  0  0
   26.4336  -16.2832  -16.5868 C   0  0  2  0  0  0  0  0  0  0  0  0
   25.5854  -16.2435  -17.8425 C   0  0  0  0  0  0  0  0  0  0  0  0
   25.8438  -17.1362  -15.5211 C   0  0  2  0  0  0  0  0  0  0  0  0
   26.6941  -17.1787  -14.3338 N   0  0  0  0  0  0  0  0  0  0  0  0
   25.5925  -18.5225  -15.9889 C   0  0  0  0  0  0  0  0  0  0  0  0
   24.8047  -18.8071  -16.9299 O   0  0  0  0  0  0  0  0  0  0  0  0
   26.2565  -19.6051  -15.3669 N   0  0  0  0  0  0  0  0  0  0  0  0
   25.8938  -21.0255  -15.7870 C   0  0  1  0  0  0  0  0  0  0  0  0
   27.2427  -21.6663  -15.8762 C   0  0  0  0  0  0  0  0  0  0  0  0
   27.3453  -23.1069  -15.9942 C   0  0  0  0  0  0  0  0  0  0  0  0
   26.4176  -24.1031  -16.0989 C   0  0  0  0  0  0  0  0  0  0  0  0
   27.0348  -25.3101  -16.2752 N   0  0  0  0  0  0  0  0  0  0  0  0
   28.3414  -25.0385  -16.2779 C   0  0  0  0  0  0  0  0  0  0  0  0
   28.5428  -23.7447  -16.1137 N   0  0  0  0  0  0  0  0  0  0  0  0
   25.0529  -21.5213  -14.6585 C   0  0  0  0  0  0  0  0  0  0  0  0
   25.3645  -21.1484  -13.4633 O   0  0  0  0  0  0  0  0  0  0  0  0
   17.2879  -19.8543  -13.6851 N   0  0  0  0  0  0  0  0  0  0  0  0
   17.5624  -20.7059  -14.7859 C   0  0  0  0  0  0  0  0  0  0  0  0
   16.6891  -20.7855  -15.7567 N   0  0  0  0  0  0  0  0  0  0  0  0
   18.7682  -21.4657  -14.8412 N   0  0  0  0  0  0  0  0  0  0  0  0
   19.7374  -21.3849  -13.7807 C   0  0  0  0  0  0  0  0  0  0  0  0
   20.9488  -22.2211  -14.1362 C   0  0  0  0  0  0  0  0  0  0  0  0
   22.0654  -22.0738  -13.1680 C   0  0  0  0  0  0  0  0  0  0  0  0
   23.2706  -22.8734  -13.5238 C   0  0  2  0  0  0  0  0  0  0  0  0
   23.9405  -22.3551  -14.7127 N   0  0  0  0  0  0  0  0  0  0  0  0
   22.8499  -24.2601  -13.8605 C   0  0  0  0  0  0  0  0  0  0  0  0
   22.7776  -24.6372  -15.0356 O   0  0  0  0  0  0  0  0  0  0  0  0
   22.5189  -25.1943  -12.8592 O   0  0  0  0  0  0  0  0  0  0  0  0
  1  2  1  0
  3  5  1  0
  3  2  1  0
  3  4  1  6
  5  7  1  0
  5  6  1  1
  7  8  2  0
  9 10  1  0
  9  7  1  0
 10 17  1  0
 11 12  1  0
 10 11  1  1
 12 13  2  0
 13 14  1  0
 15 14  1  0
 16 12  1  0
 16 15  2  0
 17 27  1  0
 17 18  2  0
 19 20  1  0
 20 22  1  0
 21 20  2  0
 23 22  1  0
 23 24  1  0
 24 25  1  0
 26 25  1  6
 26 28  1  0
 27 26  1  0
 28 29  2  0
 28 30  1  0
M  END
$$$$
