IHR.pdb
     RDKit          3D

 30 30  0  0  1  0  0  0  0  0999 V2000
   20.3180  -11.1140  -17.0467 C   0  0  0  0  0  0  0  0  0  0  0  0
   21.2713  -10.1648  -16.3670 C   0  0  0  0  0  0  0  0  0  0  0  0
   20.7964   -9.7041  -15.0179 C   0  0  2  0  0  0  0  0  0  0  0  0
   19.4144   -9.1158  -15.2227 C   0  0  0  0  0  0  0  0  0  0  0  0
   21.7529   -8.7328  -14.4240 C   0  0  2  0  0  0  0  0  0  0  0  0
   23.0833   -9.3155  -14.2665 N   0  0  0  0  0  0  0  0  0  0  0  0
   21.2877   -8.2212  -13.1104 C   0  0  0  0  0  0  0  0  0  0  0  0
   21.2587   -8.9199  -12.0624 O   0  0  0  0  0  0  0  0  0  0  0  0
   20.8467   -6.8827  -12.9939 N   0  0  0  0  0  0  0  0  0  0  0  0
   20.2489   -6.4213  -11.6690 C   0  0  1  0  0  0  0  0  0  0  0  0
   20.5489   -4.9560  -11.6979 C   0  0  0  0  0  0  0  0  0  0  0  0
   19.8562   -4.0645  -10.7894 C   0  0  0  0  0  0  0  0  0  0  0  0
   18.9647   -4.2726   -9.7765 C   0  0  0  0  0  0  0  0  0  0  0  0
   18.6667   -3.0915   -9.1561 N   0  0  0  0  0  0  0  0  0  0  0  0
   19.3841   -2.1675   -9.7984 C   0  0  0  0  0  0  0  0  0  0  0  0
   20.0914   -2.7233  -10.7640 N   0  0  0  0  0  0  0  0  0  0  0  0
   18.8003   -6.7533  -11.8030 C   0  0  0  0  0  0  0  0  0  0  0  0
   18.2521   -6.6100  -12.9622 O   0  0  0  0  0  0  0  0  0  0  0  0
   12.3427  -11.7380   -8.0654 N   0  0  0  0  0  0  0  0  0  0  0  0
   11.7195  -10.8123   -8.9412 C   0  0  0  0  0  0  0  0  0  0  0  0
   10.4246  -10.8798   -9.1150 N   0  0  0  0  0  0  0  0  0  0  0  0
   12.4846   -9.8211   -9.6242 N   0  0  0  0  0  0  0  0  0  0  0  0
   13.9225   -9.8368   -9.5716 C   0  0  0  0  0  0  0  0  0  0  0  0
   14.4717   -8.6745  -10.3719 C   0  0  0  0  0  0  0  0  0  0  0  0
   15.9473   -8.5397  -10.2694 C   0  0  0  0  0  0  0  0  0  0  0  0
   16.4955   -7.3951  -11.0491 C   0  0  2  0  0  0  0  0  0  0  0  0
   17.9263   -7.2139  -10.8234 N   0  0  0  0  0  0  0  0  0  0  0  0
   15.8443   -6.1392  -10.5888 C   0  0  0  0  0  0  0  0  0  0  0  0
   16.2865   -5.5087   -9.6218 O   0  0  0  0  0  0  0  0  0  0  0  0
   14.7038   -5.6205  -11.2332 O   0  0  0  0  0  0  0  0  0  0  0  0
  1  2  1  0
  3  5  1  0
  3  2  1  0
  3  4  1  6
  5  7  1  0
  5  6  1  1
  7  8  2  0
  9 10  1  0
  9  7  1  0
 10 17  1  0
 11 12  1  0
 10 11  1  6
 12 13  2  0
 13 14  1  0
 15 14  1  0
 16 12  1  0
 16 15  2  0
 17 27  1  0
 17 18  2  0
 19 20  1  0
 20 22  1  0
 21 20  2  0
 23 22  1  0
 23 24  1  0
 24 25  1  0
 26 25  1  1
 26 28  1  0
 27 26  1  0
 28 29  2  0
 28 30  1  0
M  END
$$$$
