IHR.pdb
     RDKit          3D

 30 30  0  0  1  0  0  0  0  0999 V2000
   28.7724  -19.9105   -4.9006 C   0  0  0  0  0  0  0  0  0  0  0  0
   27.4048  -20.1372   -5.4924 C   0  0  0  0  0  0  0  0  0  0  0  0
   27.3591  -19.9485   -6.9824 C   0  0  2  0  0  0  0  0  0  0  0  0
   27.8656  -18.5465   -7.2574 C   0  0  0  0  0  0  0  0  0  0  0  0
   25.9846  -20.1758   -7.5021 C   0  0  2  0  0  0  0  0  0  0  0  0
   25.5021  -21.5165   -7.1794 N   0  0  0  0  0  0  0  0  0  0  0  0
   25.8999  -19.9690   -8.9698 C   0  0  0  0  0  0  0  0  0  0  0  0
   26.1269  -18.8640   -9.5309 O   0  0  0  0  0  0  0  0  0  0  0  0
   25.5484  -21.0489   -9.8123 N   0  0  0  0  0  0  0  0  0  0  0  0
   25.5016  -20.8172  -11.3189 C   0  0  1  0  0  0  0  0  0  0  0  0
   26.2342  -22.0171  -11.8305 C   0  0  0  0  0  0  0  0  0  0  0  0
   26.2218  -22.3134  -13.2488 C   0  0  0  0  0  0  0  0  0  0  0  0
   25.6806  -21.6793  -14.3300 C   0  0  0  0  0  0  0  0  0  0  0  0
   26.0277  -22.3264  -15.4830 N   0  0  0  0  0  0  0  0  0  0  0  0
   26.7833  -23.3552  -15.0936 C   0  0  0  0  0  0  0  0  0  0  0  0
   26.9085  -23.3629  -13.7800 N   0  0  0  0  0  0  0  0  0  0  0  0
   24.0419  -20.8121  -11.6281 C   0  0  0  0  0  0  0  0  0  0  0  0
   23.2668  -21.5403  -10.8975 O   0  0  0  0  0  0  0  0  0  0  0  0
   20.6614  -16.4147  -17.9739 N   0  0  0  0  0  0  0  0  0  0  0  0
   20.6590  -15.8993  -16.6522 C   0  0  0  0  0  0  0  0  0  0  0  0
   20.1326  -14.7218  -16.4339 N   0  0  0  0  0  0  0  0  0  0  0  0
   21.2187  -16.6463  -15.5737 N   0  0  0  0  0  0  0  0  0  0  0  0
   21.8784  -17.9024  -15.8138 C   0  0  0  0  0  0  0  0  0  0  0  0
   22.4547  -18.4285  -14.5160 C   0  0  0  0  0  0  0  0  0  0  0  0
   21.4271  -19.0025  -13.6103 C   0  0  0  0  0  0  0  0  0  0  0  0
   21.9241  -20.1465  -12.7961 C   0  0  2  0  0  0  0  0  0  0  0  0
   23.3732  -20.1079  -12.6244 N   0  0  0  0  0  0  0  0  0  0  0  0
   21.6287  -21.4160  -13.5133 C   0  0  0  0  0  0  0  0  0  0  0  0
   22.5261  -22.0562  -14.0729 O   0  0  0  0  0  0  0  0  0  0  0  0
   20.3216  -21.9370  -13.5830 O   0  0  0  0  0  0  0  0  0  0  0  0
  1  2  1  0
  3  5  1  0
  3  2  1  0
  3  4  1  1
  5  7  1  0
  5  6  1  6
  7  8  2  0
  9 10  1  0
  9  7  1  0
 10 17  1  0
 11 12  1  0
 10 11  1  6
 12 13  2  0
 13 14  1  0
 15 14  1  0
 16 12  1  0
 16 15  2  0
 17 27  1  0
 17 18  2  0
 19 20  1  0
 20 22  1  0
 21 20  2  0
 23 22  1  0
 23 24  1  0
 24 25  1  0
 26 25  1  6
 26 28  1  0
 27 26  1  0
 28 29  2  0
 28 30  1  0
M  END
$$$$
