IHR.pdb
     RDKit          3D

 30 30  0  0  1  0  0  0  0  0999 V2000
   29.1063  -21.1785  -17.3398 C   0  0  0  0  0  0  0  0  0  0  0  0
   27.9086  -21.9038  -16.7818 C   0  0  0  0  0  0  0  0  0  0  0  0
   27.0030  -21.0244  -15.9667 C   0  0  2  0  0  0  0  0  0  0  0  0
   27.7999  -20.5882  -14.7532 C   0  0  0  0  0  0  0  0  0  0  0  0
   25.7526  -21.7434  -15.6056 C   0  0  2  0  0  0  0  0  0  0  0  0
   25.1546  -22.3992  -16.7662 N   0  0  0  0  0  0  0  0  0  0  0  0
   24.7485  -20.8430  -14.9852 C   0  0  0  0  0  0  0  0  0  0  0  0
   24.8403  -20.4051  -13.8074 O   0  0  0  0  0  0  0  0  0  0  0  0
   23.6164  -20.4354  -15.7280 N   0  0  0  0  0  0  0  0  0  0  0  0
   22.5541  -19.5868  -15.0374 C   0  0  1  0  0  0  0  0  0  0  0  0
   22.2066  -18.6063  -16.1126 C   0  0  0  0  0  0  0  0  0  0  0  0
   21.0177  -17.7886  -15.9800 C   0  0  0  0  0  0  0  0  0  0  0  0
   20.0681  -17.6736  -15.0058 C   0  0  0  0  0  0  0  0  0  0  0  0
   19.1817  -16.6819  -15.3213 N   0  0  0  0  0  0  0  0  0  0  0  0
   19.6010  -16.1965  -16.4916 C   0  0  0  0  0  0  0  0  0  0  0  0
   20.6822  -16.8368  -16.8945 N   0  0  0  0  0  0  0  0  0  0  0  0
   21.4711  -20.5649  -14.7262 C   0  0  0  0  0  0  0  0  0  0  0  0
   21.3058  -21.5599  -15.5309 O   0  0  0  0  0  0  0  0  0  0  0  0
   17.5405  -26.2602  -11.6289 N   0  0  0  0  0  0  0  0  0  0  0  0
   18.8727  -26.2026  -11.1446 C   0  0  0  0  0  0  0  0  0  0  0  0
   19.6172  -27.2761  -11.2134 N   0  0  0  0  0  0  0  0  0  0  0  0
   19.3992  -24.9983  -10.5908 N   0  0  0  0  0  0  0  0  0  0  0  0
   18.5882  -23.8128  -10.5043 C   0  0  0  0  0  0  0  0  0  0  0  0
   18.5012  -23.1576  -11.8668 C   0  0  0  0  0  0  0  0  0  0  0  0
   19.5690  -22.1521  -12.1010 C   0  0  0  0  0  0  0  0  0  0  0  0
   19.5445  -21.5664  -13.4702 C   0  0  2  0  0  0  0  0  0  0  0  0
   20.5848  -20.5589  -13.6538 N   0  0  0  0  0  0  0  0  0  0  0  0
   18.2498  -20.8622  -13.6729 C   0  0  0  0  0  0  0  0  0  0  0  0
   18.1095  -19.6783  -13.3456 O   0  0  0  0  0  0  0  0  0  0  0  0
   17.1376  -21.5125  -14.2430 O   0  0  0  0  0  0  0  0  0  0  0  0
  1  2  1  0
  3  5  1  0
  3  2  1  0
  3  4  1  1
  5  7  1  0
  5  6  1  6
  7  8  2  0
  9 10  1  0
  9  7  1  0
 10 17  1  0
 11 12  1  0
 10 11  1  6
 12 13  2  0
 13 14  1  0
 15 14  1  0
 16 12  1  0
 16 15  2  0
 17 27  1  0
 17 18  2  0
 19 20  1  0
 20 22  1  0
 21 20  2  0
 23 22  1  0
 23 24  1  0
 24 25  1  0
 26 25  1  1
 26 28  1  0
 27 26  1  0
 28 29  2  0
 28 30  1  0
M  END
$$$$
