WCD.pdb
     RDKit          3D

 29 30  0  0  1  0  0  0  0  0999 V2000
   28.9928  -21.4501  -10.6790 N   0  0  0  0  0  0  0  0  0  0  0  0
   27.6475  -21.3116  -10.1811 C   0  0  1  0  0  0  0  0  0  0  0  0
   27.4472  -20.2360   -9.1688 C   0  0  0  0  0  0  0  0  0  0  0  0
   28.5168  -20.2709   -8.1171 C   0  0  0  0  0  0  0  0  0  0  0  0
   29.8524  -20.5560   -8.2552 C   0  0  0  0  0  0  0  0  0  0  0  0
   30.4717  -20.4477   -7.0440 N   0  0  0  0  0  0  0  0  0  0  0  0
   29.5485  -20.0975   -6.1345 C   0  0  0  0  0  0  0  0  0  0  0  0
   29.6455  -19.8692   -4.7578 C   0  0  0  0  0  0  0  0  0  0  0  0
   28.5457  -19.5335   -4.0367 C   0  0  0  0  0  0  0  0  0  0  0  0
   27.3313  -19.4142   -4.6444 C   0  0  0  0  0  0  0  0  0  0  0  0
   27.2292  -19.6394   -6.0146 C   0  0  0  0  0  0  0  0  0  0  0  0
   28.3308  -19.9801   -6.7642 C   0  0  0  0  0  0  0  0  0  0  0  0
   26.7061  -21.1963  -11.3287 C   0  0  0  0  0  0  0  0  0  0  0  0
   26.9847  -20.3700  -12.2531 O   0  0  0  0  0  0  0  0  0  0  0  0
   25.5167  -21.9249  -11.4881 N   0  0  0  0  0  0  0  0  0  0  0  0
   24.7471  -21.8747  -12.7163 C   0  0  1  0  0  0  0  0  0  0  0  0
   24.5333  -23.1866  -13.3765 C   0  0  0  0  0  0  0  0  0  0  0  0
   23.6392  -23.0528  -14.9441 S   0  0  0  0  0  0  0  0  0  0  0  0
   23.4807  -21.1268  -12.4408 C   0  0  0  0  0  0  0  0  0  0  0  0
   23.0432  -21.0785  -11.2670 O   0  0  0  0  0  0  0  0  0  0  0  0
   22.7279  -20.4542  -13.4319 N   0  0  0  0  0  0  0  0  0  0  0  0
   21.4612  -19.7788  -13.0978 C   0  0  1  0  0  0  0  0  0  0  0  0
   21.4891  -18.4203  -13.7642 C   0  0  0  0  0  0  0  0  0  0  0  0
   20.3081  -17.6096  -13.5769 C   0  0  0  0  0  0  0  0  0  0  0  0
   19.3632  -17.9509  -12.8525 O   0  0  0  0  0  0  0  0  0  0  0  0
   20.3413  -20.5764  -13.6395 C   0  0  0  0  0  0  0  0  0  0  0  0
   20.4283  -21.1250  -14.7902 O   0  0  0  0  0  0  0  0  0  0  0  0
   20.2163  -16.3728  -14.2449 O   0  0  0  0  0  0  0  0  0  0  0  0
   19.1574  -20.7799  -12.9609 O   0  0  0  0  0  0  0  0  0  0  0  0
  2 13  1  0
  2  1  1  6
  3  2  1  0
  4 12  1  0
  4  3  1  0
  5  4  2  0
  6  5  1  0
  6  7  1  0
  7 12  2  0
  8  7  1  0
  8  9  2  0
  9 10  1  0
 10 11  2  0
 12 11  1  0
 13 14  2  0
 15 13  1  0
 15 16  1  0
 16 17  1  1
 18 17  1  0
 19 21  1  0
 19 16  1  0
 20 19  2  0
 22 23  1  6
 22 21  1  0
 23 24  1  0
 24 25  2  0
 24 28  1  0
 26 22  1  0
 26 29  1  0
 27 26  2  0
M  END
$$$$
