WCD.pdb
     RDKit          3D

 29 30  0  0  1  0  0  0  0  0999 V2000
   19.5053  -23.3526  -14.4957 N   0  0  0  0  0  0  0  0  0  0  0  0
   19.9965  -24.2473  -13.4782 C   0  0  1  0  0  0  0  0  0  0  0  0
   21.4482  -24.5751  -13.5604 C   0  0  0  0  0  0  0  0  0  0  0  0
   21.7054  -25.6650  -14.5593 C   0  0  0  0  0  0  0  0  0  0  0  0
   21.9300  -25.5612  -15.9094 C   0  0  0  0  0  0  0  0  0  0  0  0
   22.1453  -26.8021  -16.4347 N   0  0  0  0  0  0  0  0  0  0  0  0
   22.0606  -27.6966  -15.4373 C   0  0  0  0  0  0  0  0  0  0  0  0
   22.1861  -29.0899  -15.4305 C   0  0  0  0  0  0  0  0  0  0  0  0
   22.0413  -29.7881  -14.2756 C   0  0  0  0  0  0  0  0  0  0  0  0
   21.7716  -29.1411  -13.1064 C   0  0  0  0  0  0  0  0  0  0  0  0
   21.6466  -27.7545  -13.1074 C   0  0  0  0  0  0  0  0  0  0  0  0
   21.7898  -27.0274  -14.2661 C   0  0  0  0  0  0  0  0  0  0  0  0
   19.6036  -23.7329  -12.1374 C   0  0  0  0  0  0  0  0  0  0  0  0
   20.0692  -22.6106  -11.7650 O   0  0  0  0  0  0  0  0  0  0  0  0
   18.7547  -24.3830  -11.2278 N   0  0  0  0  0  0  0  0  0  0  0  0
   18.4547  -23.8211   -9.9248 C   0  0  1  0  0  0  0  0  0  0  0  0
   17.3765  -22.8013   -9.9148 C   0  0  0  0  0  0  0  0  0  0  0  0
   15.9873  -23.2293  -10.9925 S   0  0  0  0  0  0  0  0  0  0  0  0
   18.2212  -24.9523   -8.9736 C   0  0  0  0  0  0  0  0  0  0  0  0
   17.7134  -26.0153   -9.4020 O   0  0  0  0  0  0  0  0  0  0  0  0
   18.5424  -24.9066   -7.5966 N   0  0  0  0  0  0  0  0  0  0  0  0
   18.1937  -26.0203   -6.6965 C   0  0  1  0  0  0  0  0  0  0  0  0
   18.8303  -25.7277   -5.3550 C   0  0  0  0  0  0  0  0  0  0  0  0
   18.6889  -26.7639   -4.3584 C   0  0  0  0  0  0  0  0  0  0  0  0
   18.2096  -27.8786   -4.6072 O   0  0  0  0  0  0  0  0  0  0  0  0
   16.7241  -26.0696   -6.5502 C   0  0  0  0  0  0  0  0  0  0  0  0
   16.0348  -24.9940   -6.5264 O   0  0  0  0  0  0  0  0  0  0  0  0
   19.1113  -26.5050   -3.0398 O   0  0  0  0  0  0  0  0  0  0  0  0
   16.0127  -27.2460   -6.4331 O   0  0  0  0  0  0  0  0  0  0  0  0
  2 13  1  0
  2  1  1  6
  3  2  1  0
  4 12  1  0
  4  3  1  0
  5  4  2  0
  6  5  1  0
  6  7  1  0
  7 12  2  0
  8  7  1  0
  8  9  2  0
  9 10  1  0
 10 11  2  0
 12 11  1  0
 13 14  2  0
 15 13  1  0
 15 16  1  0
 16 17  1  6
 18 17  1  0
 19 21  1  0
 19 16  1  0
 20 19  2  0
 22 23  1  1
 22 21  1  0
 23 24  1  0
 24 25  2  0
 24 28  1  0
 26 22  1  0
 26 29  1  0
 27 26  2  0
M  END
$$$$
