WCD.pdb
     RDKit          3D

 29 30  0  0  1  0  0  0  0  0999 V2000
   41.1999  -10.3780   -9.3476 N   0  0  0  0  0  0  0  0  0  0  0  0
   41.2460   -9.0370   -8.8217 C   0  0  1  0  0  0  0  0  0  0  0  0
   41.2889   -8.9335   -7.3353 C   0  0  0  0  0  0  0  0  0  0  0  0
   39.9962   -9.3824   -6.7199 C   0  0  0  0  0  0  0  0  0  0  0  0
   39.7624  -10.4481   -5.8870 C   0  0  0  0  0  0  0  0  0  0  0  0
   38.4432  -10.4769   -5.5390 N   0  0  0  0  0  0  0  0  0  0  0  0
   37.8318   -9.4436   -6.1396 C   0  0  0  0  0  0  0  0  0  0  0  0
   36.4972   -9.0246   -6.1288 C   0  0  0  0  0  0  0  0  0  0  0  0
   36.1121   -7.9358   -6.8419 C   0  0  0  0  0  0  0  0  0  0  0  0
   37.0208   -7.2355   -7.5783 C   0  0  0  0  0  0  0  0  0  0  0  0
   38.3506   -7.6477   -7.5918 C   0  0  0  0  0  0  0  0  0  0  0  0
   38.7625   -8.7477   -6.8763 C   0  0  0  0  0  0  0  0  0  0  0  0
   42.3531   -8.2878   -9.4772 C   0  0  0  0  0  0  0  0  0  0  0  0
   43.3093   -8.9527   -9.9858 O   0  0  0  0  0  0  0  0  0  0  0  0
   42.4442   -6.8912   -9.5861 N   0  0  0  0  0  0  0  0  0  0  0  0
   43.5598   -6.2465  -10.2521 C   0  0  1  0  0  0  0  0  0  0  0  0
   43.1840   -5.1909  -11.2253 C   0  0  0  0  0  0  0  0  0  0  0  0
   44.6123   -4.3019  -11.8918 S   0  0  0  0  0  0  0  0  0  0  0  0
   44.5217   -5.7830   -9.2039 C   0  0  0  0  0  0  0  0  0  0  0  0
   44.0760   -5.2806   -8.1454 O   0  0  0  0  0  0  0  0  0  0  0  0
   45.9282   -5.8762   -9.3247 N   0  0  0  0  0  0  0  0  0  0  0  0
   46.8171   -5.4145   -8.2435 C   0  0  1  0  0  0  0  0  0  0  0  0
   48.0901   -6.2282   -8.3326 C   0  0  0  0  0  0  0  0  0  0  0  0
   47.9853   -7.6001   -7.8926 C   0  0  0  0  0  0  0  0  0  0  0  0
   46.9470   -8.0786   -7.4161 O   0  0  0  0  0  0  0  0  0  0  0  0
   47.1235   -3.9851   -8.4594 C   0  0  0  0  0  0  0  0  0  0  0  0
   47.8928   -3.6199   -9.4121 O   0  0  0  0  0  0  0  0  0  0  0  0
   49.1099   -8.4409   -8.0052 O   0  0  0  0  0  0  0  0  0  0  0  0
   46.6152   -2.9731   -7.6713 O   0  0  0  0  0  0  0  0  0  0  0  0
  2 13  1  0
  2  1  1  1
  3  2  1  0
  4 12  1  0
  4  3  1  0
  5  4  2  0
  6  5  1  0
  6  7  1  0
  7 12  2  0
  8  7  1  0
  8  9  2  0
  9 10  1  0
 10 11  2  0
 12 11  1  0
 13 14  2  0
 15 13  1  0
 15 16  1  0
 16 17  1  1
 18 17  1  0
 19 21  1  0
 19 16  1  0
 20 19  2  0
 22 23  1  6
 22 21  1  0
 23 24  1  0
 24 25  2  0
 24 28  1  0
 26 22  1  0
 26 29  1  0
 27 26  2  0
M  END
$$$$
