WCD.pdb
     RDKit          3D

 29 30  0  0  1  0  0  0  0  0999 V2000
   27.6166  -18.9310   -9.5619 N   0  0  0  0  0  0  0  0  0  0  0  0
   26.9779  -20.1837   -9.2460 C   0  0  1  0  0  0  0  0  0  0  0  0
   26.3291  -20.2514   -7.9058 C   0  0  0  0  0  0  0  0  0  0  0  0
   27.1426  -19.5335   -6.8693 C   0  0  0  0  0  0  0  0  0  0  0  0
   27.3154  -18.1834   -6.6923 C   0  0  0  0  0  0  0  0  0  0  0  0
   28.1159  -17.9620   -5.6095 N   0  0  0  0  0  0  0  0  0  0  0  0
   28.4566  -19.1535   -5.0934 C   0  0  0  0  0  0  0  0  0  0  0  0
   29.2615  -19.4928   -4.0007 C   0  0  0  0  0  0  0  0  0  0  0  0
   29.4719  -20.7945   -3.6790 C   0  0  0  0  0  0  0  0  0  0  0  0
   28.9017  -21.7891   -4.4164 C   0  0  0  0  0  0  0  0  0  0  0  0
   28.0989  -21.4570   -5.5044 C   0  0  0  0  0  0  0  0  0  0  0  0
   27.8721  -20.1447   -5.8477 C   0  0  0  0  0  0  0  0  0  0  0  0
   26.0487  -20.5555  -10.3483 C   0  0  0  0  0  0  0  0  0  0  0  0
   24.9058  -20.0008  -10.3829 O   0  0  0  0  0  0  0  0  0  0  0  0
   26.3189  -21.4796  -11.3699 N   0  0  0  0  0  0  0  0  0  0  0  0
   25.9593  -21.2207  -12.7509 C   0  0  1  0  0  0  0  0  0  0  0  0
   27.0719  -21.3535  -13.7241 C   0  0  0  0  0  0  0  0  0  0  0  0
   28.6020  -20.5684  -13.1613 S   0  0  0  0  0  0  0  0  0  0  0  0
   24.7653  -22.0584  -13.0849 C   0  0  0  0  0  0  0  0  0  0  0  0
   24.5148  -23.0699  -12.3881 O   0  0  0  0  0  0  0  0  0  0  0  0
   23.8791  -21.7820  -14.1525 N   0  0  0  0  0  0  0  0  0  0  0  0
   22.4457  -22.1112  -14.0563 C   0  0  1  0  0  0  0  0  0  0  0  0
   21.8769  -21.3033  -12.9099 C   0  0  0  0  0  0  0  0  0  0  0  0
   20.4607  -21.4655  -12.6750 C   0  0  0  0  0  0  0  0  0  0  0  0
   19.8658  -22.5374  -12.8519 O   0  0  0  0  0  0  0  0  0  0  0  0
   21.7836  -21.7198  -15.3181 C   0  0  0  0  0  0  0  0  0  0  0  0
   22.0864  -20.6236  -15.9006 O   0  0  0  0  0  0  0  0  0  0  0  0
   19.7125  -20.3602  -12.2249 O   0  0  0  0  0  0  0  0  0  0  0  0
   20.8201  -22.4879  -15.9389 O   0  0  0  0  0  0  0  0  0  0  0  0
  2 13  1  0
  2  1  1  6
  3  2  1  0
  4 12  1  0
  4  3  1  0
  5  4  2  0
  6  5  1  0
  6  7  1  0
  7 12  2  0
  8  7  1  0
  8  9  2  0
  9 10  1  0
 10 11  2  0
 12 11  1  0
 13 14  2  0
 15 13  1  0
 15 16  1  0
 16 17  1  6
 18 17  1  0
 19 21  1  0
 19 16  1  0
 20 19  2  0
 22 23  1  1
 22 21  1  0
 23 24  1  0
 24 25  2  0
 24 28  1  0
 26 22  1  0
 26 29  1  0
 27 26  2  0
M  END
$$$$
