WCD.pdb
     RDKit          3D

 29 30  0  0  1  0  0  0  0  0999 V2000
   26.5311  -20.8482  -16.6715 N   0  0  0  0  0  0  0  0  0  0  0  0
   26.6102  -20.0403  -15.4807 C   0  0  1  0  0  0  0  0  0  0  0  0
   25.9565  -18.7036  -15.5695 C   0  0  0  0  0  0  0  0  0  0  0  0
   26.5485  -17.8794  -16.6748 C   0  0  0  0  0  0  0  0  0  0  0  0
   25.9069  -17.1558  -17.6488 C   0  0  0  0  0  0  0  0  0  0  0  0
   26.8288  -16.5318  -18.4382 N   0  0  0  0  0  0  0  0  0  0  0  0
   28.0506  -16.8482  -17.9806 C   0  0  0  0  0  0  0  0  0  0  0  0
   29.3273  -16.4908  -18.4270 C   0  0  0  0  0  0  0  0  0  0  0  0
   30.4333  -16.9590  -17.7949 C   0  0  0  0  0  0  0  0  0  0  0  0
   30.3152  -17.7840  -16.7161 C   0  0  0  0  0  0  0  0  0  0  0  0
   29.0470  -18.1421  -16.2670 C   0  0  0  0  0  0  0  0  0  0  0  0
   27.9130  -17.6789  -16.8925 C   0  0  0  0  0  0  0  0  0  0  0  0
   26.1315  -20.8323  -14.3144 C   0  0  0  0  0  0  0  0  0  0  0  0
   25.3966  -21.8448  -14.5373 O   0  0  0  0  0  0  0  0  0  0  0  0
   26.4176  -20.5601  -12.9673 N   0  0  0  0  0  0  0  0  0  0  0  0
   25.5124  -20.9419  -11.9003 C   0  0  1  0  0  0  0  0  0  0  0  0
   25.9903  -20.6290  -10.5305 C   0  0  0  0  0  0  0  0  0  0  0  0
   24.7406  -20.9342   -9.2579 S   0  0  0  0  0  0  0  0  0  0  0  0
   24.1631  -20.3746  -12.2105 C   0  0  0  0  0  0  0  0  0  0  0  0
   24.0855  -19.2804  -12.8174 O   0  0  0  0  0  0  0  0  0  0  0  0
   22.9430  -21.0004  -11.8620 N   0  0  0  0  0  0  0  0  0  0  0  0
   21.6481  -20.3663  -12.1675 C   0  0  1  0  0  0  0  0  0  0  0  0
   21.4585  -20.4355  -13.6674 C   0  0  0  0  0  0  0  0  0  0  0  0
   20.2094  -19.9057  -14.1632 C   0  0  0  0  0  0  0  0  0  0  0  0
   20.0207  -19.6256  -15.3548 O   0  0  0  0  0  0  0  0  0  0  0  0
   20.5762  -21.1288  -11.4943 C   0  0  0  0  0  0  0  0  0  0  0  0
   20.8565  -22.1271  -10.7475 O   0  0  0  0  0  0  0  0  0  0  0  0
   19.1510  -19.6933  -13.2583 O   0  0  0  0  0  0  0  0  0  0  0  0
   19.2361  -20.8257  -11.6201 O   0  0  0  0  0  0  0  0  0  0  0  0
  2 13  1  0
  2  1  1  6
  3  2  1  0
  4 12  1  0
  4  3  1  0
  5  4  2  0
  6  5  1  0
  6  7  1  0
  7 12  2  0
  8  7  1  0
  8  9  2  0
  9 10  1  0
 10 11  2  0
 12 11  1  0
 13 14  2  0
 15 13  1  0
 15 16  1  0
 16 17  1  1
 18 17  1  0
 19 21  1  0
 19 16  1  0
 20 19  2  0
 22 23  1  6
 22 21  1  0
 23 24  1  0
 24 25  2  0
 24 28  1  0
 26 22  1  0
 26 29  1  0
 27 26  2  0
M  END
$$$$
