WCD.pdb
     RDKit          3D

 29 30  0  0  1  0  0  0  0  0999 V2000
   24.8969  -21.4599  -15.5167 N   0  0  0  0  0  0  0  0  0  0  0  0
   24.0481  -20.3849  -15.0685 C   0  0  1  0  0  0  0  0  0  0  0  0
   23.6280  -19.4187  -16.1229 C   0  0  0  0  0  0  0  0  0  0  0  0
   24.8152  -18.7748  -16.7767 C   0  0  0  0  0  0  0  0  0  0  0  0
   25.4845  -19.1544  -17.9133 C   0  0  0  0  0  0  0  0  0  0  0  0
   26.4921  -18.2701  -18.1687 N   0  0  0  0  0  0  0  0  0  0  0  0
   26.4746  -17.3311  -17.2094 C   0  0  0  0  0  0  0  0  0  0  0  0
   27.2889  -16.2146  -16.9922 C   0  0  0  0  0  0  0  0  0  0  0  0
   27.0780  -15.4068  -15.9221 C   0  0  0  0  0  0  0  0  0  0  0  0
   26.0695  -15.6725  -15.0442 C   0  0  0  0  0  0  0  0  0  0  0  0
   25.2554  -16.7819  -15.2561 C   0  0  0  0  0  0  0  0  0  0  0  0
   25.4513  -17.6134  -16.3340 C   0  0  0  0  0  0  0  0  0  0  0  0
   22.8917  -20.9490  -14.3193 C   0  0  0  0  0  0  0  0  0  0  0  0
   22.4557  -22.0928  -14.6605 O   0  0  0  0  0  0  0  0  0  0  0  0
   22.2234  -20.3246  -13.2543 N   0  0  0  0  0  0  0  0  0  0  0  0
   21.0601  -20.9208  -12.6259 C   0  0  1  0  0  0  0  0  0  0  0  0
   20.8402  -20.5270  -11.2120 C   0  0  0  0  0  0  0  0  0  0  0  0
   21.7376  -19.0258  -10.7475 S   0  0  0  0  0  0  0  0  0  0  0  0
   19.8777  -20.6750  -13.5093 C   0  0  0  0  0  0  0  0  0  0  0  0
   19.9160  -19.7297  -14.3317 O   0  0  0  0  0  0  0  0  0  0  0  0
   18.6959  -21.4523  -13.4831 N   0  0  0  0  0  0  0  0  0  0  0  0
   17.5680  -21.1527  -14.3832 C   0  0  1  0  0  0  0  0  0  0  0  0
   17.5098  -22.2612  -15.4121 C   0  0  0  0  0  0  0  0  0  0  0  0
   17.4134  -23.6009  -14.8805 C   0  0  0  0  0  0  0  0  0  0  0  0
   16.4121  -24.0198  -14.2838 O   0  0  0  0  0  0  0  0  0  0  0  0
   16.3199  -21.1416  -13.5921 C   0  0  0  0  0  0  0  0  0  0  0  0
   15.1927  -20.9305  -14.1555 O   0  0  0  0  0  0  0  0  0  0  0  0
   18.5028  -24.4793  -15.0418 O   0  0  0  0  0  0  0  0  0  0  0  0
   16.2842  -21.3527  -12.2290 O   0  0  0  0  0  0  0  0  0  0  0  0
  2 13  1  0
  2  1  1  6
  3  2  1  0
  4 12  1  0
  4  3  1  0
  5  4  2  0
  6  5  1  0
  6  7  1  0
  7 12  2  0
  8  7  1  0
  8  9  2  0
  9 10  1  0
 10 11  2  0
 12 11  1  0
 13 14  2  0
 15 13  1  0
 15 16  1  0
 16 17  1  1
 18 17  1  0
 19 21  1  0
 19 16  1  0
 20 19  2  0
 22 23  1  6
 22 21  1  0
 23 24  1  0
 24 25  2  0
 24 28  1  0
 26 22  1  0
 26 29  1  0
 27 26  2  0
M  END
$$$$
