WCD.pdb
     RDKit          3D

 29 30  0  0  1  0  0  0  0  0999 V2000
   27.6866  -17.8428  -16.9523 N   0  0  0  0  0  0  0  0  0  0  0  0
   27.0699  -19.1041  -17.2776 C   0  0  1  0  0  0  0  0  0  0  0  0
   27.4018  -19.6506  -18.6240 C   0  0  0  0  0  0  0  0  0  0  0  0
   27.1534  -18.6357  -19.7009 C   0  0  0  0  0  0  0  0  0  0  0  0
   28.0560  -18.0288  -20.5380 C   0  0  0  0  0  0  0  0  0  0  0  0
   27.3987  -17.1881  -21.3886 N   0  0  0  0  0  0  0  0  0  0  0  0
   26.0881  -17.2504  -21.1048 C   0  0  0  0  0  0  0  0  0  0  0  0
   24.9881  -16.5889  -21.6611 C   0  0  0  0  0  0  0  0  0  0  0  0
   23.7373  -16.8124  -21.1840 C   0  0  0  0  0  0  0  0  0  0  0  0
   23.5357  -17.6847  -20.1560 C   0  0  0  0  0  0  0  0  0  0  0  0
   24.6268  -18.3465  -19.5992 C   0  0  0  0  0  0  0  0  0  0  0  0
   25.9026  -18.1352  -20.0675 C   0  0  0  0  0  0  0  0  0  0  0  0
   27.3363  -20.0798  -16.1850 C   0  0  0  0  0  0  0  0  0  0  0  0
   27.1615  -21.3149  -16.4274 O   0  0  0  0  0  0  0  0  0  0  0  0
   27.7673  -19.7588  -14.8881 N   0  0  0  0  0  0  0  0  0  0  0  0
   27.6426  -20.6941  -13.7867 C   0  0  1  0  0  0  0  0  0  0  0  0
   28.8882  -20.9206  -13.0123 C   0  0  0  0  0  0  0  0  0  0  0  0
   29.6187  -19.3894  -12.3828 S   0  0  0  0  0  0  0  0  0  0  0  0
   26.4806  -20.2689  -12.9454 C   0  0  0  0  0  0  0  0  0  0  0  0
   25.9249  -19.1705  -13.1822 O   0  0  0  0  0  0  0  0  0  0  0  0
   25.9522  -21.0364  -11.8808 N   0  0  0  0  0  0  0  0  0  0  0  0
   24.7500  -20.5977  -11.1499 C   0  0  1  0  0  0  0  0  0  0  0  0
   23.6114  -20.5544  -12.1461 C   0  0  0  0  0  0  0  0  0  0  0  0
   22.3012  -20.3171  -11.5858 C   0  0  0  0  0  0  0  0  0  0  0  0
   22.0570  -19.3795  -10.8141 O   0  0  0  0  0  0  0  0  0  0  0  0
   24.4501  -21.5866  -10.0936 C   0  0  0  0  0  0  0  0  0  0  0  0
   23.4671  -21.4110   -9.2962 O   0  0  0  0  0  0  0  0  0  0  0  0
   21.2461  -21.1863  -11.9252 O   0  0  0  0  0  0  0  0  0  0  0  0
   25.1880  -22.7361   -9.8992 O   0  0  0  0  0  0  0  0  0  0  0  0
  2 13  1  0
  2  1  1  1
  3  2  1  0
  4 12  1  0
  4  3  1  0
  5  4  2  0
  6  5  1  0
  6  7  1  0
  7 12  2  0
  8  7  1  0
  8  9  2  0
  9 10  1  0
 10 11  2  0
 12 11  1  0
 13 14  2  0
 15 13  1  0
 15 16  1  0
 16 17  1  1
 18 17  1  0
 19 21  1  0
 19 16  1  0
 20 19  2  0
 22 23  1  6
 22 21  1  0
 23 24  1  0
 24 25  2  0
 24 28  1  0
 26 22  1  0
 26 29  1  0
 27 26  2  0
M  END
$$$$
