WCD.pdb
     RDKit          3D

 29 30  0  0  1  0  0  0  0  0999 V2000
   25.3425  -18.9560  -11.1105 N   0  0  0  0  0  0  0  0  0  0  0  0
   26.2717  -20.0370  -11.3229 C   0  0  1  0  0  0  0  0  0  0  0  0
   26.1470  -21.1832  -10.3781 C   0  0  0  0  0  0  0  0  0  0  0  0
   26.2332  -20.7259   -8.9516 C   0  0  0  0  0  0  0  0  0  0  0  0
   25.2186  -20.5116   -8.0524 C   0  0  0  0  0  0  0  0  0  0  0  0
   25.7430  -20.1249   -6.8534 N   0  0  0  0  0  0  0  0  0  0  0  0
   27.0794  -20.0893   -6.9759 C   0  0  0  0  0  0  0  0  0  0  0  0
   28.0837  -19.7498   -6.0632 C   0  0  0  0  0  0  0  0  0  0  0  0
   29.3889  -19.7770   -6.4347 C   0  0  0  0  0  0  0  0  0  0  0  0
   29.7389  -20.1357   -7.7024 C   0  0  0  0  0  0  0  0  0  0  0  0
   28.7434  -20.4754   -8.6146 C   0  0  0  0  0  0  0  0  0  0  0  0
   27.4149  -20.4550   -8.2591 C   0  0  0  0  0  0  0  0  0  0  0  0
   26.2141  -20.4644  -12.7479 C   0  0  0  0  0  0  0  0  0  0  0  0
   25.1638  -20.1989  -13.4122 O   0  0  0  0  0  0  0  0  0  0  0  0
   27.2271  -21.1477  -13.4390 N   0  0  0  0  0  0  0  0  0  0  0  0
   27.2081  -21.2884  -14.8824 C   0  0  1  0  0  0  0  0  0  0  0  0
   28.5381  -21.4853  -15.5108 C   0  0  0  0  0  0  0  0  0  0  0  0
   28.4340  -21.9661  -17.2523 S   0  0  0  0  0  0  0  0  0  0  0  0
   26.2145  -22.3509  -15.2326 C   0  0  0  0  0  0  0  0  0  0  0  0
   26.4453  -23.5368  -14.8985 O   0  0  0  0  0  0  0  0  0  0  0  0
   25.0062  -22.1057  -15.9266 N   0  0  0  0  0  0  0  0  0  0  0  0
   24.1176  -23.2131  -16.3220 C   0  0  1  0  0  0  0  0  0  0  0  0
   22.7631  -22.9427  -15.7033 C   0  0  0  0  0  0  0  0  0  0  0  0
   22.2462  -21.6071  -15.8932 C   0  0  0  0  0  0  0  0  0  0  0  0
   22.8749  -20.7178  -16.4829 O   0  0  0  0  0  0  0  0  0  0  0  0
   23.9992  -23.2234  -17.7949 C   0  0  0  0  0  0  0  0  0  0  0  0
   23.3479  -24.1476  -18.3902 O   0  0  0  0  0  0  0  0  0  0  0  0
   20.9701  -21.2908  -15.3876 O   0  0  0  0  0  0  0  0  0  0  0  0
   24.5664  -22.2638  -18.6080 O   0  0  0  0  0  0  0  0  0  0  0  0
  2 13  1  0
  2  1  1  1
  3  2  1  0
  4 12  1  0
  4  3  1  0
  5  4  2  0
  6  5  1  0
  6  7  1  0
  7 12  2  0
  8  7  1  0
  8  9  2  0
  9 10  1  0
 10 11  2  0
 12 11  1  0
 13 14  2  0
 15 13  1  0
 15 16  1  0
 16 17  1  1
 18 17  1  0
 19 21  1  0
 19 16  1  0
 20 19  2  0
 22 23  1  1
 22 21  1  0
 23 24  1  0
 24 25  2  0
 24 28  1  0
 26 22  1  0
 26 29  1  0
 27 26  2  0
M  END
$$$$
