WCD.pdb
     RDKit          3D

 29 30  0  0  1  0  0  0  0  0999 V2000
   27.5609  -20.7013  -15.5002 N   0  0  0  0  0  0  0  0  0  0  0  0
   26.5974  -19.7973  -14.9244 C   0  0  1  0  0  0  0  0  0  0  0  0
   25.7719  -19.0336  -15.9027 C   0  0  0  0  0  0  0  0  0  0  0  0
   26.6091  -18.0620  -16.6816 C   0  0  0  0  0  0  0  0  0  0  0  0
   27.0524  -18.1520  -17.9775 C   0  0  0  0  0  0  0  0  0  0  0  0
   27.7640  -17.0322  -18.2970 N   0  0  0  0  0  0  0  0  0  0  0  0
   27.7809  -16.2290  -17.2215 C   0  0  0  0  0  0  0  0  0  0  0  0
   28.3735  -14.9798  -17.0085 C   0  0  0  0  0  0  0  0  0  0  0  0
   28.2604  -14.3607  -15.8060 C   0  0  0  0  0  0  0  0  0  0  0  0
   27.5676  -14.9477  -14.7893 C   0  0  0  0  0  0  0  0  0  0  0  0
   26.9750  -16.1905  -14.9961 C   0  0  0  0  0  0  0  0  0  0  0  0
   27.0768  -16.8352  -16.2067 C   0  0  0  0  0  0  0  0  0  0  0  0
   25.7681  -20.5293  -13.9279 C   0  0  0  0  0  0  0  0  0  0  0  0
   25.3006  -21.6650  -14.2544 O   0  0  0  0  0  0  0  0  0  0  0  0
   25.4454  -20.0746  -12.6397 N   0  0  0  0  0  0  0  0  0  0  0  0
   24.5889  -20.8366  -11.7512 C   0  0  1  0  0  0  0  0  0  0  0  0
   24.9162  -20.7161  -10.3086 C   0  0  0  0  0  0  0  0  0  0  0  0
   26.6239  -21.1792   -9.9291 S   0  0  0  0  0  0  0  0  0  0  0  0
   23.1673  -20.5009  -12.0752 C   0  0  0  0  0  0  0  0  0  0  0  0
   22.8396  -19.2986  -12.2111 O   0  0  0  0  0  0  0  0  0  0  0  0
   22.1460  -21.4651  -12.2451 N   0  0  0  0  0  0  0  0  0  0  0  0
   20.7677  -21.0632  -12.5780 C   0  0  1  0  0  0  0  0  0  0  0  0
   20.5881  -21.2705  -14.0664 C   0  0  0  0  0  0  0  0  0  0  0  0
   19.2497  -21.0610  -14.5682 C   0  0  0  0  0  0  0  0  0  0  0  0
   18.3196  -20.6527  -13.8595 O   0  0  0  0  0  0  0  0  0  0  0  0
   19.8287  -21.9312  -11.8374 C   0  0  0  0  0  0  0  0  0  0  0  0
   18.8118  -21.4348  -11.2440 O   0  0  0  0  0  0  0  0  0  0  0  0
   18.9789  -21.3314  -15.9238 O   0  0  0  0  0  0  0  0  0  0  0  0
   19.9785  -23.2991  -11.7375 O   0  0  0  0  0  0  0  0  0  0  0  0
  2 13  1  0
  2  1  1  6
  3  2  1  0
  4 12  1  0
  4  3  1  0
  5  4  2  0
  6  5  1  0
  6  7  1  0
  7 12  2  0
  8  7  1  0
  8  9  2  0
  9 10  1  0
 10 11  2  0
 12 11  1  0
 13 14  2  0
 15 13  1  0
 15 16  1  0
 16 17  1  1
 18 17  1  0
 19 21  1  0
 19 16  1  0
 20 19  2  0
 22 23  1  6
 22 21  1  0
 23 24  1  0
 24 25  2  0
 24 28  1  0
 26 22  1  0
 26 29  1  0
 27 26  2  0
M  END
$$$$
