WCD.pdb
     RDKit          3D

 29 30  0  0  1  0  0  0  0  0999 V2000
   24.8839  -19.3405   -8.8807 N   0  0  0  0  0  0  0  0  0  0  0  0
   26.0259  -20.1137   -9.2992 C   0  0  1  0  0  0  0  0  0  0  0  0
   26.3527  -21.2883   -8.4417 C   0  0  0  0  0  0  0  0  0  0  0  0
   26.5285  -20.8842   -7.0073 C   0  0  0  0  0  0  0  0  0  0  0  0
   25.5851  -20.7994   -6.0140 C   0  0  0  0  0  0  0  0  0  0  0  0
   26.1810  -20.4167   -4.8475 N   0  0  0  0  0  0  0  0  0  0  0  0
   27.4927  -20.2556   -5.0838 C   0  0  0  0  0  0  0  0  0  0  0  0
   28.5428  -19.8647   -4.2463 C   0  0  0  0  0  0  0  0  0  0  0  0
   29.8062  -19.7587   -4.7307 C   0  0  0  0  0  0  0  0  0  0  0  0
   30.0692  -20.0319   -6.0401 C   0  0  0  0  0  0  0  0  0  0  0  0
   29.0279  -20.4222   -6.8778 C   0  0  0  0  0  0  0  0  0  0  0  0
   27.7404  -20.5364   -6.4077 C   0  0  0  0  0  0  0  0  0  0  0  0
   25.8743  -20.4805  -10.7342 C   0  0  0  0  0  0  0  0  0  0  0  0
   24.7198  -20.3914  -11.2579 O   0  0  0  0  0  0  0  0  0  0  0  0
   26.9036  -20.9264  -11.5781 N   0  0  0  0  0  0  0  0  0  0  0  0
   26.8933  -20.6612  -13.0040 C   0  0  1  0  0  0  0  0  0  0  0  0
   28.1847  -20.8990  -13.6955 C   0  0  0  0  0  0  0  0  0  0  0  0
   29.5607  -19.9820  -12.9603 S   0  0  0  0  0  0  0  0  0  0  0  0
   25.7429  -21.4046  -13.6065 C   0  0  0  0  0  0  0  0  0  0  0  0
   25.7309  -22.6570  -13.5547 O   0  0  0  0  0  0  0  0  0  0  0  0
   24.6435  -20.7803  -14.2415 N   0  0  0  0  0  0  0  0  0  0  0  0
   23.4861  -21.5660  -14.7055 C   0  0  1  0  0  0  0  0  0  0  0  0
   22.3124  -21.1971  -13.8241 C   0  0  0  0  0  0  0  0  0  0  0  0
   21.0846  -21.9103  -14.0899 C   0  0  0  0  0  0  0  0  0  0  0  0
   20.9854  -22.7797  -14.9665 O   0  0  0  0  0  0  0  0  0  0  0  0
   23.1929  -21.1965  -16.1059 C   0  0  0  0  0  0  0  0  0  0  0  0
   23.2595  -19.9785  -16.4864 O   0  0  0  0  0  0  0  0  0  0  0  0
   19.9414  -21.6105  -13.3235 O   0  0  0  0  0  0  0  0  0  0  0  0
   22.8374  -22.1134  -17.0736 O   0  0  0  0  0  0  0  0  0  0  0  0
  2 13  1  0
  2  1  1  1
  3  2  1  0
  4 12  1  0
  4  3  1  0
  5  4  2  0
  6  5  1  0
  6  7  1  0
  7 12  2  0
  8  7  1  0
  8  9  2  0
  9 10  1  0
 10 11  2  0
 12 11  1  0
 13 14  2  0
 15 13  1  0
 15 16  1  0
 16 17  1  6
 18 17  1  0
 19 21  1  0
 19 16  1  0
 20 19  2  0
 22 23  1  1
 22 21  1  0
 23 24  1  0
 24 25  2  0
 24 28  1  0
 26 22  1  0
 26 29  1  0
 27 26  2  0
M  END
$$$$
