WCD.pdb
     RDKit          3D

 29 30  0  0  1  0  0  0  0  0999 V2000
   24.4259  -19.6529  -15.5413 N   0  0  0  0  0  0  0  0  0  0  0  0
   24.7149  -20.2327  -14.2539 C   0  0  1  0  0  0  0  0  0  0  0  0
   25.9857  -19.7811  -13.6192 C   0  0  0  0  0  0  0  0  0  0  0  0
   27.1292  -19.8355  -14.5892 C   0  0  0  0  0  0  0  0  0  0  0  0
   27.9434  -20.8950  -14.9032 C   0  0  0  0  0  0  0  0  0  0  0  0
   28.8412  -20.5156  -15.8583 N   0  0  0  0  0  0  0  0  0  0  0  0
   28.6107  -19.2275  -16.1577 C   0  0  0  0  0  0  0  0  0  0  0  0
   29.2439  -18.3574  -17.0515 C   0  0  0  0  0  0  0  0  0  0  0  0
   28.8302  -17.0700  -17.1683 C   0  0  0  0  0  0  0  0  0  0  0  0
   27.7918  -16.6072  -16.4161 C   0  0  0  0  0  0  0  0  0  0  0  0
   27.1574  -17.4691  -15.5256 C   0  0  0  0  0  0  0  0  0  0  0  0
   27.5601  -18.7774  -15.3917 C   0  0  0  0  0  0  0  0  0  0  0  0
   23.5378  -20.0587  -13.3590 C   0  0  0  0  0  0  0  0  0  0  0  0
   23.3618  -18.9252  -12.8121 O   0  0  0  0  0  0  0  0  0  0  0  0
   22.5883  -21.0468  -13.0542 N   0  0  0  0  0  0  0  0  0  0  0  0
   21.4308  -20.7666  -12.2265 C   0  0  1  0  0  0  0  0  0  0  0  0
   20.6969  -19.5244  -12.5744 C   0  0  0  0  0  0  0  0  0  0  0  0
   19.2513  -19.2386  -11.5241 S   0  0  0  0  0  0  0  0  0  0  0  0
   20.5679  -21.9888  -12.2053 C   0  0  0  0  0  0  0  0  0  0  0  0
   20.2806  -22.5522  -13.2877 O   0  0  0  0  0  0  0  0  0  0  0  0
   20.0446  -22.5670  -11.0249 N   0  0  0  0  0  0  0  0  0  0  0  0
   19.1200  -23.7132  -11.0842 C   0  0  1  0  0  0  0  0  0  0  0  0
   18.9583  -24.2314   -9.6714 C   0  0  0  0  0  0  0  0  0  0  0  0
   18.4298  -25.5708   -9.5552 C   0  0  0  0  0  0  0  0  0  0  0  0
   18.1043  -26.2552  -10.5348 O   0  0  0  0  0  0  0  0  0  0  0  0
   17.8151  -23.2440  -11.5950 C   0  0  0  0  0  0  0  0  0  0  0  0
   17.3600  -22.0966  -11.2645 O   0  0  0  0  0  0  0  0  0  0  0  0
   18.2724  -26.1336   -8.2735 O   0  0  0  0  0  0  0  0  0  0  0  0
   17.0193  -23.9892  -12.4405 O   0  0  0  0  0  0  0  0  0  0  0  0
  2 13  1  0
  2  1  1  6
  3  2  1  0
  4 12  1  0
  4  3  1  0
  5  4  2  0
  6  5  1  0
  6  7  1  0
  7 12  2  0
  8  7  1  0
  8  9  2  0
  9 10  1  0
 10 11  2  0
 12 11  1  0
 13 14  2  0
 15 13  1  0
 15 16  1  0
 16 17  1  6
 18 17  1  0
 19 21  1  0
 19 16  1  0
 20 19  2  0
 22 23  1  1
 22 21  1  0
 23 24  1  0
 24 25  2  0
 24 28  1  0
 26 22  1  0
 26 29  1  0
 27 26  2  0
M  END
$$$$
