WCD.pdb
     RDKit          3D

 29 30  0  0  1  0  0  0  0  0999 V2000
   26.6236  -19.4571  -11.7236 N   0  0  0  0  0  0  0  0  0  0  0  0
   25.9923  -20.7526  -11.7096 C   0  0  1  0  0  0  0  0  0  0  0  0
   25.6163  -21.2669  -10.3621 C   0  0  0  0  0  0  0  0  0  0  0  0
   26.6714  -20.9499   -9.3435 C   0  0  0  0  0  0  0  0  0  0  0  0
   26.5482  -20.2687   -8.1583 C   0  0  0  0  0  0  0  0  0  0  0  0
   27.7559  -20.2306   -7.5240 N   0  0  0  0  0  0  0  0  0  0  0  0
   28.6484  -20.8786   -8.2893 C   0  0  0  0  0  0  0  0  0  0  0  0
   30.0154  -21.1193   -8.1148 C   0  0  0  0  0  0  0  0  0  0  0  0
   30.7197  -21.7996   -9.0547 C   0  0  0  0  0  0  0  0  0  0  0  0
   30.1045  -22.2578  -10.1816 C   0  0  0  0  0  0  0  0  0  0  0  0
   28.7440  -22.0218  -10.3598 C   0  0  0  0  0  0  0  0  0  0  0  0
   28.0113  -21.3350   -9.4201 C   0  0  0  0  0  0  0  0  0  0  0  0
   24.8461  -20.7532  -12.6599 C   0  0  0  0  0  0  0  0  0  0  0  0
   24.1448  -19.6977  -12.7553 O   0  0  0  0  0  0  0  0  0  0  0  0
   24.4578  -21.8295  -13.4732 N   0  0  0  0  0  0  0  0  0  0  0  0
   23.4165  -21.6960  -14.4739 C   0  0  1  0  0  0  0  0  0  0  0  0
   23.8768  -21.8246  -15.8789 C   0  0  0  0  0  0  0  0  0  0  0  0
   25.0831  -20.5595  -16.3472 S   0  0  0  0  0  0  0  0  0  0  0  0
   22.3061  -22.6332  -14.1168 C   0  0  0  0  0  0  0  0  0  0  0  0
   22.5798  -23.7133  -13.5423 O   0  0  0  0  0  0  0  0  0  0  0  0
   20.9404  -22.3799  -14.3852 N   0  0  0  0  0  0  0  0  0  0  0  0
   19.8905  -23.3093  -13.9314 C   0  0  1  0  0  0  0  0  0  0  0  0
   18.6098  -22.5123  -13.8083 C   0  0  0  0  0  0  0  0  0  0  0  0
   18.4586  -21.7599  -12.5844 C   0  0  0  0  0  0  0  0  0  0  0  0
   17.5787  -20.9033  -12.4231 O   0  0  0  0  0  0  0  0  0  0  0  0
   19.7224  -24.3681  -14.9485 C   0  0  0  0  0  0  0  0  0  0  0  0
   20.1562  -24.2032  -16.1390 O   0  0  0  0  0  0  0  0  0  0  0  0
   19.3480  -22.0032  -11.5195 O   0  0  0  0  0  0  0  0  0  0  0  0
   19.1039  -25.5745  -14.6922 O   0  0  0  0  0  0  0  0  0  0  0  0
  2 13  1  0
  2  1  1  1
  3  2  1  0
  4 12  1  0
  4  3  1  0
  5  4  2  0
  6  5  1  0
  6  7  1  0
  7 12  2  0
  8  7  1  0
  8  9  2  0
  9 10  1  0
 10 11  2  0
 12 11  1  0
 13 14  2  0
 15 13  1  0
 15 16  1  0
 16 17  1  6
 18 17  1  0
 19 21  1  0
 19 16  1  0
 20 19  2  0
 22 23  1  6
 22 21  1  0
 23 24  1  0
 24 25  2  0
 24 28  1  0
 26 22  1  0
 26 29  1  0
 27 26  2  0
M  END
$$$$
