WCD.pdb
     RDKit          3D

 29 30  0  0  1  0  0  0  0  0999 V2000
   22.4534  -20.5425  -15.1609 N   0  0  0  0  0  0  0  0  0  0  0  0
   22.7033  -21.4614  -14.0791 C   0  0  1  0  0  0  0  0  0  0  0  0
   24.0447  -21.3474  -13.4393 C   0  0  0  0  0  0  0  0  0  0  0  0
   25.1253  -21.8649  -14.3426 C   0  0  0  0  0  0  0  0  0  0  0  0
   26.0768  -21.1620  -15.0388 C   0  0  0  0  0  0  0  0  0  0  0  0
   26.8820  -22.0297  -15.7179 N   0  0  0  0  0  0  0  0  0  0  0  0
   26.4564  -23.2774  -15.4643 C   0  0  0  0  0  0  0  0  0  0  0  0
   26.9150  -24.5207  -15.9124 C   0  0  0  0  0  0  0  0  0  0  0  0
   26.2979  -25.6640  -15.5198 C   0  0  0  0  0  0  0  0  0  0  0  0
   25.2227  -25.6164  -14.6832 C   0  0  0  0  0  0  0  0  0  0  0  0
   24.7626  -24.3817  -14.2334 C   0  0  0  0  0  0  0  0  0  0  0  0
   25.3732  -23.2109  -14.6185 C   0  0  0  0  0  0  0  0  0  0  0  0
   21.5921  -21.3751  -13.0919 C   0  0  0  0  0  0  0  0  0  0  0  0
   21.4336  -20.2839  -12.4602 O   0  0  0  0  0  0  0  0  0  0  0  0
   20.6882  -22.4045  -12.7851 N   0  0  0  0  0  0  0  0  0  0  0  0
   19.6000  -22.2127  -11.8456 C   0  0  1  0  0  0  0  0  0  0  0  0
   18.2855  -21.9063  -12.4626 C   0  0  0  0  0  0  0  0  0  0  0  0
   17.5241  -23.3431  -13.2567 S   0  0  0  0  0  0  0  0  0  0  0  0
   19.5709  -23.3894  -10.9219 C   0  0  0  0  0  0  0  0  0  0  0  0
   20.0315  -24.4867  -11.3161 O   0  0  0  0  0  0  0  0  0  0  0  0
   19.0516  -23.3495   -9.6065 N   0  0  0  0  0  0  0  0  0  0  0  0
   18.9293  -24.5764   -8.7990 C   0  0  1  0  0  0  0  0  0  0  0  0
   18.5797  -24.1514   -7.3892 C   0  0  0  0  0  0  0  0  0  0  0  0
   18.3533  -25.2270   -6.4517 C   0  0  0  0  0  0  0  0  0  0  0  0
   17.4192  -26.0329   -6.5620 O   0  0  0  0  0  0  0  0  0  0  0  0
   17.8380  -25.4032   -9.3551 C   0  0  0  0  0  0  0  0  0  0  0  0
   17.8240  -26.6687   -9.1787 O   0  0  0  0  0  0  0  0  0  0  0  0
   19.2284  -25.3745   -5.3578 O   0  0  0  0  0  0  0  0  0  0  0  0
   16.7873  -24.8827  -10.0822 O   0  0  0  0  0  0  0  0  0  0  0  0
  2 13  1  0
  2  1  1  6
  3  2  1  0
  4 12  1  0
  4  3  1  0
  5  4  2  0
  6  5  1  0
  6  7  1  0
  7 12  2  0
  8  7  1  0
  8  9  2  0
  9 10  1  0
 10 11  2  0
 12 11  1  0
 13 14  2  0
 15 13  1  0
 15 16  1  0
 16 17  1  6
 18 17  1  0
 19 21  1  0
 19 16  1  0
 20 19  2  0
 22 23  1  1
 22 21  1  0
 23 24  1  0
 24 25  2  0
 24 28  1  0
 26 22  1  0
 26 29  1  0
 27 26  2  0
M  END
$$$$
