IGT.pdb
     RDKit          3D

 20 19  0  0  1  0  0  0  0  0999 V2000
    6.3114  -11.5876   28.3251 C   0  0  0  0  0  0  0  0  0  0  0  0
    6.1117  -12.9478   27.6332 C   0  0  0  0  0  0  0  0  0  0  0  0
    7.0855  -12.9693   26.4895 C   0  0  2  0  0  0  0  0  0  0  0  0
    6.9253  -11.7725   25.5916 C   0  0  0  0  0  0  0  0  0  0  0  0
    6.9567  -14.2239   25.6989 C   0  0  2  0  0  0  0  0  0  0  0  0
    7.2640  -15.3463   26.5771 N   0  0  0  0  0  0  0  0  0  0  0  0
    7.7110  -14.2802   24.4463 C   0  0  0  0  0  0  0  0  0  0  0  0
    7.4319  -13.5041   23.5007 O   0  0  0  0  0  0  0  0  0  0  0  0
    8.7860  -15.1838   24.1972 N   0  0  0  0  0  0  0  0  0  0  0  0
    9.5013  -15.1885   22.9421 C   0  0  0  0  0  0  0  0  0  0  0  0
    8.6175  -15.4684   21.7901 C   0  0  0  0  0  0  0  0  0  0  0  0
    7.6444  -16.2726   21.8621 O   0  0  0  0  0  0  0  0  0  0  0  0
    7.7869  -12.4921   19.1183 C   0  0  0  0  0  0  0  0  0  0  0  0
    8.1645  -13.7967   18.4416 C   0  0  1  0  0  0  0  0  0  0  0  0
    9.4475  -13.6576   17.9446 O   0  0  0  0  0  0  0  0  0  0  0  0
    8.0461  -14.9717   19.3846 C   0  0  2  0  0  0  0  0  0  0  0  0
    8.8515  -14.8261   20.5595 N   0  0  0  0  0  0  0  0  0  0  0  0
    8.5302  -16.1695   18.6405 C   0  0  0  0  0  0  0  0  0  0  0  0
    9.5333  -16.8301   19.0188 O   0  0  0  0  0  0  0  0  0  0  0  0
    7.8958  -16.6159   17.4904 O   0  0  0  0  0  0  0  0  0  0  0  0
  2  3  1  0
  2  1  1  0
  3  4  1  6
  5  3  1  0
  5  6  1  1
  7  8  2  0
  7  5  1  0
  9  7  1  0
 10  9  1  0
 10 11  1  0
 11 17  1  0
 12 11  2  0
 14 15  1  0
 14 13  1  1
 16 14  1  0
 16 18  1  0
 16 17  1  1
 18 19  2  0
 18 20  1  0
M  END
$$$$
