IGT.pdb
     RDKit          3D

 20 19  0  0  1  0  0  0  0  0999 V2000
    7.1036  -12.8379   18.7247 C   0  0  0  0  0  0  0  0  0  0  0  0
    8.3648  -13.5200   19.2839 C   0  0  0  0  0  0  0  0  0  0  0  0
    7.9757  -14.0499   20.6348 C   0  0  2  0  0  0  0  0  0  0  0  0
    7.5262  -12.9527   21.5613 C   0  0  0  0  0  0  0  0  0  0  0  0
    9.0921  -14.8167   21.2522 C   0  0  2  0  0  0  0  0  0  0  0  0
    9.4219  -15.9278   20.3679 N   0  0  0  0  0  0  0  0  0  0  0  0
    8.8918  -15.2518   22.6348 C   0  0  0  0  0  0  0  0  0  0  0  0
    8.7066  -14.4093   23.5460 O   0  0  0  0  0  0  0  0  0  0  0  0
    8.8891  -16.6150   23.0543 N   0  0  0  0  0  0  0  0  0  0  0  0
    8.7124  -16.9850   24.4395 C   0  0  0  0  0  0  0  0  0  0  0  0
    9.8410  -16.5474   25.2887 C   0  0  0  0  0  0  0  0  0  0  0  0
   11.0077  -16.3785   24.8314 O   0  0  0  0  0  0  0  0  0  0  0  0
    9.9364  -13.3982   27.5770 C   0  0  0  0  0  0  0  0  0  0  0  0
   10.1161  -14.6550   28.4082 C   0  0  1  0  0  0  0  0  0  0  0  0
    8.9052  -14.9363   29.0139 O   0  0  0  0  0  0  0  0  0  0  0  0
   10.6149  -15.8119   27.5734 C   0  0  2  0  0  0  0  0  0  0  0  0
    9.6293  -16.3046   26.6592 N   0  0  0  0  0  0  0  0  0  0  0  0
   10.9527  -16.9113   28.5222 C   0  0  0  0  0  0  0  0  0  0  0  0
   10.3145  -17.9966   28.5408 O   0  0  0  0  0  0  0  0  0  0  0  0
   11.9910  -16.7907   29.4342 O   0  0  0  0  0  0  0  0  0  0  0  0
  2  3  1  0
  2  1  1  0
  3  4  1  1
  5  3  1  0
  5  6  1  6
  7  8  2  0
  7  5  1  0
  9  7  1  0
 10  9  1  0
 10 11  1  0
 11 17  1  0
 12 11  2  0
 14 15  1  0
 14 13  1  6
 16 14  1  0
 16 18  1  0
 16 17  1  6
 18 19  2  0
 18 20  1  0
M  END
$$$$
