IGT.pdb
     RDKit          3D

 20 19  0  0  1  0  0  0  0  0999 V2000
    7.5005  -11.6861   27.3090 C   0  0  0  0  0  0  0  0  0  0  0  0
    7.2513  -13.1229   26.8171 C   0  0  0  0  0  0  0  0  0  0  0  0
    6.6655  -12.9858   25.4405 C   0  0  2  0  0  0  0  0  0  0  0  0
    5.2858  -12.3861   25.4734 C   0  0  0  0  0  0  0  0  0  0  0  0
    6.6376  -14.2969   24.7363 C   0  0  2  0  0  0  0  0  0  0  0  0
    5.8619  -15.2292   25.5454 N   0  0  0  0  0  0  0  0  0  0  0  0
    7.9350  -14.8505   24.3472 C   0  0  0  0  0  0  0  0  0  0  0  0
    8.7585  -14.1519   23.7083 O   0  0  0  0  0  0  0  0  0  0  0  0
    8.3630  -16.1778   24.6460 N   0  0  0  0  0  0  0  0  0  0  0  0
    9.6197  -16.6999   24.1611 C   0  0  0  0  0  0  0  0  0  0  0  0
   10.6838  -16.6520   25.1868 C   0  0  0  0  0  0  0  0  0  0  0  0
   11.9079  -16.7876   24.9004 O   0  0  0  0  0  0  0  0  0  0  0  0
   11.1959  -13.9649   28.0789 C   0  0  0  0  0  0  0  0  0  0  0  0
   10.9571  -15.3529   28.6437 C   0  0  1  0  0  0  0  0  0  0  0  0
    9.6458  -15.4109   29.0790 O   0  0  0  0  0  0  0  0  0  0  0  0
   11.2665  -16.4306   27.6304 C   0  0  2  0  0  0  0  0  0  0  0  0
   10.3419  -16.4491   26.5373 N   0  0  0  0  0  0  0  0  0  0  0  0
   11.1599  -17.7348   28.3451 C   0  0  0  0  0  0  0  0  0  0  0  0
   10.2653  -18.5766   28.0684 O   0  0  0  0  0  0  0  0  0  0  0  0
   12.0454  -18.0850   29.3540 O   0  0  0  0  0  0  0  0  0  0  0  0
  2  3  1  0
  2  1  1  0
  3  4  1  1
  5  3  1  0
  5  6  1  1
  7  8  2  0
  7  5  1  0
  9  7  1  0
 10  9  1  0
 10 11  1  0
 11 17  1  0
 12 11  2  0
 14 15  1  0
 14 13  1  6
 16 14  1  0
 16 18  1  0
 16 17  1  6
 18 19  2  0
 18 20  1  0
M  END
$$$$
