IGT.pdb
     RDKit          3D

 20 19  0  0  1  0  0  0  0  0999 V2000
    8.1248  -11.9277   20.0699 C   0  0  0  0  0  0  0  0  0  0  0  0
    7.4907  -13.2743   20.4609 C   0  0  0  0  0  0  0  0  0  0  0  0
    8.4357  -14.3296   19.9607 C   0  0  2  0  0  0  0  0  0  0  0  0
    8.6000  -14.2748   18.4659 C   0  0  0  0  0  0  0  0  0  0  0  0
    7.9926  -15.6879   20.3780 C   0  0  2  0  0  0  0  0  0  0  0  0
    6.8189  -16.0436   19.5897 N   0  0  0  0  0  0  0  0  0  0  0  0
    7.7759  -15.8864   21.8115 C   0  0  0  0  0  0  0  0  0  0  0  0
    6.6660  -15.6155   22.3302 O   0  0  0  0  0  0  0  0  0  0  0  0
    8.7646  -16.3844   22.7108 N   0  0  0  0  0  0  0  0  0  0  0  0
    8.5201  -16.4855   24.1310 C   0  0  0  0  0  0  0  0  0  0  0  0
    9.5600  -15.8051   24.9322 C   0  0  0  0  0  0  0  0  0  0  0  0
   10.6973  -15.5156   24.4613 O   0  0  0  0  0  0  0  0  0  0  0  0
    8.9232  -12.6596   27.5090 C   0  0  0  0  0  0  0  0  0  0  0  0
    9.5040  -13.9034   28.1557 C   0  0  1  0  0  0  0  0  0  0  0  0
    8.4730  -14.5657   28.7965 O   0  0  0  0  0  0  0  0  0  0  0  0
   10.2036  -14.7846   27.1468 C   0  0  2  0  0  0  0  0  0  0  0  0
    9.2936  -15.4585   26.2705 N   0  0  0  0  0  0  0  0  0  0  0  0
   10.9464  -15.8187   27.9224 C   0  0  0  0  0  0  0  0  0  0  0  0
   10.6343  -17.0379   27.8792 O   0  0  0  0  0  0  0  0  0  0  0  0
   12.0220  -15.4859   28.7328 O   0  0  0  0  0  0  0  0  0  0  0  0
  2  3  1  0
  2  1  1  0
  3  4  1  6
  5  3  1  0
  5  6  1  6
  7  8  2  0
  7  5  1  0
  9  7  1  0
 10  9  1  0
 10 11  1  0
 11 17  1  0
 12 11  2  0
 14 15  1  0
 14 13  1  6
 16 14  1  0
 16 18  1  0
 16 17  1  6
 18 19  2  0
 18 20  1  0
M  END
$$$$
