IGT.pdb
     RDKit          3D

 20 19  0  0  1  0  0  0  0  0999 V2000
    6.1364  -11.5392   27.5321 C   0  0  0  0  0  0  0  0  0  0  0  0
    5.9264  -12.9617   26.9834 C   0  0  0  0  0  0  0  0  0  0  0  0
    7.1131  -13.2382   26.1047 C   0  0  2  0  0  0  0  0  0  0  0  0
    7.2638  -12.2049   25.0213 C   0  0  0  0  0  0  0  0  0  0  0  0
    7.0327  -14.5991   25.5072 C   0  0  2  0  0  0  0  0  0  0  0  0
    6.7466  -15.5473   26.5771 N   0  0  0  0  0  0  0  0  0  0  0  0
    8.1728  -15.0159   24.6902 C   0  0  0  0  0  0  0  0  0  0  0  0
    9.3053  -15.1668   25.2088 O   0  0  0  0  0  0  0  0  0  0  0  0
    8.1031  -15.2774   23.2898 N   0  0  0  0  0  0  0  0  0  0  0  0
    9.2921  -15.4194   22.4817 C   0  0  0  0  0  0  0  0  0  0  0  0
   10.0927  -16.6038   22.8594 C   0  0  0  0  0  0  0  0  0  0  0  0
    9.8022  -17.3295   23.8533 O   0  0  0  0  0  0  0  0  0  0  0  0
   11.1290  -19.8554   20.8875 C   0  0  0  0  0  0  0  0  0  0  0  0
   12.3085  -18.9359   21.1441 C   0  0  1  0  0  0  0  0  0  0  0  0
   12.5155  -18.1869   20.0003 O   0  0  0  0  0  0  0  0  0  0  0  0
   12.0860  -18.0655   22.3594 C   0  0  2  0  0  0  0  0  0  0  0  0
   11.2237  -16.9530   22.0972 N   0  0  0  0  0  0  0  0  0  0  0  0
   13.4205  -17.5302   22.7538 C   0  0  0  0  0  0  0  0  0  0  0  0
   13.7527  -16.3360   22.5324 O   0  0  0  0  0  0  0  0  0  0  0  0
   14.3646  -18.3258   23.3864 O   0  0  0  0  0  0  0  0  0  0  0  0
  2  3  1  0
  2  1  1  0
  3  4  1  6
  5  3  1  0
  5  6  1  1
  7  8  2  0
  7  5  1  0
  9  7  1  0
 10  9  1  0
 10 11  1  0
 11 17  1  0
 12 11  2  0
 14 15  1  0
 14 13  1  6
 16 14  1  0
 16 18  1  0
 16 17  1  6
 18 19  2  0
 18 20  1  0
M  END
$$$$
