IGT.pdb
     RDKit          3D

 20 19  0  0  1  0  0  0  0  0999 V2000
    6.1636  -10.7947   27.7456 C   0  0  0  0  0  0  0  0  0  0  0  0
    5.7371  -12.1467   27.1465 C   0  0  0  0  0  0  0  0  0  0  0  0
    6.9893  -12.7545   26.5814 C   0  0  2  0  0  0  0  0  0  0  0  0
    7.7432  -11.7842   25.7129 C   0  0  0  0  0  0  0  0  0  0  0  0
    6.6859  -13.9962   25.8186 C   0  0  2  0  0  0  0  0  0  0  0  0
    6.0819  -14.9550   26.7358 N   0  0  0  0  0  0  0  0  0  0  0  0
    7.7949  -14.5786   25.0622 C   0  0  0  0  0  0  0  0  0  0  0  0
    8.2687  -13.9802   24.0664 O   0  0  0  0  0  0  0  0  0  0  0  0
    8.4115  -15.8260   25.3750 N   0  0  0  0  0  0  0  0  0  0  0  0
    9.5197  -16.3418   24.6052 C   0  0  0  0  0  0  0  0  0  0  0  0
    9.0816  -16.9926   23.3518 C   0  0  0  0  0  0  0  0  0  0  0  0
    8.8094  -18.2258   23.2877 O   0  0  0  0  0  0  0  0  0  0  0  0
    8.1661  -14.3540   20.1047 C   0  0  0  0  0  0  0  0  0  0  0  0
    7.5106  -15.7133   20.2629 C   0  0  1  0  0  0  0  0  0  0  0  0
    7.1132  -16.1381   19.0083 O   0  0  0  0  0  0  0  0  0  0  0  0
    8.4335  -16.7058   20.9316 C   0  0  2  0  0  0  0  0  0  0  0  0
    8.9568  -16.2285   22.1760 N   0  0  0  0  0  0  0  0  0  0  0  0
    9.5796  -16.9194   20.0022 C   0  0  0  0  0  0  0  0  0  0  0  0
   10.7394  -16.5061   20.2665 O   0  0  0  0  0  0  0  0  0  0  0  0
    9.4226  -17.5867   18.7963 O   0  0  0  0  0  0  0  0  0  0  0  0
  2  3  1  0
  2  1  1  0
  3  4  1  6
  5  3  1  0
  5  6  1  1
  7  8  2  0
  7  5  1  0
  9  7  1  0
 10  9  1  0
 10 11  1  0
 11 17  1  0
 12 11  2  0
 14 15  1  0
 14 13  1  6
 16 14  1  0
 16 18  1  0
 16 17  1  1
 18 19  2  0
 18 20  1  0
M  END
$$$$
