IGT.pdb
     RDKit          3D

 20 19  0  0  1  0  0  0  0  0999 V2000
    7.2361  -14.1066   16.6145 C   0  0  0  0  0  0  0  0  0  0  0  0
    7.5108  -13.3471   17.9245 C   0  0  0  0  0  0  0  0  0  0  0  0
    8.5701  -14.1374   18.6386 C   0  0  2  0  0  0  0  0  0  0  0  0
    8.1243  -15.5459   18.9247 C   0  0  0  0  0  0  0  0  0  0  0  0
    8.9826  -13.4642   19.9005 C   0  0  2  0  0  0  0  0  0  0  0  0
    9.2566  -12.0645   19.5984 N   0  0  0  0  0  0  0  0  0  0  0  0
   10.0755  -14.0933   20.6426 C   0  0  0  0  0  0  0  0  0  0  0  0
   11.2693  -13.8202   20.3696 O   0  0  0  0  0  0  0  0  0  0  0  0
    9.8909  -15.0339   21.6988 N   0  0  0  0  0  0  0  0  0  0  0  0
   11.0040  -15.7297   22.3019 C   0  0  0  0  0  0  0  0  0  0  0  0
   10.5806  -16.6305   23.3954 C   0  0  0  0  0  0  0  0  0  0  0  0
    9.4048  -16.6259   23.8604 O   0  0  0  0  0  0  0  0  0  0  0  0
   11.1470  -20.3213   22.9567 C   0  0  0  0  0  0  0  0  0  0  0  0
   11.7212  -19.9506   24.3115 C   0  0  1  0  0  0  0  0  0  0  0  0
   13.0989  -19.9306   24.1940 O   0  0  0  0  0  0  0  0  0  0  0  0
   11.1753  -18.6322   24.8093 C   0  0  2  0  0  0  0  0  0  0  0  0
   11.5057  -17.5336   23.9526 N   0  0  0  0  0  0  0  0  0  0  0  0
   11.8019  -18.3832   26.1391 C   0  0  0  0  0  0  0  0  0  0  0  0
   12.6860  -17.5022   26.3060 O   0  0  0  0  0  0  0  0  0  0  0  0
   11.4392  -19.1134   27.2615 O   0  0  0  0  0  0  0  0  0  0  0  0
  2  3  1  0
  2  1  1  0
  3  4  1  1
  5  3  1  0
  5  6  1  6
  7  8  2  0
  7  5  1  0
  9  7  1  0
 10  9  1  0
 10 11  1  0
 11 17  1  0
 12 11  2  0
 14 15  1  0
 14 13  1  6
 16 14  1  0
 16 18  1  0
 16 17  1  6
 18 19  2  0
 18 20  1  0
M  END
$$$$
