IGT.pdb
     RDKit          3D

 20 19  0  0  1  0  0  0  0  0999 V2000
    8.2578  -11.7530   26.8788 C   0  0  0  0  0  0  0  0  0  0  0  0
    7.7782  -13.1806   27.1959 C   0  0  0  0  0  0  0  0  0  0  0  0
    7.3215  -13.7568   25.8859 C   0  0  2  0  0  0  0  0  0  0  0  0
    6.1538  -12.9989   25.3145 C   0  0  0  0  0  0  0  0  0  0  0  0
    6.9783  -15.1985   26.0245 C   0  0  2  0  0  0  0  0  0  0  0  0
    8.0512  -15.8503   26.7658 N   0  0  0  0  0  0  0  0  0  0  0  0
    6.6516  -15.9081   24.7872 C   0  0  0  0  0  0  0  0  0  0  0  0
    5.5653  -15.6915   24.1978 O   0  0  0  0  0  0  0  0  0  0  0  0
    7.5021  -16.8695   24.1653 N   0  0  0  0  0  0  0  0  0  0  0  0
    7.2272  -17.3885   22.8455 C   0  0  0  0  0  0  0  0  0  0  0  0
    8.2989  -18.2821   22.3563 C   0  0  0  0  0  0  0  0  0  0  0  0
    8.2374  -18.8638   21.2353 O   0  0  0  0  0  0  0  0  0  0  0  0
   10.9502  -17.1581   20.9299 C   0  0  0  0  0  0  0  0  0  0  0  0
   11.5673  -17.8158   22.1502 C   0  0  1  0  0  0  0  0  0  0  0  0
   11.7635  -16.8340   23.1040 O   0  0  0  0  0  0  0  0  0  0  0  0
   10.7111  -18.9478   22.6694 C   0  0  2  0  0  0  0  0  0  0  0  0
    9.4378  -18.5063   23.1530 N   0  0  0  0  0  0  0  0  0  0  0  0
   11.4512  -19.5563   23.8117 C   0  0  0  0  0  0  0  0  0  0  0  0
   12.5303  -20.1846   23.6493 O   0  0  0  0  0  0  0  0  0  0  0  0
   10.9843  -19.4591   25.1144 O   0  0  0  0  0  0  0  0  0  0  0  0
  2  3  1  0
  2  1  1  0
  3  4  1  1
  5  3  1  0
  5  6  1  6
  7  8  2  0
  7  5  1  0
  9  7  1  0
 10  9  1  0
 10 11  1  0
 11 17  1  0
 12 11  2  0
 14 15  1  0
 14 13  1  6
 16 14  1  0
 16 18  1  0
 16 17  1  1
 18 19  2  0
 18 20  1  0
M  END
$$$$
