IGT.pdb
     RDKit          3D

 20 19  0  0  1  0  0  0  0  0999 V2000
    7.1336  -11.4710   27.9096 C   0  0  0  0  0  0  0  0  0  0  0  0
    7.2711  -12.9731   27.6038 C   0  0  0  0  0  0  0  0  0  0  0  0
    7.2815  -13.0839   26.1057 C   0  0  2  0  0  0  0  0  0  0  0  0
    6.0561  -12.4670   25.4874 C   0  0  0  0  0  0  0  0  0  0  0  0
    7.4146  -14.5021   25.6736 C   0  0  2  0  0  0  0  0  0  0  0  0
    8.6051  -15.0582   26.3053 N   0  0  0  0  0  0  0  0  0  0  0  0
    7.3908  -14.7444   24.2308 C   0  0  0  0  0  0  0  0  0  0  0  0
    6.3012  -14.7763   23.6094 O   0  0  0  0  0  0  0  0  0  0  0  0
    8.5543  -14.9571   23.4338 N   0  0  0  0  0  0  0  0  0  0  0  0
    8.4717  -15.1676   22.0070 C   0  0  0  0  0  0  0  0  0  0  0  0
    8.4923  -16.6014   21.6461 C   0  0  0  0  0  0  0  0  0  0  0  0
    7.9272  -17.4859   22.3512 O   0  0  0  0  0  0  0  0  0  0  0  0
    8.1473  -17.8428   17.7549 C   0  0  0  0  0  0  0  0  0  0  0  0
    9.3525  -18.4188   18.4749 C   0  0  1  0  0  0  0  0  0  0  0  0
   10.4703  -17.7271   18.0452 O   0  0  0  0  0  0  0  0  0  0  0  0
    9.1901  -18.3575   19.9761 C   0  0  2  0  0  0  0  0  0  0  0  0
    9.1603  -17.0171   20.4787 N   0  0  0  0  0  0  0  0  0  0  0  0
   10.3763  -19.0430   20.5643 C   0  0  0  0  0  0  0  0  0  0  0  0
   11.2017  -18.4376   21.2976 O   0  0  0  0  0  0  0  0  0  0  0  0
   10.6288  -20.3869   20.3308 O   0  0  0  0  0  0  0  0  0  0  0  0
  2  3  1  0
  2  1  1  0
  3  4  1  1
  5  3  1  0
  5  6  1  6
  7  8  2  0
  7  5  1  0
  9  7  1  0
 10  9  1  0
 10 11  1  0
 11 17  1  0
 12 11  2  0
 14 15  1  0
 14 13  1  6
 16 14  1  0
 16 18  1  0
 16 17  1  1
 18 19  2  0
 18 20  1  0
M  END
$$$$
