IGT.pdb
     RDKit          3D

 20 19  0  0  1  0  0  0  0  0999 V2000
    7.7274  -12.4321   19.9736 C   0  0  0  0  0  0  0  0  0  0  0  0
    8.0648  -13.3252   21.1807 C   0  0  0  0  0  0  0  0  0  0  0  0
    7.8583  -14.7375   20.7121 C   0  0  2  0  0  0  0  0  0  0  0  0
    6.4468  -14.9757   20.2482 C   0  0  0  0  0  0  0  0  0  0  0  0
    8.2196  -15.7139   21.7760 C   0  0  2  0  0  0  0  0  0  0  0  0
    7.2179  -15.6250   22.8315 N   0  0  0  0  0  0  0  0  0  0  0  0
    9.5830  -15.6258   22.2997 C   0  0  0  0  0  0  0  0  0  0  0  0
   10.5562  -16.0105   21.6073 O   0  0  0  0  0  0  0  0  0  0  0  0
    9.9155  -15.1164   23.5898 N   0  0  0  0  0  0  0  0  0  0  0  0
   11.2868  -14.9523   24.0134 C   0  0  0  0  0  0  0  0  0  0  0  0
   11.5695  -15.6431   25.2898 C   0  0  0  0  0  0  0  0  0  0  0  0
   12.7192  -16.0791   25.5844 O   0  0  0  0  0  0  0  0  0  0  0  0
   10.4406  -13.4135   28.1157 C   0  0  0  0  0  0  0  0  0  0  0  0
    9.8853  -14.8051   28.3556 C   0  0  1  0  0  0  0  0  0  0  0  0
    8.5638  -14.8074   27.9482 O   0  0  0  0  0  0  0  0  0  0  0  0
   10.6991  -15.8628   27.6465 C   0  0  2  0  0  0  0  0  0  0  0  0
   10.5339  -15.8322   26.2246 N   0  0  0  0  0  0  0  0  0  0  0  0
   10.2093  -17.1824   28.1382 C   0  0  0  0  0  0  0  0  0  0  0  0
    9.6156  -17.9974   27.3840 O   0  0  0  0  0  0  0  0  0  0  0  0
   10.3849  -17.5773   29.4564 O   0  0  0  0  0  0  0  0  0  0  0  0
  2  3  1  0
  2  1  1  0
  3  4  1  1
  5  3  1  0
  5  6  1  1
  7  8  2  0
  7  5  1  0
  9  7  1  0
 10  9  1  0
 10 11  1  0
 11 17  1  0
 12 11  2  0
 14 15  1  0
 14 13  1  6
 16 14  1  0
 16 18  1  0
 16 17  1  6
 18 19  2  0
 18 20  1  0
M  END
$$$$
