IGT.pdb
     RDKit          3D

 20 19  0  0  1  0  0  0  0  0999 V2000
    6.3160  -11.2583   27.8081 C   0  0  0  0  0  0  0  0  0  0  0  0
    5.7274  -12.3301   26.8735 C   0  0  0  0  0  0  0  0  0  0  0  0
    6.9066  -12.9867   26.2139 C   0  0  2  0  0  0  0  0  0  0  0  0
    7.8479  -11.9788   25.6119 C   0  0  0  0  0  0  0  0  0  0  0  0
    6.4678  -13.9608   25.1774 C   0  0  2  0  0  0  0  0  0  0  0  0
    5.8949  -15.1170   25.8561 N   0  0  0  0  0  0  0  0  0  0  0  0
    7.4709  -14.3448   24.1837 C   0  0  0  0  0  0  0  0  0  0  0  0
    8.1303  -13.4682   23.5744 O   0  0  0  0  0  0  0  0  0  0  0  0
    7.7772  -15.6928   23.8326 N   0  0  0  0  0  0  0  0  0  0  0  0
    8.7201  -16.0114   22.7855 C   0  0  0  0  0  0  0  0  0  0  0  0
    9.9233  -16.6997   23.3002 C   0  0  0  0  0  0  0  0  0  0  0  0
   10.0755  -16.9739   24.5251 O   0  0  0  0  0  0  0  0  0  0  0  0
   11.3433  -19.8753   21.2673 C   0  0  0  0  0  0  0  0  0  0  0  0
   12.4168  -18.8440   21.5617 C   0  0  1  0  0  0  0  0  0  0  0  0
   12.6376  -18.1230   20.4025 O   0  0  0  0  0  0  0  0  0  0  0  0
   12.0340  -17.9521   22.7200 C   0  0  2  0  0  0  0  0  0  0  0  0
   10.9484  -17.0715   22.4097 N   0  0  0  0  0  0  0  0  0  0  0  0
   13.2291  -17.1169   23.0316 C   0  0  0  0  0  0  0  0  0  0  0  0
   13.2822  -15.8927   22.7414 O   0  0  0  0  0  0  0  0  0  0  0  0
   14.3452  -17.6509   23.6591 O   0  0  0  0  0  0  0  0  0  0  0  0
  2  3  1  0
  2  1  1  0
  3  4  1  6
  5  3  1  0
  5  6  1  1
  7  8  2  0
  7  5  1  0
  9  7  1  0
 10  9  1  0
 10 11  1  0
 11 17  1  0
 12 11  2  0
 14 15  1  0
 14 13  1  6
 16 14  1  0
 16 18  1  0
 16 17  1  6
 18 19  2  0
 18 20  1  0
M  END
$$$$
