IGT.pdb
     RDKit          3D

 20 19  0  0  1  0  0  0  0  0999 V2000
    7.9586  -12.1427   19.3872 C   0  0  0  0  0  0  0  0  0  0  0  0
    8.6167  -13.3802   20.0229 C   0  0  0  0  0  0  0  0  0  0  0  0
    7.5935  -13.9459   20.9661 C   0  0  2  0  0  0  0  0  0  0  0  0
    7.2275  -12.9693   22.0509 C   0  0  0  0  0  0  0  0  0  0  0  0
    8.0650  -15.2243   21.5654 C   0  0  2  0  0  0  0  0  0  0  0  0
    8.6069  -16.0532   20.4955 N   0  0  0  0  0  0  0  0  0  0  0  0
    7.0969  -15.9490   22.3892 C   0  0  0  0  0  0  0  0  0  0  0  0
    5.9116  -16.0893   22.0022 O   0  0  0  0  0  0  0  0  0  0  0  0
    7.3999  -16.5368   23.6529 N   0  0  0  0  0  0  0  0  0  0  0  0
    6.3689  -17.0797   24.5069 C   0  0  0  0  0  0  0  0  0  0  0  0
    6.9205  -17.7180   25.7213 C   0  0  0  0  0  0  0  0  0  0  0  0
    6.1830  -18.2051   26.6255 O   0  0  0  0  0  0  0  0  0  0  0  0
    8.9059  -20.6126   24.9282 C   0  0  0  0  0  0  0  0  0  0  0  0
    9.8008  -19.7453   25.7940 C   0  0  1  0  0  0  0  0  0  0  0  0
   10.6727  -19.0727   24.9574 O   0  0  0  0  0  0  0  0  0  0  0  0
    8.9985  -18.7984   26.6563 C   0  0  2  0  0  0  0  0  0  0  0  0
    8.3153  -17.7960   25.8958 N   0  0  0  0  0  0  0  0  0  0  0  0
    9.9685  -18.1116   27.5565 C   0  0  0  0  0  0  0  0  0  0  0  0
   10.1905  -16.8745   27.4790 O   0  0  0  0  0  0  0  0  0  0  0  0
   10.6763  -18.8056   28.5269 O   0  0  0  0  0  0  0  0  0  0  0  0
  2  3  1  0
  2  1  1  0
  3  4  1  1
  5  3  1  0
  5  6  1  6
  7  8  2  0
  7  5  1  0
  9  7  1  0
 10  9  1  0
 10 11  1  0
 11 17  1  0
 12 11  2  0
 14 15  1  0
 14 13  1  6
 16 14  1  0
 16 18  1  0
 16 17  1  6
 18 19  2  0
 18 20  1  0
M  END
$$$$
