HHG.pdb
     RDKit          3D

 25 26  0  0  1  0  0  0  0  0999 V2000
   10.3801  -23.1767   24.4764 N   0  0  0  0  0  0  0  0  0  0  0  0
   11.0439  -22.9543   25.7450 C   0  0  1  0  0  0  0  0  0  0  0  0
   12.2940  -22.1218   25.5700 C   0  0  0  0  0  0  0  0  0  0  0  0
   13.2175  -22.8544   24.6649 C   0  0  0  0  0  0  0  0  0  0  0  0
   13.3388  -22.6421   23.2998 C   0  0  0  0  0  0  0  0  0  0  0  0
   14.2726  -23.4972   22.8468 N   0  0  0  0  0  0  0  0  0  0  0  0
   14.7453  -24.2344   23.8468 C   0  0  0  0  0  0  0  0  0  0  0  0
   14.0904  -23.8304   24.9549 N   0  0  0  0  0  0  0  0  0  0  0  0
   10.0970  -22.2864   26.6872 C   0  0  0  0  0  0  0  0  0  0  0  0
    9.4862  -21.2427   26.3628 O   0  0  0  0  0  0  0  0  0  0  0  0
    9.8743  -22.8236   27.9646 N   0  0  0  0  0  0  0  0  0  0  0  0
    8.9528  -22.3298   28.9380 C   0  0  1  0  0  0  0  0  0  0  0  0
    7.8031  -23.2227   29.2429 C   0  0  0  0  0  0  0  0  0  0  0  0
    6.8821  -23.2850   28.0865 C   0  0  0  0  0  0  0  0  0  0  0  0
    6.0453  -22.3281   27.5754 C   0  0  0  0  0  0  0  0  0  0  0  0
    5.4191  -22.8719   26.5221 N   0  0  0  0  0  0  0  0  0  0  0  0
    5.8244  -24.1439   26.3393 C   0  0  0  0  0  0  0  0  0  0  0  0
    6.7226  -24.3701   27.3142 N   0  0  0  0  0  0  0  0  0  0  0  0
    9.7434  -22.1078   30.2046 C   0  0  0  0  0  0  0  0  0  0  0  0
    9.1910  -21.9995   31.3290 O   0  0  0  0  0  0  0  0  0  0  0  0
   11.1589  -22.0114   30.1756 N   0  0  0  0  0  0  0  0  0  0  0  0
   11.9096  -21.7850   31.4192 C   0  0  0  0  0  0  0  0  0  0  0  0
   13.3524  -21.8709   31.1461 C   0  0  0  0  0  0  0  0  0  0  0  0
   13.7530  -22.1195   29.9869 O   0  0  0  0  0  0  0  0  0  0  0  0
   14.3279  -21.6883   32.1214 O   0  0  0  0  0  0  0  0  0  0  0  0
  2  1  1  6
  2  9  1  0
  3  2  1  0
  4  3  1  0
  5  4  2  0
  6  5  1  0
  7  8  2  0
  7  6  1  0
  8  4  1  0
  9 10  2  0
 11 12  1  0
 11  9  1  0
 12 19  1  0
 13 14  1  0
 12 13  1  1
 14 15  2  0
 15 16  1  0
 17 16  1  0
 18 14  1  0
 18 17  2  0
 19 21  1  0
 20 19  2  0
 21 22  1  0
 23 22  1  0
 24 23  2  0
 25 23  1  0
M  END
$$$$
