HHG.pdb
     RDKit          3D

 25 26  0  0  1  0  0  0  0  0999 V2000
   10.7460  -18.7199   19.1655 N   0  0  0  0  0  0  0  0  0  0  0  0
   11.6951  -17.6353   19.0157 C   0  0  1  0  0  0  0  0  0  0  0  0
   11.7714  -17.1695   17.5792 C   0  0  0  0  0  0  0  0  0  0  0  0
   11.9835  -18.3599   16.7150 C   0  0  0  0  0  0  0  0  0  0  0  0
   12.3923  -19.6092   17.1569 C   0  0  0  0  0  0  0  0  0  0  0  0
   12.4654  -20.4075   16.0772 N   0  0  0  0  0  0  0  0  0  0  0  0
   12.1267  -19.7335   14.9828 C   0  0  0  0  0  0  0  0  0  0  0  0
   11.8338  -18.4804   15.3877 N   0  0  0  0  0  0  0  0  0  0  0  0
   11.3016  -16.5076   19.9122 C   0  0  0  0  0  0  0  0  0  0  0  0
   11.9575  -15.4415   19.9408 O   0  0  0  0  0  0  0  0  0  0  0  0
   10.1785  -16.6260   20.7457 N   0  0  0  0  0  0  0  0  0  0  0  0
    9.7706  -15.6939   21.7483 C   0  0  1  0  0  0  0  0  0  0  0  0
    8.3668  -15.2139   21.6439 C   0  0  0  0  0  0  0  0  0  0  0  0
    8.2056  -14.3583   20.4475 C   0  0  0  0  0  0  0  0  0  0  0  0
    9.1388  -13.9271   19.5416 C   0  0  0  0  0  0  0  0  0  0  0  0
    8.4950  -13.1741   18.6385 N   0  0  0  0  0  0  0  0  0  0  0  0
    7.1818  -13.1067   18.9327 C   0  0  0  0  0  0  0  0  0  0  0  0
    7.0332  -13.8431   20.0482 N   0  0  0  0  0  0  0  0  0  0  0  0
    9.9483  -16.3870   23.0774 C   0  0  0  0  0  0  0  0  0  0  0  0
    9.4031  -17.4901   23.3362 O   0  0  0  0  0  0  0  0  0  0  0  0
   10.7478  -15.8134   24.1000 N   0  0  0  0  0  0  0  0  0  0  0  0
   10.7909  -16.4265   25.4355 C   0  0  0  0  0  0  0  0  0  0  0  0
   11.9132  -17.3748   25.5061 C   0  0  0  0  0  0  0  0  0  0  0  0
   12.5869  -17.6197   24.4803 O   0  0  0  0  0  0  0  0  0  0  0  0
   12.2842  -18.0357   26.6731 O   0  0  0  0  0  0  0  0  0  0  0  0
  2  1  1  6
  2  9  1  0
  3  2  1  0
  4  3  1  0
  5  4  2  0
  6  5  1  0
  7  8  2  0
  7  6  1  0
  8  4  1  0
  9 10  2  0
 11 12  1  0
 11  9  1  0
 12 19  1  0
 13 14  1  0
 12 13  1  6
 14 15  2  0
 15 16  1  0
 17 16  1  0
 18 14  1  0
 18 17  2  0
 19 21  1  0
 20 19  2  0
 21 22  1  0
 23 22  1  0
 24 23  2  0
 25 23  1  0
M  END
$$$$
