HHG.pdb
     RDKit          3D

 25 26  0  0  1  0  0  0  0  0999 V2000
    7.1387  -16.8817   20.5302 N   0  0  0  0  0  0  0  0  0  0  0  0
    7.3687  -16.0603   21.7014 C   0  0  1  0  0  0  0  0  0  0  0  0
    6.6988  -14.7117   21.5642 C   0  0  0  0  0  0  0  0  0  0  0  0
    7.5108  -13.8813   20.6369 C   0  0  0  0  0  0  0  0  0  0  0  0
    8.6563  -14.3017   19.9780 C   0  0  0  0  0  0  0  0  0  0  0  0
    9.0920  -13.2657   19.2396 N   0  0  0  0  0  0  0  0  0  0  0  0
    8.2878  -12.2190   19.3957 C   0  0  0  0  0  0  0  0  0  0  0  0
    7.3233  -12.6097   20.2542 N   0  0  0  0  0  0  0  0  0  0  0  0
    6.8652  -16.7750   22.9122 C   0  0  0  0  0  0  0  0  0  0  0  0
    5.6481  -17.0308   23.0560 O   0  0  0  0  0  0  0  0  0  0  0  0
    7.7577  -17.1755   23.9187 N   0  0  0  0  0  0  0  0  0  0  0  0
    7.4366  -17.9653   25.0649 C   0  0  1  0  0  0  0  0  0  0  0  0
    7.4191  -19.4361   24.8451 C   0  0  0  0  0  0  0  0  0  0  0  0
    7.1141  -20.1396   26.1105 C   0  0  0  0  0  0  0  0  0  0  0  0
    6.7941  -19.6345   27.3433 C   0  0  0  0  0  0  0  0  0  0  0  0
    6.6079  -20.6790   28.1627 N   0  0  0  0  0  0  0  0  0  0  0  0
    6.7969  -21.8366   27.4994 C   0  0  0  0  0  0  0  0  0  0  0  0
    7.1066  -21.4746   26.2418 N   0  0  0  0  0  0  0  0  0  0  0  0
    8.4744  -17.6440   26.1128 C   0  0  0  0  0  0  0  0  0  0  0  0
    9.7061  -17.6480   25.8595 O   0  0  0  0  0  0  0  0  0  0  0  0
    8.0959  -17.3208   27.4417 N   0  0  0  0  0  0  0  0  0  0  0  0
    9.1139  -16.9158   28.4221 C   0  0  0  0  0  0  0  0  0  0  0  0
    9.7203  -18.1125   29.0253 C   0  0  0  0  0  0  0  0  0  0  0  0
    9.3852  -19.2497   28.6244 O   0  0  0  0  0  0  0  0  0  0  0  0
   10.6692  -18.0599   30.0416 O   0  0  0  0  0  0  0  0  0  0  0  0
  2  1  1  6
  2  9  1  0
  3  2  1  0
  4  3  1  0
  5  4  2  0
  6  5  1  0
  7  8  2  0
  7  6  1  0
  8  4  1  0
  9 10  2  0
 11 12  1  0
 11  9  1  0
 12 19  1  0
 13 14  1  0
 12 13  1  6
 14 15  2  0
 15 16  1  0
 17 16  1  0
 18 14  1  0
 18 17  2  0
 19 21  1  0
 20 19  2  0
 21 22  1  0
 23 22  1  0
 24 23  2  0
 25 23  1  0
M  END
$$$$
