HHG.pdb
     RDKit          3D

 25 26  0  0  1  0  0  0  0  0999 V2000
    9.2290  -18.3043   17.6759 N   0  0  0  0  0  0  0  0  0  0  0  0
    9.3849  -16.8967   17.9822 C   0  0  1  0  0  0  0  0  0  0  0  0
    8.4261  -16.0515   17.1744 C   0  0  0  0  0  0  0  0  0  0  0  0
    8.6123  -16.3818   15.7373 C   0  0  0  0  0  0  0  0  0  0  0  0
    9.8339  -16.4745   15.0875 C   0  0  0  0  0  0  0  0  0  0  0  0
    9.5782  -16.7902   13.8055 N   0  0  0  0  0  0  0  0  0  0  0  0
    8.2679  -16.9012   13.6115 C   0  0  0  0  0  0  0  0  0  0  0  0
    7.6880  -16.6485   14.8030 N   0  0  0  0  0  0  0  0  0  0  0  0
    9.1685  -16.6827   19.4443 C   0  0  0  0  0  0  0  0  0  0  0  0
    8.1214  -16.1476   19.8742 O   0  0  0  0  0  0  0  0  0  0  0  0
   10.1455  -17.0822   20.3694 N   0  0  0  0  0  0  0  0  0  0  0  0
   10.0186  -17.0603   21.7920 C   0  0  1  0  0  0  0  0  0  0  0  0
    9.9111  -18.3916   22.4463 C   0  0  0  0  0  0  0  0  0  0  0  0
    8.6461  -19.0532   22.0569 C   0  0  0  0  0  0  0  0  0  0  0  0
    7.4825  -18.5133   21.5753 C   0  0  0  0  0  0  0  0  0  0  0  0
    6.6295  -19.5276   21.3738 N   0  0  0  0  0  0  0  0  0  0  0  0
    7.2044  -20.6993   21.7089 C   0  0  0  0  0  0  0  0  0  0  0  0
    8.4421  -20.3772   22.1248 N   0  0  0  0  0  0  0  0  0  0  0  0
   11.2446  -16.3572   22.3222 C   0  0  0  0  0  0  0  0  0  0  0  0
   11.3947  -16.1019   23.5443 O   0  0  0  0  0  0  0  0  0  0  0  0
   12.2890  -15.9518   21.4512 N   0  0  0  0  0  0  0  0  0  0  0  0
   13.4689  -15.2567   21.9860 C   0  0  0  0  0  0  0  0  0  0  0  0
   14.5013  -16.2419   22.3427 C   0  0  0  0  0  0  0  0  0  0  0  0
   14.2517  -17.4651   22.2543 O   0  0  0  0  0  0  0  0  0  0  0  0
   15.7733  -15.8914   22.7845 O   0  0  0  0  0  0  0  0  0  0  0  0
  2  1  1  1
  2  9  1  0
  3  2  1  0
  4  3  1  0
  5  4  2  0
  6  5  1  0
  7  8  2  0
  7  6  1  0
  8  4  1  0
  9 10  2  0
 11 12  1  0
 11  9  1  0
 12 19  1  0
 13 14  1  0
 12 13  1  1
 14 15  2  0
 15 16  1  0
 17 16  1  0
 18 14  1  0
 18 17  2  0
 19 21  1  0
 20 19  2  0
 21 22  1  0
 23 22  1  0
 24 23  2  0
 25 23  1  0
M  END
$$$$
