HHG.pdb
     RDKit          3D

 25 26  0  0  1  0  0  0  0  0999 V2000
   11.8479  -15.4387   14.7076 N   0  0  0  0  0  0  0  0  0  0  0  0
   11.7258  -16.2830   15.8788 C   0  0  1  0  0  0  0  0  0  0  0  0
   12.7367  -17.4071   15.8509 C   0  0  0  0  0  0  0  0  0  0  0  0
   12.3266  -18.3753   14.8005 C   0  0  0  0  0  0  0  0  0  0  0  0
   12.7412  -18.3467   13.4775 C   0  0  0  0  0  0  0  0  0  0  0  0
   12.1529  -19.3835   12.8550 N   0  0  0  0  0  0  0  0  0  0  0  0
   11.3930  -20.0618   13.7089 C   0  0  0  0  0  0  0  0  0  0  0  0
   11.5085  -19.4336   14.8971 N   0  0  0  0  0  0  0  0  0  0  0  0
   11.9001  -15.4516   17.1071 C   0  0  0  0  0  0  0  0  0  0  0  0
   12.6819  -14.4738   17.1238 O   0  0  0  0  0  0  0  0  0  0  0  0
   11.1828  -15.7562   18.2745 N   0  0  0  0  0  0  0  0  0  0  0  0
   11.2524  -15.0512   19.5149 C   0  0  1  0  0  0  0  0  0  0  0  0
    9.9469  -14.7914   20.1783 C   0  0  0  0  0  0  0  0  0  0  0  0
    9.0526  -14.0377   19.2719 C   0  0  0  0  0  0  0  0  0  0  0  0
    8.8346  -12.6887   19.1720 C   0  0  0  0  0  0  0  0  0  0  0  0
    7.9324  -12.5049   18.1976 N   0  0  0  0  0  0  0  0  0  0  0  0
    7.5637  -13.6881   17.6687 C   0  0  0  0  0  0  0  0  0  0  0  0
    8.2675  -14.6112   18.3478 N   0  0  0  0  0  0  0  0  0  0  0  0
   12.1069  -15.8868   20.4369 C   0  0  0  0  0  0  0  0  0  0  0  0
   11.8817  -17.1077   20.6364 O   0  0  0  0  0  0  0  0  0  0  0  0
   13.2119  -15.3198   21.1235 N   0  0  0  0  0  0  0  0  0  0  0  0
   14.1080  -16.1755   21.9147 C   0  0  0  0  0  0  0  0  0  0  0  0
   15.2728  -15.3933   22.3567 C   0  0  0  0  0  0  0  0  0  0  0  0
   15.9983  -14.8247   21.5103 O   0  0  0  0  0  0  0  0  0  0  0  0
   15.6296  -15.2409   23.6929 O   0  0  0  0  0  0  0  0  0  0  0  0
  2  1  1  6
  2  9  1  0
  3  2  1  0
  4  3  1  0
  5  4  2  0
  6  5  1  0
  7  8  2  0
  7  6  1  0
  8  4  1  0
  9 10  2  0
 11 12  1  0
 11  9  1  0
 12 19  1  0
 13 14  1  0
 12 13  1  1
 14 15  2  0
 15 16  1  0
 17 16  1  0
 18 14  1  0
 18 17  2  0
 19 21  1  0
 20 19  2  0
 21 22  1  0
 23 22  1  0
 24 23  2  0
 25 23  1  0
M  END
$$$$
