HHG.pdb
     RDKit          3D

 25 26  0  0  1  0  0  0  0  0999 V2000
   12.0507  -14.3824   20.0923 N   0  0  0  0  0  0  0  0  0  0  0  0
   10.7418  -14.7045   20.6236 C   0  0  1  0  0  0  0  0  0  0  0  0
   10.0265  -15.7069   19.7460 C   0  0  0  0  0  0  0  0  0  0  0  0
    9.2664  -14.9594   18.7105 C   0  0  0  0  0  0  0  0  0  0  0  0
    9.2702  -13.5818   18.5511 C   0  0  0  0  0  0  0  0  0  0  0  0
    8.4632  -13.3005   17.5128 N   0  0  0  0  0  0  0  0  0  0  0  0
    7.9525  -14.4201   17.0103 C   0  0  0  0  0  0  0  0  0  0  0  0
    8.4528  -15.4289   17.7533 N   0  0  0  0  0  0  0  0  0  0  0  0
   10.8892  -15.2346   22.0120 C   0  0  0  0  0  0  0  0  0  0  0  0
   11.9151  -15.0009   22.6907 O   0  0  0  0  0  0  0  0  0  0  0  0
    9.8696  -16.0111   22.5842 N   0  0  0  0  0  0  0  0  0  0  0  0
    9.6952  -16.2803   23.9761 C   0  0  1  0  0  0  0  0  0  0  0  0
    8.2878  -16.2822   24.4570 C   0  0  0  0  0  0  0  0  0  0  0  0
    7.7857  -14.8956   24.5773 C   0  0  0  0  0  0  0  0  0  0  0  0
    8.3736  -13.7923   25.1380 C   0  0  0  0  0  0  0  0  0  0  0  0
    7.5155  -12.7720   24.9965 N   0  0  0  0  0  0  0  0  0  0  0  0
    6.3979  -13.1815   24.3649 C   0  0  0  0  0  0  0  0  0  0  0  0
    6.5920  -14.4895   24.1198 N   0  0  0  0  0  0  0  0  0  0  0  0
   10.2958  -17.6419   24.2292 C   0  0  0  0  0  0  0  0  0  0  0  0
   10.2762  -18.1825   25.3643 O   0  0  0  0  0  0  0  0  0  0  0  0
   10.9138  -18.3744   23.1826 N   0  0  0  0  0  0  0  0  0  0  0  0
   11.5090  -19.6910   23.4539 C   0  0  0  0  0  0  0  0  0  0  0  0
   12.9246  -19.5260   23.8179 C   0  0  0  0  0  0  0  0  0  0  0  0
   13.2296  -18.9530   24.8878 O   0  0  0  0  0  0  0  0  0  0  0  0
   13.9759  -19.9789   23.0268 O   0  0  0  0  0  0  0  0  0  0  0  0
  2  1  1  6
  2  9  1  0
  3  2  1  0
  4  3  1  0
  5  4  2  0
  6  5  1  0
  7  8  2  0
  7  6  1  0
  8  4  1  0
  9 10  2  0
 11 12  1  0
 11  9  1  0
 12 19  1  0
 13 14  1  0
 12 13  1  6
 14 15  2  0
 15 16  1  0
 17 16  1  0
 18 14  1  0
 18 17  2  0
 19 21  1  0
 20 19  2  0
 21 22  1  0
 23 22  1  0
 24 23  2  0
 25 23  1  0
M  END
$$$$
