HHG.pdb
     RDKit          3D

 25 26  0  0  1  0  0  0  0  0999 V2000
    9.8063  -17.4032   14.9739 N   0  0  0  0  0  0  0  0  0  0  0  0
   10.1097  -16.7449   16.2285 C   0  0  1  0  0  0  0  0  0  0  0  0
    8.8495  -16.2694   16.9156 C   0  0  0  0  0  0  0  0  0  0  0  0
    8.3137  -15.1107   16.1545 C   0  0  0  0  0  0  0  0  0  0  0  0
    7.4999  -15.1939   15.0348 C   0  0  0  0  0  0  0  0  0  0  0  0
    7.2338  -13.9352   14.6434 N   0  0  0  0  0  0  0  0  0  0  0  0
    7.8325  -13.0659   15.4513 C   0  0  0  0  0  0  0  0  0  0  0  0
    8.4906  -13.7993   16.3726 N   0  0  0  0  0  0  0  0  0  0  0  0
   10.8643  -17.6853   17.1096 C   0  0  0  0  0  0  0  0  0  0  0  0
   10.6391  -18.9168   17.0887 O   0  0  0  0  0  0  0  0  0  0  0  0
   11.8482  -17.1987   17.9843 N   0  0  0  0  0  0  0  0  0  0  0  0
   12.6934  -17.9862   18.8245 C   0  0  1  0  0  0  0  0  0  0  0  0
   14.1490  -17.8989   18.5316 C   0  0  0  0  0  0  0  0  0  0  0  0
   14.4651  -18.6289   17.2840 C   0  0  0  0  0  0  0  0  0  0  0  0
   13.9920  -19.8290   16.8225 C   0  0  0  0  0  0  0  0  0  0  0  0
   14.5832  -20.0597   15.6416 N   0  0  0  0  0  0  0  0  0  0  0  0
   15.4191  -19.0501   15.3290 C   0  0  0  0  0  0  0  0  0  0  0  0
   15.3260  -18.1861   16.3554 N   0  0  0  0  0  0  0  0  0  0  0  0
   12.4543  -17.5143   20.2383 C   0  0  0  0  0  0  0  0  0  0  0  0
   12.6829  -16.3311   20.5975 O   0  0  0  0  0  0  0  0  0  0  0  0
   11.9559  -18.3987   21.2299 N   0  0  0  0  0  0  0  0  0  0  0  0
   11.6576  -17.9013   22.5808 C   0  0  0  0  0  0  0  0  0  0  0  0
   12.5896  -18.5057   23.5450 C   0  0  0  0  0  0  0  0  0  0  0  0
   13.3890  -19.3913   23.1672 O   0  0  0  0  0  0  0  0  0  0  0  0
   12.6410  -18.1458   24.8882 O   0  0  0  0  0  0  0  0  0  0  0  0
  2  1  1  6
  2  9  1  0
  3  2  1  0
  4  3  1  0
  5  4  2  0
  6  5  1  0
  7  8  2  0
  7  6  1  0
  8  4  1  0
  9 10  2  0
 11 12  1  0
 11  9  1  0
 12 19  1  0
 13 14  1  0
 12 13  1  6
 14 15  2  0
 15 16  1  0
 17 16  1  0
 18 14  1  0
 18 17  2  0
 19 21  1  0
 20 19  2  0
 21 22  1  0
 23 22  1  0
 24 23  2  0
 25 23  1  0
M  END
$$$$
