HHG.pdb
     RDKit          3D

 25 26  0  0  1  0  0  0  0  0999 V2000
   13.4994  -14.0077   16.8592 N   0  0  0  0  0  0  0  0  0  0  0  0
   13.3791  -15.1440   17.7502 C   0  0  1  0  0  0  0  0  0  0  0  0
   14.7122  -15.8306   17.9445 C   0  0  0  0  0  0  0  0  0  0  0  0
   15.1256  -16.4201   16.6443 C   0  0  0  0  0  0  0  0  0  0  0  0
   14.5250  -16.1645   15.4208 C   0  0  0  0  0  0  0  0  0  0  0  0
   15.1859  -16.8841   14.4966 N   0  0  0  0  0  0  0  0  0  0  0  0
   16.1663  -17.5766   15.0674 C   0  0  0  0  0  0  0  0  0  0  0  0
   16.1182  -17.2832   16.3833 N   0  0  0  0  0  0  0  0  0  0  0  0
   12.8285  -14.6873   19.0611 C   0  0  0  0  0  0  0  0  0  0  0  0
   13.3063  -13.6943   19.6556 O   0  0  0  0  0  0  0  0  0  0  0  0
   11.7557  -15.3709   19.6540 N   0  0  0  0  0  0  0  0  0  0  0  0
   11.1741  -15.0853   20.9270 C   0  0  1  0  0  0  0  0  0  0  0  0
    9.6896  -15.1574   20.9840 C   0  0  0  0  0  0  0  0  0  0  0  0
    9.0926  -14.1425   20.0880 C   0  0  0  0  0  0  0  0  0  0  0  0
    9.6965  -13.1804   19.3220 C   0  0  0  0  0  0  0  0  0  0  0  0
    8.7233  -12.5101   18.6890 N   0  0  0  0  0  0  0  0  0  0  0  0
    7.5162  -13.0080   19.0217 C   0  0  0  0  0  0  0  0  0  0  0  0
    7.7738  -14.0091   19.8819 N   0  0  0  0  0  0  0  0  0  0  0  0
   11.7459  -16.0911   21.8964 C   0  0  0  0  0  0  0  0  0  0  0  0
   11.2389  -17.2307   22.0566 O   0  0  0  0  0  0  0  0  0  0  0  0
   12.8927  -15.7863   22.6748 N   0  0  0  0  0  0  0  0  0  0  0  0
   13.4784  -16.8053   23.5577 C   0  0  0  0  0  0  0  0  0  0  0  0
   14.6619  -16.2507   24.2327 C   0  0  0  0  0  0  0  0  0  0  0  0
   15.2771  -15.2888   23.7206 O   0  0  0  0  0  0  0  0  0  0  0  0
   15.1550  -16.7408   25.4381 O   0  0  0  0  0  0  0  0  0  0  0  0
  2  1  1  6
  2  9  1  0
  3  2  1  0
  4  3  1  0
  5  4  2  0
  6  5  1  0
  7  8  2  0
  7  6  1  0
  8  4  1  0
  9 10  2  0
 11 12  1  0
 11  9  1  0
 12 19  1  0
 13 14  1  0
 12 13  1  6
 14 15  2  0
 15 16  1  0
 17 16  1  0
 18 14  1  0
 18 17  2  0
 19 21  1  0
 20 19  2  0
 21 22  1  0
 23 22  1  0
 24 23  2  0
 25 23  1  0
M  END
$$$$
