HHG.pdb
     RDKit          3D

 25 26  0  0  1  0  0  0  0  0999 V2000
   12.1082  -16.7245   18.8894 N   0  0  0  0  0  0  0  0  0  0  0  0
   12.7068  -15.4419   19.1991 C   0  0  1  0  0  0  0  0  0  0  0  0
   12.9609  -14.6391   17.9431 C   0  0  0  0  0  0  0  0  0  0  0  0
   13.0379  -15.5815   16.7965 C   0  0  0  0  0  0  0  0  0  0  0  0
   12.9557  -16.9628   16.8867 C   0  0  0  0  0  0  0  0  0  0  0  0
   13.0678  -17.4493   15.6380 N   0  0  0  0  0  0  0  0  0  0  0  0
   13.2157  -16.4550   14.7684 C   0  0  0  0  0  0  0  0  0  0  0  0
   13.1956  -15.3162   15.4914 N   0  0  0  0  0  0  0  0  0  0  0  0
   11.8116  -14.6909   20.1291 C   0  0  0  0  0  0  0  0  0  0  0  0
   12.1011  -13.5368   20.5186 O   0  0  0  0  0  0  0  0  0  0  0  0
   10.6191  -15.2730   20.5862 N   0  0  0  0  0  0  0  0  0  0  0  0
    9.7311  -14.7221   21.5600 C   0  0  1  0  0  0  0  0  0  0  0  0
    8.3151  -14.5792   21.1280 C   0  0  0  0  0  0  0  0  0  0  0  0
    8.2454  -13.8892   19.8210 C   0  0  0  0  0  0  0  0  0  0  0  0
    8.3233  -12.5536   19.5256 C   0  0  0  0  0  0  0  0  0  0  0  0
    8.2060  -12.4351   18.1954 N   0  0  0  0  0  0  0  0  0  0  0  0
    8.0556  -13.6474   17.6267 C   0  0  0  0  0  0  0  0  0  0  0  0
    8.0836  -14.5210   18.6488 N   0  0  0  0  0  0  0  0  0  0  0  0
    9.7824  -15.6403   22.7570 C   0  0  0  0  0  0  0  0  0  0  0  0
    8.7420  -16.0577   23.3266 O   0  0  0  0  0  0  0  0  0  0  0  0
   11.0227  -16.0740   23.2932 N   0  0  0  0  0  0  0  0  0  0  0  0
   11.0580  -16.8393   24.5479 C   0  0  0  0  0  0  0  0  0  0  0  0
   12.4470  -17.2090   24.8604 C   0  0  0  0  0  0  0  0  0  0  0  0
   13.3608  -16.9390   24.0491 O   0  0  0  0  0  0  0  0  0  0  0  0
   12.8206  -17.8581   26.0332 O   0  0  0  0  0  0  0  0  0  0  0  0
  2  1  1  6
  2  9  1  0
  3  2  1  0
  4  3  1  0
  5  4  2  0
  6  5  1  0
  7  8  2  0
  7  6  1  0
  8  4  1  0
  9 10  2  0
 11 12  1  0
 11  9  1  0
 12 19  1  0
 13 14  1  0
 12 13  1  6
 14 15  2  0
 15 16  1  0
 17 16  1  0
 18 14  1  0
 18 17  2  0
 19 21  1  0
 20 19  2  0
 21 22  1  0
 23 22  1  0
 24 23  2  0
 25 23  1  0
M  END
$$$$
