HHG.pdb
     RDKit          3D

 25 26  0  0  1  0  0  0  0  0999 V2000
    7.8987  -17.3622   19.3169 N   0  0  0  0  0  0  0  0  0  0  0  0
    8.9984  -16.5550   19.8054 C   0  0  1  0  0  0  0  0  0  0  0  0
    8.4959  -15.3238   20.5252 C   0  0  0  0  0  0  0  0  0  0  0  0
    7.8818  -14.4163   19.5211 C   0  0  0  0  0  0  0  0  0  0  0  0
    7.8584  -14.6338   18.1517 C   0  0  0  0  0  0  0  0  0  0  0  0
    7.2162  -13.5914   17.5954 N   0  0  0  0  0  0  0  0  0  0  0  0
    6.8347  -12.7317   18.5346 C   0  0  0  0  0  0  0  0  0  0  0  0
    7.2487  -13.2492   19.7096 N   0  0  0  0  0  0  0  0  0  0  0  0
    9.8521  -17.3801   20.7113 C   0  0  0  0  0  0  0  0  0  0  0  0
    9.3449  -18.1504   21.5581 O   0  0  0  0  0  0  0  0  0  0  0  0
   11.2510  -17.3044   20.6271 N   0  0  0  0  0  0  0  0  0  0  0  0
   12.1841  -18.1003   21.3595 C   0  0  1  0  0  0  0  0  0  0  0  0
   12.9573  -19.0839   20.5553 C   0  0  0  0  0  0  0  0  0  0  0  0
   12.0467  -20.0843   19.9559 C   0  0  0  0  0  0  0  0  0  0  0  0
   10.9197  -20.6688   20.4710 C   0  0  0  0  0  0  0  0  0  0  0  0
   10.4489  -21.5096   19.5391 N   0  0  0  0  0  0  0  0  0  0  0  0
   11.2338  -21.4854   18.4441 C   0  0  0  0  0  0  0  0  0  0  0  0
   12.2067  -20.6016   18.7286 N   0  0  0  0  0  0  0  0  0  0  0  0
   13.1500  -17.1404   22.0107 C   0  0  0  0  0  0  0  0  0  0  0  0
   13.6681  -16.1820   21.3829 O   0  0  0  0  0  0  0  0  0  0  0  0
   13.5158  -17.2839   23.3744 N   0  0  0  0  0  0  0  0  0  0  0  0
   14.2825  -16.2262   24.0488 C   0  0  0  0  0  0  0  0  0  0  0  0
   15.7204  -16.4427   23.8271 C   0  0  0  0  0  0  0  0  0  0  0  0
   16.1035  -17.3924   23.1078 O   0  0  0  0  0  0  0  0  0  0  0  0
   16.7100  -15.6366   24.3815 O   0  0  0  0  0  0  0  0  0  0  0  0
  2  1  1  1
  2  9  1  0
  3  2  1  0
  4  3  1  0
  5  4  2  0
  6  5  1  0
  7  8  2  0
  7  6  1  0
  8  4  1  0
  9 10  2  0
 11 12  1  0
 11  9  1  0
 12 19  1  0
 13 14  1  0
 12 13  1  6
 14 15  2  0
 15 16  1  0
 17 16  1  0
 18 14  1  0
 18 17  2  0
 19 21  1  0
 20 19  2  0
 21 22  1  0
 23 22  1  0
 24 23  2  0
 25 23  1  0
M  END
$$$$
