HHG.pdb
     RDKit          3D

 25 26  0  0  1  0  0  0  0  0999 V2000
    7.5307  -16.7425   21.0673 N   0  0  0  0  0  0  0  0  0  0  0  0
    7.7290  -15.6967   22.0503 C   0  0  1  0  0  0  0  0  0  0  0  0
    6.9910  -14.4350   21.6633 C   0  0  0  0  0  0  0  0  0  0  0  0
    7.6539  -13.8574   20.4651 C   0  0  0  0  0  0  0  0  0  0  0  0
    8.7716  -14.3836   19.8350 C   0  0  0  0  0  0  0  0  0  0  0  0
    9.0597  -13.5763   18.7988 N   0  0  0  0  0  0  0  0  0  0  0  0
    8.1889  -12.5738   18.7406 C   0  0  0  0  0  0  0  0  0  0  0  0
    7.3332  -12.7580   19.7671 N   0  0  0  0  0  0  0  0  0  0  0  0
    7.2723  -16.1822   23.3867 C   0  0  0  0  0  0  0  0  0  0  0  0
    6.0990  -15.9925   23.7803 O   0  0  0  0  0  0  0  0  0  0  0  0
    8.1603  -16.8661   24.2315 N   0  0  0  0  0  0  0  0  0  0  0  0
    7.8546  -17.4017   25.5200 C   0  0  1  0  0  0  0  0  0  0  0  0
    7.6720  -18.8767   25.5740 C   0  0  0  0  0  0  0  0  0  0  0  0
    6.6196  -19.2978   24.6229 C   0  0  0  0  0  0  0  0  0  0  0  0
    5.4337  -18.6932   24.2982 C   0  0  0  0  0  0  0  0  0  0  0  0
    4.8318  -19.4679   23.3846 N   0  0  0  0  0  0  0  0  0  0  0  0
    5.5894  -20.5483   23.1116 C   0  0  0  0  0  0  0  0  0  0  0  0
    6.6808  -20.4172   23.8864 N   0  0  0  0  0  0  0  0  0  0  0  0
    9.0002  -17.0216   26.4264 C   0  0  0  0  0  0  0  0  0  0  0  0
   10.1973  -17.0532   26.0427 O   0  0  0  0  0  0  0  0  0  0  0  0
    8.7682  -16.6084   27.7641 N   0  0  0  0  0  0  0  0  0  0  0  0
    9.8978  -16.2414   28.6304 C   0  0  0  0  0  0  0  0  0  0  0  0
   10.4575  -17.4527   29.2495 C   0  0  0  0  0  0  0  0  0  0  0  0
   10.0628  -18.5808   28.8785 O   0  0  0  0  0  0  0  0  0  0  0  0
   11.4249  -17.4239   30.2492 O   0  0  0  0  0  0  0  0  0  0  0  0
  2  1  1  6
  2  9  1  0
  3  2  1  0
  4  3  1  0
  5  4  2  0
  6  5  1  0
  7  8  2  0
  7  6  1  0
  8  4  1  0
  9 10  2  0
 11 12  1  0
 11  9  1  0
 12 19  1  0
 13 14  1  0
 12 13  1  6
 14 15  2  0
 15 16  1  0
 17 16  1  0
 18 14  1  0
 18 17  2  0
 19 21  1  0
 20 19  2  0
 21 22  1  0
 23 22  1  0
 24 23  2  0
 25 23  1  0
M  END
$$$$
