HHG.pdb
     RDKit          3D

 25 26  0  0  1  0  0  0  0  0999 V2000
    9.2486  -17.0361   18.6370 N   0  0  0  0  0  0  0  0  0  0  0  0
    9.7236  -16.5730   19.9251 C   0  0  1  0  0  0  0  0  0  0  0  0
    8.5821  -16.0743   20.7822 C   0  0  0  0  0  0  0  0  0  0  0  0
    8.1301  -14.7665   20.2398 C   0  0  0  0  0  0  0  0  0  0  0  0
    8.6543  -14.1384   19.1201 C   0  0  0  0  0  0  0  0  0  0  0  0
    7.9809  -12.9853   18.9604 N   0  0  0  0  0  0  0  0  0  0  0  0
    7.0643  -12.8520   19.9138 C   0  0  0  0  0  0  0  0  0  0  0  0
    7.1664  -13.9501   20.6908 N   0  0  0  0  0  0  0  0  0  0  0  0
   10.4489  -17.6831   20.6120 C   0  0  0  0  0  0  0  0  0  0  0  0
   10.0719  -18.8718   20.5007 O   0  0  0  0  0  0  0  0  0  0  0  0
   11.5763  -17.4088   21.4016 N   0  0  0  0  0  0  0  0  0  0  0  0
   12.3421  -18.3633   22.1385 C   0  0  1  0  0  0  0  0  0  0  0  0
   13.8032  -18.3646   21.8606 C   0  0  0  0  0  0  0  0  0  0  0  0
   14.0800  -19.0479   20.5777 C   0  0  0  0  0  0  0  0  0  0  0  0
   13.2258  -19.6903   19.7205 C   0  0  0  0  0  0  0  0  0  0  0  0
   13.9612  -20.1442   18.6956 N   0  0  0  0  0  0  0  0  0  0  0  0
   15.2570  -19.8158   18.8647 C   0  0  0  0  0  0  0  0  0  0  0  0
   15.3001  -19.1433   20.0285 N   0  0  0  0  0  0  0  0  0  0  0  0
   12.1269  -18.0513   23.5996 C   0  0  0  0  0  0  0  0  0  0  0  0
   12.1998  -16.8806   24.0528 O   0  0  0  0  0  0  0  0  0  0  0  0
   11.8301  -19.0802   24.5309 N   0  0  0  0  0  0  0  0  0  0  0  0
   11.6043  -18.7529   25.9462 C   0  0  0  0  0  0  0  0  0  0  0  0
   11.2116  -19.9681   26.6762 C   0  0  0  0  0  0  0  0  0  0  0  0
   10.9947  -19.9121   27.9074 O   0  0  0  0  0  0  0  0  0  0  0  0
   11.0615  -21.2108   26.0685 O   0  0  0  0  0  0  0  0  0  0  0  0
  2  1  1  6
  2  9  1  0
  3  2  1  0
  4  3  1  0
  5  4  2  0
  6  5  1  0
  7  8  2  0
  7  6  1  0
  8  4  1  0
  9 10  2  0
 11 12  1  0
 11  9  1  0
 12 19  1  0
 13 14  1  0
 12 13  1  6
 14 15  2  0
 15 16  1  0
 17 16  1  0
 18 14  1  0
 18 17  2  0
 19 21  1  0
 20 19  2  0
 21 22  1  0
 23 22  1  0
 24 23  2  0
 25 23  1  0
M  END
$$$$
