MFL.pdb
     RDKit          3D

 28 28  0  0  1  0  0  0  0  0999 V2000
   23.8201  -22.2449  -16.9426 C   0  0  0  0  0  0  0  0  0  0  0  0
   24.8914  -20.9277  -17.5577 S   0  0  0  0  0  0  0  0  0  0  0  0
   26.6219  -21.1992  -17.0669 C   0  0  0  0  0  0  0  0  0  0  0  0
   26.9921  -22.6164  -17.4953 C   0  0  0  0  0  0  0  0  0  0  0  0
   28.3633  -22.9894  -16.9328 C   0  0  2  0  0  0  0  0  0  0  0  0
   29.3309  -22.1318  -17.5844 N   0  0  0  0  0  0  0  0  0  0  0  0
   28.6118  -24.3998  -17.3055 C   0  0  0  0  0  0  0  0  0  0  0  0
   28.9718  -24.7145  -18.4864 O   0  0  0  0  0  0  0  0  0  0  0  0
   28.4641  -25.4668  -16.3777 N   0  0  0  0  0  0  0  0  0  0  0  0
   28.6332  -26.8679  -16.7408 C   0  0  1  0  0  0  0  0  0  0  0  0
   29.7570  -27.5123  -15.9938 C   0  0  0  0  0  0  0  0  0  0  0  0
   31.0769  -26.9745  -16.2530 C   0  0  0  0  0  0  0  0  0  0  0  0
   31.7161  -26.1901  -15.3197 C   0  0  0  0  0  0  0  0  0  0  0  0
   32.9942  -25.6699  -15.5751 C   0  0  0  0  0  0  0  0  0  0  0  0
   33.6220  -25.9363  -16.7567 C   0  0  0  0  0  0  0  0  0  0  0  0
   32.9970  -26.7169  -17.6968 C   0  0  0  0  0  0  0  0  0  0  0  0
   31.7312  -27.2239  -17.4275 C   0  0  0  0  0  0  0  0  0  0  0  0
   27.3644  -27.6010  -16.7416 C   0  0  0  0  0  0  0  0  0  0  0  0
   26.4959  -27.3884  -15.8434 O   0  0  0  0  0  0  0  0  0  0  0  0
   25.1603  -29.2726  -21.5059 C   0  0  0  0  0  0  0  0  0  0  0  0
   25.3078  -28.6120  -20.1294 C   0  0  1  0  0  0  0  0  0  0  0  0
   24.0821  -27.8242  -19.8023 C   0  0  0  0  0  0  0  0  0  0  0  0
   25.5695  -29.7436  -19.1662 C   0  0  0  0  0  0  0  0  0  0  0  0
   25.7399  -29.2542  -17.7285 C   0  0  2  0  0  0  0  0  0  0  0  0
   27.0339  -28.5677  -17.7218 N   0  0  0  0  0  0  0  0  0  0  0  0
   25.8370  -30.4495  -16.8619 C   0  0  0  0  0  0  0  0  0  0  0  0
   26.9298  -31.0501  -16.7447 O   0  0  0  0  0  0  0  0  0  0  0  0
   24.7585  -30.9576  -16.1521 O   0  0  0  0  0  0  0  0  0  0  0  0
  1  2  1  0
  3  2  1  0
  4  3  1  0
  5  4  1  0
  5  6  1  6
  7  5  1  0
  8  7  2  0
  9  7  1  0
 10  9  1  0
 10 11  1  1
 11 12  1  0
 12 17  2  0
 13 14  2  0
 13 12  1  0
 14 15  1  0
 15 16  2  0
 17 16  1  0
 18 25  1  0
 18 10  1  0
 19 18  2  0
 21 20  1  6
 21 23  1  0
 21 22  1  0
 24 23  1  6
 24 26  1  0
 24 25  1  0
 26 28  1  0
 27 26  2  0
M  END
$$$$
