MFL.pdb
     RDKit          3D

 28 28  0  0  1  0  0  0  0  0999 V2000
   26.7659  -16.7836  -16.4526 C   0  0  0  0  0  0  0  0  0  0  0  0
   28.3018  -16.5773  -15.5255 S   0  0  0  0  0  0  0  0  0  0  0  0
   28.9705  -18.1814  -14.9881 C   0  0  0  0  0  0  0  0  0  0  0  0
   27.7978  -19.0004  -14.4563 C   0  0  0  0  0  0  0  0  0  0  0  0
   28.3135  -20.2678  -13.7755 C   0  0  2  0  0  0  0  0  0  0  0  0
   28.8640  -21.1087  -14.8176 N   0  0  0  0  0  0  0  0  0  0  0  0
   27.1428  -20.9324  -13.1608 C   0  0  0  0  0  0  0  0  0  0  0  0
   26.3499  -21.6452  -13.8581 O   0  0  0  0  0  0  0  0  0  0  0  0
   26.8434  -20.8131  -11.7762 N   0  0  0  0  0  0  0  0  0  0  0  0
   25.6731  -21.4233  -11.1584 C   0  0  1  0  0  0  0  0  0  0  0  0
   25.9338  -21.8401   -9.7461 C   0  0  0  0  0  0  0  0  0  0  0  0
   26.7157  -20.9164   -8.9500 C   0  0  0  0  0  0  0  0  0  0  0  0
   26.1161  -19.8625   -8.2982 C   0  0  0  0  0  0  0  0  0  0  0  0
   26.8772  -18.9690   -7.5290 C   0  0  0  0  0  0  0  0  0  0  0  0
   28.2268  -19.1343   -7.4170 C   0  0  0  0  0  0  0  0  0  0  0  0
   28.8385  -20.1805   -8.0614 C   0  0  0  0  0  0  0  0  0  0  0  0
   28.0696  -21.0560   -8.8191 C   0  0  0  0  0  0  0  0  0  0  0  0
   24.4543  -20.6398  -11.3777 C   0  0  0  0  0  0  0  0  0  0  0  0
   24.4743  -19.3760  -11.2849 O   0  0  0  0  0  0  0  0  0  0  0  0
   21.9960  -20.6974  -16.2975 C   0  0  0  0  0  0  0  0  0  0  0  0
   21.5540  -20.2234  -14.9073 C   0  0  1  0  0  0  0  0  0  0  0  0
   20.1238  -20.5823  -14.6714 C   0  0  0  0  0  0  0  0  0  0  0  0
   22.5058  -20.8789  -13.9373 C   0  0  0  0  0  0  0  0  0  0  0  0
   22.1950  -20.5175  -12.4853 C   0  0  2  0  0  0  0  0  0  0  0  0
   23.2081  -21.2284  -11.7016 N   0  0  0  0  0  0  0  0  0  0  0  0
   20.8670  -21.0839  -12.1619 C   0  0  0  0  0  0  0  0  0  0  0  0
   20.7285  -22.3226  -12.0380 O   0  0  0  0  0  0  0  0  0  0  0  0
   19.7352  -20.3016  -11.9829 O   0  0  0  0  0  0  0  0  0  0  0  0
  1  2  1  0
  3  2  1  0
  4  3  1  0
  5  4  1  0
  5  6  1  6
  7  5  1  0
  8  7  2  0
  9  7  1  0
 10  9  1  0
 10 11  1  1
 11 12  1  0
 12 17  2  0
 13 14  2  0
 13 12  1  0
 14 15  1  0
 15 16  2  0
 17 16  1  0
 18 25  1  0
 18 10  1  0
 19 18  2  0
 21 20  1  6
 21 23  1  0
 21 22  1  0
 24 23  1  6
 24 26  1  0
 24 25  1  0
 26 28  1  0
 27 26  2  0
M  END
$$$$
