MFL.pdb
     RDKit          3D

 28 28  0  0  1  0  0  0  0  0999 V2000
   24.0516  -19.0634  -17.3639 C   0  0  0  0  0  0  0  0  0  0  0  0
   25.2571  -19.3930  -18.6674 S   0  0  0  0  0  0  0  0  0  0  0  0
   26.6613  -20.3641  -18.0394 C   0  0  0  0  0  0  0  0  0  0  0  0
   26.4313  -20.5698  -16.5449 C   0  0  0  0  0  0  0  0  0  0  0  0
   27.6368  -21.2749  -15.9243 C   0  0  2  0  0  0  0  0  0  0  0  0
   27.7362  -22.5722  -16.5594 N   0  0  0  0  0  0  0  0  0  0  0  0
   27.3422  -21.4429  -14.4838 C   0  0  0  0  0  0  0  0  0  0  0  0
   26.4394  -22.2494  -14.0868 O   0  0  0  0  0  0  0  0  0  0  0  0
   28.0418  -20.7225  -13.4775 N   0  0  0  0  0  0  0  0  0  0  0  0
   27.6848  -20.7753  -12.0657 C   0  0  1  0  0  0  0  0  0  0  0  0
   28.7738  -20.2453  -11.1885 C   0  0  0  0  0  0  0  0  0  0  0  0
   28.4639  -20.1676   -9.7756 C   0  0  0  0  0  0  0  0  0  0  0  0
   28.9396  -21.1126   -8.8948 C   0  0  0  0  0  0  0  0  0  0  0  0
   28.6361  -21.0345   -7.5269 C   0  0  0  0  0  0  0  0  0  0  0  0
   27.8625  -20.0167   -7.0507 C   0  0  0  0  0  0  0  0  0  0  0  0
   27.3811  -19.0671   -7.9171 C   0  0  0  0  0  0  0  0  0  0  0  0
   27.6913  -19.1597   -9.2687 C   0  0  0  0  0  0  0  0  0  0  0  0
   26.3435  -20.2438  -11.8091 C   0  0  0  0  0  0  0  0  0  0  0  0
   25.9539  -19.1769  -12.3714 O   0  0  0  0  0  0  0  0  0  0  0  0
   21.1488  -20.8955  -13.0949 C   0  0  0  0  0  0  0  0  0  0  0  0
   21.8010  -20.4178  -11.7913 C   0  0  1  0  0  0  0  0  0  0  0  0
   21.0921  -21.0049  -10.6155 C   0  0  0  0  0  0  0  0  0  0  0  0
   23.2480  -20.8338  -11.8895 C   0  0  0  0  0  0  0  0  0  0  0  0
   24.0784  -20.3290  -10.7100 C   0  0  2  0  0  0  0  0  0  0  0  0
   25.4188  -20.8729  -10.9410 N   0  0  0  0  0  0  0  0  0  0  0  0
   23.5258  -20.9444   -9.4832 C   0  0  0  0  0  0  0  0  0  0  0  0
   22.7469  -20.2909   -8.7518 O   0  0  0  0  0  0  0  0  0  0  0  0
   23.8285  -22.2385   -9.0850 O   0  0  0  0  0  0  0  0  0  0  0  0
  1  2  1  0
  3  2  1  0
  4  3  1  0
  5  4  1  0
  5  6  1  6
  7  5  1  0
  8  7  2  0
  9  7  1  0
 10  9  1  0
 10 11  1  1
 11 12  1  0
 12 17  2  0
 13 14  2  0
 13 12  1  0
 14 15  1  0
 15 16  2  0
 17 16  1  0
 18 25  1  0
 18 10  1  0
 19 18  2  0
 21 20  1  6
 21 23  1  0
 21 22  1  0
 24 23  1  6
 24 26  1  0
 24 25  1  0
 26 28  1  0
 27 26  2  0
M  END
$$$$
