MFL.pdb
     RDKit          3D

 28 28  0  0  1  0  0  0  0  0999 V2000
   24.1331  -19.9961  -19.1872 C   0  0  0  0  0  0  0  0  0  0  0  0
   25.6948  -19.4446  -19.9068 S   0  0  0  0  0  0  0  0  0  0  0  0
   27.1176  -20.1306  -19.0045 C   0  0  0  0  0  0  0  0  0  0  0  0
   26.6816  -20.3149  -17.5537 C   0  0  0  0  0  0  0  0  0  0  0  0
   27.8673  -20.7781  -16.7080 C   0  0  2  0  0  0  0  0  0  0  0  0
   28.3771  -21.9840  -17.3262 N   0  0  0  0  0  0  0  0  0  0  0  0
   27.3393  -21.0895  -15.3611 C   0  0  0  0  0  0  0  0  0  0  0  0
   26.6150  -22.1181  -15.1602 O   0  0  0  0  0  0  0  0  0  0  0  0
   27.6084  -20.2680  -14.2324 N   0  0  0  0  0  0  0  0  0  0  0  0
   27.0781  -20.5417  -12.9030 C   0  0  1  0  0  0  0  0  0  0  0  0
   27.9425  -19.9735  -11.8231 C   0  0  0  0  0  0  0  0  0  0  0  0
   27.4854  -20.1961  -10.4667 C   0  0  0  0  0  0  0  0  0  0  0  0
   27.7966  -21.3585   -9.7980 C   0  0  0  0  0  0  0  0  0  0  0  0
   27.3507  -21.5710   -8.4844 C   0  0  0  0  0  0  0  0  0  0  0  0
   26.6000  -20.6242   -7.8509 C   0  0  0  0  0  0  0  0  0  0  0  0
   26.2819  -19.4603   -8.5052 C   0  0  0  0  0  0  0  0  0  0  0  0
   26.7316  -19.2662   -9.8059 C   0  0  0  0  0  0  0  0  0  0  0  0
   25.6477  -20.2402  -12.8000 C   0  0  0  0  0  0  0  0  0  0  0  0
   25.1998  -19.1086  -13.1538 O   0  0  0  0  0  0  0  0  0  0  0  0
   21.8112  -23.2598  -14.7292 C   0  0  0  0  0  0  0  0  0  0  0  0
   22.4167  -21.9242  -14.2793 C   0  0  1  0  0  0  0  0  0  0  0  0
   21.5586  -20.7902  -14.7349 C   0  0  0  0  0  0  0  0  0  0  0  0
   22.5360  -22.0219  -12.7784 C   0  0  0  0  0  0  0  0  0  0  0  0
   23.2793  -20.8301  -12.1764 C   0  0  2  0  0  0  0  0  0  0  0  0
   24.6975  -21.1703  -12.3137 N   0  0  0  0  0  0  0  0  0  0  0  0
   22.9447  -20.7804  -10.7361 C   0  0  0  0  0  0  0  0  0  0  0  0
   23.6388  -21.4169   -9.9102 O   0  0  0  0  0  0  0  0  0  0  0  0
   21.8778  -20.0498  -10.2331 O   0  0  0  0  0  0  0  0  0  0  0  0
  1  2  1  0
  3  2  1  0
  4  3  1  0
  5  4  1  0
  5  6  1  6
  7  5  1  0
  8  7  2  0
  9  7  1  0
 10  9  1  0
 10 11  1  1
 11 12  1  0
 12 17  2  0
 13 14  2  0
 13 12  1  0
 14 15  1  0
 15 16  2  0
 17 16  1  0
 18 25  1  0
 18 10  1  0
 19 18  2  0
 21 20  1  1
 21 23  1  0
 21 22  1  0
 24 23  1  6
 24 26  1  0
 24 25  1  0
 26 28  1  0
 27 26  2  0
M  END
$$$$
