MFL.pdb
     RDKit          3D

 28 28  0  0  1  0  0  0  0  0999 V2000
   29.6737  -18.7020  -14.1902 C   0  0  0  0  0  0  0  0  0  0  0  0
   29.4496  -17.8845  -15.7848 S   0  0  0  0  0  0  0  0  0  0  0  0
   27.9986  -16.7875  -15.7674 C   0  0  0  0  0  0  0  0  0  0  0  0
   27.1132  -17.2337  -14.6073 C   0  0  0  0  0  0  0  0  0  0  0  0
   26.3110  -18.4707  -15.0099 C   0  0  2  0  0  0  0  0  0  0  0  0
   25.2966  -18.0268  -15.9427 N   0  0  0  0  0  0  0  0  0  0  0  0
   25.6701  -18.9866  -13.7799 C   0  0  0  0  0  0  0  0  0  0  0  0
   24.7681  -18.3179  -13.1779 O   0  0  0  0  0  0  0  0  0  0  0  0
   26.0216  -20.2409  -13.2103 N   0  0  0  0  0  0  0  0  0  0  0  0
   25.3609  -20.7963  -12.0362 C   0  0  1  0  0  0  0  0  0  0  0  0
   24.5522  -22.0102  -12.3657 C   0  0  0  0  0  0  0  0  0  0  0  0
   23.3530  -21.7770  -13.1441 C   0  0  0  0  0  0  0  0  0  0  0  0
   23.3139  -22.0738  -14.4878 C   0  0  0  0  0  0  0  0  0  0  0  0
   22.1507  -21.8452  -15.2387 C   0  0  0  0  0  0  0  0  0  0  0  0
   21.0391  -21.3237  -14.6440 C   0  0  0  0  0  0  0  0  0  0  0  0
   21.0634  -21.0227  -13.3051 C   0  0  0  0  0  0  0  0  0  0  0  0
   22.2238  -21.2554  -12.5763 C   0  0  0  0  0  0  0  0  0  0  0  0
   26.2696  -20.9258  -10.8938 C   0  0  0  0  0  0  0  0  0  0  0  0
   27.2846  -21.6819  -10.9592 O   0  0  0  0  0  0  0  0  0  0  0  0
   29.2339  -20.2885   -6.7095 C   0  0  0  0  0  0  0  0  0  0  0  0
   27.8587  -19.6695   -6.4297 C   0  0  1  0  0  0  0  0  0  0  0  0
   28.0079  -18.4368   -5.6002 C   0  0  0  0  0  0  0  0  0  0  0  0
   27.2504  -19.4109   -7.7860 C   0  0  0  0  0  0  0  0  0  0  0  0
   26.6878  -20.6817   -8.4216 C   0  0  2  0  0  0  0  0  0  0  0  0
   26.0788  -20.2306   -9.6752 N   0  0  0  0  0  0  0  0  0  0  0  0
   25.6173  -21.1853   -7.5331 C   0  0  0  0  0  0  0  0  0  0  0  0
   24.4180  -20.9360   -7.7949 O   0  0  0  0  0  0  0  0  0  0  0  0
   25.8713  -21.9381   -6.3957 O   0  0  0  0  0  0  0  0  0  0  0  0
  1  2  1  0
  3  2  1  0
  4  3  1  0
  5  4  1  0
  5  6  1  6
  7  5  1  0
  8  7  2  0
  9  7  1  0
 10  9  1  0
 10 11  1  6
 11 12  1  0
 12 17  2  0
 13 14  2  0
 13 12  1  0
 14 15  1  0
 15 16  2  0
 17 16  1  0
 18 25  1  0
 18 10  1  0
 19 18  2  0
 21 20  1  6
 21 23  1  0
 21 22  1  0
 24 23  1  1
 24 26  1  0
 24 25  1  0
 26 28  1  0
 27 26  2  0
M  END
$$$$
