MFL.pdb
     RDKit          3D

 28 28  0  0  1  0  0  0  0  0999 V2000
   29.0914  -15.0342  -16.4571 C   0  0  0  0  0  0  0  0  0  0  0  0
   27.3016  -14.8945  -16.6530 S   0  0  0  0  0  0  0  0  0  0  0  0
   26.8600  -14.3620  -18.3354 C   0  0  0  0  0  0  0  0  0  0  0  0
   25.3488  -14.1511  -18.3566 C   0  0  0  0  0  0  0  0  0  0  0  0
   24.6500  -15.3180  -17.6598 C   0  0  2  0  0  0  0  0  0  0  0  0
   24.8267  -16.4786  -18.5072 N   0  0  0  0  0  0  0  0  0  0  0  0
   23.2136  -14.9716  -17.5769 C   0  0  0  0  0  0  0  0  0  0  0  0
   22.4395  -15.1325  -18.5759 O   0  0  0  0  0  0  0  0  0  0  0  0
   22.6270  -14.4470  -16.3929 N   0  0  0  0  0  0  0  0  0  0  0  0
   21.2249  -14.0604  -16.3020 C   0  0  1  0  0  0  0  0  0  0  0  0
   20.5512  -14.6593  -15.1088 C   0  0  0  0  0  0  0  0  0  0  0  0
   20.3629  -16.0952  -15.1454 C   0  0  0  0  0  0  0  0  0  0  0  0
   21.3363  -16.9477  -14.6756 C   0  0  0  0  0  0  0  0  0  0  0  0
   21.1506  -18.3382  -14.7140 C   0  0  0  0  0  0  0  0  0  0  0  0
   19.9981  -18.8648  -15.2196 C   0  0  0  0  0  0  0  0  0  0  0  0
   19.0186  -18.0270  -15.6917 C   0  0  0  0  0  0  0  0  0  0  0  0
   19.2191  -16.6525  -15.6461 C   0  0  0  0  0  0  0  0  0  0  0  0
   21.0302  -12.6200  -16.4885 C   0  0  0  0  0  0  0  0  0  0  0  0
   21.8676  -11.7902  -16.0233 O   0  0  0  0  0  0  0  0  0  0  0  0
   19.8408   -9.1315  -20.9454 C   0  0  0  0  0  0  0  0  0  0  0  0
   19.6540   -9.0868  -19.4236 C   0  0  1  0  0  0  0  0  0  0  0  0
   18.3495   -8.4444  -19.0835 C   0  0  0  0  0  0  0  0  0  0  0  0
   19.7558  -10.5202  -18.9635 C   0  0  0  0  0  0  0  0  0  0  0  0
   19.7989  -10.6392  -17.4405 C   0  0  2  0  0  0  0  0  0  0  0  0
   19.9238  -12.0762  -17.1847 N   0  0  0  0  0  0  0  0  0  0  0  0
   18.4907  -10.1812  -16.9228 C   0  0  0  0  0  0  0  0  0  0  0  0
   17.4922  -10.9342  -16.9918 O   0  0  0  0  0  0  0  0  0  0  0  0
   18.3005   -8.9320  -16.3497 O   0  0  0  0  0  0  0  0  0  0  0  0
  1  2  1  0
  3  2  1  0
  4  3  1  0
  5  4  1  0
  5  6  1  6
  7  5  1  0
  8  7  2  0
  9  7  1  0
 10  9  1  0
 10 11  1  1
 11 12  1  0
 12 17  2  0
 13 14  2  0
 13 12  1  0
 14 15  1  0
 15 16  2  0
 17 16  1  0
 18 25  1  0
 18 10  1  0
 19 18  2  0
 21 20  1  6
 21 23  1  0
 21 22  1  0
 24 23  1  6
 24 26  1  0
 24 25  1  0
 26 28  1  0
 27 26  2  0
M  END
$$$$
