MFL.pdb
     RDKit          3D

 28 28  0  0  1  0  0  0  0  0999 V2000
   25.0332  -18.1344  -18.1982 C   0  0  0  0  0  0  0  0  0  0  0  0
   25.0561  -19.7211  -19.0601 S   0  0  0  0  0  0  0  0  0  0  0  0
   25.8332  -21.0145  -18.0440 C   0  0  0  0  0  0  0  0  0  0  0  0
   27.0830  -20.4021  -17.4179 C   0  0  0  0  0  0  0  0  0  0  0  0
   27.8188  -21.4535  -16.5880 C   0  0  2  0  0  0  0  0  0  0  0  0
   27.7520  -22.6949  -17.3300 N   0  0  0  0  0  0  0  0  0  0  0  0
   27.0789  -21.5905  -15.3137 C   0  0  0  0  0  0  0  0  0  0  0  0
   26.1184  -22.4192  -15.1966 O   0  0  0  0  0  0  0  0  0  0  0  0
   27.3958  -20.8144  -14.1655 N   0  0  0  0  0  0  0  0  0  0  0  0
   26.6284  -20.8720  -12.9280 C   0  0  1  0  0  0  0  0  0  0  0  0
   27.3794  -20.2938  -11.7714 C   0  0  0  0  0  0  0  0  0  0  0  0
   26.6789  -20.2894  -10.5034 C   0  0  0  0  0  0  0  0  0  0  0  0
   26.6035  -21.4283   -9.7338 C   0  0  0  0  0  0  0  0  0  0  0  0
   25.9229  -21.4202   -8.5066 C   0  0  0  0  0  0  0  0  0  0  0  0
   25.3248  -20.2787   -8.0589 C   0  0  0  0  0  0  0  0  0  0  0  0
   25.3916  -19.1355   -8.8156 C   0  0  0  0  0  0  0  0  0  0  0  0
   26.0697  -19.1611  -10.0285 C   0  0  0  0  0  0  0  0  0  0  0  0
   25.2546  -20.3921  -13.1007 C   0  0  0  0  0  0  0  0  0  0  0  0
   25.0279  -19.2554  -13.6135 O   0  0  0  0  0  0  0  0  0  0  0  0
   21.5132  -22.5095  -15.8827 C   0  0  0  0  0  0  0  0  0  0  0  0
   22.1984  -21.3421  -15.1612 C   0  0  1  0  0  0  0  0  0  0  0  0
   21.6099  -20.0442  -15.6074 C   0  0  0  0  0  0  0  0  0  0  0  0
   22.0097  -21.6127  -13.6889 C   0  0  0  0  0  0  0  0  0  0  0  0
   22.7614  -20.6106  -12.8136 C   0  0  2  0  0  0  0  0  0  0  0  0
   24.1206  -21.1486  -12.7182 N   0  0  0  0  0  0  0  0  0  0  0  0
   22.1456  -20.6471  -11.4688 C   0  0  0  0  0  0  0  0  0  0  0  0
   22.5695  -21.4524  -10.6082 O   0  0  0  0  0  0  0  0  0  0  0  0
   21.0972  -19.8186  -11.0952 O   0  0  0  0  0  0  0  0  0  0  0  0
  1  2  1  0
  3  2  1  0
  4  3  1  0
  5  4  1  0
  5  6  1  6
  7  5  1  0
  8  7  2  0
  9  7  1  0
 10  9  1  0
 10 11  1  1
 11 12  1  0
 12 17  2  0
 13 14  2  0
 13 12  1  0
 14 15  1  0
 15 16  2  0
 17 16  1  0
 18 25  1  0
 18 10  1  0
 19 18  2  0
 21 20  1  6
 21 23  1  0
 21 22  1  0
 24 23  1  6
 24 26  1  0
 24 25  1  0
 26 28  1  0
 27 26  2  0
M  END
$$$$
