MFL.pdb
     RDKit          3D

 28 28  0  0  1  0  0  0  0  0999 V2000
   21.9294  -19.5459  -12.5163 C   0  0  0  0  0  0  0  0  0  0  0  0
   22.9818  -19.1137  -13.9187 S   0  0  0  0  0  0  0  0  0  0  0  0
   24.5833  -19.9722  -13.8331 C   0  0  0  0  0  0  0  0  0  0  0  0
   24.7904  -20.3906  -12.3802 C   0  0  0  0  0  0  0  0  0  0  0  0
   26.2003  -20.9506  -12.1951 C   0  0  2  0  0  0  0  0  0  0  0  0
   26.2442  -22.2156  -12.8979 N   0  0  0  0  0  0  0  0  0  0  0  0
   26.3865  -21.1760  -10.7444 C   0  0  0  0  0  0  0  0  0  0  0  0
   25.8560  -22.1765  -10.1608 O   0  0  0  0  0  0  0  0  0  0  0  0
   27.1578  -20.2993   -9.9335 N   0  0  0  0  0  0  0  0  0  0  0  0
   27.3810  -20.5197   -8.5104 C   0  0  1  0  0  0  0  0  0  0  0  0
   28.6522  -19.8915   -8.0352 C   0  0  0  0  0  0  0  0  0  0  0  0
   28.8339  -19.8448   -6.5988 C   0  0  0  0  0  0  0  0  0  0  0  0
   29.3758  -20.9129   -5.9200 C   0  0  0  0  0  0  0  0  0  0  0  0
   29.5490  -20.8643   -4.5283 C   0  0  0  0  0  0  0  0  0  0  0  0
   29.1811  -19.7531   -3.8274 C   0  0  0  0  0  0  0  0  0  0  0  0
   28.6395  -18.6804   -4.4907 C   0  0  0  0  0  0  0  0  0  0  0  0
   28.4749  -18.7455   -5.8693 C   0  0  0  0  0  0  0  0  0  0  0  0
   26.1889  -20.2333   -7.7078 C   0  0  0  0  0  0  0  0  0  0  0  0
   25.5257  -19.1695   -7.8944 O   0  0  0  0  0  0  0  0  0  0  0  0
   21.5676  -22.7631   -7.1189 C   0  0  0  0  0  0  0  0  0  0  0  0
   22.4657  -21.5232   -7.0240 C   0  0  1  0  0  0  0  0  0  0  0  0
   21.6682  -20.3426   -6.5769 C   0  0  0  0  0  0  0  0  0  0  0  0
   23.5704  -21.8990   -6.0674 C   0  0  0  0  0  0  0  0  0  0  0  0
   24.5661  -20.7594   -5.8542 C   0  0  2  0  0  0  0  0  0  0  0  0
   25.7114  -21.1051   -6.6996 N   0  0  0  0  0  0  0  0  0  0  0  0
   24.9954  -20.8048   -4.4390 C   0  0  0  0  0  0  0  0  0  0  0  0
   25.9764  -21.5082   -4.1050 O   0  0  0  0  0  0  0  0  0  0  0  0
   24.3571  -20.0940   -3.4328 O   0  0  0  0  0  0  0  0  0  0  0  0
  1  2  1  0
  3  2  1  0
  4  3  1  0
  5  4  1  0
  5  6  1  6
  7  5  1  0
  8  7  2  0
  9  7  1  0
 10  9  1  0
 10 11  1  1
 11 12  1  0
 12 17  2  0
 13 14  2  0
 13 12  1  0
 14 15  1  0
 15 16  2  0
 17 16  1  0
 18 25  1  0
 18 10  1  0
 19 18  2  0
 21 20  1  1
 21 23  1  0
 21 22  1  0
 24 23  1  1
 24 26  1  0
 24 25  1  0
 26 28  1  0
 27 26  2  0
M  END
$$$$
