MFL.pdb
     RDKit          3D

 28 28  0  0  1  0  0  0  0  0999 V2000
   26.0956  -17.2936  -18.7716 C   0  0  0  0  0  0  0  0  0  0  0  0
   27.8522  -17.1832  -18.3674 S   0  0  0  0  0  0  0  0  0  0  0  0
   28.4855  -18.7658  -17.7323 C   0  0  0  0  0  0  0  0  0  0  0  0
   27.3222  -19.4675  -17.0372 C   0  0  0  0  0  0  0  0  0  0  0  0
   27.7887  -20.8043  -16.4619 C   0  0  2  0  0  0  0  0  0  0  0  0
   27.5575  -21.8037  -17.4836 N   0  0  0  0  0  0  0  0  0  0  0  0
   26.9385  -21.0856  -15.2837 C   0  0  0  0  0  0  0  0  0  0  0  0
   25.8180  -21.6790  -15.4077 O   0  0  0  0  0  0  0  0  0  0  0  0
   27.3213  -20.7135  -13.9660 N   0  0  0  0  0  0  0  0  0  0  0  0
   26.4511  -20.8736  -12.8082 C   0  0  1  0  0  0  0  0  0  0  0  0
   27.1830  -20.6696  -11.5202 C   0  0  0  0  0  0  0  0  0  0  0  0
   26.3619  -20.6309  -10.3275 C   0  0  0  0  0  0  0  0  0  0  0  0
   25.6688  -21.7447   -9.9103 C   0  0  0  0  0  0  0  0  0  0  0  0
   24.8733  -21.7028   -8.7549 C   0  0  0  0  0  0  0  0  0  0  0  0
   24.7764  -20.5527   -8.0276 C   0  0  0  0  0  0  0  0  0  0  0  0
   25.4617  -19.4341   -8.4314 C   0  0  0  0  0  0  0  0  0  0  0  0
   26.2449  -19.4931   -9.5781 C   0  0  0  0  0  0  0  0  0  0  0  0
   25.1924  -20.1367  -12.9503 C   0  0  0  0  0  0  0  0  0  0  0  0
   25.1941  -18.9173  -13.2957 O   0  0  0  0  0  0  0  0  0  0  0  0
   21.4832  -19.3150  -16.5823 C   0  0  0  0  0  0  0  0  0  0  0  0
   21.3627  -19.3082  -15.0531 C   0  0  1  0  0  0  0  0  0  0  0  0
   20.1127  -20.0082  -14.6319 C   0  0  0  0  0  0  0  0  0  0  0  0
   22.6211  -19.9695  -14.5475 C   0  0  0  0  0  0  0  0  0  0  0  0
   22.6769  -20.0202  -13.0211 C   0  0  2  0  0  0  0  0  0  0  0  0
   23.9253  -20.7248  -12.7194 N   0  0  0  0  0  0  0  0  0  0  0  0
   21.5437  -20.8541  -12.5635 C   0  0  0  0  0  0  0  0  0  0  0  0
   20.6227  -20.3413  -11.8870 O   0  0  0  0  0  0  0  0  0  0  0  0
   21.4388  -22.2081  -12.8478 O   0  0  0  0  0  0  0  0  0  0  0  0
  1  2  1  0
  3  2  1  0
  4  3  1  0
  5  4  1  0
  5  6  1  6
  7  5  1  0
  8  7  2  0
  9  7  1  0
 10  9  1  0
 10 11  1  1
 11 12  1  0
 12 17  2  0
 13 14  2  0
 13 12  1  0
 14 15  1  0
 15 16  2  0
 17 16  1  0
 18 25  1  0
 18 10  1  0
 19 18  2  0
 21 20  1  6
 21 23  1  0
 21 22  1  0
 24 23  1  6
 24 26  1  0
 24 25  1  0
 26 28  1  0
 27 26  2  0
M  END
$$$$
