MFL.pdb
     RDKit          3D

 28 28  0  0  1  0  0  0  0  0999 V2000
   38.0887  -29.0573    2.4967 C   0  0  0  0  0  0  0  0  0  0  0  0
   37.7350  -27.6497    3.5713 S   0  0  0  0  0  0  0  0  0  0  0  0
   39.1602  -27.2504    4.6289 C   0  0  0  0  0  0  0  0  0  0  0  0
   38.7441  -26.0834    5.5198 C   0  0  0  0  0  0  0  0  0  0  0  0
   38.6121  -24.8108    4.6838 C   0  0  2  0  0  0  0  0  0  0  0  0
   39.9349  -24.2288    4.5951 N   0  0  0  0  0  0  0  0  0  0  0  0
   37.7122  -23.9002    5.4260 C   0  0  0  0  0  0  0  0  0  0  0  0
   38.1599  -23.1333    6.3395 O   0  0  0  0  0  0  0  0  0  0  0  0
   36.3167  -23.8324    5.1631 N   0  0  0  0  0  0  0  0  0  0  0  0
   35.4239  -22.8963    5.8339 C   0  0  1  0  0  0  0  0  0  0  0  0
   34.2401  -22.5436    4.9909 C   0  0  0  0  0  0  0  0  0  0  0  0
   33.3176  -21.5873    5.5678 C   0  0  0  0  0  0  0  0  0  0  0  0
   33.4943  -20.2346    5.3826 C   0  0  0  0  0  0  0  0  0  0  0  0
   32.5991  -19.3114    5.9442 C   0  0  0  0  0  0  0  0  0  0  0  0
   31.5378  -19.7445    6.6841 C   0  0  0  0  0  0  0  0  0  0  0  0
   31.3489  -21.0902    6.8773 C   0  0  0  0  0  0  0  0  0  0  0  0
   32.2451  -21.9908    6.3139 C   0  0  0  0  0  0  0  0  0  0  0  0
   35.1289  -23.2970    7.2122 C   0  0  0  0  0  0  0  0  0  0  0  0
   34.8250  -24.4970    7.4843 O   0  0  0  0  0  0  0  0  0  0  0  0
   38.0590  -21.4382   11.3661 C   0  0  0  0  0  0  0  0  0  0  0  0
   37.2940  -22.3645   10.4124 C   0  0  1  0  0  0  0  0  0  0  0  0
   37.5380  -23.7924   10.7751 C   0  0  0  0  0  0  0  0  0  0  0  0
   35.8466  -21.9542   10.5281 C   0  0  0  0  0  0  0  0  0  0  0  0
   34.9255  -22.8298    9.6793 C   0  0  2  0  0  0  0  0  0  0  0  0
   35.1657  -22.3935    8.3017 N   0  0  0  0  0  0  0  0  0  0  0  0
   33.5321  -22.4912   10.0438 C   0  0  0  0  0  0  0  0  0  0  0  0
   33.0281  -22.9587   11.0908 O   0  0  0  0  0  0  0  0  0  0  0  0
   32.7293  -21.6632    9.2724 O   0  0  0  0  0  0  0  0  0  0  0  0
  1  2  1  0
  3  2  1  0
  4  3  1  0
  5  4  1  0
  5  6  1  1
  7  5  1  0
  8  7  2  0
  9  7  1  0
 10  9  1  0
 10 11  1  6
 11 12  1  0
 12 17  2  0
 13 14  2  0
 13 12  1  0
 14 15  1  0
 15 16  2  0
 17 16  1  0
 18 25  1  0
 18 10  1  0
 19 18  2  0
 21 20  1  1
 21 23  1  0
 21 22  1  0
 24 23  1  1
 24 26  1  0
 24 25  1  0
 26 28  1  0
 27 26  2  0
M  END
$$$$
