MFL.pdb
     RDKit          3D

 28 28  0  0  1  0  0  0  0  0999 V2000
   18.7264   -9.5656  -22.6566 C   0  0  0  0  0  0  0  0  0  0  0  0
   18.0907  -11.2548  -22.5979 S   0  0  0  0  0  0  0  0  0  0  0  0
   19.0183  -12.2695  -21.4065 C   0  0  0  0  0  0  0  0  0  0  0  0
   18.9336  -11.5644  -20.0557 C   0  0  0  0  0  0  0  0  0  0  0  0
   20.1091  -11.9844  -19.1740 C   0  0  2  0  0  0  0  0  0  0  0  0
   19.9195  -13.3857  -18.8627 N   0  0  0  0  0  0  0  0  0  0  0  0
   20.0263  -11.1797  -17.9349 C   0  0  0  0  0  0  0  0  0  0  0  0
   19.0997  -11.3771  -17.0830 O   0  0  0  0  0  0  0  0  0  0  0  0
   20.9645  -10.1556  -17.6315 N   0  0  0  0  0  0  0  0  0  0  0  0
   20.8359   -9.2727  -16.4793 C   0  0  1  0  0  0  0  0  0  0  0  0
   22.1571   -8.9798  -15.8431 C   0  0  0  0  0  0  0  0  0  0  0  0
   22.1238   -8.0873  -14.7026 C   0  0  0  0  0  0  0  0  0  0  0  0
   22.3983   -6.7460  -14.8467 C   0  0  0  0  0  0  0  0  0  0  0  0
   22.3663   -5.8849  -13.7392 C   0  0  0  0  0  0  0  0  0  0  0  0
   22.0616   -6.3682  -12.5003 C   0  0  0  0  0  0  0  0  0  0  0  0
   21.7858   -7.7034  -12.3413 C   0  0  0  0  0  0  0  0  0  0  0  0
   21.8219   -8.5421  -13.4490 C   0  0  0  0  0  0  0  0  0  0  0  0
   19.9910   -8.1088  -16.7600 C   0  0  0  0  0  0  0  0  0  0  0  0
   20.1569   -7.4312  -17.8182 O   0  0  0  0  0  0  0  0  0  0  0  0
   15.8618   -5.3516  -17.4816 C   0  0  0  0  0  0  0  0  0  0  0  0
   15.7809   -5.7010  -15.9902 C   0  0  1  0  0  0  0  0  0  0  0  0
   14.3745   -6.0347  -15.6150 C   0  0  0  0  0  0  0  0  0  0  0  0
   16.7432   -6.8462  -15.7925 C   0  0  0  0  0  0  0  0  0  0  0  0
   18.1787   -6.4670  -16.1544 C   0  0  2  0  0  0  0  0  0  0  0  0
   18.9594   -7.6782  -15.8910 N   0  0  0  0  0  0  0  0  0  0  0  0
   18.6108   -5.4140  -15.2092 C   0  0  0  0  0  0  0  0  0  0  0  0
   18.8364   -4.2542  -15.6251 O   0  0  0  0  0  0  0  0  0  0  0  0
   18.7854   -5.6425  -13.8519 O   0  0  0  0  0  0  0  0  0  0  0  0
  1  2  1  0
  3  2  1  0
  4  3  1  0
  5  4  1  0
  5  6  1  1
  7  5  1  0
  8  7  2  0
  9  7  1  0
 10  9  1  0
 10 11  1  6
 11 12  1  0
 12 17  2  0
 13 14  2  0
 13 12  1  0
 14 15  1  0
 15 16  2  0
 17 16  1  0
 18 25  1  0
 18 10  1  0
 19 18  2  0
 21 20  1  6
 21 23  1  0
 21 22  1  0
 24 23  1  1
 24 26  1  0
 24 25  1  0
 26 28  1  0
 27 26  2  0
M  END
$$$$
