MFL.pdb
     RDKit          3D

 28 28  0  0  1  0  0  0  0  0999 V2000
   25.7378  -15.4475  -14.5093 C   0  0  0  0  0  0  0  0  0  0  0  0
   27.4001  -15.2910  -15.1972 S   0  0  0  0  0  0  0  0  0  0  0  0
   28.1851  -16.9186  -15.4067 C   0  0  0  0  0  0  0  0  0  0  0  0
   27.2446  -17.9521  -14.7931 C   0  0  0  0  0  0  0  0  0  0  0  0
   27.9440  -19.3083  -14.7094 C   0  0  2  0  0  0  0  0  0  0  0  0
   28.1267  -19.7702  -16.0693 N   0  0  0  0  0  0  0  0  0  0  0  0
   27.0284  -20.2205  -13.9886 C   0  0  0  0  0  0  0  0  0  0  0  0
   26.1451  -20.8940  -14.6125 O   0  0  0  0  0  0  0  0  0  0  0  0
   27.0842  -20.3927  -12.5785 N   0  0  0  0  0  0  0  0  0  0  0  0
   26.2247  -21.3203  -11.8543 C   0  0  1  0  0  0  0  0  0  0  0  0
   26.8766  -21.8413  -10.6134 C   0  0  0  0  0  0  0  0  0  0  0  0
   26.7995  -20.9799   -9.4512 C   0  0  0  0  0  0  0  0  0  0  0  0
   27.7049  -21.1002   -8.4212 C   0  0  0  0  0  0  0  0  0  0  0  0
   27.6260  -20.2647   -7.2965 C   0  0  0  0  0  0  0  0  0  0  0  0
   26.6469  -19.3186   -7.2093 C   0  0  0  0  0  0  0  0  0  0  0  0
   25.7371  -19.1871   -8.2286 C   0  0  0  0  0  0  0  0  0  0  0  0
   25.8298  -20.0229   -9.3352 C   0  0  0  0  0  0  0  0  0  0  0  0
   24.8619  -20.8069  -11.6916 C   0  0  0  0  0  0  0  0  0  0  0  0
   24.6628  -19.6128  -11.3163 O   0  0  0  0  0  0  0  0  0  0  0  0
   20.9133  -20.1836  -14.7745 C   0  0  0  0  0  0  0  0  0  0  0  0
   20.7700  -21.6192  -14.2536 C   0  0  1  0  0  0  0  0  0  0  0  0
   20.3706  -22.5329  -15.3651 C   0  0  0  0  0  0  0  0  0  0  0  0
   22.1077  -21.9618  -13.6455 C   0  0  0  0  0  0  0  0  0  0  0  0
   22.4877  -21.0150  -12.5077 C   0  0  2  0  0  0  0  0  0  0  0  0
   23.7089  -21.5904  -11.9391 N   0  0  0  0  0  0  0  0  0  0  0  0
   21.4149  -21.0900  -11.4916 C   0  0  0  0  0  0  0  0  0  0  0  0
   20.4769  -20.2601  -11.5097 O   0  0  0  0  0  0  0  0  0  0  0  0
   21.3866  -22.0523  -10.4925 O   0  0  0  0  0  0  0  0  0  0  0  0
  1  2  1  0
  3  2  1  0
  4  3  1  0
  5  4  1  0
  5  6  1  6
  7  5  1  0
  8  7  2  0
  9  7  1  0
 10  9  1  0
 10 11  1  1
 11 12  1  0
 12 17  2  0
 13 14  2  0
 13 12  1  0
 14 15  1  0
 15 16  2  0
 17 16  1  0
 18 25  1  0
 18 10  1  0
 19 18  2  0
 21 20  1  6
 21 23  1  0
 21 22  1  0
 24 23  1  6
 24 26  1  0
 24 25  1  0
 26 28  1  0
 27 26  2  0
M  END
$$$$
