QRL.pdb
     RDKit          3D

 29 28  0  0  1  0  0  0  0  0999 V2000
    7.3803  -22.5896   26.8825 N   0  0  0  0  0  0  0  0  0  0  0  0
    6.1976  -22.6562   26.1049 C   0  0  0  0  0  0  0  0  0  0  0  0
    5.3142  -23.4802   26.4424 O   0  0  0  0  0  0  0  0  0  0  0  0
    6.0217  -21.7716   24.9279 C   0  0  0  0  0  0  0  0  0  0  0  0
    7.1978  -20.9164   24.6479 C   0  0  0  0  0  0  0  0  0  0  0  0
    7.1593  -19.5074   25.1335 C   0  0  2  0  0  0  0  0  0  0  0  0
    5.7209  -19.1748   25.2853 N   0  0  0  0  0  0  0  0  0  0  0  0
    7.7668  -18.5227   24.1763 C   0  0  0  0  0  0  0  0  0  0  0  0
    8.9583  -18.7321   23.8541 O   0  0  0  0  0  0  0  0  0  0  0  0
    7.9888  -11.9021   18.5998 N   0  0  0  0  0  0  0  0  0  0  0  0
    8.6995  -13.1229   18.4378 C   0  0  0  0  0  0  0  0  0  0  0  0
    9.3450  -13.3312   17.3476 N   0  0  0  0  0  0  0  0  0  0  0  0
    8.6987  -14.1104   19.4651 N   0  0  0  0  0  0  0  0  0  0  0  0
    7.5151  -14.8030   19.9123 C   0  0  0  0  0  0  0  0  0  0  0  0
    7.0786  -14.4760   21.2781 C   0  0  0  0  0  0  0  0  0  0  0  0
    6.6465  -15.5254   22.2042 C   0  0  0  0  0  0  0  0  0  0  0  0
    7.6574  -16.2290   23.0365 C   0  0  2  0  0  0  0  0  0  0  0  0
    7.0864  -17.4191   23.6429 N   0  0  0  0  0  0  0  0  0  0  0  0
    8.4653  -15.4112   23.9481 C   0  0  0  0  0  0  0  0  0  0  0  0
    9.3908  -14.7112   23.5348 O   0  0  0  0  0  0  0  0  0  0  0  0
    9.8872  -14.1853   17.1417 C   0  0  0  0  0  0  0  0  0  0  0  0
    8.0890  -11.7451   25.4066 C   0  0  2  0  0  0  0  0  0  0  0  0
    7.2702  -12.9096   25.9751 C   0  0  0  0  0  0  0  0  0  0  0  0
    6.1312  -12.2742   26.7690 C   0  0  0  0  0  0  0  0  0  0  0  0
    8.1408  -13.6491   26.9326 C   0  0  2  0  0  0  0  0  0  0  0  0
    9.0923  -14.6462   26.2398 N   0  0  0  0  0  0  0  0  0  0  0  0
    8.1943  -15.3942   25.3449 C   0  0  0  0  0  0  0  0  0  0  0  0
    9.6302  -15.4956   27.2883 O   0  0  0  0  0  0  0  0  0  0  0  0
   10.6195  -14.9913   28.1429 O   0  0  0  0  0  0  0  0  0  0  0  0
  1  2  1  0
  2  3  2  0
  4  5  1  0
  4  2  1  0
  6  8  1  0
  6  5  1  0
  6  7  1  6
  8  9  2  0
 10 11  1  0
 11 12  2  0
 13 14  1  0
 13 11  1  0
 15 14  1  0
 16 15  1  0
 17 16  1  1
 17 19  1  0
 18 17  1  0
 18  8  1  0
 19 20  2  0
 19 26  1  0
 22 21  1  6
 22 24  1  0
 23 22  1  0
 25 24  1  6
 25 27  1  0
 26 25  1  0
 27 29  2  0
 27 28  1  0
M  END
$$$$
