QRL.pdb
     RDKit          3D

 29 28  0  0  1  0  0  0  0  0999 V2000
   15.8821  -18.1085   19.2147 N   0  0  0  0  0  0  0  0  0  0  0  0
   14.6938  -18.7842   18.8415 C   0  0  0  0  0  0  0  0  0  0  0  0
   14.6292  -19.2725   17.6879 O   0  0  0  0  0  0  0  0  0  0  0  0
   13.5660  -18.9036   19.7968 C   0  0  0  0  0  0  0  0  0  0  0  0
   13.7396  -18.0924   21.0234 C   0  0  0  0  0  0  0  0  0  0  0  0
   12.7162  -18.2362   22.0979 C   0  0  2  0  0  0  0  0  0  0  0  0
   11.8803  -19.3973   21.7028 N   0  0  0  0  0  0  0  0  0  0  0  0
   11.8174  -17.0415   22.2386 C   0  0  0  0  0  0  0  0  0  0  0  0
   12.3462  -16.0074   22.7060 O   0  0  0  0  0  0  0  0  0  0  0  0
    8.3361  -12.7978   18.5720 N   0  0  0  0  0  0  0  0  0  0  0  0
    7.9482  -13.9484   17.8322 C   0  0  0  0  0  0  0  0  0  0  0  0
    8.4312  -14.1285   16.6563 N   0  0  0  0  0  0  0  0  0  0  0  0
    7.0328  -14.8940   18.3790 N   0  0  0  0  0  0  0  0  0  0  0  0
    6.5446  -14.8472   19.7355 C   0  0  0  0  0  0  0  0  0  0  0  0
    7.5860  -14.8340   20.7739 C   0  0  0  0  0  0  0  0  0  0  0  0
    8.5245  -15.9495   20.9162 C   0  0  0  0  0  0  0  0  0  0  0  0
    9.5137  -15.9370   22.0257 C   0  0  2  0  0  0  0  0  0  0  0  0
   10.4617  -17.0283   21.8821 N   0  0  0  0  0  0  0  0  0  0  0  0
    8.9960  -15.7577   23.3866 C   0  0  0  0  0  0  0  0  0  0  0  0
    8.8048  -16.7183   24.1336 O   0  0  0  0  0  0  0  0  0  0  0  0
    8.1924  -14.9215   16.0398 C   0  0  0  0  0  0  0  0  0  0  0  0
    5.5239  -11.6791   26.1416 C   0  0  1  0  0  0  0  0  0  0  0  0
    6.5541  -12.7770   26.4302 C   0  0  0  0  0  0  0  0  0  0  0  0
    7.5942  -12.1453   27.3524 C   0  0  0  0  0  0  0  0  0  0  0  0
    7.2261  -13.1156   25.1436 C   0  0  2  0  0  0  0  0  0  0  0  0
    8.1809  -14.3217   25.2584 N   0  0  0  0  0  0  0  0  0  0  0  0
    8.7080  -14.4586   23.8909 C   0  0  0  0  0  0  0  0  0  0  0  0
    7.3596  -15.4607   25.6305 O   0  0  0  0  0  0  0  0  0  0  0  0
    7.5271  -16.0471   26.8921 O   0  0  0  0  0  0  0  0  0  0  0  0
  1  2  1  0
  2  3  2  0
  4  5  1  0
  4  2  1  0
  6  8  1  0
  6  5  1  0
  6  7  1  6
  8  9  2  0
 10 11  1  0
 11 12  2  0
 13 14  1  0
 13 11  1  0
 15 14  1  0
 16 15  1  0
 17 16  1  6
 17 19  1  0
 18 17  1  0
 18  8  1  0
 19 20  2  0
 19 26  1  0
 22 21  1  1
 22 24  1  0
 23 22  1  0
 25 24  1  1
 25 27  1  0
 26 25  1  0
 27 29  2  0
 27 28  1  0
M  END
$$$$
