QRL.pdb
     RDKit          3D

 29 28  0  0  1  0  0  0  0  0999 V2000
    9.6495  -12.1240   18.3994 N   0  0  0  0  0  0  0  0  0  0  0  0
    8.4888  -12.8198   17.9794 C   0  0  0  0  0  0  0  0  0  0  0  0
    8.5102  -13.3820   16.8583 O   0  0  0  0  0  0  0  0  0  0  0  0
    7.2895  -12.8742   18.8497 C   0  0  0  0  0  0  0  0  0  0  0  0
    7.5041  -13.6236   20.1088 C   0  0  0  0  0  0  0  0  0  0  0  0
    8.2167  -14.9302   20.0227 C   0  0  2  0  0  0  0  0  0  0  0  0
    7.3519  -15.8046   19.1917 N   0  0  0  0  0  0  0  0  0  0  0  0
    8.4139  -15.5986   21.3529 C   0  0  0  0  0  0  0  0  0  0  0  0
    7.3713  -15.9226   21.9656 O   0  0  0  0  0  0  0  0  0  0  0  0
   11.3813  -20.4691   19.0618 N   0  0  0  0  0  0  0  0  0  0  0  0
   11.3196  -21.3030   20.2118 C   0  0  0  0  0  0  0  0  0  0  0  0
   10.9314  -22.5200   20.0821 N   0  0  0  0  0  0  0  0  0  0  0  0
   11.6788  -20.8029   21.4969 N   0  0  0  0  0  0  0  0  0  0  0  0
   12.0790  -19.4394   21.7449 C   0  0  0  0  0  0  0  0  0  0  0  0
   10.9742  -18.4961   21.9745 C   0  0  0  0  0  0  0  0  0  0  0  0
   11.0367  -17.5088   23.0547 C   0  0  0  0  0  0  0  0  0  0  0  0
    9.9468  -16.5079   23.1956 C   0  0  2  0  0  0  0  0  0  0  0  0
    9.6664  -15.8697   21.9211 N   0  0  0  0  0  0  0  0  0  0  0  0
   10.0244  -15.5843   24.3329 C   0  0  0  0  0  0  0  0  0  0  0  0
   11.0249  -14.8945   24.5340 O   0  0  0  0  0  0  0  0  0  0  0  0
   10.8638  -23.1992   20.8567 C   0  0  0  0  0  0  0  0  0  0  0  0
    8.1897  -11.9690   26.0319 C   0  0  2  0  0  0  0  0  0  0  0  0
    7.3002  -13.2095   25.8911 C   0  0  0  0  0  0  0  0  0  0  0  0
    5.8968  -12.7689   26.3006 C   0  0  0  0  0  0  0  0  0  0  0  0
    7.7720  -14.2186   26.8815 C   0  0  2  0  0  0  0  0  0  0  0  0
    9.1590  -14.8004   26.5390 N   0  0  0  0  0  0  0  0  0  0  0  0
    8.9339  -15.4495   25.2371 C   0  0  0  0  0  0  0  0  0  0  0  0
    9.4629  -15.7726   27.5748 O   0  0  0  0  0  0  0  0  0  0  0  0
    9.3046  -17.1384   27.3045 O   0  0  0  0  0  0  0  0  0  0  0  0
  1  2  1  0
  2  3  2  0
  4  5  1  0
  4  2  1  0
  6  8  1  0
  6  5  1  0
  6  7  1  6
  8  9  2  0
 10 11  1  0
 11 12  2  0
 13 14  1  0
 13 11  1  0
 15 14  1  0
 16 15  1  0
 17 16  1  6
 17 19  1  0
 18 17  1  0
 18  8  1  0
 19 20  2  0
 19 26  1  0
 22 21  1  6
 22 24  1  0
 23 22  1  0
 25 24  1  6
 25 27  1  0
 26 25  1  0
 27 29  2  0
 27 28  1  0
M  END
$$$$
