QRL.pdb
     RDKit          3D

 29 28  0  0  1  0  0  0  0  0999 V2000
    9.7907  -11.8000   19.7982 N   0  0  0  0  0  0  0  0  0  0  0  0
    9.6375  -12.7957   18.8018 C   0  0  0  0  0  0  0  0  0  0  0  0
   10.6728  -13.2678   18.2740 O   0  0  0  0  0  0  0  0  0  0  0  0
    8.2860  -13.2577   18.4030 C   0  0  0  0  0  0  0  0  0  0  0  0
    7.5383  -13.9179   19.4975 C   0  0  0  0  0  0  0  0  0  0  0  0
    7.7903  -15.3687   19.7299 C   0  0  2  0  0  0  0  0  0  0  0  0
    7.0631  -16.0802   18.6492 N   0  0  0  0  0  0  0  0  0  0  0  0
    7.2711  -15.8677   21.0476 C   0  0  0  0  0  0  0  0  0  0  0  0
    6.0332  -15.7877   21.2170 O   0  0  0  0  0  0  0  0  0  0  0  0
    8.4903  -21.7685   27.5667 N   0  0  0  0  0  0  0  0  0  0  0  0
    7.5718  -20.6831   27.5612 C   0  0  0  0  0  0  0  0  0  0  0  0
    7.5880  -19.8447   28.5334 N   0  0  0  0  0  0  0  0  0  0  0  0
    6.6389  -20.5211   26.4962 N   0  0  0  0  0  0  0  0  0  0  0  0
    7.0100  -20.1465   25.1536 C   0  0  0  0  0  0  0  0  0  0  0  0
    7.2143  -18.7056   24.9412 C   0  0  0  0  0  0  0  0  0  0  0  0
    7.5391  -18.1767   23.6144 C   0  0  0  0  0  0  0  0  0  0  0  0
    7.7010  -16.7106   23.4303 C   0  0  2  0  0  0  0  0  0  0  0  0
    8.0780  -16.4024   22.0617 N   0  0  0  0  0  0  0  0  0  0  0  0
    8.4678  -15.9851   24.4491 C   0  0  0  0  0  0  0  0  0  0  0  0
    9.6863  -16.1283   24.5599 O   0  0  0  0  0  0  0  0  0  0  0  0
    6.9193  -19.0664   28.6473 C   0  0  0  0  0  0  0  0  0  0  0  0
    8.4145  -11.6865   25.0809 C   0  0  1  0  0  0  0  0  0  0  0  0
    7.2113  -12.4255   25.6776 C   0  0  0  0  0  0  0  0  0  0  0  0
    6.2908  -11.3446   26.2395 C   0  0  0  0  0  0  0  0  0  0  0  0
    7.7060  -13.2464   26.8191 C   0  0  2  0  0  0  0  0  0  0  0  0
    8.6199  -14.4082   26.3779 N   0  0  0  0  0  0  0  0  0  0  0  0
    7.8234  -15.0802   25.3384 C   0  0  0  0  0  0  0  0  0  0  0  0
    8.7983  -15.2551   27.5446 O   0  0  0  0  0  0  0  0  0  0  0  0
    8.1313  -16.4857   27.6102 O   0  0  0  0  0  0  0  0  0  0  0  0
  1  2  1  0
  2  3  2  0
  4  5  1  0
  4  2  1  0
  6  8  1  0
  6  5  1  0
  6  7  1  6
  8  9  2  0
 10 11  1  0
 11 12  2  0
 13 14  1  0
 13 11  1  0
 15 14  1  0
 16 15  1  0
 17 16  1  1
 17 19  1  0
 18 17  1  0
 18  8  1  0
 19 20  2  0
 19 26  1  0
 22 21  1  6
 22 24  1  0
 23 22  1  0
 25 24  1  6
 25 27  1  0
 26 25  1  0
 27 29  2  0
 27 28  1  0
M  END
$$$$
