QRL.pdb
     RDKit          3D

 29 28  0  0  1  0  0  0  0  0999 V2000
    4.4136  -22.7659   23.6057 N   0  0  0  0  0  0  0  0  0  0  0  0
    4.5142  -21.4701   23.0411 C   0  0  0  0  0  0  0  0  0  0  0  0
    3.5262  -20.7038   23.1408 O   0  0  0  0  0  0  0  0  0  0  0  0
    5.7575  -21.0445   22.3541 C   0  0  0  0  0  0  0  0  0  0  0  0
    6.8285  -20.6120   23.2808 C   0  0  0  0  0  0  0  0  0  0  0  0
    6.6759  -19.2847   23.9425 C   0  0  2  0  0  0  0  0  0  0  0  0
    5.3112  -18.8171   23.5931 N   0  0  0  0  0  0  0  0  0  0  0  0
    7.6582  -18.2552   23.4629 C   0  0  0  0  0  0  0  0  0  0  0  0
    8.8664  -18.5084   23.6716 O   0  0  0  0  0  0  0  0  0  0  0  0
    9.4718  -15.0600   18.3156 N   0  0  0  0  0  0  0  0  0  0  0  0
    8.6147  -14.0485   17.8017 C   0  0  0  0  0  0  0  0  0  0  0  0
    8.8639  -13.5441   16.6476 N   0  0  0  0  0  0  0  0  0  0  0  0
    7.4928  -13.5912   18.5519 N   0  0  0  0  0  0  0  0  0  0  0  0
    7.5847  -13.0556   19.8881 C   0  0  0  0  0  0  0  0  0  0  0  0
    8.2172  -13.9439   20.8749 C   0  0  0  0  0  0  0  0  0  0  0  0
    7.5010  -15.1004   21.4181 C   0  0  0  0  0  0  0  0  0  0  0  0
    8.1667  -15.9661   22.4267 C   0  0  2  0  0  0  0  0  0  0  0  0
    7.2998  -17.0657   22.8133 N   0  0  0  0  0  0  0  0  0  0  0  0
    8.8376  -15.2990   23.5480 C   0  0  0  0  0  0  0  0  0  0  0  0
    9.8811  -14.6644   23.3874 O   0  0  0  0  0  0  0  0  0  0  0  0
    8.3129  -12.7910   16.2059 C   0  0  0  0  0  0  0  0  0  0  0  0
    8.0993  -11.7825   25.6767 C   0  0  2  0  0  0  0  0  0  0  0  0
    7.1401  -12.9572   25.9001 C   0  0  0  0  0  0  0  0  0  0  0  0
    5.9859  -12.4047   26.7332 C   0  0  0  0  0  0  0  0  0  0  0  0
    7.8548  -13.9740   26.7227 C   0  0  2  0  0  0  0  0  0  0  0  0
    8.9972  -14.6757   25.9596 N   0  0  0  0  0  0  0  0  0  0  0  0
    8.2928  -15.3569   24.8612 C   0  0  0  0  0  0  0  0  0  0  0  0
    9.5861  -15.6263   26.8869 O   0  0  0  0  0  0  0  0  0  0  0  0
    9.3508  -16.9963   26.7101 O   0  0  0  0  0  0  0  0  0  0  0  0
  1  2  1  0
  2  3  2  0
  4  5  1  0
  4  2  1  0
  6  8  1  0
  6  5  1  0
  6  7  1  6
  8  9  2  0
 10 11  1  0
 11 12  2  0
 13 14  1  0
 13 11  1  0
 15 14  1  0
 16 15  1  0
 17 16  1  1
 17 19  1  0
 18 17  1  0
 18  8  1  0
 19 20  2  0
 19 26  1  0
 22 21  1  6
 22 24  1  0
 23 22  1  0
 25 24  1  6
 25 27  1  0
 26 25  1  0
 27 29  2  0
 27 28  1  0
M  END
$$$$
