QRL.pdb
     RDKit          3D

 29 28  0  0  1  0  0  0  0  0999 V2000
   12.8049  -19.1922   18.0718 N   0  0  0  0  0  0  0  0  0  0  0  0
   11.8519  -20.1844   18.4113 C   0  0  0  0  0  0  0  0  0  0  0  0
   11.7732  -21.2021   17.6825 O   0  0  0  0  0  0  0  0  0  0  0  0
   10.9782  -20.0122   19.5970 C   0  0  0  0  0  0  0  0  0  0  0  0
   11.1441  -18.7039   20.2707 C   0  0  0  0  0  0  0  0  0  0  0  0
   10.3822  -18.4739   21.5313 C   0  0  2  0  0  0  0  0  0  0  0  0
    8.9918  -18.9065   21.2441 N   0  0  0  0  0  0  0  0  0  0  0  0
   10.3435  -17.0350   21.9588 C   0  0  0  0  0  0  0  0  0  0  0  0
   11.4323  -16.5426   22.3323 O   0  0  0  0  0  0  0  0  0  0  0  0
    7.2936  -14.4878   15.9047 N   0  0  0  0  0  0  0  0  0  0  0  0
    8.0437  -13.8082   16.9033 C   0  0  0  0  0  0  0  0  0  0  0  0
    7.8816  -12.5436   17.0555 N   0  0  0  0  0  0  0  0  0  0  0  0
    8.9687  -14.5121   17.7276 N   0  0  0  0  0  0  0  0  0  0  0  0
    9.1618  -14.2405   19.1311 C   0  0  0  0  0  0  0  0  0  0  0  0
    7.9810  -14.4644   19.9788 C   0  0  0  0  0  0  0  0  0  0  0  0
    8.0223  -14.1932   21.4176 C   0  0  0  0  0  0  0  0  0  0  0  0
    9.0786  -14.8244   22.2515 C   0  0  2  0  0  0  0  0  0  0  0  0
    9.1868  -16.2429   21.9579 N   0  0  0  0  0  0  0  0  0  0  0  0
    9.0914  -14.4978   23.6818 C   0  0  0  0  0  0  0  0  0  0  0  0
    9.2090  -13.3364   24.0752 O   0  0  0  0  0  0  0  0  0  0  0  0
    8.4330  -11.9555   17.7004 C   0  0  0  0  0  0  0  0  0  0  0  0
    8.5004  -12.2568   26.6496 C   0  0  2  0  0  0  0  0  0  0  0  0
    7.5351  -13.1483   25.8602 C   0  0  0  0  0  0  0  0  0  0  0  0
    6.1315  -12.6539   26.2022 C   0  0  0  0  0  0  0  0  0  0  0  0
    7.6729  -14.5373   26.3830 C   0  0  2  0  0  0  0  0  0  0  0  0
    9.0524  -15.1613   26.0877 N   0  0  0  0  0  0  0  0  0  0  0  0
    8.9562  -15.5194   24.6631 C   0  0  0  0  0  0  0  0  0  0  0  0
    9.1571  -16.3411   26.9288 O   0  0  0  0  0  0  0  0  0  0  0  0
    9.4629  -16.1922   28.2882 O   0  0  0  0  0  0  0  0  0  0  0  0
  1  2  1  0
  2  3  2  0
  4  5  1  0
  4  2  1  0
  6  8  1  0
  6  5  1  0
  6  7  1  6
  8  9  2  0
 10 11  1  0
 11 12  2  0
 13 14  1  0
 13 11  1  0
 15 14  1  0
 16 15  1  0
 17 16  1  1
 17 19  1  0
 18 17  1  0
 18  8  1  0
 19 20  2  0
 19 26  1  0
 22 21  1  6
 22 24  1  0
 23 22  1  0
 25 24  1  6
 25 27  1  0
 26 25  1  0
 27 29  2  0
 27 28  1  0
M  END
$$$$
