QRL.pdb
     RDKit          3D

 29 28  0  0  1  0  0  0  0  0999 V2000
    7.4486  -12.5001   16.4572 N   0  0  0  0  0  0  0  0  0  0  0  0
    7.6101  -13.8562   16.0795 C   0  0  0  0  0  0  0  0  0  0  0  0
    7.1817  -14.2116   14.9554 O   0  0  0  0  0  0  0  0  0  0  0  0
    8.2684  -14.8180   16.9963 C   0  0  0  0  0  0  0  0  0  0  0  0
    8.5373  -14.2643   18.3431 C   0  0  0  0  0  0  0  0  0  0  0  0
    9.4229  -15.0497   19.2493 C   0  0  2  0  0  0  0  0  0  0  0  0
    9.6393  -16.3512   18.5694 N   0  0  0  0  0  0  0  0  0  0  0  0
    8.8179  -15.3227   20.5963 C   0  0  0  0  0  0  0  0  0  0  0  0
    8.2677  -14.3494   21.1596 O   0  0  0  0  0  0  0  0  0  0  0  0
    5.7695  -20.5653   25.8168 N   0  0  0  0  0  0  0  0  0  0  0  0
    6.9899  -20.6912   26.5354 C   0  0  0  0  0  0  0  0  0  0  0  0
    6.9533  -20.8291   27.8115 N   0  0  0  0  0  0  0  0  0  0  0  0
    8.2430  -20.6625   25.8576 N   0  0  0  0  0  0  0  0  0  0  0  0
    8.3959  -20.3111   24.4670 C   0  0  0  0  0  0  0  0  0  0  0  0
    8.2631  -18.8775   24.1668 C   0  0  0  0  0  0  0  0  0  0  0  0
    8.4709  -18.3680   22.8094 C   0  0  0  0  0  0  0  0  0  0  0  0
    8.3094  -16.9151   22.5400 C   0  0  2  0  0  0  0  0  0  0  0  0
    8.8373  -16.5727   21.2307 N   0  0  0  0  0  0  0  0  0  0  0  0
    8.6900  -15.9861   23.6099 C   0  0  0  0  0  0  0  0  0  0  0  0
    9.8668  -15.6805   23.8077 O   0  0  0  0  0  0  0  0  0  0  0  0
    7.7752  -21.0306   28.4029 C   0  0  0  0  0  0  0  0  0  0  0  0
    5.5193  -12.0726   27.1060 C   0  0  1  0  0  0  0  0  0  0  0  0
    6.9263  -12.5534   26.7332 C   0  0  0  0  0  0  0  0  0  0  0  0
    7.6105  -11.3671   26.0579 C   0  0  0  0  0  0  0  0  0  0  0  0
    6.7800  -13.6368   25.7201 C   0  0  2  0  0  0  0  0  0  0  0  0
    8.1068  -14.3613   25.4126 N   0  0  0  0  0  0  0  0  0  0  0  0
    7.7027  -15.3983   24.4493 C   0  0  0  0  0  0  0  0  0  0  0  0
    8.5564  -14.9426   26.6657 O   0  0  0  0  0  0  0  0  0  0  0  0
    9.4668  -14.2375   27.4640 O   0  0  0  0  0  0  0  0  0  0  0  0
  1  2  1  0
  2  3  2  0
  4  5  1  0
  4  2  1  0
  6  8  1  0
  6  5  1  0
  6  7  1  6
  8  9  2  0
 10 11  1  0
 11 12  2  0
 13 14  1  0
 13 11  1  0
 15 14  1  0
 16 15  1  0
 17 16  1  1
 17 19  1  0
 18 17  1  0
 18  8  1  0
 19 20  2  0
 19 26  1  0
 22 21  1  1
 22 24  1  0
 23 22  1  0
 25 24  1  6
 25 27  1  0
 26 25  1  0
 27 29  2  0
 27 28  1  0
M  END
$$$$
