QRL.pdb
     RDKit          3D

 29 28  0  0  1  0  0  0  0  0999 V2000
    9.1822  -12.3270   18.4196 N   0  0  0  0  0  0  0  0  0  0  0  0
    8.4769  -12.0977   19.6270 C   0  0  0  0  0  0  0  0  0  0  0  0
    8.5331  -10.9526   20.1359 O   0  0  0  0  0  0  0  0  0  0  0  0
    7.6986  -13.1891   20.2611 C   0  0  0  0  0  0  0  0  0  0  0  0
    7.7705  -14.4728   19.5264 C   0  0  0  0  0  0  0  0  0  0  0  0
    6.9948  -15.6244   20.0692 C   0  0  2  0  0  0  0  0  0  0  0  0
    5.5767  -15.1863   20.0733 N   0  0  0  0  0  0  0  0  0  0  0  0
    7.3715  -15.9967   21.4743 C   0  0  0  0  0  0  0  0  0  0  0  0
    6.6421  -15.5338   22.3804 O   0  0  0  0  0  0  0  0  0  0  0  0
   14.1913  -19.6688   25.3570 N   0  0  0  0  0  0  0  0  0  0  0  0
   13.1658  -20.3198   26.0961 C   0  0  0  0  0  0  0  0  0  0  0  0
   13.4445  -20.8215   27.2447 N   0  0  0  0  0  0  0  0  0  0  0  0
   11.8431  -20.4222   25.5759 N   0  0  0  0  0  0  0  0  0  0  0  0
   11.4479  -19.9210   24.2824 C   0  0  0  0  0  0  0  0  0  0  0  0
   10.4496  -18.8413   24.3093 C   0  0  0  0  0  0  0  0  0  0  0  0
    9.9409  -18.2524   23.0684 C   0  0  0  0  0  0  0  0  0  0  0  0
    8.9498  -17.1465   23.1353 C   0  0  2  0  0  0  0  0  0  0  0  0
    8.4621  -16.8117   21.8087 N   0  0  0  0  0  0  0  0  0  0  0  0
    9.2906  -15.9872   23.9673 C   0  0  0  0  0  0  0  0  0  0  0  0
   10.2483  -15.2610   23.6970 O   0  0  0  0  0  0  0  0  0  0  0  0
   12.7619  -21.2918   27.8600 C   0  0  0  0  0  0  0  0  0  0  0  0
    8.1072  -12.0264   24.9193 C   0  0  1  0  0  0  0  0  0  0  0  0
    7.1350  -13.1381   25.3302 C   0  0  0  0  0  0  0  0  0  0  0  0
    5.8863  -12.4321   25.8532 C   0  0  0  0  0  0  0  0  0  0  0  0
    7.7520  -13.8812   26.4654 C   0  0  2  0  0  0  0  0  0  0  0  0
    9.0232  -14.6564   26.0620 N   0  0  0  0  0  0  0  0  0  0  0  0
    8.5127  -15.6590   25.1127 C   0  0  0  0  0  0  0  0  0  0  0  0
    9.5268  -15.2774   27.2748 O   0  0  0  0  0  0  0  0  0  0  0  0
    9.3724  -16.6582   27.4563 O   0  0  0  0  0  0  0  0  0  0  0  0
  1  2  1  0
  2  3  2  0
  4  5  1  0
  4  2  1  0
  6  8  1  0
  6  5  1  0
  6  7  1  1
  8  9  2  0
 10 11  1  0
 11 12  2  0
 13 14  1  0
 13 11  1  0
 15 14  1  0
 16 15  1  0
 17 16  1  6
 17 19  1  0
 18 17  1  0
 18  8  1  0
 19 20  2  0
 19 26  1  0
 22 21  1  6
 22 24  1  0
 23 22  1  0
 25 24  1  6
 25 27  1  0
 26 25  1  0
 27 29  2  0
 27 28  1  0
M  END
$$$$
