QRL.pdb
     RDKit          3D

 29 28  0  0  1  0  0  0  0  0999 V2000
    9.1768  -14.6727   14.7069 N   0  0  0  0  0  0  0  0  0  0  0  0
    8.1550  -14.6847   15.6886 C   0  0  0  0  0  0  0  0  0  0  0  0
    7.3583  -15.6534   15.7004 O   0  0  0  0  0  0  0  0  0  0  0  0
    8.0414  -13.5772   16.6681 C   0  0  0  0  0  0  0  0  0  0  0  0
    7.5624  -14.0110   18.0005 C   0  0  0  0  0  0  0  0  0  0  0  0
    8.5881  -14.3128   19.0394 C   0  0  2  0  0  0  0  0  0  0  0  0
    9.3343  -15.4927   18.5353 N   0  0  0  0  0  0  0  0  0  0  0  0
    8.0055  -14.6669   20.3774 C   0  0  0  0  0  0  0  0  0  0  0  0
    7.3635  -13.7605   20.9550 O   0  0  0  0  0  0  0  0  0  0  0  0
    9.0712  -19.8500   26.3698 N   0  0  0  0  0  0  0  0  0  0  0  0
    7.7321  -20.3271   26.3967 C   0  0  0  0  0  0  0  0  0  0  0  0
    7.2507  -20.7788   27.4980 N   0  0  0  0  0  0  0  0  0  0  0  0
    6.9273  -20.3114   25.2208 N   0  0  0  0  0  0  0  0  0  0  0  0
    7.3946  -19.8571   23.9339 C   0  0  0  0  0  0  0  0  0  0  0  0
    7.4459  -18.3967   23.7680 C   0  0  0  0  0  0  0  0  0  0  0  0
    7.7477  -17.7949   22.4671 C   0  0  0  0  0  0  0  0  0  0  0  0
    7.6993  -16.3169   22.3154 C   0  0  2  0  0  0  0  0  0  0  0  0
    8.1397  -15.9213   20.9889 N   0  0  0  0  0  0  0  0  0  0  0  0
    8.2574  -15.5100   23.4061 C   0  0  0  0  0  0  0  0  0  0  0  0
    9.4701  -15.4665   23.6183 O   0  0  0  0  0  0  0  0  0  0  0  0
    6.2899  -21.1384   27.6138 C   0  0  0  0  0  0  0  0  0  0  0  0
    5.9397  -11.1125   27.0055 C   0  0  1  0  0  0  0  0  0  0  0  0
    7.2090  -11.8980   26.6568 C   0  0  0  0  0  0  0  0  0  0  0  0
    8.1783  -10.8840   26.0536 C   0  0  0  0  0  0  0  0  0  0  0  0
    6.8541  -12.8820   25.5951 C   0  0  2  0  0  0  0  0  0  0  0  0
    8.0144  -13.8346   25.2402 N   0  0  0  0  0  0  0  0  0  0  0  0
    7.4090  -14.7399   24.2499 C   0  0  0  0  0  0  0  0  0  0  0  0
    8.3580  -14.5361   26.4650 O   0  0  0  0  0  0  0  0  0  0  0  0
    7.7041  -15.7353   26.7779 O   0  0  0  0  0  0  0  0  0  0  0  0
  1  2  1  0
  2  3  2  0
  4  5  1  0
  4  2  1  0
  6  8  1  0
  6  5  1  0
  6  7  1  6
  8  9  2  0
 10 11  1  0
 11 12  2  0
 13 14  1  0
 13 11  1  0
 15 14  1  0
 16 15  1  0
 17 16  1  1
 17 19  1  0
 18 17  1  0
 18  8  1  0
 19 20  2  0
 19 26  1  0
 22 21  1  1
 22 24  1  0
 23 22  1  0
 25 24  1  6
 25 27  1  0
 26 25  1  0
 27 29  2  0
 27 28  1  0
M  END
$$$$
