QRL.pdb
     RDKit          3D

 29 28  0  0  1  0  0  0  0  0999 V2000
    6.6951  -13.5133   15.8388 N   0  0  0  0  0  0  0  0  0  0  0  0
    7.3189  -14.7281   16.2171 C   0  0  0  0  0  0  0  0  0  0  0  0
    6.9963  -15.7739   15.6044 O   0  0  0  0  0  0  0  0  0  0  0  0
    8.3227  -14.7489   17.3084 C   0  0  0  0  0  0  0  0  0  0  0  0
    8.4696  -13.4497   18.0037 C   0  0  0  0  0  0  0  0  0  0  0  0
    9.3810  -13.3955   19.1823 C   0  0  2  0  0  0  0  0  0  0  0  0
   10.6706  -13.9656   18.7184 N   0  0  0  0  0  0  0  0  0  0  0  0
    8.9051  -14.2098   20.3508 C   0  0  0  0  0  0  0  0  0  0  0  0
    7.8240  -13.8489   20.8688 O   0  0  0  0  0  0  0  0  0  0  0  0
   10.3352  -19.0880   17.7277 N   0  0  0  0  0  0  0  0  0  0  0  0
   11.5879  -19.4118   18.3173 C   0  0  0  0  0  0  0  0  0  0  0  0
   12.6178  -19.5485   17.5629 N   0  0  0  0  0  0  0  0  0  0  0  0
   11.7083  -19.5879   19.7263 N   0  0  0  0  0  0  0  0  0  0  0  0
   10.6044  -19.4709   20.6474 C   0  0  0  0  0  0  0  0  0  0  0  0
   10.0002  -18.1327   20.7315 C   0  0  0  0  0  0  0  0  0  0  0  0
    9.9038  -17.4270   22.0114 C   0  0  0  0  0  0  0  0  0  0  0  0
    9.2666  -16.0849   22.0612 C   0  0  2  0  0  0  0  0  0  0  0  0
    9.5888  -15.3179   20.8704 N   0  0  0  0  0  0  0  0  0  0  0  0
    9.3784  -15.3332   23.3161 C   0  0  0  0  0  0  0  0  0  0  0  0
   10.4534  -14.8618   23.6897 O   0  0  0  0  0  0  0  0  0  0  0  0
   13.5642  -19.7858   17.9006 C   0  0  0  0  0  0  0  0  0  0  0  0
    5.4910  -12.4983   27.0543 C   0  0  1  0  0  0  0  0  0  0  0  0
    6.9303  -13.0097   26.9247 C   0  0  0  0  0  0  0  0  0  0  0  0
    7.8135  -11.7660   26.8571 C   0  0  0  0  0  0  0  0  0  0  0  0
    7.0407  -13.7229   25.6205 C   0  0  2  0  0  0  0  0  0  0  0  0
    8.4042  -14.4169   25.4235 N   0  0  0  0  0  0  0  0  0  0  0  0
    8.2379  -15.1158   24.1388 C   0  0  0  0  0  0  0  0  0  0  0  0
    8.5508  -15.3524   26.5252 O   0  0  0  0  0  0  0  0  0  0  0  0
    8.0947  -16.6689   26.3754 O   0  0  0  0  0  0  0  0  0  0  0  0
  1  2  1  0
  2  3  2  0
  4  5  1  0
  4  2  1  0
  6  8  1  0
  6  5  1  0
  6  7  1  6
  8  9  2  0
 10 11  1  0
 11 12  2  0
 13 14  1  0
 13 11  1  0
 15 14  1  0
 16 15  1  0
 17 16  1  1
 17 19  1  0
 18 17  1  0
 18  8  1  0
 19 20  2  0
 19 26  1  0
 22 21  1  1
 22 24  1  0
 23 22  1  0
 25 24  1  6
 25 27  1  0
 26 25  1  0
 27 29  2  0
 27 28  1  0
M  END
$$$$
