QRL.pdb
     RDKit          3D

 29 28  0  0  1  0  0  0  0  0999 V2000
    8.0299  -22.2930   20.0470 N   0  0  0  0  0  0  0  0  0  0  0  0
    9.2343  -21.5671   19.8731 C   0  0  0  0  0  0  0  0  0  0  0  0
    9.8592  -21.7089   18.7948 O   0  0  0  0  0  0  0  0  0  0  0  0
    9.7313  -20.6690   20.9432 C   0  0  0  0  0  0  0  0  0  0  0  0
    8.8920  -20.6794   22.1632 C   0  0  0  0  0  0  0  0  0  0  0  0
    9.3460  -19.8583   23.3217 C   0  0  2  0  0  0  0  0  0  0  0  0
    8.2974  -20.0157   24.3602 N   0  0  0  0  0  0  0  0  0  0  0  0
    9.4770  -18.3953   23.0098 C   0  0  0  0  0  0  0  0  0  0  0  0
   10.6428  -17.9394   22.9892 O   0  0  0  0  0  0  0  0  0  0  0  0
    9.9477  -12.5135   18.1227 N   0  0  0  0  0  0  0  0  0  0  0  0
    8.6060  -12.9687   18.2428 C   0  0  0  0  0  0  0  0  0  0  0  0
    8.0305  -13.4960   17.2233 N   0  0  0  0  0  0  0  0  0  0  0  0
    7.8993  -12.8426   19.4738 N   0  0  0  0  0  0  0  0  0  0  0  0
    8.2114  -13.6013   20.6602 C   0  0  0  0  0  0  0  0  0  0  0  0
    7.0769  -14.3219   21.2572 C   0  0  0  0  0  0  0  0  0  0  0  0
    7.2141  -15.7111   21.7010 C   0  0  0  0  0  0  0  0  0  0  0  0
    8.4291  -16.1231   22.4519 C   0  0  2  0  0  0  0  0  0  0  0  0
    8.3938  -17.5449   22.7474 N   0  0  0  0  0  0  0  0  0  0  0  0
    8.8421  -15.2790   23.5786 C   0  0  0  0  0  0  0  0  0  0  0  0
    9.6102  -14.3288   23.4224 O   0  0  0  0  0  0  0  0  0  0  0  0
    7.0294  -13.7442   17.1788 C   0  0  0  0  0  0  0  0  0  0  0  0
    7.8728  -11.9453   25.3031 C   0  0  2  0  0  0  0  0  0  0  0  0
    6.9545  -13.1489   25.5436 C   0  0  0  0  0  0  0  0  0  0  0  0
    5.6799  -12.5867   26.1688 C   0  0  0  0  0  0  0  0  0  0  0  0
    7.6134  -14.0253   26.5533 C   0  0  2  0  0  0  0  0  0  0  0  0
    8.8756  -14.7286   26.0129 N   0  0  0  0  0  0  0  0  0  0  0  0
    8.3552  -15.5285   24.8922 C   0  0  0  0  0  0  0  0  0  0  0  0
    9.3668  -15.5725   27.0885 O   0  0  0  0  0  0  0  0  0  0  0  0
    9.2232  -16.9631   26.9925 O   0  0  0  0  0  0  0  0  0  0  0  0
  1  2  1  0
  2  3  2  0
  4  5  1  0
  4  2  1  0
  6  8  1  0
  6  5  1  0
  6  7  1  1
  8  9  2  0
 10 11  1  0
 11 12  2  0
 13 14  1  0
 13 11  1  0
 15 14  1  0
 16 15  1  0
 17 16  1  1
 17 19  1  0
 18 17  1  0
 18  8  1  0
 19 20  2  0
 19 26  1  0
 22 21  1  6
 22 24  1  0
 23 22  1  0
 25 24  1  6
 25 27  1  0
 26 25  1  0
 27 29  2  0
 27 28  1  0
M  END
$$$$
