QRL.pdb
     RDKit          3D

 29 28  0  0  1  0  0  0  0  0999 V2000
   10.0224  -22.7191   20.3364 N   0  0  0  0  0  0  0  0  0  0  0  0
    8.6487  -22.7226   20.6840 C   0  0  0  0  0  0  0  0  0  0  0  0
    7.8880  -23.5151   20.0785 O   0  0  0  0  0  0  0  0  0  0  0  0
    8.1376  -21.8102   21.7352 C   0  0  0  0  0  0  0  0  0  0  0  0
    9.1614  -20.8779   22.2601 C   0  0  0  0  0  0  0  0  0  0  0  0
    8.7455  -19.9243   23.3280 C   0  0  2  0  0  0  0  0  0  0  0  0
    7.2629  -19.8811   23.2718 N   0  0  0  0  0  0  0  0  0  0  0  0
    9.2603  -18.5285   23.1243 C   0  0  0  0  0  0  0  0  0  0  0  0
   10.4961  -18.3740   23.2518 O   0  0  0  0  0  0  0  0  0  0  0  0
    8.4852  -12.2083   17.4220 N   0  0  0  0  0  0  0  0  0  0  0  0
    8.1560  -13.5868   17.5371 C   0  0  0  0  0  0  0  0  0  0  0  0
    8.2531  -14.3417   16.5030 N   0  0  0  0  0  0  0  0  0  0  0  0
    7.7196  -14.1324   18.7790 N   0  0  0  0  0  0  0  0  0  0  0  0
    7.6844  -13.3889   20.0146 C   0  0  0  0  0  0  0  0  0  0  0  0
    8.3750  -14.0253   21.1464 C   0  0  0  0  0  0  0  0  0  0  0  0
    8.0836  -15.4095   21.5268 C   0  0  0  0  0  0  0  0  0  0  0  0
    8.8602  -16.0465   22.6227 C   0  0  2  0  0  0  0  0  0  0  0  0
    8.4516  -17.4282   22.8070 N   0  0  0  0  0  0  0  0  0  0  0  0
    9.0124  -15.2872   23.8688 C   0  0  0  0  0  0  0  0  0  0  0  0
    9.3133  -14.0927   23.8612 O   0  0  0  0  0  0  0  0  0  0  0  0
    8.1212  -15.3656   16.5105 C   0  0  0  0  0  0  0  0  0  0  0  0
    8.6210  -12.1466   26.4223 C   0  0  2  0  0  0  0  0  0  0  0  0
    7.6088  -13.1303   25.8242 C   0  0  0  0  0  0  0  0  0  0  0  0
    6.2305  -12.5320   26.0959 C   0  0  0  0  0  0  0  0  0  0  0  0
    7.7140  -14.4065   26.5869 C   0  0  2  0  0  0  0  0  0  0  0  0
    9.0527  -15.1388   26.3600 N   0  0  0  0  0  0  0  0  0  0  0  0
    8.8045  -15.9101   25.1311 C   0  0  0  0  0  0  0  0  0  0  0  0
    9.2433  -16.0092   27.5073 O   0  0  0  0  0  0  0  0  0  0  0  0
    9.0813  -17.3928   27.3559 O   0  0  0  0  0  0  0  0  0  0  0  0
  1  2  1  0
  2  3  2  0
  4  5  1  0
  4  2  1  0
  6  8  1  0
  6  5  1  0
  6  7  1  6
  8  9  2  0
 10 11  1  0
 11 12  2  0
 13 14  1  0
 13 11  1  0
 15 14  1  0
 16 15  1  0
 17 16  1  6
 17 19  1  0
 18 17  1  0
 18  8  1  0
 19 20  2  0
 19 26  1  0
 22 21  1  6
 22 24  1  0
 23 22  1  0
 25 24  1  6
 25 27  1  0
 26 25  1  0
 27 29  2  0
 27 28  1  0
M  END
$$$$
