QRL.pdb
     RDKit          3D

 29 28  0  0  1  0  0  0  0  0999 V2000
    7.1305  -14.5794   15.8026 N   0  0  0  0  0  0  0  0  0  0  0  0
    8.0488  -14.0129   16.7211 C   0  0  0  0  0  0  0  0  0  0  0  0
    9.2567  -13.9535   16.3883 O   0  0  0  0  0  0  0  0  0  0  0  0
    7.5825  -13.5087   18.0352 C   0  0  0  0  0  0  0  0  0  0  0  0
    8.4809  -13.8613   19.1583 C   0  0  0  0  0  0  0  0  0  0  0  0
    8.5002  -15.2825   19.6082 C   0  0  2  0  0  0  0  0  0  0  0  0
    7.6429  -16.0192   18.6462 N   0  0  0  0  0  0  0  0  0  0  0  0
    7.9375  -15.4871   20.9852 C   0  0  0  0  0  0  0  0  0  0  0  0
    6.7954  -15.0161   21.1884 O   0  0  0  0  0  0  0  0  0  0  0  0
    6.8856  -22.9132   23.7177 N   0  0  0  0  0  0  0  0  0  0  0  0
    6.1400  -21.9102   24.3957 C   0  0  0  0  0  0  0  0  0  0  0  0
    5.3605  -22.2524   25.3569 N   0  0  0  0  0  0  0  0  0  0  0  0
    6.2469  -20.5402   24.0186 N   0  0  0  0  0  0  0  0  0  0  0  0
    7.0014  -20.0774   22.8796 C   0  0  0  0  0  0  0  0  0  0  0  0
    7.0977  -18.6159   22.7462 C   0  0  0  0  0  0  0  0  0  0  0  0
    7.9531  -17.8311   23.6394 C   0  0  0  0  0  0  0  0  0  0  0  0
    8.1477  -16.3806   23.3790 C   0  0  2  0  0  0  0  0  0  0  0  0
    8.6057  -16.1591   22.0184 N   0  0  0  0  0  0  0  0  0  0  0  0
    8.8673  -15.6052   24.3955 C   0  0  0  0  0  0  0  0  0  0  0  0
   10.0918  -15.4758   24.3581 O   0  0  0  0  0  0  0  0  0  0  0  0
    4.7938  -21.5939   25.9146 C   0  0  0  0  0  0  0  0  0  0  0  0
    7.6361  -11.6797   25.5030 C   0  0  2  0  0  0  0  0  0  0  0  0
    6.8738  -12.7635   26.2740 C   0  0  0  0  0  0  0  0  0  0  0  0
    5.8323  -12.0278   27.1138 C   0  0  0  0  0  0  0  0  0  0  0  0
    7.8366  -13.4171   27.2054 C   0  0  2  0  0  0  0  0  0  0  0  0
    8.9274  -14.2290   26.4769 N   0  0  0  0  0  0  0  0  0  0  0  0
    8.1656  -14.9662   25.4557 C   0  0  0  0  0  0  0  0  0  0  0  0
    9.5004  -15.1253   27.4661 O   0  0  0  0  0  0  0  0  0  0  0  0
   10.4452  -14.6325   28.3761 O   0  0  0  0  0  0  0  0  0  0  0  0
  1  2  1  0
  2  3  2  0
  4  5  1  0
  4  2  1  0
  6  8  1  0
  6  5  1  0
  6  7  1  6
  8  9  2  0
 10 11  1  0
 11 12  2  0
 13 14  1  0
 13 11  1  0
 15 14  1  0
 16 15  1  0
 17 16  1  1
 17 19  1  0
 18 17  1  0
 18  8  1  0
 19 20  2  0
 19 26  1  0
 22 21  1  6
 22 24  1  0
 23 22  1  0
 25 24  1  6
 25 27  1  0
 26 25  1  0
 27 29  2  0
 27 28  1  0
M  END
$$$$
