QRL.pdb
     RDKit          3D

 29 28  0  0  1  0  0  0  0  0999 V2000
   13.5179  -15.0501   19.7673 N   0  0  0  0  0  0  0  0  0  0  0  0
   12.9324  -13.9670   19.0659 C   0  0  0  0  0  0  0  0  0  0  0  0
   13.6945  -13.1611   18.4805 O   0  0  0  0  0  0  0  0  0  0  0  0
   11.4591  -13.8021   19.0330 C   0  0  0  0  0  0  0  0  0  0  0  0
   10.7178  -15.0055   19.4750 C   0  0  0  0  0  0  0  0  0  0  0  0
    9.2283  -14.9473   19.4517 C   0  0  2  0  0  0  0  0  0  0  0  0
    8.8877  -13.6351   18.8474 N   0  0  0  0  0  0  0  0  0  0  0  0
    8.6007  -15.0096   20.8144 C   0  0  0  0  0  0  0  0  0  0  0  0
    8.2823  -13.9114   21.3242 O   0  0  0  0  0  0  0  0  0  0  0  0
    8.8377  -20.1025   25.5824 N   0  0  0  0  0  0  0  0  0  0  0  0
    7.6744  -20.2904   26.3782 C   0  0  0  0  0  0  0  0  0  0  0  0
    7.8018  -20.7234   27.5802 N   0  0  0  0  0  0  0  0  0  0  0  0
    6.3789  -20.0077   25.8564 N   0  0  0  0  0  0  0  0  0  0  0  0
    6.1442  -19.4618   24.5420 C   0  0  0  0  0  0  0  0  0  0  0  0
    6.6793  -18.1096   24.3227 C   0  0  0  0  0  0  0  0  0  0  0  0
    7.3238  -17.7487   23.0578 C   0  0  0  0  0  0  0  0  0  0  0  0
    7.7702  -16.3480   22.8371 C   0  0  2  0  0  0  0  0  0  0  0  0
    8.3606  -16.1980   21.5184 N   0  0  0  0  0  0  0  0  0  0  0  0
    8.5262  -15.7048   23.9174 C   0  0  0  0  0  0  0  0  0  0  0  0
    9.7497  -15.8197   24.0029 O   0  0  0  0  0  0  0  0  0  0  0  0
    7.0146  -20.9246   28.2172 C   0  0  0  0  0  0  0  0  0  0  0  0
    7.5151  -11.6162   25.0484 C   0  0  1  0  0  0  0  0  0  0  0  0
    6.6994  -12.6907   25.7763 C   0  0  0  0  0  0  0  0  0  0  0  0
    5.6760  -11.9388   26.6240 C   0  0  0  0  0  0  0  0  0  0  0  0
    7.6218  -13.4097   26.7002 C   0  0  2  0  0  0  0  0  0  0  0  0
    8.6599  -14.2805   25.9628 N   0  0  0  0  0  0  0  0  0  0  0  0
    7.8647  -14.9146   24.8987 C   0  0  0  0  0  0  0  0  0  0  0  0
    9.1355  -15.2567   26.9276 O   0  0  0  0  0  0  0  0  0  0  0  0
   10.0307  -14.8556   27.9284 O   0  0  0  0  0  0  0  0  0  0  0  0
  1  2  1  0
  2  3  2  0
  4  5  1  0
  4  2  1  0
  6  8  1  0
  6  5  1  0
  6  7  1  1
  8  9  2  0
 10 11  1  0
 11 12  2  0
 13 14  1  0
 13 11  1  0
 15 14  1  0
 16 15  1  0
 17 16  1  1
 17 19  1  0
 18 17  1  0
 18  8  1  0
 19 20  2  0
 19 26  1  0
 22 21  1  6
 22 24  1  0
 23 22  1  0
 25 24  1  6
 25 27  1  0
 26 25  1  0
 27 29  2  0
 27 28  1  0
M  END
$$$$
