NKK.pdb
     RDKit          3D

 27 26  0  0  1  0  0  0  0  0999 V2000
   14.6744  -16.1816   17.9814 N   0  0  0  0  0  0  0  0  0  0  0  0
   14.3716  -14.9304   18.5647 C   0  0  0  0  0  0  0  0  0  0  0  0
   14.8594  -13.8770   18.0872 O   0  0  0  0  0  0  0  0  0  0  0  0
   13.4730  -14.8836   19.7435 C   0  0  0  0  0  0  0  0  0  0  0  0
   12.0579  -14.9985   19.2782 C   0  0  2  0  0  0  0  0  0  0  0  0
   11.6173  -13.8564   18.5352 N   0  0  0  0  0  0  0  0  0  0  0  0
   11.1178  -15.3095   20.3840 C   0  0  0  0  0  0  0  0  0  0  0  0
   10.5963  -14.3982   21.0834 O   0  0  0  0  0  0  0  0  0  0  0  0
   10.7731  -16.6512   20.6928 N   0  0  0  0  0  0  0  0  0  0  0  0
    9.7998  -16.8955   21.7278 C   0  0  1  0  0  0  0  0  0  0  0  0
    9.1005  -18.2305   21.5398 C   0  0  0  0  0  0  0  0  0  0  0  0
    8.0738  -18.4377   22.6425 C   0  0  0  0  0  0  0  0  0  0  0  0
    7.5142  -19.8447   22.4601 C   0  0  0  0  0  0  0  0  0  0  0  0
    6.3549  -20.0721   23.4012 C   0  0  0  0  0  0  0  0  0  0  0  0
    5.9523  -21.4623   23.2930 N   0  0  0  0  0  0  0  0  0  0  0  0
   10.4736  -16.9559   23.0445 C   0  0  0  0  0  0  0  0  0  0  0  0
   11.5616  -17.5532   23.2408 O   0  0  0  0  0  0  0  0  0  0  0  0
    9.8854  -16.3176   24.1541 N   0  0  0  0  0  0  0  0  0  0  0  0
   10.5254  -16.2387   25.4594 C   0  0  1  0  0  0  0  0  0  0  0  0
    9.7861  -15.3950   26.4178 C   0  0  0  0  0  0  0  0  0  0  0  0
   10.4860  -15.3641   27.7466 C   0  0  0  0  0  0  0  0  0  0  0  0
    9.8188  -14.4600   28.7509 C   0  0  0  0  0  0  0  0  0  0  0  0
   10.5757  -14.3879   30.0524 C   0  0  0  0  0  0  0  0  0  0  0  0
   10.0394  -13.4632   30.9952 N   0  0  0  0  0  0  0  0  0  0  0  0
   10.6111  -17.6296   25.9577 C   0  0  0  0  0  0  0  0  0  0  0  0
   11.6606  -18.0980   26.4883 O   0  0  0  0  0  0  0  0  0  0  0  0
    9.5168  -18.5164   25.8668 O   0  0  0  0  0  0  0  0  0  0  0  0
  2  1  1  0
  3  2  2  0
  4  2  1  0
  5  4  1  0
  5  6  1  1
  7  5  1  0
  7  8  2  0
  9  7  1  0
 10  9  1  0
 10 11  1  6
 12 11  1  0
 12 13  1  0
 13 14  1  0
 14 15  1  0
 16 10  1  0
 17 16  2  0
 18 16  1  0
 19 25  1  0
 19 18  1  0
 19 20  1  1
 21 20  1  0
 22 21  1  0
 23 22  1  0
 23 24  1  0
 25 27  1  0
 26 25  2  0
M  END
$$$$
