NKK.pdb
     RDKit          3D

 27 26  0  0  1  0  0  0  0  0999 V2000
   13.1392  -18.0004   14.1384 N   0  0  0  0  0  0  0  0  0  0  0  0
   13.3648  -16.6118   14.2742 C   0  0  0  0  0  0  0  0  0  0  0  0
   13.8307  -15.9515   13.3138 O   0  0  0  0  0  0  0  0  0  0  0  0
   13.0436  -15.9523   15.5630 C   0  0  0  0  0  0  0  0  0  0  0  0
   12.6612  -16.9978   16.5595 C   0  0  2  0  0  0  0  0  0  0  0  0
   11.5422  -17.7879   16.1419 N   0  0  0  0  0  0  0  0  0  0  0  0
   12.4411  -16.4382   17.9167 C   0  0  0  0  0  0  0  0  0  0  0  0
   13.3892  -15.9514   18.5919 O   0  0  0  0  0  0  0  0  0  0  0  0
   11.1486  -16.4330   18.5029 N   0  0  0  0  0  0  0  0  0  0  0  0
   10.9852  -15.8568   19.8142 C   0  0  1  0  0  0  0  0  0  0  0  0
    9.5666  -15.3639   20.0401 C   0  0  0  0  0  0  0  0  0  0  0  0
    9.3330  -14.0805   19.2582 C   0  0  0  0  0  0  0  0  0  0  0  0
    7.8806  -13.6813   19.4970 C   0  0  0  0  0  0  0  0  0  0  0  0
    7.5393  -12.4471   18.6958 C   0  0  0  0  0  0  0  0  0  0  0  0
    6.1287  -12.1628   18.8846 N   0  0  0  0  0  0  0  0  0  0  0  0
   11.2427  -16.8844   20.8481 C   0  0  0  0  0  0  0  0  0  0  0  0
   10.8467  -18.0737   20.7587 O   0  0  0  0  0  0  0  0  0  0  0  0
   11.9687  -16.5374   22.0046 N   0  0  0  0  0  0  0  0  0  0  0  0
   12.3886  -17.5101   23.0033 C   0  0  1  0  0  0  0  0  0  0  0  0
   13.8545  -17.6029   23.1419 C   0  0  0  0  0  0  0  0  0  0  0  0
   14.2259  -18.6430   24.1601 C   0  0  0  0  0  0  0  0  0  0  0  0
   15.7134  -18.7738   24.3635 C   0  0  0  0  0  0  0  0  0  0  0  0
   16.0679  -19.8789   25.3253 C   0  0  0  0  0  0  0  0  0  0  0  0
   17.4628  -20.1579   25.4137 N   0  0  0  0  0  0  0  0  0  0  0  0
   11.7775  -17.0760   24.2793 C   0  0  0  0  0  0  0  0  0  0  0  0
   11.2528  -15.9336   24.4276 O   0  0  0  0  0  0  0  0  0  0  0  0
   11.7468  -17.9207   25.4096 O   0  0  0  0  0  0  0  0  0  0  0  0
  2  1  1  0
  3  2  2  0
  4  2  1  0
  5  4  1  0
  5  6  1  6
  7  5  1  0
  7  8  2  0
  9  7  1  0
 10  9  1  0
 10 11  1  6
 12 11  1  0
 12 13  1  0
 13 14  1  0
 14 15  1  0
 16 10  1  0
 17 16  2  0
 18 16  1  0
 19 25  1  0
 19 18  1  0
 19 20  1  1
 21 20  1  0
 22 21  1  0
 23 22  1  0
 23 24  1  0
 25 27  1  0
 26 25  2  0
M  END
$$$$
