NKK.pdb
     RDKit          3D

 27 26  0  0  1  0  0  0  0  0999 V2000
   14.6301  -19.1298   20.4055 N   0  0  0  0  0  0  0  0  0  0  0  0
   14.2992  -18.0610   19.5418 C   0  0  0  0  0  0  0  0  0  0  0  0
   15.1107  -17.6881   18.6599 O   0  0  0  0  0  0  0  0  0  0  0  0
   12.9846  -17.3919   19.6945 C   0  0  0  0  0  0  0  0  0  0  0  0
   12.2613  -18.0041   20.8497 C   0  0  2  0  0  0  0  0  0  0  0  0
   11.2192  -18.9001   20.4476 N   0  0  0  0  0  0  0  0  0  0  0  0
   11.7516  -16.9891   21.8055 C   0  0  0  0  0  0  0  0  0  0  0  0
   12.5341  -16.2907   22.5067 O   0  0  0  0  0  0  0  0  0  0  0  0
   10.3582  -16.7702   21.9630 N   0  0  0  0  0  0  0  0  0  0  0  0
    9.9150  -15.7963   22.9291 C   0  0  1  0  0  0  0  0  0  0  0  0
    8.6739  -15.0592   22.4573 C   0  0  0  0  0  0  0  0  0  0  0  0
    8.9480  -14.3844   21.1221 C   0  0  0  0  0  0  0  0  0  0  0  0
    7.6314  -13.7626   20.6681 C   0  0  0  0  0  0  0  0  0  0  0  0
    7.7806  -13.1749   19.2847 C   0  0  0  0  0  0  0  0  0  0  0  0
    6.4745  -12.7200   18.8448 N   0  0  0  0  0  0  0  0  0  0  0  0
    9.5458  -16.4757   24.1915 C   0  0  0  0  0  0  0  0  0  0  0  0
    8.3749  -16.8387   24.4678 O   0  0  0  0  0  0  0  0  0  0  0  0
   10.5413  -16.7419   25.1522 N   0  0  0  0  0  0  0  0  0  0  0  0
   10.2768  -17.4440   26.3999 C   0  0  1  0  0  0  0  0  0  0  0  0
   11.4522  -18.1702   26.9172 C   0  0  0  0  0  0  0  0  0  0  0  0
   11.1029  -18.9193   28.1715 C   0  0  0  0  0  0  0  0  0  0  0  0
   12.2730  -19.6550   28.7721 C   0  0  0  0  0  0  0  0  0  0  0  0
   11.9072  -20.3786   30.0427 C   0  0  0  0  0  0  0  0  0  0  0  0
   13.0121  -20.9659   30.7251 N   0  0  0  0  0  0  0  0  0  0  0  0
    9.8436  -16.4107   27.3668 C   0  0  0  0  0  0  0  0  0  0  0  0
    9.1596  -16.6865   28.3955 O   0  0  0  0  0  0  0  0  0  0  0  0
   10.1734  -15.0495   27.1917 O   0  0  0  0  0  0  0  0  0  0  0  0
  2  1  1  0
  3  2  2  0
  4  2  1  0
  5  4  1  0
  5  6  1  6
  7  5  1  0
  7  8  2  0
  9  7  1  0
 10  9  1  0
 10 11  1  6
 12 11  1  0
 12 13  1  0
 13 14  1  0
 14 15  1  0
 16 10  1  0
 17 16  2  0
 18 16  1  0
 19 25  1  0
 19 18  1  0
 19 20  1  1
 21 20  1  0
 22 21  1  0
 23 22  1  0
 23 24  1  0
 25 27  1  0
 26 25  2  0
M  END
$$$$
