NKK.pdb
     RDKit          3D

 27 26  0  0  1  0  0  0  0  0999 V2000
    8.3639  -12.7106   16.2852 N   0  0  0  0  0  0  0  0  0  0  0  0
    8.1893  -14.1000   16.4764 C   0  0  0  0  0  0  0  0  0  0  0  0
    8.5991  -14.9123   15.6117 O   0  0  0  0  0  0  0  0  0  0  0  0
    7.5177  -14.5789   17.7089 C   0  0  0  0  0  0  0  0  0  0  0  0
    8.5549  -14.8610   18.7466 C   0  0  2  0  0  0  0  0  0  0  0  0
    9.6315  -15.6692   18.2584 N   0  0  0  0  0  0  0  0  0  0  0  0
    7.9778  -15.4359   19.9876 C   0  0  0  0  0  0  0  0  0  0  0  0
    7.0441  -14.8595   20.6103 O   0  0  0  0  0  0  0  0  0  0  0  0
    8.4611  -16.6605   20.5177 N   0  0  0  0  0  0  0  0  0  0  0  0
    7.8945  -17.1542   21.7479 C   0  0  1  0  0  0  0  0  0  0  0  0
    8.3617  -18.5658   22.0567 C   0  0  0  0  0  0  0  0  0  0  0  0
    7.7174  -19.0550   23.3447 C   0  0  0  0  0  0  0  0  0  0  0  0
    8.1039  -20.5225   23.4970 C   0  0  0  0  0  0  0  0  0  0  0  0
    7.5397  -21.0808   24.7820 C   0  0  0  0  0  0  0  0  0  0  0  0
    7.9345  -22.4740   24.8800 N   0  0  0  0  0  0  0  0  0  0  0  0
    8.3381  -16.3079   22.8785 C   0  0  0  0  0  0  0  0  0  0  0  0
    9.5454  -16.1100   23.1656 O   0  0  0  0  0  0  0  0  0  0  0  0
    7.3758  -15.6784   23.6925 N   0  0  0  0  0  0  0  0  0  0  0  0
    7.7140  -14.6907   24.7072 C   0  0  1  0  0  0  0  0  0  0  0  0
    6.5870  -13.8025   25.0504 C   0  0  0  0  0  0  0  0  0  0  0  0
    7.0113  -12.7730   26.0586 C   0  0  0  0  0  0  0  0  0  0  0  0
    5.8885  -11.8674   26.4948 C   0  0  0  0  0  0  0  0  0  0  0  0
    6.3417  -10.8238   27.4834 C   0  0  0  0  0  0  0  0  0  0  0  0
    5.3135   -9.9367   27.9163 N   0  0  0  0  0  0  0  0  0  0  0  0
    8.1456  -15.4578   25.8970 C   0  0  0  0  0  0  0  0  0  0  0  0
    7.5985  -16.5470   26.2385 O   0  0  0  0  0  0  0  0  0  0  0  0
    9.2002  -15.0116   26.7220 O   0  0  0  0  0  0  0  0  0  0  0  0
  2  1  1  0
  3  2  2  0
  4  2  1  0
  5  4  1  0
  5  6  1  6
  7  5  1  0
  7  8  2  0
  9  7  1  0
 10  9  1  0
 10 11  1  1
 12 11  1  0
 12 13  1  0
 13 14  1  0
 14 15  1  0
 16 10  1  0
 17 16  2  0
 18 16  1  0
 19 25  1  0
 19 18  1  0
 19 20  1  1
 21 20  1  0
 22 21  1  0
 23 22  1  0
 23 24  1  0
 25 27  1  0
 26 25  2  0
M  END
$$$$
