NKK.pdb
     RDKit          3D

 27 26  0  0  1  0  0  0  0  0999 V2000
    7.8752  -12.1666   16.8969 N   0  0  0  0  0  0  0  0  0  0  0  0
    7.7817  -13.5724   16.7844 C   0  0  0  0  0  0  0  0  0  0  0  0
    7.9168  -14.1261   15.6661 O   0  0  0  0  0  0  0  0  0  0  0  0
    7.5230  -14.3771   18.0029 C   0  0  0  0  0  0  0  0  0  0  0  0
    8.8257  -14.6775   18.6700 C   0  0  2  0  0  0  0  0  0  0  0  0
    9.7946  -15.2425   17.7798 N   0  0  0  0  0  0  0  0  0  0  0  0
    8.6642  -15.5168   19.8837 C   0  0  0  0  0  0  0  0  0  0  0  0
    7.8617  -15.1996   20.8040 O   0  0  0  0  0  0  0  0  0  0  0  0
    9.4127  -16.7112   20.0495 N   0  0  0  0  0  0  0  0  0  0  0  0
    9.3083  -17.4264   21.2968 C   0  0  1  0  0  0  0  0  0  0  0  0
    9.7776  -18.8645   21.1627 C   0  0  0  0  0  0  0  0  0  0  0  0
    8.6151  -19.8141   21.4074 C   0  0  0  0  0  0  0  0  0  0  0  0
    8.1025  -20.2402   20.0357 C   0  0  0  0  0  0  0  0  0  0  0  0
    7.0047  -21.2671   20.1838 C   0  0  0  0  0  0  0  0  0  0  0  0
    6.4585  -21.5365   18.8665 N   0  0  0  0  0  0  0  0  0  0  0  0
   10.1802  -16.7927   22.3116 C   0  0  0  0  0  0  0  0  0  0  0  0
   11.3560  -16.4155   22.0785 O   0  0  0  0  0  0  0  0  0  0  0  0
    9.6904  -16.5896   23.6168 N   0  0  0  0  0  0  0  0  0  0  0  0
   10.4930  -16.0188   24.6891 C   0  0  1  0  0  0  0  0  0  0  0  0
    9.6980  -15.6529   25.8768 C   0  0  0  0  0  0  0  0  0  0  0  0
   10.5805  -15.0826   26.9503 C   0  0  0  0  0  0  0  0  0  0  0  0
    9.8287  -14.6988   28.1988 C   0  0  0  0  0  0  0  0  0  0  0  0
   10.7094  -14.0166   29.2141 C   0  0  0  0  0  0  0  0  0  0  0  0
   10.0261  -13.5752   30.3845 N   0  0  0  0  0  0  0  0  0  0  0  0
   11.4982  -17.0470   25.0393 C   0  0  0  0  0  0  0  0  0  0  0  0
   12.7145  -16.7653   25.2477 O   0  0  0  0  0  0  0  0  0  0  0  0
   11.1508  -18.4096   25.1608 O   0  0  0  0  0  0  0  0  0  0  0  0
  2  1  1  0
  3  2  2  0
  4  2  1  0
  5  4  1  0
  5  6  1  6
  7  5  1  0
  7  8  2  0
  9  7  1  0
 10  9  1  0
 10 11  1  6
 12 11  1  0
 12 13  1  0
 13 14  1  0
 14 15  1  0
 16 10  1  0
 17 16  2  0
 18 16  1  0
 19 25  1  0
 19 18  1  0
 19 20  1  1
 21 20  1  0
 22 21  1  0
 23 22  1  0
 23 24  1  0
 25 27  1  0
 26 25  2  0
M  END
$$$$
