NKK.pdb
     RDKit          3D

 27 26  0  0  1  0  0  0  0  0999 V2000
    6.9115  -12.6162   17.3090 N   0  0  0  0  0  0  0  0  0  0  0  0
    7.8789  -13.3894   17.9901 C   0  0  0  0  0  0  0  0  0  0  0  0
    8.8808  -13.8303   17.3759 O   0  0  0  0  0  0  0  0  0  0  0  0
    7.6911  -13.6692   19.4343 C   0  0  0  0  0  0  0  0  0  0  0  0
    8.5024  -14.8680   19.8044 C   0  0  2  0  0  0  0  0  0  0  0  0
    8.6617  -15.7930   18.7230 N   0  0  0  0  0  0  0  0  0  0  0  0
    7.9889  -15.5511   21.0182 C   0  0  0  0  0  0  0  0  0  0  0  0
    7.6436  -14.9032   22.0443 O   0  0  0  0  0  0  0  0  0  0  0  0
    7.8691  -16.9645   21.0643 N   0  0  0  0  0  0  0  0  0  0  0  0
    7.4863  -17.5869   22.3070 C   0  0  1  0  0  0  0  0  0  0  0  0
    7.2456  -19.0771   22.1401 C   0  0  0  0  0  0  0  0  0  0  0  0
    6.8297  -19.6871   23.4697 C   0  0  0  0  0  0  0  0  0  0  0  0
    6.5422  -21.1611   23.2036 C   0  0  0  0  0  0  0  0  0  0  0  0
    6.1475  -21.8563   24.4851 C   0  0  0  0  0  0  0  0  0  0  0  0
    5.8158  -23.2330   24.1676 N   0  0  0  0  0  0  0  0  0  0  0  0
    8.5796  -17.4459   23.2951 C   0  0  0  0  0  0  0  0  0  0  0  0
    9.7887  -17.6599   23.0279 O   0  0  0  0  0  0  0  0  0  0  0  0
    8.2761  -17.0518   24.6132 N   0  0  0  0  0  0  0  0  0  0  0  0
    9.2943  -16.7334   25.6039 C   0  0  1  0  0  0  0  0  0  0  0  0
    8.8692  -15.6919   26.5584 C   0  0  0  0  0  0  0  0  0  0  0  0
    9.9141  -15.4851   27.6176 C   0  0  0  0  0  0  0  0  0  0  0  0
    9.5079  -14.4841   28.6684 C   0  0  0  0  0  0  0  0  0  0  0  0
   10.5942  -14.2446   29.6856 C   0  0  0  0  0  0  0  0  0  0  0  0
   10.2551  -13.3006   30.6982 N   0  0  0  0  0  0  0  0  0  0  0  0
    9.5813  -17.9984   26.3165 C   0  0  0  0  0  0  0  0  0  0  0  0
    8.7116  -18.9056   26.4678 O   0  0  0  0  0  0  0  0  0  0  0  0
   10.8522  -18.2631   26.8706 O   0  0  0  0  0  0  0  0  0  0  0  0
  2  1  1  0
  3  2  2  0
  4  2  1  0
  5  4  1  0
  5  6  1  6
  7  5  1  0
  7  8  2  0
  9  7  1  0
 10  9  1  0
 10 11  1  6
 12 11  1  0
 12 13  1  0
 13 14  1  0
 14 15  1  0
 16 10  1  0
 17 16  2  0
 18 16  1  0
 19 25  1  0
 19 18  1  0
 19 20  1  1
 21 20  1  0
 22 21  1  0
 23 22  1  0
 23 24  1  0
 25 27  1  0
 26 25  2  0
M  END
$$$$
