NKK.pdb
     RDKit          3D

 27 26  0  0  1  0  0  0  0  0999 V2000
   14.1402  -18.1479   14.6846 N   0  0  0  0  0  0  0  0  0  0  0  0
   12.8720  -18.0151   15.2941 C   0  0  0  0  0  0  0  0  0  0  0  0
   11.8568  -18.5189   14.7545 O   0  0  0  0  0  0  0  0  0  0  0  0
   12.7618  -17.2746   16.5743 C   0  0  0  0  0  0  0  0  0  0  0  0
   11.9095  -18.0611   17.5163 C   0  0  2  0  0  0  0  0  0  0  0  0
   10.6462  -18.4321   16.9532 N   0  0  0  0  0  0  0  0  0  0  0  0
   11.7309  -17.3831   18.8246 C   0  0  0  0  0  0  0  0  0  0  0  0
   12.7173  -17.0697   19.5462 O   0  0  0  0  0  0  0  0  0  0  0  0
   10.4360  -17.0633   19.3099 N   0  0  0  0  0  0  0  0  0  0  0  0
   10.3194  -16.3778   20.5726 C   0  0  1  0  0  0  0  0  0  0  0  0
    9.0085  -15.6189   20.6827 C   0  0  0  0  0  0  0  0  0  0  0  0
    9.0254  -14.4172   19.7507 C   0  0  0  0  0  0  0  0  0  0  0  0
    7.6216  -13.8217   19.7797 C   0  0  0  0  0  0  0  0  0  0  0  0
    7.5478  -12.6133   18.8765 C   0  0  0  0  0  0  0  0  0  0  0  0
    6.2154  -12.0486   18.9869 N   0  0  0  0  0  0  0  0  0  0  0  0
   10.3298  -17.3613   21.6790 C   0  0  0  0  0  0  0  0  0  0  0  0
    9.7415  -18.4706   21.6273 O   0  0  0  0  0  0  0  0  0  0  0  0
   11.0293  -17.0632   22.8649 N   0  0  0  0  0  0  0  0  0  0  0  0
   11.1257  -17.9865   23.9866 C   0  0  1  0  0  0  0  0  0  0  0  0
   12.4933  -18.4961   24.2024 C   0  0  0  0  0  0  0  0  0  0  0  0
   12.5084  -19.5279   25.2940 C   0  0  0  0  0  0  0  0  0  0  0  0
   13.8774  -20.1027   25.5522 C   0  0  0  0  0  0  0  0  0  0  0  0
   13.8488  -21.2312   26.5510 C   0  0  0  0  0  0  0  0  0  0  0  0
   15.0809  -21.9363   26.6784 N   0  0  0  0  0  0  0  0  0  0  0  0
   10.6625  -17.2359   25.1750 C   0  0  0  0  0  0  0  0  0  0  0  0
   10.6893  -15.9718   25.2335 O   0  0  0  0  0  0  0  0  0  0  0  0
   10.1614  -17.8962   26.3175 O   0  0  0  0  0  0  0  0  0  0  0  0
  2  1  1  0
  3  2  2  0
  4  2  1  0
  5  4  1  0
  5  6  1  6
  7  5  1  0
  7  8  2  0
  9  7  1  0
 10  9  1  0
 10 11  1  6
 12 11  1  0
 12 13  1  0
 13 14  1  0
 14 15  1  0
 16 10  1  0
 17 16  2  0
 18 16  1  0
 19 25  1  0
 19 18  1  0
 19 20  1  1
 21 20  1  0
 22 21  1  0
 23 22  1  0
 23 24  1  0
 25 27  1  0
 26 25  2  0
M  END
$$$$
