NKK.pdb
     RDKit          3D

 27 26  0  0  1  0  0  0  0  0999 V2000
   12.7072  -15.7774   12.7303 N   0  0  0  0  0  0  0  0  0  0  0  0
   13.3212  -16.7239   13.5816 C   0  0  0  0  0  0  0  0  0  0  0  0
   14.5135  -17.0657   13.3890 O   0  0  0  0  0  0  0  0  0  0  0  0
   12.5375  -17.3027   14.6996 C   0  0  0  0  0  0  0  0  0  0  0  0
   13.3005  -17.1198   15.9711 C   0  0  2  0  0  0  0  0  0  0  0  0
   14.6710  -17.5214   15.8654 N   0  0  0  0  0  0  0  0  0  0  0  0
   12.6420  -17.7731   17.1299 C   0  0  0  0  0  0  0  0  0  0  0  0
   11.7074  -17.2092   17.7627 O   0  0  0  0  0  0  0  0  0  0  0  0
   13.0451  -19.0619   17.5669 N   0  0  0  0  0  0  0  0  0  0  0  0
   12.3317  -19.6778   18.6577 C   0  0  1  0  0  0  0  0  0  0  0  0
   12.1535  -21.1706   18.4428 C   0  0  0  0  0  0  0  0  0  0  0  0
   11.2008  -21.7344   19.4857 C   0  0  0  0  0  0  0  0  0  0  0  0
   11.0650  -23.2251   19.1933 C   0  0  0  0  0  0  0  0  0  0  0  0
   10.1369  -23.8716   20.1945 C   0  0  0  0  0  0  0  0  0  0  0  0
   10.0627  -25.2888   19.8908 N   0  0  0  0  0  0  0  0  0  0  0  0
   13.1035  -19.5230   19.9115 C   0  0  0  0  0  0  0  0  0  0  0  0
   14.3559  -19.4268   19.9483 O   0  0  0  0  0  0  0  0  0  0  0  0
   12.4222  -19.4779   21.1438 N   0  0  0  0  0  0  0  0  0  0  0  0
   13.1031  -19.4696   22.4306 C   0  0  1  0  0  0  0  0  0  0  0  0
   12.2071  -19.7725   23.5629 C   0  0  0  0  0  0  0  0  0  0  0  0
   13.0006  -20.0432   24.8093 C   0  0  0  0  0  0  0  0  0  0  0  0
   12.1445  -20.4183   25.9915 C   0  0  0  0  0  0  0  0  0  0  0  0
   12.9639  -20.8145   27.1929 C   0  0  0  0  0  0  0  0  0  0  0  0
   12.1950  -21.2192   28.3227 N   0  0  0  0  0  0  0  0  0  0  0  0
   14.1727  -20.4880   22.3340 C   0  0  0  0  0  0  0  0  0  0  0  0
   15.3622  -20.2613   22.7025 O   0  0  0  0  0  0  0  0  0  0  0  0
   13.9208  -21.7785   21.8210 O   0  0  0  0  0  0  0  0  0  0  0  0
  2  1  1  0
  3  2  2  0
  4  2  1  0
  5  4  1  0
  5  6  1  6
  7  5  1  0
  7  8  2  0
  9  7  1  0
 10  9  1  0
 10 11  1  6
 12 11  1  0
 12 13  1  0
 13 14  1  0
 14 15  1  0
 16 10  1  0
 17 16  2  0
 18 16  1  0
 19 25  1  0
 19 18  1  0
 19 20  1  1
 21 20  1  0
 22 21  1  0
 23 22  1  0
 23 24  1  0
 25 27  1  0
 26 25  2  0
M  END
$$$$
