NKK.pdb
     RDKit          3D

 27 26  0  0  1  0  0  0  0  0999 V2000
    9.0215  -19.1357   14.0014 N   0  0  0  0  0  0  0  0  0  0  0  0
    9.7199  -19.4979   15.1755 C   0  0  0  0  0  0  0  0  0  0  0  0
    9.9829  -20.7033   15.4066 O   0  0  0  0  0  0  0  0  0  0  0  0
   10.1342  -18.4360   16.1241 C   0  0  0  0  0  0  0  0  0  0  0  0
    9.9201  -18.9237   17.5201 C   0  0  2  0  0  0  0  0  0  0  0  0
    8.6066  -19.4524   17.7341 N   0  0  0  0  0  0  0  0  0  0  0  0
   10.2539  -17.8978   18.5396 C   0  0  0  0  0  0  0  0  0  0  0  0
   11.4286  -17.4572   18.6732 O   0  0  0  0  0  0  0  0  0  0  0  0
    9.2560  -17.3759   19.4034 N   0  0  0  0  0  0  0  0  0  0  0  0
    9.6302  -16.3701   20.3660 C   0  0  1  0  0  0  0  0  0  0  0  0
    8.5539  -15.3099   20.5204 C   0  0  0  0  0  0  0  0  0  0  0  0
    8.5293  -14.4134   19.2920 C   0  0  0  0  0  0  0  0  0  0  0  0
    7.3746  -13.4364   19.4868 C   0  0  0  0  0  0  0  0  0  0  0  0
    7.2726  -12.5049   18.3022 C   0  0  0  0  0  0  0  0  0  0  0  0
    6.1335  -11.6305   18.5129 N   0  0  0  0  0  0  0  0  0  0  0  0
    9.8019  -16.9918   21.6984 C   0  0  0  0  0  0  0  0  0  0  0  0
    8.8898  -17.6168   22.2956 O   0  0  0  0  0  0  0  0  0  0  0  0
   11.0446  -16.8927   22.3547 N   0  0  0  0  0  0  0  0  0  0  0  0
   11.3618  -17.6217   23.5744 C   0  0  1  0  0  0  0  0  0  0  0  0
   12.0795  -18.8862   23.3241 C   0  0  0  0  0  0  0  0  0  0  0  0
   12.3055  -19.6307   24.6091 C   0  0  0  0  0  0  0  0  0  0  0  0
   13.1561  -20.8636   24.4421 C   0  0  0  0  0  0  0  0  0  0  0  0
   13.2537  -21.6716   25.7108 C   0  0  0  0  0  0  0  0  0  0  0  0
   14.1227  -22.7982   25.6261 N   0  0  0  0  0  0  0  0  0  0  0  0
   12.1941  -16.7103   24.3909 C   0  0  0  0  0  0  0  0  0  0  0  0
   12.2733  -16.8075   25.6505 O   0  0  0  0  0  0  0  0  0  0  0  0
   12.9512  -15.6742   23.8030 O   0  0  0  0  0  0  0  0  0  0  0  0
  2  1  1  0
  3  2  2  0
  4  2  1  0
  5  4  1  0
  5  6  1  6
  7  5  1  0
  7  8  2  0
  9  7  1  0
 10  9  1  0
 10 11  1  1
 12 11  1  0
 12 13  1  0
 13 14  1  0
 14 15  1  0
 16 10  1  0
 17 16  2  0
 18 16  1  0
 19 25  1  0
 19 18  1  0
 19 20  1  6
 21 20  1  0
 22 21  1  0
 23 22  1  0
 23 24  1  0
 25 27  1  0
 26 25  2  0
M  END
$$$$
