NKK.pdb
     RDKit          3D

 27 26  0  0  1  0  0  0  0  0999 V2000
    9.3070  -17.9260   18.6298 N   0  0  0  0  0  0  0  0  0  0  0  0
   10.5461  -17.2645   18.7867 C   0  0  0  0  0  0  0  0  0  0  0  0
   11.3176  -17.1294   17.8059 O   0  0  0  0  0  0  0  0  0  0  0  0
   10.9169  -16.7361   20.1218 C   0  0  0  0  0  0  0  0  0  0  0  0
    9.8052  -17.0176   21.0794 C   0  0  2  0  0  0  0  0  0  0  0  0
    8.5088  -16.9120   20.4804 N   0  0  0  0  0  0  0  0  0  0  0  0
    9.8916  -16.1936   22.3111 C   0  0  0  0  0  0  0  0  0  0  0  0
   10.9459  -16.1480   23.0025 O   0  0  0  0  0  0  0  0  0  0  0  0
    8.7835  -15.4253   22.7540 N   0  0  0  0  0  0  0  0  0  0  0  0
    8.8770  -14.7405   24.0191 C   0  0  1  0  0  0  0  0  0  0  0  0
    7.6519  -13.8842   24.2881 C   0  0  0  0  0  0  0  0  0  0  0  0
    7.8358  -13.1086   25.5833 C   0  0  0  0  0  0  0  0  0  0  0  0
    6.5895  -12.2470   25.7577 C   0  0  0  0  0  0  0  0  0  0  0  0
    6.6834  -11.4444   27.0338 C   0  0  0  0  0  0  0  0  0  0  0  0
    5.4195  -10.7582   27.2289 N   0  0  0  0  0  0  0  0  0  0  0  0
    8.9487  -15.7286   25.1191 C   0  0  0  0  0  0  0  0  0  0  0  0
    8.2190  -16.7495   25.1838 O   0  0  0  0  0  0  0  0  0  0  0  0
    9.8764  -15.5385   26.1621 N   0  0  0  0  0  0  0  0  0  0  0  0
   10.1990  -16.5688   27.1390 C   0  0  1  0  0  0  0  0  0  0  0  0
   11.3860  -17.3644   26.7721 C   0  0  0  0  0  0  0  0  0  0  0  0
   11.6755  -18.3995   27.8215 C   0  0  0  0  0  0  0  0  0  0  0  0
   12.9049  -19.2198   27.5269 C   0  0  0  0  0  0  0  0  0  0  0  0
   13.1659  -20.2648   28.5812 C   0  0  0  0  0  0  0  0  0  0  0  0
   14.3895  -20.9767   28.4148 N   0  0  0  0  0  0  0  0  0  0  0  0
   10.4287  -15.8616   28.4186 C   0  0  0  0  0  0  0  0  0  0  0  0
   10.5044  -16.4689   29.5266 O   0  0  0  0  0  0  0  0  0  0  0  0
   10.5772  -14.4590   28.4720 O   0  0  0  0  0  0  0  0  0  0  0  0
  2  1  1  0
  3  2  2  0
  4  2  1  0
  5  4  1  0
  5  6  1  6
  7  5  1  0
  7  8  2  0
  9  7  1  0
 10  9  1  0
 10 11  1  1
 12 11  1  0
 12 13  1  0
 13 14  1  0
 14 15  1  0
 16 10  1  0
 17 16  2  0
 18 16  1  0
 19 25  1  0
 19 18  1  0
 19 20  1  6
 21 20  1  0
 22 21  1  0
 23 22  1  0
 23 24  1  0
 25 27  1  0
 26 25  2  0
M  END
$$$$
