LDV.pdb
     RDKit          3D

 24 23  0  0  1  0  0  0  0  0999 V2000
    8.9307  -12.4665   18.8150 C   0  0  0  0  0  0  0  0  0  0  0  0
    7.8713  -13.5278   18.7812 C   0  0  2  0  0  0  0  0  0  0  0  0
    6.5292  -12.9669   18.3436 C   0  0  0  0  0  0  0  0  0  0  0  0
    7.7531  -14.1413   20.1622 C   0  0  0  0  0  0  0  0  0  0  0  0
    9.0741  -14.5382   20.7420 C   0  0  2  0  0  0  0  0  0  0  0  0
    9.9166  -15.2950   19.8606 N   0  0  0  0  0  0  0  0  0  0  0  0
    8.8098  -15.2605   22.0291 C   0  0  0  0  0  0  0  0  0  0  0  0
    7.7110  -15.0055   22.5917 O   0  0  0  0  0  0  0  0  0  0  0  0
    9.7310  -16.1698   22.5801 N   0  0  0  0  0  0  0  0  0  0  0  0
    9.3562  -16.8143   23.8836 C   0  0  1  0  0  0  0  0  0  0  0  0
   10.2864  -17.9983   23.9999 C   0  0  0  0  0  0  0  0  0  0  0  0
   10.2028  -18.9351   22.9101 C   0  0  0  0  0  0  0  0  0  0  0  0
    9.2146  -19.4689   22.3685 O   0  0  0  0  0  0  0  0  0  0  0  0
    9.5496  -15.8036   24.9286 C   0  0  0  0  0  0  0  0  0  0  0  0
   10.6843  -15.2067   24.9712 O   0  0  0  0  0  0  0  0  0  0  0  0
   11.4388  -19.3444   22.3263 O   0  0  0  0  0  0  0  0  0  0  0  0
    7.9145  -12.4070   28.0857 C   0  0  0  0  0  0  0  0  0  0  0  0
    7.7109  -13.4832   27.0608 C   0  0  1  0  0  0  0  0  0  0  0  0
    7.2392  -12.8799   25.7735 C   0  0  0  0  0  0  0  0  0  0  0  0
    8.9217  -14.3593   26.8704 C   0  0  2  0  0  0  0  0  0  0  0  0
    8.6207  -15.4153   25.8831 N   0  0  0  0  0  0  0  0  0  0  0  0
    9.2207  -15.0794   28.1506 C   0  0  0  0  0  0  0  0  0  0  0  0
    8.8040  -16.2513   28.2779 O   0  0  0  0  0  0  0  0  0  0  0  0
    9.9288  -14.5133   29.1879 O   0  0  0  0  0  0  0  0  0  0  0  0
  2  1  1  1
  3  2  1  0
  4  5  1  0
  4  2  1  0
  5  6  1  6
  5  7  1  0
  7  8  2  0
  9  7  1  0
  9 10  1  0
 10 14  1  0
 10 11  1  1
 12 16  1  0
 12 11  1  0
 13 12  2  0
 14 15  2  0
 18 17  1  1
 18 20  1  0
 19 18  1  0
 20 22  1  0
 20 21  1  6
 21 14  1  0
 22 23  2  0
 22 24  1  0
M  END
$$$$
