LDV.pdb
     RDKit          3D

 24 23  0  0  1  0  0  0  0  0999 V2000
    8.1337  -12.0613   20.9735 C   0  0  0  0  0  0  0  0  0  0  0  0
    8.3422  -13.5343   20.7826 C   0  0  2  0  0  0  0  0  0  0  0  0
    8.4971  -13.8933   19.3148 C   0  0  0  0  0  0  0  0  0  0  0  0
    7.1602  -14.2741   21.3768 C   0  0  0  0  0  0  0  0  0  0  0  0
    7.2992  -15.7616   21.2960 C   0  0  2  0  0  0  0  0  0  0  0  0
    6.1522  -16.4468   20.7723 N   0  0  0  0  0  0  0  0  0  0  0  0
    7.6816  -16.2596   22.6575 C   0  0  0  0  0  0  0  0  0  0  0  0
    6.7370  -16.4060   23.4792 O   0  0  0  0  0  0  0  0  0  0  0  0
    9.0148  -16.5476   23.0021 N   0  0  0  0  0  0  0  0  0  0  0  0
    9.2452  -17.2421   24.3135 C   0  0  1  0  0  0  0  0  0  0  0  0
   10.0508  -18.4680   23.9543 C   0  0  0  0  0  0  0  0  0  0  0  0
   10.4539  -19.2706   25.0793 C   0  0  0  0  0  0  0  0  0  0  0  0
    9.8869  -19.4910   26.1678 O   0  0  0  0  0  0  0  0  0  0  0  0
    9.9594  -16.2953   25.1762 C   0  0  0  0  0  0  0  0  0  0  0  0
   10.9910  -15.7111   24.6863 O   0  0  0  0  0  0  0  0  0  0  0  0
   11.7078  -19.9420   24.9656 O   0  0  0  0  0  0  0  0  0  0  0  0
    8.9341  -13.1139   26.6329 C   0  0  0  0  0  0  0  0  0  0  0  0
    9.5912  -13.8724   27.7478 C   0  0  1  0  0  0  0  0  0  0  0  0
    8.5607  -14.3181   28.7392 C   0  0  0  0  0  0  0  0  0  0  0  0
   10.4497  -15.0127   27.2656 C   0  0  2  0  0  0  0  0  0  0  0  0
    9.6285  -15.9554   26.4799 N   0  0  0  0  0  0  0  0  0  0  0  0
   10.9440  -15.7959   28.4441 C   0  0  0  0  0  0  0  0  0  0  0  0
   11.7536  -15.2435   29.2203 O   0  0  0  0  0  0  0  0  0  0  0  0
   10.5504  -17.0891   28.7104 O   0  0  0  0  0  0  0  0  0  0  0  0
  2  1  1  6
  3  2  1  0
  4  5  1  0
  4  2  1  0
  5  6  1  1
  5  7  1  0
  7  8  2  0
  9  7  1  0
  9 10  1  0
 10 14  1  0
 10 11  1  6
 12 16  1  0
 12 11  1  0
 13 12  2  0
 14 15  2  0
 18 17  1  6
 18 20  1  0
 19 18  1  0
 20 22  1  0
 20 21  1  6
 21 14  1  0
 22 23  2  0
 22 24  1  0
M  END
$$$$
