LDV.pdb
     RDKit          3D

 24 23  0  0  1  0  0  0  0  0999 V2000
    9.6571  -13.2712   19.6964 C   0  0  0  0  0  0  0  0  0  0  0  0
    8.2742  -13.1645   19.1253 C   0  0  2  0  0  0  0  0  0  0  0  0
    7.6769  -11.7871   19.3560 C   0  0  0  0  0  0  0  0  0  0  0  0
    7.4001  -14.2242   19.7661 C   0  0  0  0  0  0  0  0  0  0  0  0
    8.1151  -15.5204   19.9838 C   0  0  2  0  0  0  0  0  0  0  0  0
    7.6734  -16.6003   19.1485 N   0  0  0  0  0  0  0  0  0  0  0  0
    8.0169  -15.8573   21.4415 C   0  0  0  0  0  0  0  0  0  0  0  0
    6.8508  -15.9750   21.9054 O   0  0  0  0  0  0  0  0  0  0  0  0
    9.1564  -16.0322   22.2478 N   0  0  0  0  0  0  0  0  0  0  0  0
    8.9317  -16.5293   23.6470 C   0  0  1  0  0  0  0  0  0  0  0  0
    9.9568  -17.6235   23.8274 C   0  0  0  0  0  0  0  0  0  0  0  0
    9.9946  -18.1970   25.1472 C   0  0  0  0  0  0  0  0  0  0  0  0
    9.1179  -18.2659   26.0312 O   0  0  0  0  0  0  0  0  0  0  0  0
    9.1244  -15.3831   24.5413 C   0  0  0  0  0  0  0  0  0  0  0  0
   10.2275  -14.7357   24.4436 O   0  0  0  0  0  0  0  0  0  0  0  0
   11.2266  -18.7967   25.5456 O   0  0  0  0  0  0  0  0  0  0  0  0
    7.0122  -12.1576   25.3953 C   0  0  0  0  0  0  0  0  0  0  0  0
    7.3916  -12.9258   26.6266 C   0  0  1  0  0  0  0  0  0  0  0  0
    6.2014  -13.6677   27.1528 C   0  0  0  0  0  0  0  0  0  0  0  0
    8.5811  -13.8274   26.4216 C   0  0  2  0  0  0  0  0  0  0  0  0
    8.2252  -14.9152   25.4886 N   0  0  0  0  0  0  0  0  0  0  0  0
    8.9217  -14.5031   27.7155 C   0  0  0  0  0  0  0  0  0  0  0  0
    8.6417  -15.7154   27.8380 O   0  0  0  0  0  0  0  0  0  0  0  0
    9.5251  -13.8542   28.7705 O   0  0  0  0  0  0  0  0  0  0  0  0
  2  1  1  1
  3  2  1  0
  4  5  1  0
  4  2  1  0
  5  6  1  6
  5  7  1  0
  7  8  2  0
  9  7  1  0
  9 10  1  0
 10 14  1  0
 10 11  1  1
 12 16  1  0
 12 11  1  0
 13 12  2  0
 14 15  2  0
 18 17  1  6
 18 20  1  0
 19 18  1  0
 20 22  1  0
 20 21  1  6
 21 14  1  0
 22 23  2  0
 22 24  1  0
M  END
$$$$
