LDV.pdb
     RDKit          3D

 24 23  0  0  1  0  0  0  0  0999 V2000
    9.1144  -13.1115   19.2961 C   0  0  0  0  0  0  0  0  0  0  0  0
    7.7871  -13.2850   19.9728 C   0  0  2  0  0  0  0  0  0  0  0  0
    7.2468  -11.9648   20.4948 C   0  0  0  0  0  0  0  0  0  0  0  0
    7.9480  -14.2688   21.1146 C   0  0  0  0  0  0  0  0  0  0  0  0
    8.4929  -15.5914   20.6760 C   0  0  2  0  0  0  0  0  0  0  0  0
    7.6108  -16.3620   19.8469 N   0  0  0  0  0  0  0  0  0  0  0  0
    8.9136  -16.3422   21.9038 C   0  0  0  0  0  0  0  0  0  0  0  0
    7.9951  -16.9319   22.5342 O   0  0  0  0  0  0  0  0  0  0  0  0
   10.2533  -16.3883   22.3308 N   0  0  0  0  0  0  0  0  0  0  0  0
   10.5325  -17.0981   23.6244 C   0  0  1  0  0  0  0  0  0  0  0  0
   11.7809  -17.9026   23.3511 C   0  0  0  0  0  0  0  0  0  0  0  0
   12.3349  -18.5597   24.5060 C   0  0  0  0  0  0  0  0  0  0  0  0
   11.7902  -18.9670   25.5511 O   0  0  0  0  0  0  0  0  0  0  0  0
   10.7068  -16.0626   24.6482 C   0  0  0  0  0  0  0  0  0  0  0  0
   11.6067  -15.1721   24.4414 O   0  0  0  0  0  0  0  0  0  0  0  0
   13.7408  -18.8023   24.4870 O   0  0  0  0  0  0  0  0  0  0  0  0
    7.8810  -14.2812   26.8355 C   0  0  0  0  0  0  0  0  0  0  0  0
    9.2972  -13.7927   26.7575 C   0  0  1  0  0  0  0  0  0  0  0  0
    9.5328  -12.7411   27.7978 C   0  0  0  0  0  0  0  0  0  0  0  0
   10.3134  -14.9027   26.8279 C   0  0  2  0  0  0  0  0  0  0  0  0
    9.9873  -15.9392   25.8280 N   0  0  0  0  0  0  0  0  0  0  0  0
   10.2147  -15.5837   28.1595 C   0  0  0  0  0  0  0  0  0  0  0  0
   10.5169  -14.9276   29.1800 O   0  0  0  0  0  0  0  0  0  0  0  0
    9.8090  -16.8916   28.3108 O   0  0  0  0  0  0  0  0  0  0  0  0
  2  1  1  1
  3  2  1  0
  4  5  1  0
  4  2  1  0
  5  6  1  1
  5  7  1  0
  7  8  2  0
  9  7  1  0
  9 10  1  0
 10 14  1  0
 10 11  1  6
 12 16  1  0
 12 11  1  0
 13 12  2  0
 14 15  2  0
 18 17  1  1
 18 20  1  0
 19 18  1  0
 20 22  1  0
 20 21  1  6
 21 14  1  0
 22 23  2  0
 22 24  1  0
M  END
$$$$
