LDV.pdb
     RDKit          3D

 24 23  0  0  1  0  0  0  0  0999 V2000
    8.7522  -13.4452   19.0734 C   0  0  0  0  0  0  0  0  0  0  0  0
    7.5776  -13.3479   20.0010 C   0  0  2  0  0  0  0  0  0  0  0  0
    7.2815  -11.9076   20.3821 C   0  0  0  0  0  0  0  0  0  0  0  0
    7.8702  -14.1649   21.2438 C   0  0  0  0  0  0  0  0  0  0  0  0
    8.1592  -15.6023   20.9455 C   0  0  2  0  0  0  0  0  0  0  0  0
    7.0682  -16.3278   20.3600 N   0  0  0  0  0  0  0  0  0  0  0  0
    8.6489  -16.2420   22.2100 C   0  0  0  0  0  0  0  0  0  0  0  0
    7.7633  -16.7292   22.9632 O   0  0  0  0  0  0  0  0  0  0  0  0
   10.0152  -16.2973   22.5406 N   0  0  0  0  0  0  0  0  0  0  0  0
   10.3739  -16.9328   23.8530 C   0  0  1  0  0  0  0  0  0  0  0  0
   11.6723  -17.6541   23.5802 C   0  0  0  0  0  0  0  0  0  0  0  0
   12.2667  -18.2751   24.7350 C   0  0  0  0  0  0  0  0  0  0  0  0
   13.4616  -18.3985   25.0694 O   0  0  0  0  0  0  0  0  0  0  0  0
   10.4931  -15.8476   24.8323 C   0  0  0  0  0  0  0  0  0  0  0  0
   11.4626  -15.0209   24.6837 O   0  0  0  0  0  0  0  0  0  0  0  0
   11.3680  -18.8583   25.6774 O   0  0  0  0  0  0  0  0  0  0  0  0
    8.8122  -12.7085   25.6538 C   0  0  0  0  0  0  0  0  0  0  0  0
    8.8442  -13.5379   26.9033 C   0  0  1  0  0  0  0  0  0  0  0  0
    7.4988  -14.1505   27.1445 C   0  0  0  0  0  0  0  0  0  0  0  0
    9.9473  -14.5641   26.9073 C   0  0  2  0  0  0  0  0  0  0  0  0
    9.6531  -15.6139   25.9115 N   0  0  0  0  0  0  0  0  0  0  0  0
    9.9714  -15.2630   28.2330 C   0  0  0  0  0  0  0  0  0  0  0  0
   10.2897  -14.5985   29.2431 O   0  0  0  0  0  0  0  0  0  0  0  0
    9.6614  -16.5962   28.3897 O   0  0  0  0  0  0  0  0  0  0  0  0
  2  1  1  6
  3  2  1  0
  4  5  1  0
  4  2  1  0
  5  6  1  1
  5  7  1  0
  7  8  2  0
  9  7  1  0
  9 10  1  0
 10 14  1  0
 10 11  1  6
 12 16  1  0
 12 11  1  0
 13 12  2  0
 14 15  2  0
 18 17  1  6
 18 20  1  0
 19 18  1  0
 20 22  1  0
 20 21  1  6
 21 14  1  0
 22 23  2  0
 22 24  1  0
M  END
$$$$
