LDV.pdb
     RDKit          3D

 24 23  0  0  1  0  0  0  0  0999 V2000
    9.2838  -13.3499   19.0269 C   0  0  0  0  0  0  0  0  0  0  0  0
    7.8024  -13.3510   19.2615 C   0  0  2  0  0  0  0  0  0  0  0  0
    7.2458  -11.9398   19.3393 C   0  0  0  0  0  0  0  0  0  0  0  0
    7.5145  -14.0951   20.5503 C   0  0  0  0  0  0  0  0  0  0  0  0
    7.9847  -15.5153   20.5244 C   0  0  2  0  0  0  0  0  0  0  0  0
    7.2336  -16.3837   19.6636 N   0  0  0  0  0  0  0  0  0  0  0  0
    8.0169  -16.0119   21.9388 C   0  0  0  0  0  0  0  0  0  0  0  0
    6.9103  -16.3679   22.4260 O   0  0  0  0  0  0  0  0  0  0  0  0
    9.2095  -16.0781   22.6821 N   0  0  0  0  0  0  0  0  0  0  0  0
    9.1130  -16.6207   24.0790 C   0  0  1  0  0  0  0  0  0  0  0  0
   10.1441  -17.7230   24.1272 C   0  0  0  0  0  0  0  0  0  0  0  0
   11.4952  -17.2905   23.8829 C   0  0  0  0  0  0  0  0  0  0  0  0
   12.3474  -16.8055   24.6533 O   0  0  0  0  0  0  0  0  0  0  0  0
    9.3946  -15.5053   24.9886 C   0  0  0  0  0  0  0  0  0  0  0  0
   10.2909  -14.6609   24.6291 O   0  0  0  0  0  0  0  0  0  0  0  0
   11.9745  -17.4242   22.5456 O   0  0  0  0  0  0  0  0  0  0  0  0
    7.6889  -12.3801   25.9683 C   0  0  0  0  0  0  0  0  0  0  0  0
    7.9794  -13.1824   27.2021 C   0  0  1  0  0  0  0  0  0  0  0  0
    6.7454  -13.9092   27.6411 C   0  0  0  0  0  0  0  0  0  0  0  0
    9.1601  -14.1051   27.0466 C   0  0  2  0  0  0  0  0  0  0  0  0
    8.7812  -15.2603   26.2086 N   0  0  0  0  0  0  0  0  0  0  0  0
    9.5217  -14.6795   28.3831 C   0  0  0  0  0  0  0  0  0  0  0  0
    9.3089  -15.8960   28.5780 O   0  0  0  0  0  0  0  0  0  0  0  0
   10.0741  -13.9337   29.4012 O   0  0  0  0  0  0  0  0  0  0  0  0
  2  1  1  1
  3  2  1  0
  4  5  1  0
  4  2  1  0
  5  6  1  6
  5  7  1  0
  7  8  2  0
  9  7  1  0
  9 10  1  0
 10 14  1  0
 10 11  1  6
 12 16  1  0
 12 11  1  0
 13 12  2  0
 14 15  2  0
 18 17  1  6
 18 20  1  0
 19 18  1  0
 20 22  1  0
 20 21  1  6
 21 14  1  0
 22 23  2  0
 22 24  1  0
M  END
$$$$
