LDV.pdb
     RDKit          3D

 24 23  0  0  1  0  0  0  0  0999 V2000
    9.1141  -13.1292   18.9239 C   0  0  0  0  0  0  0  0  0  0  0  0
    7.6548  -13.1976   19.2635 C   0  0  2  0  0  0  0  0  0  0  0  0
    7.0681  -11.8162   19.4978 C   0  0  0  0  0  0  0  0  0  0  0  0
    7.4834  -14.0523   20.5035 C   0  0  0  0  0  0  0  0  0  0  0  0
    7.9953  -15.4473   20.3289 C   0  0  2  0  0  0  0  0  0  0  0  0
    7.1882  -16.2850   19.4885 N   0  0  0  0  0  0  0  0  0  0  0  0
    8.1902  -16.0368   21.6937 C   0  0  0  0  0  0  0  0  0  0  0  0
    7.1556  -16.4871   22.2554 O   0  0  0  0  0  0  0  0  0  0  0  0
    9.4516  -16.0863   22.3146 N   0  0  0  0  0  0  0  0  0  0  0  0
    9.5073  -16.6627   23.7001 C   0  0  1  0  0  0  0  0  0  0  0  0
   10.7522  -17.5175   23.7030 C   0  0  0  0  0  0  0  0  0  0  0  0
   11.0817  -18.0916   24.9814 C   0  0  0  0  0  0  0  0  0  0  0  0
   10.3527  -18.5775   25.8686 O   0  0  0  0  0  0  0  0  0  0  0  0
    9.5640  -15.5298   24.6298 C   0  0  0  0  0  0  0  0  0  0  0  0
   10.6127  -14.7917   24.5992 O   0  0  0  0  0  0  0  0  0  0  0  0
   12.4661  -18.1276   25.3253 O   0  0  0  0  0  0  0  0  0  0  0  0
    7.4537  -12.3069   25.3030 C   0  0  0  0  0  0  0  0  0  0  0  0
    7.5814  -13.1694   26.5237 C   0  0  1  0  0  0  0  0  0  0  0  0
    6.3178  -13.9452   26.7355 C   0  0  0  0  0  0  0  0  0  0  0  0
    8.7986  -14.0570   26.4995 C   0  0  2  0  0  0  0  0  0  0  0  0
    8.5877  -15.1637   25.5450 N   0  0  0  0  0  0  0  0  0  0  0  0
    8.9659  -14.7081   27.8392 C   0  0  0  0  0  0  0  0  0  0  0  0
    9.2751  -13.9845   28.8108 O   0  0  0  0  0  0  0  0  0  0  0  0
    8.7963  -16.0591   28.0488 O   0  0  0  0  0  0  0  0  0  0  0  0
  2  1  1  1
  3  2  1  0
  4  5  1  0
  4  2  1  0
  5  6  1  6
  5  7  1  0
  7  8  2  0
  9  7  1  0
  9 10  1  0
 10 14  1  0
 10 11  1  6
 12 16  1  0
 12 11  1  0
 13 12  2  0
 14 15  2  0
 18 17  1  6
 18 20  1  0
 19 18  1  0
 20 22  1  0
 20 21  1  6
 21 14  1  0
 22 23  2  0
 22 24  1  0
M  END
$$$$
