LDV.pdb
     RDKit          3D

 24 23  0  0  1  0  0  0  0  0999 V2000
    9.1790  -13.3734   18.9307 C   0  0  0  0  0  0  0  0  0  0  0  0
    7.7174  -13.2960   19.2586 C   0  0  2  0  0  0  0  0  0  0  0  0
    7.2344  -11.8577   19.3318 C   0  0  0  0  0  0  0  0  0  0  0  0
    7.4783  -13.9927   20.5834 C   0  0  0  0  0  0  0  0  0  0  0  0
    7.8358  -15.4453   20.5543 C   0  0  2  0  0  0  0  0  0  0  0  0
    6.9240  -16.2761   19.8209 N   0  0  0  0  0  0  0  0  0  0  0  0
    8.0019  -15.9036   21.9722 C   0  0  0  0  0  0  0  0  0  0  0  0
    6.9434  -16.2181   22.5801 O   0  0  0  0  0  0  0  0  0  0  0  0
    9.2627  -15.9794   22.5916 N   0  0  0  0  0  0  0  0  0  0  0  0
    9.3003  -16.5005   23.9995 C   0  0  1  0  0  0  0  0  0  0  0  0
   10.4741  -17.4505   24.0186 C   0  0  0  0  0  0  0  0  0  0  0  0
   10.2343  -18.7121   23.3680 C   0  0  0  0  0  0  0  0  0  0  0  0
   10.9403  -19.3678   22.5765 O   0  0  0  0  0  0  0  0  0  0  0  0
    9.4641  -15.3382   24.8787 C   0  0  0  0  0  0  0  0  0  0  0  0
   10.5395  -14.6500   24.7549 O   0  0  0  0  0  0  0  0  0  0  0  0
    8.9897  -19.3489   23.6531 O   0  0  0  0  0  0  0  0  0  0  0  0
    7.5054  -12.0664   25.5392 C   0  0  0  0  0  0  0  0  0  0  0  0
    7.7258  -12.8241   26.8149 C   0  0  1  0  0  0  0  0  0  0  0  0
    6.4581  -13.5053   27.2300 C   0  0  0  0  0  0  0  0  0  0  0  0
    8.8899  -13.7780   26.7461 C   0  0  2  0  0  0  0  0  0  0  0  0
    8.5640  -14.8950   25.8370 N   0  0  0  0  0  0  0  0  0  0  0  0
    9.1006  -14.4034   28.0919 C   0  0  0  0  0  0  0  0  0  0  0  0
    8.7517  -15.5937   28.2489 O   0  0  0  0  0  0  0  0  0  0  0  0
    9.6572  -13.7317   29.1582 O   0  0  0  0  0  0  0  0  0  0  0  0
  2  1  1  1
  3  2  1  0
  4  5  1  0
  4  2  1  0
  5  6  1  1
  5  7  1  0
  7  8  2  0
  9  7  1  0
  9 10  1  0
 10 14  1  0
 10 11  1  6
 12 16  1  0
 12 11  1  0
 13 12  2  0
 14 15  2  0
 18 17  1  6
 18 20  1  0
 19 18  1  0
 20 22  1  0
 20 21  1  6
 21 14  1  0
 22 23  2  0
 22 24  1  0
M  END
$$$$
