LDV.pdb
     RDKit          3D

 24 23  0  0  1  0  0  0  0  0999 V2000
    9.3242  -13.4327   18.9408 C   0  0  0  0  0  0  0  0  0  0  0  0
    8.0057  -13.4632   19.6551 C   0  0  2  0  0  0  0  0  0  0  0  0
    7.5085  -12.0640   19.9749 C   0  0  0  0  0  0  0  0  0  0  0  0
    8.1628  -14.2638   20.9326 C   0  0  0  0  0  0  0  0  0  0  0  0
    8.6272  -15.6656   20.6922 C   0  0  2  0  0  0  0  0  0  0  0  0
    7.7234  -16.4776   19.9285 N   0  0  0  0  0  0  0  0  0  0  0  0
    8.9469  -16.2759   22.0238 C   0  0  0  0  0  0  0  0  0  0  0  0
    7.9590  -16.5833   22.7437 O   0  0  0  0  0  0  0  0  0  0  0  0
   10.2701  -16.4941   22.4491 N   0  0  0  0  0  0  0  0  0  0  0  0
   10.4569  -17.1480   23.7879 C   0  0  1  0  0  0  0  0  0  0  0  0
   11.7496  -17.9172   23.6547 C   0  0  0  0  0  0  0  0  0  0  0  0
   11.6854  -19.0469   22.7648 C   0  0  0  0  0  0  0  0  0  0  0  0
   10.7789  -19.8810   22.5709 O   0  0  0  0  0  0  0  0  0  0  0  0
   10.5072  -16.0719   24.7831 C   0  0  0  0  0  0  0  0  0  0  0  0
   11.4447  -15.2039   24.6685 O   0  0  0  0  0  0  0  0  0  0  0  0
   12.8342  -19.2832   21.9521 O   0  0  0  0  0  0  0  0  0  0  0  0
    8.6356  -12.9621   28.0462 C   0  0  0  0  0  0  0  0  0  0  0  0
    8.5311  -14.0704   27.0407 C   0  0  1  0  0  0  0  0  0  0  0  0
    7.9614  -13.5452   25.7589 C   0  0  0  0  0  0  0  0  0  0  0  0
    9.8292  -14.8054   26.8294 C   0  0  2  0  0  0  0  0  0  0  0  0
    9.6327  -15.8877   25.8443 N   0  0  0  0  0  0  0  0  0  0  0  0
   10.2270  -15.4883   28.1030 C   0  0  0  0  0  0  0  0  0  0  0  0
    9.9221  -16.6925   28.2452 O   0  0  0  0  0  0  0  0  0  0  0  0
   10.9088  -14.8547   29.1187 O   0  0  0  0  0  0  0  0  0  0  0  0
  2  1  1  1
  3  2  1  0
  4  5  1  0
  4  2  1  0
  5  6  1  1
  5  7  1  0
  7  8  2  0
  9  7  1  0
  9 10  1  0
 10 14  1  0
 10 11  1  6
 12 16  1  0
 12 11  1  0
 13 12  2  0
 14 15  2  0
 18 17  1  1
 18 20  1  0
 19 18  1  0
 20 22  1  0
 20 21  1  6
 21 14  1  0
 22 23  2  0
 22 24  1  0
M  END
$$$$
