LDV.pdb
     RDKit          3D

 24 23  0  0  1  0  0  0  0  0999 V2000
    9.6490  -12.7992   19.1769 C   0  0  0  0  0  0  0  0  0  0  0  0
    8.2413  -13.2759   18.9739 C   0  0  2  0  0  0  0  0  0  0  0  0
    7.2333  -12.1641   19.2089 C   0  0  0  0  0  0  0  0  0  0  0  0
    7.9760  -14.4274   19.9232 C   0  0  0  0  0  0  0  0  0  0  0  0
    8.9116  -15.5780   19.7244 C   0  0  2  0  0  0  0  0  0  0  0  0
    8.5960  -16.4264   18.6109 N   0  0  0  0  0  0  0  0  0  0  0  0
    8.9791  -16.3402   21.0139 C   0  0  0  0  0  0  0  0  0  0  0  0
    8.5621  -17.5291   20.9769 O   0  0  0  0  0  0  0  0  0  0  0  0
    9.4774  -15.7661   22.1976 N   0  0  0  0  0  0  0  0  0  0  0  0
    9.6121  -16.6698   23.3894 C   0  0  1  0  0  0  0  0  0  0  0  0
   10.7093  -17.6351   23.0083 C   0  0  0  0  0  0  0  0  0  0  0  0
   11.1170  -18.5254   24.0635 C   0  0  0  0  0  0  0  0  0  0  0  0
   12.2448  -18.9554   24.3764 O   0  0  0  0  0  0  0  0  0  0  0  0
    9.9449  -15.8162   24.5346 C   0  0  0  0  0  0  0  0  0  0  0  0
   11.0740  -15.2080   24.5104 O   0  0  0  0  0  0  0  0  0  0  0  0
   10.0837  -19.0189   24.9148 O   0  0  0  0  0  0  0  0  0  0  0  0
    7.0597  -14.1360   26.9267 C   0  0  0  0  0  0  0  0  0  0  0  0
    8.4265  -13.5413   26.7585 C   0  0  1  0  0  0  0  0  0  0  0  0
    8.6860  -12.5421   27.8439 C   0  0  0  0  0  0  0  0  0  0  0  0
    9.5173  -14.5761   26.6630 C   0  0  2  0  0  0  0  0  0  0  0  0
    9.1542  -15.5890   25.6517 N   0  0  0  0  0  0  0  0  0  0  0  0
    9.6120  -15.3200   27.9609 C   0  0  0  0  0  0  0  0  0  0  0  0
    9.0977  -16.4578   28.0261 O   0  0  0  0  0  0  0  0  0  0  0  0
   10.2354  -14.8114   29.0792 O   0  0  0  0  0  0  0  0  0  0  0  0
  2  1  1  1
  3  2  1  0
  4  5  1  0
  4  2  1  0
  5  6  1  6
  5  7  1  0
  7  8  2  0
  9  7  1  0
  9 10  1  0
 10 14  1  0
 10 11  1  6
 12 16  1  0
 12 11  1  0
 13 12  2  0
 14 15  2  0
 18 17  1  1
 18 20  1  0
 19 18  1  0
 20 22  1  0
 20 21  1  6
 21 14  1  0
 22 23  2  0
 22 24  1  0
M  END
$$$$
