LDV.pdb
     RDKit          3D

 24 23  0  0  1  0  0  0  0  0999 V2000
    9.1653  -12.5898   19.1233 C   0  0  0  0  0  0  0  0  0  0  0  0
    7.8133  -13.2131   18.9401 C   0  0  2  0  0  0  0  0  0  0  0  0
    6.7113  -12.1678   18.9249 C   0  0  0  0  0  0  0  0  0  0  0  0
    7.5769  -14.2015   20.0647 C   0  0  0  0  0  0  0  0  0  0  0  0
    8.8087  -14.9599   20.4468 C   0  0  2  0  0  0  0  0  0  0  0  0
    9.1731  -16.0132   19.5429 N   0  0  0  0  0  0  0  0  0  0  0  0
    8.6222  -15.4581   21.8487 C   0  0  0  0  0  0  0  0  0  0  0  0
    7.5357  -15.1473   22.4069 O   0  0  0  0  0  0  0  0  0  0  0  0
    9.5998  -16.2269   22.5062 N   0  0  0  0  0  0  0  0  0  0  0  0
    9.2576  -16.7376   23.8763 C   0  0  1  0  0  0  0  0  0  0  0  0
   10.1905  -17.9064   24.0868 C   0  0  0  0  0  0  0  0  0  0  0  0
   10.1392  -18.4841   25.4043 C   0  0  0  0  0  0  0  0  0  0  0  0
    9.1782  -18.6637   26.1784 O   0  0  0  0  0  0  0  0  0  0  0  0
    9.4769  -15.6285   24.8104 C   0  0  0  0  0  0  0  0  0  0  0  0
   10.6432  -15.0947   24.8312 O   0  0  0  0  0  0  0  0  0  0  0  0
   11.3772  -18.9391   25.9486 O   0  0  0  0  0  0  0  0  0  0  0  0
    7.9196  -12.0799   25.3934 C   0  0  0  0  0  0  0  0  0  0  0  0
    7.8574  -12.9411   26.6201 C   0  0  1  0  0  0  0  0  0  0  0  0
    6.4735  -13.4882   26.7905 C   0  0  0  0  0  0  0  0  0  0  0  0
    8.9053  -14.0234   26.6401 C   0  0  2  0  0  0  0  0  0  0  0  0
    8.5423  -15.0844   25.6794 N   0  0  0  0  0  0  0  0  0  0  0  0
    8.9118  -14.6843   27.9854 C   0  0  0  0  0  0  0  0  0  0  0  0
    9.3084  -14.0184   28.9665 O   0  0  0  0  0  0  0  0  0  0  0  0
    8.5040  -15.9842   28.1903 O   0  0  0  0  0  0  0  0  0  0  0  0
  2  1  1  1
  3  2  1  0
  4  5  1  0
  4  2  1  0
  5  6  1  6
  5  7  1  0
  7  8  2  0
  9  7  1  0
  9 10  1  0
 10 14  1  0
 10 11  1  1
 12 16  1  0
 12 11  1  0
 13 12  2  0
 14 15  2  0
 18 17  1  6
 18 20  1  0
 19 18  1  0
 20 22  1  0
 20 21  1  6
 21 14  1  0
 22 23  2  0
 22 24  1  0
M  END
$$$$
