LDV.pdb
     RDKit          3D

 24 23  0  0  1  0  0  0  0  0999 V2000
    9.0637  -12.9805   19.2111 C   0  0  0  0  0  0  0  0  0  0  0  0
    7.5750  -13.1324   19.3142 C   0  0  2  0  0  0  0  0  0  0  0  0
    6.8864  -11.7920   19.5057 C   0  0  0  0  0  0  0  0  0  0  0  0
    7.2592  -14.0502   20.4784 C   0  0  0  0  0  0  0  0  0  0  0  0
    7.8478  -15.4170   20.3235 C   0  0  2  0  0  0  0  0  0  0  0  0
    7.1470  -16.2756   19.4120 N   0  0  0  0  0  0  0  0  0  0  0  0
    7.9664  -16.0211   21.6906 C   0  0  0  0  0  0  0  0  0  0  0  0
    6.9281  -16.5738   22.1438 O   0  0  0  0  0  0  0  0  0  0  0  0
    9.1638  -15.9760   22.4278 N   0  0  0  0  0  0  0  0  0  0  0  0
    9.1305  -16.5437   23.8176 C   0  0  1  0  0  0  0  0  0  0  0  0
   10.2376  -17.5708   23.8318 C   0  0  0  0  0  0  0  0  0  0  0  0
   10.5111  -18.1388   25.1260 C   0  0  0  0  0  0  0  0  0  0  0  0
    9.7392  -18.5322   26.0228 O   0  0  0  0  0  0  0  0  0  0  0  0
    9.3488  -15.4241   24.7394 C   0  0  0  0  0  0  0  0  0  0  0  0
   10.4396  -14.7605   24.6159 O   0  0  0  0  0  0  0  0  0  0  0  0
   11.8858  -18.2927   25.4760 O   0  0  0  0  0  0  0  0  0  0  0  0
    7.6151  -12.1155   25.2353 C   0  0  0  0  0  0  0  0  0  0  0  0
    7.6963  -12.8367   26.5481 C   0  0  1  0  0  0  0  0  0  0  0  0
    6.3674  -13.4421   26.8813 C   0  0  0  0  0  0  0  0  0  0  0  0
    8.8132  -13.8463   26.6034 C   0  0  2  0  0  0  0  0  0  0  0  0
    8.4859  -14.9975   25.7385 N   0  0  0  0  0  0  0  0  0  0  0  0
    8.9125  -14.4023   27.9919 C   0  0  0  0  0  0  0  0  0  0  0  0
    8.5300  -15.5770   28.1843 O   0  0  0  0  0  0  0  0  0  0  0  0
    9.4024  -13.6834   29.0601 O   0  0  0  0  0  0  0  0  0  0  0  0
  2  1  1  1
  3  2  1  0
  4  5  1  0
  4  2  1  0
  5  6  1  6
  5  7  1  0
  7  8  2  0
  9  7  1  0
  9 10  1  0
 10 14  1  0
 10 11  1  6
 12 16  1  0
 12 11  1  0
 13 12  2  0
 14 15  2  0
 18 17  1  6
 18 20  1  0
 19 18  1  0
 20 22  1  0
 20 21  1  6
 21 14  1  0
 22 23  2  0
 22 24  1  0
M  END
$$$$
