LDV.pdb
     RDKit          3D

 24 23  0  0  1  0  0  0  0  0999 V2000
    9.8209  -13.2176   19.1727 C   0  0  0  0  0  0  0  0  0  0  0  0
    8.3329  -13.2516   18.9869 C   0  0  2  0  0  0  0  0  0  0  0  0
    7.7143  -11.8754   19.1619 C   0  0  0  0  0  0  0  0  0  0  0  0
    7.7393  -14.2198   19.9908 C   0  0  0  0  0  0  0  0  0  0  0  0
    8.4391  -15.5421   20.0138 C   0  0  2  0  0  0  0  0  0  0  0  0
    7.9529  -16.4984   19.0607 N   0  0  0  0  0  0  0  0  0  0  0  0
    8.3819  -16.0650   21.4179 C   0  0  0  0  0  0  0  0  0  0  0  0
    7.2384  -16.3773   21.8464 O   0  0  0  0  0  0  0  0  0  0  0  0
    9.5340  -16.2005   22.2138 N   0  0  0  0  0  0  0  0  0  0  0  0
    9.3431  -16.7345   23.6043 C   0  0  1  0  0  0  0  0  0  0  0  0
   10.5164  -17.6613   23.8165 C   0  0  0  0  0  0  0  0  0  0  0  0
   10.4346  -18.9056   23.0973 C   0  0  0  0  0  0  0  0  0  0  0  0
    9.5047  -19.7307   22.9997 O   0  0  0  0  0  0  0  0  0  0  0  0
    9.3306  -15.5779   24.5059 C   0  0  0  0  0  0  0  0  0  0  0  0
   10.4080  -14.8876   24.5969 O   0  0  0  0  0  0  0  0  0  0  0  0
   11.5936  -19.2924   22.3605 O   0  0  0  0  0  0  0  0  0  0  0  0
    7.1116  -12.2408   27.4334 C   0  0  0  0  0  0  0  0  0  0  0  0
    7.0539  -13.4117   26.4976 C   0  0  1  0  0  0  0  0  0  0  0  0
    6.3555  -13.0200   25.2317 C   0  0  0  0  0  0  0  0  0  0  0  0
    8.4022  -14.0313   26.2371 C   0  0  2  0  0  0  0  0  0  0  0  0
    8.2610  -15.1422   25.2746 N   0  0  0  0  0  0  0  0  0  0  0  0
    8.9147  -14.6560   27.4995 C   0  0  0  0  0  0  0  0  0  0  0  0
    8.5892  -15.8378   27.7457 O   0  0  0  0  0  0  0  0  0  0  0  0
    9.7228  -13.9925   28.3966 O   0  0  0  0  0  0  0  0  0  0  0  0
  2  1  1  1
  3  2  1  0
  4  5  1  0
  4  2  1  0
  5  6  1  6
  5  7  1  0
  7  8  2  0
  9  7  1  0
  9 10  1  0
 10 14  1  0
 10 11  1  1
 12 16  1  0
 12 11  1  0
 13 12  2  0
 14 15  2  0
 18 17  1  1
 18 20  1  0
 19 18  1  0
 20 22  1  0
 20 21  1  6
 21 14  1  0
 22 23  2  0
 22 24  1  0
M  END
$$$$
