LDV.pdb
     RDKit          3D

 24 23  0  0  1  0  0  0  0  0999 V2000
    9.2467  -12.6909   19.2362 C   0  0  0  0  0  0  0  0  0  0  0  0
    7.9086  -13.3656   19.3000 C   0  0  2  0  0  0  0  0  0  0  0  0
    6.7706  -12.3681   19.1684 C   0  0  0  0  0  0  0  0  0  0  0  0
    7.8001  -14.1073   20.6174 C   0  0  0  0  0  0  0  0  0  0  0  0
    9.0378  -14.8742   20.9617 C   0  0  2  0  0  0  0  0  0  0  0  0
    9.3861  -15.9075   20.0289 N   0  0  0  0  0  0  0  0  0  0  0  0
    8.8751  -15.4027   22.3554 C   0  0  0  0  0  0  0  0  0  0  0  0
    8.1064  -14.7479   23.1098 O   0  0  0  0  0  0  0  0  0  0  0  0
    9.5395  -16.5606   22.7992 N   0  0  0  0  0  0  0  0  0  0  0  0
    9.2426  -17.0237   24.1965 C   0  0  1  0  0  0  0  0  0  0  0  0
    9.7767  -18.4353   24.2473 C   0  0  0  0  0  0  0  0  0  0  0  0
    8.9077  -19.4258   23.6675 C   0  0  0  0  0  0  0  0  0  0  0  0
    7.6669  -19.5429   23.7043 O   0  0  0  0  0  0  0  0  0  0  0  0
    9.9266  -16.0980   25.1054 C   0  0  0  0  0  0  0  0  0  0  0  0
   11.1831  -15.9130   24.9256 O   0  0  0  0  0  0  0  0  0  0  0  0
    9.5368  -20.4637   22.9172 O   0  0  0  0  0  0  0  0  0  0  0  0
    8.9226  -12.4863   26.1297 C   0  0  0  0  0  0  0  0  0  0  0  0
    9.3471  -13.2609   27.3421 C   0  0  1  0  0  0  0  0  0  0  0  0
    8.1543  -13.5720   28.1931 C   0  0  0  0  0  0  0  0  0  0  0  0
   10.1478  -14.4931   27.0097 C   0  0  2  0  0  0  0  0  0  0  0  0
    9.3492  -15.3872   26.1476 N   0  0  0  0  0  0  0  0  0  0  0  0
   10.4072  -15.2710   28.2645 C   0  0  0  0  0  0  0  0  0  0  0  0
    9.7749  -16.3355   28.4384 O   0  0  0  0  0  0  0  0  0  0  0  0
   11.3044  -14.8699   29.2299 O   0  0  0  0  0  0  0  0  0  0  0  0
  2  1  1  1
  3  2  1  0
  4  5  1  0
  4  2  1  0
  5  6  1  6
  5  7  1  0
  7  8  2  0
  9  7  1  0
  9 10  1  0
 10 14  1  0
 10 11  1  6
 12 16  1  0
 12 11  1  0
 13 12  2  0
 14 15  2  0
 18 17  1  6
 18 20  1  0
 19 18  1  0
 20 22  1  0
 20 21  1  6
 21 14  1  0
 22 23  2  0
 22 24  1  0
M  END
$$$$
