LDV.pdb
     RDKit          3D

 24 23  0  0  1  0  0  0  0  0999 V2000
    9.4326  -13.2024   19.2702 C   0  0  0  0  0  0  0  0  0  0  0  0
    7.9362  -13.2540   19.1798 C   0  0  2  0  0  0  0  0  0  0  0  0
    7.3201  -11.8694   19.2826 C   0  0  0  0  0  0  0  0  0  0  0  0
    7.4119  -14.1403   20.2920 C   0  0  0  0  0  0  0  0  0  0  0  0
    8.0617  -15.4877   20.3231 C   0  0  2  0  0  0  0  0  0  0  0  0
    7.4179  -16.4864   19.5185 N   0  0  0  0  0  0  0  0  0  0  0  0
    8.1768  -15.9066   21.7582 C   0  0  0  0  0  0  0  0  0  0  0  0
    7.1014  -16.2372   22.3265 O   0  0  0  0  0  0  0  0  0  0  0  0
    9.4102  -15.9303   22.4345 N   0  0  0  0  0  0  0  0  0  0  0  0
    9.4029  -16.4374   23.8480 C   0  0  1  0  0  0  0  0  0  0  0  0
   10.6287  -17.3146   23.9401 C   0  0  0  0  0  0  0  0  0  0  0  0
   10.5007  -18.5929   23.2905 C   0  0  0  0  0  0  0  0  0  0  0  0
   11.0568  -19.0485   22.2717 O   0  0  0  0  0  0  0  0  0  0  0  0
    9.4492  -15.2605   24.7219 C   0  0  0  0  0  0  0  0  0  0  0  0
   10.3950  -14.4162   24.5272 O   0  0  0  0  0  0  0  0  0  0  0  0
    9.5936  -19.5206   23.8842 O   0  0  0  0  0  0  0  0  0  0  0  0
    7.3622  -12.1847   25.3674 C   0  0  0  0  0  0  0  0  0  0  0  0
    7.5653  -12.9262   26.6555 C   0  0  1  0  0  0  0  0  0  0  0  0
    6.3217  -13.6810   27.0120 C   0  0  0  0  0  0  0  0  0  0  0  0
    8.7860  -13.8093   26.6467 C   0  0  2  0  0  0  0  0  0  0  0  0
    8.5626  -14.9570   25.7449 N   0  0  0  0  0  0  0  0  0  0  0  0
    8.9812  -14.4012   28.0099 C   0  0  0  0  0  0  0  0  0  0  0  0
    8.6987  -15.6081   28.1735 O   0  0  0  0  0  0  0  0  0  0  0  0
    9.4544  -13.6816   29.0851 O   0  0  0  0  0  0  0  0  0  0  0  0
  2  1  1  1
  3  2  1  0
  4  5  1  0
  4  2  1  0
  5  6  1  6
  5  7  1  0
  7  8  2  0
  9  7  1  0
  9 10  1  0
 10 14  1  0
 10 11  1  6
 12 16  1  0
 12 11  1  0
 13 12  2  0
 14 15  2  0
 18 17  1  6
 18 20  1  0
 19 18  1  0
 20 22  1  0
 20 21  1  6
 21 14  1  0
 22 23  2  0
 22 24  1  0
M  END
$$$$
