GGM.pdb
     RDKit          3D

 17 16  0  0  1  0  0  0  0  0999 V2000
    7.3367  -20.8631   25.1632 N   0  0  0  0  0  0  0  0  0  0  0  0
    6.3053  -19.9985   24.6355 C   0  0  0  0  0  0  0  0  0  0  0  0
    6.8385  -19.0919   23.5866 C   0  0  0  0  0  0  0  0  0  0  0  0
    7.9618  -19.2654   23.0572 O   0  0  0  0  0  0  0  0  0  0  0  0
    6.0221  -18.0029   23.1952 N   0  0  0  0  0  0  0  0  0  0  0  0
    6.4880  -17.0860   22.2089 C   0  0  0  0  0  0  0  0  0  0  0  0
    7.4253  -16.0814   22.7986 C   0  0  0  0  0  0  0  0  0  0  0  0
    8.0582  -15.3789   21.9833 O   0  0  0  0  0  0  0  0  0  0  0  0
    5.3012  -12.0779   26.7796 C   0  0  0  0  0  0  0  0  0  0  0  0
    7.1088  -11.8601   26.7166 S   0  0  0  0  0  0  0  0  0  0  0  0
    7.7941  -12.8374   25.3243 C   0  0  0  0  0  0  0  0  0  0  0  0
    8.2378  -14.1683   25.8195 C   0  0  0  0  0  0  0  0  0  0  0  0
    8.6686  -15.1328   24.7303 C   0  0  2  0  0  0  0  0  0  0  0  0
    7.6132  -15.9046   24.1660 N   0  0  0  0  0  0  0  0  0  0  0  0
    9.7519  -15.9650   25.2908 C   0  0  0  0  0  0  0  0  0  0  0  0
   11.0799  -15.5806   25.3535 O   0  0  0  0  0  0  0  0  0  0  0  0
    9.4609  -17.0999   25.7441 O   0  0  0  0  0  0  0  0  0  0  0  0
  1  2  1  0
  3  5  1  0
  3  2  1  0
  4  3  2  0
  6  5  1  0
  7  8  2  0
  7  6  1  0
 10 11  1  0
 10  9  1  0
 11 12  1  0
 13 12  1  1
 13 15  1  0
 13 14  1  0
 14  7  1  0
 15 16  1  0
 17 15  2  0
M  END
$$$$
