GGM.pdb
     RDKit          3D

 17 16  0  0  1  0  0  0  0  0999 V2000
    8.3999  -12.0382   19.1729 N   0  0  0  0  0  0  0  0  0  0  0  0
    8.4234  -13.4784   19.2948 C   0  0  0  0  0  0  0  0  0  0  0  0
    7.7674  -13.9297   20.5488 C   0  0  0  0  0  0  0  0  0  0  0  0
    7.3419  -13.1247   21.4109 O   0  0  0  0  0  0  0  0  0  0  0  0
    7.6349  -15.3260   20.7445 N   0  0  0  0  0  0  0  0  0  0  0  0
    6.9719  -15.8195   21.9053 C   0  0  0  0  0  0  0  0  0  0  0  0
    7.8448  -15.7196   23.1152 C   0  0  0  0  0  0  0  0  0  0  0  0
    9.0614  -15.9313   22.9313 O   0  0  0  0  0  0  0  0  0  0  0  0
    6.0853  -11.4330   25.5803 C   0  0  0  0  0  0  0  0  0  0  0  0
    6.5060  -12.2022   27.1772 S   0  0  0  0  0  0  0  0  0  0  0  0
    7.9840  -13.2684   26.9715 C   0  0  0  0  0  0  0  0  0  0  0  0
    7.5568  -14.6757   26.7468 C   0  0  0  0  0  0  0  0  0  0  0  0
    8.2002  -15.3440   25.5462 C   0  0  2  0  0  0  0  0  0  0  0  0
    7.3743  -15.4121   24.3881 N   0  0  0  0  0  0  0  0  0  0  0  0
    8.6762  -16.6694   25.9903 C   0  0  0  0  0  0  0  0  0  0  0  0
    9.7652  -16.8707   26.8204 O   0  0  0  0  0  0  0  0  0  0  0  0
    8.0595  -17.6899   25.5948 O   0  0  0  0  0  0  0  0  0  0  0  0
  1  2  1  0
  3  5  1  0
  3  2  1  0
  4  3  2  0
  6  5  1  0
  7  8  2  0
  7  6  1  0
 10 11  1  0
 10  9  1  0
 11 12  1  0
 13 12  1  1
 13 15  1  0
 13 14  1  0
 14  7  1  0
 15 16  1  0
 17 15  2  0
M  END
$$$$
