GGM.pdb
     RDKit          3D

 17 16  0  0  1  0  0  0  0  0999 V2000
    5.2082  -19.9437   21.9305 N   0  0  0  0  0  0  0  0  0  0  0  0
    5.5275  -18.6817   22.5591 C   0  0  0  0  0  0  0  0  0  0  0  0
    6.9249  -18.2680   22.2714 C   0  0  0  0  0  0  0  0  0  0  0  0
    7.9143  -18.9463   22.6364 O   0  0  0  0  0  0  0  0  0  0  0  0
    7.1087  -17.0588   21.5575 N   0  0  0  0  0  0  0  0  0  0  0  0
    8.4258  -16.5734   21.3124 C   0  0  0  0  0  0  0  0  0  0  0  0
    8.9308  -15.7634   22.4633 C   0  0  0  0  0  0  0  0  0  0  0  0
   10.0961  -15.3280   22.3565 O   0  0  0  0  0  0  0  0  0  0  0  0
    5.3471  -12.3793   26.7463 C   0  0  0  0  0  0  0  0  0  0  0  0
    7.0326  -11.7420   27.0143 S   0  0  0  0  0  0  0  0  0  0  0  0
    8.2543  -13.0019   26.4820 C   0  0  0  0  0  0  0  0  0  0  0  0
    7.7374  -13.7258   25.2895 C   0  0  0  0  0  0  0  0  0  0  0  0
    8.6847  -14.7694   24.7279 C   0  0  2  0  0  0  0  0  0  0  0  0
    8.1837  -15.4861   23.6040 N   0  0  0  0  0  0  0  0  0  0  0  0
    9.0702  -15.6528   25.8466 C   0  0  0  0  0  0  0  0  0  0  0  0
   10.0108  -15.3298   26.8090 O   0  0  0  0  0  0  0  0  0  0  0  0
    8.5141  -16.7752   25.9415 O   0  0  0  0  0  0  0  0  0  0  0  0
  1  2  1  0
  3  5  1  0
  3  2  1  0
  4  3  2  0
  6  5  1  0
  7  8  2  0
  7  6  1  0
 10 11  1  0
 10  9  1  0
 11 12  1  0
 13 12  1  1
 13 15  1  0
 13 14  1  0
 14  7  1  0
 15 16  1  0
 17 15  2  0
M  END
$$$$
