GGM.pdb
     RDKit          3D

 17 16  0  0  1  0  0  0  0  0999 V2000
    5.0698  -21.5130   22.7270 N   0  0  0  0  0  0  0  0  0  0  0  0
    5.3956  -20.2795   23.4067 C   0  0  0  0  0  0  0  0  0  0  0  0
    6.5248  -19.5756   22.7463 C   0  0  0  0  0  0  0  0  0  0  0  0
    7.6387  -20.1203   22.5607 O   0  0  0  0  0  0  0  0  0  0  0  0
    6.2994  -18.2426   22.3243 N   0  0  0  0  0  0  0  0  0  0  0  0
    7.3571  -17.5009   21.7229 C   0  0  0  0  0  0  0  0  0  0  0  0
    7.8829  -16.4524   22.6501 C   0  0  0  0  0  0  0  0  0  0  0  0
    8.8955  -15.8349   22.2599 O   0  0  0  0  0  0  0  0  0  0  0  0
    6.9477  -10.5117   26.8313 C   0  0  0  0  0  0  0  0  0  0  0  0
    6.1440  -12.1466   26.8415 S   0  0  0  0  0  0  0  0  0  0  0  0
    7.4035  -13.4487   26.5558 C   0  0  0  0  0  0  0  0  0  0  0  0
    6.8377  -14.5056   25.6748 C   0  0  0  0  0  0  0  0  0  0  0  0
    7.8596  -15.2114   24.8033 C   0  0  2  0  0  0  0  0  0  0  0  0
    7.3116  -16.1488   23.8820 N   0  0  0  0  0  0  0  0  0  0  0  0
    8.8599  -15.8131   25.7076 C   0  0  0  0  0  0  0  0  0  0  0  0
    9.8662  -15.1053   26.3414 O   0  0  0  0  0  0  0  0  0  0  0  0
    8.8039  -17.0493   25.9238 O   0  0  0  0  0  0  0  0  0  0  0  0
  1  2  1  0
  3  5  1  0
  3  2  1  0
  4  3  2  0
  6  5  1  0
  7  8  2  0
  7  6  1  0
 10 11  1  0
 10  9  1  0
 11 12  1  0
 13 12  1  1
 13 15  1  0
 13 14  1  0
 14  7  1  0
 15 16  1  0
 17 15  2  0
M  END
$$$$
