GGM.pdb
     RDKit          3D

 17 16  0  0  1  0  0  0  0  0999 V2000
    8.4790  -18.3864   17.4169 N   0  0  0  0  0  0  0  0  0  0  0  0
    8.0546  -18.2299   18.7899 C   0  0  0  0  0  0  0  0  0  0  0  0
    7.8867  -16.7981   19.1482 C   0  0  0  0  0  0  0  0  0  0  0  0
    8.4391  -15.8756   18.5032 O   0  0  0  0  0  0  0  0  0  0  0  0
    7.0666  -16.5013   20.2639 N   0  0  0  0  0  0  0  0  0  0  0  0
    7.0109  -15.1700   20.7687 C   0  0  0  0  0  0  0  0  0  0  0  0
    7.9398  -14.9868   21.9260 C   0  0  0  0  0  0  0  0  0  0  0  0
    9.1467  -14.8420   21.6414 O   0  0  0  0  0  0  0  0  0  0  0  0
    5.7435  -10.5858   26.8536 C   0  0  0  0  0  0  0  0  0  0  0  0
    6.3082  -12.3122   26.9926 S   0  0  0  0  0  0  0  0  0  0  0  0
    7.1752  -12.7977   25.4512 C   0  0  0  0  0  0  0  0  0  0  0  0
    7.7141  -14.1769   25.5950 C   0  0  0  0  0  0  0  0  0  0  0  0
    8.3994  -14.7169   24.3536 C   0  0  2  0  0  0  0  0  0  0  0  0
    7.5292  -14.9719   23.2556 N   0  0  0  0  0  0  0  0  0  0  0  0
    9.1681  -15.9084   24.7654 C   0  0  0  0  0  0  0  0  0  0  0  0
   10.3780  -15.8644   25.4359 O   0  0  0  0  0  0  0  0  0  0  0  0
    8.7029  -17.0435   24.4946 O   0  0  0  0  0  0  0  0  0  0  0  0
  1  2  1  0
  3  5  1  0
  3  2  1  0
  4  3  2  0
  6  5  1  0
  7  8  2  0
  7  6  1  0
 10 11  1  0
 10  9  1  0
 11 12  1  0
 13 12  1  1
 13 15  1  0
 13 14  1  0
 14  7  1  0
 15 16  1  0
 17 15  2  0
M  END
$$$$
