GGM.pdb
     RDKit          3D

 17 16  0  0  1  0  0  0  0  0999 V2000
    7.3307  -20.4386   21.4429 N   0  0  0  0  0  0  0  0  0  0  0  0
    8.0310  -19.5457   20.5474 C   0  0  0  0  0  0  0  0  0  0  0  0
    7.7614  -18.1225   20.8765 C   0  0  0  0  0  0  0  0  0  0  0  0
    6.7437  -17.7622   21.5143 O   0  0  0  0  0  0  0  0  0  0  0  0
    8.7090  -17.1655   20.4386 N   0  0  0  0  0  0  0  0  0  0  0  0
    8.4402  -15.7756   20.6015 C   0  0  0  0  0  0  0  0  0  0  0  0
    8.8279  -15.3019   21.9657 C   0  0  0  0  0  0  0  0  0  0  0  0
   10.0130  -14.9331   22.1006 O   0  0  0  0  0  0  0  0  0  0  0  0
    6.2395  -11.0075   27.9843 C   0  0  0  0  0  0  0  0  0  0  0  0
    5.8330  -12.0992   26.5836 S   0  0  0  0  0  0  0  0  0  0  0  0
    7.3588  -12.9261   25.9905 C   0  0  0  0  0  0  0  0  0  0  0  0
    7.0426  -13.7640   24.8025 C   0  0  0  0  0  0  0  0  0  0  0  0
    8.2203  -14.5483   24.2548 C   0  0  2  0  0  0  0  0  0  0  0  0
    7.9552  -15.2574   23.0487 N   0  0  0  0  0  0  0  0  0  0  0  0
    8.7017  -15.4244   25.3416 C   0  0  0  0  0  0  0  0  0  0  0  0
    8.4862  -16.7903   25.3977 O   0  0  0  0  0  0  0  0  0  0  0  0
    9.3515  -14.9067   26.2839 O   0  0  0  0  0  0  0  0  0  0  0  0
  1  2  1  0
  3  5  1  0
  3  2  1  0
  4  3  2  0
  6  5  1  0
  7  8  2  0
  7  6  1  0
 10 11  1  0
 10  9  1  0
 11 12  1  0
 13 12  1  1
 13 15  1  0
 13 14  1  0
 14  7  1  0
 15 16  1  0
 17 15  2  0
M  END
$$$$
