GGM.pdb
     RDKit          3D

 17 16  0  0  1  0  0  0  0  0999 V2000
    9.4392  -18.2620   19.4111 N   0  0  0  0  0  0  0  0  0  0  0  0
    8.0051  -18.2229   19.2330 C   0  0  0  0  0  0  0  0  0  0  0  0
    7.3754  -17.2002   20.1071 C   0  0  0  0  0  0  0  0  0  0  0  0
    6.6912  -17.5059   21.1123 O   0  0  0  0  0  0  0  0  0  0  0  0
    7.5758  -15.8413   19.7625 N   0  0  0  0  0  0  0  0  0  0  0  0
    7.0865  -14.8131   20.6192 C   0  0  0  0  0  0  0  0  0  0  0  0
    7.8967  -14.7163   21.8721 C   0  0  0  0  0  0  0  0  0  0  0  0
    9.0713  -14.3161   21.7347 O   0  0  0  0  0  0  0  0  0  0  0  0
    6.8280  -10.8067   28.1737 C   0  0  0  0  0  0  0  0  0  0  0  0
    6.1778  -11.7946   26.7880 S   0  0  0  0  0  0  0  0  0  0  0  0
    7.3089  -13.1994   26.4553 C   0  0  0  0  0  0  0  0  0  0  0  0
    6.8086  -13.9778   25.2903 C   0  0  0  0  0  0  0  0  0  0  0  0
    7.8923  -14.4602   24.3443 C   0  0  2  0  0  0  0  0  0  0  0  0
    7.4132  -15.0415   23.1358 N   0  0  0  0  0  0  0  0  0  0  0  0
    8.7654  -15.3703   25.1121 C   0  0  0  0  0  0  0  0  0  0  0  0
    9.7395  -16.1774   24.5507 O   0  0  0  0  0  0  0  0  0  0  0  0
    8.6241  -15.4243   26.3593 O   0  0  0  0  0  0  0  0  0  0  0  0
  1  2  1  0
  3  5  1  0
  3  2  1  0
  4  3  2  0
  6  5  1  0
  7  8  2  0
  7  6  1  0
 10 11  1  0
 10  9  1  0
 11 12  1  0
 13 12  1  1
 13 15  1  0
 13 14  1  0
 14  7  1  0
 15 16  1  0
 17 15  2  0
M  END
$$$$
