GGM.pdb
     RDKit          3D

 17 16  0  0  1  0  0  0  0  0999 V2000
    5.6820  -19.9748   19.5513 N   0  0  0  0  0  0  0  0  0  0  0  0
    6.8093  -19.6055   20.3773 C   0  0  0  0  0  0  0  0  0  0  0  0
    6.3771  -18.8586   21.5864 C   0  0  0  0  0  0  0  0  0  0  0  0
    5.5808  -17.8918   21.5291 O   0  0  0  0  0  0  0  0  0  0  0  0
    6.9032  -19.2811   22.8315 N   0  0  0  0  0  0  0  0  0  0  0  0
    6.4903  -18.6339   24.0320 C   0  0  0  0  0  0  0  0  0  0  0  0
    7.3425  -17.4418   24.3292 C   0  0  0  0  0  0  0  0  0  0  0  0
    8.5456  -17.5356   24.0089 O   0  0  0  0  0  0  0  0  0  0  0  0
    5.8085  -11.0453   26.2184 C   0  0  0  0  0  0  0  0  0  0  0  0
    6.8829  -11.7702   27.4986 S   0  0  0  0  0  0  0  0  0  0  0  0
    7.8943  -13.1104   26.7606 C   0  0  0  0  0  0  0  0  0  0  0  0
    7.0009  -14.1729   26.2256 C   0  0  0  0  0  0  0  0  0  0  0  0
    7.7038  -15.2192   25.3811 C   0  0  2  0  0  0  0  0  0  0  0  0
    6.8673  -16.2775   24.9249 N   0  0  0  0  0  0  0  0  0  0  0  0
    8.8630  -15.6989   26.1600 C   0  0  0  0  0  0  0  0  0  0  0  0
    8.8110  -16.7259   27.0862 O   0  0  0  0  0  0  0  0  0  0  0  0
    9.9760  -15.1454   25.9784 O   0  0  0  0  0  0  0  0  0  0  0  0
  1  2  1  0
  3  5  1  0
  3  2  1  0
  4  3  2  0
  6  5  1  0
  7  8  2  0
  7  6  1  0
 10 11  1  0
 10  9  1  0
 11 12  1  0
 13 12  1  1
 13 15  1  0
 13 14  1  0
 14  7  1  0
 15 16  1  0
 17 15  2  0
M  END
$$$$
