GGM.pdb
     RDKit          3D

 17 16  0  0  1  0  0  0  0  0999 V2000
    4.0164  -19.4201   21.7976 N   0  0  0  0  0  0  0  0  0  0  0  0
    4.9191  -18.9424   22.8207 C   0  0  0  0  0  0  0  0  0  0  0  0
    6.0810  -18.2286   22.2317 C   0  0  0  0  0  0  0  0  0  0  0  0
    7.1757  -18.7979   22.0087 O   0  0  0  0  0  0  0  0  0  0  0  0
    5.9105  -16.8569   21.9236 N   0  0  0  0  0  0  0  0  0  0  0  0
    6.9827  -16.1230   21.3386 C   0  0  0  0  0  0  0  0  0  0  0  0
    7.8846  -15.5493   22.3841 C   0  0  0  0  0  0  0  0  0  0  0  0
    8.8900  -14.9393   21.9648 O   0  0  0  0  0  0  0  0  0  0  0  0
    5.8887  -10.6905   26.4919 C   0  0  0  0  0  0  0  0  0  0  0  0
    6.5313  -12.3309   26.9555 S   0  0  0  0  0  0  0  0  0  0  0  0
    7.3694  -13.0895   25.5113 C   0  0  0  0  0  0  0  0  0  0  0  0
    7.8968  -14.4288   25.8871 C   0  0  0  0  0  0  0  0  0  0  0  0
    8.5552  -15.1871   24.7498 C   0  0  2  0  0  0  0  0  0  0  0  0
    7.6573  -15.6633   23.7522 N   0  0  0  0  0  0  0  0  0  0  0  0
    9.3629  -16.2642   25.3562 C   0  0  0  0  0  0  0  0  0  0  0  0
   10.5376  -16.0591   26.0586 O   0  0  0  0  0  0  0  0  0  0  0  0
    8.9674  -17.4502   25.2329 O   0  0  0  0  0  0  0  0  0  0  0  0
  1  2  1  0
  3  5  1  0
  3  2  1  0
  4  3  2  0
  6  5  1  0
  7  8  2  0
  7  6  1  0
 10 11  1  0
 10  9  1  0
 11 12  1  0
 13 12  1  1
 13 15  1  0
 13 14  1  0
 14  7  1  0
 15 16  1  0
 17 15  2  0
M  END
$$$$
