GGM.pdb
     RDKit          3D

 17 16  0  0  1  0  0  0  0  0999 V2000
    5.5525  -19.2529   20.3807 N   0  0  0  0  0  0  0  0  0  0  0  0
    5.6353  -18.2000   21.3677 C   0  0  0  0  0  0  0  0  0  0  0  0
    6.6624  -17.1908   21.0027 C   0  0  0  0  0  0  0  0  0  0  0  0
    7.8012  -17.5120   20.5878 O   0  0  0  0  0  0  0  0  0  0  0  0
    6.3081  -15.8266   21.1406 N   0  0  0  0  0  0  0  0  0  0  0  0
    7.2873  -14.8144   20.9240 C   0  0  0  0  0  0  0  0  0  0  0  0
    8.0446  -14.5118   22.1772 C   0  0  0  0  0  0  0  0  0  0  0  0
    9.1294  -13.9117   22.0298 O   0  0  0  0  0  0  0  0  0  0  0  0
    5.7425  -10.5320   26.9785 C   0  0  0  0  0  0  0  0  0  0  0  0
    6.9417  -11.9012   27.0572 S   0  0  0  0  0  0  0  0  0  0  0  0
    6.5938  -13.0966   25.7105 C   0  0  0  0  0  0  0  0  0  0  0  0
    7.4756  -14.2856   25.8585 C   0  0  0  0  0  0  0  0  0  0  0  0
    8.3345  -14.5864   24.6445 C   0  0  2  0  0  0  0  0  0  0  0  0
    7.6061  -14.8585   23.4515 N   0  0  0  0  0  0  0  0  0  0  0  0
    9.2497  -15.6824   25.0208 C   0  0  0  0  0  0  0  0  0  0  0  0
   10.4396  -15.5066   25.7053 O   0  0  0  0  0  0  0  0  0  0  0  0
    8.9380  -16.8574   24.7039 O   0  0  0  0  0  0  0  0  0  0  0  0
  1  2  1  0
  3  5  1  0
  3  2  1  0
  4  3  2  0
  6  5  1  0
  7  8  2  0
  7  6  1  0
 10 11  1  0
 10  9  1  0
 11 12  1  0
 13 12  1  1
 13 15  1  0
 13 14  1  0
 14  7  1  0
 15 16  1  0
 17 15  2  0
M  END
$$$$
