GGM.pdb
     RDKit          3D

 17 16  0  0  1  0  0  0  0  0999 V2000
    4.3348  -19.7172   21.2452 N   0  0  0  0  0  0  0  0  0  0  0  0
    5.0691  -18.8832   22.1697 C   0  0  0  0  0  0  0  0  0  0  0  0
    6.1655  -18.1486   21.4878 C   0  0  0  0  0  0  0  0  0  0  0  0
    7.1078  -18.7372   20.9067 O   0  0  0  0  0  0  0  0  0  0  0  0
    6.1123  -16.7337   21.5150 N   0  0  0  0  0  0  0  0  0  0  0  0
    7.2280  -15.9733   21.0596 C   0  0  0  0  0  0  0  0  0  0  0  0
    8.0037  -15.4048   22.2045 C   0  0  0  0  0  0  0  0  0  0  0  0
    9.1651  -15.0274   21.9448 O   0  0  0  0  0  0  0  0  0  0  0  0
    6.5940  -10.3270   27.2038 C   0  0  0  0  0  0  0  0  0  0  0  0
    6.4331  -12.1378   27.0873 S   0  0  0  0  0  0  0  0  0  0  0  0
    7.5670  -12.7702   25.7920 C   0  0  0  0  0  0  0  0  0  0  0  0
    7.4993  -14.2558   25.7513 C   0  0  0  0  0  0  0  0  0  0  0  0
    8.2858  -14.8903   24.6196 C   0  0  2  0  0  0  0  0  0  0  0  0
    7.5029  -15.2841   23.4971 N   0  0  0  0  0  0  0  0  0  0  0  0
    9.0585  -16.0066   25.2003 C   0  0  0  0  0  0  0  0  0  0  0  0
    8.8318  -17.3428   24.9205 O   0  0  0  0  0  0  0  0  0  0  0  0
    9.9865  -15.7377   26.0033 O   0  0  0  0  0  0  0  0  0  0  0  0
  1  2  1  0
  3  5  1  0
  3  2  1  0
  4  3  2  0
  6  5  1  0
  7  8  2  0
  7  6  1  0
 10 11  1  0
 10  9  1  0
 11 12  1  0
 13 12  1  1
 13 15  1  0
 13 14  1  0
 14  7  1  0
 15 16  1  0
 17 15  2  0
M  END
$$$$
