GGM.pdb
     RDKit          3D

 17 16  0  0  1  0  0  0  0  0999 V2000
    9.7477  -18.2894   19.4980 N   0  0  0  0  0  0  0  0  0  0  0  0
    8.3301  -18.2802   19.2153 C   0  0  0  0  0  0  0  0  0  0  0  0
    7.5985  -17.3652   20.1287 C   0  0  0  0  0  0  0  0  0  0  0  0
    7.1258  -17.7481   21.2251 O   0  0  0  0  0  0  0  0  0  0  0  0
    7.4484  -16.0194   19.7142 N   0  0  0  0  0  0  0  0  0  0  0  0
    6.7719  -15.0896   20.5558 C   0  0  0  0  0  0  0  0  0  0  0  0
    7.6188  -14.6949   21.7231 C   0  0  0  0  0  0  0  0  0  0  0  0
    8.7869  -14.3430   21.4576 O   0  0  0  0  0  0  0  0  0  0  0  0
    6.2761  -12.0324   28.6769 C   0  0  0  0  0  0  0  0  0  0  0  0
    6.3464  -11.4073   26.9672 S   0  0  0  0  0  0  0  0  0  0  0  0
    7.5845  -12.3688   26.0152 C   0  0  0  0  0  0  0  0  0  0  0  0
    6.9081  -13.0930   24.9056 C   0  0  0  0  0  0  0  0  0  0  0  0
    7.8179  -14.0031   24.1019 C   0  0  2  0  0  0  0  0  0  0  0  0
    7.1750  -14.7037   23.0419 N   0  0  0  0  0  0  0  0  0  0  0  0
    8.4887  -14.9034   25.0611 C   0  0  0  0  0  0  0  0  0  0  0  0
    9.5807  -14.5483   25.8337 O   0  0  0  0  0  0  0  0  0  0  0  0
    8.0477  -16.0722   25.1934 O   0  0  0  0  0  0  0  0  0  0  0  0
  1  2  1  0
  3  5  1  0
  3  2  1  0
  4  3  2  0
  6  5  1  0
  7  8  2  0
  7  6  1  0
 10 11  1  0
 10  9  1  0
 11 12  1  0
 13 12  1  1
 13 15  1  0
 13 14  1  0
 14  7  1  0
 15 16  1  0
 17 15  2  0
M  END
$$$$
