GGM.pdb
     RDKit          3D

 17 16  0  0  1  0  0  0  0  0999 V2000
    8.8861  -19.7076   18.2949 N   0  0  0  0  0  0  0  0  0  0  0  0
    9.2378  -19.2460   19.6188 C   0  0  0  0  0  0  0  0  0  0  0  0
    8.5067  -18.0027   19.9742 C   0  0  0  0  0  0  0  0  0  0  0  0
    7.2566  -17.9215   19.9235 O   0  0  0  0  0  0  0  0  0  0  0  0
    9.2816  -16.8890   20.3803 N   0  0  0  0  0  0  0  0  0  0  0  0
    8.6357  -15.7131   20.8603 C   0  0  0  0  0  0  0  0  0  0  0  0
    8.9630  -15.4595   22.2971 C   0  0  0  0  0  0  0  0  0  0  0  0
   10.1743  -15.3217   22.5662 O   0  0  0  0  0  0  0  0  0  0  0  0
    6.4523  -10.6356   27.7016 C   0  0  0  0  0  0  0  0  0  0  0  0
    5.8876  -12.0052   26.6413 S   0  0  0  0  0  0  0  0  0  0  0  0
    7.2960  -13.1255   26.2882 C   0  0  0  0  0  0  0  0  0  0  0  0
    7.1042  -13.7644   24.9584 C   0  0  0  0  0  0  0  0  0  0  0  0
    8.2208  -14.7051   24.5459 C   0  0  2  0  0  0  0  0  0  0  0  0
    8.0093  -15.3742   23.3068 N   0  0  0  0  0  0  0  0  0  0  0  0
    8.4420  -15.6361   25.6705 C   0  0  0  0  0  0  0  0  0  0  0  0
    9.2225  -15.3526   26.7776 O   0  0  0  0  0  0  0  0  0  0  0  0
    7.8901  -16.7639   25.6308 O   0  0  0  0  0  0  0  0  0  0  0  0
  1  2  1  0
  3  5  1  0
  3  2  1  0
  4  3  2  0
  6  5  1  0
  7  8  2  0
  7  6  1  0
 10 11  1  0
 10  9  1  0
 11 12  1  0
 13 12  1  1
 13 15  1  0
 13 14  1  0
 14  7  1  0
 15 16  1  0
 17 15  2  0
M  END
$$$$
