SFY.pdb
     RDKit          3D

 30 31  0  0  1  0  0  0  0  0999 V2000
   20.2639  -12.5232  -17.0484 O   0  0  0  0  0  0  0  0  0  0  0  0
   20.6701  -11.2173  -17.3147 C   0  0  0  0  0  0  0  0  0  0  0  0
   21.8080  -10.8191  -16.4039 C   0  0  2  0  0  0  0  0  0  0  0  0
   22.0994  -11.8043  -15.4121 N   0  0  0  0  0  0  0  0  0  0  0  0
   21.5788   -9.5190  -15.7539 C   0  0  0  0  0  0  0  0  0  0  0  0
   20.7279   -9.4786  -14.8288 O   0  0  0  0  0  0  0  0  0  0  0  0
   22.2497   -8.3302  -16.1038 N   0  0  0  0  0  0  0  0  0  0  0  0
   21.8616   -7.0787  -15.4956 C   0  0  1  0  0  0  0  0  0  0  0  0
   23.0631   -6.1372  -15.4513 C   0  0  0  0  0  0  0  0  0  0  0  0
   22.7333   -4.7823  -15.0214 C   0  0  0  0  0  0  0  0  0  0  0  0
   22.9655   -3.6968  -15.8382 C   0  0  0  0  0  0  0  0  0  0  0  0
   22.6441   -2.4031  -15.4069 C   0  0  0  0  0  0  0  0  0  0  0  0
   22.0935   -2.2055  -14.1632 C   0  0  0  0  0  0  0  0  0  0  0  0
   21.8624   -3.2816  -13.3509 C   0  0  0  0  0  0  0  0  0  0  0  0
   22.1828   -4.5446  -13.7876 C   0  0  0  0  0  0  0  0  0  0  0  0
   20.7532   -6.4510  -16.2107 C   0  0  0  0  0  0  0  0  0  0  0  0
   20.7863   -6.4291  -17.4890 O   0  0  0  0  0  0  0  0  0  0  0  0
   13.0542   -3.3119  -19.0564 O   0  0  0  0  0  0  0  0  0  0  0  0
   14.0700   -3.8856  -18.2906 C   0  0  0  0  0  0  0  0  0  0  0  0
   14.7618   -4.9679  -18.8104 C   0  0  0  0  0  0  0  0  0  0  0  0
   15.7706   -5.5421  -18.0565 C   0  0  0  0  0  0  0  0  0  0  0  0
   16.1131   -5.0789  -16.8096 C   0  0  0  0  0  0  0  0  0  0  0  0
   17.2051   -5.7477  -16.0670 C   0  0  0  0  0  0  0  0  0  0  0  0
   18.5789   -5.2121  -16.4565 C   0  0  2  0  0  0  0  0  0  0  0  0
   19.6086   -5.8484  -15.6236 N   0  0  0  0  0  0  0  0  0  0  0  0
   18.6713   -3.7668  -16.2908 C   0  0  0  0  0  0  0  0  0  0  0  0
   18.3143   -2.8894  -17.1102 O   0  0  0  0  0  0  0  0  0  0  0  0
   15.4224   -4.0049  -16.3006 C   0  0  0  0  0  0  0  0  0  0  0  0
   14.4059   -3.4158  -17.0443 C   0  0  0  0  0  0  0  0  0  0  0  0
   19.2186   -3.2892  -15.0850 O   0  0  0  0  0  0  0  0  0  0  0  0
  1  2  1  0
  2  3  1  0
  3  5  1  0
  3  4  1  1
  5  6  2  0
  7  5  1  0
  7  8  1  0
  8  9  1  6
  9 10  1  0
 10 15  2  0
 11 12  2  0
 11 10  1  0
 12 13  1  0
 13 14  2  0
 15 14  1  0
 16  8  1  0
 16 17  2  0
 18 19  1  0
 19 29  2  0
 19 20  1  0
 20 21  2  0
 21 22  1  0
 22 23  1  0
 24 23  1  1
 24 26  1  0
 24 25  1  0
 25 16  1  0
 26 30  1  0
 27 26  2  0
 28 22  2  0
 29 28  1  0
M  END
$$$$
