SFY.pdb
     RDKit          3D

 30 31  0  0  1  0  0  0  0  0999 V2000
   32.0746  -29.4944  -18.0418 O   0  0  0  0  0  0  0  0  0  0  0  0
   30.8152  -29.9198  -18.4593 C   0  0  0  0  0  0  0  0  0  0  0  0
   30.0675  -30.5666  -17.3168 C   0  0  2  0  0  0  0  0  0  0  0  0
   30.6131  -31.8309  -16.9382 N   0  0  0  0  0  0  0  0  0  0  0  0
   28.6308  -30.7147  -17.5979 C   0  0  0  0  0  0  0  0  0  0  0  0
   28.2745  -31.7164  -18.2694 O   0  0  0  0  0  0  0  0  0  0  0  0
   27.6421  -29.8095  -17.1631 N   0  0  0  0  0  0  0  0  0  0  0  0
   26.2447  -30.1302  -17.3395 C   0  0  1  0  0  0  0  0  0  0  0  0
   25.5817  -30.2968  -15.9738 C   0  0  0  0  0  0  0  0  0  0  0  0
   25.8454  -31.5870  -15.3453 C   0  0  0  0  0  0  0  0  0  0  0  0
   25.0239  -32.6711  -15.5668 C   0  0  0  0  0  0  0  0  0  0  0  0
   25.2922  -33.9015  -14.9525 C   0  0  0  0  0  0  0  0  0  0  0  0
   26.3792  -34.0376  -14.1224 C   0  0  0  0  0  0  0  0  0  0  0  0
   27.1958  -32.9627  -13.9013 C   0  0  0  0  0  0  0  0  0  0  0  0
   26.9199  -31.7623  -14.5107 C   0  0  0  0  0  0  0  0  0  0  0  0
   25.5496  -29.1080  -18.1179 C   0  0  0  0  0  0  0  0  0  0  0  0
   25.7470  -27.8789  -17.8249 O   0  0  0  0  0  0  0  0  0  0  0  0
   22.7415  -33.0583  -23.8824 O   0  0  0  0  0  0  0  0  0  0  0  0
   23.1811  -31.8915  -23.2556 C   0  0  0  0  0  0  0  0  0  0  0  0
   22.3301  -30.7986  -23.2166 C   0  0  0  0  0  0  0  0  0  0  0  0
   22.7593  -29.6379  -22.5966 C   0  0  0  0  0  0  0  0  0  0  0  0
   23.9996  -29.5278  -22.0169 C   0  0  0  0  0  0  0  0  0  0  0  0
   24.3834  -28.2517  -21.3724 C   0  0  0  0  0  0  0  0  0  0  0  0
   24.0090  -28.2174  -19.8945 C   0  0  2  0  0  0  0  0  0  0  0  0
   24.6555  -29.3378  -19.1975 N   0  0  0  0  0  0  0  0  0  0  0  0
   22.5684  -28.3096  -19.6913 C   0  0  0  0  0  0  0  0  0  0  0  0
   21.6969  -27.5054  -20.0944 O   0  0  0  0  0  0  0  0  0  0  0  0
   24.8383  -30.6162  -22.0597 C   0  0  0  0  0  0  0  0  0  0  0  0
   24.4234  -31.7902  -22.6785 C   0  0  0  0  0  0  0  0  0  0  0  0
   22.0886  -29.4163  -18.9657 O   0  0  0  0  0  0  0  0  0  0  0  0
  1  2  1  0
  2  3  1  0
  3  5  1  0
  3  4  1  6
  5  6  2  0
  7  5  1  0
  7  8  1  0
  8  9  1  1
  9 10  1  0
 10 15  2  0
 11 12  2  0
 11 10  1  0
 12 13  1  0
 13 14  2  0
 15 14  1  0
 16  8  1  0
 16 17  2  0
 18 19  1  0
 19 29  2  0
 19 20  1  0
 20 21  2  0
 21 22  1  0
 22 23  1  0
 24 23  1  6
 24 26  1  0
 24 25  1  0
 25 16  1  0
 26 30  1  0
 27 26  2  0
 28 22  2  0
 29 28  1  0
M  END
$$$$
