SFY.pdb
     RDKit          3D

 30 31  0  0  1  0  0  0  0  0999 V2000
   16.4615   -8.9969  -15.1242 O   0  0  0  0  0  0  0  0  0  0  0  0
   16.7520   -9.5025  -16.3896 C   0  0  0  0  0  0  0  0  0  0  0  0
   17.7202  -10.6582  -16.2901 C   0  0  2  0  0  0  0  0  0  0  0  0
   17.2333  -11.7250  -15.4752 N   0  0  0  0  0  0  0  0  0  0  0  0
   19.0473  -10.2396  -15.8118 C   0  0  0  0  0  0  0  0  0  0  0  0
   19.2745  -10.3404  -14.5792 O   0  0  0  0  0  0  0  0  0  0  0  0
   20.0668   -9.7381  -16.6454 N   0  0  0  0  0  0  0  0  0  0  0  0
   21.3572   -9.4083  -16.0860 C   0  0  1  0  0  0  0  0  0  0  0  0
   22.4607   -9.9019  -17.0193 C   0  0  0  0  0  0  0  0  0  0  0  0
   23.8072   -9.7126  -16.4899 C   0  0  0  0  0  0  0  0  0  0  0  0
   24.6309   -8.7177  -16.9707 C   0  0  0  0  0  0  0  0  0  0  0  0
   25.9217   -8.5529  -16.4513 C   0  0  0  0  0  0  0  0  0  0  0  0
   26.3779   -9.3837  -15.4560 C   0  0  0  0  0  0  0  0  0  0  0  0
   25.5619  -10.3718  -14.9774 C   0  0  0  0  0  0  0  0  0  0  0  0
   24.2984  -10.5214  -15.4967 C   0  0  0  0  0  0  0  0  0  0  0  0
   21.4950   -7.9725  -15.8547 C   0  0  0  0  0  0  0  0  0  0  0  0
   20.8943   -7.1668  -16.6456 O   0  0  0  0  0  0  0  0  0  0  0  0
   17.2827   -6.5295  -10.6140 O   0  0  0  0  0  0  0  0  0  0  0  0
   18.4918   -6.2590  -11.2561 C   0  0  0  0  0  0  0  0  0  0  0  0
   19.5607   -7.1152  -11.0454 C   0  0  0  0  0  0  0  0  0  0  0  0
   20.7631   -6.8532  -11.6789 C   0  0  0  0  0  0  0  0  0  0  0  0
   20.9377   -5.7742  -12.5106 C   0  0  0  0  0  0  0  0  0  0  0  0
   22.2553   -5.5637  -13.1516 C   0  0  0  0  0  0  0  0  0  0  0  0
   22.2322   -5.8984  -14.6393 C   0  0  2  0  0  0  0  0  0  0  0  0
   22.2422   -7.3571  -14.8151 N   0  0  0  0  0  0  0  0  0  0  0  0
   23.3758   -5.3348  -15.3461 C   0  0  0  0  0  0  0  0  0  0  0  0
   24.3190   -5.9647  -15.8777 O   0  0  0  0  0  0  0  0  0  0  0  0
   19.8727   -4.9293  -12.7148 C   0  0  0  0  0  0  0  0  0  0  0  0
   18.6574   -5.1773  -12.0864 C   0  0  0  0  0  0  0  0  0  0  0  0
   23.4423   -3.9327  -15.4517 O   0  0  0  0  0  0  0  0  0  0  0  0
  1  2  1  0
  2  3  1  0
  3  5  1  0
  3  4  1  1
  5  6  2  0
  7  5  1  0
  7  8  1  0
  8  9  1  6
  9 10  1  0
 10 15  2  0
 11 12  2  0
 11 10  1  0
 12 13  1  0
 13 14  2  0
 15 14  1  0
 16  8  1  0
 16 17  2  0
 18 19  1  0
 19 29  2  0
 19 20  1  0
 20 21  2  0
 21 22  1  0
 22 23  1  0
 24 23  1  1
 24 26  1  0
 24 25  1  0
 25 16  1  0
 26 30  1  0
 27 26  2  0
 28 22  2  0
 29 28  1  0
M  END
$$$$
