SFY.pdb
     RDKit          3D

 30 31  0  0  1  0  0  0  0  0999 V2000
   27.7130  -19.9562  -19.0349 O   0  0  0  0  0  0  0  0  0  0  0  0
   27.1594  -20.8861  -18.1573 C   0  0  0  0  0  0  0  0  0  0  0  0
   28.2140  -21.4225  -17.2175 C   0  0  2  0  0  0  0  0  0  0  0  0
   28.7784  -22.6577  -17.6593 N   0  0  0  0  0  0  0  0  0  0  0  0
   27.7157  -21.5733  -15.8412 C   0  0  0  0  0  0  0  0  0  0  0  0
   27.1080  -22.6379  -15.5611 O   0  0  0  0  0  0  0  0  0  0  0  0
   27.8782  -20.6050  -14.8304 N   0  0  0  0  0  0  0  0  0  0  0  0
   27.3592  -20.8533  -13.5053 C   0  0  1  0  0  0  0  0  0  0  0  0
   28.1317  -20.0161  -12.4882 C   0  0  0  0  0  0  0  0  0  0  0  0
   27.6950  -20.2143  -11.1101 C   0  0  0  0  0  0  0  0  0  0  0  0
   28.2789  -21.1689  -10.3056 C   0  0  0  0  0  0  0  0  0  0  0  0
   27.8444  -21.3459   -8.9854 C   0  0  0  0  0  0  0  0  0  0  0  0
   26.8303  -20.5674   -8.4808 C   0  0  0  0  0  0  0  0  0  0  0  0
   26.2495  -19.6193   -9.2777 C   0  0  0  0  0  0  0  0  0  0  0  0
   26.6863  -19.4573  -10.5705 C   0  0  0  0  0  0  0  0  0  0  0  0
   25.9306  -20.5606  -13.4207 C   0  0  0  0  0  0  0  0  0  0  0  0
   25.4907  -19.5004  -13.9848 O   0  0  0  0  0  0  0  0  0  0  0  0
   17.1495  -20.8163  -13.1610 O   0  0  0  0  0  0  0  0  0  0  0  0
   18.5098  -21.1270  -13.1818 C   0  0  0  0  0  0  0  0  0  0  0  0
   19.2417  -20.8258  -14.3192 C   0  0  0  0  0  0  0  0  0  0  0  0
   20.5914  -21.1311  -14.3471 C   0  0  0  0  0  0  0  0  0  0  0  0
   21.2348  -21.7228  -13.2876 C   0  0  0  0  0  0  0  0  0  0  0  0
   22.6816  -22.0165  -13.3956 C   0  0  0  0  0  0  0  0  0  0  0  0
   23.5388  -20.9374  -12.7424 C   0  0  2  0  0  0  0  0  0  0  0  0
   24.9489  -21.3498  -12.7641 N   0  0  0  0  0  0  0  0  0  0  0  0
   23.1466  -20.6867  -11.3610 C   0  0  0  0  0  0  0  0  0  0  0  0
   22.2918  -19.8652  -10.9569 O   0  0  0  0  0  0  0  0  0  0  0  0
   20.5021  -22.0187  -12.1626 C   0  0  0  0  0  0  0  0  0  0  0  0
   19.1451  -21.7189  -12.1174 C   0  0  0  0  0  0  0  0  0  0  0  0
   23.7882  -21.4414  -10.3609 O   0  0  0  0  0  0  0  0  0  0  0  0
  1  2  1  0
  2  3  1  0
  3  5  1  0
  3  4  1  6
  5  6  2  0
  7  5  1  0
  7  8  1  0
  8  9  1  1
  9 10  1  0
 10 15  2  0
 11 12  2  0
 11 10  1  0
 12 13  1  0
 13 14  2  0
 15 14  1  0
 16  8  1  0
 16 17  2  0
 18 19  1  0
 19 29  2  0
 19 20  1  0
 20 21  2  0
 21 22  1  0
 22 23  1  0
 24 23  1  1
 24 26  1  0
 24 25  1  0
 25 16  1  0
 26 30  1  0
 27 26  2  0
 28 22  2  0
 29 28  1  0
M  END
$$$$
