SFY.pdb
     RDKit          3D

 30 31  0  0  1  0  0  0  0  0999 V2000
   26.3871  -20.3022  -16.9373 O   0  0  0  0  0  0  0  0  0  0  0  0
   26.6474  -21.6301  -17.2694 C   0  0  0  0  0  0  0  0  0  0  0  0
   27.5512  -22.2674  -16.2398 C   0  0  2  0  0  0  0  0  0  0  0  0
   27.8697  -23.6263  -16.5423 N   0  0  0  0  0  0  0  0  0  0  0  0
   26.9994  -22.1824  -14.8784 C   0  0  0  0  0  0  0  0  0  0  0  0
   26.0305  -22.9343  -14.6006 O   0  0  0  0  0  0  0  0  0  0  0  0
   27.4881  -21.3173  -13.8792 N   0  0  0  0  0  0  0  0  0  0  0  0
   26.8133  -21.2354  -12.6045 C   0  0  1  0  0  0  0  0  0  0  0  0
   27.7169  -20.5361  -11.5913 C   0  0  0  0  0  0  0  0  0  0  0  0
   27.1322  -20.4264  -10.2589 C   0  0  0  0  0  0  0  0  0  0  0  0
   27.3354  -21.4018   -9.3067 C   0  0  0  0  0  0  0  0  0  0  0  0
   26.7638  -21.2798   -8.0333 C   0  0  0  0  0  0  0  0  0  0  0  0
   25.9942  -20.1842   -7.7227 C   0  0  0  0  0  0  0  0  0  0  0  0
   25.7913  -19.2150   -8.6665 C   0  0  0  0  0  0  0  0  0  0  0  0
   26.3583  -19.3484   -9.9111 C   0  0  0  0  0  0  0  0  0  0  0  0
   25.5367  -20.5337  -12.7129 C   0  0  0  0  0  0  0  0  0  0  0  0
   25.5069  -19.4133  -13.3288 O   0  0  0  0  0  0  0  0  0  0  0  0
   21.3220  -25.8677  -14.8929 O   0  0  0  0  0  0  0  0  0  0  0  0
   21.5992  -24.5241  -14.6374 C   0  0  0  0  0  0  0  0  0  0  0  0
   22.9089  -24.0848  -14.7462 C   0  0  0  0  0  0  0  0  0  0  0  0
   23.1914  -22.7535  -14.4943 C   0  0  0  0  0  0  0  0  0  0  0  0
   22.2207  -21.8488  -14.1398 C   0  0  0  0  0  0  0  0  0  0  0  0
   22.6043  -20.4414  -13.8878 C   0  0  0  0  0  0  0  0  0  0  0  0
   23.0563  -20.2164  -12.4488 C   0  0  2  0  0  0  0  0  0  0  0  0
   24.2891  -20.9750  -12.1966 N   0  0  0  0  0  0  0  0  0  0  0  0
   22.0456  -20.6336  -11.4847 C   0  0  0  0  0  0  0  0  0  0  0  0
   20.8478  -20.2699  -11.4427 O   0  0  0  0  0  0  0  0  0  0  0  0
   20.9237  -22.2920  -14.0339 C   0  0  0  0  0  0  0  0  0  0  0  0
   20.6219  -23.6261  -14.2834 C   0  0  0  0  0  0  0  0  0  0  0  0
   22.4424  -21.5435  -10.4866 O   0  0  0  0  0  0  0  0  0  0  0  0
  1  2  1  0
  2  3  1  0
  3  5  1  0
  3  4  1  6
  5  6  2  0
  7  5  1  0
  7  8  1  0
  8  9  1  1
  9 10  1  0
 10 15  2  0
 11 12  2  0
 11 10  1  0
 12 13  1  0
 13 14  2  0
 15 14  1  0
 16  8  1  0
 16 17  2  0
 18 19  1  0
 19 29  2  0
 19 20  1  0
 20 21  2  0
 21 22  1  0
 22 23  1  0
 24 23  1  6
 24 26  1  0
 24 25  1  0
 25 16  1  0
 26 30  1  0
 27 26  2  0
 28 22  2  0
 29 28  1  0
M  END
$$$$
