SFY.pdb
     RDKit          3D

 30 31  0  0  1  0  0  0  0  0999 V2000
   26.7441  -21.1055  -18.6953 O   0  0  0  0  0  0  0  0  0  0  0  0
   27.9907  -20.7711  -18.1705 C   0  0  0  0  0  0  0  0  0  0  0  0
   28.4507  -21.8203  -17.1853 C   0  0  2  0  0  0  0  0  0  0  0  0
   28.6212  -23.1072  -17.7802 N   0  0  0  0  0  0  0  0  0  0  0  0
   27.5554  -21.9301  -16.0227 C   0  0  0  0  0  0  0  0  0  0  0  0
   26.8657  -22.9768  -15.9225 O   0  0  0  0  0  0  0  0  0  0  0  0
   27.4274  -20.9417  -15.0265 N   0  0  0  0  0  0  0  0  0  0  0  0
   26.5347  -21.1551  -13.9110 C   0  0  1  0  0  0  0  0  0  0  0  0
   26.9021  -20.2054  -12.7728 C   0  0  0  0  0  0  0  0  0  0  0  0
   26.1335  -20.4251  -11.5521 C   0  0  0  0  0  0  0  0  0  0  0  0
   26.6102  -21.2338  -10.5431 C   0  0  0  0  0  0  0  0  0  0  0  0
   25.8566  -21.4344   -9.3791 C   0  0  0  0  0  0  0  0  0  0  0  0
   24.6333  -20.8249   -9.2336 C   0  0  0  0  0  0  0  0  0  0  0  0
   24.1583  -20.0218  -10.2340 C   0  0  0  0  0  0  0  0  0  0  0  0
   24.9087  -19.8346  -11.3699 C   0  0  0  0  0  0  0  0  0  0  0  0
   25.1372  -20.9691  -14.2938 C   0  0  0  0  0  0  0  0  0  0  0  0
   24.8487  -20.0295  -15.1120 O   0  0  0  0  0  0  0  0  0  0  0  0
   16.7651  -21.6119  -16.7644 O   0  0  0  0  0  0  0  0  0  0  0  0
   18.1030  -21.7916  -16.4104 C   0  0  0  0  0  0  0  0  0  0  0  0
   18.4232  -22.8041  -15.5203 C   0  0  0  0  0  0  0  0  0  0  0  0
   19.7481  -22.9884  -15.1646 C   0  0  0  0  0  0  0  0  0  0  0  0
   20.7601  -22.2039  -15.6615 C   0  0  0  0  0  0  0  0  0  0  0  0
   22.1524  -22.4657  -15.2322 C   0  0  0  0  0  0  0  0  0  0  0  0
   22.6621  -21.4109  -14.2558 C   0  0  2  0  0  0  0  0  0  0  0  0
   24.0334  -21.7428  -13.8456 N   0  0  0  0  0  0  0  0  0  0  0  0
   21.8277  -21.3176  -13.0641 C   0  0  0  0  0  0  0  0  0  0  0  0
   20.9246  -20.4793  -12.8396 O   0  0  0  0  0  0  0  0  0  0  0  0
   20.4346  -21.2014  -16.5441 C   0  0  0  0  0  0  0  0  0  0  0  0
   19.1087  -21.0022  -16.9124 C   0  0  0  0  0  0  0  0  0  0  0  0
   22.0479  -22.2647  -12.0463 O   0  0  0  0  0  0  0  0  0  0  0  0
  1  2  1  0
  2  3  1  0
  3  5  1  0
  3  4  1  6
  5  6  2  0
  7  5  1  0
  7  8  1  0
  8  9  1  1
  9 10  1  0
 10 15  2  0
 11 12  2  0
 11 10  1  0
 12 13  1  0
 13 14  2  0
 15 14  1  0
 16  8  1  0
 16 17  2  0
 18 19  1  0
 19 29  2  0
 19 20  1  0
 20 21  2  0
 21 22  1  0
 22 23  1  0
 24 23  1  6
 24 26  1  0
 24 25  1  0
 25 16  1  0
 26 30  1  0
 27 26  2  0
 28 22  2  0
 29 28  1  0
M  END
$$$$
