SFY.pdb
     RDKit          3D

 30 31  0  0  1  0  0  0  0  0999 V2000
   22.6791   -8.8978  -23.0007 O   0  0  0  0  0  0  0  0  0  0  0  0
   22.1527   -9.0480  -21.7195 C   0  0  0  0  0  0  0  0  0  0  0  0
   23.2389   -9.4279  -20.7404 C   0  0  2  0  0  0  0  0  0  0  0  0
   23.8278  -10.6973  -21.0257 N   0  0  0  0  0  0  0  0  0  0  0  0
   22.7711   -9.4047  -19.3454 C   0  0  0  0  0  0  0  0  0  0  0  0
   22.0815  -10.3797  -18.9519 O   0  0  0  0  0  0  0  0  0  0  0  0
   23.0479   -8.3650  -18.4354 N   0  0  0  0  0  0  0  0  0  0  0  0
   22.4706   -8.3942  -17.1115 C   0  0  1  0  0  0  0  0  0  0  0  0
   23.4412   -7.7624  -16.1160 C   0  0  0  0  0  0  0  0  0  0  0  0
   22.9937   -7.8378  -14.7292 C   0  0  0  0  0  0  0  0  0  0  0  0
   23.1202   -9.0001  -13.9996 C   0  0  0  0  0  0  0  0  0  0  0  0
   22.6826   -9.0538  -12.6697 C   0  0  0  0  0  0  0  0  0  0  0  0
   22.1224   -7.9455  -12.0806 C   0  0  0  0  0  0  0  0  0  0  0  0
   21.9959   -6.7909  -12.8032 C   0  0  0  0  0  0  0  0  0  0  0  0
   22.4296   -6.7534  -14.1066 C   0  0  0  0  0  0  0  0  0  0  0  0
   21.1826   -7.7065  -17.0682 C   0  0  0  0  0  0  0  0  0  0  0  0
   21.0882   -6.5533  -17.6131 O   0  0  0  0  0  0  0  0  0  0  0  0
   12.7471   -5.2725  -16.5152 O   0  0  0  0  0  0  0  0  0  0  0  0
   13.9222   -6.0196  -16.4234 C   0  0  0  0  0  0  0  0  0  0  0  0
   14.7345   -6.1182  -17.5417 C   0  0  0  0  0  0  0  0  0  0  0  0
   15.9016   -6.8575  -17.4581 C   0  0  0  0  0  0  0  0  0  0  0  0
   16.2864   -7.4989  -16.3061 C   0  0  0  0  0  0  0  0  0  0  0  0
   17.5503   -8.2694  -16.2977 C   0  0  0  0  0  0  0  0  0  0  0  0
   18.7745   -7.3693  -16.4275 C   0  0  2  0  0  0  0  0  0  0  0  0
   19.9891   -8.1950  -16.4726 N   0  0  0  0  0  0  0  0  0  0  0  0
   18.8873   -6.4329  -15.3159 C   0  0  0  0  0  0  0  0  0  0  0  0
   19.2859   -6.6845  -14.1555 O   0  0  0  0  0  0  0  0  0  0  0  0
   15.4754   -7.3965  -15.2008 C   0  0  0  0  0  0  0  0  0  0  0  0
   14.2992   -6.6578  -15.2670 C   0  0  0  0  0  0  0  0  0  0  0  0
   18.5118   -5.0977  -15.5562 O   0  0  0  0  0  0  0  0  0  0  0  0
  1  2  1  0
  2  3  1  0
  3  5  1  0
  3  4  1  6
  5  6  2  0
  7  5  1  0
  7  8  1  0
  8  9  1  1
  9 10  1  0
 10 15  2  0
 11 12  2  0
 11 10  1  0
 12 13  1  0
 13 14  2  0
 15 14  1  0
 16  8  1  0
 16 17  2  0
 18 19  1  0
 19 29  2  0
 19 20  1  0
 20 21  2  0
 21 22  1  0
 22 23  1  0
 24 23  1  1
 24 26  1  0
 24 25  1  0
 25 16  1  0
 26 30  1  0
 27 26  2  0
 28 22  2  0
 29 28  1  0
M  END
$$$$
