SFY.pdb
     RDKit          3D

 30 31  0  0  1  0  0  0  0  0999 V2000
   19.6249  -23.0934  -13.7714 O   0  0  0  0  0  0  0  0  0  0  0  0
   20.8851  -22.5459  -13.5404 C   0  0  0  0  0  0  0  0  0  0  0  0
   20.7895  -21.3757  -12.5895 C   0  0  2  0  0  0  0  0  0  0  0  0
   19.4424  -20.9890  -12.3149 N   0  0  0  0  0  0  0  0  0  0  0  0
   21.5512  -20.2072  -13.0581 C   0  0  0  0  0  0  0  0  0  0  0  0
   21.3151  -19.1041  -12.5027 O   0  0  0  0  0  0  0  0  0  0  0  0
   22.5190  -20.2523  -14.0813 N   0  0  0  0  0  0  0  0  0  0  0  0
   23.2072  -19.0447  -14.4752 C   0  0  1  0  0  0  0  0  0  0  0  0
   24.6969  -19.3361  -14.6423 C   0  0  0  0  0  0  0  0  0  0  0  0
   25.4590  -18.2143  -15.1808 C   0  0  0  0  0  0  0  0  0  0  0  0
   26.0293  -18.2737  -16.4340 C   0  0  0  0  0  0  0  0  0  0  0  0
   26.7594  -17.1870  -16.9331 C   0  0  0  0  0  0  0  0  0  0  0  0
   26.9133  -16.0507  -16.1754 C   0  0  0  0  0  0  0  0  0  0  0  0
   26.3481  -15.9898  -14.9312 C   0  0  0  0  0  0  0  0  0  0  0  0
   25.6348  -17.0635  -14.4551 C   0  0  0  0  0  0  0  0  0  0  0  0
   22.6590  -18.4883  -15.7096 C   0  0  0  0  0  0  0  0  0  0  0  0
   22.3501  -19.2911  -16.6561 O   0  0  0  0  0  0  0  0  0  0  0  0
   18.9554  -13.4645  -21.9755 O   0  0  0  0  0  0  0  0  0  0  0  0
   19.4921  -13.9352  -20.7764 C   0  0  0  0  0  0  0  0  0  0  0  0
   20.7800  -13.5567  -20.4325 C   0  0  0  0  0  0  0  0  0  0  0  0
   21.3190  -14.0197  -19.2447 C   0  0  0  0  0  0  0  0  0  0  0  0
   20.6243  -14.8421  -18.3916 C   0  0  0  0  0  0  0  0  0  0  0  0
   21.2713  -15.2936  -17.1392 C   0  0  0  0  0  0  0  0  0  0  0  0
   21.8931  -16.6791  -17.2790 C   0  0  2  0  0  0  0  0  0  0  0  0
   22.4221  -17.1139  -15.9790 N   0  0  0  0  0  0  0  0  0  0  0  0
   22.9765  -16.6982  -18.2542 C   0  0  0  0  0  0  0  0  0  0  0  0
   24.0850  -16.1226  -18.1614 O   0  0  0  0  0  0  0  0  0  0  0  0
   19.3472  -15.2133  -18.7397 C   0  0  0  0  0  0  0  0  0  0  0  0
   18.7901  -14.7575  -19.9293 C   0  0  0  0  0  0  0  0  0  0  0  0
   22.7706  -17.4395  -19.4330 O   0  0  0  0  0  0  0  0  0  0  0  0
  1  2  1  0
  2  3  1  0
  3  5  1  0
  3  4  1  6
  5  6  2  0
  7  5  1  0
  7  8  1  0
  8  9  1  6
  9 10  1  0
 10 15  2  0
 11 12  2  0
 11 10  1  0
 12 13  1  0
 13 14  2  0
 15 14  1  0
 16  8  1  0
 16 17  2  0
 18 19  1  0
 19 29  2  0
 19 20  1  0
 20 21  2  0
 21 22  1  0
 22 23  1  0
 24 23  1  1
 24 26  1  0
 24 25  1  0
 25 16  1  0
 26 30  1  0
 27 26  2  0
 28 22  2  0
 29 28  1  0
M  END
$$$$
