SFY.pdb
     RDKit          3D

 30 31  0  0  1  0  0  0  0  0999 V2000
   25.5204  -20.4937  -13.7425 O   0  0  0  0  0  0  0  0  0  0  0  0
   26.4643  -19.5192  -13.4253 C   0  0  0  0  0  0  0  0  0  0  0  0
   27.6023  -20.1201  -12.6336 C   0  0  2  0  0  0  0  0  0  0  0  0
   28.2167  -21.2277  -13.2932 N   0  0  0  0  0  0  0  0  0  0  0  0
   27.1938  -20.5196  -11.2775 C   0  0  0  0  0  0  0  0  0  0  0  0
   27.1900  -21.7493  -11.0150 O   0  0  0  0  0  0  0  0  0  0  0  0
   26.8110  -19.6144  -10.2677 N   0  0  0  0  0  0  0  0  0  0  0  0
   26.5211  -20.0994   -8.9381 C   0  0  1  0  0  0  0  0  0  0  0  0
   26.6614  -18.9566   -7.9348 C   0  0  0  0  0  0  0  0  0  0  0  0
   27.5694  -19.2508   -6.8312 C   0  0  0  0  0  0  0  0  0  0  0  0
   27.2805  -20.2352   -5.9109 C   0  0  0  0  0  0  0  0  0  0  0  0
   28.1639  -20.5018   -4.8566 C   0  0  0  0  0  0  0  0  0  0  0  0
   29.3282  -19.7823   -4.7312 C   0  0  0  0  0  0  0  0  0  0  0  0
   29.6168  -18.8048   -5.6436 C   0  0  0  0  0  0  0  0  0  0  0  0
   28.7407  -18.5547   -6.6723 C   0  0  0  0  0  0  0  0  0  0  0  0
   25.1850  -20.6841   -8.8554 C   0  0  0  0  0  0  0  0  0  0  0  0
   24.2836  -20.2619   -9.6585 O   0  0  0  0  0  0  0  0  0  0  0  0
   22.0647  -19.2933   -2.3111 O   0  0  0  0  0  0  0  0  0  0  0  0
   22.2833  -20.1820   -3.3646 C   0  0  0  0  0  0  0  0  0  0  0  0
   23.5734  -20.3345   -3.8467 C   0  0  0  0  0  0  0  0  0  0  0  0
   23.7979  -21.2142   -4.8914 C   0  0  0  0  0  0  0  0  0  0  0  0
   22.7881  -21.9437   -5.4700 C   0  0  0  0  0  0  0  0  0  0  0  0
   23.1106  -22.8645   -6.5832 C   0  0  0  0  0  0  0  0  0  0  0  0
   23.3609  -22.1215   -7.8913 C   0  0  2  0  0  0  0  0  0  0  0  0
   24.7675  -21.7017   -7.9566 N   0  0  0  0  0  0  0  0  0  0  0  0
   22.5148  -20.9417   -8.0226 C   0  0  0  0  0  0  0  0  0  0  0  0
   22.8634  -19.7456   -7.8941 O   0  0  0  0  0  0  0  0  0  0  0  0
   21.5109  -21.7870   -4.9863 C   0  0  0  0  0  0  0  0  0  0  0  0
   21.2673  -20.9076   -3.9372 C   0  0  0  0  0  0  0  0  0  0  0  0
   21.1566  -21.1522   -8.3267 O   0  0  0  0  0  0  0  0  0  0  0  0
  1  2  1  0
  2  3  1  0
  3  5  1  0
  3  4  1  6
  5  6  2  0
  7  5  1  0
  7  8  1  0
  8  9  1  1
  9 10  1  0
 10 15  2  0
 11 12  2  0
 11 10  1  0
 12 13  1  0
 13 14  2  0
 15 14  1  0
 16  8  1  0
 16 17  2  0
 18 19  1  0
 19 29  2  0
 19 20  1  0
 20 21  2  0
 21 22  1  0
 22 23  1  0
 24 23  1  1
 24 26  1  0
 24 25  1  0
 25 16  1  0
 26 30  1  0
 27 26  2  0
 28 22  2  0
 29 28  1  0
M  END
$$$$
