SFY.pdb
     RDKit          3D

 30 31  0  0  1  0  0  0  0  0999 V2000
   26.3281  -19.1044  -18.3776 O   0  0  0  0  0  0  0  0  0  0  0  0
   27.6497  -19.4464  -18.0990 C   0  0  0  0  0  0  0  0  0  0  0  0
   27.7387  -20.8778  -17.6234 C   0  0  2  0  0  0  0  0  0  0  0  0
   27.2755  -21.8176  -18.5938 N   0  0  0  0  0  0  0  0  0  0  0  0
   27.0293  -21.0927  -16.3523 C   0  0  0  0  0  0  0  0  0  0  0  0
   25.9807  -21.7858  -16.3868 O   0  0  0  0  0  0  0  0  0  0  0  0
   27.4520  -20.5727  -15.1127 N   0  0  0  0  0  0  0  0  0  0  0  0
   26.6412  -20.7724  -13.9339 C   0  0  1  0  0  0  0  0  0  0  0  0
   27.3935  -20.2686  -12.7041 C   0  0  0  0  0  0  0  0  0  0  0  0
   26.6334  -20.3788  -11.4634 C   0  0  0  0  0  0  0  0  0  0  0  0
   26.1858  -19.2583  -10.7975 C   0  0  0  0  0  0  0  0  0  0  0  0
   25.4592  -19.3842   -9.6062 C   0  0  0  0  0  0  0  0  0  0  0  0
   25.1863  -20.6288   -9.0908 C   0  0  0  0  0  0  0  0  0  0  0  0
   25.6298  -21.7422   -9.7503 C   0  0  0  0  0  0  0  0  0  0  0  0
   26.3413  -21.6030  -10.9177 C   0  0  0  0  0  0  0  0  0  0  0  0
   25.3488  -20.1009  -14.0466 C   0  0  0  0  0  0  0  0  0  0  0  0
   25.3153  -18.9212  -14.5393 O   0  0  0  0  0  0  0  0  0  0  0  0
   17.9093  -16.5359  -16.1598 O   0  0  0  0  0  0  0  0  0  0  0  0
   19.0467  -17.3175  -15.9521 C   0  0  0  0  0  0  0  0  0  0  0  0
   20.2568  -16.6809  -15.7271 C   0  0  0  0  0  0  0  0  0  0  0  0
   21.3891  -17.4496  -15.5203 C   0  0  0  0  0  0  0  0  0  0  0  0
   21.3590  -18.8228  -15.5294 C   0  0  0  0  0  0  0  0  0  0  0  0
   22.6141  -19.5729  -15.2989 C   0  0  0  0  0  0  0  0  0  0  0  0
   22.8575  -19.8475  -13.8187 C   0  0  2  0  0  0  0  0  0  0  0  0
   24.0895  -20.6326  -13.6606 N   0  0  0  0  0  0  0  0  0  0  0  0
   21.7551  -20.5803  -13.2082 C   0  0  0  0  0  0  0  0  0  0  0  0
   21.6005  -21.8228  -13.1780 O   0  0  0  0  0  0  0  0  0  0  0  0
   20.1549  -19.4471  -15.7533 C   0  0  0  0  0  0  0  0  0  0  0  0
   19.0073  -18.6904  -15.9630 C   0  0  0  0  0  0  0  0  0  0  0  0
   20.7470  -19.8245  -12.5804 O   0  0  0  0  0  0  0  0  0  0  0  0
  1  2  1  0
  2  3  1  0
  3  5  1  0
  3  4  1  6
  5  6  2  0
  7  5  1  0
  7  8  1  0
  8  9  1  1
  9 10  1  0
 10 15  2  0
 11 12  2  0
 11 10  1  0
 12 13  1  0
 13 14  2  0
 15 14  1  0
 16  8  1  0
 16 17  2  0
 18 19  1  0
 19 29  2  0
 19 20  1  0
 20 21  2  0
 21 22  1  0
 22 23  1  0
 24 23  1  6
 24 26  1  0
 24 25  1  0
 25 16  1  0
 26 30  1  0
 27 26  2  0
 28 22  2  0
 29 28  1  0
M  END
$$$$
