SFY.pdb
     RDKit          3D

 30 31  0  0  1  0  0  0  0  0999 V2000
   21.1902  -11.1994  -21.7036 O   0  0  0  0  0  0  0  0  0  0  0  0
   20.2678  -11.2551  -20.6608 C   0  0  0  0  0  0  0  0  0  0  0  0
   20.9103  -11.8146  -19.4130 C   0  0  2  0  0  0  0  0  0  0  0  0
   20.4747  -13.1399  -19.1077 N   0  0  0  0  0  0  0  0  0  0  0  0
   20.7095  -10.9481  -18.2408 C   0  0  0  0  0  0  0  0  0  0  0  0
   19.6143  -11.0474  -17.6309 O   0  0  0  0  0  0  0  0  0  0  0  0
   21.6622  -10.0240  -17.7675 N   0  0  0  0  0  0  0  0  0  0  0  0
   21.3556   -9.1953  -16.6246 C   0  0  1  0  0  0  0  0  0  0  0  0
   22.6229   -8.9672  -15.8034 C   0  0  0  0  0  0  0  0  0  0  0  0
   22.4077   -8.1743  -14.5975 C   0  0  0  0  0  0  0  0  0  0  0  0
   22.5407   -6.8026  -14.6109 C   0  0  0  0  0  0  0  0  0  0  0  0
   22.3321   -6.0584  -13.4422 C   0  0  0  0  0  0  0  0  0  0  0  0
   21.9924   -6.6916  -12.2706 C   0  0  0  0  0  0  0  0  0  0  0  0
   21.8600   -8.0530  -12.2552 C   0  0  0  0  0  0  0  0  0  0  0  0
   22.0677   -8.7695  -13.4093 C   0  0  0  0  0  0  0  0  0  0  0  0
   20.7751   -7.9160  -17.0248 C   0  0  0  0  0  0  0  0  0  0  0  0
   21.3374   -7.2590  -17.9670 O   0  0  0  0  0  0  0  0  0  0  0  0
   15.7826   -1.0626  -19.2098 O   0  0  0  0  0  0  0  0  0  0  0  0
   16.3301   -2.3030  -18.8796 C   0  0  0  0  0  0  0  0  0  0  0  0
   15.8902   -2.9369  -17.7286 C   0  0  0  0  0  0  0  0  0  0  0  0
   16.4287   -4.1674  -17.3947 C   0  0  0  0  0  0  0  0  0  0  0  0
   17.3848   -4.7859  -18.1627 C   0  0  0  0  0  0  0  0  0  0  0  0
   17.9101   -6.1029  -17.7374 C   0  0  0  0  0  0  0  0  0  0  0  0
   19.1816   -5.9745  -16.9052 C   0  0  2  0  0  0  0  0  0  0  0  0
   19.6191   -7.3071  -16.4673 N   0  0  0  0  0  0  0  0  0  0  0  0
   18.9846   -5.1373  -15.7282 C   0  0  0  0  0  0  0  0  0  0  0  0
   18.5522   -5.4986  -14.6096 O   0  0  0  0  0  0  0  0  0  0  0  0
   17.8162   -4.1510  -19.3031 C   0  0  0  0  0  0  0  0  0  0  0  0
   17.2861   -2.9143  -19.6537 C   0  0  0  0  0  0  0  0  0  0  0  0
   19.3111   -3.7730  -15.8446 O   0  0  0  0  0  0  0  0  0  0  0  0
  1  2  1  0
  2  3  1  0
  3  5  1  0
  3  4  1  1
  5  6  2  0
  7  5  1  0
  7  8  1  0
  8  9  1  6
  9 10  1  0
 10 15  2  0
 11 12  2  0
 11 10  1  0
 12 13  1  0
 13 14  2  0
 15 14  1  0
 16  8  1  0
 16 17  2  0
 18 19  1  0
 19 29  2  0
 19 20  1  0
 20 21  2  0
 21 22  1  0
 22 23  1  0
 24 23  1  1
 24 26  1  0
 24 25  1  0
 25 16  1  0
 26 30  1  0
 27 26  2  0
 28 22  2  0
 29 28  1  0
M  END
$$$$
