SFY.pdb
     RDKit          3D

 30 31  0  0  1  0  0  0  0  0999 V2000
   23.7940   -8.1182  -22.7865 O   0  0  0  0  0  0  0  0  0  0  0  0
   22.6010   -7.9818  -22.0798 C   0  0  0  0  0  0  0  0  0  0  0  0
   22.4548   -9.0920  -21.0655 C   0  0  2  0  0  0  0  0  0  0  0  0
   21.7335  -10.2166  -21.5699 N   0  0  0  0  0  0  0  0  0  0  0  0
   21.8347   -8.6309  -19.8132 C   0  0  0  0  0  0  0  0  0  0  0  0
   20.5795   -8.6625  -19.7452 O   0  0  0  0  0  0  0  0  0  0  0  0
   22.5577   -8.1613  -18.6985 N   0  0  0  0  0  0  0  0  0  0  0  0
   21.8522   -7.6895  -17.5295 C   0  0  1  0  0  0  0  0  0  0  0  0
   22.5218   -8.2387  -16.2716 C   0  0  0  0  0  0  0  0  0  0  0  0
   21.8840   -7.8106  -15.0310 C   0  0  0  0  0  0  0  0  0  0  0  0
   22.2436   -6.6330  -14.4119 C   0  0  0  0  0  0  0  0  0  0  0  0
   21.6212   -6.2397  -13.2198 C   0  0  0  0  0  0  0  0  0  0  0  0
   20.6450   -7.0267  -12.6570 C   0  0  0  0  0  0  0  0  0  0  0  0
   20.2867   -8.1959  -13.2700 C   0  0  0  0  0  0  0  0  0  0  0  0
   20.9060   -8.5686  -14.4387 C   0  0  0  0  0  0  0  0  0  0  0  0
   21.8027   -6.2304  -17.4803 C   0  0  0  0  0  0  0  0  0  0  0  0
   22.8631   -5.5742  -17.7642 O   0  0  0  0  0  0  0  0  0  0  0  0
   14.9211   -4.0130  -19.7156 O   0  0  0  0  0  0  0  0  0  0  0  0
   16.2599   -3.8315  -19.3661 C   0  0  0  0  0  0  0  0  0  0  0  0
   17.2347   -4.4552  -20.1283 C   0  0  0  0  0  0  0  0  0  0  0  0
   18.5647   -4.2797  -19.7877 C   0  0  0  0  0  0  0  0  0  0  0  0
   18.9562   -3.5090  -18.7203 C   0  0  0  0  0  0  0  0  0  0  0  0
   20.3995   -3.3705  -18.4220 C   0  0  0  0  0  0  0  0  0  0  0  0
   20.7691   -3.9749  -17.0715 C   0  0  2  0  0  0  0  0  0  0  0  0
   20.6716   -5.4391  -17.1452 N   0  0  0  0  0  0  0  0  0  0  0  0
   19.8986   -3.5020  -16.0021 C   0  0  0  0  0  0  0  0  0  0  0  0
   19.8238   -2.3361  -15.5506 O   0  0  0  0  0  0  0  0  0  0  0  0
   17.9834   -2.8935  -17.9689 C   0  0  0  0  0  0  0  0  0  0  0  0
   16.6424   -3.0589  -18.2968 C   0  0  0  0  0  0  0  0  0  0  0  0
   19.0434   -4.4450  -15.4016 O   0  0  0  0  0  0  0  0  0  0  0  0
  1  2  1  0
  2  3  1  0
  3  5  1  0
  3  4  1  6
  5  6  2  0
  7  5  1  0
  7  8  1  0
  8  9  1  1
  9 10  1  0
 10 15  2  0
 11 12  2  0
 11 10  1  0
 12 13  1  0
 13 14  2  0
 15 14  1  0
 16  8  1  0
 16 17  2  0
 18 19  1  0
 19 29  2  0
 19 20  1  0
 20 21  2  0
 21 22  1  0
 22 23  1  0
 24 23  1  6
 24 26  1  0
 24 25  1  0
 25 16  1  0
 26 30  1  0
 27 26  2  0
 28 22  2  0
 29 28  1  0
M  END
$$$$
