SFY.pdb
     RDKit          3D

 30 31  0  0  1  0  0  0  0  0999 V2000
   27.5433  -19.9093  -18.1230 O   0  0  0  0  0  0  0  0  0  0  0  0
   26.8725  -20.5517  -17.0844 C   0  0  0  0  0  0  0  0  0  0  0  0
   27.8202  -21.4342  -16.3059 C   0  0  2  0  0  0  0  0  0  0  0  0
   27.9817  -22.7284  -16.8875 N   0  0  0  0  0  0  0  0  0  0  0  0
   27.4265  -21.5742  -14.8950 C   0  0  0  0  0  0  0  0  0  0  0  0
   26.6110  -22.4885  -14.6116 O   0  0  0  0  0  0  0  0  0  0  0  0
   27.9048  -20.7526  -13.8549 N   0  0  0  0  0  0  0  0  0  0  0  0
   27.3671  -20.8926  -12.5215 C   0  0  1  0  0  0  0  0  0  0  0  0
   28.2469  -20.1312  -11.5324 C   0  0  0  0  0  0  0  0  0  0  0  0
   27.7460  -20.1523  -10.1621 C   0  0  0  0  0  0  0  0  0  0  0  0
   26.7312  -19.3114   -9.7590 C   0  0  0  0  0  0  0  0  0  0  0  0
   26.2650  -19.3448   -8.4382 C   0  0  0  0  0  0  0  0  0  0  0  0
   26.8169  -20.2183   -7.5318 C   0  0  0  0  0  0  0  0  0  0  0  0
   27.8242  -21.0538   -7.9300 C   0  0  0  0  0  0  0  0  0  0  0  0
   28.2711  -21.0096   -9.2287 C   0  0  0  0  0  0  0  0  0  0  0  0
   25.9881  -20.4170  -12.4420 C   0  0  0  0  0  0  0  0  0  0  0  0
   25.6952  -19.3006  -12.9930 O   0  0  0  0  0  0  0  0  0  0  0  0
   17.4063  -19.5238  -13.3940 O   0  0  0  0  0  0  0  0  0  0  0  0
   18.7494  -19.8987  -13.3395 C   0  0  0  0  0  0  0  0  0  0  0  0
   19.0991  -21.0042  -12.5808 C   0  0  0  0  0  0  0  0  0  0  0  0
   20.4294  -21.3820  -12.5220 C   0  0  0  0  0  0  0  0  0  0  0  0
   21.4186  -20.7011  -13.1886 C   0  0  0  0  0  0  0  0  0  0  0  0
   22.8182  -21.1696  -13.0754 C   0  0  0  0  0  0  0  0  0  0  0  0
   23.5396  -20.5468  -11.8847 C   0  0  2  0  0  0  0  0  0  0  0  0
   24.9062  -21.0805  -11.8040 N   0  0  0  0  0  0  0  0  0  0  0  0
   22.8567  -20.8191  -10.6260 C   0  0  0  0  0  0  0  0  0  0  0  0
   23.1222  -21.7270   -9.8050 O   0  0  0  0  0  0  0  0  0  0  0  0
   21.0640  -19.6054  -13.9391 C   0  0  0  0  0  0  0  0  0  0  0  0
   19.7323  -19.2118  -14.0094 C   0  0  0  0  0  0  0  0  0  0  0  0
   21.7803  -19.9801  -10.2810 O   0  0  0  0  0  0  0  0  0  0  0  0
  1  2  1  0
  2  3  1  0
  3  5  1  0
  3  4  1  6
  5  6  2  0
  7  5  1  0
  7  8  1  0
  8  9  1  1
  9 10  1  0
 10 15  2  0
 11 12  2  0
 11 10  1  0
 12 13  1  0
 13 14  2  0
 15 14  1  0
 16  8  1  0
 16 17  2  0
 18 19  1  0
 19 29  2  0
 19 20  1  0
 20 21  2  0
 21 22  1  0
 22 23  1  0
 24 23  1  6
 24 26  1  0
 24 25  1  0
 25 16  1  0
 26 30  1  0
 27 26  2  0
 28 22  2  0
 29 28  1  0
M  END
$$$$
