SFY.pdb
     RDKit          3D

 30 31  0  0  1  0  0  0  0  0999 V2000
   22.2257  -12.1621  -19.9172 O   0  0  0  0  0  0  0  0  0  0  0  0
   23.6082  -12.0507  -20.0499 C   0  0  0  0  0  0  0  0  0  0  0  0
   24.3071  -12.6664  -18.8602 C   0  0  2  0  0  0  0  0  0  0  0  0
   24.0246  -14.0577  -18.7061 N   0  0  0  0  0  0  0  0  0  0  0  0
   24.0058  -11.9608  -17.6046 C   0  0  0  0  0  0  0  0  0  0  0  0
   23.0609  -12.4065  -16.9048 O   0  0  0  0  0  0  0  0  0  0  0  0
   24.7067  -10.8276  -17.1460 N   0  0  0  0  0  0  0  0  0  0  0  0
   24.3102  -10.1855  -15.9142 C   0  0  1  0  0  0  0  0  0  0  0  0
   25.5134  -10.0859  -14.9789 C   0  0  0  0  0  0  0  0  0  0  0  0
   26.3881  -11.2531  -15.0192 C   0  0  0  0  0  0  0  0  0  0  0  0
   27.5104  -11.2780  -15.8187 C   0  0  0  0  0  0  0  0  0  0  0  0
   28.3371  -12.4089  -15.8457 C   0  0  0  0  0  0  0  0  0  0  0  0
   28.0349  -13.5050  -15.0734 C   0  0  0  0  0  0  0  0  0  0  0  0
   26.9214  -13.4823  -14.2792 C   0  0  0  0  0  0  0  0  0  0  0  0
   26.1201  -12.3660  -14.2633 C   0  0  0  0  0  0  0  0  0  0  0  0
   23.7443   -8.8602  -16.1533 C   0  0  0  0  0  0  0  0  0  0  0  0
   24.2321   -8.1500  -17.0984 O   0  0  0  0  0  0  0  0  0  0  0  0
   19.0494   -2.5978  -19.4445 O   0  0  0  0  0  0  0  0  0  0  0  0
   19.6292   -3.7473  -18.9058 C   0  0  0  0  0  0  0  0  0  0  0  0
   20.9409   -4.0464  -19.2377 C   0  0  0  0  0  0  0  0  0  0  0  0
   21.5226   -5.1848  -18.7072 C   0  0  0  0  0  0  0  0  0  0  0  0
   20.8476   -6.0315  -17.8622 C   0  0  0  0  0  0  0  0  0  0  0  0
   21.5410   -7.2289  -17.3363 C   0  0  0  0  0  0  0  0  0  0  0  0
   22.0435   -7.0240  -15.9110 C   0  0  2  0  0  0  0  0  0  0  0  0
   22.6786   -8.2592  -15.4315 N   0  0  0  0  0  0  0  0  0  0  0  0
   20.9666   -6.6667  -14.9958 C   0  0  0  0  0  0  0  0  0  0  0  0
   20.1742   -7.4486  -14.4217 O   0  0  0  0  0  0  0  0  0  0  0  0
   19.5467   -5.7281  -17.5375 C   0  0  0  0  0  0  0  0  0  0  0  0
   18.9466   -4.5885  -18.0614 C   0  0  0  0  0  0  0  0  0  0  0  0
   20.7843   -5.2992  -14.7162 O   0  0  0  0  0  0  0  0  0  0  0  0
  1  2  1  0
  2  3  1  0
  3  5  1  0
  3  4  1  1
  5  6  2  0
  7  5  1  0
  7  8  1  0
  8  9  1  1
  9 10  1  0
 10 15  2  0
 11 12  2  0
 11 10  1  0
 12 13  1  0
 13 14  2  0
 15 14  1  0
 16  8  1  0
 16 17  2  0
 18 19  1  0
 19 29  2  0
 19 20  1  0
 20 21  2  0
 21 22  1  0
 22 23  1  0
 24 23  1  6
 24 26  1  0
 24 25  1  0
 25 16  1  0
 26 30  1  0
 27 26  2  0
 28 22  2  0
 29 28  1  0
M  END
$$$$
