SFY.pdb
     RDKit          3D

 30 31  0  0  1  0  0  0  0  0999 V2000
   21.4350   -9.3030  -21.6633 O   0  0  0  0  0  0  0  0  0  0  0  0
   22.5285   -8.6369  -21.1139 C   0  0  0  0  0  0  0  0  0  0  0  0
   22.9041   -9.2420  -19.7814 C   0  0  2  0  0  0  0  0  0  0  0  0
   22.5205  -10.6125  -19.6633 N   0  0  0  0  0  0  0  0  0  0  0  0
   22.3623   -8.4795  -18.6455 C   0  0  0  0  0  0  0  0  0  0  0  0
   21.3488   -8.9480  -18.0671 O   0  0  0  0  0  0  0  0  0  0  0  0
   22.9071   -7.2687  -18.1735 N   0  0  0  0  0  0  0  0  0  0  0  0
   22.3155   -6.6093  -17.0324 C   0  0  1  0  0  0  0  0  0  0  0  0
   23.3435   -6.5136  -15.9071 C   0  0  0  0  0  0  0  0  0  0  0  0
   23.6405   -7.7930  -15.2712 C   0  0  0  0  0  0  0  0  0  0  0  0
   24.7688   -8.5113  -15.6033 C   0  0  0  0  0  0  0  0  0  0  0  0
   25.0358   -9.7391  -14.9833 C   0  0  0  0  0  0  0  0  0  0  0  0
   24.1731  -10.2380  -14.0369 C   0  0  0  0  0  0  0  0  0  0  0  0
   23.0526   -9.5265  -13.7059 C   0  0  0  0  0  0  0  0  0  0  0  0
   22.8039   -8.3239  -14.3225 C   0  0  0  0  0  0  0  0  0  0  0  0
   21.8157   -5.2802  -17.3753 C   0  0  0  0  0  0  0  0  0  0  0  0
   22.6286   -4.4363  -17.8877 O   0  0  0  0  0  0  0  0  0  0  0  0
   14.0508   -5.4623  -16.9697 O   0  0  0  0  0  0  0  0  0  0  0  0
   15.3007   -5.0377  -17.4224 C   0  0  0  0  0  0  0  0  0  0  0  0
   15.5704   -3.6788  -17.4474 C   0  0  0  0  0  0  0  0  0  0  0  0
   16.8080   -3.2502  -17.8952 C   0  0  0  0  0  0  0  0  0  0  0  0
   17.7814   -4.1227  -18.3168 C   0  0  0  0  0  0  0  0  0  0  0  0
   19.0801   -3.5846  -18.7807 C   0  0  0  0  0  0  0  0  0  0  0  0
   20.0934   -3.4683  -17.6469 C   0  0  2  0  0  0  0  0  0  0  0  0
   20.4863   -4.8116  -17.1993 N   0  0  0  0  0  0  0  0  0  0  0  0
   19.5591   -2.7337  -16.5069 C   0  0  0  0  0  0  0  0  0  0  0  0
   19.1336   -3.2152  -15.4318 O   0  0  0  0  0  0  0  0  0  0  0  0
   17.5064   -5.4693  -18.2892 C   0  0  0  0  0  0  0  0  0  0  0  0
   16.2683   -5.9175  -17.8423 C   0  0  0  0  0  0  0  0  0  0  0  0
   19.5094   -1.3306  -16.6091 O   0  0  0  0  0  0  0  0  0  0  0  0
  1  2  1  0
  2  3  1  0
  3  5  1  0
  3  4  1  6
  5  6  2  0
  7  5  1  0
  7  8  1  0
  8  9  1  1
  9 10  1  0
 10 15  2  0
 11 12  2  0
 11 10  1  0
 12 13  1  0
 13 14  2  0
 15 14  1  0
 16  8  1  0
 16 17  2  0
 18 19  1  0
 19 29  2  0
 19 20  1  0
 20 21  2  0
 21 22  1  0
 22 23  1  0
 24 23  1  6
 24 26  1  0
 24 25  1  0
 25 16  1  0
 26 30  1  0
 27 26  2  0
 28 22  2  0
 29 28  1  0
M  END
$$$$
