SFY.pdb
     RDKit          3D

 30 31  0  0  1  0  0  0  0  0999 V2000
    8.5525  -14.0834    5.9777 O   0  0  0  0  0  0  0  0  0  0  0  0
    9.6903  -14.7839    5.5826 C   0  0  0  0  0  0  0  0  0  0  0  0
   10.3668  -14.0878    4.4248 C   0  0  2  0  0  0  0  0  0  0  0  0
    9.8695  -14.5082    3.1538 N   0  0  0  0  0  0  0  0  0  0  0  0
   11.8302  -14.2396    4.4555 C   0  0  0  0  0  0  0  0  0  0  0  0
   12.3283  -15.1686    3.7699 O   0  0  0  0  0  0  0  0  0  0  0  0
   12.6957  -13.4137    5.2001 N   0  0  0  0  0  0  0  0  0  0  0  0
   14.1263  -13.5643    5.0668 C   0  0  1  0  0  0  0  0  0  0  0  0
   14.8001  -12.2018    5.2143 C   0  0  0  0  0  0  0  0  0  0  0  0
   16.2533  -12.2477    5.0913 C   0  0  0  0  0  0  0  0  0  0  0  0
   16.8594  -12.5922    3.9024 C   0  0  0  0  0  0  0  0  0  0  0  0
   18.2565  -12.6328    3.8043 C   0  0  0  0  0  0  0  0  0  0  0  0
   19.0355  -12.3289    4.8951 C   0  0  0  0  0  0  0  0  0  0  0  0
   18.4358  -11.9868    6.0760 C   0  0  0  0  0  0  0  0  0  0  0  0
   17.0645  -11.9513    6.1571 C   0  0  0  0  0  0  0  0  0  0  0  0
   14.6646  -14.5037    6.0475 C   0  0  0  0  0  0  0  0  0  0  0  0
   14.2381  -14.4397    7.2515 O   0  0  0  0  0  0  0  0  0  0  0  0
   16.3711  -20.8509    2.2953 O   0  0  0  0  0  0  0  0  0  0  0  0
   16.0806  -20.0501    3.4007 C   0  0  0  0  0  0  0  0  0  0  0  0
   16.7384  -20.3028    4.5938 C   0  0  0  0  0  0  0  0  0  0  0  0
   16.4554  -19.5127    5.6945 C   0  0  0  0  0  0  0  0  0  0  0  0
   15.5453  -18.4850    5.6491 C   0  0  0  0  0  0  0  0  0  0  0  0
   15.2994  -17.6853    6.8702 C   0  0  0  0  0  0  0  0  0  0  0  0
   16.1035  -16.3895    6.8817 C   0  0  2  0  0  0  0  0  0  0  0  0
   15.6354  -15.5110    5.8010 N   0  0  0  0  0  0  0  0  0  0  0  0
   17.5307  -16.6280    6.7047 C   0  0  0  0  0  0  0  0  0  0  0  0
   18.2294  -16.3196    5.7120 O   0  0  0  0  0  0  0  0  0  0  0  0
   14.8968  -18.2404    4.4619 C   0  0  0  0  0  0  0  0  0  0  0  0
   15.1688  -19.0243    3.3462 C   0  0  0  0  0  0  0  0  0  0  0  0
   18.2122  -17.2734    7.7537 O   0  0  0  0  0  0  0  0  0  0  0  0
  1  2  1  0
  2  3  1  0
  3  5  1  0
  3  4  1  6
  5  6  2  0
  7  5  1  0
  7  8  1  0
  8  9  1  1
  9 10  1  0
 10 15  2  0
 11 12  2  0
 11 10  1  0
 12 13  1  0
 13 14  2  0
 15 14  1  0
 16  8  1  0
 16 17  2  0
 18 19  1  0
 19 29  2  0
 19 20  1  0
 20 21  2  0
 21 22  1  0
 22 23  1  0
 24 23  1  6
 24 26  1  0
 24 25  1  0
 25 16  1  0
 26 30  1  0
 27 26  2  0
 28 22  2  0
 29 28  1  0
M  END
$$$$
