DCK.pdb
     RDKit          3D

 24 23  0  0  1  0  0  0  0  0999 V2000
   18.2041  -12.7552  -15.5274 N   0  0  0  0  0  0  0  0  0  0  0  0
   17.4246  -11.5594  -15.3284 C   0  0  1  0  0  0  0  0  0  0  0  0
   15.9717  -12.0248  -15.1537 C   0  0  0  0  0  0  0  0  0  0  0  0
   15.5502  -12.5428  -16.4713 C   0  0  0  0  0  0  0  0  0  0  0  0
   15.8102  -11.9023  -17.5093 O   0  0  0  0  0  0  0  0  0  0  0  0
   17.7881  -10.8352  -14.0949 C   0  0  0  0  0  0  0  0  0  0  0  0
   17.8447  -11.4675  -13.0063 O   0  0  0  0  0  0  0  0  0  0  0  0
   14.8644  -13.7498  -16.5179 O   0  0  0  0  0  0  0  0  0  0  0  0
   18.0675   -9.4499  -14.1415 N   0  0  0  0  0  0  0  0  0  0  0  0
   18.5928   -8.7528  -12.9842 C   0  0  1  0  0  0  0  0  0  0  0  0
   19.6721   -7.7740  -13.4706 C   0  0  0  0  0  0  0  0  0  0  0  0
   20.2300   -6.7166  -12.1103 S   0  0  0  0  0  0  0  0  0  0  0  0
   17.5104   -7.9233  -12.4156 C   0  0  0  0  0  0  0  0  0  0  0  0
   16.8507   -7.1702  -13.2042 O   0  0  0  0  0  0  0  0  0  0  0  0
   17.2079   -7.9569  -11.0417 N   0  0  0  0  0  0  0  0  0  0  0  0
   16.0973   -7.0652  -10.5689 C   0  0  1  0  0  0  0  0  0  0  0  0
   15.4427   -7.7555   -9.4356 C   0  0  0  0  0  0  0  0  0  0  0  0
   14.2947   -7.1599   -8.7563 C   0  0  0  0  0  0  0  0  0  0  0  0
   13.6570   -7.7827   -7.5866 C   0  0  0  0  0  0  0  0  0  0  0  0
   12.4864   -6.8479   -7.1862 C   0  0  0  0  0  0  0  0  0  0  0  0
   11.6845   -7.4739   -6.1768 N   0  0  0  0  0  0  0  0  0  0  0  0
   16.8207   -5.8092  -10.2554 C   0  0  0  0  0  0  0  0  0  0  0  0
   16.1397   -4.7111  -10.3019 O   0  0  0  0  0  0  0  0  0  0  0  0
   18.1251   -5.6222   -9.9120 O   0  0  0  0  0  0  0  0  0  0  0  0
  2  1  1  1
  2  3  1  0
  3  4  1  0
  4  5  2  0
  4  8  1  0
  6  2  1  0
  6  9  1  0
  7  6  2  0
 10  9  1  0
 10 13  1  0
 10 11  1  6
 12 11  1  0
 13 15  1  0
 14 13  2  0
 15 16  1  0
 16 17  1  1
 16 22  1  0
 17 18  1  0
 19 18  1  0
 20 21  1  0
 20 19  1  0
 22 24  1  0
 23 22  2  0
M  END
$$$$
