DCK.pdb
     RDKit          3D

 24 23  0  0  1  0  0  0  0  0999 V2000
   27.1834  -19.8895  -14.4756 N   0  0  0  0  0  0  0  0  0  0  0  0
   26.5116  -21.0867  -14.9146 C   0  0  1  0  0  0  0  0  0  0  0  0
   27.5901  -22.1777  -14.9809 C   0  0  0  0  0  0  0  0  0  0  0  0
   28.2852  -21.9834  -16.2698 C   0  0  0  0  0  0  0  0  0  0  0  0
   28.7836  -20.8759  -16.5527 O   0  0  0  0  0  0  0  0  0  0  0  0
   25.4920  -21.5574  -13.9569 C   0  0  0  0  0  0  0  0  0  0  0  0
   24.7852  -22.5572  -14.2553 O   0  0  0  0  0  0  0  0  0  0  0  0
   28.3655  -23.0587  -17.1456 O   0  0  0  0  0  0  0  0  0  0  0  0
   25.3158  -20.8902  -12.7229 N   0  0  0  0  0  0  0  0  0  0  0  0
   24.2742  -21.2901  -11.7976 C   0  0  1  0  0  0  0  0  0  0  0  0
   24.6403  -20.7461  -10.4084 C   0  0  0  0  0  0  0  0  0  0  0  0
   26.2663  -21.3567   -9.8956 S   0  0  0  0  0  0  0  0  0  0  0  0
   23.0231  -20.6091  -12.1901 C   0  0  0  0  0  0  0  0  0  0  0  0
   23.0479  -19.3441  -12.3432 O   0  0  0  0  0  0  0  0  0  0  0  0
   21.8309  -21.3288  -12.3923 N   0  0  0  0  0  0  0  0  0  0  0  0
   20.6584  -20.5630  -12.9318 C   0  0  1  0  0  0  0  0  0  0  0  0
   20.4407  -21.0285  -14.3192 C   0  0  0  0  0  0  0  0  0  0  0  0
   19.8892  -20.1331  -15.3333 C   0  0  0  0  0  0  0  0  0  0  0  0
   20.6702  -19.6724  -16.4911 C   0  0  0  0  0  0  0  0  0  0  0  0
   19.7150  -18.7826  -17.3279 C   0  0  0  0  0  0  0  0  0  0  0  0
   20.4255  -18.2054  -18.4306 N   0  0  0  0  0  0  0  0  0  0  0  0
   19.5979  -20.8860  -11.9469 C   0  0  0  0  0  0  0  0  0  0  0  0
   19.6932  -22.0184  -11.3303 O   0  0  0  0  0  0  0  0  0  0  0  0
   18.5098  -20.1572  -11.5738 O   0  0  0  0  0  0  0  0  0  0  0  0
  2  1  1  1
  2  3  1  0
  3  4  1  0
  4  5  2  0
  4  8  1  0
  6  2  1  0
  6  9  1  0
  7  6  2  0
 10  9  1  0
 10 13  1  0
 10 11  1  1
 12 11  1  0
 13 15  1  0
 14 13  2  0
 15 16  1  0
 16 17  1  6
 16 22  1  0
 17 18  1  0
 19 18  1  0
 20 21  1  0
 20 19  1  0
 22 24  1  0
 23 22  2  0
M  END
$$$$
