DCK.pdb
     RDKit          3D

 24 23  0  0  1  0  0  0  0  0999 V2000
   21.0532   -9.8999  -16.5017 N   0  0  0  0  0  0  0  0  0  0  0  0
   20.0041   -9.1871  -15.8173 C   0  0  1  0  0  0  0  0  0  0  0  0
   18.7468  -10.0596  -15.9435 C   0  0  0  0  0  0  0  0  0  0  0  0
   18.2331   -9.8360  -17.3103 C   0  0  0  0  0  0  0  0  0  0  0  0
   17.0358   -9.5365  -17.4889 O   0  0  0  0  0  0  0  0  0  0  0  0
   20.2651   -9.0273  -14.3735 C   0  0  0  0  0  0  0  0  0  0  0  0
   21.3435   -9.4677  -13.8927 O   0  0  0  0  0  0  0  0  0  0  0  0
   19.1134   -9.9679  -18.3766 O   0  0  0  0  0  0  0  0  0  0  0  0
   19.3130   -8.3879  -13.5467 N   0  0  0  0  0  0  0  0  0  0  0  0
   19.6988   -7.7920  -12.2829 C   0  0  1  0  0  0  0  0  0  0  0  0
   20.7698   -6.7284  -12.5682 C   0  0  0  0  0  0  0  0  0  0  0  0
   21.1892   -5.8275  -11.0542 S   0  0  0  0  0  0  0  0  0  0  0  0
   18.5317   -7.0663  -11.7405 C   0  0  0  0  0  0  0  0  0  0  0  0
   18.0050   -6.1521  -12.4553 O   0  0  0  0  0  0  0  0  0  0  0  0
   18.0079   -7.3691  -10.4699 N   0  0  0  0  0  0  0  0  0  0  0  0
   16.6929   -6.7417  -10.1103 C   0  0  1  0  0  0  0  0  0  0  0  0
   15.8699   -7.7968   -9.4792 C   0  0  0  0  0  0  0  0  0  0  0  0
   14.4587   -7.5682   -9.1784 C   0  0  0  0  0  0  0  0  0  0  0  0
   13.6194   -8.5735   -8.5092 C   0  0  0  0  0  0  0  0  0  0  0  0
   12.1958   -7.9638   -8.4331 C   0  0  0  0  0  0  0  0  0  0  0  0
   11.3017   -8.8874   -7.7996 N   0  0  0  0  0  0  0  0  0  0  0  0
   17.1140   -5.6164   -9.2411 C   0  0  0  0  0  0  0  0  0  0  0  0
   18.2761   -5.7085   -8.6818 O   0  0  0  0  0  0  0  0  0  0  0  0
   16.4549   -4.4656   -8.9319 O   0  0  0  0  0  0  0  0  0  0  0  0
  2  1  1  6
  2  3  1  0
  3  4  1  0
  4  5  2  0
  4  8  1  0
  6  2  1  0
  6  9  1  0
  7  6  2  0
 10  9  1  0
 10 13  1  0
 10 11  1  6
 12 11  1  0
 13 15  1  0
 14 13  2  0
 15 16  1  0
 16 17  1  1
 16 22  1  0
 17 18  1  0
 19 18  1  0
 20 21  1  0
 20 19  1  0
 22 24  1  0
 23 22  2  0
M  END
$$$$
