DCK.pdb
     RDKit          3D

 24 23  0  0  1  0  0  0  0  0999 V2000
   23.4171  -20.2647  -17.0158 N   0  0  0  0  0  0  0  0  0  0  0  0
   22.4964  -19.6203  -16.1135 C   0  0  1  0  0  0  0  0  0  0  0  0
   21.2156  -19.3696  -16.9226 C   0  0  0  0  0  0  0  0  0  0  0  0
   21.5690  -18.3575  -17.9388 C   0  0  0  0  0  0  0  0  0  0  0  0
   22.1647  -17.3143  -17.6041 O   0  0  0  0  0  0  0  0  0  0  0  0
   22.1157  -20.4762  -14.9730 C   0  0  0  0  0  0  0  0  0  0  0  0
   21.9916  -21.7174  -15.1520 O   0  0  0  0  0  0  0  0  0  0  0  0
   21.2219  -18.6005  -19.2617 O   0  0  0  0  0  0  0  0  0  0  0  0
   21.8944  -19.9040  -13.6991 N   0  0  0  0  0  0  0  0  0  0  0  0
   21.5459  -20.7278  -12.5586 C   0  0  1  0  0  0  0  0  0  0  0  0
   21.9394  -19.9645  -11.2850 C   0  0  0  0  0  0  0  0  0  0  0  0
   21.3207  -20.8212   -9.8143 S   0  0  0  0  0  0  0  0  0  0  0  0
   20.0750  -20.8629  -12.5202 C   0  0  0  0  0  0  0  0  0  0  0  0
   19.3688  -19.8226  -12.7280 O   0  0  0  0  0  0  0  0  0  0  0  0
   19.4607  -22.1023  -12.2621 N   0  0  0  0  0  0  0  0  0  0  0  0
   17.9610  -22.1389  -12.3046 C   0  0  1  0  0  0  0  0  0  0  0  0
   17.5828  -23.0581  -13.4005 C   0  0  0  0  0  0  0  0  0  0  0  0
   16.1972  -23.1568  -13.8526 C   0  0  0  0  0  0  0  0  0  0  0  0
   15.7469  -24.1826  -14.8053 C   0  0  0  0  0  0  0  0  0  0  0  0
   14.2735  -23.8381  -15.1440 C   0  0  0  0  0  0  0  0  0  0  0  0
   13.7728  -24.7496  -16.1301 N   0  0  0  0  0  0  0  0  0  0  0  0
   17.6227  -22.5706  -10.9268 C   0  0  0  0  0  0  0  0  0  0  0  0
   18.4832  -23.3183  -10.3169 O   0  0  0  0  0  0  0  0  0  0  0  0
   16.5199  -22.2937  -10.1774 O   0  0  0  0  0  0  0  0  0  0  0  0
  2  1  1  6
  2  3  1  0
  3  4  1  0
  4  5  2  0
  4  8  1  0
  6  2  1  0
  6  9  1  0
  7  6  2  0
 10  9  1  0
 10 13  1  0
 10 11  1  1
 12 11  1  0
 13 15  1  0
 14 13  2  0
 15 16  1  0
 16 17  1  6
 16 22  1  0
 17 18  1  0
 19 18  1  0
 20 21  1  0
 20 19  1  0
 22 24  1  0
 23 22  2  0
M  END
$$$$
