DCK.pdb
     RDKit          3D

 24 23  0  0  1  0  0  0  0  0999 V2000
   19.9797  -13.3453  -16.2720 N   0  0  0  0  0  0  0  0  0  0  0  0
   19.8973  -12.0105  -16.8094 C   0  0  1  0  0  0  0  0  0  0  0  0
   18.4582  -11.5392  -16.5546 C   0  0  0  0  0  0  0  0  0  0  0  0
   17.5998  -12.3661  -17.4273 C   0  0  0  0  0  0  0  0  0  0  0  0
   18.0951  -12.9836  -18.3908 O   0  0  0  0  0  0  0  0  0  0  0  0
   20.7841  -11.0562  -16.1159 C   0  0  0  0  0  0  0  0  0  0  0  0
   20.8670  -11.0977  -14.8591 O   0  0  0  0  0  0  0  0  0  0  0  0
   16.2414  -12.4336  -17.1451 O   0  0  0  0  0  0  0  0  0  0  0  0
   21.5277  -10.1102  -16.8584 N   0  0  0  0  0  0  0  0  0  0  0  0
   22.4676   -9.2191  -16.2076 C   0  0  1  0  0  0  0  0  0  0  0  0
   23.7302   -9.1437  -17.0793 C   0  0  0  0  0  0  0  0  0  0  0  0
   24.8481   -7.8569  -16.4678 S   0  0  0  0  0  0  0  0  0  0  0  0
   21.8874   -7.8603  -16.2042 C   0  0  0  0  0  0  0  0  0  0  0  0
   21.4513   -7.3886  -17.3049 O   0  0  0  0  0  0  0  0  0  0  0  0
   21.8133   -7.0994  -15.0228 N   0  0  0  0  0  0  0  0  0  0  0  0
   21.2642   -5.7080  -15.1445 C   0  0  1  0  0  0  0  0  0  0  0  0
   19.7993   -5.8049  -14.9607 C   0  0  0  0  0  0  0  0  0  0  0  0
   18.9552   -4.6141  -15.0205 C   0  0  0  0  0  0  0  0  0  0  0  0
   17.5018   -4.6627  -14.8011 C   0  0  0  0  0  0  0  0  0  0  0  0
   16.9248   -5.5477  -15.9361 C   0  0  0  0  0  0  0  0  0  0  0  0
   15.5071   -5.6842  -15.7765 N   0  0  0  0  0  0  0  0  0  0  0  0
   22.0206   -4.9837  -14.0945 C   0  0  0  0  0  0  0  0  0  0  0  0
   22.6157   -5.7006  -13.1981 O   0  0  0  0  0  0  0  0  0  0  0  0
   22.1975   -3.6447  -13.9207 O   0  0  0  0  0  0  0  0  0  0  0  0
  2  1  1  1
  2  3  1  0
  3  4  1  0
  4  5  2  0
  4  8  1  0
  6  2  1  0
  6  9  1  0
  7  6  2  0
 10  9  1  0
 10 13  1  0
 10 11  1  6
 12 11  1  0
 13 15  1  0
 14 13  2  0
 15 16  1  0
 16 17  1  1
 16 22  1  0
 17 18  1  0
 19 18  1  0
 20 21  1  0
 20 19  1  0
 22 24  1  0
 23 22  2  0
M  END
$$$$
