DCK.pdb
     RDKit          3D

 24 23  0  0  1  0  0  0  0  0999 V2000
   24.8263  -15.6839  -18.2861 N   0  0  0  0  0  0  0  0  0  0  0  0
   24.9701  -14.2505  -18.3305 C   0  0  1  0  0  0  0  0  0  0  0  0
   24.5443  -13.7388  -16.9468 C   0  0  0  0  0  0  0  0  0  0  0  0
   23.0985  -13.4530  -17.0470 C   0  0  0  0  0  0  0  0  0  0  0  0
   22.4523  -13.1252  -16.0321 O   0  0  0  0  0  0  0  0  0  0  0  0
   26.3675  -13.8192  -18.5296 C   0  0  0  0  0  0  0  0  0  0  0  0
   27.3022  -14.5627  -18.1276 O   0  0  0  0  0  0  0  0  0  0  0  0
   22.4889  -13.5591  -18.2907 O   0  0  0  0  0  0  0  0  0  0  0  0
   26.6462  -12.5865  -19.1635 N   0  0  0  0  0  0  0  0  0  0  0  0
   27.9800  -12.2725  -19.6363 C   0  0  1  0  0  0  0  0  0  0  0  0
   27.9267  -12.1662  -21.1678 C   0  0  0  0  0  0  0  0  0  0  0  0
   27.9089  -13.8141  -21.9186 S   0  0  0  0  0  0  0  0  0  0  0  0
   28.3390  -10.9271  -19.1421 C   0  0  0  0  0  0  0  0  0  0  0  0
   27.4134  -10.0577  -19.0347 O   0  0  0  0  0  0  0  0  0  0  0  0
   29.6644  -10.6045  -18.7965 N   0  0  0  0  0  0  0  0  0  0  0  0
   29.9119   -9.2198  -18.2734 C   0  0  1  0  0  0  0  0  0  0  0  0
   31.2298   -9.2418  -17.6013 C   0  0  0  0  0  0  0  0  0  0  0  0
   31.8177   -8.0179  -17.0622 C   0  0  0  0  0  0  0  0  0  0  0  0
   33.1764   -7.9732  -16.5012 C   0  0  0  0  0  0  0  0  0  0  0  0
   33.3332   -6.5678  -15.8651 C   0  0  0  0  0  0  0  0  0  0  0  0
   34.6828   -6.3801  -15.4212 N   0  0  0  0  0  0  0  0  0  0  0  0
   29.8060   -8.4001  -19.5047 C   0  0  0  0  0  0  0  0  0  0  0  0
   29.4214   -7.1738  -19.3635 O   0  0  0  0  0  0  0  0  0  0  0  0
   30.0607   -8.7412  -20.7982 O   0  0  0  0  0  0  0  0  0  0  0  0
  2  1  1  1
  2  3  1  0
  3  4  1  0
  4  5  2  0
  4  8  1  0
  6  2  1  0
  6  9  1  0
  7  6  2  0
 10  9  1  0
 10 13  1  0
 10 11  1  6
 12 11  1  0
 13 15  1  0
 14 13  2  0
 15 16  1  0
 16 17  1  6
 16 22  1  0
 17 18  1  0
 19 18  1  0
 20 21  1  0
 20 19  1  0
 22 24  1  0
 23 22  2  0
M  END
$$$$
