DCK.pdb
     RDKit          3D

 24 23  0  0  1  0  0  0  0  0999 V2000
   27.8644  -21.6644  -16.5339 N   0  0  0  0  0  0  0  0  0  0  0  0
   27.5902  -20.6821  -15.5155 C   0  0  1  0  0  0  0  0  0  0  0  0
   26.9552  -19.4864  -16.2400 C   0  0  0  0  0  0  0  0  0  0  0  0
   28.0329  -18.8847  -17.0518 C   0  0  0  0  0  0  0  0  0  0  0  0
   27.8266  -18.5850  -18.2445 O   0  0  0  0  0  0  0  0  0  0  0  0
   26.6041  -21.1461  -14.5203 C   0  0  0  0  0  0  0  0  0  0  0  0
   25.6063  -21.8105  -14.9090 O   0  0  0  0  0  0  0  0  0  0  0  0
   29.2671  -18.6660  -16.4531 O   0  0  0  0  0  0  0  0  0  0  0  0
   26.7828  -20.8451  -13.1504 N   0  0  0  0  0  0  0  0  0  0  0  0
   25.8212  -21.2797  -12.1567 C   0  0  1  0  0  0  0  0  0  0  0  0
   26.3413  -20.8527  -10.7758 C   0  0  0  0  0  0  0  0  0  0  0  0
   25.0508  -21.0531   -9.5213 S   0  0  0  0  0  0  0  0  0  0  0  0
   24.5653  -20.5321  -12.3732 C   0  0  0  0  0  0  0  0  0  0  0  0
   24.6223  -19.2599  -12.4234 O   0  0  0  0  0  0  0  0  0  0  0  0
   23.3342  -21.1974  -12.5214 N   0  0  0  0  0  0  0  0  0  0  0  0
   22.1312  -20.3452  -12.8022 C   0  0  1  0  0  0  0  0  0  0  0  0
   22.0671  -20.1593  -14.2686 C   0  0  0  0  0  0  0  0  0  0  0  0
   21.0459  -19.3073  -14.8730 C   0  0  0  0  0  0  0  0  0  0  0  0
   20.9215  -19.1317  -16.3278 C   0  0  0  0  0  0  0  0  0  0  0  0
   19.7331  -18.1593  -16.5438 C   0  0  0  0  0  0  0  0  0  0  0  0
   19.5240  -17.9469  -17.9456 N   0  0  0  0  0  0  0  0  0  0  0  0
   21.0402  -21.1360  -12.1829 C   0  0  0  0  0  0  0  0  0  0  0  0
   21.1865  -22.4204  -12.1572 O   0  0  0  0  0  0  0  0  0  0  0  0
   19.8764  -20.7130  -11.6164 O   0  0  0  0  0  0  0  0  0  0  0  0
  2  1  1  6
  2  3  1  0
  3  4  1  0
  4  5  2  0
  4  8  1  0
  6  2  1  0
  6  9  1  0
  7  6  2  0
 10  9  1  0
 10 13  1  0
 10 11  1  1
 12 11  1  0
 13 15  1  0
 14 13  2  0
 15 16  1  0
 16 17  1  6
 16 22  1  0
 17 18  1  0
 19 18  1  0
 20 21  1  0
 20 19  1  0
 22 24  1  0
 23 22  2  0
M  END
$$$$
