DCK.pdb
     RDKit          3D

 24 23  0  0  1  0  0  0  0  0999 V2000
   18.1560   -9.9847  -12.7045 N   0  0  0  0  0  0  0  0  0  0  0  0
   17.8590   -8.6842  -12.1588 C   0  0  1  0  0  0  0  0  0  0  0  0
   18.0661   -7.6856  -13.3068 C   0  0  0  0  0  0  0  0  0  0  0  0
   19.5203   -7.6598  -13.5649 C   0  0  0  0  0  0  0  0  0  0  0  0
   20.0214   -8.4308  -14.4072 O   0  0  0  0  0  0  0  0  0  0  0  0
   16.4538   -8.5489  -11.7286 C   0  0  0  0  0  0  0  0  0  0  0  0
   15.5395   -9.0026  -12.4678 O   0  0  0  0  0  0  0  0  0  0  0  0
   20.3022   -6.7617  -12.8498 O   0  0  0  0  0  0  0  0  0  0  0  0
   16.1448   -7.9171  -10.5020 N   0  0  0  0  0  0  0  0  0  0  0  0
   14.7967   -7.9345   -9.9696 C   0  0  1  0  0  0  0  0  0  0  0  0
   14.5199   -9.3446   -9.4270 C   0  0  0  0  0  0  0  0  0  0  0  0
   12.9108   -9.4017   -8.5982 S   0  0  0  0  0  0  0  0  0  0  0  0
   14.7502   -7.0279   -8.8038 C   0  0  0  0  0  0  0  0  0  0  0  0
   15.6165   -7.1861   -7.8825 O   0  0  0  0  0  0  0  0  0  0  0  0
   13.7797   -6.0138   -8.7040 N   0  0  0  0  0  0  0  0  0  0  0  0
   13.7800   -5.1949   -7.4464 C   0  0  1  0  0  0  0  0  0  0  0  0
   14.1658   -3.8185   -7.8281 C   0  0  0  0  0  0  0  0  0  0  0  0
   14.1692   -2.7397   -6.8430 C   0  0  0  0  0  0  0  0  0  0  0  0
   14.6237   -1.3781   -7.1624 C   0  0  0  0  0  0  0  0  0  0  0  0
   14.4990   -0.5636   -5.8488 C   0  0  0  0  0  0  0  0  0  0  0  0
   15.0249    0.7558   -6.0400 N   0  0  0  0  0  0  0  0  0  0  0  0
   12.3948   -5.3854   -6.9524 C   0  0  0  0  0  0  0  0  0  0  0  0
   11.5138   -5.7833   -7.8110 O   0  0  0  0  0  0  0  0  0  0  0  0
   11.8881   -5.2072   -5.7011 O   0  0  0  0  0  0  0  0  0  0  0  0
  2  1  1  6
  2  3  1  0
  3  4  1  0
  4  5  2  0
  4  8  1  0
  6  2  1  0
  6  9  1  0
  7  6  2  0
 10  9  1  0
 10 13  1  0
 10 11  1  1
 12 11  1  0
 13 15  1  0
 14 13  2  0
 15 16  1  0
 16 17  1  6
 16 22  1  0
 17 18  1  0
 19 18  1  0
 20 21  1  0
 20 19  1  0
 22 24  1  0
 23 22  2  0
M  END
$$$$
