DCK.pdb
     RDKit          3D

 24 23  0  0  1  0  0  0  0  0999 V2000
   20.9130  -20.5806  -12.5277 N   0  0  0  0  0  0  0  0  0  0  0  0
   21.8975  -21.5231  -12.9965 C   0  0  1  0  0  0  0  0  0  0  0  0
   21.3451  -22.0946  -14.3103 C   0  0  0  0  0  0  0  0  0  0  0  0
   20.1263  -22.8454  -13.9457 C   0  0  0  0  0  0  0  0  0  0  0  0
   19.5103  -23.4992  -14.8106 O   0  0  0  0  0  0  0  0  0  0  0  0
   23.1904  -20.8897  -13.3211 C   0  0  0  0  0  0  0  0  0  0  0  0
   23.1971  -19.7561  -13.8715 O   0  0  0  0  0  0  0  0  0  0  0  0
   19.6932  -22.8013  -12.6266 O   0  0  0  0  0  0  0  0  0  0  0  0
   24.4017  -21.5521  -13.0158 N   0  0  0  0  0  0  0  0  0  0  0  0
   25.6830  -20.9223  -13.2656 C   0  0  1  0  0  0  0  0  0  0  0  0
   26.4344  -20.8309  -11.9289 C   0  0  0  0  0  0  0  0  0  0  0  0
   25.9094  -22.1574  -10.8134 S   0  0  0  0  0  0  0  0  0  0  0  0
   26.4791  -21.8226  -14.1251 C   0  0  0  0  0  0  0  0  0  0  0  0
   26.7057  -23.0064  -13.7111 O   0  0  0  0  0  0  0  0  0  0  0  0
   26.9782  -21.3941  -15.3691 N   0  0  0  0  0  0  0  0  0  0  0  0
   27.8014  -22.3792  -16.1464 C   0  0  1  0  0  0  0  0  0  0  0  0
   26.8649  -23.3817  -16.7004 C   0  0  0  0  0  0  0  0  0  0  0  0
   27.3477  -24.6731  -17.1836 C   0  0  0  0  0  0  0  0  0  0  0  0
   27.9186  -25.6900  -16.2877 C   0  0  0  0  0  0  0  0  0  0  0  0
   28.3296  -26.8796  -17.1935 C   0  0  0  0  0  0  0  0  0  0  0  0
   29.0397  -27.8576  -16.4235 N   0  0  0  0  0  0  0  0  0  0  0  0
   28.4928  -21.5029  -17.1227 C   0  0  0  0  0  0  0  0  0  0  0  0
   27.8930  -20.4074  -17.4573 O   0  0  0  0  0  0  0  0  0  0  0  0
   29.6959  -21.6702  -17.7381 O   0  0  0  0  0  0  0  0  0  0  0  0
  2  1  1  6
  2  3  1  0
  3  4  1  0
  4  5  2  0
  4  8  1  0
  6  2  1  0
  6  9  1  0
  7  6  2  0
 10  9  1  0
 10 13  1  0
 10 11  1  1
 12 11  1  0
 13 15  1  0
 14 13  2  0
 15 16  1  0
 16 17  1  6
 16 22  1  0
 17 18  1  0
 19 18  1  0
 20 21  1  0
 20 19  1  0
 22 24  1  0
 23 22  2  0
M  END
$$$$
