DCK.pdb
     RDKit          3D

 24 23  0  0  1  0  0  0  0  0999 V2000
   32.5613   -9.9423  -19.3732 N   0  0  0  0  0  0  0  0  0  0  0  0
   31.9532  -10.7578  -18.3522 C   0  0  1  0  0  0  0  0  0  0  0  0
   30.7648   -9.9475  -17.8146 C   0  0  0  0  0  0  0  0  0  0  0  0
   31.3480   -8.8736  -16.9848 C   0  0  0  0  0  0  0  0  0  0  0  0
   32.4573   -9.0355  -16.4386 O   0  0  0  0  0  0  0  0  0  0  0  0
   31.4004  -12.0207  -18.8792 C   0  0  0  0  0  0  0  0  0  0  0  0
   30.8800  -12.0309  -20.0269 O   0  0  0  0  0  0  0  0  0  0  0  0
   30.6320   -7.6929  -16.8338 O   0  0  0  0  0  0  0  0  0  0  0  0
   31.4571  -13.1997  -18.1009 N   0  0  0  0  0  0  0  0  0  0  0  0
   30.9469  -14.4577  -18.6091 C   0  0  1  0  0  0  0  0  0  0  0  0
   31.4420  -15.5785  -17.6827 C   0  0  0  0  0  0  0  0  0  0  0  0
   30.6385  -17.1473  -18.0982 S   0  0  0  0  0  0  0  0  0  0  0  0
   29.4746  -14.4412  -18.4855 C   0  0  0  0  0  0  0  0  0  0  0  0
   28.9625  -13.8953  -17.4541 O   0  0  0  0  0  0  0  0  0  0  0  0
   28.6511  -15.0100  -19.4747 N   0  0  0  0  0  0  0  0  0  0  0  0
   27.1712  -14.9768  -19.2279 C   0  0  1  0  0  0  0  0  0  0  0  0
   26.5815  -14.0955  -20.2597 C   0  0  0  0  0  0  0  0  0  0  0  0
   25.1329  -13.9732  -20.4033 C   0  0  0  0  0  0  0  0  0  0  0  0
   24.5083  -13.1087  -21.4158 C   0  0  0  0  0  0  0  0  0  0  0  0
   22.9802  -13.1855  -21.1637 C   0  0  0  0  0  0  0  0  0  0  0  0
   22.2844  -12.3942  -22.1350 N   0  0  0  0  0  0  0  0  0  0  0  0
   26.8135  -16.4143  -19.2966 C   0  0  0  0  0  0  0  0  0  0  0  0
   25.7967  -16.8013  -18.5980 O   0  0  0  0  0  0  0  0  0  0  0  0
   27.3994  -17.4211  -20.0020 O   0  0  0  0  0  0  0  0  0  0  0  0
  2  1  1  6
  2  3  1  0
  3  4  1  0
  4  5  2  0
  4  8  1  0
  6  2  1  0
  6  9  1  0
  7  6  2  0
 10  9  1  0
 10 13  1  0
 10 11  1  1
 12 11  1  0
 13 15  1  0
 14 13  2  0
 15 16  1  0
 16 17  1  6
 16 22  1  0
 17 18  1  0
 19 18  1  0
 20 21  1  0
 20 19  1  0
 22 24  1  0
 23 22  2  0
M  END
$$$$
