DCK.pdb
     RDKit          3D

 24 23  0  0  1  0  0  0  0  0999 V2000
   19.0873  -11.3159  -16.0745 N   0  0  0  0  0  0  0  0  0  0  0  0
   18.9156   -9.8996  -15.8701 C   0  0  1  0  0  0  0  0  0  0  0  0
   17.3997   -9.6580  -15.8295 C   0  0  0  0  0  0  0  0  0  0  0  0
   16.9691   -9.5436  -17.2379 C   0  0  0  0  0  0  0  0  0  0  0  0
   17.6898   -8.9552  -18.0681 O   0  0  0  0  0  0  0  0  0  0  0  0
   19.4526   -9.4366  -14.5757 C   0  0  0  0  0  0  0  0  0  0  0  0
   20.6433   -9.7146  -14.2708 O   0  0  0  0  0  0  0  0  0  0  0  0
   15.7522  -10.1045  -17.6042 O   0  0  0  0  0  0  0  0  0  0  0  0
   18.6358   -8.6917  -13.6941 N   0  0  0  0  0  0  0  0  0  0  0  0
   19.1745   -8.1236  -12.4743 C   0  0  1  0  0  0  0  0  0  0  0  0
   20.2643   -7.1133  -12.8633 C   0  0  0  0  0  0  0  0  0  0  0  0
   20.7999   -6.1677  -11.4147 S   0  0  0  0  0  0  0  0  0  0  0  0
   18.1050   -7.3436  -11.8179 C   0  0  0  0  0  0  0  0  0  0  0  0
   17.6055   -6.3556  -12.4492 O   0  0  0  0  0  0  0  0  0  0  0  0
   17.6429   -7.6748  -10.5306 N   0  0  0  0  0  0  0  0  0  0  0  0
   16.4130   -6.9639  -10.0468 C   0  0  1  0  0  0  0  0  0  0  0  0
   15.4208   -8.0056   -9.7008 C   0  0  0  0  0  0  0  0  0  0  0  0
   14.1431   -7.6508   -9.0879 C   0  0  0  0  0  0  0  0  0  0  0  0
   13.0975   -8.6457   -8.8057 C   0  0  0  0  0  0  0  0  0  0  0  0
   11.9021   -7.8569   -8.2113 C   0  0  0  0  0  0  0  0  0  0  0  0
   10.7814   -8.7314   -8.0299 N   0  0  0  0  0  0  0  0  0  0  0  0
   16.9451   -6.1525   -8.9254 C   0  0  0  0  0  0  0  0  0  0  0  0
   16.1845   -5.2132   -8.4665 O   0  0  0  0  0  0  0  0  0  0  0  0
   18.1405   -6.2440   -8.2796 O   0  0  0  0  0  0  0  0  0  0  0  0
  2  1  1  1
  2  3  1  0
  3  4  1  0
  4  5  2  0
  4  8  1  0
  6  2  1  0
  6  9  1  0
  7  6  2  0
 10  9  1  0
 10 13  1  0
 10 11  1  6
 12 11  1  0
 13 15  1  0
 14 13  2  0
 15 16  1  0
 16 17  1  1
 16 22  1  0
 17 18  1  0
 19 18  1  0
 20 21  1  0
 20 19  1  0
 22 24  1  0
 23 22  2  0
M  END
$$$$
