DCK.pdb
     RDKit          3D

 24 23  0  0  1  0  0  0  0  0999 V2000
   20.4015  -18.7299  -14.3209 N   0  0  0  0  0  0  0  0  0  0  0  0
   20.7327  -20.1024  -14.6105 C   0  0  1  0  0  0  0  0  0  0  0  0
   22.0889  -20.0683  -15.3300 C   0  0  0  0  0  0  0  0  0  0  0  0
   21.8528  -19.3665  -16.6082 C   0  0  0  0  0  0  0  0  0  0  0  0
   22.2654  -18.2008  -16.7690 O   0  0  0  0  0  0  0  0  0  0  0  0
   20.9193  -20.9173  -13.3943 C   0  0  0  0  0  0  0  0  0  0  0  0
   21.4701  -22.0466  -13.4910 O   0  0  0  0  0  0  0  0  0  0  0  0
   21.1658  -20.0366  -17.6125 O   0  0  0  0  0  0  0  0  0  0  0  0
   20.4830  -20.4310  -12.1404 N   0  0  0  0  0  0  0  0  0  0  0  0
   20.6298  -21.2255  -10.9369 C   0  0  1  0  0  0  0  0  0  0  0  0
   20.6370  -20.2684   -9.7355 C   0  0  0  0  0  0  0  0  0  0  0  0
   20.7679  -21.1958   -8.1855 S   0  0  0  0  0  0  0  0  0  0  0  0
   19.4225  -22.0642  -10.7885 C   0  0  0  0  0  0  0  0  0  0  0  0
   18.2973  -21.5642  -11.1172 O   0  0  0  0  0  0  0  0  0  0  0  0
   19.5022  -23.3809  -10.2985 N   0  0  0  0  0  0  0  0  0  0  0  0
   18.2134  -24.1406  -10.1800 C   0  0  1  0  0  0  0  0  0  0  0  0
   18.5424  -25.5749  -10.3334 C   0  0  0  0  0  0  0  0  0  0  0  0
   17.4912  -26.5893  -10.3411 C   0  0  0  0  0  0  0  0  0  0  0  0
   17.7821  -28.0298  -10.3967 C   0  0  0  0  0  0  0  0  0  0  0  0
   16.4093  -28.7485  -10.3401 C   0  0  0  0  0  0  0  0  0  0  0  0
   16.5902  -30.1611  -10.5004 N   0  0  0  0  0  0  0  0  0  0  0  0
   17.7207  -23.7091   -8.8495 C   0  0  0  0  0  0  0  0  0  0  0  0
   16.4521  -23.4871   -8.7359 O   0  0  0  0  0  0  0  0  0  0  0  0
   18.4105  -23.5075   -7.6928 O   0  0  0  0  0  0  0  0  0  0  0  0
  2  1  1  1
  2  3  1  0
  3  4  1  0
  4  5  2  0
  4  8  1  0
  6  2  1  0
  6  9  1  0
  7  6  2  0
 10  9  1  0
 10 13  1  0
 10 11  1  1
 12 11  1  0
 13 15  1  0
 14 13  2  0
 15 16  1  0
 16 17  1  1
 16 22  1  0
 17 18  1  0
 19 18  1  0
 20 21  1  0
 20 19  1  0
 22 24  1  0
 23 22  2  0
M  END
$$$$
