AMG.pdb
     RDKit          3D

 18 17  0  0  1  0  0  0  0  0999 V2000
    5.8676  -15.7756   20.2174 C   0  0  0  0  0  0  0  0  0  0  0  0
    6.8388  -16.5522   21.0447 C   0  0  2  0  0  0  0  0  0  0  0  0
    6.1659  -17.5085   21.8661 N   0  0  0  0  0  0  0  0  0  0  0  0
    7.7620  -15.7085   21.8308 C   0  0  0  0  0  0  0  0  0  0  0  0
    8.5424  -14.9344   21.2198 O   0  0  0  0  0  0  0  0  0  0  0  0
    5.8119  -11.0616   26.6528 C   0  0  0  0  0  0  0  0  0  0  0  0
    6.4204  -12.7867   26.7288 S   0  0  0  0  0  0  0  0  0  0  0  0
    7.3718  -13.1351   25.2215 C   0  0  0  0  0  0  0  0  0  0  0  0
    7.9361  -14.5074   25.2457 C   0  0  0  0  0  0  0  0  0  0  0  0
    8.7362  -14.9271   24.0448 C   0  0  2  0  0  0  0  0  0  0  0  0
    7.8040  -15.7361   23.2454 N   0  0  0  0  0  0  0  0  0  0  0  0
    9.9318  -15.7482   24.3741 C   0  0  0  0  0  0  0  0  0  0  0  0
   10.9283  -15.1988   24.9646 O   0  0  0  0  0  0  0  0  0  0  0  0
   10.0736  -17.1217   24.0892 N   0  0  0  0  0  0  0  0  0  0  0  0
   11.3276  -17.8136   24.3941 C   0  0  0  0  0  0  0  0  0  0  0  0
   11.2860  -18.4406   25.7275 C   0  0  0  0  0  0  0  0  0  0  0  0
   12.3708  -19.1388   26.2265 O   0  0  0  0  0  0  0  0  0  0  0  0
   10.2561  -18.3479   26.4329 O   0  0  0  0  0  0  0  0  0  0  0  0
  2  1  1  1
  2  4  1  0
  2  3  1  0
  4  5  2  0
  7  6  1  0
  7  8  1  0
  8  9  1  0
 10  9  1  1
 11  4  1  0
 11 10  1  0
 12 10  1  0
 12 14  1  0
 13 12  2  0
 15 14  1  0
 15 16  1  0
 16 17  1  0
 18 16  2  0
M  END
$$$$
