AMG.pdb
     RDKit          3D

 18 17  0  0  1  0  0  0  0  0999 V2000
    7.1371  -13.7965   19.9093 C   0  0  0  0  0  0  0  0  0  0  0  0
    7.7351  -14.9121   20.7022 C   0  0  2  0  0  0  0  0  0  0  0  0
    6.7724  -15.9376   20.9549 N   0  0  0  0  0  0  0  0  0  0  0  0
    8.4038  -14.4710   21.9433 C   0  0  0  0  0  0  0  0  0  0  0  0
    9.3759  -13.6780   21.8574 O   0  0  0  0  0  0  0  0  0  0  0  0
    5.8469  -10.6957   27.0003 C   0  0  0  0  0  0  0  0  0  0  0  0
    6.7495  -12.2856   27.0987 S   0  0  0  0  0  0  0  0  0  0  0  0
    6.8046  -13.0270   25.4418 C   0  0  0  0  0  0  0  0  0  0  0  0
    7.5232  -14.3253   25.4561 C   0  0  0  0  0  0  0  0  0  0  0  0
    8.6493  -14.4818   24.4733 C   0  0  2  0  0  0  0  0  0  0  0  0
    7.9943  -14.9054   23.2267 N   0  0  0  0  0  0  0  0  0  0  0  0
    9.6539  -15.5060   24.8658 C   0  0  0  0  0  0  0  0  0  0  0  0
   10.4028  -15.2936   25.8845 O   0  0  0  0  0  0  0  0  0  0  0  0
    9.8634  -16.7308   24.1998 N   0  0  0  0  0  0  0  0  0  0  0  0
   10.9450  -17.6242   24.6196 C   0  0  0  0  0  0  0  0  0  0  0  0
   10.5305  -18.4784   25.7471 C   0  0  0  0  0  0  0  0  0  0  0  0
   11.4100  -19.3710   26.3327 O   0  0  0  0  0  0  0  0  0  0  0  0
    9.3633  -18.4058   26.1936 O   0  0  0  0  0  0  0  0  0  0  0  0
  2  1  1  1
  2  4  1  0
  2  3  1  0
  4  5  2  0
  7  6  1  0
  7  8  1  0
  8  9  1  0
 10  9  1  1
 11  4  1  0
 11 10  1  0
 12 10  1  0
 12 14  1  0
 13 12  2  0
 15 14  1  0
 15 16  1  0
 16 17  1  0
 18 16  2  0
M  END
$$$$
