AMG.pdb
     RDKit          3D

 18 17  0  0  1  0  0  0  0  0999 V2000
    7.5027  -15.2508   19.5580 C   0  0  0  0  0  0  0  0  0  0  0  0
    7.6012  -13.8899   20.1654 C   0  0  2  0  0  0  0  0  0  0  0  0
    8.2807  -12.9848   19.2930 N   0  0  0  0  0  0  0  0  0  0  0  0
    8.1835  -13.8827   21.5230 C   0  0  0  0  0  0  0  0  0  0  0  0
    9.4276  -13.7472   21.6467 O   0  0  0  0  0  0  0  0  0  0  0  0
    6.9001  -10.5036   27.3379 C   0  0  0  0  0  0  0  0  0  0  0  0
    6.1511  -12.1704   27.2245 S   0  0  0  0  0  0  0  0  0  0  0  0
    7.3062  -13.2694   26.3548 C   0  0  0  0  0  0  0  0  0  0  0  0
    6.9967  -13.3379   24.9051 C   0  0  0  0  0  0  0  0  0  0  0  0
    7.9643  -14.1022   24.0460 C   0  0  2  0  0  0  0  0  0  0  0  0
    7.3970  -14.0225   22.6916 N   0  0  0  0  0  0  0  0  0  0  0  0
    8.1096  -15.5324   24.4277 C   0  0  0  0  0  0  0  0  0  0  0  0
    7.3731  -16.4130   23.8572 O   0  0  0  0  0  0  0  0  0  0  0  0
    9.0150  -16.0251   25.3895 N   0  0  0  0  0  0  0  0  0  0  0  0
   10.4578  -15.9585   25.1481 C   0  0  0  0  0  0  0  0  0  0  0  0
   11.0290  -17.2992   24.9270 C   0  0  0  0  0  0  0  0  0  0  0  0
   12.2427  -17.4653   24.2848 O   0  0  0  0  0  0  0  0  0  0  0  0
   10.4151  -18.3160   25.3221 O   0  0  0  0  0  0  0  0  0  0  0  0
  2  1  1  6
  2  4  1  0
  2  3  1  0
  4  5  2  0
  7  6  1  0
  7  8  1  0
  8  9  1  0
 10  9  1  1
 11  4  1  0
 11 10  1  0
 12 10  1  0
 12 14  1  0
 13 12  2  0
 15 14  1  0
 15 16  1  0
 16 17  1  0
 18 16  2  0
M  END
$$$$
