AMG.pdb
     RDKit          3D

 18 17  0  0  1  0  0  0  0  0999 V2000
    7.0692  -18.5859   21.3153 C   0  0  0  0  0  0  0  0  0  0  0  0
    6.5575  -17.1987   21.1040 C   0  0  2  0  0  0  0  0  0  0  0  0
    6.4652  -16.8908   19.7116 N   0  0  0  0  0  0  0  0  0  0  0  0
    7.3100  -16.1655   21.8445 C   0  0  0  0  0  0  0  0  0  0  0  0
    8.3119  -15.6383   21.2971 O   0  0  0  0  0  0  0  0  0  0  0  0
    6.6739  -10.8535   27.5570 C   0  0  0  0  0  0  0  0  0  0  0  0
    5.9527  -12.1778   26.5187 S   0  0  0  0  0  0  0  0  0  0  0  0
    7.2998  -13.2138   25.8782 C   0  0  0  0  0  0  0  0  0  0  0  0
    6.7841  -14.2659   24.9675 C   0  0  0  0  0  0  0  0  0  0  0  0
    7.7460  -14.8005   23.9441 C   0  0  2  0  0  0  0  0  0  0  0  0
    6.9486  -15.7444   23.1467 N   0  0  0  0  0  0  0  0  0  0  0  0
    8.9090  -15.5204   24.5281 C   0  0  0  0  0  0  0  0  0  0  0  0
    8.7042  -16.4858   25.3463 O   0  0  0  0  0  0  0  0  0  0  0  0
   10.2611  -15.2305   24.2535 N   0  0  0  0  0  0  0  0  0  0  0  0
   11.3156  -15.7054   25.1518 C   0  0  0  0  0  0  0  0  0  0  0  0
   11.9055  -16.9672   24.6696 C   0  0  0  0  0  0  0  0  0  0  0  0
   13.2571  -17.0682   24.3933 O   0  0  0  0  0  0  0  0  0  0  0  0
   11.1819  -17.9747   24.5019 O   0  0  0  0  0  0  0  0  0  0  0  0
  2  1  1  6
  2  4  1  0
  2  3  1  0
  4  5  2  0
  7  6  1  0
  7  8  1  0
  8  9  1  0
 10  9  1  1
 11  4  1  0
 11 10  1  0
 12 10  1  0
 12 14  1  0
 13 12  2  0
 15 14  1  0
 15 16  1  0
 16 17  1  0
 18 16  2  0
M  END
$$$$
