AMG.pdb
     RDKit          3D

 18 17  0  0  1  0  0  0  0  0999 V2000
    7.4587  -14.9501   19.6416 C   0  0  0  0  0  0  0  0  0  0  0  0
    7.4779  -13.6625   20.3982 C   0  0  2  0  0  0  0  0  0  0  0  0
    7.9997  -12.6016   19.5954 N   0  0  0  0  0  0  0  0  0  0  0  0
    8.1620  -13.7477   21.7047 C   0  0  0  0  0  0  0  0  0  0  0  0
    9.3357  -13.3070   21.8026 O   0  0  0  0  0  0  0  0  0  0  0  0
    6.2836  -10.6787   27.0941 C   0  0  0  0  0  0  0  0  0  0  0  0
    7.0574  -12.3309   26.9404 S   0  0  0  0  0  0  0  0  0  0  0  0
    6.5331  -13.0752   25.3690 C   0  0  0  0  0  0  0  0  0  0  0  0
    7.1578  -14.4062   25.1683 C   0  0  0  0  0  0  0  0  0  0  0  0
    8.2452  -14.4901   24.1344 C   0  0  2  0  0  0  0  0  0  0  0  0
    7.5493  -14.3060   22.8521 N   0  0  0  0  0  0  0  0  0  0  0  0
    8.9599  -15.7943   24.1157 C   0  0  0  0  0  0  0  0  0  0  0  0
    8.3187  -16.8577   23.7968 O   0  0  0  0  0  0  0  0  0  0  0  0
   10.3237  -15.9740   24.4243 N   0  0  0  0  0  0  0  0  0  0  0  0
   10.9574  -17.2808   24.2367 C   0  0  0  0  0  0  0  0  0  0  0  0
   11.0819  -18.0069   25.5134 C   0  0  0  0  0  0  0  0  0  0  0  0
   11.9225  -19.0981   25.6396 O   0  0  0  0  0  0  0  0  0  0  0  0
   10.4203  -17.6406   26.5109 O   0  0  0  0  0  0  0  0  0  0  0  0
  2  1  1  6
  2  4  1  0
  2  3  1  0
  4  5  2  0
  7  6  1  0
  7  8  1  0
  8  9  1  0
 10  9  1  1
 11  4  1  0
 11 10  1  0
 12 10  1  0
 12 14  1  0
 13 12  2  0
 15 14  1  0
 15 16  1  0
 16 17  1  0
 18 16  2  0
M  END
$$$$
