AMG.pdb
     RDKit          3D

 18 17  0  0  1  0  0  0  0  0999 V2000
    7.6827  -15.0657   20.0869 C   0  0  0  0  0  0  0  0  0  0  0  0
    7.5546  -13.7403   20.7635 C   0  0  2  0  0  0  0  0  0  0  0  0
    8.0885  -12.6936   19.9501 N   0  0  0  0  0  0  0  0  0  0  0  0
    8.1141  -13.7110   22.1303 C   0  0  0  0  0  0  0  0  0  0  0  0
    9.1831  -13.0804   22.3326 O   0  0  0  0  0  0  0  0  0  0  0  0
    6.2244  -10.6987   27.3370 C   0  0  0  0  0  0  0  0  0  0  0  0
    7.1953  -12.1677   26.8354 S   0  0  0  0  0  0  0  0  0  0  0  0
    6.1298  -13.2614   25.8521 C   0  0  0  0  0  0  0  0  0  0  0  0
    6.8395  -14.5092   25.4759 C   0  0  0  0  0  0  0  0  0  0  0  0
    8.0422  -14.3574   24.5876 C   0  0  2  0  0  0  0  0  0  0  0  0
    7.4952  -14.3648   23.2225 N   0  0  0  0  0  0  0  0  0  0  0  0
    9.0320  -15.4597   24.7196 C   0  0  0  0  0  0  0  0  0  0  0  0
    9.6164  -15.6480   25.8450 O   0  0  0  0  0  0  0  0  0  0  0  0
    9.3969  -16.3475   23.6870 N   0  0  0  0  0  0  0  0  0  0  0  0
   10.3507  -17.4283   23.9449 C   0  0  0  0  0  0  0  0  0  0  0  0
   11.6719  -17.1304   23.3634 C   0  0  0  0  0  0  0  0  0  0  0  0
   11.9300  -15.9168   22.7520 O   0  0  0  0  0  0  0  0  0  0  0  0
   12.5875  -17.9824   23.4161 O   0  0  0  0  0  0  0  0  0  0  0  0
  2  1  1  6
  2  4  1  0
  2  3  1  0
  4  5  2  0
  7  6  1  0
  7  8  1  0
  8  9  1  0
 10  9  1  1
 11  4  1  0
 11 10  1  0
 12 10  1  0
 12 14  1  0
 13 12  2  0
 15 14  1  0
 15 16  1  0
 16 17  1  0
 18 16  2  0
M  END
$$$$
