AMG.pdb
     RDKit          3D

 18 17  0  0  1  0  0  0  0  0999 V2000
    7.7125  -14.8427   19.5048 C   0  0  0  0  0  0  0  0  0  0  0  0
    7.8872  -15.7951   20.6420 C   0  0  2  0  0  0  0  0  0  0  0  0
    6.6641  -16.4715   20.9395 N   0  0  0  0  0  0  0  0  0  0  0  0
    8.4814  -15.1826   21.8479 C   0  0  0  0  0  0  0  0  0  0  0  0
    9.6685  -14.7712   21.7947 O   0  0  0  0  0  0  0  0  0  0  0  0
    6.0727  -10.6871   27.7612 C   0  0  0  0  0  0  0  0  0  0  0  0
    5.7056  -11.9615   26.4991 S   0  0  0  0  0  0  0  0  0  0  0  0
    7.2729  -12.6618   25.9061 C   0  0  0  0  0  0  0  0  0  0  0  0
    7.0538  -13.5795   24.7607 C   0  0  0  0  0  0  0  0  0  0  0  0
    8.2692  -14.2723   24.2117 C   0  0  2  0  0  0  0  0  0  0  0  0
    7.7678  -15.0400   23.0620 N   0  0  0  0  0  0  0  0  0  0  0  0
    8.9170  -15.2047   25.1725 C   0  0  0  0  0  0  0  0  0  0  0  0
    9.4045  -14.7431   26.2645 O   0  0  0  0  0  0  0  0  0  0  0  0
    9.0460  -16.5964   24.9874 N   0  0  0  0  0  0  0  0  0  0  0  0
    9.6002  -17.4348   26.0523 C   0  0  0  0  0  0  0  0  0  0  0  0
   10.9959  -17.8140   25.7676 C   0  0  0  0  0  0  0  0  0  0  0  0
   11.6945  -18.6630   26.6068 O   0  0  0  0  0  0  0  0  0  0  0  0
   11.5729  -17.3668   24.7508 O   0  0  0  0  0  0  0  0  0  0  0  0
  2  1  1  6
  2  4  1  0
  2  3  1  0
  4  5  2  0
  7  6  1  0
  7  8  1  0
  8  9  1  0
 10  9  1  1
 11  4  1  0
 11 10  1  0
 12 10  1  0
 12 14  1  0
 13 12  2  0
 15 14  1  0
 15 16  1  0
 16 17  1  0
 18 16  2  0
M  END
$$$$
