AMG.pdb
     RDKit          3D

 18 17  0  0  1  0  0  0  0  0999 V2000
    7.0685  -15.3795   19.3889 C   0  0  0  0  0  0  0  0  0  0  0  0
    7.5173  -16.2894   20.4849 C   0  0  2  0  0  0  0  0  0  0  0  0
    6.4213  -17.0395   21.0124 N   0  0  0  0  0  0  0  0  0  0  0  0
    8.2786  -15.6085   21.5521 C   0  0  0  0  0  0  0  0  0  0  0  0
    9.3417  -15.0093   21.2484 O   0  0  0  0  0  0  0  0  0  0  0  0
    6.7591  -11.2747   27.8005 C   0  0  0  0  0  0  0  0  0  0  0  0
    6.2345  -12.3623   26.4244 S   0  0  0  0  0  0  0  0  0  0  0  0
    7.6705  -13.3200   25.8596 C   0  0  0  0  0  0  0  0  0  0  0  0
    7.3358  -14.1424   24.6705 C   0  0  0  0  0  0  0  0  0  0  0  0
    8.4890  -14.7764   23.9448 C   0  0  2  0  0  0  0  0  0  0  0  0
    7.8597  -15.6032   22.9041 N   0  0  0  0  0  0  0  0  0  0  0  0
    9.3393  -15.6425   24.8044 C   0  0  0  0  0  0  0  0  0  0  0  0
   10.0757  -15.1045   25.7053 O   0  0  0  0  0  0  0  0  0  0  0  0
    9.4101  -17.0479   24.7181 N   0  0  0  0  0  0  0  0  0  0  0  0
   10.6495  -17.7001   24.2903 C   0  0  0  0  0  0  0  0  0  0  0  0
   11.7420  -17.4627   25.2510 C   0  0  0  0  0  0  0  0  0  0  0  0
   11.8967  -18.2569   26.3728 O   0  0  0  0  0  0  0  0  0  0  0  0
   12.5526  -16.5280   25.0611 O   0  0  0  0  0  0  0  0  0  0  0  0
  2  1  1  6
  2  4  1  0
  2  3  1  0
  4  5  2  0
  7  6  1  0
  7  8  1  0
  8  9  1  0
 10  9  1  1
 11  4  1  0
 11 10  1  0
 12 10  1  0
 12 14  1  0
 13 12  2  0
 15 14  1  0
 15 16  1  0
 16 17  1  0
 18 16  2  0
M  END
$$$$
