AMG.pdb
     RDKit          3D

 18 17  0  0  1  0  0  0  0  0999 V2000
    7.1591  -16.3052   19.8783 C   0  0  0  0  0  0  0  0  0  0  0  0
    7.2241  -14.8488   20.2031 C   0  0  2  0  0  0  0  0  0  0  0  0
    7.7468  -14.0994   19.1043 N   0  0  0  0  0  0  0  0  0  0  0  0
    7.9396  -14.5487   21.4601 C   0  0  0  0  0  0  0  0  0  0  0  0
    9.1890  -14.4094   21.4263 O   0  0  0  0  0  0  0  0  0  0  0  0
    6.8652  -10.4329   27.0265 C   0  0  0  0  0  0  0  0  0  0  0  0
    6.1940  -12.1359   27.0629 S   0  0  0  0  0  0  0  0  0  0  0  0
    7.3823  -13.2472   26.2558 C   0  0  0  0  0  0  0  0  0  0  0  0
    6.9389  -13.6070   24.8860 C   0  0  0  0  0  0  0  0  0  0  0  0
    7.9765  -14.2055   23.9785 C   0  0  2  0  0  0  0  0  0  0  0  0
    7.2752  -14.4114   22.7024 N   0  0  0  0  0  0  0  0  0  0  0  0
    8.5129  -15.5090   24.4532 C   0  0  0  0  0  0  0  0  0  0  0  0
    7.7038  -16.3934   24.9079 O   0  0  0  0  0  0  0  0  0  0  0  0
    9.8745  -15.8744   24.4464 N   0  0  0  0  0  0  0  0  0  0  0  0
   10.5602  -16.1919   25.7008 C   0  0  0  0  0  0  0  0  0  0  0  0
   10.6265  -17.6473   25.9245 C   0  0  0  0  0  0  0  0  0  0  0  0
   11.8219  -18.2730   26.2291 O   0  0  0  0  0  0  0  0  0  0  0  0
    9.5894  -18.3432   25.8402 O   0  0  0  0  0  0  0  0  0  0  0  0
  2  1  1  6
  2  4  1  0
  2  3  1  0
  4  5  2  0
  7  6  1  0
  7  8  1  0
  8  9  1  0
 10  9  1  1
 11  4  1  0
 11 10  1  0
 12 10  1  0
 12 14  1  0
 13 12  2  0
 15 14  1  0
 15 16  1  0
 16 17  1  0
 18 16  2  0
M  END
$$$$
