AMG.pdb
     RDKit          3D

 18 17  0  0  1  0  0  0  0  0999 V2000
    6.6493  -17.0198   20.2856 C   0  0  0  0  0  0  0  0  0  0  0  0
    7.2805  -15.6663   20.3047 C   0  0  2  0  0  0  0  0  0  0  0  0
    8.1633  -15.4945   19.1942 N   0  0  0  0  0  0  0  0  0  0  0  0
    7.9389  -15.3324   21.5842 C   0  0  0  0  0  0  0  0  0  0  0  0
    9.1885  -15.4458   21.6689 O   0  0  0  0  0  0  0  0  0  0  0  0
    6.6639  -10.9087   27.9951 C   0  0  0  0  0  0  0  0  0  0  0  0
    6.0694  -11.6648   26.4372 S   0  0  0  0  0  0  0  0  0  0  0  0
    7.3006  -12.8735   25.8701 C   0  0  0  0  0  0  0  0  0  0  0  0
    6.9145  -13.4636   24.5643 C   0  0  0  0  0  0  0  0  0  0  0  0
    7.8627  -14.4689   23.9737 C   0  0  2  0  0  0  0  0  0  0  0  0
    7.2196  -14.8897   22.7200 N   0  0  0  0  0  0  0  0  0  0  0  0
    8.0843  -15.6643   24.8305 C   0  0  0  0  0  0  0  0  0  0  0  0
    7.1353  -16.5126   24.9832 O   0  0  0  0  0  0  0  0  0  0  0  0
    9.2829  -15.9613   25.5107 N   0  0  0  0  0  0  0  0  0  0  0  0
    9.4139  -17.2091   26.2658 C   0  0  0  0  0  0  0  0  0  0  0  0
   10.8260  -17.5180   26.5541 C   0  0  0  0  0  0  0  0  0  0  0  0
   11.2110  -18.0451   27.7736 O   0  0  0  0  0  0  0  0  0  0  0  0
   11.7046  -17.3044   25.6886 O   0  0  0  0  0  0  0  0  0  0  0  0
  2  1  1  1
  2  4  1  0
  2  3  1  0
  4  5  2  0
  7  6  1  0
  7  8  1  0
  8  9  1  0
 10  9  1  1
 11  4  1  0
 11 10  1  0
 12 10  1  0
 12 14  1  0
 13 12  2  0
 15 14  1  0
 15 16  1  0
 16 17  1  0
 18 16  2  0
M  END
$$$$
