AMG.pdb
     RDKit          3D

 18 17  0  0  1  0  0  0  0  0999 V2000
    7.4217  -15.2230   19.8574 C   0  0  0  0  0  0  0  0  0  0  0  0
    7.2882  -13.9394   20.6092 C   0  0  2  0  0  0  0  0  0  0  0  0
    7.7939  -12.8415   19.8470 N   0  0  0  0  0  0  0  0  0  0  0  0
    7.8712  -13.9786   21.9659 C   0  0  0  0  0  0  0  0  0  0  0  0
    9.0664  -13.6196   22.1210 O   0  0  0  0  0  0  0  0  0  0  0  0
    6.4933  -10.4454   27.1166 C   0  0  0  0  0  0  0  0  0  0  0  0
    7.2100  -12.0771   26.6970 S   0  0  0  0  0  0  0  0  0  0  0  0
    6.0218  -12.9876   25.6687 C   0  0  0  0  0  0  0  0  0  0  0  0
    6.5097  -14.3557   25.3647 C   0  0  0  0  0  0  0  0  0  0  0  0
    7.7027  -14.4582   24.4565 C   0  0  2  0  0  0  0  0  0  0  0  0
    7.1384  -14.4044   23.0996 N   0  0  0  0  0  0  0  0  0  0  0  0
    8.4721  -15.7214   24.6122 C   0  0  0  0  0  0  0  0  0  0  0  0
    7.8472  -16.8094   24.8756 O   0  0  0  0  0  0  0  0  0  0  0  0
    9.8719  -15.8365   24.4903 N   0  0  0  0  0  0  0  0  0  0  0  0
   10.5228  -17.1383   24.6519 C   0  0  0  0  0  0  0  0  0  0  0  0
   11.9574  -17.0675   24.3208 C   0  0  0  0  0  0  0  0  0  0  0  0
   12.8359  -18.0587   24.7197 O   0  0  0  0  0  0  0  0  0  0  0  0
   12.4037  -16.0978   23.6671 O   0  0  0  0  0  0  0  0  0  0  0  0
  2  1  1  6
  2  4  1  0
  2  3  1  0
  4  5  2  0
  7  6  1  0
  7  8  1  0
  8  9  1  0
 10  9  1  1
 11  4  1  0
 11 10  1  0
 12 10  1  0
 12 14  1  0
 13 12  2  0
 15 14  1  0
 15 16  1  0
 16 17  1  0
 18 16  2  0
M  END
$$$$
