AMG.pdb
     RDKit          3D

 18 17  0  0  1  0  0  0  0  0999 V2000
    7.1470  -13.0676   19.8657 C   0  0  0  0  0  0  0  0  0  0  0  0
    7.7938  -14.2413   20.5251 C   0  0  2  0  0  0  0  0  0  0  0  0
    6.9300  -15.3796   20.5122 N   0  0  0  0  0  0  0  0  0  0  0  0
    8.3050  -13.9573   21.8816 C   0  0  0  0  0  0  0  0  0  0  0  0
    9.1938  -13.0786   22.0212 O   0  0  0  0  0  0  0  0  0  0  0  0
    5.9347  -10.9610   27.2707 C   0  0  0  0  0  0  0  0  0  0  0  0
    7.1056  -12.2726   26.7602 S   0  0  0  0  0  0  0  0  0  0  0  0
    6.2770  -13.3590   25.5638 C   0  0  0  0  0  0  0  0  0  0  0  0
    7.0998  -14.5571   25.2640 C   0  0  0  0  0  0  0  0  0  0  0  0
    8.3065  -14.3439   24.3939 C   0  0  2  0  0  0  0  0  0  0  0  0
    7.8347  -14.6349   23.0319 N   0  0  0  0  0  0  0  0  0  0  0  0
    9.4472  -15.2427   24.7147 C   0  0  0  0  0  0  0  0  0  0  0  0
    9.9472  -15.2268   25.8951 O   0  0  0  0  0  0  0  0  0  0  0  0
   10.0476  -16.1424   23.8104 N   0  0  0  0  0  0  0  0  0  0  0  0
   11.1683  -16.9822   24.2384 C   0  0  0  0  0  0  0  0  0  0  0  0
   11.6751  -17.8098   23.1290 C   0  0  0  0  0  0  0  0  0  0  0  0
   12.7041  -18.7141   23.3201 O   0  0  0  0  0  0  0  0  0  0  0  0
   11.1748  -17.7028   21.9866 O   0  0  0  0  0  0  0  0  0  0  0  0
  2  1  1  1
  2  4  1  0
  2  3  1  0
  4  5  2  0
  7  6  1  0
  7  8  1  0
  8  9  1  0
 10  9  1  1
 11  4  1  0
 11 10  1  0
 12 10  1  0
 12 14  1  0
 13 12  2  0
 15 14  1  0
 15 16  1  0
 16 17  1  0
 18 16  2  0
M  END
$$$$
