AMG.pdb
     RDKit          3D

 18 17  0  0  1  0  0  0  0  0999 V2000
    7.9971  -18.1758   21.3251 C   0  0  0  0  0  0  0  0  0  0  0  0
    7.8371  -16.7071   21.1062 C   0  0  2  0  0  0  0  0  0  0  0  0
    8.3403  -16.3197   19.8261 N   0  0  0  0  0  0  0  0  0  0  0  0
    8.4010  -15.8769   22.1902 C   0  0  0  0  0  0  0  0  0  0  0  0
    9.5441  -15.3759   22.0359 O   0  0  0  0  0  0  0  0  0  0  0  0
    6.5256  -10.8203   27.5177 C   0  0  0  0  0  0  0  0  0  0  0  0
    5.8912  -12.2418   26.5539 S   0  0  0  0  0  0  0  0  0  0  0  0
    7.2019  -13.4928   26.4309 C   0  0  0  0  0  0  0  0  0  0  0  0
    6.9904  -14.3816   25.2614 C   0  0  0  0  0  0  0  0  0  0  0  0
    8.2061  -14.7207   24.4456 C   0  0  2  0  0  0  0  0  0  0  0  0
    7.7062  -15.6223   23.3968 N   0  0  0  0  0  0  0  0  0  0  0  0
    9.2733  -15.4153   25.2142 C   0  0  0  0  0  0  0  0  0  0  0  0
    9.9095  -14.7755   26.1249 O   0  0  0  0  0  0  0  0  0  0  0  0
    9.6606  -16.7581   25.0287 N   0  0  0  0  0  0  0  0  0  0  0  0
   10.7893  -17.3117   25.7797 C   0  0  0  0  0  0  0  0  0  0  0  0
   10.3313  -18.0784   26.9524 C   0  0  0  0  0  0  0  0  0  0  0  0
   10.7269  -19.3886   27.1526 O   0  0  0  0  0  0  0  0  0  0  0  0
    9.5695  -17.5468   27.7913 O   0  0  0  0  0  0  0  0  0  0  0  0
  2  1  1  1
  2  4  1  0
  2  3  1  0
  4  5  2  0
  7  6  1  0
  7  8  1  0
  8  9  1  0
 10  9  1  1
 11  4  1  0
 11 10  1  0
 12 10  1  0
 12 14  1  0
 13 12  2  0
 15 14  1  0
 15 16  1  0
 16 17  1  0
 18 16  2  0
M  END
$$$$
