AMG.pdb
     RDKit          3D

 18 17  0  0  1  0  0  0  0  0999 V2000
    6.6624  -20.5261   23.4376 C   0  0  0  0  0  0  0  0  0  0  0  0
    5.7049  -19.3938   23.6163 C   0  0  2  0  0  0  0  0  0  0  0  0
    4.5415  -19.5709   22.8056 N   0  0  0  0  0  0  0  0  0  0  0  0
    6.3120  -18.0616   23.4191 C   0  0  0  0  0  0  0  0  0  0  0  0
    6.5881  -17.6901   22.2499 O   0  0  0  0  0  0  0  0  0  0  0  0
    7.1844  -11.0888   27.0384 C   0  0  0  0  0  0  0  0  0  0  0  0
    6.4632  -12.7693   26.9491 S   0  0  0  0  0  0  0  0  0  0  0  0
    7.2824  -13.6837   25.6108 C   0  0  0  0  0  0  0  0  0  0  0  0
    6.7117  -15.0454   25.4607 C   0  0  0  0  0  0  0  0  0  0  0  0
    7.2384  -15.8740   24.3230 C   0  0  2  0  0  0  0  0  0  0  0  0
    6.5959  -17.1856   24.4940 N   0  0  0  0  0  0  0  0  0  0  0  0
    8.7151  -16.0512   24.3396 C   0  0  0  0  0  0  0  0  0  0  0  0
    9.2338  -16.9295   25.1160 O   0  0  0  0  0  0  0  0  0  0  0  0
    9.6268  -15.3194   23.5517 N   0  0  0  0  0  0  0  0  0  0  0  0
   10.9469  -15.8730   23.2434 C   0  0  0  0  0  0  0  0  0  0  0  0
   11.8559  -15.7728   24.3995 C   0  0  0  0  0  0  0  0  0  0  0  0
   13.2250  -15.9008   24.2494 O   0  0  0  0  0  0  0  0  0  0  0  0
   11.3944  -15.5686   25.5450 O   0  0  0  0  0  0  0  0  0  0  0  0
  2  1  1  6
  2  4  1  0
  2  3  1  0
  4  5  2  0
  7  6  1  0
  7  8  1  0
  8  9  1  0
 10  9  1  1
 11  4  1  0
 11 10  1  0
 12 10  1  0
 12 14  1  0
 13 12  2  0
 15 14  1  0
 15 16  1  0
 16 17  1  0
 18 16  2  0
M  END
$$$$
