AMG.pdb
     RDKit          3D

 18 17  0  0  1  0  0  0  0  0999 V2000
    7.4235  -14.0371   19.4789 C   0  0  0  0  0  0  0  0  0  0  0  0
    8.0261  -15.0154   20.4333 C   0  0  2  0  0  0  0  0  0  0  0  0
    7.1964  -16.1696   20.5794 N   0  0  0  0  0  0  0  0  0  0  0  0
    8.3850  -14.4300   21.7412 C   0  0  0  0  0  0  0  0  0  0  0  0
    9.2888  -13.5567   21.7852 O   0  0  0  0  0  0  0  0  0  0  0  0
    6.9244  -11.2769   28.0248 C   0  0  0  0  0  0  0  0  0  0  0  0
    6.9414  -11.9553   26.3244 S   0  0  0  0  0  0  0  0  0  0  0  0
    6.8376  -13.7660   26.4192 C   0  0  0  0  0  0  0  0  0  0  0  0
    6.8303  -14.3768   25.0667 C   0  0  0  0  0  0  0  0  0  0  0  0
    8.0895  -14.2365   24.2584 C   0  0  2  0  0  0  0  0  0  0  0  0
    7.7522  -14.8126   22.9481 N   0  0  0  0  0  0  0  0  0  0  0  0
    9.2539  -14.9681   24.8249 C   0  0  0  0  0  0  0  0  0  0  0  0
    9.8532  -14.4945   25.8545 O   0  0  0  0  0  0  0  0  0  0  0  0
    9.7749  -16.1762   24.3181 N   0  0  0  0  0  0  0  0  0  0  0  0
   10.8679  -16.8586   25.0139 C   0  0  0  0  0  0  0  0  0  0  0  0
   10.3641  -17.6924   26.1202 C   0  0  0  0  0  0  0  0  0  0  0  0
    9.0116  -17.7764   26.3974 O   0  0  0  0  0  0  0  0  0  0  0  0
   11.1638  -18.3421   26.8309 O   0  0  0  0  0  0  0  0  0  0  0  0
  2  1  1  6
  2  4  1  0
  2  3  1  0
  4  5  2  0
  7  6  1  0
  7  8  1  0
  8  9  1  0
 10  9  1  1
 11  4  1  0
 11 10  1  0
 12 10  1  0
 12 14  1  0
 13 12  2  0
 15 14  1  0
 15 16  1  0
 16 17  1  0
 18 16  2  0
M  END
$$$$
