HGW.pdb
     RDKit          3D

 29 31  0  0  1  0  0  0  0  0999 V2000
   24.4669  -19.9364  -16.2848 N   0  0  0  0  0  0  0  0  0  0  0  0
   23.7847  -19.7849  -15.0191 C   0  0  1  0  0  0  0  0  0  0  0  0
   22.6992  -20.8410  -14.9556 C   0  0  0  0  0  0  0  0  0  0  0  0
   21.6557  -20.4905  -15.9596 C   0  0  0  0  0  0  0  0  0  0  0  0
   20.6748  -19.5415  -15.8310 C   0  0  0  0  0  0  0  0  0  0  0  0
   19.9247  -19.5226  -16.9584 N   0  0  0  0  0  0  0  0  0  0  0  0
   20.4295  -20.4591  -17.8017 C   0  0  0  0  0  0  0  0  0  0  0  0
   21.4769  -21.0396  -17.1885 N   0  0  0  0  0  0  0  0  0  0  0  0
   24.7541  -19.9257  -13.9197 C   0  0  0  0  0  0  0  0  0  0  0  0
   24.3763  -19.8301  -12.7171 O   0  0  0  0  0  0  0  0  0  0  0  0
   26.1504  -20.1728  -14.1242 N   0  0  0  0  0  0  0  0  0  0  0  0
   27.0636  -20.2498  -13.0127 C   0  0  0  0  0  0  0  0  0  0  0  0
   26.5072  -21.1058  -11.9161 C   0  0  0  0  0  0  0  0  0  0  0  0
   25.9738  -22.1815  -12.2179 O   0  0  0  0  0  0  0  0  0  0  0  0
   26.5752  -20.7190  -10.5516 N   0  0  0  0  0  0  0  0  0  0  0  0
   26.1403  -21.5450   -9.4616 C   0  0  1  0  0  0  0  0  0  0  0  0
   27.1598  -21.6547   -8.3652 C   0  0  0  0  0  0  0  0  0  0  0  0
   27.4661  -20.4238   -7.6485 C   0  0  0  0  0  0  0  0  0  0  0  0
   27.1393  -19.1406   -8.0240 C   0  0  0  0  0  0  0  0  0  0  0  0
   27.6022  -18.2536   -7.1265 N   0  0  0  0  0  0  0  0  0  0  0  0
   28.2258  -18.9531   -6.1726 C   0  0  0  0  0  0  0  0  0  0  0  0
   28.8564  -18.4943   -5.0378 C   0  0  0  0  0  0  0  0  0  0  0  0
   29.4530  -19.3666   -4.1379 C   0  0  0  0  0  0  0  0  0  0  0  0
   29.3836  -20.7102   -4.4341 C   0  0  0  0  0  0  0  0  0  0  0  0
   28.7538  -21.1706   -5.5682 C   0  0  0  0  0  0  0  0  0  0  0  0
   28.1584  -20.3023   -6.4679 C   0  0  0  0  0  0  0  0  0  0  0  0
   24.8599  -21.1097   -8.8763 C   0  0  0  0  0  0  0  0  0  0  0  0
   24.3671  -20.0280   -9.2837 O   0  0  0  0  0  0  0  0  0  0  0  0
   24.1537  -21.8048   -7.9064 O   0  0  0  0  0  0  0  0  0  0  0  0
  2  1  1  6
  2  9  1  0
  3  4  1  0
  3  2  1  0
  4  5  2  0
  5  6  1  0
  7  6  1  0
  8  4  1  0
  8  7  2  0
  9 11  1  0
  9 10  2  0
 11 12  1  0
 12 13  1  0
 13 14  2  0
 15 16  1  0
 15 13  1  0
 16 27  1  0
 16 17  1  1
 18 19  2  0
 18 17  1  0
 20 19  1  0
 21 26  2  0
 21 20  1  0
 22 21  1  0
 23 24  1  0
 23 22  2  0
 24 25  2  0
 25 26  1  0
 26 18  1  0
 27 29  1  0
 28 27  2  0
M  END
$$$$
