HGW.pdb
     RDKit          3D

 29 31  0  0  1  0  0  0  0  0999 V2000
   15.4742  -28.9514    0.9859 N   0  0  0  0  0  0  0  0  0  0  0  0
   15.5507  -30.0179    1.9591 C   0  0  1  0  0  0  0  0  0  0  0  0
   16.1285  -31.2331    1.2612 C   0  0  0  0  0  0  0  0  0  0  0  0
   15.1265  -31.7149    0.2694 C   0  0  0  0  0  0  0  0  0  0  0  0
   15.3257  -31.9142   -1.0723 C   0  0  0  0  0  0  0  0  0  0  0  0
   14.1744  -32.3574   -1.6310 N   0  0  0  0  0  0  0  0  0  0  0  0
   13.2454  -32.4391   -0.6444 C   0  0  0  0  0  0  0  0  0  0  0  0
   13.8309  -32.0483    0.5020 N   0  0  0  0  0  0  0  0  0  0  0  0
   16.3843  -29.5873    3.0940 C   0  0  0  0  0  0  0  0  0  0  0  0
   16.6096  -30.3741    4.0575 O   0  0  0  0  0  0  0  0  0  0  0  0
   16.9817  -28.2885    3.1877 N   0  0  0  0  0  0  0  0  0  0  0  0
   17.8102  -27.9292    4.3100 C   0  0  0  0  0  0  0  0  0  0  0  0
   16.9807  -27.4413    5.4583 C   0  0  0  0  0  0  0  0  0  0  0  0
   15.7524  -27.3787    5.3165 O   0  0  0  0  0  0  0  0  0  0  0  0
   17.5614  -27.0525    6.6944 N   0  0  0  0  0  0  0  0  0  0  0  0
   16.8068  -26.5910    7.8245 C   0  0  1  0  0  0  0  0  0  0  0  0
   17.4403  -26.9472    9.1381 C   0  0  0  0  0  0  0  0  0  0  0  0
   18.8374  -26.5674    9.3005 C   0  0  0  0  0  0  0  0  0  0  0  0
   19.3342  -25.3031    9.5221 C   0  0  0  0  0  0  0  0  0  0  0  0
   20.6757  -25.3300    9.6012 N   0  0  0  0  0  0  0  0  0  0  0  0
   21.0509  -26.6024    9.4329 C   0  0  0  0  0  0  0  0  0  0  0  0
   22.3201  -27.1364    9.4379 C   0  0  0  0  0  0  0  0  0  0  0  0
   22.5347  -28.4954    9.2542 C   0  0  0  0  0  0  0  0  0  0  0  0
   21.4194  -29.2821    9.0674 C   0  0  0  0  0  0  0  0  0  0  0  0
   20.1499  -28.7500    9.0618 C   0  0  0  0  0  0  0  0  0  0  0  0
   19.9332  -27.3944    9.2442 C   0  0  0  0  0  0  0  0  0  0  0  0
   16.5504  -25.1402    7.8000 C   0  0  0  0  0  0  0  0  0  0  0  0
   17.2745  -24.4296    7.0587 O   0  0  0  0  0  0  0  0  0  0  0  0
   15.5670  -24.4956    8.5351 O   0  0  0  0  0  0  0  0  0  0  0  0
  2  1  1  6
  2  9  1  0
  3  4  1  0
  3  2  1  0
  4  5  2  0
  5  6  1  0
  7  6  1  0
  8  4  1  0
  8  7  2  0
  9 11  1  0
  9 10  2  0
 11 12  1  0
 12 13  1  0
 13 14  2  0
 15 16  1  0
 15 13  1  0
 16 27  1  0
 16 17  1  1
 18 19  2  0
 18 17  1  0
 20 19  1  0
 21 26  2  0
 21 20  1  0
 22 21  1  0
 23 24  1  0
 23 22  2  0
 24 25  2  0
 25 26  1  0
 26 18  1  0
 27 29  1  0
 28 27  2  0
M  END
$$$$
