HGW.pdb
     RDKit          3D

 29 31  0  0  1  0  0  0  0  0999 V2000
   26.1338  -18.2103  -15.8157 N   0  0  0  0  0  0  0  0  0  0  0  0
   26.2105  -18.7743  -14.4867 C   0  0  1  0  0  0  0  0  0  0  0  0
   25.1162  -19.8164  -14.3685 C   0  0  0  0  0  0  0  0  0  0  0  0
   23.8093  -19.1417  -14.6065 C   0  0  0  0  0  0  0  0  0  0  0  0
   23.5243  -17.8126  -14.4285 C   0  0  0  0  0  0  0  0  0  0  0  0
   22.2283  -17.5893  -14.7521 N   0  0  0  0  0  0  0  0  0  0  0  0
   21.6917  -18.7760  -15.1351 C   0  0  0  0  0  0  0  0  0  0  0  0
   22.6560  -19.7095  -15.0437 N   0  0  0  0  0  0  0  0  0  0  0  0
   27.5475  -19.3544  -14.2766 C   0  0  0  0  0  0  0  0  0  0  0  0
   28.5636  -18.8336  -14.8192 O   0  0  0  0  0  0  0  0  0  0  0  0
   27.7881  -20.5132  -13.4692 N   0  0  0  0  0  0  0  0  0  0  0  0
   28.7470  -20.4858  -12.3945 C   0  0  0  0  0  0  0  0  0  0  0  0
   28.1855  -21.1123  -11.1548 C   0  0  0  0  0  0  0  0  0  0  0  0
   28.8508  -21.9828  -10.5782 O   0  0  0  0  0  0  0  0  0  0  0  0
   26.9213  -20.7370  -10.6283 N   0  0  0  0  0  0  0  0  0  0  0  0
   26.1685  -21.5362   -9.7041 C   0  0  1  0  0  0  0  0  0  0  0  0
   26.8286  -21.6591   -8.3614 C   0  0  0  0  0  0  0  0  0  0  0  0
   27.0692  -20.4117   -7.6482 C   0  0  0  0  0  0  0  0  0  0  0  0
   26.5998  -19.1611   -7.9802 C   0  0  0  0  0  0  0  0  0  0  0  0
   27.0402  -18.2431   -7.1028 N   0  0  0  0  0  0  0  0  0  0  0  0
   27.7909  -18.8902   -6.2051 C   0  0  0  0  0  0  0  0  0  0  0  0
   28.4541  -18.3850   -5.1093 C   0  0  0  0  0  0  0  0  0  0  0  0
   29.1902  -19.2062   -4.2663 C   0  0  0  0  0  0  0  0  0  0  0  0
   29.2247  -20.5476   -4.5780 C   0  0  0  0  0  0  0  0  0  0  0  0
   28.5625  -21.0543   -5.6734 C   0  0  0  0  0  0  0  0  0  0  0  0
   27.8281  -20.2370   -6.5163 C   0  0  0  0  0  0  0  0  0  0  0  0
   24.7880  -21.0582   -9.5116 C   0  0  0  0  0  0  0  0  0  0  0  0
   24.3968  -20.0966  -10.2194 O   0  0  0  0  0  0  0  0  0  0  0  0
   23.8832  -21.5902   -8.6054 O   0  0  0  0  0  0  0  0  0  0  0  0
  2  1  1  6
  2  9  1  0
  3  4  1  0
  3  2  1  0
  4  5  2  0
  5  6  1  0
  7  6  1  0
  8  4  1  0
  8  7  2  0
  9 11  1  0
  9 10  2  0
 11 12  1  0
 12 13  1  0
 13 14  2  0
 15 16  1  0
 15 13  1  0
 16 27  1  0
 16 17  1  1
 18 19  2  0
 18 17  1  0
 20 19  1  0
 21 26  2  0
 21 20  1  0
 22 21  1  0
 23 24  1  0
 23 22  2  0
 24 25  2  0
 25 26  1  0
 26 18  1  0
 27 29  1  0
 28 27  2  0
M  END
$$$$
