HGW.pdb
     RDKit          3D

 29 31  0  0  1  0  0  0  0  0999 V2000
   26.0782  -21.9346  -16.6663 N   0  0  0  0  0  0  0  0  0  0  0  0
   25.2646  -20.9179  -16.0380 C   0  0  1  0  0  0  0  0  0  0  0  0
   23.8448  -21.4448  -15.9724 C   0  0  0  0  0  0  0  0  0  0  0  0
   23.2814  -21.4248  -17.3515 C   0  0  0  0  0  0  0  0  0  0  0  0
   22.7460  -20.3462  -18.0069 C   0  0  0  0  0  0  0  0  0  0  0  0
   22.3437  -20.7316  -19.2412 N   0  0  0  0  0  0  0  0  0  0  0  0
   22.6237  -22.0539  -19.3687 C   0  0  0  0  0  0  0  0  0  0  0  0
   23.1910  -22.4645  -18.2201 N   0  0  0  0  0  0  0  0  0  0  0  0
   25.8020  -20.6169  -14.7005 C   0  0  0  0  0  0  0  0  0  0  0  0
   25.2504  -19.7445  -13.9707 O   0  0  0  0  0  0  0  0  0  0  0  0
   26.9511  -21.2682  -14.1458 N   0  0  0  0  0  0  0  0  0  0  0  0
   27.4076  -20.9658  -12.8133 C   0  0  0  0  0  0  0  0  0  0  0  0
   26.4017  -21.3937  -11.7887 C   0  0  0  0  0  0  0  0  0  0  0  0
   25.4365  -22.0766  -12.1561 O   0  0  0  0  0  0  0  0  0  0  0  0
   26.5253  -21.0398  -10.4192 N   0  0  0  0  0  0  0  0  0  0  0  0
   25.6606  -21.5289   -9.3835 C   0  0  1  0  0  0  0  0  0  0  0  0
   26.3510  -21.6633   -8.0573 C   0  0  0  0  0  0  0  0  0  0  0  0
   26.8459  -20.4283   -7.4637 C   0  0  0  0  0  0  0  0  0  0  0  0
   26.5692  -19.1425   -7.8692 C   0  0  0  0  0  0  0  0  0  0  0  0
   27.2174  -18.2538   -7.0968 N   0  0  0  0  0  0  0  0  0  0  0  0
   27.9113  -18.9549   -6.1940 C   0  0  0  0  0  0  0  0  0  0  0  0
   28.7253  -18.4946   -5.1832 C   0  0  0  0  0  0  0  0  0  0  0  0
   29.3720  -19.3681   -4.3198 C   0  0  0  0  0  0  0  0  0  0  0  0
   29.1604  -20.7142   -4.5221 C   0  0  0  0  0  0  0  0  0  0  0  0
   28.3472  -21.1761   -5.5323 C   0  0  0  0  0  0  0  0  0  0  0  0
   27.7014  -20.3067   -6.3954 C   0  0  0  0  0  0  0  0  0  0  0  0
   24.4466  -20.7130   -9.2053 C   0  0  0  0  0  0  0  0  0  0  0  0
   24.4430  -19.5541   -9.6908 O   0  0  0  0  0  0  0  0  0  0  0  0
   23.3026  -21.1275   -8.5403 O   0  0  0  0  0  0  0  0  0  0  0  0
  2  1  1  1
  2  9  1  0
  3  4  1  0
  3  2  1  0
  4  5  2  0
  5  6  1  0
  7  6  1  0
  8  4  1  0
  8  7  2  0
  9 11  1  0
  9 10  2  0
 11 12  1  0
 12 13  1  0
 13 14  2  0
 15 16  1  0
 15 13  1  0
 16 27  1  0
 16 17  1  1
 18 19  2  0
 18 17  1  0
 20 19  1  0
 21 26  2  0
 21 20  1  0
 22 21  1  0
 23 24  1  0
 23 22  2  0
 24 25  2  0
 25 26  1  0
 26 18  1  0
 27 29  1  0
 28 27  2  0
M  END
$$$$
