HGW.pdb
     RDKit          3D

 29 31  0  0  1  0  0  0  0  0999 V2000
   25.5282  -17.1312  -15.4908 N   0  0  0  0  0  0  0  0  0  0  0  0
   26.6662  -17.6743  -16.1979 C   0  0  1  0  0  0  0  0  0  0  0  0
   27.4964  -16.5068  -16.6932 C   0  0  0  0  0  0  0  0  0  0  0  0
   26.6657  -15.7237  -17.6506 C   0  0  0  0  0  0  0  0  0  0  0  0
   26.4027  -16.0359  -18.9594 C   0  0  0  0  0  0  0  0  0  0  0  0
   25.6090  -15.0773  -19.4935 N   0  0  0  0  0  0  0  0  0  0  0  0
   25.3687  -14.1577  -18.5242 C   0  0  0  0  0  0  0  0  0  0  0  0
   26.0123  -14.5575  -17.4125 N   0  0  0  0  0  0  0  0  0  0  0  0
   27.4321  -18.5502  -15.2954 C   0  0  0  0  0  0  0  0  0  0  0  0
   27.8009  -18.1337  -14.1602 O   0  0  0  0  0  0  0  0  0  0  0  0
   27.8038  -19.8938  -15.6255 N   0  0  0  0  0  0  0  0  0  0  0  0
   28.7199  -20.6373  -14.7990 C   0  0  0  0  0  0  0  0  0  0  0  0
   27.9932  -21.3695  -13.7125 C   0  0  0  0  0  0  0  0  0  0  0  0
   28.6010  -22.2413  -13.0773 O   0  0  0  0  0  0  0  0  0  0  0  0
   26.6374  -21.0921  -13.3947 N   0  0  0  0  0  0  0  0  0  0  0  0
   25.9210  -21.7199  -12.3213 C   0  0  1  0  0  0  0  0  0  0  0  0
   26.7640  -21.9305  -11.0971 C   0  0  0  0  0  0  0  0  0  0  0  0
   26.4465  -21.0937   -9.9477 C   0  0  0  0  0  0  0  0  0  0  0  0
   25.2243  -20.5451   -9.6319 C   0  0  0  0  0  0  0  0  0  0  0  0
   25.3111  -19.8139   -8.5074 N   0  0  0  0  0  0  0  0  0  0  0  0
   26.5804  -19.8856   -8.0928 C   0  0  0  0  0  0  0  0  0  0  0  0
   27.1606  -19.3097   -6.9847 C   0  0  0  0  0  0  0  0  0  0  0  0
   28.5051  -19.4940   -6.6931 C   0  0  0  0  0  0  0  0  0  0  0  0
   29.2290  -20.2791   -7.5634 C   0  0  0  0  0  0  0  0  0  0  0  0
   28.6506  -20.8553   -8.6717 C   0  0  0  0  0  0  0  0  0  0  0  0
   27.3096  -20.6724   -8.9652 C   0  0  0  0  0  0  0  0  0  0  0  0
   24.6978  -20.9945  -11.9352 C   0  0  0  0  0  0  0  0  0  0  0  0
   23.8091  -21.6320  -11.3166 O   0  0  0  0  0  0  0  0  0  0  0  0
   24.4508  -19.6566  -12.2031 O   0  0  0  0  0  0  0  0  0  0  0  0
  2  1  1  1
  2  9  1  0
  3  4  1  0
  3  2  1  0
  4  5  2  0
  5  6  1  0
  7  6  1  0
  8  4  1  0
  8  7  2  0
  9 11  1  0
  9 10  2  0
 11 12  1  0
 12 13  1  0
 13 14  2  0
 15 16  1  0
 15 13  1  0
 16 27  1  0
 16 17  1  1
 18 19  2  0
 18 17  1  0
 20 19  1  0
 21 26  2  0
 21 20  1  0
 22 21  1  0
 23 24  1  0
 23 22  2  0
 24 25  2  0
 25 26  1  0
 26 18  1  0
 27 29  1  0
 28 27  2  0
M  END
$$$$
