HGW.pdb
     RDKit          3D

 29 31  0  0  1  0  0  0  0  0999 V2000
   27.6020  -22.2538  -16.7247 N   0  0  0  0  0  0  0  0  0  0  0  0
   27.0273  -20.9310  -16.6235 C   0  0  1  0  0  0  0  0  0  0  0  0
   25.5765  -21.0290  -17.0517 C   0  0  0  0  0  0  0  0  0  0  0  0
   25.5343  -21.0282  -18.5410 C   0  0  0  0  0  0  0  0  0  0  0  0
   24.9529  -21.9709  -19.3489 C   0  0  0  0  0  0  0  0  0  0  0  0
   25.1263  -21.6137  -20.6437 N   0  0  0  0  0  0  0  0  0  0  0  0
   25.8171  -20.4452  -20.6571 C   0  0  0  0  0  0  0  0  0  0  0  0
   26.0596  -20.0987  -19.3800 N   0  0  0  0  0  0  0  0  0  0  0  0
   27.1609  -20.4427  -15.2408 C   0  0  0  0  0  0  0  0  0  0  0  0
   26.5482  -19.4018  -14.8676 O   0  0  0  0  0  0  0  0  0  0  0  0
   27.9681  -21.0889  -14.2492 N   0  0  0  0  0  0  0  0  0  0  0  0
   28.0903  -20.5474  -12.9199 C   0  0  0  0  0  0  0  0  0  0  0  0
   26.9880  -21.0408  -12.0333 C   0  0  0  0  0  0  0  0  0  0  0  0
   26.0215  -21.6136  -12.5536 O   0  0  0  0  0  0  0  0  0  0  0  0
   27.0225  -20.8705  -10.6240 N   0  0  0  0  0  0  0  0  0  0  0  0
   26.0671  -21.4492   -9.7230 C   0  0  1  0  0  0  0  0  0  0  0  0
   26.6412  -21.7410   -8.3669 C   0  0  0  0  0  0  0  0  0  0  0  0
   27.2001  -20.6035   -7.6486 C   0  0  0  0  0  0  0  0  0  0  0  0
   26.9909  -19.2692   -7.9139 C   0  0  0  0  0  0  0  0  0  0  0  0
   27.6848  -18.5025   -7.0553 N   0  0  0  0  0  0  0  0  0  0  0  0
   28.3413  -19.3305   -6.2359 C   0  0  0  0  0  0  0  0  0  0  0  0
   29.1783  -19.0231   -5.1867 C   0  0  0  0  0  0  0  0  0  0  0  0
   29.7786  -20.0157   -4.4244 C   0  0  0  0  0  0  0  0  0  0  0  0
   29.4969  -21.3199   -4.7672 C   0  0  0  0  0  0  0  0  0  0  0  0
   28.6605  -21.6290   -5.8159 C   0  0  0  0  0  0  0  0  0  0  0  0
   28.0610  -20.6405   -6.5783 C   0  0  0  0  0  0  0  0  0  0  0  0
   24.8531  -20.6306   -9.5575 C   0  0  0  0  0  0  0  0  0  0  0  0
   24.9084  -19.4238   -9.9032 O   0  0  0  0  0  0  0  0  0  0  0  0
   23.6488  -21.0914   -9.0475 O   0  0  0  0  0  0  0  0  0  0  0  0
  2  1  1  1
  2  9  1  0
  3  4  1  0
  3  2  1  0
  4  5  2  0
  5  6  1  0
  7  6  1  0
  8  4  1  0
  8  7  2  0
  9 11  1  0
  9 10  2  0
 11 12  1  0
 12 13  1  0
 13 14  2  0
 15 16  1  0
 15 13  1  0
 16 27  1  0
 16 17  1  1
 18 19  2  0
 18 17  1  0
 20 19  1  0
 21 26  2  0
 21 20  1  0
 22 21  1  0
 23 24  1  0
 23 22  2  0
 24 25  2  0
 25 26  1  0
 26 18  1  0
 27 29  1  0
 28 27  2  0
M  END
$$$$
