HGW.pdb
     RDKit          3D

 29 31  0  0  1  0  0  0  0  0999 V2000
   30.0322  -23.6803    9.7188 N   0  0  0  0  0  0  0  0  0  0  0  0
   29.4505  -24.9208   10.1804 C   0  0  1  0  0  0  0  0  0  0  0  0
   29.6182  -24.9720   11.6860 C   0  0  0  0  0  0  0  0  0  0  0  0
   31.0463  -25.2781   11.9806 C   0  0  0  0  0  0  0  0  0  0  0  0
   31.6523  -26.5068   11.9316 C   0  0  0  0  0  0  0  0  0  0  0  0
   32.9577  -26.3717   12.2657 N   0  0  0  0  0  0  0  0  0  0  0  0
   33.1796  -25.0581   12.5267 C   0  0  0  0  0  0  0  0  0  0  0  0
   32.0171  -24.4041   12.3515 N   0  0  0  0  0  0  0  0  0  0  0  0
   28.0338  -24.9761    9.7826 C   0  0  0  0  0  0  0  0  0  0  0  0
   27.3261  -25.9823   10.0738 O   0  0  0  0  0  0  0  0  0  0  0  0
   27.3745  -23.9292    9.0601 N   0  0  0  0  0  0  0  0  0  0  0  0
   26.0129  -24.0760    8.6133 C   0  0  0  0  0  0  0  0  0  0  0  0
   25.0653  -24.1077    9.7733 C   0  0  0  0  0  0  0  0  0  0  0  0
   25.5059  -23.8636   10.9043 O   0  0  0  0  0  0  0  0  0  0  0  0
   23.6869  -24.4075    9.6110 N   0  0  0  0  0  0  0  0  0  0  0  0
   22.7304  -24.3860   10.6807 C   0  0  1  0  0  0  0  0  0  0  0  0
   22.6853  -23.0698   11.4012 C   0  0  0  0  0  0  0  0  0  0  0  0
   22.1470  -21.9446   10.6486 C   0  0  0  0  0  0  0  0  0  0  0  0
   22.8595  -20.9524   10.0143 C   0  0  0  0  0  0  0  0  0  0  0  0
   22.0274  -20.0688    9.4369 N   0  0  0  0  0  0  0  0  0  0  0  0
   20.7815  -20.4819    9.6923 C   0  0  0  0  0  0  0  0  0  0  0  0
   19.5876  -19.9142    9.3074 C   0  0  0  0  0  0  0  0  0  0  0  0
   18.3700  -20.4831    9.6547 C   0  0  0  0  0  0  0  0  0  0  0  0
   18.4137  -21.6404   10.4007 C   0  0  0  0  0  0  0  0  0  0  0  0
   19.6065  -22.2092   10.7865 C   0  0  0  0  0  0  0  0  0  0  0  0
   20.8225  -21.6431   10.4419 C   0  0  0  0  0  0  0  0  0  0  0  0
   21.3660  -24.7368   10.2486 C   0  0  0  0  0  0  0  0  0  0  0  0
   20.4734  -24.8121   11.1298 O   0  0  0  0  0  0  0  0  0  0  0  0
   20.9893  -24.9911    8.9385 O   0  0  0  0  0  0  0  0  0  0  0  0
  2  1  1  1
  2  9  1  0
  3  4  1  0
  3  2  1  0
  4  5  2  0
  5  6  1  0
  7  6  1  0
  8  4  1  0
  8  7  2  0
  9 11  1  0
  9 10  2  0
 11 12  1  0
 12 13  1  0
 13 14  2  0
 15 16  1  0
 15 13  1  0
 16 27  1  0
 16 17  1  6
 18 19  2  0
 18 17  1  0
 20 19  1  0
 21 26  2  0
 21 20  1  0
 22 21  1  0
 23 24  1  0
 23 22  2  0
 24 25  2  0
 25 26  1  0
 26 18  1  0
 27 29  1  0
 28 27  2  0
M  END
$$$$
