HGW.pdb
     RDKit          3D

 29 31  0  0  1  0  0  0  0  0999 V2000
   26.7023  -20.9163  -17.2014 N   0  0  0  0  0  0  0  0  0  0  0  0
   26.1320  -20.3017  -16.0235 C   0  0  1  0  0  0  0  0  0  0  0  0
   24.6332  -20.5225  -16.0728 C   0  0  0  0  0  0  0  0  0  0  0  0
   24.0893  -19.7403  -17.2184 C   0  0  0  0  0  0  0  0  0  0  0  0
   23.8661  -20.1933  -18.4928 C   0  0  0  0  0  0  0  0  0  0  0  0
   23.3654  -19.1823  -19.2420 N   0  0  0  0  0  0  0  0  0  0  0  0
   23.2711  -18.0887  -18.4433 C   0  0  0  0  0  0  0  0  0  0  0  0
   23.7115  -18.4360  -17.2205 N   0  0  0  0  0  0  0  0  0  0  0  0
   26.7362  -20.8956  -14.8191 C   0  0  0  0  0  0  0  0  0  0  0  0
   26.9347  -22.1422  -14.7510 O   0  0  0  0  0  0  0  0  0  0  0  0
   27.1303  -20.1307  -13.6736 N   0  0  0  0  0  0  0  0  0  0  0  0
   27.6691  -20.7704  -12.5007 C   0  0  0  0  0  0  0  0  0  0  0  0
   26.5781  -21.1659  -11.5531 C   0  0  0  0  0  0  0  0  0  0  0  0
   25.4993  -21.5533  -12.0211 O   0  0  0  0  0  0  0  0  0  0  0  0
   26.7475  -21.1089  -10.1444 N   0  0  0  0  0  0  0  0  0  0  0  0
   25.7381  -21.4930   -9.1994 C   0  0  1  0  0  0  0  0  0  0  0  0
   26.2395  -21.5230   -7.7848 C   0  0  0  0  0  0  0  0  0  0  0  0
   26.9582  -20.3387   -7.3337 C   0  0  0  0  0  0  0  0  0  0  0  0
   26.8701  -19.0662   -7.8509 C   0  0  0  0  0  0  0  0  0  0  0  0
   27.6940  -18.2315   -7.1944 N   0  0  0  0  0  0  0  0  0  0  0  0
   28.3145  -18.9541   -6.2558 C   0  0  0  0  0  0  0  0  0  0  0  0
   29.2458  -18.5462   -5.3273 C   0  0  0  0  0  0  0  0  0  0  0  0
   29.7899  -19.4339   -4.4093 C   0  0  0  0  0  0  0  0  0  0  0  0
   29.3539  -20.7391   -4.4716 C   0  0  0  0  0  0  0  0  0  0  0  0
   28.4230  -21.1487   -5.3994 C   0  0  0  0  0  0  0  0  0  0  0  0
   27.8793  -20.2652   -6.3168 C   0  0  0  0  0  0  0  0  0  0  0  0
   24.5338  -20.6458   -9.2575 C   0  0  0  0  0  0  0  0  0  0  0  0
   24.6416  -19.5095   -9.7830 O   0  0  0  0  0  0  0  0  0  0  0  0
   23.2851  -21.0075   -8.7750 O   0  0  0  0  0  0  0  0  0  0  0  0
  2  1  1  6
  2  9  1  0
  3  4  1  0
  3  2  1  0
  4  5  2  0
  5  6  1  0
  7  6  1  0
  8  4  1  0
  8  7  2  0
  9 11  1  0
  9 10  2  0
 11 12  1  0
 12 13  1  0
 13 14  2  0
 15 16  1  0
 15 13  1  0
 16 27  1  0
 16 17  1  1
 18 19  2  0
 18 17  1  0
 20 19  1  0
 21 26  2  0
 21 20  1  0
 22 21  1  0
 23 24  1  0
 23 22  2  0
 24 25  2  0
 25 26  1  0
 26 18  1  0
 27 29  1  0
 28 27  2  0
M  END
$$$$
