HGW.pdb
     RDKit          3D

 29 31  0  0  1  0  0  0  0  0999 V2000
   25.5310  -18.2608  -16.7417 N   0  0  0  0  0  0  0  0  0  0  0  0
   25.5901  -17.5933  -15.4605 C   0  0  1  0  0  0  0  0  0  0  0  0
   24.2545  -17.8015  -14.7747 C   0  0  0  0  0  0  0  0  0  0  0  0
   23.1938  -17.2199  -15.6445 C   0  0  0  0  0  0  0  0  0  0  0  0
   22.0757  -17.8566  -16.1174 C   0  0  0  0  0  0  0  0  0  0  0  0
   21.3580  -16.9913  -16.8725 N   0  0  0  0  0  0  0  0  0  0  0  0
   22.0206  -15.8064  -16.8787 C   0  0  0  0  0  0  0  0  0  0  0  0
   23.1303  -15.9545  -16.1328 N   0  0  0  0  0  0  0  0  0  0  0  0
   26.7052  -18.1436  -14.6719 C   0  0  0  0  0  0  0  0  0  0  0  0
   26.9593  -17.6896  -13.5197 O   0  0  0  0  0  0  0  0  0  0  0  0
   27.5563  -19.1984  -15.1360 N   0  0  0  0  0  0  0  0  0  0  0  0
   28.6060  -19.7287  -14.3040 C   0  0  0  0  0  0  0  0  0  0  0  0
   28.0653  -20.7222  -13.3215 C   0  0  0  0  0  0  0  0  0  0  0  0
   28.8529  -21.5120  -12.7843 O   0  0  0  0  0  0  0  0  0  0  0  0
   26.6851  -20.7810  -12.9931 N   0  0  0  0  0  0  0  0  0  0  0  0
   26.1283  -21.6872  -12.0295 C   0  0  1  0  0  0  0  0  0  0  0  0
   26.9686  -21.8173  -10.7923 C   0  0  0  0  0  0  0  0  0  0  0  0
   26.6429  -20.9129   -9.6976 C   0  0  0  0  0  0  0  0  0  0  0  0
   25.4532  -20.2521   -9.4919 C   0  0  0  0  0  0  0  0  0  0  0  0
   25.5221  -19.4878   -8.3884 N   0  0  0  0  0  0  0  0  0  0  0  0
   26.7475  -19.6493   -7.8781 C   0  0  0  0  0  0  0  0  0  0  0  0
   27.2944  -19.0815   -6.7491 C   0  0  0  0  0  0  0  0  0  0  0  0
   28.5936  -19.3663   -6.3521 C   0  0  0  0  0  0  0  0  0  0  0  0
   29.3075  -20.2423   -7.1399 C   0  0  0  0  0  0  0  0  0  0  0  0
   28.7624  -20.8106   -8.2691 C   0  0  0  0  0  0  0  0  0  0  0  0
   27.4666  -20.5276   -8.6676 C   0  0  0  0  0  0  0  0  0  0  0  0
   24.7517  -21.3417  -11.6333 C   0  0  0  0  0  0  0  0  0  0  0  0
   24.3270  -20.1965  -11.9282 O   0  0  0  0  0  0  0  0  0  0  0  0
   23.8849  -22.1869  -10.9572 O   0  0  0  0  0  0  0  0  0  0  0  0
  2  1  1  6
  2  9  1  0
  3  4  1  0
  3  2  1  0
  4  5  2  0
  5  6  1  0
  7  6  1  0
  8  4  1  0
  8  7  2  0
  9 11  1  0
  9 10  2  0
 11 12  1  0
 12 13  1  0
 13 14  2  0
 15 16  1  0
 15 13  1  0
 16 27  1  0
 16 17  1  1
 18 19  2  0
 18 17  1  0
 20 19  1  0
 21 26  2  0
 21 20  1  0
 22 21  1  0
 23 24  1  0
 23 22  2  0
 24 25  2  0
 25 26  1  0
 26 18  1  0
 27 29  1  0
 28 27  2  0
M  END
$$$$
