FYQ.pdb
     RDKit          3D

 33 34  0  0  1  0  0  0  0  0999 V2000
   28.6154  -21.0078   -8.5360 N   0  0  0  0  0  0  0  0  0  0  0  0
   27.1962  -20.7849   -8.5347 C   0  0  1  0  0  0  0  0  0  0  0  0
   26.7435  -19.7388   -7.5812 C   0  0  0  0  0  0  0  0  0  0  0  0
   27.4704  -19.7114   -6.3020 C   0  0  0  0  0  0  0  0  0  0  0  0
   27.0941  -20.6422   -5.3486 C   0  0  0  0  0  0  0  0  0  0  0  0
   27.7145  -20.6964   -4.1183 C   0  0  0  0  0  0  0  0  0  0  0  0
   28.7419  -19.8120   -3.7991 C   0  0  0  0  0  0  0  0  0  0  0  0
   29.0802  -18.9046   -4.7806 C   0  0  0  0  0  0  0  0  0  0  0  0
   28.4798  -18.8315   -6.0078 C   0  0  0  0  0  0  0  0  0  0  0  0
   26.6772  -20.4617   -9.8931 C   0  0  0  0  0  0  0  0  0  0  0  0
   26.9957  -19.3995  -10.4853 O   0  0  0  0  0  0  0  0  0  0  0  0
   25.6783  -22.2050  -18.4175 O   0  0  0  0  0  0  0  0  0  0  0  0
   25.8535  -22.2155  -17.0295 C   0  0  0  0  0  0  0  0  0  0  0  0
   26.7607  -21.3709  -16.4255 C   0  0  0  0  0  0  0  0  0  0  0  0
   26.9364  -21.3806  -15.0408 C   0  0  0  0  0  0  0  0  0  0  0  0
   26.2172  -22.2264  -14.2295 C   0  0  0  0  0  0  0  0  0  0  0  0
   26.4078  -22.2296  -12.7605 C   0  0  0  0  0  0  0  0  0  0  0  0
   25.5709  -21.2349  -12.0303 C   0  0  2  0  0  0  0  0  0  0  0  0
   25.7963  -21.3396  -10.5856 N   0  0  0  0  0  0  0  0  0  0  0  0
   24.1300  -21.2948  -12.2959 C   0  0  0  0  0  0  0  0  0  0  0  0
   23.3909  -21.9950  -11.5568 O   0  0  0  0  0  0  0  0  0  0  0  0
   25.3119  -23.0670  -14.8491 C   0  0  0  0  0  0  0  0  0  0  0  0
   25.1318  -23.0642  -16.2168 C   0  0  0  0  0  0  0  0  0  0  0  0
   19.3993  -20.3220  -10.1930 N   0  0  0  0  0  0  0  0  0  0  0  0
   19.3967  -19.3851  -11.2933 C   0  0  0  0  0  0  0  0  0  0  0  0
   18.5525  -18.4806  -11.2114 O   0  0  0  0  0  0  0  0  0  0  0  0
   20.3253  -19.5176  -12.4051 C   0  0  0  0  0  0  0  0  0  0  0  0
   21.2700  -20.6409  -12.4417 C   0  0  0  0  0  0  0  0  0  0  0  0
   22.1306  -20.7868  -13.6612 C   0  0  2  0  0  0  0  0  0  0  0  0
   23.5210  -20.5892  -13.3602 N   0  0  0  0  0  0  0  0  0  0  0  0
   21.6184  -20.1007  -14.8413 C   0  0  0  0  0  0  0  0  0  0  0  0
   22.3032  -19.2530  -15.4469 O   0  0  0  0  0  0  0  0  0  0  0  0
   20.3503  -20.3908  -15.3126 O   0  0  0  0  0  0  0  0  0  0  0  0
  2  1  1  6
  3  2  1  0
  4  5  2  0
  4  3  1  0
  6  5  1  0
  7  6  2  0
  8  7  1  0
  8  9  2  0
  9  4  1  0
 10  2  1  0
 11 10  2  0
 13 12  1  0
 13 14  2  0
 15 14  1  0
 16 15  2  0
 17 16  1  0
 18 17  1  6
 18 19  1  0
 19 10  1  0
 20 21  2  0
 20 18  1  0
 22 23  2  0
 22 16  1  0
 23 13  1  0
 25 24  1  0
 26 25  2  0
 27 25  1  0
 28 27  1  0
 29 28  1  1
 29 30  1  0
 30 20  1  0
 31 33  1  0
 31 29  1  0
 32 31  2  0
M  END
$$$$
