FYQ.pdb
     RDKit          3D

 33 34  0  0  1  0  0  0  0  0999 V2000
   27.5292  -22.5775  -17.6964 N   0  0  0  0  0  0  0  0  0  0  0  0
   27.3608  -21.3553  -16.9606 C   0  0  1  0  0  0  0  0  0  0  0  0
   26.6438  -20.2880  -17.7058 C   0  0  0  0  0  0  0  0  0  0  0  0
   27.3228  -19.8222  -18.9254 C   0  0  0  0  0  0  0  0  0  0  0  0
   26.8289  -20.2869  -20.1325 C   0  0  0  0  0  0  0  0  0  0  0  0
   27.3971  -19.9086  -21.3307 C   0  0  0  0  0  0  0  0  0  0  0  0
   28.4889  -19.0445  -21.3599 C   0  0  0  0  0  0  0  0  0  0  0  0
   28.9439  -18.6096  -20.1331 C   0  0  0  0  0  0  0  0  0  0  0  0
   28.3972  -18.9706  -18.9320 C   0  0  0  0  0  0  0  0  0  0  0  0
   26.6812  -21.5759  -15.6534 C   0  0  0  0  0  0  0  0  0  0  0  0
   25.7395  -22.3997  -15.5304 O   0  0  0  0  0  0  0  0  0  0  0  0
   24.6316  -20.4290   -7.0065 O   0  0  0  0  0  0  0  0  0  0  0  0
   25.2722  -20.4796   -8.2494 C   0  0  0  0  0  0  0  0  0  0  0  0
   25.6110  -19.3218   -8.9172 C   0  0  0  0  0  0  0  0  0  0  0  0
   26.2501  -19.3711  -10.1571 C   0  0  0  0  0  0  0  0  0  0  0  0
   26.5652  -20.5672  -10.7579 C   0  0  0  0  0  0  0  0  0  0  0  0
   27.2452  -20.6115  -12.0732 C   0  0  0  0  0  0  0  0  0  0  0  0
   26.3716  -21.0422  -13.2021 C   0  0  2  0  0  0  0  0  0  0  0  0
   27.0650  -20.8650  -14.4815 N   0  0  0  0  0  0  0  0  0  0  0  0
   25.0576  -20.3953  -13.2759 C   0  0  0  0  0  0  0  0  0  0  0  0
   24.9427  -19.2879  -13.8617 O   0  0  0  0  0  0  0  0  0  0  0  0
   26.2195  -21.7189  -10.0767 C   0  0  0  0  0  0  0  0  0  0  0  0
   25.5877  -21.6796   -8.8510 C   0  0  0  0  0  0  0  0  0  0  0  0
   23.2765  -20.0672  -16.8647 N   0  0  0  0  0  0  0  0  0  0  0  0
   22.2665  -20.9697  -16.3611 C   0  0  0  0  0  0  0  0  0  0  0  0
   21.9051  -21.8502  -17.1559 O   0  0  0  0  0  0  0  0  0  0  0  0
   21.7274  -20.8318  -15.0171 C   0  0  0  0  0  0  0  0  0  0  0  0
   22.2719  -19.8142  -14.1094 C   0  0  0  0  0  0  0  0  0  0  0  0
   22.6505  -20.2481  -12.7247 C   0  0  2  0  0  0  0  0  0  0  0  0
   23.8933  -20.9678  -12.7119 N   0  0  0  0  0  0  0  0  0  0  0  0
   21.5551  -20.8312  -11.9593 C   0  0  0  0  0  0  0  0  0  0  0  0
   21.6936  -21.9077  -11.3459 O   0  0  0  0  0  0  0  0  0  0  0  0
   20.3336  -20.1842  -11.8994 O   0  0  0  0  0  0  0  0  0  0  0  0
  2  1  1  6
  3  2  1  0
  4  5  2  0
  4  3  1  0
  6  5  1  0
  7  6  2  0
  8  7  1  0
  8  9  2  0
  9  4  1  0
 10  2  1  0
 11 10  2  0
 13 12  1  0
 13 14  2  0
 15 14  1  0
 16 15  2  0
 17 16  1  0
 18 17  1  1
 18 19  1  0
 19 10  1  0
 20 21  2  0
 20 18  1  0
 22 23  2  0
 22 16  1  0
 23 13  1  0
 25 24  1  0
 26 25  2  0
 27 25  1  0
 28 27  1  0
 29 28  1  6
 29 30  1  0
 30 20  1  0
 31 33  1  0
 31 29  1  0
 32 31  2  0
M  END
$$$$
