FYQ.pdb
     RDKit          3D

 33 34  0  0  1  0  0  0  0  0999 V2000
   26.6580  -19.0930  -19.5460 N   0  0  0  0  0  0  0  0  0  0  0  0
   26.4408  -18.3117  -18.3601 C   0  0  1  0  0  0  0  0  0  0  0  0
   25.3918  -17.2684  -18.5000 C   0  0  0  0  0  0  0  0  0  0  0  0
   25.7073  -16.1987  -19.4600 C   0  0  0  0  0  0  0  0  0  0  0  0
   25.2141  -16.3460  -20.7452 C   0  0  0  0  0  0  0  0  0  0  0  0
   25.4562  -15.3980  -21.7170 C   0  0  0  0  0  0  0  0  0  0  0  0
   26.2072  -14.2606  -21.4311 C   0  0  0  0  0  0  0  0  0  0  0  0
   26.6760  -14.1595  -20.1383 C   0  0  0  0  0  0  0  0  0  0  0  0
   26.4492  -15.0860  -19.1576 C   0  0  0  0  0  0  0  0  0  0  0  0
   26.1267  -19.1614  -17.1776 C   0  0  0  0  0  0  0  0  0  0  0  0
   25.3166  -20.1200  -17.2508 O   0  0  0  0  0  0  0  0  0  0  0  0
   25.4126  -21.1851   -8.4918 O   0  0  0  0  0  0  0  0  0  0  0  0
   25.8639  -20.7395   -9.7390 C   0  0  0  0  0  0  0  0  0  0  0  0
   26.2707  -21.6358  -10.7045 C   0  0  0  0  0  0  0  0  0  0  0  0
   26.7211  -21.1923  -11.9490 C   0  0  0  0  0  0  0  0  0  0  0  0
   26.7767  -19.8539  -12.2598 C   0  0  0  0  0  0  0  0  0  0  0  0
   27.2542  -19.3910  -13.5835 C   0  0  0  0  0  0  0  0  0  0  0  0
   26.3038  -19.6475  -14.7034 C   0  0  2  0  0  0  0  0  0  0  0  0
   26.7283  -18.9290  -15.9086 N   0  0  0  0  0  0  0  0  0  0  0  0
   24.8968  -19.3368  -14.4310 C   0  0  0  0  0  0  0  0  0  0  0  0
   24.4858  -18.1547  -14.5593 O   0  0  0  0  0  0  0  0  0  0  0  0
   26.3658  -18.9678  -11.2821 C   0  0  0  0  0  0  0  0  0  0  0  0
   25.9193  -19.3971  -10.0495 C   0  0  0  0  0  0  0  0  0  0  0  0
   19.7172  -20.6962  -16.7065 N   0  0  0  0  0  0  0  0  0  0  0  0
   19.3558  -19.8760  -15.5729 C   0  0  0  0  0  0  0  0  0  0  0  0
   18.1417  -19.6564  -15.4490 O   0  0  0  0  0  0  0  0  0  0  0  0
   20.3624  -19.3562  -14.6605 C   0  0  0  0  0  0  0  0  0  0  0  0
   21.7802  -19.6702  -14.8767 C   0  0  0  0  0  0  0  0  0  0  0  0
   22.6239  -19.9461  -13.6679 C   0  0  2  0  0  0  0  0  0  0  0  0
   23.9636  -20.3200  -14.0260 N   0  0  0  0  0  0  0  0  0  0  0  0
   21.9699  -20.7668  -12.6557 C   0  0  0  0  0  0  0  0  0  0  0  0
   22.2556  -21.9720  -12.5142 O   0  0  0  0  0  0  0  0  0  0  0  0
   21.0151  -20.2078  -11.8249 O   0  0  0  0  0  0  0  0  0  0  0  0
  2  1  1  6
  3  2  1  0
  4  5  2  0
  4  3  1  0
  6  5  1  0
  7  6  2  0
  8  7  1  0
  8  9  2  0
  9  4  1  0
 10  2  1  0
 11 10  2  0
 13 12  1  0
 13 14  2  0
 15 14  1  0
 16 15  2  0
 17 16  1  0
 18 17  1  1
 18 19  1  0
 19 10  1  0
 20 21  2  0
 20 18  1  0
 22 23  2  0
 22 16  1  0
 23 13  1  0
 25 24  1  0
 26 25  2  0
 27 25  1  0
 28 27  1  0
 29 28  1  6
 29 30  1  0
 30 20  1  0
 31 33  1  0
 31 29  1  0
 32 31  2  0
M  END
$$$$
