FYQ.pdb
     RDKit          3D

 33 34  0  0  1  0  0  0  0  0999 V2000
   24.8751  -33.7983   -9.4874 N   0  0  0  0  0  0  0  0  0  0  0  0
   25.4133  -33.0064   -8.4164 C   0  0  1  0  0  0  0  0  0  0  0  0
   24.3860  -32.3491   -7.5673 C   0  0  0  0  0  0  0  0  0  0  0  0
   23.5069  -31.4068   -8.2777 C   0  0  0  0  0  0  0  0  0  0  0  0
   22.1882  -31.7912   -8.4515 C   0  0  0  0  0  0  0  0  0  0  0  0
   21.2866  -30.9778   -9.1051 C   0  0  0  0  0  0  0  0  0  0  0  0
   21.6794  -29.7411   -9.6108 C   0  0  0  0  0  0  0  0  0  0  0  0
   23.0016  -29.4035   -9.4127 C   0  0  0  0  0  0  0  0  0  0  0  0
   23.9142  -30.1929   -8.7681 C   0  0  0  0  0  0  0  0  0  0  0  0
   26.3341  -33.7902   -7.5464 C   0  0  0  0  0  0  0  0  0  0  0  0
   26.3213  -35.0473   -7.5361 O   0  0  0  0  0  0  0  0  0  0  0  0
   33.7934  -36.1217   -3.4054 O   0  0  0  0  0  0  0  0  0  0  0  0
   32.7634  -35.4180   -4.0390 C   0  0  0  0  0  0  0  0  0  0  0  0
   32.6884  -35.3616   -5.4146 C   0  0  0  0  0  0  0  0  0  0  0  0
   31.6612  -34.6598   -6.0477 C   0  0  0  0  0  0  0  0  0  0  0  0
   30.6901  -34.0016   -5.3303 C   0  0  0  0  0  0  0  0  0  0  0  0
   29.6020  -33.2604   -6.0093 C   0  0  0  0  0  0  0  0  0  0  0  0
   28.2647  -33.9137   -5.9194 C   0  0  2  0  0  0  0  0  0  0  0  0
   27.2722  -33.1539   -6.6854 N   0  0  0  0  0  0  0  0  0  0  0  0
   27.7535  -34.1389   -4.5636 C   0  0  0  0  0  0  0  0  0  0  0  0
   27.4798  -33.1531   -3.8315 O   0  0  0  0  0  0  0  0  0  0  0  0
   30.7785  -34.0671   -3.9526 C   0  0  0  0  0  0  0  0  0  0  0  0
   31.7900  -34.7582   -3.3186 C   0  0  0  0  0  0  0  0  0  0  0  0
   24.8705  -39.4647   -2.4105 N   0  0  0  0  0  0  0  0  0  0  0  0
   25.3661  -38.9645   -3.6725 C   0  0  0  0  0  0  0  0  0  0  0  0
   25.1646  -39.7046   -4.6467 O   0  0  0  0  0  0  0  0  0  0  0  0
   26.0506  -37.6844   -3.7654 C   0  0  0  0  0  0  0  0  0  0  0  0
   26.2532  -36.8719   -2.5594 C   0  0  0  0  0  0  0  0  0  0  0  0
   27.0333  -35.5989   -2.7010 C   0  0  2  0  0  0  0  0  0  0  0  0
   27.5483  -35.4336   -4.0315 N   0  0  0  0  0  0  0  0  0  0  0  0
   27.9641  -35.3422   -1.6085 C   0  0  0  0  0  0  0  0  0  0  0  0
   27.6115  -34.7159   -0.5899 O   0  0  0  0  0  0  0  0  0  0  0  0
   29.2664  -35.8024   -1.6885 O   0  0  0  0  0  0  0  0  0  0  0  0
  2  1  1  6
  3  2  1  0
  4  5  2  0
  4  3  1  0
  6  5  1  0
  7  6  2  0
  8  7  1  0
  8  9  2  0
  9  4  1  0
 10  2  1  0
 11 10  2  0
 13 12  1  0
 13 14  2  0
 15 14  1  0
 16 15  2  0
 17 16  1  0
 18 17  1  1
 18 19  1  0
 19 10  1  0
 20 21  2  0
 20 18  1  0
 22 23  2  0
 22 16  1  0
 23 13  1  0
 25 24  1  0
 26 25  2  0
 27 25  1  0
 28 27  1  0
 29 28  1  6
 29 30  1  0
 30 20  1  0
 31 33  1  0
 31 29  1  0
 32 31  2  0
M  END
$$$$
