FYQ.pdb
     RDKit          3D

 33 34  0  0  1  0  0  0  0  0999 V2000
   25.6443  -20.6544  -18.7043 N   0  0  0  0  0  0  0  0  0  0  0  0
   24.6994  -19.7761  -18.0723 C   0  0  1  0  0  0  0  0  0  0  0  0
   23.5647  -19.3720  -18.9427 C   0  0  0  0  0  0  0  0  0  0  0  0
   23.9520  -18.6808  -20.1828 C   0  0  0  0  0  0  0  0  0  0  0  0
   24.2644  -17.3361  -20.0780 C   0  0  0  0  0  0  0  0  0  0  0  0
   24.6381  -16.6007  -21.1831 C   0  0  0  0  0  0  0  0  0  0  0  0
   24.7121  -17.1932  -22.4412 C   0  0  0  0  0  0  0  0  0  0  0  0
   24.3917  -18.5333  -22.4940 C   0  0  0  0  0  0  0  0  0  0  0  0
   24.0184  -19.2834  -21.4125 C   0  0  0  0  0  0  0  0  0  0  0  0
   24.1613  -20.3476  -16.8062 C   0  0  0  0  0  0  0  0  0  0  0  0
   24.0265  -21.5873  -16.6472 O   0  0  0  0  0  0  0  0  0  0  0  0
   22.0641  -21.1811   -8.2041 O   0  0  0  0  0  0  0  0  0  0  0  0
   22.5196  -20.7433   -9.4525 C   0  0  0  0  0  0  0  0  0  0  0  0
   21.7580  -19.8903  -10.2231 C   0  0  0  0  0  0  0  0  0  0  0  0
   22.2116  -19.4529  -11.4686 C   0  0  0  0  0  0  0  0  0  0  0  0
   23.4269  -19.8519  -11.9734 C   0  0  0  0  0  0  0  0  0  0  0  0
   23.9022  -19.3820  -13.2953 C   0  0  0  0  0  0  0  0  0  0  0  0
   23.2718  -20.0735  -14.4561 C   0  0  2  0  0  0  0  0  0  0  0  0
   23.7740  -19.5179  -15.7163 N   0  0  0  0  0  0  0  0  0  0  0  0
   21.8056  -20.0708  -14.4820 C   0  0  0  0  0  0  0  0  0  0  0  0
   21.1911  -19.0040  -14.7411 O   0  0  0  0  0  0  0  0  0  0  0  0
   24.1788  -20.7067  -11.1898 C   0  0  0  0  0  0  0  0  0  0  0  0
   23.7385  -21.1440   -9.9578 C   0  0  0  0  0  0  0  0  0  0  0  0
   20.6508  -24.3157  -16.3100 N   0  0  0  0  0  0  0  0  0  0  0  0
   19.9747  -23.3017  -17.0866 C   0  0  0  0  0  0  0  0  0  0  0  0
   20.1431  -23.3794  -18.3126 O   0  0  0  0  0  0  0  0  0  0  0  0
   19.1641  -22.2742  -16.4516 C   0  0  0  0  0  0  0  0  0  0  0  0
   18.9818  -22.2802  -14.9948 C   0  0  0  0  0  0  0  0  0  0  0  0
   19.6020  -21.1619  -14.2114 C   0  0  2  0  0  0  0  0  0  0  0  0
   21.0365  -21.2305  -14.2271 N   0  0  0  0  0  0  0  0  0  0  0  0
   18.9782  -20.9203  -12.9159 C   0  0  0  0  0  0  0  0  0  0  0  0
   19.1804  -21.6786  -11.9472 O   0  0  0  0  0  0  0  0  0  0  0  0
   18.1472  -19.8277  -12.7428 O   0  0  0  0  0  0  0  0  0  0  0  0
  2  1  1  6
  3  2  1  0
  4  5  2  0
  4  3  1  0
  6  5  1  0
  7  6  2  0
  8  7  1  0
  8  9  2  0
  9  4  1  0
 10  2  1  0
 11 10  2  0
 13 12  1  0
 13 14  2  0
 15 14  1  0
 16 15  2  0
 17 16  1  0
 18 17  1  1
 18 19  1  0
 19 10  1  0
 20 21  2  0
 20 18  1  0
 22 23  2  0
 22 16  1  0
 23 13  1  0
 25 24  1  0
 26 25  2  0
 27 25  1  0
 28 27  1  0
 29 28  1  1
 29 30  1  0
 30 20  1  0
 31 33  1  0
 31 29  1  0
 32 31  2  0
M  END
$$$$
