FYQ.pdb
     RDKit          3D

 33 34  0  0  1  0  0  0  0  0999 V2000
   28.3446  -21.1125   -8.2282 N   0  0  0  0  0  0  0  0  0  0  0  0
   26.9658  -20.7183   -8.1433 C   0  0  1  0  0  0  0  0  0  0  0  0
   26.6823  -19.7128   -7.0865 C   0  0  0  0  0  0  0  0  0  0  0  0
   27.5517  -19.7980   -5.9023 C   0  0  0  0  0  0  0  0  0  0  0  0
   27.1130  -20.5976   -4.8605 C   0  0  0  0  0  0  0  0  0  0  0  0
   27.8562  -20.7417   -3.7079 C   0  0  0  0  0  0  0  0  0  0  0  0
   29.0746  -20.0837   -3.5591 C   0  0  0  0  0  0  0  0  0  0  0  0
   29.4680  -19.3000   -4.6232 C   0  0  0  0  0  0  0  0  0  0  0  0
   28.7486  -19.1414   -5.7760 C   0  0  0  0  0  0  0  0  0  0  0  0
   26.4443  -20.2157   -9.4451 C   0  0  0  0  0  0  0  0  0  0  0  0
   26.2000  -18.9965   -9.6311 O   0  0  0  0  0  0  0  0  0  0  0  0
   27.0322  -18.8870  -18.0607 O   0  0  0  0  0  0  0  0  0  0  0  0
   27.0759  -19.3871  -16.7547 C   0  0  0  0  0  0  0  0  0  0  0  0
   26.7644  -20.7044  -16.4919 C   0  0  0  0  0  0  0  0  0  0  0  0
   26.8077  -21.2043  -15.1894 C   0  0  0  0  0  0  0  0  0  0  0  0
   27.1600  -20.4093  -14.1241 C   0  0  0  0  0  0  0  0  0  0  0  0
   27.2054  -20.9476  -12.7448 C   0  0  0  0  0  0  0  0  0  0  0  0
   26.0226  -20.5945  -11.9084 C   0  0  2  0  0  0  0  0  0  0  0  0
   26.1976  -21.0909  -10.5402 N   0  0  0  0  0  0  0  0  0  0  0  0
   24.7230  -21.0432  -12.4181 C   0  0  0  0  0  0  0  0  0  0  0  0
   24.2486  -22.1413  -12.0284 O   0  0  0  0  0  0  0  0  0  0  0  0
   27.4694  -19.0916  -14.4031 C   0  0  0  0  0  0  0  0  0  0  0  0
   27.4293  -18.5890  -15.6872 C   0  0  0  0  0  0  0  0  0  0  0  0
   20.0514  -21.5409  -10.1713 N   0  0  0  0  0  0  0  0  0  0  0  0
   19.5265  -21.5442  -11.5177 C   0  0  0  0  0  0  0  0  0  0  0  0
   18.3123  -21.7789  -11.6078 O   0  0  0  0  0  0  0  0  0  0  0  0
   20.3820  -21.2905  -12.6665 C   0  0  0  0  0  0  0  0  0  0  0  0
   21.8049  -20.9872  -12.4685 C   0  0  0  0  0  0  0  0  0  0  0  0
   22.6284  -20.6882  -13.6856 C   0  0  2  0  0  0  0  0  0  0  0  0
   23.9636  -20.2864  -13.3413 N   0  0  0  0  0  0  0  0  0  0  0  0
   21.9450  -19.8782  -14.6870 C   0  0  0  0  0  0  0  0  0  0  0  0
   22.3979  -18.7739  -15.0469 O   0  0  0  0  0  0  0  0  0  0  0  0
   20.7723  -20.3353  -15.2616 O   0  0  0  0  0  0  0  0  0  0  0  0
  2  1  1  6
  3  2  1  0
  4  5  2  0
  4  3  1  0
  6  5  1  0
  7  6  2  0
  8  7  1  0
  8  9  2  0
  9  4  1  0
 10  2  1  0
 11 10  2  0
 13 12  1  0
 13 14  2  0
 15 14  1  0
 16 15  2  0
 17 16  1  0
 18 17  1  6
 18 19  1  0
 19 10  1  0
 20 21  2  0
 20 18  1  0
 22 23  2  0
 22 16  1  0
 23 13  1  0
 25 24  1  0
 26 25  2  0
 27 25  1  0
 28 27  1  0
 29 28  1  1
 29 30  1  0
 30 20  1  0
 31 33  1  0
 31 29  1  0
 32 31  2  0
M  END
$$$$
