FYQ.pdb
     RDKit          3D

 33 34  0  0  1  0  0  0  0  0999 V2000
   28.2859  -21.2209  -12.9903 N   0  0  0  0  0  0  0  0  0  0  0  0
   27.3987  -21.2826  -11.8621 C   0  0  1  0  0  0  0  0  0  0  0  0
   27.9881  -20.7803  -10.5938 C   0  0  0  0  0  0  0  0  0  0  0  0
   29.2964  -21.3586  -10.2480 C   0  0  0  0  0  0  0  0  0  0  0  0
   29.3075  -22.6821   -9.8416 C   0  0  0  0  0  0  0  0  0  0  0  0
   30.4834  -23.3140   -9.4957 C   0  0  0  0  0  0  0  0  0  0  0  0
   31.6983  -22.6350   -9.5459 C   0  0  0  0  0  0  0  0  0  0  0  0
   31.6352  -21.3201   -9.9564 C   0  0  0  0  0  0  0  0  0  0  0  0
   30.4817  -20.6720  -10.3043 C   0  0  0  0  0  0  0  0  0  0  0  0
   26.1154  -20.5704  -12.1173 C   0  0  0  0  0  0  0  0  0  0  0  0
   26.0873  -19.3517  -12.4246 O   0  0  0  0  0  0  0  0  0  0  0  0
   19.0980  -17.7494  -16.1189 O   0  0  0  0  0  0  0  0  0  0  0  0
   20.2467  -18.3347  -15.5753 C   0  0  0  0  0  0  0  0  0  0  0  0
   21.1839  -17.5696  -14.9137 C   0  0  0  0  0  0  0  0  0  0  0  0
   22.3302  -18.1525  -14.3710 C   0  0  0  0  0  0  0  0  0  0  0  0
   22.5692  -19.5028  -14.4736 C   0  0  0  0  0  0  0  0  0  0  0  0
   23.7873  -20.1145  -13.8935 C   0  0  0  0  0  0  0  0  0  0  0  0
   23.6174  -20.6195  -12.5009 C   0  0  2  0  0  0  0  0  0  0  0  0
   24.8600  -21.2350  -12.0254 N   0  0  0  0  0  0  0  0  0  0  0  0
   22.5085  -21.5558  -12.2918 C   0  0  0  0  0  0  0  0  0  0  0  0
   22.5812  -22.7199  -12.7635 O   0  0  0  0  0  0  0  0  0  0  0  0
   21.6211  -20.2564  -15.1394 C   0  0  0  0  0  0  0  0  0  0  0  0
   20.4854  -19.6889  -15.6788 C   0  0  0  0  0  0  0  0  0  0  0  0
   19.3452  -23.3763   -7.3111 N   0  0  0  0  0  0  0  0  0  0  0  0
   18.5816  -23.8729   -8.4330 C   0  0  0  0  0  0  0  0  0  0  0  0
   17.6969  -24.6926   -8.1449 O   0  0  0  0  0  0  0  0  0  0  0  0
   18.8529  -23.4295   -9.7916 C   0  0  0  0  0  0  0  0  0  0  0  0
   19.9045  -22.4361  -10.0425 C   0  0  0  0  0  0  0  0  0  0  0  0
   20.2471  -22.1312  -11.4704 C   0  0  2  0  0  0  0  0  0  0  0  0
   21.3420  -21.2072  -11.5711 N   0  0  0  0  0  0  0  0  0  0  0  0
   19.0922  -21.8636  -12.3193 C   0  0  0  0  0  0  0  0  0  0  0  0
   18.5003  -22.7833  -12.9176 O   0  0  0  0  0  0  0  0  0  0  0  0
   18.6301  -20.5680  -12.4681 O   0  0  0  0  0  0  0  0  0  0  0  0
  2  1  1  6
  3  2  1  0
  4  5  2  0
  4  3  1  0
  6  5  1  0
  7  6  2  0
  8  7  1  0
  8  9  2  0
  9  4  1  0
 10  2  1  0
 11 10  2  0
 13 12  1  0
 13 14  2  0
 15 14  1  0
 16 15  2  0
 17 16  1  0
 18 17  1  6
 18 19  1  0
 19 10  1  0
 20 21  2  0
 20 18  1  0
 22 23  2  0
 22 16  1  0
 23 13  1  0
 25 24  1  0
 26 25  2  0
 27 25  1  0
 28 27  1  0
 29 28  1  1
 29 30  1  0
 30 20  1  0
 31 33  1  0
 31 29  1  0
 32 31  2  0
M  END
$$$$
