FYQ.pdb
     RDKit          3D

 33 34  0  0  1  0  0  0  0  0999 V2000
   23.7266  -10.6992  -16.9496 N   0  0  0  0  0  0  0  0  0  0  0  0
   24.0264   -9.9947  -15.7341 C   0  0  1  0  0  0  0  0  0  0  0  0
   25.2082   -9.0982  -15.8237 C   0  0  0  0  0  0  0  0  0  0  0  0
   26.4479   -9.7518  -16.2723 C   0  0  0  0  0  0  0  0  0  0  0  0
   26.8592  -10.8672  -15.5625 C   0  0  0  0  0  0  0  0  0  0  0  0
   28.0081  -11.5488  -15.9047 C   0  0  0  0  0  0  0  0  0  0  0  0
   28.7904  -11.1321  -16.9789 C   0  0  0  0  0  0  0  0  0  0  0  0
   28.3395  -10.0174  -17.6537 C   0  0  0  0  0  0  0  0  0  0  0  0
   27.2039   -9.3249  -17.3335 C   0  0  0  0  0  0  0  0  0  0  0  0
   22.8602   -9.2133  -15.2357 C   0  0  0  0  0  0  0  0  0  0  0  0
   21.8322   -9.0418  -15.9388 O   0  0  0  0  0  0  0  0  0  0  0  0
   17.0708   -5.4961   -9.5913 O   0  0  0  0  0  0  0  0  0  0  0  0
   18.1557   -6.1586  -10.1759 C   0  0  0  0  0  0  0  0  0  0  0  0
   19.3923   -5.5540  -10.2570 C   0  0  0  0  0  0  0  0  0  0  0  0
   20.4752   -6.2141  -10.8400 C   0  0  0  0  0  0  0  0  0  0  0  0
   20.3533   -7.4841  -11.3530 C   0  0  0  0  0  0  0  0  0  0  0  0
   21.5077   -8.1789  -11.9686 C   0  0  0  0  0  0  0  0  0  0  0  0
   21.6898   -7.8985  -13.4216 C   0  0  2  0  0  0  0  0  0  0  0  0
   22.8536   -8.6236  -13.9402 N   0  0  0  0  0  0  0  0  0  0  0  0
   21.8039   -6.4837  -13.7898 C   0  0  0  0  0  0  0  0  0  0  0  0
   22.9373   -5.9946  -14.0326 O   0  0  0  0  0  0  0  0  0  0  0  0
   19.1081   -8.0770  -11.2644 C   0  0  0  0  0  0  0  0  0  0  0  0
   18.0323   -7.4322  -10.6900 C   0  0  0  0  0  0  0  0  0  0  0  0
   22.6393   -4.7634  -18.6187 N   0  0  0  0  0  0  0  0  0  0  0  0
   22.2245   -3.4845  -18.0890 C   0  0  0  0  0  0  0  0  0  0  0  0
   22.4610   -2.5112  -18.8200 O   0  0  0  0  0  0  0  0  0  0  0  0
   21.5811   -3.3740  -16.7891 C   0  0  0  0  0  0  0  0  0  0  0  0
   21.4183   -4.5662  -15.9477 C   0  0  0  0  0  0  0  0  0  0  0  0
   20.7737   -4.3877  -14.6054 C   0  0  2  0  0  0  0  0  0  0  0  0
   20.6810   -5.6287  -13.8885 N   0  0  0  0  0  0  0  0  0  0  0  0
   19.5756   -3.5570  -14.6222 C   0  0  0  0  0  0  0  0  0  0  0  0
   18.4525   -4.0434  -14.8593 O   0  0  0  0  0  0  0  0  0  0  0  0
   19.6722   -2.2008  -14.3657 O   0  0  0  0  0  0  0  0  0  0  0  0
  2  1  1  6
  3  2  1  0
  4  5  2  0
  4  3  1  0
  6  5  1  0
  7  6  2  0
  8  7  1  0
  8  9  2  0
  9  4  1  0
 10  2  1  0
 11 10  2  0
 13 12  1  0
 13 14  2  0
 15 14  1  0
 16 15  2  0
 17 16  1  0
 18 17  1  1
 18 19  1  0
 19 10  1  0
 20 21  2  0
 20 18  1  0
 22 23  2  0
 22 16  1  0
 23 13  1  0
 25 24  1  0
 26 25  2  0
 27 25  1  0
 28 27  1  0
 29 28  1  6
 29 30  1  0
 30 20  1  0
 31 33  1  0
 31 29  1  0
 32 31  2  0
M  END
$$$$
