FYQ.pdb
     RDKit          3D

 33 34  0  0  1  0  0  0  0  0999 V2000
   26.4671  -16.9017  -21.2075 N   0  0  0  0  0  0  0  0  0  0  0  0
   25.9374  -17.7953  -20.2151 C   0  0  1  0  0  0  0  0  0  0  0  0
   26.9717  -18.5216  -19.4334 C   0  0  0  0  0  0  0  0  0  0  0  0
   27.8996  -19.3320  -20.2382 C   0  0  0  0  0  0  0  0  0  0  0  0
   27.5588  -20.6588  -20.4389 C   0  0  0  0  0  0  0  0  0  0  0  0
   28.3636  -21.4998  -21.1782 C   0  0  0  0  0  0  0  0  0  0  0  0
   29.5473  -21.0355  -21.7463 C   0  0  0  0  0  0  0  0  0  0  0  0
   29.8429  -19.7082  -21.5183 C   0  0  0  0  0  0  0  0  0  0  0  0
   29.0610  -18.8549  -20.7889 C   0  0  0  0  0  0  0  0  0  0  0  0
   25.0127  -17.1042  -19.2736 C   0  0  0  0  0  0  0  0  0  0  0  0
   25.1241  -15.8777  -19.0210 O   0  0  0  0  0  0  0  0  0  0  0  0
   17.9460  -13.3373  -16.1637 O   0  0  0  0  0  0  0  0  0  0  0  0
   19.0093  -14.0021  -16.7844 C   0  0  0  0  0  0  0  0  0  0  0  0
   20.2889  -13.4911  -16.7319 C   0  0  0  0  0  0  0  0  0  0  0  0
   21.3504  -14.1534  -17.3507 C   0  0  0  0  0  0  0  0  0  0  0  0
   21.1640  -15.3331  -18.0323 C   0  0  0  0  0  0  0  0  0  0  0  0
   22.2959  -16.0312  -18.6850 C   0  0  0  0  0  0  0  0  0  0  0  0
   22.9227  -17.0972  -17.8519 C   0  0  2  0  0  0  0  0  0  0  0  0
   23.9593  -17.7989  -18.6149 N   0  0  0  0  0  0  0  0  0  0  0  0
   22.0017  -18.0827  -17.2766 C   0  0  0  0  0  0  0  0  0  0  0  0
   21.5275  -18.9903  -18.0075 O   0  0  0  0  0  0  0  0  0  0  0  0
   19.8762  -15.8328  -18.0762 C   0  0  0  0  0  0  0  0  0  0  0  0
   18.8213  -15.1850  -17.4676 C   0  0  0  0  0  0  0  0  0  0  0  0
   22.2111  -22.3362  -13.8511 N   0  0  0  0  0  0  0  0  0  0  0  0
   20.8841  -22.0120  -13.3795 C   0  0  0  0  0  0  0  0  0  0  0  0
   20.2501  -22.9634  -12.8995 O   0  0  0  0  0  0  0  0  0  0  0  0
   20.3536  -20.6610  -13.4752 C   0  0  0  0  0  0  0  0  0  0  0  0
   21.1611  -19.5976  -14.0857 C   0  0  0  0  0  0  0  0  0  0  0  0
   20.7046  -19.0471  -15.4039 C   0  0  2  0  0  0  0  0  0  0  0  0
   21.6161  -18.0621  -15.9156 N   0  0  0  0  0  0  0  0  0  0  0  0
   19.2876  -18.7071  -15.4525 C   0  0  0  0  0  0  0  0  0  0  0  0
   18.8633  -17.6288  -14.9927 O   0  0  0  0  0  0  0  0  0  0  0  0
   18.3855  -19.5875  -16.0229 O   0  0  0  0  0  0  0  0  0  0  0  0
  2  1  1  6
  3  2  1  0
  4  5  2  0
  4  3  1  0
  6  5  1  0
  7  6  2  0
  8  7  1  0
  8  9  2  0
  9  4  1  0
 10  2  1  0
 11 10  2  0
 13 12  1  0
 13 14  2  0
 15 14  1  0
 16 15  2  0
 17 16  1  0
 18 17  1  6
 18 19  1  0
 19 10  1  0
 20 21  2  0
 20 18  1  0
 22 23  2  0
 22 16  1  0
 23 13  1  0
 25 24  1  0
 26 25  2  0
 27 25  1  0
 28 27  1  0
 29 28  1  1
 29 30  1  0
 30 20  1  0
 31 33  1  0
 31 29  1  0
 32 31  2  0
M  END
$$$$
