FYQ.pdb
     RDKit          3D

 33 34  0  0  1  0  0  0  0  0999 V2000
   24.6495  -20.6325   -7.5992 N   0  0  0  0  0  0  0  0  0  0  0  0
   25.7806  -20.1817   -8.3615 C   0  0  1  0  0  0  0  0  0  0  0  0
   27.0853  -20.7165   -7.8924 C   0  0  0  0  0  0  0  0  0  0  0  0
   27.5576  -20.1616   -6.6139 C   0  0  0  0  0  0  0  0  0  0  0  0
   27.6383  -21.0366   -5.5439 C   0  0  0  0  0  0  0  0  0  0  0  0
   28.0687  -20.6125   -4.3044 C   0  0  0  0  0  0  0  0  0  0  0  0
   28.4359  -19.2858   -4.0934 C   0  0  0  0  0  0  0  0  0  0  0  0
   28.3383  -18.4539   -5.1887 C   0  0  0  0  0  0  0  0  0  0  0  0
   27.9144  -18.8510   -6.4274 C   0  0  0  0  0  0  0  0  0  0  0  0
   25.6303  -20.4727   -9.8148 C   0  0  0  0  0  0  0  0  0  0  0  0
   24.5721  -20.9641  -10.2830 O   0  0  0  0  0  0  0  0  0  0  0  0
   27.3702  -16.8174  -17.8076 O   0  0  0  0  0  0  0  0  0  0  0  0
   27.4513  -17.3247  -16.5062 C   0  0  0  0  0  0  0  0  0  0  0  0
   27.0575  -16.5640  -15.4256 C   0  0  0  0  0  0  0  0  0  0  0  0
   27.1380  -17.0691  -14.1269 C   0  0  0  0  0  0  0  0  0  0  0  0
   27.6097  -18.3360  -13.8748 C   0  0  0  0  0  0  0  0  0  0  0  0
   27.6904  -18.8658  -12.4938 C   0  0  0  0  0  0  0  0  0  0  0  0
   26.4360  -19.5093  -12.0085 C   0  0  2  0  0  0  0  0  0  0  0  0
   26.6769  -20.2085  -10.7427 N   0  0  0  0  0  0  0  0  0  0  0  0
   25.7852  -20.4288  -12.9472 C   0  0  0  0  0  0  0  0  0  0  0  0
   26.1824  -21.6200  -13.0259 O   0  0  0  0  0  0  0  0  0  0  0  0
   28.0006  -19.0863  -14.9676 C   0  0  0  0  0  0  0  0  0  0  0  0
   27.9245  -18.5952  -16.2545 C   0  0  0  0  0  0  0  0  0  0  0  0
   20.1010  -22.6640  -11.5727 N   0  0  0  0  0  0  0  0  0  0  0  0
   20.7106  -22.3095  -12.8341 C   0  0  0  0  0  0  0  0  0  0  0  0
   19.9786  -21.6813  -13.6132 O   0  0  0  0  0  0  0  0  0  0  0  0
   22.0835  -22.6773  -13.1435 C   0  0  0  0  0  0  0  0  0  0  0  0
   23.1672  -21.7092  -12.9336 C   0  0  0  0  0  0  0  0  0  0  0  0
   23.6831  -20.9715  -14.1331 C   0  0  2  0  0  0  0  0  0  0  0  0
   24.7127  -20.0341  -13.7811 N   0  0  0  0  0  0  0  0  0  0  0  0
   22.6420  -20.4852  -15.0306 C   0  0  0  0  0  0  0  0  0  0  0  0
   22.2164  -21.1857  -15.9699 O   0  0  0  0  0  0  0  0  0  0  0  0
   22.1029  -19.2248  -14.8438 O   0  0  0  0  0  0  0  0  0  0  0  0
  2  1  1  1
  3  2  1  0
  4  5  2  0
  4  3  1  0
  6  5  1  0
  7  6  2  0
  8  7  1  0
  8  9  2  0
  9  4  1  0
 10  2  1  0
 11 10  2  0
 13 12  1  0
 13 14  2  0
 15 14  1  0
 16 15  2  0
 17 16  1  0
 18 17  1  6
 18 19  1  0
 19 10  1  0
 20 21  2  0
 20 18  1  0
 22 23  2  0
 22 16  1  0
 23 13  1  0
 25 24  1  0
 26 25  2  0
 27 25  1  0
 28 27  1  0
 29 28  1  1
 29 30  1  0
 30 20  1  0
 31 33  1  0
 31 29  1  0
 32 31  2  0
M  END
$$$$
