FYQ.pdb
     RDKit          3D

 33 34  0  0  1  0  0  0  0  0999 V2000
   32.7323  -26.4432  -18.0420 N   0  0  0  0  0  0  0  0  0  0  0  0
   31.8524  -26.4748  -16.9069 C   0  0  1  0  0  0  0  0  0  0  0  0
   31.8875  -25.2453  -16.0730 C   0  0  0  0  0  0  0  0  0  0  0  0
   33.1627  -25.0046  -15.3791 C   0  0  0  0  0  0  0  0  0  0  0  0
   33.2774  -25.5002  -14.0914 C   0  0  0  0  0  0  0  0  0  0  0  0
   34.4323  -25.3256  -13.3584 C   0  0  0  0  0  0  0  0  0  0  0  0
   35.5206  -24.6425  -13.8957 C   0  0  0  0  0  0  0  0  0  0  0  0
   35.3577  -24.1684  -15.1802 C   0  0  0  0  0  0  0  0  0  0  0  0
   34.2226  -24.3290  -15.9268 C   0  0  0  0  0  0  0  0  0  0  0  0
   30.4428  -26.7576  -17.2968 C   0  0  0  0  0  0  0  0  0  0  0  0
   29.9016  -26.1840  -18.2759 O   0  0  0  0  0  0  0  0  0  0  0  0
   22.5317  -30.9036  -17.6944 O   0  0  0  0  0  0  0  0  0  0  0  0
   23.8530  -30.5342  -17.4203 C   0  0  0  0  0  0  0  0  0  0  0  0
   24.2358  -30.1735  -16.1457 C   0  0  0  0  0  0  0  0  0  0  0  0
   25.5538  -29.8048  -15.8712 C   0  0  0  0  0  0  0  0  0  0  0  0
   26.5161  -29.7867  -16.8533 C   0  0  0  0  0  0  0  0  0  0  0  0
   27.9132  -29.3960  -16.5538 C   0  0  0  0  0  0  0  0  0  0  0  0
   28.2723  -28.0164  -16.9907 C   0  0  2  0  0  0  0  0  0  0  0  0
   29.6413  -27.6903  -16.5801 N   0  0  0  0  0  0  0  0  0  0  0  0
   27.3710  -26.9497  -16.5432 C   0  0  0  0  0  0  0  0  0  0  0  0
   27.5574  -26.4087  -15.4228 O   0  0  0  0  0  0  0  0  0  0  0  0
   26.1174  -30.1506  -18.1256 C   0  0  0  0  0  0  0  0  0  0  0  0
   24.8172  -30.5163  -18.4060 C   0  0  0  0  0  0  0  0  0  0  0  0
   26.7603  -21.3559  -17.9266 N   0  0  0  0  0  0  0  0  0  0  0  0
   25.5009  -21.5916  -17.2582 C   0  0  0  0  0  0  0  0  0  0  0  0
   24.8511  -20.5711  -16.9866 O   0  0  0  0  0  0  0  0  0  0  0  0
   25.0528  -22.9375  -16.9362 C   0  0  0  0  0  0  0  0  0  0  0  0
   25.8886  -24.0924  -17.2873 C   0  0  0  0  0  0  0  0  0  0  0  0
   25.4283  -25.4468  -16.8373 C   0  0  2  0  0  0  0  0  0  0  0  0
   26.2850  -26.4912  -17.3253 N   0  0  0  0  0  0  0  0  0  0  0  0
   23.9936  -25.6677  -16.9739 C   0  0  0  0  0  0  0  0  0  0  0  0
   23.5095  -26.1628  -18.0107 O   0  0  0  0  0  0  0  0  0  0  0  0
   23.1414  -25.3308  -15.9374 O   0  0  0  0  0  0  0  0  0  0  0  0
  2  1  1  6
  3  2  1  0
  4  5  2  0
  4  3  1  0
  6  5  1  0
  7  6  2  0
  8  7  1  0
  8  9  2  0
  9  4  1  0
 10  2  1  0
 11 10  2  0
 13 12  1  0
 13 14  2  0
 15 14  1  0
 16 15  2  0
 17 16  1  0
 18 17  1  1
 18 19  1  0
 19 10  1  0
 20 21  2  0
 20 18  1  0
 22 23  2  0
 22 16  1  0
 23 13  1  0
 25 24  1  0
 26 25  2  0
 27 25  1  0
 28 27  1  0
 29 28  1  6
 29 30  1  0
 30 20  1  0
 31 33  1  0
 31 29  1  0
 32 31  2  0
M  END
$$$$
