DRA.pdb
     RDKit          3D

 25 24  0  0  1  0  0  0  0  0999 V2000
   10.7346  -19.3235   19.0532 N   0  0  0  0  0  0  0  0  0  0  0  0
   11.9577  -18.7234   19.5387 C   0  0  1  0  0  0  0  0  0  0  0  0
   12.5389  -17.7557   18.5164 C   0  0  0  0  0  0  0  0  0  0  0  0
   12.9315  -18.4751   17.2801 C   0  0  0  0  0  0  0  0  0  0  0  0
   13.2066  -19.7064   17.3211 O   0  0  0  0  0  0  0  0  0  0  0  0
   11.7502  -18.0587   20.8483 C   0  0  0  0  0  0  0  0  0  0  0  0
   12.6917  -17.5613   21.5163 O   0  0  0  0  0  0  0  0  0  0  0  0
   13.0175  -17.8612   16.0464 O   0  0  0  0  0  0  0  0  0  0  0  0
    8.2426  -12.5315   21.3778 N   0  0  0  0  0  0  0  0  0  0  0  0
    7.7347  -13.1221   20.1920 C   0  0  0  0  0  0  0  0  0  0  0  0
    7.8046  -12.4820   19.0565 N   0  0  0  0  0  0  0  0  0  0  0  0
    7.1388  -14.4016   20.1656 N   0  0  0  0  0  0  0  0  0  0  0  0
    7.3066  -15.3078   21.2845 C   0  0  0  0  0  0  0  0  0  0  0  0
    8.6967  -15.8473   21.3893 C   0  0  0  0  0  0  0  0  0  0  0  0
    8.7443  -16.8213   22.5481 C   0  0  0  0  0  0  0  0  0  0  0  0
   10.1125  -17.4523   22.6711 C   0  0  2  0  0  0  0  0  0  0  0  0
   10.4573  -17.9779   21.3688 N   0  0  0  0  0  0  0  0  0  0  0  0
   10.2301  -18.4055   23.7533 C   0  0  0  0  0  0  0  0  0  0  0  0
    9.4142  -19.3426   23.8622 O   0  0  0  0  0  0  0  0  0  0  0  0
    7.4803  -12.8735   18.1707 C   0  0  0  0  0  0  0  0  0  0  0  0
   12.8955  -19.3750   26.1034 C   0  0  1  0  0  0  0  0  0  0  0  0
   11.4258  -19.2571   25.8087 N   0  0  0  0  0  0  0  0  0  0  0  0
   11.2589  -18.3145   24.7161 C   0  0  0  0  0  0  0  0  0  0  0  0
   10.6155  -18.9415   26.9754 O   0  0  0  0  0  0  0  0  0  0  0  0
   10.5361  -19.8246   28.0300 O   0  0  0  0  0  0  0  0  0  0  0  0
  2  1  1  6
  2  3  1  0
  3  4  1  0
  4  8  1  0
  5  4  2  0
  6  2  1  0
  7  6  2  0
 10 12  1  0
 10  9  1  0
 11 10  2  0
 13 14  1  0
 13 12  1  0
 15 14  1  0
 16 15  1  6
 16 17  1  0
 17  6  1  0
 18 16  1  0
 18 19  2  0
 21 20  1  6
 21 22  1  0
 22 18  1  0
 23 21  1  0
 24 23  1  0
 25 23  2  0
M  END
$$$$
