DRA.pdb
     RDKit          3D

 25 24  0  0  1  0  0  0  0  0999 V2000
   13.4670  -16.9258   21.1809 N   0  0  0  0  0  0  0  0  0  0  0  0
   12.3471  -17.4375   21.9396 C   0  0  1  0  0  0  0  0  0  0  0  0
   12.7211  -18.7165   22.6771 C   0  0  0  0  0  0  0  0  0  0  0  0
   13.2044  -19.7463   21.7254 C   0  0  0  0  0  0  0  0  0  0  0  0
   14.3347  -20.2838   21.8900 O   0  0  0  0  0  0  0  0  0  0  0  0
   11.8160  -16.4156   22.8742 C   0  0  0  0  0  0  0  0  0  0  0  0
   12.5587  -15.6634   23.5543 O   0  0  0  0  0  0  0  0  0  0  0  0
   12.4704  -20.1675   20.6344 O   0  0  0  0  0  0  0  0  0  0  0  0
    8.1177  -12.3835   19.8755 N   0  0  0  0  0  0  0  0  0  0  0  0
    7.6876  -13.6207   19.3305 C   0  0  0  0  0  0  0  0  0  0  0  0
    7.8882  -13.8887   18.0687 N   0  0  0  0  0  0  0  0  0  0  0  0
    7.0345  -14.6113   20.0955 N   0  0  0  0  0  0  0  0  0  0  0  0
    6.9321  -14.4721   21.5347 C   0  0  0  0  0  0  0  0  0  0  0  0
    8.2589  -14.2703   22.1929 C   0  0  0  0  0  0  0  0  0  0  0  0
    8.3455  -15.1988   23.3863 C   0  0  0  0  0  0  0  0  0  0  0  0
    9.7710  -15.3245   23.8739 C   0  0  2  0  0  0  0  0  0  0  0  0
   10.4336  -16.2766   23.0104 N   0  0  0  0  0  0  0  0  0  0  0  0
    9.8905  -15.6115   25.2870 C   0  0  0  0  0  0  0  0  0  0  0  0
    9.8742  -16.7896   25.6967 O   0  0  0  0  0  0  0  0  0  0  0  0
    7.6026  -14.7651   17.6290 C   0  0  0  0  0  0  0  0  0  0  0  0
   10.0532  -13.4944   28.3763 C   0  0  1  0  0  0  0  0  0  0  0  0
   10.1199  -14.8230   27.6756 N   0  0  0  0  0  0  0  0  0  0  0  0
   10.0285  -14.5841   26.2456 C   0  0  0  0  0  0  0  0  0  0  0  0
    9.1530  -15.7947   28.1639 O   0  0  0  0  0  0  0  0  0  0  0  0
    9.4278  -16.5523   29.2814 O   0  0  0  0  0  0  0  0  0  0  0  0
  2  1  1  1
  2  3  1  0
  3  4  1  0
  4  8  1  0
  5  4  2  0
  6  2  1  0
  7  6  2  0
 10 12  1  0
 10  9  1  0
 11 10  2  0
 13 14  1  0
 13 12  1  0
 15 14  1  0
 16 15  1  6
 16 17  1  0
 17  6  1  0
 18 16  1  0
 18 19  2  0
 21 20  1  6
 21 22  1  0
 22 18  1  0
 23 21  1  0
 24 23  1  0
 25 23  2  0
M  END
$$$$
