DRA.pdb
     RDKit          3D

 25 24  0  0  1  0  0  0  0  0999 V2000
   12.5755  -17.5147   18.9863 N   0  0  0  0  0  0  0  0  0  0  0  0
   11.8046  -18.4182   19.8116 C   0  0  1  0  0  0  0  0  0  0  0  0
   12.4110  -19.8153   19.8120 C   0  0  0  0  0  0  0  0  0  0  0  0
   12.5350  -20.3316   18.4270 C   0  0  0  0  0  0  0  0  0  0  0  0
   12.2281  -19.5994   17.4457 O   0  0  0  0  0  0  0  0  0  0  0  0
   11.6587  -17.8968   21.1924 C   0  0  0  0  0  0  0  0  0  0  0  0
   12.6165  -17.4006   21.8377 O   0  0  0  0  0  0  0  0  0  0  0  0
   12.9800  -21.6056   18.1351 O   0  0  0  0  0  0  0  0  0  0  0  0
    7.8455  -13.9931   19.0851 N   0  0  0  0  0  0  0  0  0  0  0  0
    8.1543  -13.1957   20.2173 C   0  0  0  0  0  0  0  0  0  0  0  0
    8.2433  -11.8984   20.1033 N   0  0  0  0  0  0  0  0  0  0  0  0
    8.3784  -13.7388   21.5009 N   0  0  0  0  0  0  0  0  0  0  0  0
    8.4552  -15.1748   21.6825 C   0  0  0  0  0  0  0  0  0  0  0  0
    8.5748  -15.5714   23.1187 C   0  0  0  0  0  0  0  0  0  0  0  0
    8.6782  -17.0807   23.1898 C   0  0  0  0  0  0  0  0  0  0  0  0
   10.1219  -17.5280   23.1608 C   0  0  2  0  0  0  0  0  0  0  0  0
   10.4078  -17.9559   21.8094 N   0  0  0  0  0  0  0  0  0  0  0  0
   10.4630  -18.4954   24.1813 C   0  0  0  0  0  0  0  0  0  0  0  0
   10.6070  -19.6993   23.8887 O   0  0  0  0  0  0  0  0  0  0  0  0
    8.5717  -11.2903   20.8552 C   0  0  0  0  0  0  0  0  0  0  0  0
   12.3506  -19.6755   26.1612 C   0  0  1  0  0  0  0  0  0  0  0  0
   11.0506  -19.0440   26.5757 N   0  0  0  0  0  0  0  0  0  0  0  0
   10.6439  -18.1207   25.5306 C   0  0  0  0  0  0  0  0  0  0  0  0
   11.0852  -18.4418   27.8999 O   0  0  0  0  0  0  0  0  0  0  0  0
   11.4105  -19.1998   29.0036 O   0  0  0  0  0  0  0  0  0  0  0  0
  2  1  1  6
  2  3  1  0
  3  4  1  0
  4  8  1  0
  5  4  2  0
  6  2  1  0
  7  6  2  0
 10 12  1  0
 10  9  1  0
 11 10  2  0
 13 14  1  0
 13 12  1  0
 15 14  1  0
 16 15  1  6
 16 17  1  0
 17  6  1  0
 18 16  1  0
 18 19  2  0
 21 20  1  6
 21 22  1  0
 22 18  1  0
 23 21  1  0
 24 23  1  0
 25 23  2  0
M  END
$$$$
