DRA.pdb
     RDKit          3D

 25 24  0  0  1  0  0  0  0  0999 V2000
   17.6639  -16.5029   16.2320 N   0  0  0  0  0  0  0  0  0  0  0  0
   17.2946  -17.6214   17.0713 C   0  0  1  0  0  0  0  0  0  0  0  0
   18.3601  -17.8934   18.1250 C   0  0  0  0  0  0  0  0  0  0  0  0
   19.6997  -18.0028   17.4975 C   0  0  0  0  0  0  0  0  0  0  0  0
   19.8550  -18.6811   16.4444 O   0  0  0  0  0  0  0  0  0  0  0  0
   15.9651  -17.4128   17.6948 C   0  0  0  0  0  0  0  0  0  0  0  0
   15.5059  -16.2717   17.9537 O   0  0  0  0  0  0  0  0  0  0  0  0
   20.8245  -17.3883   18.0110 O   0  0  0  0  0  0  0  0  0  0  0  0
    9.8028  -22.6910   14.3369 N   0  0  0  0  0  0  0  0  0  0  0  0
   11.0716  -22.4370   14.9189 C   0  0  0  0  0  0  0  0  0  0  0  0
   12.0094  -23.3438   14.8733 N   0  0  0  0  0  0  0  0  0  0  0  0
   11.3907  -21.2232   15.5653 N   0  0  0  0  0  0  0  0  0  0  0  0
   12.7708  -20.8980   15.8666 C   0  0  0  0  0  0  0  0  0  0  0  0
   12.9295  -19.5309   16.4499 C   0  0  0  0  0  0  0  0  0  0  0  0
   13.0974  -19.6683   17.9488 C   0  0  0  0  0  0  0  0  0  0  0  0
   13.8327  -18.4793   18.5240 C   0  0  2  0  0  0  0  0  0  0  0  0
   15.1839  -18.5258   18.0110 N   0  0  0  0  0  0  0  0  0  0  0  0
   13.7408  -18.3658   19.9635 C   0  0  0  0  0  0  0  0  0  0  0  0
   14.6790  -18.7515   20.6895 O   0  0  0  0  0  0  0  0  0  0  0  0
   12.9520  -23.1949   15.2369 C   0  0  0  0  0  0  0  0  0  0  0  0
   11.2271  -16.8450   22.2941 C   0  0  1  0  0  0  0  0  0  0  0  0
   12.5124  -17.5773   22.0248 N   0  0  0  0  0  0  0  0  0  0  0  0
   12.6016  -17.8214   20.5955 C   0  0  0  0  0  0  0  0  0  0  0  0
   12.6854  -18.7772   22.8296 O   0  0  0  0  0  0  0  0  0  0  0  0
   13.1877  -18.6929   24.1099 O   0  0  0  0  0  0  0  0  0  0  0  0
  2  1  1  1
  2  3  1  0
  3  4  1  0
  4  8  1  0
  5  4  2  0
  6  2  1  0
  7  6  2  0
 10 12  1  0
 10  9  1  0
 11 10  2  0
 13 14  1  0
 13 12  1  0
 15 14  1  0
 16 15  1  1
 16 17  1  0
 17  6  1  0
 18 16  1  0
 18 19  2  0
 21 20  1  6
 21 22  1  0
 22 18  1  0
 23 21  1  0
 24 23  1  0
 25 23  2  0
M  END
$$$$
