DRA.pdb
     RDKit          3D

 25 24  0  0  1  0  0  0  0  0999 V2000
   11.5582  -19.2608   21.1601 N   0  0  0  0  0  0  0  0  0  0  0  0
   12.5350  -18.2514   21.5043 C   0  0  1  0  0  0  0  0  0  0  0  0
   13.4108  -17.9033   20.3079 C   0  0  0  0  0  0  0  0  0  0  0  0
   14.2607  -19.0583   19.9288 C   0  0  0  0  0  0  0  0  0  0  0  0
   14.8415  -19.7395   20.8187 O   0  0  0  0  0  0  0  0  0  0  0  0
   11.8862  -17.0407   22.0638 C   0  0  0  0  0  0  0  0  0  0  0  0
   12.5257  -16.1431   22.6683 O   0  0  0  0  0  0  0  0  0  0  0  0
   14.4626  -19.4473   18.6195 O   0  0  0  0  0  0  0  0  0  0  0  0
    8.1924  -14.0882   18.0246 N   0  0  0  0  0  0  0  0  0  0  0  0
    7.8043  -13.0168   18.8698 C   0  0  0  0  0  0  0  0  0  0  0  0
    8.4285  -11.8720   18.8090 N   0  0  0  0  0  0  0  0  0  0  0  0
    6.7497  -13.1180   19.8029 N   0  0  0  0  0  0  0  0  0  0  0  0
    6.6521  -14.2746   20.6711 C   0  0  0  0  0  0  0  0  0  0  0  0
    7.7692  -14.3514   21.6612 C   0  0  0  0  0  0  0  0  0  0  0  0
    8.6315  -15.5475   21.3157 C   0  0  0  0  0  0  0  0  0  0  0  0
    9.7523  -15.7159   22.3162 C   0  0  2  0  0  0  0  0  0  0  0  0
   10.5067  -16.8834   21.9175 N   0  0  0  0  0  0  0  0  0  0  0  0
    9.3178  -15.7248   23.6964 C   0  0  0  0  0  0  0  0  0  0  0  0
    9.1671  -14.6544   24.3188 O   0  0  0  0  0  0  0  0  0  0  0  0
    8.1612  -11.0570   19.3633 C   0  0  0  0  0  0  0  0  0  0  0  0
    7.2589  -17.3408   25.9164 C   0  0  2  0  0  0  0  0  0  0  0  0
    8.7166  -16.9924   25.7966 N   0  0  0  0  0  0  0  0  0  0  0  0
    9.0507  -16.9285   24.3844 C   0  0  0  0  0  0  0  0  0  0  0  0
    9.5947  -17.8654   26.5610 O   0  0  0  0  0  0  0  0  0  0  0  0
    9.4514  -17.9776   27.9268 O   0  0  0  0  0  0  0  0  0  0  0  0
  2  1  1  6
  2  3  1  0
  3  4  1  0
  4  8  1  0
  5  4  2  0
  6  2  1  0
  7  6  2  0
 10 12  1  0
 10  9  1  0
 11 10  2  0
 13 14  1  0
 13 12  1  0
 15 14  1  0
 16 15  1  6
 16 17  1  0
 17  6  1  0
 18 16  1  0
 18 19  2  0
 21 20  1  6
 21 22  1  0
 22 18  1  0
 23 21  1  0
 24 23  1  0
 25 23  2  0
M  END
$$$$
