DRA.pdb
     RDKit          3D

 25 24  0  0  1  0  0  0  0  0999 V2000
   10.5234  -21.5837   19.0792 N   0  0  0  0  0  0  0  0  0  0  0  0
   10.0280  -21.0212   20.3160 C   0  0  1  0  0  0  0  0  0  0  0  0
   10.1519  -22.0172   21.4615 C   0  0  0  0  0  0  0  0  0  0  0  0
    9.5620  -23.3245   21.0834 C   0  0  0  0  0  0  0  0  0  0  0  0
    9.1253  -23.5106   19.9138 O   0  0  0  0  0  0  0  0  0  0  0  0
   10.7099  -19.7444   20.6398 C   0  0  0  0  0  0  0  0  0  0  0  0
   11.9607  -19.6201   20.6347 O   0  0  0  0  0  0  0  0  0  0  0  0
    9.4575  -24.3857   21.9606 O   0  0  0  0  0  0  0  0  0  0  0  0
    6.8455  -12.1826   19.7118 N   0  0  0  0  0  0  0  0  0  0  0  0
    7.6269  -13.1005   18.9636 C   0  0  0  0  0  0  0  0  0  0  0  0
    7.5042  -13.1633   17.6655 N   0  0  0  0  0  0  0  0  0  0  0  0
    8.5590  -13.9785   19.5579 N   0  0  0  0  0  0  0  0  0  0  0  0
    8.7716  -13.9554   20.9916 C   0  0  0  0  0  0  0  0  0  0  0  0
    9.8210  -14.9221   21.4371 C   0  0  0  0  0  0  0  0  0  0  0  0
    9.3665  -16.3205   21.0739 C   0  0  0  0  0  0  0  0  0  0  0  0
   10.4579  -17.3322   21.3398 C   0  0  2  0  0  0  0  0  0  0  0  0
    9.9371  -18.6282   20.9653 N   0  0  0  0  0  0  0  0  0  0  0  0
   11.0100  -17.2706   22.6758 C   0  0  0  0  0  0  0  0  0  0  0  0
   10.3233  -17.6100   23.6603 O   0  0  0  0  0  0  0  0  0  0  0  0
    8.0441  -13.8035   17.0812 C   0  0  0  0  0  0  0  0  0  0  0  0
   12.9059  -18.2254   24.7728 C   0  0  2  0  0  0  0  0  0  0  0  0
   12.9516  -16.8245   24.2285 N   0  0  0  0  0  0  0  0  0  0  0  0
   12.3299  -16.8301   22.9156 C   0  0  0  0  0  0  0  0  0  0  0  0
   14.2810  -16.2330   24.2378 O   0  0  0  0  0  0  0  0  0  0  0  0
   14.9338  -16.0010   25.4289 O   0  0  0  0  0  0  0  0  0  0  0  0
  2  1  1  6
  2  3  1  0
  3  4  1  0
  4  8  1  0
  5  4  2  0
  6  2  1  0
  7  6  2  0
 10 12  1  0
 10  9  1  0
 11 10  2  0
 13 14  1  0
 13 12  1  0
 15 14  1  0
 16 15  1  1
 16 17  1  0
 17  6  1  0
 18 16  1  0
 18 19  2  0
 21 20  1  1
 21 22  1  0
 22 18  1  0
 23 21  1  0
 24 23  1  0
 25 23  2  0
M  END
$$$$
