DRA.pdb
     RDKit          3D

 25 24  0  0  1  0  0  0  0  0999 V2000
   14.3502  -18.0527   18.3814 N   0  0  0  0  0  0  0  0  0  0  0  0
   13.0532  -18.4767   18.8606 C   0  0  1  0  0  0  0  0  0  0  0  0
   13.0338  -19.9730   19.1435 C   0  0  0  0  0  0  0  0  0  0  0  0
   13.2630  -20.7436   17.8971 C   0  0  0  0  0  0  0  0  0  0  0  0
   13.5130  -20.1432   16.8152 O   0  0  0  0  0  0  0  0  0  0  0  0
   12.6382  -17.7001   20.0541 C   0  0  0  0  0  0  0  0  0  0  0  0
   13.4547  -17.2902   20.9175 O   0  0  0  0  0  0  0  0  0  0  0  0
   13.2184  -22.1226   17.8450 O   0  0  0  0  0  0  0  0  0  0  0  0
    7.8374  -11.9989   21.2991 N   0  0  0  0  0  0  0  0  0  0  0  0
    7.7565  -12.8705   20.1826 C   0  0  0  0  0  0  0  0  0  0  0  0
    7.8681  -12.3987   18.9706 N   0  0  0  0  0  0  0  0  0  0  0  0
    7.5560  -14.2623   20.3078 N   0  0  0  0  0  0  0  0  0  0  0  0
    7.4324  -14.8666   21.6196 C   0  0  0  0  0  0  0  0  0  0  0  0
    8.7187  -15.4453   22.1142 C   0  0  0  0  0  0  0  0  0  0  0  0
    9.3860  -16.1747   20.9668 C   0  0  0  0  0  0  0  0  0  0  0  0
   10.7199  -16.7467   21.3896 C   0  0  2  0  0  0  0  0  0  0  0  0
   11.2851  -17.4075   20.2341 N   0  0  0  0  0  0  0  0  0  0  0  0
   10.6623  -17.5659   22.5809 C   0  0  0  0  0  0  0  0  0  0  0  0
   10.0124  -18.6306   22.5854 O   0  0  0  0  0  0  0  0  0  0  0  0
    7.7829  -12.9771   18.1333 C   0  0  0  0  0  0  0  0  0  0  0  0
   12.6927  -18.1523   25.4901 C   0  0  1  0  0  0  0  0  0  0  0  0
   11.2841  -17.9786   24.9939 N   0  0  0  0  0  0  0  0  0  0  0  0
   11.3300  -17.1983   23.7694 C   0  0  0  0  0  0  0  0  0  0  0  0
   10.3716  -17.4394   25.9909 O   0  0  0  0  0  0  0  0  0  0  0  0
   10.1471  -18.1156   27.1703 O   0  0  0  0  0  0  0  0  0  0  0  0
  2  1  1  1
  2  3  1  0
  3  4  1  0
  4  8  1  0
  5  4  2  0
  6  2  1  0
  7  6  2  0
 10 12  1  0
 10  9  1  0
 11 10  2  0
 13 14  1  0
 13 12  1  0
 15 14  1  0
 16 15  1  6
 16 17  1  0
 17  6  1  0
 18 16  1  0
 18 19  2  0
 21 20  1  6
 21 22  1  0
 22 18  1  0
 23 21  1  0
 24 23  1  0
 25 23  2  0
M  END
$$$$
