DRA.pdb
     RDKit          3D

 25 24  0  0  1  0  0  0  0  0999 V2000
   11.9877  -16.5077   19.1130 N   0  0  0  0  0  0  0  0  0  0  0  0
   12.8236  -15.6163   19.8865 C   0  0  1  0  0  0  0  0  0  0  0  0
   13.2487  -14.4080   19.0627 C   0  0  0  0  0  0  0  0  0  0  0  0
   14.5416  -14.6672   18.3834 C   0  0  0  0  0  0  0  0  0  0  0  0
   14.9605  -15.8498   18.2437 O   0  0  0  0  0  0  0  0  0  0  0  0
   12.1521  -15.1998   21.1417 C   0  0  0  0  0  0  0  0  0  0  0  0
   12.7639  -14.6457   22.0898 O   0  0  0  0  0  0  0  0  0  0  0  0
   15.3417  -13.6620   17.8778 O   0  0  0  0  0  0  0  0  0  0  0  0
    7.6374  -15.3201   17.4637 N   0  0  0  0  0  0  0  0  0  0  0  0
    7.7411  -13.9061   17.5150 C   0  0  0  0  0  0  0  0  0  0  0  0
    8.2364  -13.2460   16.5037 N   0  0  0  0  0  0  0  0  0  0  0  0
    7.3277  -13.1458   18.6304 N   0  0  0  0  0  0  0  0  0  0  0  0
    7.3297  -13.7336   19.9554 C   0  0  0  0  0  0  0  0  0  0  0  0
    8.7075  -13.9196   20.5043 C   0  0  0  0  0  0  0  0  0  0  0  0
    8.5997  -14.6514   21.8259 C   0  0  0  0  0  0  0  0  0  0  0  0
    9.9683  -14.9651   22.3860 C   0  0  2  0  0  0  0  0  0  0  0  0
   10.7825  -15.4294   21.2847 N   0  0  0  0  0  0  0  0  0  0  0  0
    9.9511  -15.8469   23.5330 C   0  0  0  0  0  0  0  0  0  0  0  0
    9.2319  -15.5885   24.5188 O   0  0  0  0  0  0  0  0  0  0  0  0
    8.3367  -12.2297   16.4919 C   0  0  0  0  0  0  0  0  0  0  0  0
   10.6378  -19.3519   24.1074 C   0  0  2  0  0  0  0  0  0  0  0  0
   10.7053  -17.9649   24.6840 N   0  0  0  0  0  0  0  0  0  0  0  0
   10.7367  -17.0192   23.5819 C   0  0  0  0  0  0  0  0  0  0  0  0
   11.7865  -17.7773   25.6397 O   0  0  0  0  0  0  0  0  0  0  0  0
   12.7659  -16.8358   25.4102 O   0  0  0  0  0  0  0  0  0  0  0  0
  2  1  1  6
  2  3  1  0
  3  4  1  0
  4  8  1  0
  5  4  2  0
  6  2  1  0
  7  6  2  0
 10 12  1  0
 10  9  1  0
 11 10  2  0
 13 14  1  0
 13 12  1  0
 15 14  1  0
 16 15  1  6
 16 17  1  0
 17  6  1  0
 18 16  1  0
 18 19  2  0
 21 20  1  1
 21 22  1  0
 22 18  1  0
 23 21  1  0
 24 23  1  0
 25 23  2  0
M  END
$$$$
