DRA.pdb
     RDKit          3D

 25 24  0  0  1  0  0  0  0  0999 V2000
   12.5027  -15.8832   15.8591 N   0  0  0  0  0  0  0  0  0  0  0  0
   12.8891  -16.9013   16.8109 C   0  0  1  0  0  0  0  0  0  0  0  0
   14.1836  -17.5844   16.3900 C   0  0  0  0  0  0  0  0  0  0  0  0
   14.5125  -17.2582   14.9810 C   0  0  0  0  0  0  0  0  0  0  0  0
   13.7115  -16.5773   14.2823 O   0  0  0  0  0  0  0  0  0  0  0  0
   12.9974  -16.3456   18.1818 C   0  0  0  0  0  0  0  0  0  0  0  0
   13.8821  -15.5162   18.5124 O   0  0  0  0  0  0  0  0  0  0  0  0
   15.6792  -17.6666   14.3658 O   0  0  0  0  0  0  0  0  0  0  0  0
    7.3279  -13.7999   19.7802 N   0  0  0  0  0  0  0  0  0  0  0  0
    8.2075  -12.7420   19.4336 C   0  0  0  0  0  0  0  0  0  0  0  0
    7.7521  -11.5263   19.2970 N   0  0  0  0  0  0  0  0  0  0  0  0
    9.5901  -12.9314   19.2206 N   0  0  0  0  0  0  0  0  0  0  0  0
   10.3233  -13.9031   20.0077 C   0  0  0  0  0  0  0  0  0  0  0  0
    9.7451  -15.2783   19.9150 C   0  0  0  0  0  0  0  0  0  0  0  0
   10.5168  -16.1844   20.8516 C   0  0  0  0  0  0  0  0  0  0  0  0
   11.9844  -16.2155   20.4902 C   0  0  2  0  0  0  0  0  0  0  0  0
   12.0818  -16.7559   19.1525 N   0  0  0  0  0  0  0  0  0  0  0  0
   12.8212  -16.8777   21.4674 C   0  0  0  0  0  0  0  0  0  0  0  0
   12.4227  -17.9078   22.0470 O   0  0  0  0  0  0  0  0  0  0  0  0
    8.3363  -10.7363   19.0184 C   0  0  0  0  0  0  0  0  0  0  0  0
   16.3606  -17.0927   22.1812 C   0  0  1  0  0  0  0  0  0  0  0  0
   14.9794  -17.0240   22.7713 N   0  0  0  0  0  0  0  0  0  0  0  0
   14.1045  -16.3914   21.7994 C   0  0  0  0  0  0  0  0  0  0  0  0
   14.9318  -16.4016   24.0857 O   0  0  0  0  0  0  0  0  0  0  0  0
   15.3922  -17.0766   25.1951 O   0  0  0  0  0  0  0  0  0  0  0  0
  2  1  1  6
  2  3  1  0
  3  4  1  0
  4  8  1  0
  5  4  2  0
  6  2  1  0
  7  6  2  0
 10 12  1  0
 10  9  1  0
 11 10  2  0
 13 14  1  0
 13 12  1  0
 15 14  1  0
 16 15  1  1
 16 17  1  0
 17  6  1  0
 18 16  1  0
 18 19  2  0
 21 20  1  6
 21 22  1  0
 22 18  1  0
 23 21  1  0
 24 23  1  0
 25 23  2  0
M  END
$$$$
