DRA.pdb
     RDKit          3D

 25 24  0  0  1  0  0  0  0  0999 V2000
   12.1501  -19.2931   16.6394 N   0  0  0  0  0  0  0  0  0  0  0  0
   11.2806  -19.6064   17.7518 C   0  0  1  0  0  0  0  0  0  0  0  0
   11.4521  -21.0540   18.1930 C   0  0  0  0  0  0  0  0  0  0  0  0
   11.4413  -21.9624   17.0205 C   0  0  0  0  0  0  0  0  0  0  0  0
   12.4092  -22.7461   16.8145 O   0  0  0  0  0  0  0  0  0  0  0  0
   11.4940  -18.6722   18.8838 C   0  0  0  0  0  0  0  0  0  0  0  0
   12.6375  -18.3354   19.2824 O   0  0  0  0  0  0  0  0  0  0  0  0
   10.4039  -22.0055   16.1104 O   0  0  0  0  0  0  0  0  0  0  0  0
    8.2885  -12.2220   21.4304 N   0  0  0  0  0  0  0  0  0  0  0  0
    8.2251  -12.3387   20.0179 C   0  0  0  0  0  0  0  0  0  0  0  0
    8.6685  -11.3744   19.2579 N   0  0  0  0  0  0  0  0  0  0  0  0
    7.6940  -13.4715   19.3639 N   0  0  0  0  0  0  0  0  0  0  0  0
    7.7207  -14.7676   20.0123 C   0  0  0  0  0  0  0  0  0  0  0  0
    9.0930  -15.1689   20.4482 C   0  0  0  0  0  0  0  0  0  0  0  0
    9.0634  -16.6348   20.8277 C   0  0  0  0  0  0  0  0  0  0  0  0
   10.4327  -17.2598   20.6869 C   0  0  2  0  0  0  0  0  0  0  0  0
   10.3830  -18.1395   19.5402 N   0  0  0  0  0  0  0  0  0  0  0  0
   10.9286  -17.8788   21.8971 C   0  0  0  0  0  0  0  0  0  0  0  0
   10.3242  -18.8430   22.4078 O   0  0  0  0  0  0  0  0  0  0  0  0
    8.6281  -11.4002   18.2378 C   0  0  0  0  0  0  0  0  0  0  0  0
   12.8705  -19.4876   23.4725 C   0  0  2  0  0  0  0  0  0  0  0  0
   12.6463  -18.0257   23.7430 N   0  0  0  0  0  0  0  0  0  0  0  0
   12.1004  -17.4227   22.5395 C   0  0  0  0  0  0  0  0  0  0  0  0
   13.8202  -17.3356   24.2559 O   0  0  0  0  0  0  0  0  0  0  0  0
   14.3594  -17.6860   25.4746 O   0  0  0  0  0  0  0  0  0  0  0  0
  2  1  1  6
  2  3  1  0
  3  4  1  0
  4  8  1  0
  5  4  2  0
  6  2  1  0
  7  6  2  0
 10 12  1  0
 10  9  1  0
 11 10  2  0
 13 14  1  0
 13 12  1  0
 15 14  1  0
 16 15  1  1
 16 17  1  0
 17  6  1  0
 18 16  1  0
 18 19  2  0
 21 20  1  1
 21 22  1  0
 22 18  1  0
 23 21  1  0
 24 23  1  0
 25 23  2  0
M  END
$$$$
