DRA.pdb
     RDKit          3D

 25 24  0  0  1  0  0  0  0  0999 V2000
   11.5646  -18.0992   21.3090 N   0  0  0  0  0  0  0  0  0  0  0  0
   12.6095  -17.4601   22.0781 C   0  0  1  0  0  0  0  0  0  0  0  0
   13.6554  -16.8303   21.1677 C   0  0  0  0  0  0  0  0  0  0  0  0
   14.5740  -17.8649   20.6331 C   0  0  0  0  0  0  0  0  0  0  0  0
   14.1122  -18.9264   20.1299 O   0  0  0  0  0  0  0  0  0  0  0  0
   12.0511  -16.4627   23.0232 C   0  0  0  0  0  0  0  0  0  0  0  0
   12.7728  -15.6870   23.6996 O   0  0  0  0  0  0  0  0  0  0  0  0
   15.9485  -17.7344   20.6523 O   0  0  0  0  0  0  0  0  0  0  0  0
    8.0669  -12.4665   18.9713 N   0  0  0  0  0  0  0  0  0  0  0  0
    7.6354  -13.6275   19.6633 C   0  0  0  0  0  0  0  0  0  0  0  0
    8.0021  -14.8115   19.2539 N   0  0  0  0  0  0  0  0  0  0  0  0
    6.8061  -13.5773   20.8048 N   0  0  0  0  0  0  0  0  0  0  0  0
    7.0305  -14.4878   21.9102 C   0  0  0  0  0  0  0  0  0  0  0  0
    8.3879  -14.3377   22.5177 C   0  0  0  0  0  0  0  0  0  0  0  0
    8.5444  -15.3850   23.6005 C   0  0  0  0  0  0  0  0  0  0  0  0
    9.9790  -15.4708   24.0695 C   0  0  2  0  0  0  0  0  0  0  0  0
   10.6660  -16.3750   23.1742 N   0  0  0  0  0  0  0  0  0  0  0  0
   10.1252  -15.7900   25.4732 C   0  0  0  0  0  0  0  0  0  0  0  0
   10.1891  -16.9779   25.8484 O   0  0  0  0  0  0  0  0  0  0  0  0
    7.7480  -15.6754   19.7356 C   0  0  0  0  0  0  0  0  0  0  0  0
   10.2565  -13.7654   28.6259 C   0  0  1  0  0  0  0  0  0  0  0  0
   10.4318  -15.0529   27.8695 N   0  0  0  0  0  0  0  0  0  0  0  0
   10.2005  -14.7838   26.4609 C   0  0  0  0  0  0  0  0  0  0  0  0
    9.6333  -16.1532   28.3882 O   0  0  0  0  0  0  0  0  0  0  0  0
   10.1006  -16.9250   29.4295 O   0  0  0  0  0  0  0  0  0  0  0  0
  2  1  1  6
  2  3  1  0
  3  4  1  0
  4  8  1  0
  5  4  2  0
  6  2  1  0
  7  6  2  0
 10 12  1  0
 10  9  1  0
 11 10  2  0
 13 14  1  0
 13 12  1  0
 15 14  1  0
 16 15  1  6
 16 17  1  0
 17  6  1  0
 18 16  1  0
 18 19  2  0
 21 20  1  6
 21 22  1  0
 22 18  1  0
 23 21  1  0
 24 23  1  0
 25 23  2  0
M  END
$$$$
