DRA.pdb
     RDKit          3D

 25 24  0  0  1  0  0  0  0  0999 V2000
   10.8504  -17.8141   21.3204 N   0  0  0  0  0  0  0  0  0  0  0  0
   11.7594  -17.1567   22.2332 C   0  0  1  0  0  0  0  0  0  0  0  0
   12.9093  -16.4966   21.4838 C   0  0  0  0  0  0  0  0  0  0  0  0
   13.8187  -17.5209   20.9148 C   0  0  0  0  0  0  0  0  0  0  0  0
   13.6956  -18.7334   21.2434 O   0  0  0  0  0  0  0  0  0  0  0  0
   11.0484  -16.1791   23.0927 C   0  0  0  0  0  0  0  0  0  0  0  0
   11.5708  -15.6628   24.1127 O   0  0  0  0  0  0  0  0  0  0  0  0
   14.8249  -17.2203   20.0183 O   0  0  0  0  0  0  0  0  0  0  0  0
    7.5662  -12.4264   17.9022 N   0  0  0  0  0  0  0  0  0  0  0  0
    7.3944  -13.8347   17.9169 C   0  0  0  0  0  0  0  0  0  0  0  0
    7.6764  -14.5426   16.8571 N   0  0  0  0  0  0  0  0  0  0  0  0
    6.9213  -14.5388   19.0453 N   0  0  0  0  0  0  0  0  0  0  0  0
    7.0792  -13.9797   20.3733 C   0  0  0  0  0  0  0  0  0  0  0  0
    7.9878  -14.7914   21.2391 C   0  0  0  0  0  0  0  0  0  0  0  0
    8.0643  -14.1322   22.6005 C   0  0  0  0  0  0  0  0  0  0  0  0
    8.8870  -14.9617   23.5599 C   0  0  2  0  0  0  0  0  0  0  0  0
    9.7430  -15.8112   22.7619 N   0  0  0  0  0  0  0  0  0  0  0  0
    8.1065  -15.6628   24.5564 C   0  0  0  0  0  0  0  0  0  0  0  0
    6.8844  -15.4419   24.6730 O   0  0  0  0  0  0  0  0  0  0  0  0
    7.6573  -15.5636   16.8429 C   0  0  0  0  0  0  0  0  0  0  0  0
    6.8888  -18.1839   25.5548 C   0  0  2  0  0  0  0  0  0  0  0  0
    7.9257  -17.4358   26.3461 N   0  0  0  0  0  0  0  0  0  0  0  0
    8.6887  -16.6119   25.4246 C   0  0  0  0  0  0  0  0  0  0  0  0
    8.7550  -18.2892   27.1836 O   0  0  0  0  0  0  0  0  0  0  0  0
    8.1821  -19.0942   28.1440 O   0  0  0  0  0  0  0  0  0  0  0  0
  2  1  1  6
  2  3  1  0
  3  4  1  0
  4  8  1  0
  5  4  2  0
  6  2  1  0
  7  6  2  0
 10 12  1  0
 10  9  1  0
 11 10  2  0
 13 14  1  0
 13 12  1  0
 15 14  1  0
 16 15  1  6
 16 17  1  0
 17  6  1  0
 18 16  1  0
 18 19  2  0
 21 20  1  1
 21 22  1  0
 22 18  1  0
 23 21  1  0
 24 23  1  0
 25 23  2  0
M  END
$$$$
