RPE.pdb
     RDKit          3D

 28 28  0  0  1  0  0  0  0  0999 V2000
   10.1168  -16.1103   13.4473 N   0  0  0  0  0  0  0  0  0  0  0  0
    8.7567  -15.6442   13.4808 C   0  0  0  0  0  0  0  0  0  0  0  0
    8.3583  -14.9794   12.4726 N   0  0  0  0  0  0  0  0  0  0  0  0
    7.9051  -15.9041   14.5722 N   0  0  0  0  0  0  0  0  0  0  0  0
    8.3176  -16.7890   15.6205 C   0  0  0  0  0  0  0  0  0  0  0  0
    8.8949  -16.1088   16.8347 C   0  0  0  0  0  0  0  0  0  0  0  0
   10.3776  -15.9675   16.8136 C   0  0  0  0  0  0  0  0  0  0  0  0
   10.8052  -14.7478   17.6258 C   0  0  2  0  0  0  0  0  0  0  0  0
   12.2487  -14.6169   17.6153 N   0  0  0  0  0  0  0  0  0  0  0  0
   10.3455  -14.8619   19.0169 C   0  0  0  0  0  0  0  0  0  0  0  0
   10.6810  -15.9687   19.5967 O   0  0  0  0  0  0  0  0  0  0  0  0
    7.3393  -14.7791   12.3022 N   0  0  0  0  0  0  0  0  0  0  0  0
    9.6150  -13.9603   19.7867 C   0  0  0  0  0  0  0  0  0  0  0  0
    9.5415  -12.4886   19.4456 C   0  0  0  0  0  0  0  0  0  0  0  0
    8.0138  -12.3342   19.4015 C   0  0  0  0  0  0  0  0  0  0  0  0
    7.4520  -13.5209   20.2282 C   0  0  2  0  0  0  0  0  0  0  0  0
    8.7094  -13.9751   20.8878 C   0  0  0  0  0  0  0  0  0  0  0  0
    8.6883  -15.0744   21.8062 O   0  0  0  0  0  0  0  0  0  0  0  0
    7.9374  -16.0638   21.6308 N   0  0  0  0  0  0  0  0  0  0  0  0
    9.5122  -15.1391   22.9908 C   0  0  1  0  0  0  0  0  0  0  0  0
    9.4448  -16.2533   23.9087 C   0  0  0  0  0  0  0  0  0  0  0  0
   10.8683  -16.8280   23.9913 C   0  0  0  0  0  0  0  0  0  0  0  0
   11.3690  -17.2077   22.6297 C   0  0  0  0  0  0  0  0  0  0  0  0
   12.6821  -17.8758   22.7674 O   0  0  0  0  0  0  0  0  0  0  0  0
   13.2043  -17.9709   23.9026 C   0  0  0  0  0  0  0  0  0  0  0  0
    9.0665  -15.8181   25.2597 O   0  0  0  0  0  0  0  0  0  0  0  0
    8.9638  -14.6248   25.6357 O   0  0  0  0  0  0  0  0  0  0  0  0
   13.3650  -18.4076   21.6748 O   0  0  0  0  0  0  0  0  0  0  0  0
  2  1  1  0
  3  2  2  0
  4  2  1  0
  5  4  1  0
  6  5  1  0
  7  6  1  0
  8  9  1  1
  8  7  1  0
 10  8  1  0
 11 10  2  0
 12 16  1  0
 12 10  1  0
 13 12  1  0
 14 13  1  0
 14 15  1  0
 15 16  1  0
 17 19  1  0
 16 17  1  6
 18 17  2  0
 20 19  1  0
 20 25  1  0
 20 21  1  1
 22 21  1  0
 23 22  1  0
 24 23  2  0
 25 26  2  0
 25 28  1  0
 27 23  1  0
M  END
$$$$
