RPE.pdb
     RDKit          3D

 28 28  0  0  1  0  0  0  0  0999 V2000
    7.5734  -17.1636   13.8386 N   0  0  0  0  0  0  0  0  0  0  0  0
    7.7294  -18.3081   14.6953 C   0  0  0  0  0  0  0  0  0  0  0  0
    6.9381  -19.2827   14.4920 N   0  0  0  0  0  0  0  0  0  0  0  0
    8.7040  -18.3530   15.7112 N   0  0  0  0  0  0  0  0  0  0  0  0
    9.4500  -17.1791   16.0541 C   0  0  0  0  0  0  0  0  0  0  0  0
    8.8362  -16.3313   17.1379 C   0  0  0  0  0  0  0  0  0  0  0  0
    8.8248  -14.8711   16.8439 C   0  0  0  0  0  0  0  0  0  0  0  0
    8.2036  -14.1013   18.0065 C   0  0  2  0  0  0  0  0  0  0  0  0
    8.1822  -12.6815   17.7160 N   0  0  0  0  0  0  0  0  0  0  0  0
    8.9644  -14.3248   19.2439 C   0  0  0  0  0  0  0  0  0  0  0  0
   10.2037  -14.6429   19.0537 O   0  0  0  0  0  0  0  0  0  0  0  0
    7.0890  -20.2265   14.9324 N   0  0  0  0  0  0  0  0  0  0  0  0
    8.5467  -14.2403   20.5697 C   0  0  0  0  0  0  0  0  0  0  0  0
    7.6190  -13.1470   21.0511 C   0  0  0  0  0  0  0  0  0  0  0  0
    6.5303  -14.0257   21.6852 C   0  0  0  0  0  0  0  0  0  0  0  0
    7.2110  -15.3909   21.9691 C   0  0  2  0  0  0  0  0  0  0  0  0
    8.6357  -14.9978   21.7743 C   0  0  0  0  0  0  0  0  0  0  0  0
    9.6830  -15.9569   21.9626 O   0  0  0  0  0  0  0  0  0  0  0  0
    9.7219  -17.0258   21.3072 N   0  0  0  0  0  0  0  0  0  0  0  0
   10.7641  -15.7819   22.9044 C   0  0  1  0  0  0  0  0  0  0  0  0
   11.7718  -16.7974   23.1087 C   0  0  0  0  0  0  0  0  0  0  0  0
   13.1291  -16.0921   22.9555 C   0  0  0  0  0  0  0  0  0  0  0  0
   14.2569  -17.0447   23.2189 C   0  0  0  0  0  0  0  0  0  0  0  0
   15.5418  -16.3391   23.0170 O   0  0  0  0  0  0  0  0  0  0  0  0
   16.5965  -16.8492   23.4618 C   0  0  0  0  0  0  0  0  0  0  0  0
   11.7137  -17.3503   24.4683 O   0  0  0  0  0  0  0  0  0  0  0  0
   11.0685  -16.8569   25.4255 O   0  0  0  0  0  0  0  0  0  0  0  0
   15.6243  -15.1202   22.3459 O   0  0  0  0  0  0  0  0  0  0  0  0
  2  1  1  0
  3  2  2  0
  4  2  1  0
  5  4  1  0
  6  5  1  0
  7  6  1  0
  8  9  1  6
  8  7  1  0
 10  8  1  0
 11 10  2  0
 12 16  1  0
 12 10  1  0
 13 12  1  0
 14 13  1  0
 14 15  1  0
 15 16  1  0
 17 19  1  0
 16 17  1  1
 18 17  2  0
 20 19  1  0
 20 25  1  0
 20 21  1  1
 22 21  1  0
 23 22  1  0
 24 23  2  0
 25 26  2  0
 25 28  1  0
 27 23  1  0
M  END
$$$$
