RPE.pdb
     RDKit          3D

 28 28  0  0  1  0  0  0  0  0999 V2000
    7.8167  -20.3373   18.6738 N   0  0  0  0  0  0  0  0  0  0  0  0
    7.0981  -20.1972   17.4361 C   0  0  0  0  0  0  0  0  0  0  0  0
    6.7907  -21.2733   16.8320 N   0  0  0  0  0  0  0  0  0  0  0  0
    6.7520  -18.9364   16.9122 N   0  0  0  0  0  0  0  0  0  0  0  0
    7.2274  -17.7364   17.5338 C   0  0  0  0  0  0  0  0  0  0  0  0
    8.6810  -17.4267   17.2864 C   0  0  0  0  0  0  0  0  0  0  0  0
    8.9175  -16.2512   16.4027 C   0  0  0  0  0  0  0  0  0  0  0  0
    8.4339  -14.9723   17.0814 C   0  0  2  0  0  0  0  0  0  0  0  0
    8.6746  -13.8268   16.2266 N   0  0  0  0  0  0  0  0  0  0  0  0
    9.1273  -14.7682   18.3609 C   0  0  0  0  0  0  0  0  0  0  0  0
   10.3453  -15.2036   18.3788 O   0  0  0  0  0  0  0  0  0  0  0  0
    6.2373  -21.2733   15.9368 N   0  0  0  0  0  0  0  0  0  0  0  0
    8.6666  -14.1790   19.5356 C   0  0  0  0  0  0  0  0  0  0  0  0
    7.9786  -12.8321   19.5420 C   0  0  0  0  0  0  0  0  0  0  0  0
    6.6895  -13.2308   20.2760 C   0  0  0  0  0  0  0  0  0  0  0  0
    7.0349  -14.5335   21.0451 C   0  0  2  0  0  0  0  0  0  0  0  0
    8.5199  -14.5062   20.9155 C   0  0  0  0  0  0  0  0  0  0  0  0
    9.3173  -15.5343   21.5151 O   0  0  0  0  0  0  0  0  0  0  0  0
    9.0730  -16.7502   21.3271 N   0  0  0  0  0  0  0  0  0  0  0  0
   10.4494  -15.2672   22.3715 C   0  0  1  0  0  0  0  0  0  0  0  0
   11.2611  -16.3301   22.9191 C   0  0  0  0  0  0  0  0  0  0  0  0
   12.7165  -15.8406   22.8445 C   0  0  0  0  0  0  0  0  0  0  0  0
   13.6491  -16.8501   23.4445 C   0  0  0  0  0  0  0  0  0  0  0  0
   15.0326  -16.3298   23.3754 O   0  0  0  0  0  0  0  0  0  0  0  0
   15.2265  -15.1580   22.9760 C   0  0  0  0  0  0  0  0  0  0  0  0
   10.9500  -16.5731   24.3339 O   0  0  0  0  0  0  0  0  0  0  0  0
   11.3302  -17.5666   25.0005 O   0  0  0  0  0  0  0  0  0  0  0  0
   16.1362  -17.0989   23.7407 O   0  0  0  0  0  0  0  0  0  0  0  0
  2  1  1  0
  3  2  2  0
  4  2  1  0
  5  4  1  0
  6  5  1  0
  7  6  1  0
  8  9  1  6
  8  7  1  0
 10  8  1  0
 11 10  2  0
 12 16  1  0
 12 10  1  0
 13 12  1  0
 14 13  1  0
 14 15  1  0
 15 16  1  0
 17 19  1  0
 16 17  1  1
 18 17  2  0
 20 19  1  0
 20 25  1  0
 20 21  1  1
 22 21  1  0
 23 22  1  0
 24 23  2  0
 25 26  2  0
 25 28  1  0
 27 23  1  0
M  END
$$$$
