RPE.pdb
     RDKit          3D

 28 28  0  0  1  0  0  0  0  0999 V2000
    8.8237  -16.2616   16.3145 N   0  0  0  0  0  0  0  0  0  0  0  0
    8.1646  -15.0655   16.7651 C   0  0  0  0  0  0  0  0  0  0  0  0
    6.9692  -14.8909   16.3678 N   0  0  0  0  0  0  0  0  0  0  0  0
    8.8048  -14.1298   17.6009 N   0  0  0  0  0  0  0  0  0  0  0  0
    8.0812  -13.0102   18.1254 C   0  0  0  0  0  0  0  0  0  0  0  0
    7.0697  -13.3503   19.1890 C   0  0  0  0  0  0  0  0  0  0  0  0
    7.6087  -14.1683   20.3110 C   0  0  0  0  0  0  0  0  0  0  0  0
    8.1838  -13.2637   21.3977 C   0  0  2  0  0  0  0  0  0  0  0  0
    9.4179  -12.6537   20.9440 N   0  0  0  0  0  0  0  0  0  0  0  0
    8.4510  -14.0286   22.6238 C   0  0  0  0  0  0  0  0  0  0  0  0
    9.1199  -15.1192   22.4327 O   0  0  0  0  0  0  0  0  0  0  0  0
    6.3826  -14.0823   16.6988 N   0  0  0  0  0  0  0  0  0  0  0  0
    8.0946  -13.7475   23.9403 C   0  0  0  0  0  0  0  0  0  0  0  0
    7.9704  -12.3301   24.4533 C   0  0  0  0  0  0  0  0  0  0  0  0
    6.5409  -12.4067   25.0103 C   0  0  0  0  0  0  0  0  0  0  0  0
    6.2647  -13.9162   25.2401 C   0  0  2  0  0  0  0  0  0  0  0  0
    7.6535  -14.4412   25.1052 C   0  0  0  0  0  0  0  0  0  0  0  0
    7.9176  -15.8393   25.2711 O   0  0  0  0  0  0  0  0  0  0  0  0
    7.1033  -16.7128   24.8868 N   0  0  0  0  0  0  0  0  0  0  0  0
    9.1195  -16.3563   25.8831 C   0  0  1  0  0  0  0  0  0  0  0  0
    9.3216  -17.7714   26.0949 C   0  0  0  0  0  0  0  0  0  0  0  0
   10.4222  -18.1998   25.1108 C   0  0  0  0  0  0  0  0  0  0  0  0
   11.6861  -17.4318   25.3583 C   0  0  0  0  0  0  0  0  0  0  0  0
   12.7480  -17.9498   24.4675 O   0  0  0  0  0  0  0  0  0  0  0  0
   12.4820  -18.8862   23.6784 C   0  0  0  0  0  0  0  0  0  0  0  0
    9.8109  -18.0501   27.4515 O   0  0  0  0  0  0  0  0  0  0  0  0
   10.0013  -19.1933   27.9339 O   0  0  0  0  0  0  0  0  0  0  0  0
   14.0421  -17.4319   24.4723 O   0  0  0  0  0  0  0  0  0  0  0  0
  2  1  1  0
  3  2  2  0
  4  2  1  0
  5  4  1  0
  6  5  1  0
  7  6  1  0
  8  9  1  6
  8  7  1  0
 10  8  1  0
 11 10  2  0
 12 16  1  0
 12 10  1  0
 13 12  1  0
 14 13  1  0
 14 15  1  0
 15 16  1  0
 17 19  1  0
 16 17  1  6
 18 17  2  0
 20 19  1  0
 20 25  1  0
 20 21  1  1
 22 21  1  0
 23 22  1  0
 24 23  2  0
 25 26  2  0
 25 28  1  0
 27 23  1  0
M  END
$$$$
