RPE.pdb
     RDKit          3D

 28 28  0  0  1  0  0  0  0  0999 V2000
   10.1630  -19.5777   18.5415 N   0  0  0  0  0  0  0  0  0  0  0  0
    9.0157  -20.1259   17.8696 C   0  0  0  0  0  0  0  0  0  0  0  0
    8.9499  -21.3939   17.7993 N   0  0  0  0  0  0  0  0  0  0  0  0
    8.0143  -19.3065   17.3129 N   0  0  0  0  0  0  0  0  0  0  0  0
    8.3455  -18.3274   16.3210 C   0  0  0  0  0  0  0  0  0  0  0  0
    8.9880  -17.0741   16.8562 C   0  0  0  0  0  0  0  0  0  0  0  0
    8.1920  -15.8340   16.6386 C   0  0  0  0  0  0  0  0  0  0  0  0
    9.0564  -14.5998   16.8828 C   0  0  2  0  0  0  0  0  0  0  0  0
   10.1724  -14.5759   15.9582 N   0  0  0  0  0  0  0  0  0  0  0  0
    9.5746  -14.5914   18.2580 C   0  0  0  0  0  0  0  0  0  0  0  0
   10.5873  -15.3738   18.4474 O   0  0  0  0  0  0  0  0  0  0  0  0
    8.1311  -21.8877   17.3594 N   0  0  0  0  0  0  0  0  0  0  0  0
    9.1384  -13.8694   19.3660 C   0  0  0  0  0  0  0  0  0  0  0  0
    8.7754  -12.4039   19.2772 C   0  0  0  0  0  0  0  0  0  0  0  0
    7.3600  -12.4766   19.8696 C   0  0  0  0  0  0  0  0  0  0  0  0
    7.3200  -13.7927   20.6904 C   0  0  2  0  0  0  0  0  0  0  0  0
    8.7779  -14.1021   20.7257 C   0  0  0  0  0  0  0  0  0  0  0  0
    9.2554  -15.2581   21.4242 O   0  0  0  0  0  0  0  0  0  0  0  0
    8.6315  -16.3460   21.3996 N   0  0  0  0  0  0  0  0  0  0  0  0
   10.4720  -15.2727   22.2028 C   0  0  1  0  0  0  0  0  0  0  0  0
   10.9578  -16.4759   22.8391 C   0  0  0  0  0  0  0  0  0  0  0  0
   12.4080  -16.6578   22.3625 C   0  0  0  0  0  0  0  0  0  0  0  0
   13.3345  -15.7538   23.1195 C   0  0  0  0  0  0  0  0  0  0  0  0
   14.7165  -15.9626   22.6334 O   0  0  0  0  0  0  0  0  0  0  0  0
   15.1879  -17.1235   22.6096 C   0  0  0  0  0  0  0  0  0  0  0  0
   10.9885  -16.3390   24.3013 O   0  0  0  0  0  0  0  0  0  0  0  0
   10.7868  -15.2743   24.9350 O   0  0  0  0  0  0  0  0  0  0  0  0
   15.5194  -14.9099   22.1976 O   0  0  0  0  0  0  0  0  0  0  0  0
  2  1  1  0
  3  2  2  0
  4  2  1  0
  5  4  1  0
  6  5  1  0
  7  6  1  0
  8  9  1  6
  8  7  1  0
 10  8  1  0
 11 10  2  0
 12 16  1  0
 12 10  1  0
 13 12  1  0
 14 13  1  0
 14 15  1  0
 15 16  1  0
 17 19  1  0
 16 17  1  6
 18 17  2  0
 20 19  1  0
 20 25  1  0
 20 21  1  1
 22 21  1  0
 23 22  1  0
 24 23  2  0
 25 26  2  0
 25 28  1  0
 27 23  1  0
M  END
$$$$
