RPE.pdb
     RDKit          3D

 28 28  0  0  1  0  0  0  0  0999 V2000
   11.1475  -18.3408   16.5426 N   0  0  0  0  0  0  0  0  0  0  0  0
    9.8681  -18.9445   16.2845 C   0  0  0  0  0  0  0  0  0  0  0  0
    9.8539  -19.9207   15.4695 N   0  0  0  0  0  0  0  0  0  0  0  0
    8.6870  -18.4818   16.8967 N   0  0  0  0  0  0  0  0  0  0  0  0
    8.2988  -17.1078   16.7799 C   0  0  0  0  0  0  0  0  0  0  0  0
    9.3231  -16.1155   17.2662 C   0  0  0  0  0  0  0  0  0  0  0  0
    8.9798  -14.6926   16.9907 C   0  0  0  0  0  0  0  0  0  0  0  0
    8.2345  -14.0878   18.1776 C   0  0  2  0  0  0  0  0  0  0  0  0
    7.9753  -12.6808   17.9454 N   0  0  0  0  0  0  0  0  0  0  0  0
    9.0182  -14.2323   19.4124 C   0  0  0  0  0  0  0  0  0  0  0  0
   10.2838  -14.4161   19.2181 O   0  0  0  0  0  0  0  0  0  0  0  0
    8.9619  -20.4073   15.1956 N   0  0  0  0  0  0  0  0  0  0  0  0
    8.5977  -14.1962   20.7394 C   0  0  0  0  0  0  0  0  0  0  0  0
    7.6464  -13.1378   21.2517 C   0  0  0  0  0  0  0  0  0  0  0  0
    6.5762  -14.0580   21.8579 C   0  0  0  0  0  0  0  0  0  0  0  0
    7.2857  -15.4161   22.1021 C   0  0  2  0  0  0  0  0  0  0  0  0
    8.7019  -14.9871   21.9211 C   0  0  0  0  0  0  0  0  0  0  0  0
    9.7693  -15.9288   22.0824 O   0  0  0  0  0  0  0  0  0  0  0  0
    9.7376  -17.0587   21.5385 N   0  0  0  0  0  0  0  0  0  0  0  0
   10.9516  -15.6662   22.8695 C   0  0  1  0  0  0  0  0  0  0  0  0
   11.9904  -16.6560   23.0419 C   0  0  0  0  0  0  0  0  0  0  0  0
   13.3218  -15.8873   23.0300 C   0  0  0  0  0  0  0  0  0  0  0  0
   14.4670  -16.8012   23.3490 C   0  0  0  0  0  0  0  0  0  0  0  0
   15.7279  -16.0278   23.3068 O   0  0  0  0  0  0  0  0  0  0  0  0
   16.2542  -15.7756   22.1979 C   0  0  0  0  0  0  0  0  0  0  0  0
   11.8831  -17.3308   24.3422 O   0  0  0  0  0  0  0  0  0  0  0  0
   11.2267  -16.9103   25.3262 O   0  0  0  0  0  0  0  0  0  0  0  0
   16.3566  -15.5655   24.4617 O   0  0  0  0  0  0  0  0  0  0  0  0
  2  1  1  0
  3  2  2  0
  4  2  1  0
  5  4  1  0
  6  5  1  0
  7  6  1  0
  8  9  1  6
  8  7  1  0
 10  8  1  0
 11 10  2  0
 12 16  1  0
 12 10  1  0
 13 12  1  0
 14 13  1  0
 14 15  1  0
 15 16  1  0
 17 19  1  0
 16 17  1  1
 18 17  2  0
 20 19  1  0
 20 25  1  0
 20 21  1  1
 22 21  1  0
 23 22  1  0
 24 23  2  0
 25 26  2  0
 25 28  1  0
 27 23  1  0
M  END
$$$$
