RPE.pdb
     RDKit          3D

 28 28  0  0  1  0  0  0  0  0999 V2000
    9.8955  -13.7595   16.2431 N   0  0  0  0  0  0  0  0  0  0  0  0
    8.6485  -13.4893   16.9065 C   0  0  0  0  0  0  0  0  0  0  0  0
    7.5928  -13.6276   16.2110 N   0  0  0  0  0  0  0  0  0  0  0  0
    8.5920  -13.0886   18.2556 N   0  0  0  0  0  0  0  0  0  0  0  0
    7.3322  -12.9818   18.9292 C   0  0  0  0  0  0  0  0  0  0  0  0
    6.9283  -14.2011   19.7167 C   0  0  0  0  0  0  0  0  0  0  0  0
    7.9673  -14.6935   20.6636 C   0  0  0  0  0  0  0  0  0  0  0  0
    7.5827  -16.0681   21.2044 C   0  0  2  0  0  0  0  0  0  0  0  0
    6.2548  -16.0276   21.7840 N   0  0  0  0  0  0  0  0  0  0  0  0
    8.5386  -16.5100   22.2295 C   0  0  0  0  0  0  0  0  0  0  0  0
    8.9574  -15.5641   23.0062 O   0  0  0  0  0  0  0  0  0  0  0  0
    6.6317  -13.5621   16.6348 N   0  0  0  0  0  0  0  0  0  0  0  0
    9.0455  -17.7825   22.4802 C   0  0  0  0  0  0  0  0  0  0  0  0
    8.2941  -19.0367   22.0930 C   0  0  0  0  0  0  0  0  0  0  0  0
    9.3921  -19.7220   21.2658 C   0  0  0  0  0  0  0  0  0  0  0  0
   10.7256  -19.0805   21.7326 C   0  0  2  0  0  0  0  0  0  0  0  0
   10.2447  -18.3855   22.9607 C   0  0  0  0  0  0  0  0  0  0  0  0
   11.1599  -17.6484   23.7800 O   0  0  0  0  0  0  0  0  0  0  0  0
   12.1628  -17.0736   23.2929 N   0  0  0  0  0  0  0  0  0  0  0  0
   11.0121  -17.5051   25.2097 C   0  0  1  0  0  0  0  0  0  0  0  0
   11.9965  -16.8186   26.0149 C   0  0  0  0  0  0  0  0  0  0  0  0
   11.2420  -15.7033   26.7567 C   0  0  0  0  0  0  0  0  0  0  0  0
   11.1848  -15.9868   28.2281 C   0  0  0  0  0  0  0  0  0  0  0  0
   10.5850  -14.8248   28.9205 O   0  0  0  0  0  0  0  0  0  0  0  0
   10.1261  -13.8774   28.2408 C   0  0  0  0  0  0  0  0  0  0  0  0
   12.5788  -17.7068   27.0296 O   0  0  0  0  0  0  0  0  0  0  0  0
   12.0524  -18.7629   27.4580 O   0  0  0  0  0  0  0  0  0  0  0  0
   10.5101  -14.7435   30.3100 O   0  0  0  0  0  0  0  0  0  0  0  0
  2  1  1  0
  3  2  2  0
  4  2  1  0
  5  4  1  0
  6  5  1  0
  7  6  1  0
  8  9  1  1
  8  7  1  0
 10  8  1  0
 11 10  2  0
 12 16  1  0
 12 10  1  0
 13 12  1  0
 14 13  1  0
 14 15  1  0
 15 16  1  0
 17 19  1  0
 16 17  1  6
 18 17  2  0
 20 19  1  0
 20 25  1  0
 20 21  1  1
 22 21  1  0
 23 22  1  0
 24 23  2  0
 25 26  2  0
 25 28  1  0
 27 23  1  0
M  END
$$$$
