RPE.pdb
     RDKit          3D

 28 28  0  0  1  0  0  0  0  0999 V2000
    2.8803  -20.2568   21.5304 N   0  0  0  0  0  0  0  0  0  0  0  0
    3.6127  -19.4546   20.5880 C   0  0  0  0  0  0  0  0  0  0  0  0
    3.1703  -18.2815   20.3749 N   0  0  0  0  0  0  0  0  0  0  0  0
    4.7599  -19.9379   19.9288 N   0  0  0  0  0  0  0  0  0  0  0  0
    6.0421  -19.3493   20.1771 C   0  0  0  0  0  0  0  0  0  0  0  0
    6.2507  -17.9951   19.5505 C   0  0  0  0  0  0  0  0  0  0  0  0
    7.2862  -17.9658   18.4802 C   0  0  0  0  0  0  0  0  0  0  0  0
    7.8546  -16.5569   18.3313 C   0  0  2  0  0  0  0  0  0  0  0  0
    8.7701  -16.4994   17.2091 N   0  0  0  0  0  0  0  0  0  0  0  0
    8.5673  -16.1518   19.5510 C   0  0  0  0  0  0  0  0  0  0  0  0
    9.3963  -17.0381   19.9993 O   0  0  0  0  0  0  0  0  0  0  0  0
    3.6329  -17.6245   19.6953 N   0  0  0  0  0  0  0  0  0  0  0  0
    8.4798  -14.9672   20.2777 C   0  0  0  0  0  0  0  0  0  0  0  0
    8.4618  -13.6124   19.6055 C   0  0  0  0  0  0  0  0  0  0  0  0
    7.1713  -13.0588   20.2281 C   0  0  0  0  0  0  0  0  0  0  0  0
    6.9443  -13.8877   21.5201 C   0  0  2  0  0  0  0  0  0  0  0  0
    8.2780  -14.5457   21.6247 C   0  0  0  0  0  0  0  0  0  0  0  0
    8.5680  -15.4227   22.7196 O   0  0  0  0  0  0  0  0  0  0  0  0
    7.6986  -16.1927   23.1939 N   0  0  0  0  0  0  0  0  0  0  0  0
    9.8600  -15.4964   23.3612 C   0  0  1  0  0  0  0  0  0  0  0  0
   10.1166  -16.3970   24.4619 C   0  0  0  0  0  0  0  0  0  0  0  0
   11.4949  -17.0223   24.1923 C   0  0  0  0  0  0  0  0  0  0  0  0
   12.5408  -15.9589   24.0369 C   0  0  0  0  0  0  0  0  0  0  0  0
   13.8493  -16.6022   23.7848 O   0  0  0  0  0  0  0  0  0  0  0  0
   14.5291  -16.2398   22.7965 C   0  0  0  0  0  0  0  0  0  0  0  0
   10.2015  -15.6777   25.7398 O   0  0  0  0  0  0  0  0  0  0  0  0
   10.2012  -14.4292   25.8714 O   0  0  0  0  0  0  0  0  0  0  0  0
   14.3584  -17.6028   24.6110 O   0  0  0  0  0  0  0  0  0  0  0  0
  2  1  1  0
  3  2  2  0
  4  2  1  0
  5  4  1  0
  6  5  1  0
  7  6  1  0
  8  9  1  6
  8  7  1  0
 10  8  1  0
 11 10  2  0
 12 16  1  0
 12 10  1  0
 13 12  1  0
 14 13  1  0
 14 15  1  0
 15 16  1  0
 17 19  1  0
 16 17  1  1
 18 17  2  0
 20 19  1  0
 20 25  1  0
 20 21  1  1
 22 21  1  0
 23 22  1  0
 24 23  2  0
 25 26  2  0
 25 28  1  0
 27 23  1  0
M  END
$$$$
