RPE.pdb
     RDKit          3D

 28 28  0  0  1  0  0  0  0  0999 V2000
    5.2757  -18.8929   21.1264 N   0  0  0  0  0  0  0  0  0  0  0  0
    6.5262  -19.5946   21.2361 C   0  0  0  0  0  0  0  0  0  0  0  0
    6.8596  -19.9841   22.3999 N   0  0  0  0  0  0  0  0  0  0  0  0
    7.3459  -19.8388   20.1170 N   0  0  0  0  0  0  0  0  0  0  0  0
    6.8148  -19.7325   18.7908 C   0  0  0  0  0  0  0  0  0  0  0  0
    7.4517  -18.6679   17.9356 C   0  0  0  0  0  0  0  0  0  0  0  0
    6.8969  -17.3009   18.1409 C   0  0  0  0  0  0  0  0  0  0  0  0
    7.9497  -16.2465   17.8094 C   0  0  2  0  0  0  0  0  0  0  0  0
    8.8604  -16.7450   16.7980 N   0  0  0  0  0  0  0  0  0  0  0  0
    8.7185  -15.8841   19.0083 C   0  0  0  0  0  0  0  0  0  0  0  0
    9.6674  -16.7135   19.2999 O   0  0  0  0  0  0  0  0  0  0  0  0
    7.7096  -20.5817   22.5672 N   0  0  0  0  0  0  0  0  0  0  0  0
    8.5738  -14.7903   19.8579 C   0  0  0  0  0  0  0  0  0  0  0  0
    8.4097  -13.3816   19.3324 C   0  0  0  0  0  0  0  0  0  0  0  0
    7.1136  -13.0069   20.0667 C   0  0  0  0  0  0  0  0  0  0  0  0
    7.0242  -13.9777   21.2739 C   0  0  2  0  0  0  0  0  0  0  0  0
    8.4107  -14.5251   21.2493 C   0  0  0  0  0  0  0  0  0  0  0  0
    8.8292  -15.4792   22.2325 O   0  0  0  0  0  0  0  0  0  0  0  0
    8.0839  -16.4211   22.5943 N   0  0  0  0  0  0  0  0  0  0  0  0
   10.1194  -15.4417   22.8808 C   0  0  1  0  0  0  0  0  0  0  0  0
   10.5061  -16.4209   23.8708 C   0  0  0  0  0  0  0  0  0  0  0  0
   12.0323  -16.3057   24.0150 C   0  0  0  0  0  0  0  0  0  0  0  0
   12.6996  -16.3599   22.6732 C   0  0  0  0  0  0  0  0  0  0  0  0
   14.1624  -16.2319   22.8561 O   0  0  0  0  0  0  0  0  0  0  0  0
   14.6248  -16.0940   24.0126 C   0  0  0  0  0  0  0  0  0  0  0  0
    9.9160  -16.1247   25.1829 O   0  0  0  0  0  0  0  0  0  0  0  0
   10.0038  -16.8554   26.1999 O   0  0  0  0  0  0  0  0  0  0  0  0
   15.0519  -16.2593   21.7833 O   0  0  0  0  0  0  0  0  0  0  0  0
  2  1  1  0
  3  2  2  0
  4  2  1  0
  5  4  1  0
  6  5  1  0
  7  6  1  0
  8  9  1  6
  8  7  1  0
 10  8  1  0
 11 10  2  0
 12 16  1  0
 12 10  1  0
 13 12  1  0
 14 13  1  0
 14 15  1  0
 15 16  1  0
 17 19  1  0
 16 17  1  6
 18 17  2  0
 20 19  1  0
 20 25  1  0
 20 21  1  1
 22 21  1  0
 23 22  1  0
 24 23  2  0
 25 26  2  0
 25 28  1  0
 27 23  1  0
M  END
$$$$
