RPE.pdb
     RDKit          3D

 28 28  0  0  1  0  0  0  0  0999 V2000
    8.0290  -20.3563   24.6429 N   0  0  0  0  0  0  0  0  0  0  0  0
    6.7194  -20.1854   24.0739 C   0  0  0  0  0  0  0  0  0  0  0  0
    5.8339  -21.0294   24.4212 N   0  0  0  0  0  0  0  0  0  0  0  0
    6.4263  -19.1412   23.1751 N   0  0  0  0  0  0  0  0  0  0  0  0
    7.4808  -18.3593   22.6017 C   0  0  0  0  0  0  0  0  0  0  0  0
    7.0315  -17.3197   21.6078 C   0  0  0  0  0  0  0  0  0  0  0  0
    6.3063  -16.1664   22.2099 C   0  0  0  0  0  0  0  0  0  0  0  0
    7.1399  -14.8936   22.0870 C   0  0  2  0  0  0  0  0  0  0  0  0
    7.9784  -14.9531   20.9062 N   0  0  0  0  0  0  0  0  0  0  0  0
    7.9926  -14.7139   23.2704 C   0  0  0  0  0  0  0  0  0  0  0  0
    9.0900  -15.3983   23.2415 O   0  0  0  0  0  0  0  0  0  0  0  0
    4.8387  -20.9659   24.0849 N   0  0  0  0  0  0  0  0  0  0  0  0
    7.7904  -13.9215   24.3975 C   0  0  0  0  0  0  0  0  0  0  0  0
    7.2667  -12.5059   24.3003 C   0  0  0  0  0  0  0  0  0  0  0  0
    6.0723  -12.6315   25.2578 C   0  0  0  0  0  0  0  0  0  0  0  0
    6.3863  -13.8575   26.1555 C   0  0  2  0  0  0  0  0  0  0  0  0
    7.8262  -14.0445   25.8175 C   0  0  0  0  0  0  0  0  0  0  0  0
    8.5879  -15.0825   26.4455 O   0  0  0  0  0  0  0  0  0  0  0  0
    8.0797  -16.1953   26.7231 N   0  0  0  0  0  0  0  0  0  0  0  0
    9.9792  -14.9425   26.8074 C   0  0  1  0  0  0  0  0  0  0  0  0
   10.6932  -15.9811   27.5145 C   0  0  0  0  0  0  0  0  0  0  0  0
   12.1588  -15.8788   27.0619 C   0  0  0  0  0  0  0  0  0  0  0  0
   12.2707  -16.0528   25.5767 C   0  0  0  0  0  0  0  0  0  0  0  0
   13.6892  -15.9116   25.1797 O   0  0  0  0  0  0  0  0  0  0  0  0
   14.5420  -15.6187   26.0500 C   0  0  0  0  0  0  0  0  0  0  0  0
   10.6646  -15.7635   28.9669 O   0  0  0  0  0  0  0  0  0  0  0  0
   10.2497  -14.7249   29.5372 O   0  0  0  0  0  0  0  0  0  0  0  0
   14.1161  -16.0936   23.8654 O   0  0  0  0  0  0  0  0  0  0  0  0
  2  1  1  0
  3  2  2  0
  4  2  1  0
  5  4  1  0
  6  5  1  0
  7  6  1  0
  8  9  1  6
  8  7  1  0
 10  8  1  0
 11 10  2  0
 12 16  1  0
 12 10  1  0
 13 12  1  0
 14 13  1  0
 14 15  1  0
 15 16  1  0
 17 19  1  0
 16 17  1  1
 18 17  2  0
 20 19  1  0
 20 25  1  0
 20 21  1  1
 22 21  1  0
 23 22  1  0
 24 23  2  0
 25 26  2  0
 25 28  1  0
 27 23  1  0
M  END
$$$$
