RPE.pdb
     RDKit          3D

 28 28  0  0  1  0  0  0  0  0999 V2000
   10.9650  -19.0692   15.6093 N   0  0  0  0  0  0  0  0  0  0  0  0
   10.1396  -19.5806   16.6701 C   0  0  0  0  0  0  0  0  0  0  0  0
   10.5496  -20.6343   17.2521 N   0  0  0  0  0  0  0  0  0  0  0  0
    8.9362  -18.9537   17.0481 N   0  0  0  0  0  0  0  0  0  0  0  0
    8.6284  -17.6336   16.5847 C   0  0  0  0  0  0  0  0  0  0  0  0
    9.4125  -16.5300   17.2460 C   0  0  0  0  0  0  0  0  0  0  0  0
    9.1220  -15.1678   16.7182 C   0  0  0  0  0  0  0  0  0  0  0  0
    8.4141  -14.3285   17.7786 C   0  0  2  0  0  0  0  0  0  0  0  0
    8.2305  -12.9706   17.3060 N   0  0  0  0  0  0  0  0  0  0  0  0
    9.1927  -14.3000   19.0247 C   0  0  0  0  0  0  0  0  0  0  0  0
   10.4502  -14.5608   18.8697 O   0  0  0  0  0  0  0  0  0  0  0  0
   10.0537  -21.0410   18.0865 N   0  0  0  0  0  0  0  0  0  0  0  0
    8.7750  -14.0329   20.3260 C   0  0  0  0  0  0  0  0  0  0  0  0
    8.0104  -12.7774   20.6820 C   0  0  0  0  0  0  0  0  0  0  0  0
    6.7973  -13.4271   21.3644 C   0  0  0  0  0  0  0  0  0  0  0  0
    7.2681  -14.8435   21.7885 C   0  0  2  0  0  0  0  0  0  0  0  0
    8.7374  -14.6795   21.5961 C   0  0  0  0  0  0  0  0  0  0  0  0
    9.6312  -15.7575   21.8978 O   0  0  0  0  0  0  0  0  0  0  0  0
    9.4122  -16.9257   21.4965 N   0  0  0  0  0  0  0  0  0  0  0  0
   10.8384  -15.5982   22.6749 C   0  0  1  0  0  0  0  0  0  0  0  0
   11.6289  -16.7309   23.0998 C   0  0  0  0  0  0  0  0  0  0  0  0
   13.0818  -16.2346   23.1792 C   0  0  0  0  0  0  0  0  0  0  0  0
   13.5882  -15.8504   21.8211 C   0  0  0  0  0  0  0  0  0  0  0  0
   14.9957  -15.4090   21.9379 O   0  0  0  0  0  0  0  0  0  0  0  0
   15.5302  -15.3616   23.0703 C   0  0  0  0  0  0  0  0  0  0  0  0
   11.2443  -17.1846   24.4429 O   0  0  0  0  0  0  0  0  0  0  0  0
   10.4369  -16.5973   25.2039 O   0  0  0  0  0  0  0  0  0  0  0  0
   15.7552  -15.0416   20.8283 O   0  0  0  0  0  0  0  0  0  0  0  0
  2  1  1  0
  3  2  2  0
  4  2  1  0
  5  4  1  0
  6  5  1  0
  7  6  1  0
  8  9  1  6
  8  7  1  0
 10  8  1  0
 11 10  2  0
 12 16  1  0
 12 10  1  0
 13 12  1  0
 14 13  1  0
 14 15  1  0
 15 16  1  0
 17 19  1  0
 16 17  1  6
 18 17  2  0
 20 19  1  0
 20 25  1  0
 20 21  1  1
 22 21  1  0
 23 22  1  0
 24 23  2  0
 25 26  2  0
 25 28  1  0
 27 23  1  0
M  END
$$$$
