RPE.pdb
     RDKit          3D

 28 28  0  0  1  0  0  0  0  0999 V2000
    5.8830  -20.4862   20.5529 N   0  0  0  0  0  0  0  0  0  0  0  0
    6.6022  -19.5877   19.6908 C   0  0  0  0  0  0  0  0  0  0  0  0
    6.7104  -19.9337   18.4718 N   0  0  0  0  0  0  0  0  0  0  0  0
    7.1634  -18.3862   20.1656 N   0  0  0  0  0  0  0  0  0  0  0  0
    7.0498  -18.0283   21.5481 C   0  0  0  0  0  0  0  0  0  0  0  0
    7.6841  -16.7124   21.9171 C   0  0  0  0  0  0  0  0  0  0  0  0
    6.7123  -15.6286   22.2329 C   0  0  0  0  0  0  0  0  0  0  0  0
    7.4363  -14.2920   22.3727 C   0  0  2  0  0  0  0  0  0  0  0  0
    8.3484  -14.0951   21.2636 N   0  0  0  0  0  0  0  0  0  0  0  0
    8.1946  -14.2402   23.6305 C   0  0  0  0  0  0  0  0  0  0  0  0
    9.2765  -14.9493   23.6264 O   0  0  0  0  0  0  0  0  0  0  0  0
    7.2456  -19.3575   17.7725 N   0  0  0  0  0  0  0  0  0  0  0  0
    7.9188  -13.5443   24.8047 C   0  0  0  0  0  0  0  0  0  0  0  0
    7.5533  -12.0766   24.8012 C   0  0  0  0  0  0  0  0  0  0  0  0
    6.2330  -12.1619   25.5817 C   0  0  0  0  0  0  0  0  0  0  0  0
    6.3012  -13.4971   26.3692 C   0  0  2  0  0  0  0  0  0  0  0  0
    7.7486  -13.8088   26.1953 C   0  0  0  0  0  0  0  0  0  0  0  0
    8.3131  -14.9814   26.7940 O   0  0  0  0  0  0  0  0  0  0  0  0
    7.6615  -16.0488   26.8919 N   0  0  0  0  0  0  0  0  0  0  0  0
    9.6545  -15.0372   27.3270 C   0  0  1  0  0  0  0  0  0  0  0  0
   10.1733  -16.2238   27.9683 C   0  0  0  0  0  0  0  0  0  0  0  0
   11.5748  -16.4520   27.3792 C   0  0  0  0  0  0  0  0  0  0  0  0
   11.5132  -16.5598   25.8848 C   0  0  0  0  0  0  0  0  0  0  0  0
   12.8712  -16.8325   25.3642 O   0  0  0  0  0  0  0  0  0  0  0  0
   13.0270  -17.0346   24.1373 C   0  0  0  0  0  0  0  0  0  0  0  0
   10.3301  -16.0307   29.4160 O   0  0  0  0  0  0  0  0  0  0  0  0
   10.6762  -16.9184   30.2334 O   0  0  0  0  0  0  0  0  0  0  0  0
   13.9917  -16.8730   26.1922 O   0  0  0  0  0  0  0  0  0  0  0  0
  2  1  1  0
  3  2  2  0
  4  2  1  0
  5  4  1  0
  6  5  1  0
  7  6  1  0
  8  9  1  6
  8  7  1  0
 10  8  1  0
 11 10  2  0
 12 16  1  0
 12 10  1  0
 13 12  1  0
 14 13  1  0
 14 15  1  0
 15 16  1  0
 17 19  1  0
 16 17  1  6
 18 17  2  0
 20 19  1  0
 20 25  1  0
 20 21  1  1
 22 21  1  0
 23 22  1  0
 24 23  2  0
 25 26  2  0
 25 28  1  0
 27 23  1  0
M  END
$$$$
