TCM.pdb
     RDKit          3D

 22 21  0  0  1  0  0  0  0  0999 V2000
    6.0586  -20.8291   23.6932 C   0  0  0  0  0  0  0  0  0  0  0  0
    6.8244  -19.5368   23.5904 C   0  0  1  0  0  0  0  0  0  0  0  0
    8.0327  -19.6759   24.2869 O   0  0  0  0  0  0  0  0  0  0  0  0
    7.1118  -19.2309   22.1246 C   0  0  2  0  0  0  0  0  0  0  0  0
    7.8428  -20.3381   21.5338 N   0  0  0  0  0  0  0  0  0  0  0  0
    7.7633  -17.9218   21.9673 C   0  0  0  0  0  0  0  0  0  0  0  0
    9.0463  -17.8893   21.8353 O   0  0  0  0  0  0  0  0  0  0  0  0
    7.1425  -16.6546   21.9430 N   0  0  0  0  0  0  0  0  0  0  0  0
    7.9098  -15.4164   21.9708 C   0  0  1  0  0  0  0  0  0  0  0  0
    7.1199  -14.2973   21.2658 C   0  0  0  0  0  0  0  0  0  0  0  0
    5.5480  -14.9485   20.6420 S   0  0  0  0  0  0  0  0  0  0  0  0
    8.3709  -15.0172   23.2970 C   0  0  0  0  0  0  0  0  0  0  0  0
    8.5440  -13.7793   23.5649 O   0  0  0  0  0  0  0  0  0  0  0  0
    7.6476  -10.9531   27.1463 C   0  0  0  0  0  0  0  0  0  0  0  0
    6.7123  -12.1646   26.2486 S   0  0  0  0  0  0  0  0  0  0  0  0
    7.6834  -13.4387   25.4307 C   0  0  0  0  0  0  0  0  0  0  0  0
    8.1335  -14.5519   26.3239 C   0  0  0  0  0  0  0  0  0  0  0  0
    9.1357  -15.4249   25.6797 C   0  0  2  0  0  0  0  0  0  0  0  0
    8.6550  -15.9077   24.3630 N   0  0  0  0  0  0  0  0  0  0  0  0
    9.4198  -16.5979   26.5322 C   0  0  0  0  0  0  0  0  0  0  0  0
   10.0958  -16.3747   27.7646 O   0  0  0  0  0  0  0  0  0  0  0  0
    9.1255  -17.7627   26.2792 O   0  0  0  0  0  0  0  0  0  0  0  0
  2  4  1  0
  2  1  1  6
  3  2  1  0
  4  5  1  1
  6  4  1  0
  7  6  2  0
  8  6  1  0
  9  8  1  0
  9 12  1  0
  9 10  1  1
 11 10  1  0
 12 19  1  0
 13 12  2  0
 15 14  1  0
 16 17  1  0
 16 15  1  0
 18 17  1  1
 19 18  1  0
 20 18  1  0
 20 21  1  0
 22 20  2  0
M  END
$$$$
