TCM.pdb
     RDKit          3D

 22 21  0  0  1  0  0  0  0  0999 V2000
    8.9402  -12.6472   20.0223 C   0  0  0  0  0  0  0  0  0  0  0  0
    8.1331  -13.2423   18.8991 C   0  0  1  0  0  0  0  0  0  0  0  0
    8.4019  -12.5244   17.7257 O   0  0  0  0  0  0  0  0  0  0  0  0
    8.5281  -14.7023   18.7068 C   0  0  2  0  0  0  0  0  0  0  0  0
    7.8347  -15.2426   17.5506 N   0  0  0  0  0  0  0  0  0  0  0  0
    8.3398  -15.4766   19.9429 C   0  0  0  0  0  0  0  0  0  0  0  0
    7.1380  -15.7932   20.2889 O   0  0  0  0  0  0  0  0  0  0  0  0
    9.3403  -15.9310   20.8286 N   0  0  0  0  0  0  0  0  0  0  0  0
    9.0205  -16.6608   22.0483 C   0  0  1  0  0  0  0  0  0  0  0  0
    9.6823  -18.0516   22.0126 C   0  0  0  0  0  0  0  0  0  0  0  0
    9.5085  -18.8607   23.6247 S   0  0  0  0  0  0  0  0  0  0  0  0
    9.3151  -15.9395   23.2827 C   0  0  0  0  0  0  0  0  0  0  0  0
   10.4793  -15.4457   23.4692 O   0  0  0  0  0  0  0  0  0  0  0  0
    6.1795  -10.7442   26.9085 C   0  0  0  0  0  0  0  0  0  0  0  0
    5.7706  -12.2337   26.0354 S   0  0  0  0  0  0  0  0  0  0  0  0
    7.1684  -13.1363   25.3521 C   0  0  0  0  0  0  0  0  0  0  0  0
    7.6159  -14.3078   26.1687 C   0  0  0  0  0  0  0  0  0  0  0  0
    8.7778  -15.0007   25.5759 C   0  0  2  0  0  0  0  0  0  0  0  0
    8.3944  -15.7223   24.3389 N   0  0  0  0  0  0  0  0  0  0  0  0
    9.3369  -15.9780   26.5327 C   0  0  0  0  0  0  0  0  0  0  0  0
    9.1827  -17.3612   26.2351 O   0  0  0  0  0  0  0  0  0  0  0  0
    9.9306  -15.7110   27.5737 O   0  0  0  0  0  0  0  0  0  0  0  0
  2  4  1  0
  2  1  1  1
  3  2  1  0
  4  5  1  6
  6  4  1  0
  7  6  2  0
  8  6  1  0
  9  8  1  0
  9 12  1  0
  9 10  1  1
 11 10  1  0
 12 19  1  0
 13 12  2  0
 15 14  1  0
 16 17  1  0
 16 15  1  0
 18 17  1  1
 19 18  1  0
 20 18  1  0
 20 21  1  0
 22 20  2  0
M  END
$$$$
