TCM.pdb
     RDKit          3D

 22 21  0  0  1  0  0  0  0  0999 V2000
   12.4107  -20.9735   23.6261 C   0  0  0  0  0  0  0  0  0  0  0  0
   11.0396  -21.2292   23.0591 C   0  0  1  0  0  0  0  0  0  0  0  0
   10.0905  -21.0114   24.0672 O   0  0  0  0  0  0  0  0  0  0  0  0
   10.7820  -20.2731   21.8997 C   0  0  2  0  0  0  0  0  0  0  0  0
   11.7212  -20.5496   20.8269 N   0  0  0  0  0  0  0  0  0  0  0  0
   10.7720  -18.8732   22.3506 C   0  0  0  0  0  0  0  0  0  0  0  0
   11.9017  -18.3054   22.6070 O   0  0  0  0  0  0  0  0  0  0  0  0
    9.6458  -18.0454   22.5461 N   0  0  0  0  0  0  0  0  0  0  0  0
    9.7479  -16.7365   23.1777 C   0  0  1  0  0  0  0  0  0  0  0  0
    8.3405  -16.2104   23.5182 C   0  0  0  0  0  0  0  0  0  0  0  0
    8.4472  -14.5054   24.1225 S   0  0  0  0  0  0  0  0  0  0  0  0
   10.6504  -16.6840   24.3239 C   0  0  0  0  0  0  0  0  0  0  0  0
   11.6856  -15.9350   24.2853 O   0  0  0  0  0  0  0  0  0  0  0  0
   10.2926  -12.4134   27.7125 C   0  0  0  0  0  0  0  0  0  0  0  0
   10.6523  -13.5482   29.0283 S   0  0  0  0  0  0  0  0  0  0  0  0
   11.1737  -15.1900   28.5107 C   0  0  0  0  0  0  0  0  0  0  0  0
   10.6444  -15.6236   27.1797 C   0  0  0  0  0  0  0  0  0  0  0  0
   11.1020  -16.9761   26.8016 C   0  0  2  0  0  0  0  0  0  0  0  0
   10.4812  -17.4128   25.5282 N   0  0  0  0  0  0  0  0  0  0  0  0
   10.7472  -17.9517   27.8531 C   0  0  0  0  0  0  0  0  0  0  0  0
   11.5184  -17.9483   29.0493 O   0  0  0  0  0  0  0  0  0  0  0  0
    9.8394  -18.7763   27.7965 O   0  0  0  0  0  0  0  0  0  0  0  0
  2  4  1  0
  2  1  1  1
  3  2  1  0
  4  5  1  6
  6  4  1  0
  7  6  2  0
  8  6  1  0
  9  8  1  0
  9 12  1  0
  9 10  1  1
 11 10  1  0
 12 19  1  0
 13 12  2  0
 15 14  1  0
 16 17  1  0
 16 15  1  0
 18 17  1  1
 19 18  1  0
 20 18  1  0
 20 21  1  0
 22 20  2  0
M  END
$$$$
