TCM.pdb
     RDKit          3D

 22 21  0  0  1  0  0  0  0  0999 V2000
    2.5580  -19.0359   21.8565 C   0  0  0  0  0  0  0  0  0  0  0  0
    3.8025  -18.1937   21.9509 C   0  0  1  0  0  0  0  0  0  0  0  0
    4.5264  -18.5901   23.0838 O   0  0  0  0  0  0  0  0  0  0  0  0
    4.6532  -18.4011   20.7027 C   0  0  2  0  0  0  0  0  0  0  0  0
    4.9312  -19.8169   20.5366 N   0  0  0  0  0  0  0  0  0  0  0  0
    5.8500  -17.5466   20.7208 C   0  0  0  0  0  0  0  0  0  0  0  0
    6.9546  -18.0505   21.1571 O   0  0  0  0  0  0  0  0  0  0  0  0
    5.9462  -16.2001   20.3089 N   0  0  0  0  0  0  0  0  0  0  0  0
    7.1305  -15.3933   20.5717 C   0  0  1  0  0  0  0  0  0  0  0  0
    7.1427  -14.1659   19.6406 C   0  0  0  0  0  0  0  0  0  0  0  0
    8.5074  -13.0619   20.0905 S   0  0  0  0  0  0  0  0  0  0  0  0
    7.3176  -15.0271   21.9723 C   0  0  0  0  0  0  0  0  0  0  0  0
    6.4902  -14.2344   22.5391 O   0  0  0  0  0  0  0  0  0  0  0  0
    7.3964  -11.8716   27.9592 C   0  0  0  0  0  0  0  0  0  0  0  0
    7.0906  -12.6865   26.4129 S   0  0  0  0  0  0  0  0  0  0  0  0
    7.5791  -14.4161   26.3422 C   0  0  0  0  0  0  0  0  0  0  0  0
    7.4085  -15.0598   25.0019 C   0  0  0  0  0  0  0  0  0  0  0  0
    8.6088  -14.9247   24.1519 C   0  0  2  0  0  0  0  0  0  0  0  0
    8.3720  -15.4874   22.8010 N   0  0  0  0  0  0  0  0  0  0  0  0
    9.7524  -15.6358   24.7603 C   0  0  0  0  0  0  0  0  0  0  0  0
   10.3921  -15.0299   25.8780 O   0  0  0  0  0  0  0  0  0  0  0  0
   10.2114  -16.7132   24.3921 O   0  0  0  0  0  0  0  0  0  0  0  0
  2  4  1  0
  2  1  1  6
  3  2  1  0
  4  5  1  1
  6  4  1  0
  7  6  2  0
  8  6  1  0
  9  8  1  0
  9 12  1  0
  9 10  1  6
 11 10  1  0
 12 19  1  0
 13 12  2  0
 15 14  1  0
 16 17  1  0
 16 15  1  0
 18 17  1  1
 19 18  1  0
 20 18  1  0
 20 21  1  0
 22 20  2  0
M  END
$$$$
