TCM.pdb
     RDKit          3D

 22 21  0  0  1  0  0  0  0  0999 V2000
    7.0294  -16.0385   19.8751 C   0  0  0  0  0  0  0  0  0  0  0  0
    7.9731  -15.0450   19.2511 C   0  0  1  0  0  0  0  0  0  0  0  0
    7.7350  -15.0077   17.8703 O   0  0  0  0  0  0  0  0  0  0  0  0
    7.7273  -13.6644   19.8495 C   0  0  2  0  0  0  0  0  0  0  0  0
    8.3822  -12.6590   19.0312 N   0  0  0  0  0  0  0  0  0  0  0  0
    8.0968  -13.6226   21.2724 C   0  0  0  0  0  0  0  0  0  0  0  0
    9.3465  -13.5228   21.5769 O   0  0  0  0  0  0  0  0  0  0  0  0
    7.2289  -13.6812   22.3838 N   0  0  0  0  0  0  0  0  0  0  0  0
    7.7244  -13.6701   23.7538 C   0  0  1  0  0  0  0  0  0  0  0  0
    6.6824  -13.0147   24.6801 C   0  0  0  0  0  0  0  0  0  0  0  0
    6.8736  -13.6435   26.3688 S   0  0  0  0  0  0  0  0  0  0  0  0
    8.1663  -14.9697   24.2504 C   0  0  0  0  0  0  0  0  0  0  0  0
    7.3253  -15.9250   24.3702 O   0  0  0  0  0  0  0  0  0  0  0  0
   11.7885  -14.6989   30.0934 C   0  0  0  0  0  0  0  0  0  0  0  0
   10.3605  -14.0320   29.2782 S   0  0  0  0  0  0  0  0  0  0  0  0
    9.3392  -15.2295   28.4075 C   0  0  0  0  0  0  0  0  0  0  0  0
    9.0328  -14.8743   26.9864 C   0  0  0  0  0  0  0  0  0  0  0  0
    9.8521  -15.6370   26.0228 C   0  0  2  0  0  0  0  0  0  0  0  0
    9.4955  -15.2892   24.6265 N   0  0  0  0  0  0  0  0  0  0  0  0
    9.6476  -17.0885   26.2095 C   0  0  0  0  0  0  0  0  0  0  0  0
   10.5291  -17.7749   27.0912 O   0  0  0  0  0  0  0  0  0  0  0  0
    8.7796  -17.7705   25.6722 O   0  0  0  0  0  0  0  0  0  0  0  0
  2  4  1  0
  2  1  1  1
  3  2  1  0
  4  5  1  6
  6  4  1  0
  7  6  2  0
  8  6  1  0
  9  8  1  0
  9 12  1  0
  9 10  1  1
 11 10  1  0
 12 19  1  0
 13 12  2  0
 15 14  1  0
 16 17  1  0
 16 15  1  0
 18 17  1  1
 19 18  1  0
 20 18  1  0
 20 21  1  0
 22 20  2  0
M  END
$$$$
