TCM.pdb
     RDKit          3D

 22 21  0  0  1  0  0  0  0  0999 V2000
   10.8714  -14.9046   19.8272 C   0  0  0  0  0  0  0  0  0  0  0  0
   10.0937  -13.7500   19.2534 C   0  0  1  0  0  0  0  0  0  0  0  0
   10.5969  -13.4615   17.9775 O   0  0  0  0  0  0  0  0  0  0  0  0
    8.6211  -14.1309   19.1479 C   0  0  2  0  0  0  0  0  0  0  0  0
    7.8956  -13.0731   18.4665 N   0  0  0  0  0  0  0  0  0  0  0  0
    8.0665  -14.4987   20.4594 C   0  0  0  0  0  0  0  0  0  0  0  0
    7.6451  -13.5549   21.2314 O   0  0  0  0  0  0  0  0  0  0  0  0
    7.9338  -15.7962   20.9988 N   0  0  0  0  0  0  0  0  0  0  0  0
    7.4129  -16.0270   22.3396 C   0  0  1  0  0  0  0  0  0  0  0  0
    6.6838  -17.3832   22.3896 C   0  0  0  0  0  0  0  0  0  0  0  0
    6.2467  -17.7878   24.1011 S   0  0  0  0  0  0  0  0  0  0  0  0
    8.3996  -15.8898   23.4066 C   0  0  0  0  0  0  0  0  0  0  0  0
    9.3018  -16.7827   23.5581 O   0  0  0  0  0  0  0  0  0  0  0  0
    5.7571  -10.8347   26.9743 C   0  0  0  0  0  0  0  0  0  0  0  0
    6.7028  -12.2302   27.5279 S   0  0  0  0  0  0  0  0  0  0  0  0
    7.6855  -13.0476   26.2624 C   0  0  0  0  0  0  0  0  0  0  0  0
    8.3678  -14.3011   26.7130 C   0  0  0  0  0  0  0  0  0  0  0  0
    9.1494  -14.9394   25.6344 C   0  0  2  0  0  0  0  0  0  0  0  0
    8.4581  -14.8146   24.3290 N   0  0  0  0  0  0  0  0  0  0  0  0
    9.3471  -16.3750   25.9231 C   0  0  0  0  0  0  0  0  0  0  0  0
   10.5417  -16.7586   26.5947 O   0  0  0  0  0  0  0  0  0  0  0  0
    8.5712  -17.2825   25.6374 O   0  0  0  0  0  0  0  0  0  0  0  0
  2  4  1  0
  2  1  1  6
  3  2  1  0
  4  5  1  1
  6  4  1  0
  7  6  2  0
  8  6  1  0
  9  8  1  0
  9 12  1  0
  9 10  1  6
 11 10  1  0
 12 19  1  0
 13 12  2  0
 15 14  1  0
 16 17  1  0
 16 15  1  0
 18 17  1  1
 19 18  1  0
 20 18  1  0
 20 21  1  0
 22 20  2  0
M  END
$$$$
