TCM.pdb
     RDKit          3D

 22 21  0  0  1  0  0  0  0  0999 V2000
    9.0012  -12.4634   19.7718 C   0  0  0  0  0  0  0  0  0  0  0  0
    8.2994  -13.1653   18.6396 C   0  0  1  0  0  0  0  0  0  0  0  0
    8.3876  -12.3641   17.4930 O   0  0  0  0  0  0  0  0  0  0  0  0
    8.9729  -14.5079   18.3778 C   0  0  2  0  0  0  0  0  0  0  0  0
    8.4131  -15.1040   17.1775 N   0  0  0  0  0  0  0  0  0  0  0  0
    8.9220  -15.3744   19.5652 C   0  0  0  0  0  0  0  0  0  0  0  0
    7.8734  -16.1039   19.7452 O   0  0  0  0  0  0  0  0  0  0  0  0
    9.9072  -15.5124   20.5664 N   0  0  0  0  0  0  0  0  0  0  0  0
    9.7034  -16.3481   21.7422 C   0  0  1  0  0  0  0  0  0  0  0  0
   10.5815  -17.6101   21.6437 C   0  0  0  0  0  0  0  0  0  0  0  0
   12.2834  -17.1483   21.2262 S   0  0  0  0  0  0  0  0  0  0  0  0
    9.8713  -15.6554   23.0161 C   0  0  0  0  0  0  0  0  0  0  0  0
   10.3680  -14.4777   23.0399 O   0  0  0  0  0  0  0  0  0  0  0  0
    6.7294  -11.9755   27.9041 C   0  0  0  0  0  0  0  0  0  0  0  0
    7.6463  -12.8222   26.6428 S   0  0  0  0  0  0  0  0  0  0  0  0
    6.7313  -14.0758   25.7334 C   0  0  0  0  0  0  0  0  0  0  0  0
    7.5381  -14.8285   24.7224 C   0  0  0  0  0  0  0  0  0  0  0  0
    8.7843  -15.3816   25.2904 C   0  0  2  0  0  0  0  0  0  0  0  0
    9.5192  -16.1842   24.2837 N   0  0  0  0  0  0  0  0  0  0  0  0
    8.4815  -16.2482   26.4483 C   0  0  0  0  0  0  0  0  0  0  0  0
    8.7762  -15.7471   27.7474 O   0  0  0  0  0  0  0  0  0  0  0  0
    7.9931  -17.3735   26.3998 O   0  0  0  0  0  0  0  0  0  0  0  0
  2  4  1  0
  2  1  1  1
  3  2  1  0
  4  5  1  6
  6  4  1  0
  7  6  2  0
  8  6  1  0
  9  8  1  0
  9 12  1  0
  9 10  1  1
 11 10  1  0
 12 19  1  0
 13 12  2  0
 15 14  1  0
 16 17  1  0
 16 15  1  0
 18 17  1  6
 19 18  1  0
 20 18  1  0
 20 21  1  0
 22 20  2  0
M  END
$$$$
