TCM.pdb
     RDKit          3D

 22 21  0  0  1  0  0  0  0  0999 V2000
   11.8314  -18.9593   22.5574 C   0  0  0  0  0  0  0  0  0  0  0  0
   12.6228  -18.5830   21.3330 C   0  0  1  0  0  0  0  0  0  0  0  0
   13.5097  -19.6267   21.0351 O   0  0  0  0  0  0  0  0  0  0  0  0
   11.6732  -18.3688   20.1594 C   0  0  2  0  0  0  0  0  0  0  0  0
   12.4431  -18.1869   18.9414 N   0  0  0  0  0  0  0  0  0  0  0  0
   10.7128  -17.2899   20.4363 C   0  0  0  0  0  0  0  0  0  0  0  0
   11.1726  -16.1086   20.6757 O   0  0  0  0  0  0  0  0  0  0  0  0
    9.3053  -17.3867   20.4758 N   0  0  0  0  0  0  0  0  0  0  0  0
    8.4635  -16.2651   20.8706 C   0  0  1  0  0  0  0  0  0  0  0  0
    6.9842  -16.6953   20.8629 C   0  0  0  0  0  0  0  0  0  0  0  0
    6.0381  -15.6773   22.0259 S   0  0  0  0  0  0  0  0  0  0  0  0
    8.8483  -15.6297   22.1272 C   0  0  0  0  0  0  0  0  0  0  0  0
    9.3102  -14.4377   22.1225 O   0  0  0  0  0  0  0  0  0  0  0  0
    6.8193  -11.1670   27.3778 C   0  0  0  0  0  0  0  0  0  0  0  0
    6.8807  -12.1086   25.8751 S   0  0  0  0  0  0  0  0  0  0  0  0
    7.5984  -13.7514   26.0225 C   0  0  0  0  0  0  0  0  0  0  0  0
    7.6156  -14.5425   24.7522 C   0  0  0  0  0  0  0  0  0  0  0  0
    8.7917  -15.4307   24.6542 C   0  0  2  0  0  0  0  0  0  0  0  0
    8.7529  -16.2316   23.4073 N   0  0  0  0  0  0  0  0  0  0  0  0
    8.8333  -16.3578   25.8040 C   0  0  0  0  0  0  0  0  0  0  0  0
    9.2525  -15.8381   27.0609 O   0  0  0  0  0  0  0  0  0  0  0  0
    8.5370  -17.5490   25.7822 O   0  0  0  0  0  0  0  0  0  0  0  0
  2  4  1  0
  2  1  1  1
  3  2  1  0
  4  5  1  6
  6  4  1  0
  7  6  2  0
  8  6  1  0
  9  8  1  0
  9 12  1  0
  9 10  1  1
 11 10  1  0
 12 19  1  0
 13 12  2  0
 15 14  1  0
 16 17  1  0
 16 15  1  0
 18 17  1  1
 19 18  1  0
 20 18  1  0
 20 21  1  0
 22 20  2  0
M  END
$$$$
