TCM.pdb
     RDKit          3D

 22 21  0  0  1  0  0  0  0  0999 V2000
    7.8287  -20.2495   18.7726 C   0  0  0  0  0  0  0  0  0  0  0  0
    8.3486  -19.3398   19.8539 C   0  0  1  0  0  0  0  0  0  0  0  0
    9.3494  -20.0161   20.5649 O   0  0  0  0  0  0  0  0  0  0  0  0
    8.9324  -18.0807   19.2224 C   0  0  2  0  0  0  0  0  0  0  0  0
    9.9700  -18.4508   18.2760 N   0  0  0  0  0  0  0  0  0  0  0  0
    9.3619  -17.1164   20.2464 C   0  0  0  0  0  0  0  0  0  0  0  0
   10.6228  -16.8698   20.3633 O   0  0  0  0  0  0  0  0  0  0  0  0
    8.5425  -16.4041   21.1481 N   0  0  0  0  0  0  0  0  0  0  0  0
    9.0972  -15.5225   22.1668 C   0  0  1  0  0  0  0  0  0  0  0  0
    8.2388  -14.2480   22.2773 C   0  0  0  0  0  0  0  0  0  0  0  0
    6.5804  -14.6692   22.8741 S   0  0  0  0  0  0  0  0  0  0  0  0
    9.3171  -16.1556   23.4636 C   0  0  0  0  0  0  0  0  0  0  0  0
    8.3573  -16.7694   24.0434 O   0  0  0  0  0  0  0  0  0  0  0  0
   10.5022  -13.1118   29.9098 C   0  0  0  0  0  0  0  0  0  0  0  0
    9.6540  -13.3513   28.3699 S   0  0  0  0  0  0  0  0  0  0  0  0
    9.7445  -15.0138   27.6892 C   0  0  0  0  0  0  0  0  0  0  0  0
    9.7081  -15.0805   26.1946 C   0  0  0  0  0  0  0  0  0  0  0  0
   10.5960  -16.1291   25.6528 C   0  0  2  0  0  0  0  0  0  0  0  0
   10.5457  -16.1578   24.1714 N   0  0  0  0  0  0  0  0  0  0  0  0
   10.1926  -17.4571   26.1597 C   0  0  0  0  0  0  0  0  0  0  0  0
   10.9110  -17.9915   27.2661 O   0  0  0  0  0  0  0  0  0  0  0  0
    9.2855  -18.1548   25.7151 O   0  0  0  0  0  0  0  0  0  0  0  0
  2  4  1  0
  2  1  1  6
  3  2  1  0
  4  5  1  1
  6  4  1  0
  7  6  2  0
  8  6  1  0
  9  8  1  0
  9 12  1  0
  9 10  1  1
 11 10  1  0
 12 19  1  0
 13 12  2  0
 15 14  1  0
 16 17  1  0
 16 15  1  0
 18 17  1  1
 19 18  1  0
 20 18  1  0
 20 21  1  0
 22 20  2  0
M  END
$$$$
