TCM.pdb
     RDKit          3D

 22 21  0  0  1  0  0  0  0  0999 V2000
    5.5681  -18.2422   24.2214 C   0  0  0  0  0  0  0  0  0  0  0  0
    6.2298  -19.5568   23.9035 C   0  0  1  0  0  0  0  0  0  0  0  0
    5.3360  -20.5929   24.2072 O   0  0  0  0  0  0  0  0  0  0  0  0
    6.5818  -19.6038   22.4207 C   0  0  2  0  0  0  0  0  0  0  0  0
    6.9761  -20.9543   22.0598 N   0  0  0  0  0  0  0  0  0  0  0  0
    7.5678  -18.5704   22.0702 C   0  0  0  0  0  0  0  0  0  0  0  0
    8.7926  -18.7449   22.4359 O   0  0  0  0  0  0  0  0  0  0  0  0
    7.3359  -17.3718   21.3621 N   0  0  0  0  0  0  0  0  0  0  0  0
    8.3876  -16.3882   21.1404 C   0  0  1  0  0  0  0  0  0  0  0  0
    8.1349  -15.6440   19.8154 C   0  0  0  0  0  0  0  0  0  0  0  0
    6.5291  -14.8063   19.8731 S   0  0  0  0  0  0  0  0  0  0  0  0
    8.6079  -15.4727   22.2559 C   0  0  0  0  0  0  0  0  0  0  0  0
    8.2904  -14.2399   22.1399 O   0  0  0  0  0  0  0  0  0  0  0  0
    6.5522  -11.6296   28.1155 C   0  0  0  0  0  0  0  0  0  0  0  0
    6.4694  -12.7923   26.7777 S   0  0  0  0  0  0  0  0  0  0  0  0
    8.0520  -13.4371   26.2164 C   0  0  0  0  0  0  0  0  0  0  0  0
    7.9761  -14.3148   25.0066 C   0  0  0  0  0  0  0  0  0  0  0  0
    9.2931  -14.8596   24.6187 C   0  0  2  0  0  0  0  0  0  0  0  0
    9.1614  -15.8348   23.5100 N   0  0  0  0  0  0  0  0  0  0  0  0
    9.9264  -15.5404   25.7671 C   0  0  0  0  0  0  0  0  0  0  0  0
   10.4265  -14.7308   26.8253 O   0  0  0  0  0  0  0  0  0  0  0  0
   10.0652  -16.7529   25.9009 O   0  0  0  0  0  0  0  0  0  0  0  0
  2  4  1  0
  2  1  1  6
  3  2  1  0
  4  5  1  1
  6  4  1  0
  7  6  2  0
  8  6  1  0
  9  8  1  0
  9 12  1  0
  9 10  1  6
 11 10  1  0
 12 19  1  0
 13 12  2  0
 15 14  1  0
 16 17  1  0
 16 15  1  0
 18 17  1  1
 19 18  1  0
 20 18  1  0
 20 21  1  0
 22 20  2  0
M  END
$$$$
