TCM.pdb
     RDKit          3D

 22 21  0  0  1  0  0  0  0  0999 V2000
    1.2445  -25.4278   26.3879 C   0  0  0  0  0  0  0  0  0  0  0  0
   -0.2469  -25.4441   26.5940 C   0  0  1  0  0  0  0  0  0  0  0  0
   -0.8561  -25.9057   25.4191 O   0  0  0  0  0  0  0  0  0  0  0  0
   -0.5908  -26.3782   27.7489 C   0  0  2  0  0  0  0  0  0  0  0  0
   -0.1061  -27.7145   27.4510 N   0  0  0  0  0  0  0  0  0  0  0  0
   -2.0213  -26.3131   28.0842 C   0  0  0  0  0  0  0  0  0  0  0  0
   -2.7653  -27.3247   27.7883 O   0  0  0  0  0  0  0  0  0  0  0  0
   -2.7062  -25.2483   28.7079 N   0  0  0  0  0  0  0  0  0  0  0  0
   -4.1183  -25.3351   29.0561 C   0  0  1  0  0  0  0  0  0  0  0  0
   -4.2683  -25.8355   30.5054 C   0  0  0  0  0  0  0  0  0  0  0  0
   -3.4505  -24.6873   31.6440 S   0  0  0  0  0  0  0  0  0  0  0  0
   -4.8805  -24.1146   28.8105 C   0  0  0  0  0  0  0  0  0  0  0  0
   -4.3235  -22.9743   28.9643 O   0  0  0  0  0  0  0  0  0  0  0  0
  -10.7696  -20.1090   25.3191 C   0  0  0  0  0  0  0  0  0  0  0  0
   -9.9529  -21.6491   25.6504 S   0  0  0  0  0  0  0  0  0  0  0  0
   -8.7217  -21.6035   26.9609 C   0  0  0  0  0  0  0  0  0  0  0  0
   -7.9823  -22.8878   27.1692 C   0  0  0  0  0  0  0  0  0  0  0  0
   -6.9628  -22.7882   28.2334 C   0  0  2  0  0  0  0  0  0  0  0  0
   -6.2362  -24.0699   28.3978 N   0  0  0  0  0  0  0  0  0  0  0  0
   -7.5971  -22.4420   29.5223 C   0  0  0  0  0  0  0  0  0  0  0  0
   -7.6510  -21.0675   29.8874 O   0  0  0  0  0  0  0  0  0  0  0  0
   -8.0898  -23.2341   30.3204 O   0  0  0  0  0  0  0  0  0  0  0  0
  2  4  1  0
  2  1  1  6
  3  2  1  0
  4  5  1  6
  6  4  1  0
  7  6  2  0
  8  6  1  0
  9  8  1  0
  9 12  1  0
  9 10  1  1
 11 10  1  0
 12 19  1  0
 13 12  2  0
 15 14  1  0
 16 17  1  0
 16 15  1  0
 18 17  1  6
 19 18  1  0
 20 18  1  0
 20 21  1  0
 22 20  2  0
M  END
$$$$
