TCM.pdb
     RDKit          3D

 22 21  0  0  1  0  0  0  0  0999 V2000
   10.9266  -18.6557   19.9109 C   0  0  0  0  0  0  0  0  0  0  0  0
   10.6350  -17.7756   18.7245 C   0  0  1  0  0  0  0  0  0  0  0  0
   11.0137  -18.4556   17.5589 O   0  0  0  0  0  0  0  0  0  0  0  0
    9.1426  -17.4673   18.6742 C   0  0  2  0  0  0  0  0  0  0  0  0
    8.8161  -16.8650   17.3936 N   0  0  0  0  0  0  0  0  0  0  0  0
    8.7178  -16.6789   19.8408 C   0  0  0  0  0  0  0  0  0  0  0  0
    7.8683  -15.7253   19.6578 O   0  0  0  0  0  0  0  0  0  0  0  0
    9.1367  -16.8376   21.1792 N   0  0  0  0  0  0  0  0  0  0  0  0
    8.5450  -16.0752   22.2706 C   0  0  1  0  0  0  0  0  0  0  0  0
    7.0137  -16.2426   22.2537 C   0  0  0  0  0  0  0  0  0  0  0  0
    6.5782  -17.9789   22.5357 S   0  0  0  0  0  0  0  0  0  0  0  0
    9.1173  -16.3517   23.5847 C   0  0  0  0  0  0  0  0  0  0  0  0
    9.0476  -17.5305   24.0743 O   0  0  0  0  0  0  0  0  0  0  0  0
    6.2469  -10.6265   27.0418 C   0  0  0  0  0  0  0  0  0  0  0  0
    6.2760  -12.2681   26.3691 S   0  0  0  0  0  0  0  0  0  0  0  0
    7.8753  -13.0903   26.4088 C   0  0  0  0  0  0  0  0  0  0  0  0
    7.9371  -14.3753   25.6442 C   0  0  0  0  0  0  0  0  0  0  0  0
    9.2567  -15.0312   25.7447 C   0  0  2  0  0  0  0  0  0  0  0  0
    9.7731  -15.3988   24.4046 N   0  0  0  0  0  0  0  0  0  0  0  0
    9.1599  -16.2590   26.5612 C   0  0  0  0  0  0  0  0  0  0  0  0
    8.2295  -17.2557   26.1531 O   0  0  0  0  0  0  0  0  0  0  0  0
    9.8125  -16.5081   27.5707 O   0  0  0  0  0  0  0  0  0  0  0  0
  2  4  1  0
  2  1  1  1
  3  2  1  0
  4  5  1  6
  6  4  1  0
  7  6  2  0
  8  6  1  0
  9  8  1  0
  9 12  1  0
  9 10  1  1
 11 10  1  0
 12 19  1  0
 13 12  2  0
 15 14  1  0
 16 17  1  0
 16 15  1  0
 18 17  1  6
 19 18  1  0
 20 18  1  0
 20 21  1  0
 22 20  2  0
M  END
$$$$
