TCM.pdb
     RDKit          3D

 22 21  0  0  1  0  0  0  0  0999 V2000
    4.7311  -17.9802   22.4211 C   0  0  0  0  0  0  0  0  0  0  0  0
    5.6539  -19.1659   22.5195 C   0  0  1  0  0  0  0  0  0  0  0  0
    4.8924  -20.3367   22.4016 O   0  0  0  0  0  0  0  0  0  0  0  0
    6.6792  -19.1076   21.3926 C   0  0  2  0  0  0  0  0  0  0  0  0
    7.3937  -20.3702   21.3229 N   0  0  0  0  0  0  0  0  0  0  0  0
    7.5466  -17.9264   21.5168 C   0  0  0  0  0  0  0  0  0  0  0  0
    8.4909  -17.9511   22.3955 O   0  0  0  0  0  0  0  0  0  0  0  0
    7.4736  -16.7293   20.7729 N   0  0  0  0  0  0  0  0  0  0  0  0
    8.3176  -15.5800   21.0718 C   0  0  1  0  0  0  0  0  0  0  0  0
    8.2151  -14.5474   19.9332 C   0  0  0  0  0  0  0  0  0  0  0  0
    8.5739  -15.3412   18.3442 S   0  0  0  0  0  0  0  0  0  0  0  0
    8.0873  -14.9819   22.3834 C   0  0  0  0  0  0  0  0  0  0  0  0
    7.1271  -14.1538   22.5457 O   0  0  0  0  0  0  0  0  0  0  0  0
    6.7458  -11.6548   28.0026 C   0  0  0  0  0  0  0  0  0  0  0  0
    6.6415  -12.5171   26.4554 S   0  0  0  0  0  0  0  0  0  0  0  0
    6.7707  -14.3082   26.5598 C   0  0  0  0  0  0  0  0  0  0  0  0
    7.1640  -14.9823   25.2828 C   0  0  0  0  0  0  0  0  0  0  0  0
    8.5327  -14.6293   24.8544 C   0  0  2  0  0  0  0  0  0  0  0  0
    8.8570  -15.2440   23.5449 N   0  0  0  0  0  0  0  0  0  0  0  0
    9.5200  -15.0992   25.8484 C   0  0  0  0  0  0  0  0  0  0  0  0
   10.5533  -15.9680   25.3979 O   0  0  0  0  0  0  0  0  0  0  0  0
    9.5376  -14.8095   27.0413 O   0  0  0  0  0  0  0  0  0  0  0  0
  2  4  1  0
  2  1  1  6
  3  2  1  0
  4  5  1  1
  6  4  1  0
  7  6  2  0
  8  6  1  0
  9  8  1  0
  9 12  1  0
  9 10  1  6
 11 10  1  0
 12 19  1  0
 13 12  2  0
 15 14  1  0
 16 17  1  0
 16 15  1  0
 18 17  1  1
 19 18  1  0
 20 18  1  0
 20 21  1  0
 22 20  2  0
M  END
$$$$
