TCM.pdb
     RDKit          3D

 22 21  0  0  1  0  0  0  0  0999 V2000
   10.9324  -14.6015   19.8515 C   0  0  0  0  0  0  0  0  0  0  0  0
   10.1090  -13.4653   19.3054 C   0  0  1  0  0  0  0  0  0  0  0  0
   10.6880  -13.0291   18.1058 O   0  0  0  0  0  0  0  0  0  0  0  0
    8.6873  -13.9484   19.0407 C   0  0  2  0  0  0  0  0  0  0  0  0
    7.9299  -12.8914   18.3938 N   0  0  0  0  0  0  0  0  0  0  0  0
    8.0647  -14.4796   20.2626 C   0  0  0  0  0  0  0  0  0  0  0  0
    7.5948  -13.6414   21.1234 O   0  0  0  0  0  0  0  0  0  0  0  0
    7.9123  -15.8349   20.6255 N   0  0  0  0  0  0  0  0  0  0  0  0
    7.4187  -16.2339   21.9369 C   0  0  1  0  0  0  0  0  0  0  0  0
    7.0633  -17.7329   21.9265 C   0  0  0  0  0  0  0  0  0  0  0  0
    6.0763  -18.1447   23.3894 S   0  0  0  0  0  0  0  0  0  0  0  0
    8.2957  -15.8810   23.0492 C   0  0  0  0  0  0  0  0  0  0  0  0
    9.2248  -15.0197   22.8788 O   0  0  0  0  0  0  0  0  0  0  0  0
    6.2449  -11.6337   25.8247 C   0  0  0  0  0  0  0  0  0  0  0  0
    7.2593  -12.1442   27.1881 S   0  0  0  0  0  0  0  0  0  0  0  0
    8.2369  -13.6282   26.9095 C   0  0  0  0  0  0  0  0  0  0  0  0
    7.8150  -14.4421   25.7266 C   0  0  0  0  0  0  0  0  0  0  0  0
    8.6389  -15.6554   25.5512 C   0  0  2  0  0  0  0  0  0  0  0  0
    8.2113  -16.4225   24.3568 N   0  0  0  0  0  0  0  0  0  0  0  0
    8.5229  -16.5315   26.7354 C   0  0  0  0  0  0  0  0  0  0  0  0
    9.4454  -16.3330   27.8007 O   0  0  0  0  0  0  0  0  0  0  0  0
    7.6970  -17.4260   26.8937 O   0  0  0  0  0  0  0  0  0  0  0  0
  2  4  1  0
  2  1  1  6
  3  2  1  0
  4  5  1  1
  6  4  1  0
  7  6  2  0
  8  6  1  0
  9  8  1  0
  9 12  1  0
  9 10  1  6
 11 10  1  0
 12 19  1  0
 13 12  2  0
 15 14  1  0
 16 17  1  0
 16 15  1  0
 18 17  1  1
 19 18  1  0
 20 18  1  0
 20 21  1  0
 22 20  2  0
M  END
$$$$
