VYT.pdb
     RDKit          3D

 27 27  0  0  1  0  0  0  0  0999 V2000
    7.4970  -18.9267   20.5095 C   0  0  0  0  0  0  0  0  0  0  0  0
    8.8236  -18.6109   19.8566 C   0  0  1  0  0  0  0  0  0  0  0  0
    8.7444  -19.1389   18.4215 C   0  0  0  0  0  0  0  0  0  0  0  0
    8.9690  -17.1028   19.8271 C   0  0  2  0  0  0  0  0  0  0  0  0
   10.1754  -16.7677   19.0856 N   0  0  0  0  0  0  0  0  0  0  0  0
    9.0998  -16.5650   21.2036 C   0  0  0  0  0  0  0  0  0  0  0  0
   10.0536  -16.8505   21.9608 O   0  0  0  0  0  0  0  0  0  0  0  0
    7.2755  -11.9094   28.4348 O   0  0  0  0  0  0  0  0  0  0  0  0
    7.2710  -12.4071   27.1357 C   0  0  0  0  0  0  0  0  0  0  0  0
    8.3127  -12.1594   26.2661 C   0  0  0  0  0  0  0  0  0  0  0  0
    8.2613  -12.6764   24.9850 C   0  0  0  0  0  0  0  0  0  0  0  0
    7.1978  -13.4355   24.5446 C   0  0  0  0  0  0  0  0  0  0  0  0
    7.1579  -13.9848   23.1618 C   0  0  0  0  0  0  0  0  0  0  0  0
    8.1763  -15.1210   23.0513 C   0  0  2  0  0  0  0  0  0  0  0  0
    8.0930  -15.6745   21.7038 N   0  0  0  0  0  0  0  0  0  0  0  0
    7.8731  -16.1722   24.0364 C   0  0  0  0  0  0  0  0  0  0  0  0
    6.7176  -16.6497   24.1209 O   0  0  0  0  0  0  0  0  0  0  0  0
    6.1510  -13.6763   25.4396 C   0  0  0  0  0  0  0  0  0  0  0  0
    6.2116  -13.1593   26.7077 C   0  0  0  0  0  0  0  0  0  0  0  0
    7.7401  -19.4337   24.5053 C   0  0  0  0  0  0  0  0  0  0  0  0
    8.7264  -19.0317   25.5452 C   0  0  1  0  0  0  0  0  0  0  0  0
   10.0121  -19.2651   25.1128 O   0  0  0  0  0  0  0  0  0  0  0  0
    8.6024  -17.5866   25.9743 C   0  0  2  0  0  0  0  0  0  0  0  0
    8.8763  -16.6655   24.9072 N   0  0  0  0  0  0  0  0  0  0  0  0
    9.4085  -17.2986   27.1895 C   0  0  0  0  0  0  0  0  0  0  0  0
   10.3210  -16.4327   27.1954 O   0  0  0  0  0  0  0  0  0  0  0  0
    9.1888  -17.9766   28.3796 O   0  0  0  0  0  0  0  0  0  0  0  0
  2  4  1  0
  2  1  1  1
  3  2  1  0
  4  6  1  0
  4  5  1  6
  6  7  2  0
  9 10  2  0
  9  8  1  0
 11 10  1  0
 12 11  2  0
 14 13  1  6
 13 12  1  0
 15 14  1  0
 15  6  1  0
 16 14  1  0
 16 17  2  0
 18 12  1  0
 18 19  2  0
 19  9  1  0
 21 20  1  6
 21 23  1  0
 22 21  1  0
 23 24  1  6
 23 25  1  0
 24 16  1  0
 25 26  2  0
 25 27  1  0
M  END
$$$$
