VYT.pdb
     RDKit          3D

 27 27  0  0  1  0  0  0  0  0999 V2000
    8.5767  -12.9363   20.6269 C   0  0  0  0  0  0  0  0  0  0  0  0
    7.7628  -14.0745   20.0546 C   0  0  1  0  0  0  0  0  0  0  0  0
    7.9148  -14.0025   18.5327 C   0  0  0  0  0  0  0  0  0  0  0  0
    8.3721  -15.3678   20.5572 C   0  0  2  0  0  0  0  0  0  0  0  0
    7.6603  -16.4824   19.9502 N   0  0  0  0  0  0  0  0  0  0  0  0
    8.2348  -15.4702   22.0309 C   0  0  0  0  0  0  0  0  0  0  0  0
    7.1394  -15.6634   22.6031 O   0  0  0  0  0  0  0  0  0  0  0  0
   10.4229  -16.0511   30.5057 O   0  0  0  0  0  0  0  0  0  0  0  0
   10.4989  -15.9369   29.1212 C   0  0  0  0  0  0  0  0  0  0  0  0
   10.7456  -14.7246   28.5112 C   0  0  0  0  0  0  0  0  0  0  0  0
   10.8118  -14.6630   27.1317 C   0  0  0  0  0  0  0  0  0  0  0  0
   10.6384  -15.7790   26.3405 C   0  0  0  0  0  0  0  0  0  0  0  0
   10.7127  -15.6956   24.8563 C   0  0  0  0  0  0  0  0  0  0  0  0
    9.3155  -15.4021   24.3067 C   0  0  2  0  0  0  0  0  0  0  0  0
    9.4042  -15.3438   22.8515 N   0  0  0  0  0  0  0  0  0  0  0  0
    8.8271  -14.1131   24.8235 C   0  0  0  0  0  0  0  0  0  0  0  0
    9.4532  -13.0542   24.5845 O   0  0  0  0  0  0  0  0  0  0  0  0
   10.3892  -16.9991   26.9760 C   0  0  0  0  0  0  0  0  0  0  0  0
   10.3255  -17.0495   28.3445 C   0  0  0  0  0  0  0  0  0  0  0  0
    5.6116  -12.0912   24.2740 C   0  0  0  0  0  0  0  0  0  0  0  0
    5.7181  -12.5202   25.6953 C   0  0  1  0  0  0  0  0  0  0  0  0
    4.9362  -13.6286   25.9291 O   0  0  0  0  0  0  0  0  0  0  0  0
    7.1349  -12.8106   26.1382 C   0  0  2  0  0  0  0  0  0  0  0  0
    7.6435  -14.0408   25.5993 N   0  0  0  0  0  0  0  0  0  0  0  0
    7.2790  -12.7394   27.6159 C   0  0  0  0  0  0  0  0  0  0  0  0
    7.7163  -13.7064   28.2913 O   0  0  0  0  0  0  0  0  0  0  0  0
    6.9351  -11.5952   28.3209 O   0  0  0  0  0  0  0  0  0  0  0  0
  2  4  1  0
  2  1  1  1
  3  2  1  0
  4  6  1  0
  4  5  1  6
  6  7  2  0
  9 10  2  0
  9  8  1  0
 11 10  1  0
 12 11  2  0
 14 13  1  1
 13 12  1  0
 15 14  1  0
 15  6  1  0
 16 14  1  0
 16 17  2  0
 18 12  1  0
 18 19  2  0
 19  9  1  0
 21 20  1  6
 21 23  1  0
 22 21  1  0
 23 24  1  1
 23 25  1  0
 24 16  1  0
 25 26  2  0
 25 27  1  0
M  END
$$$$
