VYT.pdb
     RDKit          3D

 27 27  0  0  1  0  0  0  0  0999 V2000
    6.9889  -15.6801   20.2048 C   0  0  0  0  0  0  0  0  0  0  0  0
    7.6215  -14.4590   19.5767 C   0  0  1  0  0  0  0  0  0  0  0  0
    6.7970  -14.1287   18.3294 C   0  0  0  0  0  0  0  0  0  0  0  0
    7.5016  -13.3217   20.5710 C   0  0  2  0  0  0  0  0  0  0  0  0
    7.9524  -12.0957   19.9297 N   0  0  0  0  0  0  0  0  0  0  0  0
    8.3577  -13.5734   21.7561 C   0  0  0  0  0  0  0  0  0  0  0  0
    9.6062  -13.5042   21.7241 O   0  0  0  0  0  0  0  0  0  0  0  0
   10.7971  -15.1981   30.0137 O   0  0  0  0  0  0  0  0  0  0  0  0
   10.0301  -14.9215   28.8864 C   0  0  0  0  0  0  0  0  0  0  0  0
    9.2581  -15.8933   28.2845 C   0  0  0  0  0  0  0  0  0  0  0  0
    8.5134  -15.5685   27.1660 C   0  0  0  0  0  0  0  0  0  0  0  0
    8.5164  -14.2986   26.6287 C   0  0  0  0  0  0  0  0  0  0  0  0
    7.7088  -13.9653   25.4237 C   0  0  0  0  0  0  0  0  0  0  0  0
    8.5396  -14.2618   24.1738 C   0  0  2  0  0  0  0  0  0  0  0  0
    7.7392  -13.9132   23.0047 N   0  0  0  0  0  0  0  0  0  0  0  0
    8.8897  -15.6908   24.1241 C   0  0  0  0  0  0  0  0  0  0  0  0
    7.9919  -16.5649   24.1084 O   0  0  0  0  0  0  0  0  0  0  0  0
    9.3047  -13.3265   27.2518 C   0  0  0  0  0  0  0  0  0  0  0  0
   10.0394  -13.6588   28.3604 C   0  0  0  0  0  0  0  0  0  0  0  0
   10.2602  -17.7865   21.5984 C   0  0  0  0  0  0  0  0  0  0  0  0
   11.2177  -17.9047   22.7319 C   0  0  1  0  0  0  0  0  0  0  0  0
   12.3550  -17.1690   22.4871 O   0  0  0  0  0  0  0  0  0  0  0  0
   10.6360  -17.4894   24.0649 C   0  0  2  0  0  0  0  0  0  0  0  0
   10.2434  -16.1083   24.0929 N   0  0  0  0  0  0  0  0  0  0  0  0
   11.5334  -17.8442   25.1955 C   0  0  0  0  0  0  0  0  0  0  0  0
   11.8759  -19.0321   25.4285 O   0  0  0  0  0  0  0  0  0  0  0  0
   12.0366  -16.8744   26.0502 O   0  0  0  0  0  0  0  0  0  0  0  0
  2  4  1  0
  2  1  1  1
  3  2  1  0
  4  6  1  0
  4  5  1  6
  6  7  2  0
  9 10  2  0
  9  8  1  0
 11 10  1  0
 12 11  2  0
 14 13  1  1
 13 12  1  0
 15 14  1  0
 15  6  1  0
 16 14  1  0
 16 17  2  0
 18 12  1  0
 18 19  2  0
 19  9  1  0
 21 20  1  6
 21 23  1  0
 22 21  1  0
 23 24  1  6
 23 25  1  0
 24 16  1  0
 25 26  2  0
 25 27  1  0
M  END
$$$$
