VYT.pdb
     RDKit          3D

 27 27  0  0  1  0  0  0  0  0999 V2000
    6.8303  -18.0621   20.1337 C   0  0  0  0  0  0  0  0  0  0  0  0
    8.2063  -17.9804   19.5126 C   0  0  1  0  0  0  0  0  0  0  0  0
    8.0489  -18.3737   18.0412 C   0  0  0  0  0  0  0  0  0  0  0  0
    8.6597  -16.5370   19.5985 C   0  0  2  0  0  0  0  0  0  0  0  0
    9.9152  -16.4015   18.8753 N   0  0  0  0  0  0  0  0  0  0  0  0
    8.8876  -16.1457   21.0113 C   0  0  0  0  0  0  0  0  0  0  0  0
    9.8529  -16.5630   21.6885 O   0  0  0  0  0  0  0  0  0  0  0  0
    7.5564  -12.2744   28.7961 O   0  0  0  0  0  0  0  0  0  0  0  0
    7.4777  -12.6238   27.4518 C   0  0  0  0  0  0  0  0  0  0  0  0
    8.5476  -12.4497   26.5987 C   0  0  0  0  0  0  0  0  0  0  0  0
    8.4196  -12.8126   25.2709 C   0  0  0  0  0  0  0  0  0  0  0  0
    7.2518  -13.3459   24.7677 C   0  0  0  0  0  0  0  0  0  0  0  0
    7.1304  -13.7316   23.3352 C   0  0  0  0  0  0  0  0  0  0  0  0
    8.1468  -14.8340   23.0319 C   0  0  2  0  0  0  0  0  0  0  0  0
    7.9660  -15.2474   21.6442 N   0  0  0  0  0  0  0  0  0  0  0  0
    7.9279  -15.9855   23.9225 C   0  0  0  0  0  0  0  0  0  0  0  0
    6.9016  -16.6947   23.8039 O   0  0  0  0  0  0  0  0  0  0  0  0
    6.1779  -13.5153   25.6467 C   0  0  0  0  0  0  0  0  0  0  0  0
    6.3151  -13.1522   26.9615 C   0  0  0  0  0  0  0  0  0  0  0  0
    7.8573  -18.8661   23.7859 C   0  0  0  0  0  0  0  0  0  0  0  0
    8.9120  -18.7695   24.8317 C   0  0  1  0  0  0  0  0  0  0  0  0
   10.1654  -18.8152   24.2646 O   0  0  0  0  0  0  0  0  0  0  0  0
    8.8025  -17.5310   25.6930 C   0  0  2  0  0  0  0  0  0  0  0  0
    8.8684  -16.3165   24.9294 N   0  0  0  0  0  0  0  0  0  0  0  0
    9.7794  -17.5472   26.8132 C   0  0  0  0  0  0  0  0  0  0  0  0
   10.6282  -16.6323   26.9720 O   0  0  0  0  0  0  0  0  0  0  0  0
    9.7988  -18.5792   27.7400 O   0  0  0  0  0  0  0  0  0  0  0  0
  2  4  1  0
  2  1  1  1
  3  2  1  0
  4  6  1  0
  4  5  1  6
  6  7  2  0
  9 10  2  0
  9  8  1  0
 11 10  1  0
 12 11  2  0
 14 13  1  1
 13 12  1  0
 15 14  1  0
 15  6  1  0
 16 14  1  0
 16 17  2  0
 18 12  1  0
 18 19  2  0
 19  9  1  0
 21 20  1  6
 21 23  1  0
 22 21  1  0
 23 24  1  6
 23 25  1  0
 24 16  1  0
 25 26  2  0
 25 27  1  0
M  END
$$$$
