VYT.pdb
     RDKit          3D

 27 27  0  0  1  0  0  0  0  0999 V2000
    7.5564  -18.5057   20.3539 C   0  0  0  0  0  0  0  0  0  0  0  0
    8.8653  -18.3159   19.6214 C   0  0  1  0  0  0  0  0  0  0  0  0
    8.6812  -18.9218   18.2273 C   0  0  0  0  0  0  0  0  0  0  0  0
    9.1021  -16.8248   19.4911 C   0  0  2  0  0  0  0  0  0  0  0  0
   10.3123  -16.6139   18.7109 N   0  0  0  0  0  0  0  0  0  0  0  0
    9.2922  -16.2088   20.8273 C   0  0  0  0  0  0  0  0  0  0  0  0
   10.3552  -16.3059   21.4794 O   0  0  0  0  0  0  0  0  0  0  0  0
    7.2326  -12.0626   28.3074 O   0  0  0  0  0  0  0  0  0  0  0  0
    7.2379  -12.5025   26.9876 C   0  0  0  0  0  0  0  0  0  0  0  0
    8.1604  -12.0332   26.0758 C   0  0  0  0  0  0  0  0  0  0  0  0
    8.1242  -12.5015   24.7755 C   0  0  0  0  0  0  0  0  0  0  0  0
    7.1917  -13.4270   24.3570 C   0  0  0  0  0  0  0  0  0  0  0  0
    7.1664  -13.9210   22.9532 C   0  0  0  0  0  0  0  0  0  0  0  0
    8.3321  -14.8903   22.7487 C   0  0  2  0  0  0  0  0  0  0  0  0
    8.2152  -15.4638   21.4121 N   0  0  0  0  0  0  0  0  0  0  0  0
    8.2809  -15.9651   23.7533 C   0  0  0  0  0  0  0  0  0  0  0  0
    7.2345  -16.6357   23.9137 O   0  0  0  0  0  0  0  0  0  0  0  0
    6.2645  -13.8915   25.2948 C   0  0  0  0  0  0  0  0  0  0  0  0
    6.3089  -13.4210   26.5815 C   0  0  0  0  0  0  0  0  0  0  0  0
    9.8730  -19.1570   23.8373 C   0  0  0  0  0  0  0  0  0  0  0  0
   10.3191  -18.4823   25.0869 C   0  0  1  0  0  0  0  0  0  0  0  0
   11.6103  -18.0233   24.9579 O   0  0  0  0  0  0  0  0  0  0  0  0
    9.4263  -17.3378   25.5118 C   0  0  2  0  0  0  0  0  0  0  0  0
    9.4083  -16.2644   24.5578 N   0  0  0  0  0  0  0  0  0  0  0  0
    9.7449  -16.8671   26.8852 C   0  0  0  0  0  0  0  0  0  0  0  0
   10.1333  -15.6929   27.1151 O   0  0  0  0  0  0  0  0  0  0  0  0
    9.6271  -17.7078   27.9824 O   0  0  0  0  0  0  0  0  0  0  0  0
  2  4  1  0
  2  1  1  1
  3  2  1  0
  4  6  1  0
  4  5  1  6
  6  7  2  0
  9 10  2  0
  9  8  1  0
 11 10  1  0
 12 11  2  0
 14 13  1  1
 13 12  1  0
 15 14  1  0
 15  6  1  0
 16 14  1  0
 16 17  2  0
 18 12  1  0
 18 19  2  0
 19  9  1  0
 21 20  1  6
 21 23  1  0
 22 21  1  0
 23 24  1  6
 23 25  1  0
 24 16  1  0
 25 26  2  0
 25 27  1  0
M  END
$$$$
