VYT.pdb
     RDKit          3D

 27 27  0  0  1  0  0  0  0  0999 V2000
   12.1917  -16.2889   19.5742 C   0  0  0  0  0  0  0  0  0  0  0  0
   10.8006  -16.3262   18.9831 C   0  0  1  0  0  0  0  0  0  0  0  0
   10.8689  -17.2369   17.7541 C   0  0  0  0  0  0  0  0  0  0  0  0
    9.8834  -16.9487   20.0163 C   0  0  2  0  0  0  0  0  0  0  0  0
    8.5915  -17.2026   19.3966 N   0  0  0  0  0  0  0  0  0  0  0  0
    9.6820  -16.0240   21.1589 C   0  0  0  0  0  0  0  0  0  0  0  0
    9.7236  -14.7790   21.0456 O   0  0  0  0  0  0  0  0  0  0  0  0
    6.6462  -11.7501   27.8587 O   0  0  0  0  0  0  0  0  0  0  0  0
    6.9271  -12.5495   26.7553 C   0  0  0  0  0  0  0  0  0  0  0  0
    6.2431  -13.7250   26.5249 C   0  0  0  0  0  0  0  0  0  0  0  0
    6.5593  -14.4845   25.4139 C   0  0  0  0  0  0  0  0  0  0  0  0
    7.5410  -14.1046   24.5233 C   0  0  0  0  0  0  0  0  0  0  0  0
    7.8693  -14.9339   23.3318 C   0  0  0  0  0  0  0  0  0  0  0  0
    9.1649  -15.7003   23.6042 C   0  0  2  0  0  0  0  0  0  0  0  0
    9.4267  -16.5683   22.4609 N   0  0  0  0  0  0  0  0  0  0  0  0
    9.0259  -16.5161   24.8217 C   0  0  0  0  0  0  0  0  0  0  0  0
    8.0487  -17.2881   24.9613 O   0  0  0  0  0  0  0  0  0  0  0  0
    8.2238  -12.9103   24.7727 C   0  0  0  0  0  0  0  0  0  0  0  0
    7.9027  -12.1644   25.8772 C   0  0  0  0  0  0  0  0  0  0  0  0
   10.9516  -19.2063   25.2288 C   0  0  0  0  0  0  0  0  0  0  0  0
   11.2134  -18.4768   26.4996 C   0  0  1  0  0  0  0  0  0  0  0  0
   12.4326  -17.8398   26.4529 O   0  0  0  0  0  0  0  0  0  0  0  0
   10.1416  -17.4703   26.8547 C   0  0  2  0  0  0  0  0  0  0  0  0
    9.9893  -16.4472   25.8585 N   0  0  0  0  0  0  0  0  0  0  0  0
   10.3393  -16.9077   28.2162 C   0  0  0  0  0  0  0  0  0  0  0  0
   10.5029  -15.6759   28.4121 O   0  0  0  0  0  0  0  0  0  0  0  0
   10.3522  -17.7218   29.3393 O   0  0  0  0  0  0  0  0  0  0  0  0
  2  4  1  0
  2  1  1  1
  3  2  1  0
  4  6  1  0
  4  5  1  6
  6  7  2  0
  9 10  2  0
  9  8  1  0
 11 10  1  0
 12 11  2  0
 14 13  1  6
 13 12  1  0
 15 14  1  0
 15  6  1  0
 16 14  1  0
 16 17  2  0
 18 12  1  0
 18 19  2  0
 19  9  1  0
 21 20  1  6
 21 23  1  0
 22 21  1  0
 23 24  1  6
 23 25  1  0
 24 16  1  0
 25 26  2  0
 25 27  1  0
M  END
$$$$
