VYT.pdb
     RDKit          3D

 27 27  0  0  1  0  0  0  0  0999 V2000
    7.5712  -17.9541   21.0205 C   0  0  0  0  0  0  0  0  0  0  0  0
    8.1528  -17.0766   19.9353 C   0  0  1  0  0  0  0  0  0  0  0  0
    7.3422  -17.3514   18.6656 C   0  0  0  0  0  0  0  0  0  0  0  0
    7.9485  -15.6354   20.3568 C   0  0  2  0  0  0  0  0  0  0  0  0
    8.3859  -14.7688   19.2728 N   0  0  0  0  0  0  0  0  0  0  0  0
    8.7575  -15.3252   21.5611 C   0  0  0  0  0  0  0  0  0  0  0  0
   10.0005  -15.1879   21.5322 O   0  0  0  0  0  0  0  0  0  0  0  0
   10.6344  -14.7758   30.1368 O   0  0  0  0  0  0  0  0  0  0  0  0
    9.9621  -14.7489   28.9192 C   0  0  0  0  0  0  0  0  0  0  0  0
    9.2554  -15.8419   28.4624 C   0  0  0  0  0  0  0  0  0  0  0  0
    8.6040  -15.7654   27.2455 C   0  0  0  0  0  0  0  0  0  0  0  0
    8.6369  -14.6267   26.4685 C   0  0  0  0  0  0  0  0  0  0  0  0
    7.9299  -14.5607   25.1603 C   0  0  0  0  0  0  0  0  0  0  0  0
    8.8563  -15.1012   24.0695 C   0  0  2  0  0  0  0  0  0  0  0  0
    8.0976  -15.1725   22.8252 N   0  0  0  0  0  0  0  0  0  0  0  0
    9.3377  -16.4444   24.4318 C   0  0  0  0  0  0  0  0  0  0  0  0
    8.5264  -17.3801   24.6231 O   0  0  0  0  0  0  0  0  0  0  0  0
    9.3579  -13.5287   26.9472 C   0  0  0  0  0  0  0  0  0  0  0  0
   10.0004  -13.6148   28.1551 C   0  0  0  0  0  0  0  0  0  0  0  0
   11.2231  -18.8861   22.5666 C   0  0  0  0  0  0  0  0  0  0  0  0
   12.0286  -18.6366   23.7933 C   0  0  1  0  0  0  0  0  0  0  0  0
   13.1209  -17.8497   23.5066 O   0  0  0  0  0  0  0  0  0  0  0  0
   11.2419  -18.0018   24.9184 C   0  0  2  0  0  0  0  0  0  0  0  0
   10.7228  -16.7084   24.5717 N   0  0  0  0  0  0  0  0  0  0  0  0
   12.0129  -17.9786   26.1890 C   0  0  0  0  0  0  0  0  0  0  0  0
   12.4061  -19.0333   26.7506 O   0  0  0  0  0  0  0  0  0  0  0  0
   12.3354  -16.7842   26.8165 O   0  0  0  0  0  0  0  0  0  0  0  0
  2  4  1  0
  2  1  1  1
  3  2  1  0
  4  6  1  0
  4  5  1  6
  6  7  2  0
  9 10  2  0
  9  8  1  0
 11 10  1  0
 12 11  2  0
 14 13  1  1
 13 12  1  0
 15 14  1  0
 15  6  1  0
 16 14  1  0
 16 17  2  0
 18 12  1  0
 18 19  2  0
 19  9  1  0
 21 20  1  6
 21 23  1  0
 22 21  1  0
 23 24  1  6
 23 25  1  0
 24 16  1  0
 25 26  2  0
 25 27  1  0
M  END
$$$$
