VYT.pdb
     RDKit          3D

 27 27  0  0  1  0  0  0  0  0999 V2000
    9.0436  -20.0262   20.9879 C   0  0  0  0  0  0  0  0  0  0  0  0
    9.8735  -19.5699   19.8095 C   0  0  1  0  0  0  0  0  0  0  0  0
    9.5401  -20.5087   18.6466 C   0  0  0  0  0  0  0  0  0  0  0  0
    9.4319  -18.1633   19.4589 C   0  0  2  0  0  0  0  0  0  0  0  0
   10.1042  -17.7581   18.2336 N   0  0  0  0  0  0  0  0  0  0  0  0
    9.8084  -17.2153   20.5362 C   0  0  0  0  0  0  0  0  0  0  0  0
   10.9828  -16.8290   20.7265 O   0  0  0  0  0  0  0  0  0  0  0  0
    7.8572  -11.9940   17.5694 O   0  0  0  0  0  0  0  0  0  0  0  0
    7.8723  -12.6766   18.7815 C   0  0  0  0  0  0  0  0  0  0  0  0
    6.9297  -13.6390   19.0778 C   0  0  0  0  0  0  0  0  0  0  0  0
    6.9875  -14.2894   20.2963 C   0  0  0  0  0  0  0  0  0  0  0  0
    7.9613  -14.0069   21.2308 C   0  0  0  0  0  0  0  0  0  0  0  0
    8.0095  -14.7164   22.5384 C   0  0  0  0  0  0  0  0  0  0  0  0
    9.1099  -15.7779   22.4849 C   0  0  2  0  0  0  0  0  0  0  0  0
    8.7888  -16.7093   21.4086 N   0  0  0  0  0  0  0  0  0  0  0  0
    9.1767  -16.5048   23.7633 C   0  0  0  0  0  0  0  0  0  0  0  0
    8.1300  -16.7675   24.4004 O   0  0  0  0  0  0  0  0  0  0  0  0
    8.9084  -13.0286   20.9134 C   0  0  0  0  0  0  0  0  0  0  0  0
    8.8422  -12.3895   19.7025 C   0  0  0  0  0  0  0  0  0  0  0  0
   10.0148  -19.9167   24.6121 C   0  0  0  0  0  0  0  0  0  0  0  0
   10.9946  -19.0685   25.3442 C   0  0  1  0  0  0  0  0  0  0  0  0
   12.2129  -19.0687   24.7035 O   0  0  0  0  0  0  0  0  0  0  0  0
   10.5368  -17.6400   25.5380 C   0  0  2  0  0  0  0  0  0  0  0  0
   10.4200  -16.9219   24.2998 N   0  0  0  0  0  0  0  0  0  0  0  0
   11.3753  -16.9195   26.5315 C   0  0  0  0  0  0  0  0  0  0  0  0
   12.0403  -15.8961   26.2267 O   0  0  0  0  0  0  0  0  0  0  0  0
   11.4624  -17.3467   27.8484 O   0  0  0  0  0  0  0  0  0  0  0  0
  2  4  1  0
  2  1  1  1
  3  2  1  0
  4  6  1  0
  4  5  1  6
  6  7  2  0
  9 10  2  0
  9  8  1  0
 11 10  1  0
 12 11  2  0
 14 13  1  1
 13 12  1  0
 15 14  1  0
 15  6  1  0
 16 14  1  0
 16 17  2  0
 18 12  1  0
 18 19  2  0
 19  9  1  0
 21 20  1  6
 21 23  1  0
 22 21  1  0
 23 24  1  6
 23 25  1  0
 24 16  1  0
 25 26  2  0
 25 27  1  0
M  END
$$$$
