VYT.pdb
     RDKit          3D

 27 27  0  0  1  0  0  0  0  0999 V2000
    6.5324  -15.1962   19.0485 C   0  0  0  0  0  0  0  0  0  0  0  0
    7.2167  -15.6102   20.3315 C   0  0  1  0  0  0  0  0  0  0  0  0
    8.5732  -16.2003   19.9361 C   0  0  0  0  0  0  0  0  0  0  0  0
    7.4374  -14.3573   21.1547 C   0  0  2  0  0  0  0  0  0  0  0  0
    8.2699  -13.4407   20.3902 N   0  0  0  0  0  0  0  0  0  0  0  0
    8.1385  -14.6827   22.4210 C   0  0  0  0  0  0  0  0  0  0  0  0
    9.3725  -14.5458   22.5733 O   0  0  0  0  0  0  0  0  0  0  0  0
    6.5275   -9.6969   27.1221 O   0  0  0  0  0  0  0  0  0  0  0  0
    6.5995  -11.0537   26.8231 C   0  0  0  0  0  0  0  0  0  0  0  0
    5.4628  -11.8050   26.6085 C   0  0  0  0  0  0  0  0  0  0  0  0
    5.5872  -13.1501   26.3142 C   0  0  0  0  0  0  0  0  0  0  0  0
    6.8161  -13.7694   26.2276 C   0  0  0  0  0  0  0  0  0  0  0  0
    6.9326  -15.2188   25.9098 C   0  0  0  0  0  0  0  0  0  0  0  0
    8.0022  -15.4045   24.8319 C   0  0  2  0  0  0  0  0  0  0  0  0
    7.3791  -15.1787   23.5320 N   0  0  0  0  0  0  0  0  0  0  0  0
    8.5472  -16.7709   24.8875 C   0  0  0  0  0  0  0  0  0  0  0  0
    7.8107  -17.7586   24.6588 O   0  0  0  0  0  0  0  0  0  0  0  0
    7.9572  -12.9923   26.4482 C   0  0  0  0  0  0  0  0  0  0  0  0
    7.8232  -11.6595   26.7393 C   0  0  0  0  0  0  0  0  0  0  0  0
   11.0607  -18.4564   22.8471 C   0  0  0  0  0  0  0  0  0  0  0  0
   11.5544  -18.5550   24.2479 C   0  0  1  0  0  0  0  0  0  0  0  0
   12.5954  -17.6799   24.4599 O   0  0  0  0  0  0  0  0  0  0  0  0
   10.4836  -18.3129   25.2883 C   0  0  2  0  0  0  0  0  0  0  0  0
    9.9104  -16.9991   25.1993 N   0  0  0  0  0  0  0  0  0  0  0  0
   10.9624  -18.6281   26.6597 C   0  0  0  0  0  0  0  0  0  0  0  0
   10.9744  -17.7673   27.5769 O   0  0  0  0  0  0  0  0  0  0  0  0
   11.4205  -19.8948   26.9915 O   0  0  0  0  0  0  0  0  0  0  0  0
  2  4  1  0
  2  1  1  6
  3  2  1  0
  4  6  1  0
  4  5  1  6
  6  7  2  0
  9 10  2  0
  9  8  1  0
 11 10  1  0
 12 11  2  0
 14 13  1  1
 13 12  1  0
 15 14  1  0
 15  6  1  0
 16 14  1  0
 16 17  2  0
 18 12  1  0
 18 19  2  0
 19  9  1  0
 21 20  1  6
 21 23  1  0
 22 21  1  0
 23 24  1  1
 23 25  1  0
 24 16  1  0
 25 26  2  0
 25 27  1  0
M  END
$$$$
