VYT.pdb
     RDKit          3D

 27 27  0  0  1  0  0  0  0  0999 V2000
    6.5386  -17.5765   22.2266 C   0  0  0  0  0  0  0  0  0  0  0  0
    7.3581  -17.7985   20.9756 C   0  0  1  0  0  0  0  0  0  0  0  0
    6.3692  -17.8708   19.8088 C   0  0  0  0  0  0  0  0  0  0  0  0
    8.2540  -16.5894   20.7975 C   0  0  2  0  0  0  0  0  0  0  0  0
    8.9463  -16.7088   19.5231 N   0  0  0  0  0  0  0  0  0  0  0  0
    9.2682  -16.5287   21.8785 C   0  0  0  0  0  0  0  0  0  0  0  0
   10.2571  -17.2930   21.9312 O   0  0  0  0  0  0  0  0  0  0  0  0
    4.9964  -12.7030   26.5739 O   0  0  0  0  0  0  0  0  0  0  0  0
    6.2418  -13.0198   26.0409 C   0  0  0  0  0  0  0  0  0  0  0  0
    6.4826  -12.9532   24.6844 C   0  0  0  0  0  0  0  0  0  0  0  0
    7.7375  -13.2781   24.2038 C   0  0  0  0  0  0  0  0  0  0  0  0
    8.7624  -13.6686   25.0396 C   0  0  0  0  0  0  0  0  0  0  0  0
   10.1080  -14.0151   24.5060 C   0  0  0  0  0  0  0  0  0  0  0  0
   10.0861  -15.4623   24.0107 C   0  0  2  0  0  0  0  0  0  0  0  0
    9.1217  -15.5531   22.9195 N   0  0  0  0  0  0  0  0  0  0  0  0
    9.6843  -16.3661   25.1010 C   0  0  0  0  0  0  0  0  0  0  0  0
    8.4873  -16.4278   25.4669 O   0  0  0  0  0  0  0  0  0  0  0  0
    8.5002  -13.7303   26.4115 C   0  0  0  0  0  0  0  0  0  0  0  0
    7.2525  -13.4062   26.8779 C   0  0  0  0  0  0  0  0  0  0  0  0
    9.2182  -19.7814   25.0883 C   0  0  0  0  0  0  0  0  0  0  0  0
   10.2644  -19.5815   26.1280 C   0  0  1  0  0  0  0  0  0  0  0  0
   11.5126  -19.8692   25.6242 O   0  0  0  0  0  0  0  0  0  0  0  0
   10.2770  -18.1889   26.7180 C   0  0  2  0  0  0  0  0  0  0  0  0
   10.6374  -17.1830   25.7584 N   0  0  0  0  0  0  0  0  0  0  0  0
   11.1056  -18.1166   27.9499 C   0  0  0  0  0  0  0  0  0  0  0  0
   12.1297  -17.3896   28.0238 O   0  0  0  0  0  0  0  0  0  0  0  0
   10.7843  -18.8527   29.0808 O   0  0  0  0  0  0  0  0  0  0  0  0
  2  4  1  0
  2  1  1  1
  3  2  1  0
  4  6  1  0
  4  5  1  6
  6  7  2  0
  9 10  2  0
  9  8  1  0
 11 10  1  0
 12 11  2  0
 14 13  1  1
 13 12  1  0
 15 14  1  0
 15  6  1  0
 16 14  1  0
 16 17  2  0
 18 12  1  0
 18 19  2  0
 19  9  1  0
 21 20  1  6
 21 23  1  0
 22 21  1  0
 23 24  1  6
 23 25  1  0
 24 16  1  0
 25 26  2  0
 25 27  1  0
M  END
$$$$
