VYT.pdb
     RDKit          3D

 27 27  0  0  1  0  0  0  0  0999 V2000
    6.7355  -13.8261   18.2658 C   0  0  0  0  0  0  0  0  0  0  0  0
    7.4277  -14.4961   19.4310 C   0  0  1  0  0  0  0  0  0  0  0  0
    8.7451  -15.0622   18.8938 C   0  0  0  0  0  0  0  0  0  0  0  0
    7.7266  -13.4249   20.4603 C   0  0  2  0  0  0  0  0  0  0  0  0
    8.6175  -12.4422   19.8616 N   0  0  0  0  0  0  0  0  0  0  0  0
    8.4032  -14.0126   21.6426 C   0  0  0  0  0  0  0  0  0  0  0  0
    9.6428  -13.9806   21.8063 O   0  0  0  0  0  0  0  0  0  0  0  0
    6.1266  -10.2525   27.3441 O   0  0  0  0  0  0  0  0  0  0  0  0
    6.3939  -11.4851   26.7570 C   0  0  0  0  0  0  0  0  0  0  0  0
    7.6810  -11.9710   26.6568 C   0  0  0  0  0  0  0  0  0  0  0  0
    7.8947  -13.2018   26.0646 C   0  0  0  0  0  0  0  0  0  0  0  0
    6.8588  -13.9643   25.5679 C   0  0  0  0  0  0  0  0  0  0  0  0
    7.1061  -15.2877   24.9330 C   0  0  0  0  0  0  0  0  0  0  0  0
    8.2154  -15.1367   23.8905 C   0  0  2  0  0  0  0  0  0  0  0  0
    7.6118  -14.6511   22.6540 N   0  0  0  0  0  0  0  0  0  0  0  0
    8.8632  -16.4359   23.6466 C   0  0  0  0  0  0  0  0  0  0  0  0
    8.1964  -17.4091   23.2239 O   0  0  0  0  0  0  0  0  0  0  0  0
    5.5610  -13.4560   25.6780 C   0  0  0  0  0  0  0  0  0  0  0  0
    5.3598  -12.2346   26.2669 C   0  0  0  0  0  0  0  0  0  0  0  0
   11.4925  -17.4829   21.2954 C   0  0  0  0  0  0  0  0  0  0  0  0
   11.9981  -17.8218   22.6537 C   0  0  1  0  0  0  0  0  0  0  0  0
   12.9700  -16.9303   23.0477 O   0  0  0  0  0  0  0  0  0  0  0  0
   10.9164  -17.8743   23.7095 C   0  0  2  0  0  0  0  0  0  0  0  0
   10.2488  -16.6147   23.8831 N   0  0  0  0  0  0  0  0  0  0  0  0
   11.4218  -18.4270   24.9934 C   0  0  0  0  0  0  0  0  0  0  0  0
   11.4453  -17.7453   26.0504 O   0  0  0  0  0  0  0  0  0  0  0  0
   11.8932  -19.7285   25.0838 O   0  0  0  0  0  0  0  0  0  0  0  0
  2  4  1  0
  2  1  1  6
  3  2  1  0
  4  6  1  0
  4  5  1  6
  6  7  2  0
  9 10  2  0
  9  8  1  0
 11 10  1  0
 12 11  2  0
 14 13  1  1
 13 12  1  0
 15 14  1  0
 15  6  1  0
 16 14  1  0
 16 17  2  0
 18 12  1  0
 18 19  2  0
 19  9  1  0
 21 20  1  6
 21 23  1  0
 22 21  1  0
 23 24  1  1
 23 25  1  0
 24 16  1  0
 25 26  2  0
 25 27  1  0
M  END
$$$$
