WRY.pdb
     RDKit          3D

 38 40  0  0  1  0  0  0  0  0999 V2000
   27.6799  -18.6517   -9.8490 N   0  0  0  0  0  0  0  0  0  0  0  0
   27.8557  -20.0051  -10.3152 C   0  0  1  0  0  0  0  0  0  0  0  0
   27.0735  -21.0069   -9.5510 C   0  0  0  0  0  0  0  0  0  0  0  0
   26.7533  -20.6503   -8.1633 C   0  0  0  0  0  0  0  0  0  0  0  0
   25.4817  -20.5992   -7.5681 C   0  0  0  0  0  0  0  0  0  0  0  0
   25.6407  -20.2551   -6.2874 N   0  0  0  0  0  0  0  0  0  0  0  0
   26.9305  -20.0745   -5.9950 C   0  0  0  0  0  0  0  0  0  0  0  0
   27.6104  -19.7197   -4.8563 C   0  0  0  0  0  0  0  0  0  0  0  0
   28.9723  -19.5993   -4.8394 C   0  0  0  0  0  0  0  0  0  0  0  0
   29.6736  -19.8368   -5.9809 C   0  0  0  0  0  0  0  0  0  0  0  0
   29.0057  -20.1961   -7.1419 C   0  0  0  0  0  0  0  0  0  0  0  0
   27.6368  -20.3188   -7.1617 C   0  0  0  0  0  0  0  0  0  0  0  0
   27.5121  -20.0687  -11.7747 C   0  0  0  0  0  0  0  0  0  0  0  0
   26.4419  -19.5680  -12.2187 O   0  0  0  0  0  0  0  0  0  0  0  0
   31.0498  -22.2514  -10.7571 N   0  0  0  0  0  0  0  0  0  0  0  0
   32.0271  -22.8088  -11.6299 C   0  0  0  0  0  0  0  0  0  0  0  0
   32.7841  -23.7879  -11.2187 N   0  0  0  0  0  0  0  0  0  0  0  0
   32.1996  -22.3190  -12.9522 N   0  0  0  0  0  0  0  0  0  0  0  0
   31.2574  -21.3880  -13.5259 C   0  0  0  0  0  0  0  0  0  0  0  0
   30.0569  -22.1546  -14.0084 C   0  0  0  0  0  0  0  0  0  0  0  0
   29.1796  -21.3200  -14.8822 C   0  0  0  0  0  0  0  0  0  0  0  0
   27.9906  -20.8138  -14.0975 C   0  0  2  0  0  0  0  0  0  0  0  0
   28.3606  -20.6887  -12.7268 N   0  0  0  0  0  0  0  0  0  0  0  0
   26.8054  -21.6759  -14.3141 C   0  0  0  0  0  0  0  0  0  0  0  0
   26.6157  -22.6721  -13.5857 O   0  0  0  0  0  0  0  0  0  0  0  0
   33.5143  -24.1830  -11.8337 O   0  0  0  0  0  0  0  0  0  0  0  0
   18.9366  -19.2226  -12.4454 C   0  0  0  0  0  0  0  0  0  0  0  0
   20.2657  -19.4710  -12.8307 C   0  0  0  0  0  0  0  0  0  0  0  0
   20.9781  -18.5081  -13.5243 C   0  0  0  0  0  0  0  0  0  0  0  0
   22.2789  -18.7150  -13.9179 C   0  0  0  0  0  0  0  0  0  0  0  0
   22.8976  -19.9121  -13.6167 C   0  0  0  0  0  0  0  0  0  0  0  0
   24.2929  -20.1641  -14.0361 C   0  0  2  0  0  0  0  0  0  0  0  0
   24.4385  -21.1939  -15.1066 N   0  0  0  0  0  0  0  0  0  0  0  0
   25.8615  -21.4064  -15.3361 C   0  0  0  0  0  0  0  0  0  0  0  0
   23.6894  -20.9237  -16.3458 O   0  0  0  0  0  0  0  0  0  0  0  0
   22.6638  -21.5549  -16.6845 C   0  0  0  0  0  0  0  0  0  0  0  0
   22.2075  -20.8844  -12.9273 C   0  0  0  0  0  0  0  0  0  0  0  0
   20.9018  -20.6538  -12.5424 O   0  0  0  0  0  0  0  0  0  0  0  0
  2  1  1  1
  3  2  1  0
  4  5  2  0
  4  3  1  0
  6  5  1  0
  7 12  2  0
  7  6  1  0
  8  7  1  0
  9  8  2  0
  9 10  1  0
 10 11  2  0
 11 12  1  0
 12  4  1  0
 13  2  1  0
 14 13  2  0
 16 15  1  0
 17 16  2  0
 18 16  1  0
 19 18  1  0
 19 20  1  0
 20 21  1  0
 22 21  1  6
 22 24  1  0
 22 23  1  0
 23 13  1  0
 24 33  1  0
 25 24  2  0
 26 27  1  0
 27 28  2  0
 27 37  1  0
 28 29  1  0
 29 30  2  0
 30 31  1  0
 32 34  1  0
 32 31  1  1
 33 32  1  0
 34 38  1  0
 35 34  2  0
 36 30  1  0
 37 36  2  0
M  END
$$$$
