WRY.pdb
     RDKit          3D

 38 40  0  0  1  0  0  0  0  0999 V2000
   27.8692  -22.2051  -10.4228 N   0  0  0  0  0  0  0  0  0  0  0  0
   26.8954  -21.2661   -9.9230 C   0  0  1  0  0  0  0  0  0  0  0  0
   27.4927  -20.0528   -9.3141 C   0  0  0  0  0  0  0  0  0  0  0  0
   28.4926  -20.2858   -8.2647 C   0  0  0  0  0  0  0  0  0  0  0  0
   29.7913  -20.7976   -8.4235 C   0  0  0  0  0  0  0  0  0  0  0  0
   30.3724  -20.8247   -7.2212 N   0  0  0  0  0  0  0  0  0  0  0  0
   29.5466  -20.3663   -6.2780 C   0  0  0  0  0  0  0  0  0  0  0  0
   29.6502  -20.1953   -4.9197 C   0  0  0  0  0  0  0  0  0  0  0  0
   28.6167  -19.6962   -4.1765 C   0  0  0  0  0  0  0  0  0  0  0  0
   27.4540  -19.3602   -4.7981 C   0  0  0  0  0  0  0  0  0  0  0  0
   27.3290  -19.5255   -6.1693 C   0  0  0  0  0  0  0  0  0  0  0  0
   28.3664  -20.0261   -6.9193 C   0  0  0  0  0  0  0  0  0  0  0  0
   25.9597  -20.8925  -11.0352 C   0  0  0  0  0  0  0  0  0  0  0  0
   26.1084  -19.8206  -11.6849 O   0  0  0  0  0  0  0  0  0  0  0  0
   28.3688  -22.2521  -15.1040 N   0  0  0  0  0  0  0  0  0  0  0  0
   27.4895  -22.5639  -16.1798 C   0  0  0  0  0  0  0  0  0  0  0  0
   27.8769  -23.3782  -17.1220 N   0  0  0  0  0  0  0  0  0  0  0  0
   26.1861  -22.0035  -16.2525 N   0  0  0  0  0  0  0  0  0  0  0  0
   25.5224  -21.5160  -15.0669 C   0  0  0  0  0  0  0  0  0  0  0  0
   25.2252  -22.6841  -14.1675 C   0  0  0  0  0  0  0  0  0  0  0  0
   23.9223  -22.5202  -13.4568 C   0  0  0  0  0  0  0  0  0  0  0  0
   23.9979  -21.3620  -12.4880 C   0  0  2  0  0  0  0  0  0  0  0  0
   24.8672  -21.7131  -11.4145 N   0  0  0  0  0  0  0  0  0  0  0  0
   22.6452  -20.9521  -12.0439 C   0  0  0  0  0  0  0  0  0  0  0  0
   22.0128  -21.6592  -11.2321 O   0  0  0  0  0  0  0  0  0  0  0  0
   27.2518  -23.6032  -17.9133 O   0  0  0  0  0  0  0  0  0  0  0  0
   20.1683  -17.0375  -18.0453 C   0  0  0  0  0  0  0  0  0  0  0  0
   20.3040  -17.2344  -16.6598 C   0  0  0  0  0  0  0  0  0  0  0  0
   19.1787  -17.3657  -15.8647 C   0  0  0  0  0  0  0  0  0  0  0  0
   19.2718  -17.5591  -14.5067 C   0  0  0  0  0  0  0  0  0  0  0  0
   20.5169  -17.6253  -13.9137 C   0  0  0  0  0  0  0  0  0  0  0  0
   20.6453  -17.8234  -12.4541 C   0  0  1  0  0  0  0  0  0  0  0  0
   20.7560  -19.2511  -12.0330 N   0  0  0  0  0  0  0  0  0  0  0  0
   22.0314  -19.7649  -12.5149 C   0  0  0  0  0  0  0  0  0  0  0  0
   19.6145  -20.1062  -12.4014 O   0  0  0  0  0  0  0  0  0  0  0  0
   18.4937  -20.0374  -11.8500 C   0  0  0  0  0  0  0  0  0  0  0  0
   21.6502  -17.4971  -14.6858 C   0  0  0  0  0  0  0  0  0  0  0  0
   21.5318  -17.3037  -16.0478 O   0  0  0  0  0  0  0  0  0  0  0  0
  2  1  1  6
  3  2  1  0
  4  5  2  0
  4  3  1  0
  6  5  1  0
  7 12  2  0
  7  6  1  0
  8  7  1  0
  9  8  2  0
  9 10  1  0
 10 11  2  0
 11 12  1  0
 12  4  1  0
 13  2  1  0
 14 13  2  0
 16 15  1  0
 17 16  2  0
 18 16  1  0
 19 18  1  0
 19 20  1  0
 20 21  1  0
 22 21  1  6
 22 24  1  0
 22 23  1  0
 23 13  1  0
 24 33  1  0
 25 24  2  0
 26 27  1  0
 27 28  2  0
 27 37  1  0
 28 29  1  0
 29 30  2  0
 30 31  1  0
 32 34  1  0
 32 31  1  1
 33 32  1  0
 34 38  1  0
 35 34  2  0
 36 30  1  0
 37 36  2  0
M  END
$$$$
