WRY.pdb
     RDKit          3D

 38 40  0  0  1  0  0  0  0  0999 V2000
   23.4291  -15.2159  -18.3239 N   0  0  0  0  0  0  0  0  0  0  0  0
   23.5907  -15.3794  -16.9001 C   0  0  1  0  0  0  0  0  0  0  0  0
   22.3537  -15.1195  -16.1244 C   0  0  0  0  0  0  0  0  0  0  0  0
   22.0062  -13.7076  -15.9223 C   0  0  0  0  0  0  0  0  0  0  0  0
   20.7959  -13.0726  -16.2478 C   0  0  0  0  0  0  0  0  0  0  0  0
   20.8897  -11.7933  -15.8759 N   0  0  0  0  0  0  0  0  0  0  0  0
   22.0795  -11.5385  -15.3272 C   0  0  0  0  0  0  0  0  0  0  0  0
   22.6670  -10.4146  -14.8012 C   0  0  0  0  0  0  0  0  0  0  0  0
   23.9379  -10.4358  -14.2972 C   0  0  0  0  0  0  0  0  0  0  0  0
   24.6403  -11.6009  -14.3173 C   0  0  0  0  0  0  0  0  0  0  0  0
   24.0651  -12.7473  -14.8445 C   0  0  0  0  0  0  0  0  0  0  0  0
   22.7874  -12.7293  -15.3511 C   0  0  0  0  0  0  0  0  0  0  0  0
   24.1082  -16.7603  -16.6216 C   0  0  0  0  0  0  0  0  0  0  0  0
   23.7648  -17.7450  -17.3327 O   0  0  0  0  0  0  0  0  0  0  0  0
   26.4668  -21.0740  -10.1932 N   0  0  0  0  0  0  0  0  0  0  0  0
   27.1702  -21.7651  -11.2204 C   0  0  0  0  0  0  0  0  0  0  0  0
   27.0620  -23.0605  -11.3252 N   0  0  0  0  0  0  0  0  0  0  0  0
   27.9962  -21.0702  -12.1441 N   0  0  0  0  0  0  0  0  0  0  0  0
   27.7113  -19.7030  -12.5094 C   0  0  0  0  0  0  0  0  0  0  0  0
   26.6343  -19.7002  -13.5591 C   0  0  0  0  0  0  0  0  0  0  0  0
   26.3421  -18.3209  -14.0510 C   0  0  0  0  0  0  0  0  0  0  0  0
   25.2959  -18.3659  -15.1414 C   0  0  2  0  0  0  0  0  0  0  0  0
   25.0017  -17.0341  -15.5551 N   0  0  0  0  0  0  0  0  0  0  0  0
   24.1027  -19.1259  -14.7014 C   0  0  0  0  0  0  0  0  0  0  0  0
   23.2649  -18.5914  -13.9454 O   0  0  0  0  0  0  0  0  0  0  0  0
   27.5515  -23.5705  -12.0788 O   0  0  0  0  0  0  0  0  0  0  0  0
   18.4525  -23.8347  -10.6153 C   0  0  0  0  0  0  0  0  0  0  0  0
   19.5467  -23.2124  -11.2418 C   0  0  0  0  0  0  0  0  0  0  0  0
   19.7536  -21.8527  -11.0859 C   0  0  0  0  0  0  0  0  0  0  0  0
   20.8118  -21.2096  -11.6830 C   0  0  0  0  0  0  0  0  0  0  0  0
   21.6956  -21.9323  -12.4595 C   0  0  0  0  0  0  0  0  0  0  0  0
   22.8369  -21.2638  -13.1203 C   0  0  1  0  0  0  0  0  0  0  0  0
   22.7961  -21.3047  -14.6117 N   0  0  0  0  0  0  0  0  0  0  0  0
   23.8727  -20.4617  -15.1148 C   0  0  0  0  0  0  0  0  0  0  0  0
   21.4893  -20.9906  -15.2144 O   0  0  0  0  0  0  0  0  0  0  0  0
   21.0794  -19.8244  -15.4059 C   0  0  0  0  0  0  0  0  0  0  0  0
   21.5088  -23.2864  -12.6282 C   0  0  0  0  0  0  0  0  0  0  0  0
   20.4388  -23.9106  -12.0186 O   0  0  0  0  0  0  0  0  0  0  0  0
  2  1  1  6
  3  2  1  0
  4  5  2  0
  4  3  1  0
  6  5  1  0
  7 12  2  0
  7  6  1  0
  8  7  1  0
  9  8  2  0
  9 10  1  0
 10 11  2  0
 11 12  1  0
 12  4  1  0
 13  2  1  0
 14 13  2  0
 16 15  1  0
 17 16  2  0
 18 16  1  0
 19 18  1  0
 19 20  1  0
 20 21  1  0
 22 21  1  1
 22 24  1  0
 22 23  1  0
 23 13  1  0
 24 33  1  0
 25 24  2  0
 26 27  1  0
 27 28  2  0
 27 37  1  0
 28 29  1  0
 29 30  2  0
 30 31  1  0
 32 34  1  0
 32 31  1  1
 33 32  1  0
 34 38  1  0
 35 34  2  0
 36 30  1  0
 37 36  2  0
M  END
$$$$
