WRY.pdb
     RDKit          3D

 38 40  0  0  1  0  0  0  0  0999 V2000
   24.7019  -19.1764   -9.3238 N   0  0  0  0  0  0  0  0  0  0  0  0
   25.9506  -19.8037   -9.6806 C   0  0  1  0  0  0  0  0  0  0  0  0
   26.2382  -21.0409   -8.9151 C   0  0  0  0  0  0  0  0  0  0  0  0
   26.3055  -20.8932   -7.4560 C   0  0  0  0  0  0  0  0  0  0  0  0
   25.3035  -21.2023   -6.5209 C   0  0  0  0  0  0  0  0  0  0  0  0
   25.7840  -20.9418   -5.3022 N   0  0  0  0  0  0  0  0  0  0  0  0
   27.0350  -20.4810   -5.3673 C   0  0  0  0  0  0  0  0  0  0  0  0
   27.9515  -20.0722   -4.4305 C   0  0  0  0  0  0  0  0  0  0  0  0
   29.1950  -19.6284   -4.7862 C   0  0  0  0  0  0  0  0  0  0  0  0
   29.5342  -19.5901   -6.1032 C   0  0  0  0  0  0  0  0  0  0  0  0
   28.6227  -19.9985   -7.0653 C   0  0  0  0  0  0  0  0  0  0  0  0
   27.3723  -20.4459   -6.7108 C   0  0  0  0  0  0  0  0  0  0  0  0
   25.9548  -20.0823  -11.1552 C   0  0  0  0  0  0  0  0  0  0  0  0
   24.8864  -20.3367  -11.7774 O   0  0  0  0  0  0  0  0  0  0  0  0
   30.4940  -17.8364  -17.4145 N   0  0  0  0  0  0  0  0  0  0  0  0
   29.1516  -17.9238  -17.8812 C   0  0  0  0  0  0  0  0  0  0  0  0
   28.9139  -18.2325  -19.1257 N   0  0  0  0  0  0  0  0  0  0  0  0
   28.0526  -17.6804  -17.0144 N   0  0  0  0  0  0  0  0  0  0  0  0
   28.1849  -17.8452  -15.5864 C   0  0  0  0  0  0  0  0  0  0  0  0
   28.4745  -19.2918  -15.2942 C   0  0  0  0  0  0  0  0  0  0  0  0
   28.5012  -19.5671  -13.8268 C   0  0  0  0  0  0  0  0  0  0  0  0
   27.1252  -19.9675  -13.3453 C   0  0  2  0  0  0  0  0  0  0  0  0
   27.1460  -20.0764  -11.9244 N   0  0  0  0  0  0  0  0  0  0  0  0
   26.6618  -21.1990  -14.0263 C   0  0  0  0  0  0  0  0  0  0  0  0
   27.3023  -22.2630  -13.8977 O   0  0  0  0  0  0  0  0  0  0  0  0
   27.9444  -18.2876  -19.4787 O   0  0  0  0  0  0  0  0  0  0  0  0
   20.7318  -27.2711  -13.5156 C   0  0  0  0  0  0  0  0  0  0  0  0
   21.6346  -26.1934  -13.5354 C   0  0  0  0  0  0  0  0  0  0  0  0
   21.1627  -24.8928  -13.4962 C   0  0  0  0  0  0  0  0  0  0  0  0
   22.0147  -23.8140  -13.5142 C   0  0  0  0  0  0  0  0  0  0  0  0
   23.3778  -24.0257  -13.5726 C   0  0  0  0  0  0  0  0  0  0  0  0
   24.3159  -22.8832  -13.6023 C   0  0  1  0  0  0  0  0  0  0  0  0
   24.6055  -22.3586  -14.9693 N   0  0  0  0  0  0  0  0  0  0  0  0
   25.4967  -21.2141  -14.8328 C   0  0  0  0  0  0  0  0  0  0  0  0
   23.4213  -22.0708  -15.7968 O   0  0  0  0  0  0  0  0  0  0  0  0
   22.7288  -21.0361  -15.6755 C   0  0  0  0  0  0  0  0  0  0  0  0
   23.8694  -25.3117  -13.6125 C   0  0  0  0  0  0  0  0  0  0  0  0
   22.9943  -26.3794  -13.5932 O   0  0  0  0  0  0  0  0  0  0  0  0
  2  1  1  1
  3  2  1  0
  4  5  2  0
  4  3  1  0
  6  5  1  0
  7 12  2  0
  7  6  1  0
  8  7  1  0
  9  8  2  0
  9 10  1  0
 10 11  2  0
 11 12  1  0
 12  4  1  0
 13  2  1  0
 14 13  2  0
 16 15  1  0
 17 16  2  0
 18 16  1  0
 19 18  1  0
 19 20  1  0
 20 21  1  0
 22 21  1  6
 22 24  1  0
 22 23  1  0
 23 13  1  0
 24 33  1  0
 25 24  2  0
 26 27  1  0
 27 28  2  0
 27 37  1  0
 28 29  1  0
 29 30  2  0
 30 31  1  0
 32 34  1  0
 32 31  1  6
 33 32  1  0
 34 38  1  0
 35 34  2  0
 36 30  1  0
 37 36  2  0
M  END
$$$$
