WRY.pdb
     RDKit          3D

 38 40  0  0  1  0  0  0  0  0999 V2000
   23.7769  -18.6252  -18.1736 N   0  0  0  0  0  0  0  0  0  0  0  0
   24.5175  -18.3361  -16.9703 C   0  0  1  0  0  0  0  0  0  0  0  0
   23.6734  -17.8548  -15.8500 C   0  0  0  0  0  0  0  0  0  0  0  0
   22.9989  -16.5679  -16.0599 C   0  0  0  0  0  0  0  0  0  0  0  0
   21.6743  -16.3580  -16.4786 C   0  0  0  0  0  0  0  0  0  0  0  0
   21.4591  -15.0405  -16.5170 N   0  0  0  0  0  0  0  0  0  0  0  0
   22.5509  -14.3644  -16.1529 C   0  0  0  0  0  0  0  0  0  0  0  0
   22.8511  -13.0303  -16.0314 C   0  0  0  0  0  0  0  0  0  0  0  0
   24.0875  -12.6044  -15.6320 C   0  0  0  0  0  0  0  0  0  0  0  0
   25.0469  -13.5263  -15.3476 C   0  0  0  0  0  0  0  0  0  0  0  0
   24.7639  -14.8788  -15.4642 C   0  0  0  0  0  0  0  0  0  0  0  0
   23.5217  -15.3100  -15.8646 C   0  0  0  0  0  0  0  0  0  0  0  0
   25.2876  -19.5584  -16.5639 C   0  0  0  0  0  0  0  0  0  0  0  0
   24.6995  -20.6347  -16.2658 O   0  0  0  0  0  0  0  0  0  0  0  0
   30.8097  -23.9517  -18.1077 N   0  0  0  0  0  0  0  0  0  0  0  0
   30.6260  -24.5068  -16.8093 C   0  0  0  0  0  0  0  0  0  0  0  0
   31.4687  -25.3922  -16.3548 N   0  0  0  0  0  0  0  0  0  0  0  0
   29.5352  -24.1151  -15.9878 N   0  0  0  0  0  0  0  0  0  0  0  0
   28.7934  -22.9086  -16.2673 C   0  0  0  0  0  0  0  0  0  0  0  0
   29.5121  -21.7461  -15.6397 C   0  0  0  0  0  0  0  0  0  0  0  0
   28.8735  -20.4431  -15.9918 C   0  0  0  0  0  0  0  0  0  0  0  0
   27.4054  -20.4666  -15.6314 C   0  0  2  0  0  0  0  0  0  0  0  0
   26.7037  -19.5729  -16.4918 N   0  0  0  0  0  0  0  0  0  0  0  0
   27.2075  -20.1793  -14.1915 C   0  0  0  0  0  0  0  0  0  0  0  0
   27.4843  -19.0504  -13.7356 O   0  0  0  0  0  0  0  0  0  0  0  0
   31.3425  -25.8063  -15.4166 O   0  0  0  0  0  0  0  0  0  0  0  0
   20.3681  -19.9338  -13.0819 C   0  0  0  0  0  0  0  0  0  0  0  0
   21.7209  -19.8818  -12.7024 C   0  0  0  0  0  0  0  0  0  0  0  0
   22.6559  -19.3068  -13.5455 C   0  0  0  0  0  0  0  0  0  0  0  0
   23.9871  -19.2380  -13.2089 C   0  0  0  0  0  0  0  0  0  0  0  0
   24.4096  -19.7536  -11.9997 C   0  0  0  0  0  0  0  0  0  0  0  0
   25.8367  -19.7008  -11.6170 C   0  0  1  0  0  0  0  0  0  0  0  0
   26.5866  -20.9689  -11.8563 N   0  0  0  0  0  0  0  0  0  0  0  0
   26.7060  -21.1565  -13.2962 C   0  0  0  0  0  0  0  0  0  0  0  0
   26.0546  -22.1549  -11.1632 O   0  0  0  0  0  0  0  0  0  0  0  0
   25.9096  -22.2228   -9.9225 C   0  0  0  0  0  0  0  0  0  0  0  0
   23.4962  -20.3303  -11.1453 C   0  0  0  0  0  0  0  0  0  0  0  0
   22.1645  -20.3879  -11.5050 O   0  0  0  0  0  0  0  0  0  0  0  0
  2  1  1  6
  3  2  1  0
  4  5  2  0
  4  3  1  0
  6  5  1  0
  7 12  2  0
  7  6  1  0
  8  7  1  0
  9  8  2  0
  9 10  1  0
 10 11  2  0
 11 12  1  0
 12  4  1  0
 13  2  1  0
 14 13  2  0
 16 15  1  0
 17 16  2  0
 18 16  1  0
 19 18  1  0
 19 20  1  0
 20 21  1  0
 22 21  1  6
 22 24  1  0
 22 23  1  0
 23 13  1  0
 24 33  1  0
 25 24  2  0
 26 27  1  0
 27 28  2  0
 27 37  1  0
 28 29  1  0
 29 30  2  0
 30 31  1  0
 32 34  1  0
 32 31  1  1
 33 32  1  0
 34 38  1  0
 35 34  2  0
 36 30  1  0
 37 36  2  0
M  END
$$$$
