WRY.pdb
     RDKit          3D

 38 40  0  0  1  0  0  0  0  0999 V2000
   21.3462  -18.4834  -22.2901 N   0  0  0  0  0  0  0  0  0  0  0  0
   20.7534  -18.4946  -20.9754 C   0  0  1  0  0  0  0  0  0  0  0  0
   19.7419  -17.4303  -20.7666 C   0  0  0  0  0  0  0  0  0  0  0  0
   20.1708  -16.0637  -21.0883 C   0  0  0  0  0  0  0  0  0  0  0  0
   21.4076  -15.4665  -20.7922 C   0  0  0  0  0  0  0  0  0  0  0  0
   21.3920  -14.2240  -21.2817 N   0  0  0  0  0  0  0  0  0  0  0  0
   20.2292  -13.9582  -21.8809 C   0  0  0  0  0  0  0  0  0  0  0  0
   19.7154  -12.8583  -22.5220 C   0  0  0  0  0  0  0  0  0  0  0  0
   18.4555  -12.8586  -23.0534 C   0  0  0  0  0  0  0  0  0  0  0  0
   17.6895  -13.9777  -22.9444 C   0  0  0  0  0  0  0  0  0  0  0  0
   18.1900  -15.0993  -22.3004 C   0  0  0  0  0  0  0  0  0  0  0  0
   19.4564  -15.1024  -21.7659 C   0  0  0  0  0  0  0  0  0  0  0  0
   20.1568  -19.8476  -20.7190 C   0  0  0  0  0  0  0  0  0  0  0  0
   19.3234  -20.3586  -21.5175 O   0  0  0  0  0  0  0  0  0  0  0  0
   25.1511  -25.6439  -19.1949 N   0  0  0  0  0  0  0  0  0  0  0  0
   24.1420  -25.3696  -18.2285 C   0  0  0  0  0  0  0  0  0  0  0  0
   23.9994  -26.1534  -17.1959 N   0  0  0  0  0  0  0  0  0  0  0  0
   23.2772  -24.2505  -18.3630 N   0  0  0  0  0  0  0  0  0  0  0  0
   23.3589  -23.3858  -19.5160 C   0  0  0  0  0  0  0  0  0  0  0  0
   22.2902  -22.3335  -19.4045 C   0  0  0  0  0  0  0  0  0  0  0  0
   20.9413  -22.9336  -19.1808 C   0  0  0  0  0  0  0  0  0  0  0  0
   19.8706  -21.8738  -19.3076 C   0  0  2  0  0  0  0  0  0  0  0  0
   20.4912  -20.6194  -19.5774 N   0  0  0  0  0  0  0  0  0  0  0  0
   18.9966  -21.8563  -18.1114 C   0  0  0  0  0  0  0  0  0  0  0  0
   19.3464  -21.2277  -17.0909 O   0  0  0  0  0  0  0  0  0  0  0  0
   23.2589  -25.9750  -16.4977 O   0  0  0  0  0  0  0  0  0  0  0  0
   11.3107  -22.5801  -13.6545 C   0  0  0  0  0  0  0  0  0  0  0  0
   12.3310  -22.6103  -14.6214 C   0  0  0  0  0  0  0  0  0  0  0  0
   13.1343  -23.7305  -14.7469 C   0  0  0  0  0  0  0  0  0  0  0  0
   14.1416  -23.7966  -15.6801 C   0  0  0  0  0  0  0  0  0  0  0  0
   14.3635  -22.7216  -16.5177 C   0  0  0  0  0  0  0  0  0  0  0  0
   15.4460  -22.7629  -17.5240 C   0  0  2  0  0  0  0  0  0  0  0  0
   16.8051  -22.4722  -16.9798 N   0  0  0  0  0  0  0  0  0  0  0  0
   17.7551  -22.5390  -18.0824 C   0  0  0  0  0  0  0  0  0  0  0  0
   17.2077  -23.2898  -15.8225 O   0  0  0  0  0  0  0  0  0  0  0  0
   17.8118  -24.3805  -15.9241 C   0  0  0  0  0  0  0  0  0  0  0  0
   13.5761  -21.5967  -16.4102 C   0  0  0  0  0  0  0  0  0  0  0  0
   12.5703  -21.5533  -15.4654 O   0  0  0  0  0  0  0  0  0  0  0  0
  2  1  1  6
  3  2  1  0
  4  5  2  0
  4  3  1  0
  6  5  1  0
  7 12  2  0
  7  6  1  0
  8  7  1  0
  9  8  2  0
  9 10  1  0
 10 11  2  0
 11 12  1  0
 12  4  1  0
 13  2  1  0
 14 13  2  0
 16 15  1  0
 17 16  2  0
 18 16  1  0
 19 18  1  0
 19 20  1  0
 20 21  1  0
 22 21  1  1
 22 24  1  0
 22 23  1  0
 23 13  1  0
 24 33  1  0
 25 24  2  0
 26 27  1  0
 27 28  2  0
 27 37  1  0
 28 29  1  0
 29 30  2  0
 30 31  1  0
 32 34  1  0
 32 31  1  6
 33 32  1  0
 34 38  1  0
 35 34  2  0
 36 30  1  0
 37 36  2  0
M  END
$$$$
