WRY.pdb
     RDKit          3D

 38 40  0  0  1  0  0  0  0  0999 V2000
   21.7237  -19.8503  -20.8184 N   0  0  0  0  0  0  0  0  0  0  0  0
   21.6726  -19.6466  -19.3916 C   0  0  1  0  0  0  0  0  0  0  0  0
   20.7645  -18.5500  -18.9765 C   0  0  0  0  0  0  0  0  0  0  0  0
   21.1457  -17.2005  -19.4106 C   0  0  0  0  0  0  0  0  0  0  0  0
   21.9380  -16.8531  -20.5177 C   0  0  0  0  0  0  0  0  0  0  0  0
   22.0177  -15.5207  -20.5644 N   0  0  0  0  0  0  0  0  0  0  0  0
   21.3328  -14.9630  -19.5637 C   0  0  0  0  0  0  0  0  0  0  0  0
   21.1054  -13.6682  -19.1679 C   0  0  0  0  0  0  0  0  0  0  0  0
   20.3477  -13.3745  -18.0683 C   0  0  0  0  0  0  0  0  0  0  0  0
   19.8043  -14.3914  -17.3460 C   0  0  0  0  0  0  0  0  0  0  0  0
   20.0221  -15.7063  -17.7290 C   0  0  0  0  0  0  0  0  0  0  0  0
   20.7827  -16.0047  -18.8344 C   0  0  0  0  0  0  0  0  0  0  0  0
   21.2835  -20.9345  -18.7268 C   0  0  0  0  0  0  0  0  0  0  0  0
   20.2529  -21.5707  -19.0825 O   0  0  0  0  0  0  0  0  0  0  0  0
   26.7750  -22.9677  -18.3003 N   0  0  0  0  0  0  0  0  0  0  0  0
   27.0715  -22.3040  -17.0759 C   0  0  0  0  0  0  0  0  0  0  0  0
   28.0544  -21.4486  -17.0206 N   0  0  0  0  0  0  0  0  0  0  0  0
   26.3144  -22.5535  -15.9000 N   0  0  0  0  0  0  0  0  0  0  0  0
   25.1598  -23.4194  -15.9324 C   0  0  0  0  0  0  0  0  0  0  0  0
   23.9887  -22.6396  -16.4637 C   0  0  0  0  0  0  0  0  0  0  0  0
   22.7420  -23.4609  -16.4925 C   0  0  0  0  0  0  0  0  0  0  0  0
   21.5651  -22.6095  -16.9116 C   0  0  2  0  0  0  0  0  0  0  0  0
   22.0426  -21.5030  -17.6726 N   0  0  0  0  0  0  0  0  0  0  0  0
   20.7517  -22.2135  -15.7383 C   0  0  0  0  0  0  0  0  0  0  0  0
   21.0698  -21.2098  -15.0672 O   0  0  0  0  0  0  0  0  0  0  0  0
   28.2210  -20.8924  -16.1659 O   0  0  0  0  0  0  0  0  0  0  0  0
   14.0180  -21.7955  -18.7709 C   0  0  0  0  0  0  0  0  0  0  0  0
   15.0087  -21.6459  -17.7844 C   0  0  0  0  0  0  0  0  0  0  0  0
   16.3287  -21.4502  -18.1516 C   0  0  0  0  0  0  0  0  0  0  0  0
   17.3246  -21.3003  -17.2158 C   0  0  0  0  0  0  0  0  0  0  0  0
   17.0072  -21.3447  -15.8728 C   0  0  0  0  0  0  0  0  0  0  0  0
   18.0601  -21.1953  -14.8456 C   0  0  1  0  0  0  0  0  0  0  0  0
   18.6337  -22.4844  -14.3587 N   0  0  0  0  0  0  0  0  0  0  0  0
   19.6045  -22.9452  -15.3426 C   0  0  0  0  0  0  0  0  0  0  0  0
   17.6463  -23.5159  -13.9972 O   0  0  0  0  0  0  0  0  0  0  0  0
   17.5301  -24.6037  -14.6039 C   0  0  0  0  0  0  0  0  0  0  0  0
   15.6999  -21.5385  -15.4848 C   0  0  0  0  0  0  0  0  0  0  0  0
   14.7168  -21.6865  -16.4428 O   0  0  0  0  0  0  0  0  0  0  0  0
  2  1  1  6
  3  2  1  0
  4  5  2  0
  4  3  1  0
  6  5  1  0
  7 12  2  0
  7  6  1  0
  8  7  1  0
  9  8  2  0
  9 10  1  0
 10 11  2  0
 11 12  1  0
 12  4  1  0
 13  2  1  0
 14 13  2  0
 16 15  1  0
 17 16  2  0
 18 16  1  0
 19 18  1  0
 19 20  1  0
 20 21  1  0
 22 21  1  1
 22 24  1  0
 22 23  1  0
 23 13  1  0
 24 33  1  0
 25 24  2  0
 26 27  1  0
 27 28  2  0
 27 37  1  0
 28 29  1  0
 29 30  2  0
 30 31  1  0
 32 34  1  0
 32 31  1  1
 33 32  1  0
 34 38  1  0
 35 34  2  0
 36 30  1  0
 37 36  2  0
M  END
$$$$
