WRY.pdb
     RDKit          3D

 38 40  0  0  1  0  0  0  0  0999 V2000
   22.3036  -15.7737  -18.7532 N   0  0  0  0  0  0  0  0  0  0  0  0
   22.4080  -15.8345  -17.3161 C   0  0  1  0  0  0  0  0  0  0  0  0
   21.2067  -15.3299  -16.6077 C   0  0  0  0  0  0  0  0  0  0  0  0
   20.9082  -13.9033  -16.7840 C   0  0  0  0  0  0  0  0  0  0  0  0
   21.4888  -13.0189  -17.7086 C   0  0  0  0  0  0  0  0  0  0  0  0
   20.9154  -11.8232  -17.5496 N   0  0  0  0  0  0  0  0  0  0  0  0
   19.9956  -11.8560  -16.5828 C   0  0  0  0  0  0  0  0  0  0  0  0
   19.1496  -10.9220  -16.0382 C   0  0  0  0  0  0  0  0  0  0  0  0
   18.2891  -11.2358  -15.0230 C   0  0  0  0  0  0  0  0  0  0  0  0
   18.2700  -12.5070  -14.5383 C   0  0  0  0  0  0  0  0  0  0  0  0
   19.1168  -13.4653  -15.0747 C   0  0  0  0  0  0  0  0  0  0  0  0
   19.9823  -13.1531  -16.0958 C   0  0  0  0  0  0  0  0  0  0  0  0
   22.7082  -17.2466  -16.9062 C   0  0  0  0  0  0  0  0  0  0  0  0
   22.0690  -18.2204  -17.3926 O   0  0  0  0  0  0  0  0  0  0  0  0
   28.1893  -21.5268  -16.7127 N   0  0  0  0  0  0  0  0  0  0  0  0
   28.7777  -20.2608  -16.9932 C   0  0  0  0  0  0  0  0  0  0  0  0
   29.4849  -20.0975  -18.0767 N   0  0  0  0  0  0  0  0  0  0  0  0
   28.6111  -19.1591  -16.1119 N   0  0  0  0  0  0  0  0  0  0  0  0
   27.6073  -19.1854  -15.0748 C   0  0  0  0  0  0  0  0  0  0  0  0
   26.2530  -19.0405  -15.7126 C   0  0  0  0  0  0  0  0  0  0  0  0
   25.1629  -18.9837  -14.6938 C   0  0  0  0  0  0  0  0  0  0  0  0
   23.8184  -18.8587  -15.3738 C   0  0  2  0  0  0  0  0  0  0  0  0
   23.7151  -17.5634  -15.9595 N   0  0  0  0  0  0  0  0  0  0  0  0
   22.7168  -19.1726  -14.4342 C   0  0  0  0  0  0  0  0  0  0  0  0
   22.5925  -18.5207  -13.3766 O   0  0  0  0  0  0  0  0  0  0  0  0
   29.9219  -19.1853  -18.2877 O   0  0  0  0  0  0  0  0  0  0  0  0
   15.2714  -19.9419  -10.3784 C   0  0  0  0  0  0  0  0  0  0  0  0
   16.4475  -19.7695  -11.1294 C   0  0  0  0  0  0  0  0  0  0  0  0
   16.3762  -19.6096  -12.5023 C   0  0  0  0  0  0  0  0  0  0  0  0
   17.5041  -19.4388  -13.2696 C   0  0  0  0  0  0  0  0  0  0  0  0
   18.7437  -19.4252  -12.6617 C   0  0  0  0  0  0  0  0  0  0  0  0
   19.9733  -19.2524  -13.4644 C   0  0  1  0  0  0  0  0  0  0  0  0
   20.6517  -20.5290  -13.8357 N   0  0  0  0  0  0  0  0  0  0  0  0
   21.7816  -20.2045  -14.6964 C   0  0  0  0  0  0  0  0  0  0  0  0
   19.7737  -21.5659  -14.4046 O   0  0  0  0  0  0  0  0  0  0  0  0
   19.4946  -21.6431  -15.6216 C   0  0  0  0  0  0  0  0  0  0  0  0
   18.8380  -19.5827  -11.2967 C   0  0  0  0  0  0  0  0  0  0  0  0
   17.6913  -19.7526  -10.5468 O   0  0  0  0  0  0  0  0  0  0  0  0
  2  1  1  6
  3  2  1  0
  4  5  2  0
  4  3  1  0
  6  5  1  0
  7 12  2  0
  7  6  1  0
  8  7  1  0
  9  8  2  0
  9 10  1  0
 10 11  2  0
 11 12  1  0
 12  4  1  0
 13  2  1  0
 14 13  2  0
 16 15  1  0
 17 16  2  0
 18 16  1  0
 19 18  1  0
 19 20  1  0
 20 21  1  0
 22 21  1  1
 22 24  1  0
 22 23  1  0
 23 13  1  0
 24 33  1  0
 25 24  2  0
 26 27  1  0
 27 28  2  0
 27 37  1  0
 28 29  1  0
 29 30  2  0
 30 31  1  0
 32 34  1  0
 32 31  1  1
 33 32  1  0
 34 38  1  0
 35 34  2  0
 36 30  1  0
 37 36  2  0
M  END
$$$$
