WRY.pdb
     RDKit          3D

 38 40  0  0  1  0  0  0  0  0999 V2000
   26.3339  -21.7158   -9.8872 N   0  0  0  0  0  0  0  0  0  0  0  0
   25.2045  -21.2316  -10.6423 C   0  0  1  0  0  0  0  0  0  0  0  0
   24.3107  -20.3338   -9.8714 C   0  0  0  0  0  0  0  0  0  0  0  0
   23.4777  -20.9788   -8.8490 C   0  0  0  0  0  0  0  0  0  0  0  0
   23.7282  -21.0544   -7.4687 C   0  0  0  0  0  0  0  0  0  0  0  0
   22.7095  -21.7053   -6.9009 N   0  0  0  0  0  0  0  0  0  0  0  0
   21.8025  -22.0658   -7.8114 C   0  0  0  0  0  0  0  0  0  0  0  0
   20.6081  -22.7404   -7.7537 C   0  0  0  0  0  0  0  0  0  0  0  0
   19.8644  -22.9838   -8.8750 C   0  0  0  0  0  0  0  0  0  0  0  0
   20.3190  -22.5469  -10.0806 C   0  0  0  0  0  0  0  0  0  0  0  0
   21.5232  -21.8637  -10.1604 C   0  0  0  0  0  0  0  0  0  0  0  0
   22.2726  -21.6167   -9.0349 C   0  0  0  0  0  0  0  0  0  0  0  0
   25.7017  -20.5453  -11.8809 C   0  0  0  0  0  0  0  0  0  0  0  0
   26.4865  -19.5590  -11.8137 O   0  0  0  0  0  0  0  0  0  0  0  0
   30.3304  -22.3900  -12.6435 N   0  0  0  0  0  0  0  0  0  0  0  0
   30.4442  -22.4333  -14.0622 C   0  0  0  0  0  0  0  0  0  0  0  0
   31.1754  -23.3526  -14.6287 N   0  0  0  0  0  0  0  0  0  0  0  0
   29.7731  -21.4892  -14.8847 N   0  0  0  0  0  0  0  0  0  0  0  0
   28.4911  -20.9496  -14.4984 C   0  0  0  0  0  0  0  0  0  0  0  0
   27.4171  -21.9166  -14.9147 C   0  0  0  0  0  0  0  0  0  0  0  0
   26.1913  -21.2120  -15.3948 C   0  0  0  0  0  0  0  0  0  0  0  0
   25.7061  -20.2357  -14.3474 C   0  0  2  0  0  0  0  0  0  0  0  0
   25.3215  -20.9609  -13.1822 N   0  0  0  0  0  0  0  0  0  0  0  0
   24.6319  -19.3692  -14.8862 C   0  0  0  0  0  0  0  0  0  0  0  0
   23.5004  -19.8451  -15.1145 O   0  0  0  0  0  0  0  0  0  0  0  0
   31.2531  -23.4036  -15.6578 O   0  0  0  0  0  0  0  0  0  0  0  0
   28.6592  -14.6288  -19.0389 C   0  0  0  0  0  0  0  0  0  0  0  0
   27.5790  -14.8850  -18.1761 C   0  0  0  0  0  0  0  0  0  0  0  0
   27.8129  -15.3044  -16.8780 C   0  0  0  0  0  0  0  0  0  0  0  0
   26.7826  -15.5648  -16.0058 C   0  0  0  0  0  0  0  0  0  0  0  0
   25.4779  -15.4057  -16.4287 C   0  0  0  0  0  0  0  0  0  0  0  0
   24.3510  -15.6876  -15.5140 C   0  0  1  0  0  0  0  0  0  0  0  0
   23.8102  -17.0753  -15.6112 N   0  0  0  0  0  0  0  0  0  0  0  0
   24.8452  -17.9947  -15.1569 C   0  0  0  0  0  0  0  0  0  0  0  0
   23.2500  -17.4419  -16.9233 O   0  0  0  0  0  0  0  0  0  0  0  0
   23.8444  -18.1697  -17.7492 C   0  0  0  0  0  0  0  0  0  0  0  0
   25.2220  -14.9893  -17.7164 C   0  0  0  0  0  0  0  0  0  0  0  0
   26.2732  -14.7338  -18.5743 O   0  0  0  0  0  0  0  0  0  0  0  0
  2  1  1  1
  3  2  1  0
  4  5  2  0
  4  3  1  0
  6  5  1  0
  7 12  2  0
  7  6  1  0
  8  7  1  0
  9  8  2  0
  9 10  1  0
 10 11  2  0
 11 12  1  0
 12  4  1  0
 13  2  1  0
 14 13  2  0
 16 15  1  0
 17 16  2  0
 18 16  1  0
 19 18  1  0
 19 20  1  0
 20 21  1  0
 22 21  1  6
 22 24  1  0
 22 23  1  0
 23 13  1  0
 24 33  1  0
 25 24  2  0
 26 27  1  0
 27 28  2  0
 27 37  1  0
 28 29  1  0
 29 30  2  0
 30 31  1  0
 32 34  1  0
 32 31  1  1
 33 32  1  0
 34 38  1  0
 35 34  2  0
 36 30  1  0
 37 36  2  0
M  END
$$$$
