WRY.pdb
     RDKit          3D

 38 40  0  0  1  0  0  0  0  0999 V2000
   25.7045  -18.5063  -18.8857 N   0  0  0  0  0  0  0  0  0  0  0  0
   26.1260  -18.6245  -17.5115 C   0  0  1  0  0  0  0  0  0  0  0  0
   26.3489  -17.3210  -16.8404 C   0  0  0  0  0  0  0  0  0  0  0  0
   27.5337  -16.5695  -17.2726 C   0  0  0  0  0  0  0  0  0  0  0  0
   27.5748  -15.2580  -17.7749 C   0  0  0  0  0  0  0  0  0  0  0  0
   28.8511  -14.9525  -18.0227 N   0  0  0  0  0  0  0  0  0  0  0  0
   29.6570  -15.9723  -17.7193 C   0  0  0  0  0  0  0  0  0  0  0  0
   31.0137  -16.1703  -17.7896 C   0  0  0  0  0  0  0  0  0  0  0  0
   31.5895  -17.3501  -17.4071 C   0  0  0  0  0  0  0  0  0  0  0  0
   30.7980  -18.3555  -16.9447 C   0  0  0  0  0  0  0  0  0  0  0  0
   29.4252  -18.1756  -16.8659 C   0  0  0  0  0  0  0  0  0  0  0  0
   28.8436  -16.9906  -17.2489 C   0  0  0  0  0  0  0  0  0  0  0  0
   25.1166  -19.4404  -16.7582 C   0  0  0  0  0  0  0  0  0  0  0  0
   23.8816  -19.3413  -16.9998 O   0  0  0  0  0  0  0  0  0  0  0  0
   24.8214  -25.0308  -16.5204 N   0  0  0  0  0  0  0  0  0  0  0  0
   24.2285  -25.7499  -15.4438 C   0  0  0  0  0  0  0  0  0  0  0  0
   24.2812  -27.0528  -15.4243 N   0  0  0  0  0  0  0  0  0  0  0  0
   23.5739  -25.0753  -14.3787 N   0  0  0  0  0  0  0  0  0  0  0  0
   23.3465  -23.6508  -14.4329 C   0  0  0  0  0  0  0  0  0  0  0  0
   24.2517  -22.9811  -13.4360 C   0  0  0  0  0  0  0  0  0  0  0  0
   25.2364  -22.0763  -14.1004 C   0  0  0  0  0  0  0  0  0  0  0  0
   24.5205  -21.1008  -15.0069 C   0  0  2  0  0  0  0  0  0  0  0  0
   25.4887  -20.3580  -15.7433 N   0  0  0  0  0  0  0  0  0  0  0  0
   23.5829  -20.2505  -14.2369 C   0  0  0  0  0  0  0  0  0  0  0  0
   23.9945  -19.5944  -13.2576 O   0  0  0  0  0  0  0  0  0  0  0  0
   23.8132  -27.5876  -14.6743 O   0  0  0  0  0  0  0  0  0  0  0  0
   17.2826  -19.9372  -18.8432 C   0  0  0  0  0  0  0  0  0  0  0  0
   18.1164  -19.5284  -17.7875 C   0  0  0  0  0  0  0  0  0  0  0  0
   19.4851  -19.4474  -17.9765 C   0  0  0  0  0  0  0  0  0  0  0  0
   20.3319  -19.0522  -16.9681 C   0  0  0  0  0  0  0  0  0  0  0  0
   19.8104  -18.7257  -15.7320 C   0  0  0  0  0  0  0  0  0  0  0  0
   20.6995  -18.3063  -14.6276 C   0  0  1  0  0  0  0  0  0  0  0  0
   21.2182  -19.4298  -13.7930 N   0  0  0  0  0  0  0  0  0  0  0  0
   22.2109  -20.1522  -14.5775 C   0  0  0  0  0  0  0  0  0  0  0  0
   20.1893  -20.3109  -13.2143 O   0  0  0  0  0  0  0  0  0  0  0  0
   20.0761  -21.5229  -13.5027 C   0  0  0  0  0  0  0  0  0  0  0  0
   18.4513  -18.7992  -15.5217 C   0  0  0  0  0  0  0  0  0  0  0  0
   17.6206  -19.1987  -16.5497 O   0  0  0  0  0  0  0  0  0  0  0  0
  2  1  1  6
  3  2  1  0
  4  5  2  0
  4  3  1  0
  6  5  1  0
  7 12  2  0
  7  6  1  0
  8  7  1  0
  9  8  2  0
  9 10  1  0
 10 11  2  0
 11 12  1  0
 12  4  1  0
 13  2  1  0
 14 13  2  0
 16 15  1  0
 17 16  2  0
 18 16  1  0
 19 18  1  0
 19 20  1  0
 20 21  1  0
 22 21  1  1
 22 24  1  0
 22 23  1  0
 23 13  1  0
 24 33  1  0
 25 24  2  0
 26 27  1  0
 27 28  2  0
 27 37  1  0
 28 29  1  0
 29 30  2  0
 30 31  1  0
 32 34  1  0
 32 31  1  1
 33 32  1  0
 34 38  1  0
 35 34  2  0
 36 30  1  0
 37 36  2  0
M  END
$$$$
