WRY.pdb
     RDKit          3D

 38 40  0  0  1  0  0  0  0  0999 V2000
   26.4193  -22.6470  -13.0108 N   0  0  0  0  0  0  0  0  0  0  0  0
   25.8223  -21.4379  -13.5222 C   0  0  1  0  0  0  0  0  0  0  0  0
   25.9567  -20.2740  -12.6129 C   0  0  0  0  0  0  0  0  0  0  0  0
   25.3526  -20.4236  -11.2833 C   0  0  0  0  0  0  0  0  0  0  0  0
   25.9386  -20.1238  -10.0421 C   0  0  0  0  0  0  0  0  0  0  0  0
   25.0390  -20.3827   -9.0895 N   0  0  0  0  0  0  0  0  0  0  0  0
   23.8983  -20.8339   -9.6155 C   0  0  0  0  0  0  0  0  0  0  0  0
   22.6973  -21.2374   -9.0868 C   0  0  0  0  0  0  0  0  0  0  0  0
   21.6714  -21.6712   -9.8800 C   0  0  0  0  0  0  0  0  0  0  0  0
   21.8442  -21.7047  -11.2291 C   0  0  0  0  0  0  0  0  0  0  0  0
   23.0498  -21.3015  -11.7830 C   0  0  0  0  0  0  0  0  0  0  0  0
   24.0827  -20.8642  -10.9884 C   0  0  0  0  0  0  0  0  0  0  0  0
   26.4154  -21.1293  -14.8658 C   0  0  0  0  0  0  0  0  0  0  0  0
   27.6541  -20.9312  -15.0058 O   0  0  0  0  0  0  0  0  0  0  0  0
   30.7743  -24.7178  -15.6821 N   0  0  0  0  0  0  0  0  0  0  0  0
   30.0130  -25.1095  -16.8199 C   0  0  0  0  0  0  0  0  0  0  0  0
   30.4453  -26.0655  -17.5945 N   0  0  0  0  0  0  0  0  0  0  0  0
   28.7804  -24.4775  -17.1353 N   0  0  0  0  0  0  0  0  0  0  0  0
   28.1553  -23.5677  -16.2051 C   0  0  0  0  0  0  0  0  0  0  0  0
   26.8630  -23.0824  -16.8019 C   0  0  0  0  0  0  0  0  0  0  0  0
   27.0764  -21.9272  -17.7236 C   0  0  0  0  0  0  0  0  0  0  0  0
   26.2005  -20.7645  -17.3153 C   0  0  2  0  0  0  0  0  0  0  0  0
   25.6265  -21.0432  -16.0409 N   0  0  0  0  0  0  0  0  0  0  0  0
   25.1972  -20.4620  -18.3626 C   0  0  0  0  0  0  0  0  0  0  0  0
   24.1931  -21.1920  -18.4957 O   0  0  0  0  0  0  0  0  0  0  0  0
   29.8743  -26.3986  -18.3886 O   0  0  0  0  0  0  0  0  0  0  0  0
   19.9897  -19.8362  -14.9187 C   0  0  0  0  0  0  0  0  0  0  0  0
   21.0558  -19.3118  -15.6706 C   0  0  0  0  0  0  0  0  0  0  0  0
   21.8553  -18.3151  -15.1385 C   0  0  0  0  0  0  0  0  0  0  0  0
   22.9061  -17.7779  -15.8435 C   0  0  0  0  0  0  0  0  0  0  0  0
   23.1773  -18.2398  -17.1161 C   0  0  0  0  0  0  0  0  0  0  0  0
   24.2957  -17.6731  -17.8996 C   0  0  2  0  0  0  0  0  0  0  0  0
   24.4210  -18.2225  -19.2817 N   0  0  0  0  0  0  0  0  0  0  0  0
   25.3377  -19.3540  -19.2349 C   0  0  0  0  0  0  0  0  0  0  0  0
   24.7729  -17.2390  -20.3203 O   0  0  0  0  0  0  0  0  0  0  0  0
   25.8226  -17.2962  -20.9985 C   0  0  0  0  0  0  0  0  0  0  0  0
   22.3945  -19.2310  -17.6653 C   0  0  0  0  0  0  0  0  0  0  0  0
   21.3445  -19.7554  -16.9381 O   0  0  0  0  0  0  0  0  0  0  0  0
  2  1  1  1
  3  2  1  0
  4  5  2  0
  4  3  1  0
  6  5  1  0
  7 12  2  0
  7  6  1  0
  8  7  1  0
  9  8  2  0
  9 10  1  0
 10 11  2  0
 11 12  1  0
 12  4  1  0
 13  2  1  0
 14 13  2  0
 16 15  1  0
 17 16  2  0
 18 16  1  0
 19 18  1  0
 19 20  1  0
 20 21  1  0
 22 21  1  6
 22 24  1  0
 22 23  1  0
 23 13  1  0
 24 33  1  0
 25 24  2  0
 26 27  1  0
 27 28  2  0
 27 37  1  0
 28 29  1  0
 29 30  2  0
 30 31  1  0
 32 34  1  0
 32 31  1  1
 33 32  1  0
 34 38  1  0
 35 34  2  0
 36 30  1  0
 37 36  2  0
M  END
$$$$
