WRY.pdb
     RDKit          3D

 38 40  0  0  1  0  0  0  0  0999 V2000
   23.1638  -27.1329  -15.6410 N   0  0  0  0  0  0  0  0  0  0  0  0
   23.0535  -26.1681  -16.7072 C   0  0  1  0  0  0  0  0  0  0  0  0
   21.6923  -25.5996  -16.8605 C   0  0  0  0  0  0  0  0  0  0  0  0
   20.7149  -26.4491  -17.5520 C   0  0  0  0  0  0  0  0  0  0  0  0
   20.3251  -27.7542  -17.2074 C   0  0  0  0  0  0  0  0  0  0  0  0
   19.3978  -28.1510  -18.0829 N   0  0  0  0  0  0  0  0  0  0  0  0
   19.1480  -27.1979  -18.9834 C   0  0  0  0  0  0  0  0  0  0  0  0
   18.3096  -27.1044  -20.0665 C   0  0  0  0  0  0  0  0  0  0  0  0
   18.2588  -25.9793  -20.8420 C   0  0  0  0  0  0  0  0  0  0  0  0
   19.0600  -24.9239  -20.5333 C   0  0  0  0  0  0  0  0  0  0  0  0
   19.9141  -24.9983  -19.4433 C   0  0  0  0  0  0  0  0  0  0  0  0
   19.9669  -26.1276  -18.6614 C   0  0  0  0  0  0  0  0  0  0  0  0
   24.0596  -25.0767  -16.4860 C   0  0  0  0  0  0  0  0  0  0  0  0
   24.4292  -24.7516  -15.3237 O   0  0  0  0  0  0  0  0  0  0  0  0
   31.9612  -24.3185  -18.0734 N   0  0  0  0  0  0  0  0  0  0  0  0
   31.1009  -24.6930  -17.0023 C   0  0  0  0  0  0  0  0  0  0  0  0
   31.4991  -25.5710  -16.1241 N   0  0  0  0  0  0  0  0  0  0  0  0
   29.8050  -24.1273  -16.8655 N   0  0  0  0  0  0  0  0  0  0  0  0
   29.3464  -23.0994  -17.7694 C   0  0  0  0  0  0  0  0  0  0  0  0
   27.9548  -22.6930  -17.3692 C   0  0  0  0  0  0  0  0  0  0  0  0
   26.9645  -23.7818  -17.6208 C   0  0  0  0  0  0  0  0  0  0  0  0
   25.5635  -23.2896  -17.3368 C   0  0  2  0  0  0  0  0  0  0  0  0
   24.6448  -24.3565  -17.5582 N   0  0  0  0  0  0  0  0  0  0  0  0
   25.2582  -22.0729  -18.1251 C   0  0  0  0  0  0  0  0  0  0  0  0
   25.1539  -22.1428  -19.3674 O   0  0  0  0  0  0  0  0  0  0  0  0
   30.8644  -25.8911  -15.3743 O   0  0  0  0  0  0  0  0  0  0  0  0
   18.6587  -21.1415  -18.0043 C   0  0  0  0  0  0  0  0  0  0  0  0
   19.9352  -20.5663  -17.8758 C   0  0  0  0  0  0  0  0  0  0  0  0
   20.3969  -19.6820  -18.8352 C   0  0  0  0  0  0  0  0  0  0  0  0
   21.6391  -19.1000  -18.7437 C   0  0  0  0  0  0  0  0  0  0  0  0
   22.4527  -19.4006  -17.6694 C   0  0  0  0  0  0  0  0  0  0  0  0
   23.7967  -18.7958  -17.5513 C   0  0  2  0  0  0  0  0  0  0  0  0
   24.8797  -19.5615  -18.2357 N   0  0  0  0  0  0  0  0  0  0  0  0
   25.0765  -20.8094  -17.5098 C   0  0  0  0  0  0  0  0  0  0  0  0
   26.1330  -18.8192  -18.4553 O   0  0  0  0  0  0  0  0  0  0  0  0
   26.2058  -17.7734  -19.1378 C   0  0  0  0  0  0  0  0  0  0  0  0
   22.0134  -20.2780  -16.7029 C   0  0  0  0  0  0  0  0  0  0  0  0
   20.7619  -20.8500  -16.8162 O   0  0  0  0  0  0  0  0  0  0  0  0
  2  1  1  1
  3  2  1  0
  4  5  2  0
  4  3  1  0
  6  5  1  0
  7 12  2  0
  7  6  1  0
  8  7  1  0
  9  8  2  0
  9 10  1  0
 10 11  2  0
 11 12  1  0
 12  4  1  0
 13  2  1  0
 14 13  2  0
 16 15  1  0
 17 16  2  0
 18 16  1  0
 19 18  1  0
 19 20  1  0
 20 21  1  0
 22 21  1  6
 22 24  1  0
 22 23  1  0
 23 13  1  0
 24 33  1  0
 25 24  2  0
 26 27  1  0
 27 28  2  0
 27 37  1  0
 28 29  1  0
 29 30  2  0
 30 31  1  0
 32 34  1  0
 32 31  1  6
 33 32  1  0
 34 38  1  0
 35 34  2  0
 36 30  1  0
 37 36  2  0
M  END
$$$$
