WRY.pdb
     RDKit          3D

 38 40  0  0  1  0  0  0  0  0999 V2000
   27.5430  -17.0239  -18.9623 N   0  0  0  0  0  0  0  0  0  0  0  0
   28.0487  -17.7300  -17.8109 C   0  0  1  0  0  0  0  0  0  0  0  0
   27.5361  -17.2118  -16.5193 C   0  0  0  0  0  0  0  0  0  0  0  0
   27.8575  -15.8121  -16.2149 C   0  0  0  0  0  0  0  0  0  0  0  0
   27.0474  -14.8768  -15.5493 C   0  0  0  0  0  0  0  0  0  0  0  0
   27.7291  -13.7317  -15.4608 N   0  0  0  0  0  0  0  0  0  0  0  0
   28.9344  -13.8454  -16.0228 C   0  0  0  0  0  0  0  0  0  0  0  0
   29.9905  -12.9859  -16.1985 C   0  0  0  0  0  0  0  0  0  0  0  0
   31.1372  -13.3753  -16.8334 C   0  0  0  0  0  0  0  0  0  0  0  0
   31.2355  -14.6480  -17.3044 C   0  0  0  0  0  0  0  0  0  0  0  0
   30.1799  -15.5317  -17.1373 C   0  0  0  0  0  0  0  0  0  0  0  0
   29.0262  -15.1434  -16.4988 C   0  0  0  0  0  0  0  0  0  0  0  0
   27.7353  -19.1904  -17.9555 C   0  0  0  0  0  0  0  0  0  0  0  0
   26.6721  -19.5808  -18.5127 O   0  0  0  0  0  0  0  0  0  0  0  0
   29.6322  -26.8287  -15.8379 N   0  0  0  0  0  0  0  0  0  0  0  0
   28.6966  -26.6425  -16.8951 C   0  0  0  0  0  0  0  0  0  0  0  0
   27.5119  -27.1823  -16.8184 N   0  0  0  0  0  0  0  0  0  0  0  0
   29.0258  -25.8744  -18.0440 N   0  0  0  0  0  0  0  0  0  0  0  0
   29.6479  -24.5782  -17.9149 C   0  0  0  0  0  0  0  0  0  0  0  0
   28.9738  -23.8304  -16.7977 C   0  0  0  0  0  0  0  0  0  0  0  0
   29.3295  -22.3802  -16.8064 C   0  0  0  0  0  0  0  0  0  0  0  0
   28.2111  -21.5717  -17.4237 C   0  0  2  0  0  0  0  0  0  0  0  0
   28.6059  -20.2033  -17.4792 N   0  0  0  0  0  0  0  0  0  0  0  0
   26.9363  -21.7907  -16.7012 C   0  0  0  0  0  0  0  0  0  0  0  0
   26.8082  -21.3928  -15.5247 O   0  0  0  0  0  0  0  0  0  0  0  0
   26.8236  -27.0516  -17.5778 O   0  0  0  0  0  0  0  0  0  0  0  0
   18.7681  -21.7053  -14.0648 C   0  0  0  0  0  0  0  0  0  0  0  0
   20.0782  -21.6273  -14.5693 C   0  0  0  0  0  0  0  0  0  0  0  0
   20.2937  -21.5878  -15.9359 C   0  0  0  0  0  0  0  0  0  0  0  0
   21.5599  -21.5118  -16.4660 C   0  0  0  0  0  0  0  0  0  0  0  0
   22.6498  -21.4732  -15.6192 C   0  0  0  0  0  0  0  0  0  0  0  0
   24.0227  -21.4006  -16.1631 C   0  0  1  0  0  0  0  0  0  0  0  0
   24.5649  -22.7052  -16.6447 N   0  0  0  0  0  0  0  0  0  0  0  0
   25.8364  -22.4470  -17.3077 C   0  0  0  0  0  0  0  0  0  0  0  0
   23.6404  -23.5068  -17.4647 O   0  0  0  0  0  0  0  0  0  0  0  0
   23.5453  -23.3956  -18.7071 C   0  0  0  0  0  0  0  0  0  0  0  0
   22.4585  -21.5115  -14.2558 C   0  0  0  0  0  0  0  0  0  0  0  0
   21.1775  -21.5877  -13.7466 O   0  0  0  0  0  0  0  0  0  0  0  0
  2  1  1  6
  3  2  1  0
  4  5  2  0
  4  3  1  0
  6  5  1  0
  7 12  2  0
  7  6  1  0
  8  7  1  0
  9  8  2  0
  9 10  1  0
 10 11  2  0
 11 12  1  0
 12  4  1  0
 13  2  1  0
 14 13  2  0
 16 15  1  0
 17 16  2  0
 18 16  1  0
 19 18  1  0
 19 20  1  0
 20 21  1  0
 22 21  1  1
 22 24  1  0
 22 23  1  0
 23 13  1  0
 24 33  1  0
 25 24  2  0
 26 27  1  0
 27 28  2  0
 27 37  1  0
 28 29  1  0
 29 30  2  0
 30 31  1  0
 32 34  1  0
 32 31  1  1
 33 32  1  0
 34 38  1  0
 35 34  2  0
 36 30  1  0
 37 36  2  0
M  END
$$$$
