WRY.pdb
     RDKit          3D

 38 40  0  0  1  0  0  0  0  0999 V2000
   28.1603  -20.2668   -9.8714 N   0  0  0  0  0  0  0  0  0  0  0  0
   26.9330  -20.9351   -9.5149 C   0  0  1  0  0  0  0  0  0  0  0  0
   26.3484  -20.4683   -8.2343 C   0  0  0  0  0  0  0  0  0  0  0  0
   27.2720  -19.7935   -7.3141 C   0  0  0  0  0  0  0  0  0  0  0  0
   27.8956  -18.5474   -7.4940 C   0  0  0  0  0  0  0  0  0  0  0  0
   28.6340  -18.2969   -6.4096 N   0  0  0  0  0  0  0  0  0  0  0  0
   28.5418  -19.2921   -5.5250 C   0  0  0  0  0  0  0  0  0  0  0  0
   29.0907  -19.5236   -4.2881 C   0  0  0  0  0  0  0  0  0  0  0  0
   28.8221  -20.6644   -3.5837 C   0  0  0  0  0  0  0  0  0  0  0  0
   27.9892  -21.5960   -4.1220 C   0  0  0  0  0  0  0  0  0  0  0  0
   27.4246  -21.3813   -5.3703 C   0  0  0  0  0  0  0  0  0  0  0  0
   27.6920  -20.2352   -6.0803 C   0  0  0  0  0  0  0  0  0  0  0  0
   25.9462  -20.7767  -10.6344 C   0  0  0  0  0  0  0  0  0  0  0  0
   25.6759  -19.6410  -11.1143 O   0  0  0  0  0  0  0  0  0  0  0  0
   27.0511  -19.0611  -15.7076 N   0  0  0  0  0  0  0  0  0  0  0  0
   27.6543  -20.3386  -15.8861 C   0  0  0  0  0  0  0  0  0  0  0  0
   28.9494  -20.4359  -16.0050 N   0  0  0  0  0  0  0  0  0  0  0  0
   26.8712  -21.5228  -15.9382 N   0  0  0  0  0  0  0  0  0  0  0  0
   25.6735  -21.6542  -15.1431 C   0  0  0  0  0  0  0  0  0  0  0  0
   25.8908  -22.7365  -14.1217 C   0  0  0  0  0  0  0  0  0  0  0  0
   24.6831  -22.9455  -13.2689 C   0  0  0  0  0  0  0  0  0  0  0  0
   24.4604  -21.7462  -12.3757 C   0  0  2  0  0  0  0  0  0  0  0  0
   25.2687  -21.8816  -11.2096 N   0  0  0  0  0  0  0  0  0  0  0  0
   23.0201  -21.5650  -12.0793 C   0  0  0  0  0  0  0  0  0  0  0  0
   22.4208  -22.3921  -11.3612 O   0  0  0  0  0  0  0  0  0  0  0  0
   29.3982  -21.3570  -16.1379 O   0  0  0  0  0  0  0  0  0  0  0  0
   15.0716  -17.4473  -12.3039 C   0  0  0  0  0  0  0  0  0  0  0  0
   16.4311  -17.7924  -12.4021 C   0  0  0  0  0  0  0  0  0  0  0  0
   17.2339  -17.7755  -11.2747 C   0  0  0  0  0  0  0  0  0  0  0  0
   18.5670  -18.1064  -11.3317 C   0  0  0  0  0  0  0  0  0  0  0  0
   19.1266  -18.4663  -12.5415 C   0  0  0  0  0  0  0  0  0  0  0  0
   20.5598  -18.8180  -12.6324 C   0  0  1  0  0  0  0  0  0  0  0  0
   20.8601  -20.2554  -12.3655 N   0  0  0  0  0  0  0  0  0  0  0  0
   22.2840  -20.4670  -12.5900 C   0  0  0  0  0  0  0  0  0  0  0  0
   20.0136  -21.2199  -13.0887 O   0  0  0  0  0  0  0  0  0  0  0  0
   20.1686  -21.5051  -14.2968 C   0  0  0  0  0  0  0  0  0  0  0  0
   18.3462  -18.4899  -13.6762 C   0  0  0  0  0  0  0  0  0  0  0  0
   17.0096  -18.1536  -13.5944 O   0  0  0  0  0  0  0  0  0  0  0  0
  2  1  1  6
  3  2  1  0
  4  5  2  0
  4  3  1  0
  6  5  1  0
  7 12  2  0
  7  6  1  0
  8  7  1  0
  9  8  2  0
  9 10  1  0
 10 11  2  0
 11 12  1  0
 12  4  1  0
 13  2  1  0
 14 13  2  0
 16 15  1  0
 17 16  2  0
 18 16  1  0
 19 18  1  0
 19 20  1  0
 20 21  1  0
 22 21  1  6
 22 24  1  0
 22 23  1  0
 23 13  1  0
 24 33  1  0
 25 24  2  0
 26 27  1  0
 27 28  2  0
 27 37  1  0
 28 29  1  0
 29 30  2  0
 30 31  1  0
 32 34  1  0
 32 31  1  1
 33 32  1  0
 34 38  1  0
 35 34  2  0
 36 30  1  0
 37 36  2  0
M  END
$$$$
