WRY.pdb
     RDKit          3D

 38 40  0  0  1  0  0  0  0  0999 V2000
   27.3158  -21.5941  -15.5139 N   0  0  0  0  0  0  0  0  0  0  0  0
   26.5647  -21.5790  -14.2828 C   0  0  1  0  0  0  0  0  0  0  0  0
   26.6909  -20.3127  -13.5212 C   0  0  0  0  0  0  0  0  0  0  0  0
   28.0518  -19.9377  -13.1180 C   0  0  0  0  0  0  0  0  0  0  0  0
   28.8542  -18.9232  -13.6665 C   0  0  0  0  0  0  0  0  0  0  0  0
   30.0075  -18.9020  -12.9932 N   0  0  0  0  0  0  0  0  0  0  0  0
   30.0230  -19.8335  -12.0373 C   0  0  0  0  0  0  0  0  0  0  0  0
   30.9450  -20.2203  -11.0964 C   0  0  0  0  0  0  0  0  0  0  0  0
   30.6943  -21.2392  -10.2198 C   0  0  0  0  0  0  0  0  0  0  0  0
   29.5001  -21.8883  -10.2807 C   0  0  0  0  0  0  0  0  0  0  0  0
   28.5553  -21.5130  -11.2239 C   0  0  0  0  0  0  0  0  0  0  0  0
   28.8040  -20.4886  -12.1060 C   0  0  0  0  0  0  0  0  0  0  0  0
   25.1242  -21.8722  -14.5846 C   0  0  0  0  0  0  0  0  0  0  0  0
   24.4672  -21.1640  -15.3971 O   0  0  0  0  0  0  0  0  0  0  0  0
   19.2545  -28.4065  -12.5524 N   0  0  0  0  0  0  0  0  0  0  0  0
   18.5853  -27.3254  -13.1935 C   0  0  0  0  0  0  0  0  0  0  0  0
   17.3075  -27.4062  -13.4415 N   0  0  0  0  0  0  0  0  0  0  0  0
   19.2833  -26.1478  -13.5735 N   0  0  0  0  0  0  0  0  0  0  0  0
   20.6839  -25.9848  -13.2644 C   0  0  0  0  0  0  0  0  0  0  0  0
   21.1315  -24.6365  -13.7581 C   0  0  0  0  0  0  0  0  0  0  0  0
   22.6101  -24.4648  -13.6397 C   0  0  0  0  0  0  0  0  0  0  0  0
   23.0091  -23.0686  -14.0604 C   0  0  2  0  0  0  0  0  0  0  0  0
   24.4271  -22.9490  -13.9801 N   0  0  0  0  0  0  0  0  0  0  0  0
   22.2836  -22.0478  -13.2687 C   0  0  0  0  0  0  0  0  0  0  0  0
   22.6270  -21.8089  -12.0923 O   0  0  0  0  0  0  0  0  0  0  0  0
   16.8205  -26.6485  -13.9480 O   0  0  0  0  0  0  0  0  0  0  0  0
   22.3664  -16.3744  -17.7517 C   0  0  0  0  0  0  0  0  0  0  0  0
   22.0837  -17.0424  -16.5472 C   0  0  0  0  0  0  0  0  0  0  0  0
   22.9592  -17.9988  -16.0628 C   0  0  0  0  0  0  0  0  0  0  0  0
   22.7165  -18.6726  -14.8894 C   0  0  0  0  0  0  0  0  0  0  0  0
   21.5717  -18.3933  -14.1697 C   0  0  0  0  0  0  0  0  0  0  0  0
   21.2820  -19.1098  -12.9093 C   0  0  1  0  0  0  0  0  0  0  0  0
   20.4270  -20.3224  -13.0720 N   0  0  0  0  0  0  0  0  0  0  0  0
   21.1944  -21.3188  -13.8075 C   0  0  0  0  0  0  0  0  0  0  0  0
   19.0943  -20.0797  -13.6505 O   0  0  0  0  0  0  0  0  0  0  0  0
   18.7409  -20.5039  -14.7731 C   0  0  0  0  0  0  0  0  0  0  0  0
   20.6866  -17.4453  -14.6332 C   0  0  0  0  0  0  0  0  0  0  0  0
   20.9517  -16.7813  -15.8144 O   0  0  0  0  0  0  0  0  0  0  0  0
  2  1  1  6
  3  2  1  0
  4  5  2  0
  4  3  1  0
  6  5  1  0
  7 12  2  0
  7  6  1  0
  8  7  1  0
  9  8  2  0
  9 10  1  0
 10 11  2  0
 11 12  1  0
 12  4  1  0
 13  2  1  0
 14 13  2  0
 16 15  1  0
 17 16  2  0
 18 16  1  0
 19 18  1  0
 19 20  1  0
 20 21  1  0
 22 21  1  1
 22 24  1  0
 22 23  1  0
 23 13  1  0
 24 33  1  0
 25 24  2  0
 26 27  1  0
 27 28  2  0
 27 37  1  0
 28 29  1  0
 29 30  2  0
 30 31  1  0
 32 34  1  0
 32 31  1  1
 33 32  1  0
 34 38  1  0
 35 34  2  0
 36 30  1  0
 37 36  2  0
M  END
$$$$
