APY.pdb
     RDKit          3D

 25 26  0  0  1  0  0  0  0  0999 V2000
    9.6675  -18.8710   19.2240 C   0  0  0  0  0  0  0  0  0  0  0  0
   10.0575  -17.4134   19.0808 C   0  0  2  0  0  0  0  0  0  0  0  0
   11.3995  -17.3650   18.6004 N   0  0  0  0  0  0  0  0  0  0  0  0
    9.7603  -16.6226   20.2722 C   0  0  0  0  0  0  0  0  0  0  0  0
   10.5961  -16.5738   21.2331 O   0  0  0  0  0  0  0  0  0  0  0  0
    8.5504  -15.8558   20.4699 N   0  0  0  0  0  0  0  0  0  0  0  0
    7.6506  -15.6097   19.3927 C   0  0  0  0  0  0  0  0  0  0  0  0
    6.4542  -14.9469   20.0036 C   0  0  0  0  0  0  0  0  0  0  0  0
    6.6549  -14.9358   21.4771 C   0  0  0  0  0  0  0  0  0  0  0  0
    8.1010  -15.2476   21.6635 C   0  0  1  0  0  0  0  0  0  0  0  0
    8.2568  -16.0790   22.8999 C   0  0  0  0  0  0  0  0  0  0  0  0
    8.2596  -17.3250   22.8507 O   0  0  0  0  0  0  0  0  0  0  0  0
    5.1569  -11.1986   27.3077 O   0  0  0  0  0  0  0  0  0  0  0  0
    6.1172  -12.1756   27.1157 C   0  0  0  0  0  0  0  0  0  0  0  0
    5.9165  -13.1372   26.1693 C   0  0  0  0  0  0  0  0  0  0  0  0
    6.8663  -14.1331   25.9545 C   0  0  0  0  0  0  0  0  0  0  0  0
    8.0250  -14.1695   26.6890 C   0  0  0  0  0  0  0  0  0  0  0  0
    9.0258  -15.2188   26.5036 C   0  0  0  0  0  0  0  0  0  0  0  0
    8.6162  -16.1625   25.4157 C   0  0  2  0  0  0  0  0  0  0  0  0
    8.4064  -15.4402   24.1591 N   0  0  0  0  0  0  0  0  0  0  0  0
    7.4261  -16.9166   25.8072 C   0  0  0  0  0  0  0  0  0  0  0  0
    6.2013  -16.7622   25.2179 O   0  0  0  0  0  0  0  0  0  0  0  0
    8.2072  -13.1941   27.6356 C   0  0  0  0  0  0  0  0  0  0  0  0
    7.2737  -12.1922   27.8660 C   0  0  0  0  0  0  0  0  0  0  0  0
    7.4931  -17.7763   26.7526 O   0  0  0  0  0  0  0  0  0  0  0  0
  2  1  1  1
  3  2  1  0
  4  6  1  0
  4  2  1  0
  5  4  2  0
  6 10  1  0
  7  6  1  0
  7  8  1  0
  8  9  1  0
  9 10  1  0
 10 11  1  1
 11 12  2  0
 13 14  1  0
 14 15  2  0
 15 16  1  0
 17 18  1  0
 17 16  2  0
 19 18  1  1
 19 21  1  0
 20 19  1  0
 20 11  1  0
 21 22  1  0
 23 17  1  0
 24 23  2  0
 24 14  1  0
 25 21  2  0
M  END
$$$$
