APY.pdb
     RDKit          3D

 25 26  0  0  1  0  0  0  0  0999 V2000
    4.4978  -17.1383   21.5747 C   0  0  0  0  0  0  0  0  0  0  0  0
    5.4862  -17.2088   20.4278 C   0  0  2  0  0  0  0  0  0  0  0  0
    5.5153  -18.5549   19.9576 N   0  0  0  0  0  0  0  0  0  0  0  0
    6.7747  -16.5988   20.7455 C   0  0  0  0  0  0  0  0  0  0  0  0
    7.6297  -17.2359   21.4438 O   0  0  0  0  0  0  0  0  0  0  0  0
    7.1873  -15.2795   20.3214 N   0  0  0  0  0  0  0  0  0  0  0  0
    6.4801  -14.5794   19.3015 C   0  0  0  0  0  0  0  0  0  0  0  0
    7.0804  -13.2077   19.2564 C   0  0  0  0  0  0  0  0  0  0  0  0
    8.0671  -13.1167   20.3655 C   0  0  0  0  0  0  0  0  0  0  0  0
    8.2883  -14.5285   20.7908 C   0  0  1  0  0  0  0  0  0  0  0  0
    8.4919  -14.5559   22.2747 C   0  0  0  0  0  0  0  0  0  0  0  0
    7.7135  -13.9659   23.0498 O   0  0  0  0  0  0  0  0  0  0  0  0
   10.5490  -15.0893   30.5340 O   0  0  0  0  0  0  0  0  0  0  0  0
   10.1618  -15.2082   29.2114 C   0  0  0  0  0  0  0  0  0  0  0  0
    9.8353  -14.0884   28.5042 C   0  0  0  0  0  0  0  0  0  0  0  0
    9.4419  -14.1783   27.1711 C   0  0  0  0  0  0  0  0  0  0  0  0
    9.3743  -15.3946   26.5388 C   0  0  0  0  0  0  0  0  0  0  0  0
    8.9383  -15.5207   25.1492 C   0  0  0  0  0  0  0  0  0  0  0  0
   10.0380  -15.1406   24.2068 C   0  0  2  0  0  0  0  0  0  0  0  0
    9.5932  -15.2691   22.8174 N   0  0  0  0  0  0  0  0  0  0  0  0
   11.2366  -15.9381   24.4632 C   0  0  0  0  0  0  0  0  0  0  0  0
   12.2347  -15.5561   25.3170 O   0  0  0  0  0  0  0  0  0  0  0  0
    9.7062  -16.5079   27.2674 C   0  0  0  0  0  0  0  0  0  0  0  0
   10.1010  -16.4409   28.5970 C   0  0  0  0  0  0  0  0  0  0  0  0
   11.3988  -17.0613   23.8720 O   0  0  0  0  0  0  0  0  0  0  0  0
  2  1  1  1
  3  2  1  0
  4  6  1  0
  4  2  1  0
  5  4  2  0
  6 10  1  0
  7  6  1  0
  7  8  1  0
  8  9  1  0
  9 10  1  0
 10 11  1  1
 11 12  2  0
 13 14  1  0
 14 15  2  0
 15 16  1  0
 17 18  1  0
 17 16  2  0
 19 18  1  1
 19 21  1  0
 20 19  1  0
 20 11  1  0
 21 22  1  0
 23 17  1  0
 24 23  2  0
 24 14  1  0
 25 21  2  0
M  END
$$$$
