APY.pdb
     RDKit          3D

 25 26  0  0  1  0  0  0  0  0999 V2000
    8.9929  -18.6669   18.9739 C   0  0  0  0  0  0  0  0  0  0  0  0
    9.3874  -17.2640   18.5575 C   0  0  2  0  0  0  0  0  0  0  0  0
   10.6014  -17.3535   17.8144 N   0  0  0  0  0  0  0  0  0  0  0  0
    9.3669  -16.3120   19.6649 C   0  0  0  0  0  0  0  0  0  0  0  0
   10.2996  -16.3203   20.5335 O   0  0  0  0  0  0  0  0  0  0  0  0
    8.3393  -15.3168   19.8754 N   0  0  0  0  0  0  0  0  0  0  0  0
    7.3648  -15.0414   18.8729 C   0  0  0  0  0  0  0  0  0  0  0  0
    6.3852  -14.0997   19.5034 C   0  0  0  0  0  0  0  0  0  0  0  0
    6.7703  -13.9470   20.9318 C   0  0  0  0  0  0  0  0  0  0  0  0
    8.1545  -14.4956   21.0104 C   0  0  1  0  0  0  0  0  0  0  0  0
    8.3229  -15.1850   22.3297 C   0  0  0  0  0  0  0  0  0  0  0  0
    8.0596  -16.3957   22.4700 O   0  0  0  0  0  0  0  0  0  0  0  0
   10.5638  -16.2556   30.8027 O   0  0  0  0  0  0  0  0  0  0  0  0
   10.3179  -15.7079   29.5565 C   0  0  0  0  0  0  0  0  0  0  0  0
   10.9234  -16.2421   28.4571 C   0  0  0  0  0  0  0  0  0  0  0  0
   10.6943  -15.7109   27.1901 C   0  0  0  0  0  0  0  0  0  0  0  0
    9.8545  -14.6390   27.0187 C   0  0  0  0  0  0  0  0  0  0  0  0
    9.6176  -14.0444   25.7045 C   0  0  0  0  0  0  0  0  0  0  0  0
    8.9417  -15.0187   24.7903 C   0  0  2  0  0  0  0  0  0  0  0  0
    8.7938  -14.4494   23.4491 N   0  0  0  0  0  0  0  0  0  0  0  0
    7.6535  -15.4362   25.3419 C   0  0  0  0  0  0  0  0  0  0  0  0
    6.4981  -14.7174   25.2009 O   0  0  0  0  0  0  0  0  0  0  0  0
    9.2562  -14.1165   28.1366 C   0  0  0  0  0  0  0  0  0  0  0  0
    9.4705  -14.6305   29.4087 C   0  0  0  0  0  0  0  0  0  0  0  0
    7.5617  -16.5280   26.0030 O   0  0  0  0  0  0  0  0  0  0  0  0
  2  1  1  1
  3  2  1  0
  4  6  1  0
  4  2  1  0
  5  4  2  0
  6 10  1  0
  7  6  1  0
  7  8  1  0
  8  9  1  0
  9 10  1  0
 10 11  1  1
 11 12  2  0
 13 14  1  0
 14 15  2  0
 15 16  1  0
 17 18  1  0
 17 16  2  0
 19 18  1  1
 19 21  1  0
 20 19  1  0
 20 11  1  0
 21 22  1  0
 23 17  1  0
 24 23  2  0
 24 14  1  0
 25 21  2  0
M  END
$$$$
