APY.pdb
     RDKit          3D

 25 26  0  0  1  0  0  0  0  0999 V2000
    7.9687  -12.4751   18.9178 C   0  0  0  0  0  0  0  0  0  0  0  0
    8.6317  -13.8342   19.0201 C   0  0  2  0  0  0  0  0  0  0  0  0
    8.2019  -14.6153   17.9070 N   0  0  0  0  0  0  0  0  0  0  0  0
    8.4882  -14.4421   20.3404 C   0  0  0  0  0  0  0  0  0  0  0  0
    8.9725  -13.8636   21.3676 O   0  0  0  0  0  0  0  0  0  0  0  0
    7.8173  -15.6964   20.6000 N   0  0  0  0  0  0  0  0  0  0  0  0
    7.2446  -16.4580   19.5405 C   0  0  0  0  0  0  0  0  0  0  0  0
    6.8011  -17.7484   20.1588 C   0  0  0  0  0  0  0  0  0  0  0  0
    7.2508  -17.7408   21.5764 C   0  0  0  0  0  0  0  0  0  0  0  0
    7.6100  -16.3200   21.8509 C   0  0  1  0  0  0  0  0  0  0  0  0
    8.7860  -16.2934   22.7786 C   0  0  0  0  0  0  0  0  0  0  0  0
    9.9176  -16.6617   22.4062 O   0  0  0  0  0  0  0  0  0  0  0  0
    5.0478  -11.8969   26.8707 O   0  0  0  0  0  0  0  0  0  0  0  0
    6.2514  -12.5068   26.5664 C   0  0  0  0  0  0  0  0  0  0  0  0
    6.2851  -13.4930   25.6246 C   0  0  0  0  0  0  0  0  0  0  0  0
    7.4828  -14.1246   25.2982 C   0  0  0  0  0  0  0  0  0  0  0  0
    8.6558  -13.7691   25.9158 C   0  0  0  0  0  0  0  0  0  0  0  0
    9.9219  -14.4340   25.6127 C   0  0  0  0  0  0  0  0  0  0  0  0
    9.6887  -15.8247   25.1090 C   0  0  2  0  0  0  0  0  0  0  0  0
    8.6153  -15.8385   24.1127 N   0  0  0  0  0  0  0  0  0  0  0  0
    9.4044  -16.7346   26.2178 C   0  0  0  0  0  0  0  0  0  0  0  0
    8.2237  -17.4101   26.3623 O   0  0  0  0  0  0  0  0  0  0  0  0
    8.6003  -12.7760   26.8598 C   0  0  0  0  0  0  0  0  0  0  0  0
    7.4174  -12.1333   27.2002 C   0  0  0  0  0  0  0  0  0  0  0  0
   10.2834  -16.9339   27.1261 O   0  0  0  0  0  0  0  0  0  0  0  0
  2  1  1  1
  3  2  1  0
  4  6  1  0
  4  2  1  0
  5  4  2  0
  6 10  1  0
  7  6  1  0
  7  8  1  0
  8  9  1  0
  9 10  1  0
 10 11  1  1
 11 12  2  0
 13 14  1  0
 14 15  2  0
 15 16  1  0
 17 18  1  0
 17 16  2  0
 19 18  1  1
 19 21  1  0
 20 19  1  0
 20 11  1  0
 21 22  1  0
 23 17  1  0
 24 23  2  0
 24 14  1  0
 25 21  2  0
M  END
$$$$
