APY.pdb
     RDKit          3D

 25 26  0  0  1  0  0  0  0  0999 V2000
    9.5707  -14.2882   17.9915 C   0  0  0  0  0  0  0  0  0  0  0  0
    8.1994  -13.9557   18.5448 C   0  0  2  0  0  0  0  0  0  0  0  0
    7.9635  -12.5667   18.3235 N   0  0  0  0  0  0  0  0  0  0  0  0
    7.9985  -14.4446   19.9064 C   0  0  0  0  0  0  0  0  0  0  0  0
    8.4155  -13.7629   20.8993 O   0  0  0  0  0  0  0  0  0  0  0  0
    7.3407  -15.6866   20.2459 N   0  0  0  0  0  0  0  0  0  0  0  0
    6.7202  -16.4887   19.2447 C   0  0  0  0  0  0  0  0  0  0  0  0
    6.3061  -17.7530   19.9332 C   0  0  0  0  0  0  0  0  0  0  0  0
    6.8204  -17.6901   21.3273 C   0  0  0  0  0  0  0  0  0  0  0  0
    7.1913  -16.2601   21.5287 C   0  0  1  0  0  0  0  0  0  0  0  0
    8.4086  -16.1985   22.3996 C   0  0  0  0  0  0  0  0  0  0  0  0
    9.5360  -16.5074   21.9657 O   0  0  0  0  0  0  0  0  0  0  0  0
    5.1654  -11.8301   27.3624 O   0  0  0  0  0  0  0  0  0  0  0  0
    6.2670  -12.4407   26.7907 C   0  0  0  0  0  0  0  0  0  0  0  0
    7.2522  -12.9359   27.5937 C   0  0  0  0  0  0  0  0  0  0  0  0
    8.3727  -13.5556   27.0454 C   0  0  0  0  0  0  0  0  0  0  0  0
    8.5109  -13.6824   25.6859 C   0  0  0  0  0  0  0  0  0  0  0  0
    9.6889  -14.3033   25.0828 C   0  0  0  0  0  0  0  0  0  0  0  0
    9.4049  -15.7199   24.6895 C   0  0  2  0  0  0  0  0  0  0  0  0
    8.2829  -15.7786   23.7501 N   0  0  0  0  0  0  0  0  0  0  0  0
    9.1597  -16.5448   25.8717 C   0  0  0  0  0  0  0  0  0  0  0  0
   10.1277  -16.8791   26.7786 O   0  0  0  0  0  0  0  0  0  0  0  0
    7.5098  -13.1776   24.8964 C   0  0  0  0  0  0  0  0  0  0  0  0
    6.3845  -12.5564   25.4219 C   0  0  0  0  0  0  0  0  0  0  0  0
    7.9870  -17.0014   26.1038 O   0  0  0  0  0  0  0  0  0  0  0  0
  2  1  1  1
  3  2  1  0
  4  6  1  0
  4  2  1  0
  5  4  2  0
  6 10  1  0
  7  6  1  0
  7  8  1  0
  8  9  1  0
  9 10  1  0
 10 11  1  1
 11 12  2  0
 13 14  1  0
 14 15  2  0
 15 16  1  0
 17 18  1  0
 17 16  2  0
 19 18  1  1
 19 21  1  0
 20 19  1  0
 20 11  1  0
 21 22  1  0
 23 17  1  0
 24 23  2  0
 24 14  1  0
 25 21  2  0
M  END
$$$$
