APY.pdb
     RDKit          3D

 25 26  0  0  1  0  0  0  0  0999 V2000
    9.8597  -13.4229   19.0950 C   0  0  0  0  0  0  0  0  0  0  0  0
    8.3666  -13.4234   19.3555 C   0  0  2  0  0  0  0  0  0  0  0  0
    7.8970  -12.0846   19.2101 N   0  0  0  0  0  0  0  0  0  0  0  0
    8.0020  -14.1141   20.5897 C   0  0  0  0  0  0  0  0  0  0  0  0
    8.1693  -13.5426   21.7165 O   0  0  0  0  0  0  0  0  0  0  0  0
    7.4439  -15.4465   20.6527 N   0  0  0  0  0  0  0  0  0  0  0  0
    7.0858  -16.1515   19.4672 C   0  0  0  0  0  0  0  0  0  0  0  0
    6.7137  -17.5331   19.9105 C   0  0  0  0  0  0  0  0  0  0  0  0
    6.9889  -17.6221   21.3693 C   0  0  0  0  0  0  0  0  0  0  0  0
    7.1583  -16.2074   21.8086 C   0  0  1  0  0  0  0  0  0  0  0  0
    8.2064  -16.1595   22.8778 C   0  0  0  0  0  0  0  0  0  0  0  0
    9.4173  -16.0565   22.5985 O   0  0  0  0  0  0  0  0  0  0  0  0
    6.0018  -10.6003   26.3411 O   0  0  0  0  0  0  0  0  0  0  0  0
    6.5249  -11.8793   26.4045 C   0  0  0  0  0  0  0  0  0  0  0  0
    5.6799  -12.9467   26.4897 C   0  0  0  0  0  0  0  0  0  0  0  0
    6.1787  -14.2456   26.5550 C   0  0  0  0  0  0  0  0  0  0  0  0
    7.5306  -14.4811   26.5345 C   0  0  0  0  0  0  0  0  0  0  0  0
    8.0820  -15.8316   26.6295 C   0  0  0  0  0  0  0  0  0  0  0  0
    8.7686  -16.2199   25.3568 C   0  0  2  0  0  0  0  0  0  0  0  0
    7.8191  -16.2312   24.2419 N   0  0  0  0  0  0  0  0  0  0  0  0
    9.4388  -17.5111   25.5048 C   0  0  0  0  0  0  0  0  0  0  0  0
    9.0415  -18.6511   24.8616 O   0  0  0  0  0  0  0  0  0  0  0  0
    8.3629  -13.3945   26.4490 C   0  0  0  0  0  0  0  0  0  0  0  0
    7.8870  -12.0917   26.3828 C   0  0  0  0  0  0  0  0  0  0  0  0
   10.4561  -17.6220   26.2731 O   0  0  0  0  0  0  0  0  0  0  0  0
  2  1  1  1
  3  2  1  0
  4  6  1  0
  4  2  1  0
  5  4  2  0
  6 10  1  0
  7  6  1  0
  7  8  1  0
  8  9  1  0
  9 10  1  0
 10 11  1  1
 11 12  2  0
 13 14  1  0
 14 15  2  0
 15 16  1  0
 17 18  1  0
 17 16  2  0
 19 18  1  1
 19 21  1  0
 20 19  1  0
 20 11  1  0
 21 22  1  0
 23 17  1  0
 24 23  2  0
 24 14  1  0
 25 21  2  0
M  END
$$$$
