APY.pdb
     RDKit          3D

 25 26  0  0  1  0  0  0  0  0999 V2000
    8.4578  -12.4372   20.1814 C   0  0  0  0  0  0  0  0  0  0  0  0
    7.6471  -13.6910   19.9208 C   0  0  2  0  0  0  0  0  0  0  0  0
    6.3344  -13.2903   19.5332 N   0  0  0  0  0  0  0  0  0  0  0  0
    7.7402  -14.6671   21.0033 C   0  0  0  0  0  0  0  0  0  0  0  0
    7.2633  -14.3949   22.1534 O   0  0  0  0  0  0  0  0  0  0  0  0
    8.3515  -15.9720   20.8840 N   0  0  0  0  0  0  0  0  0  0  0  0
    8.7086  -16.5042   19.6113 C   0  0  0  0  0  0  0  0  0  0  0  0
    9.4570  -17.7706   19.8938 C   0  0  0  0  0  0  0  0  0  0  0  0
    9.6165  -17.8743   21.3688 C   0  0  0  0  0  0  0  0  0  0  0  0
    8.6533  -16.8805   21.9234 C   0  0  1  0  0  0  0  0  0  0  0  0
    9.2516  -16.2668   23.1521 C   0  0  0  0  0  0  0  0  0  0  0  0
   10.1557  -15.4112   23.0784 O   0  0  0  0  0  0  0  0  0  0  0  0
    5.7319  -11.1726   25.6732 O   0  0  0  0  0  0  0  0  0  0  0  0
    6.3778  -12.3659   25.9418 C   0  0  0  0  0  0  0  0  0  0  0  0
    7.7061  -12.3553   26.2517 C   0  0  0  0  0  0  0  0  0  0  0  0
    8.3821  -13.5417   26.5266 C   0  0  0  0  0  0  0  0  0  0  0  0
    7.7276  -14.7476   26.4926 C   0  0  0  0  0  0  0  0  0  0  0  0
    8.4183  -16.0100   26.7497 C   0  0  0  0  0  0  0  0  0  0  0  0
    9.4366  -16.2886   25.6879 C   0  0  2  0  0  0  0  0  0  0  0  0
    8.7825  -16.6630   24.4323 N   0  0  0  0  0  0  0  0  0  0  0  0
   10.3769  -17.3169   26.1314 C   0  0  0  0  0  0  0  0  0  0  0  0
   11.4310  -17.0721   26.9682 O   0  0  0  0  0  0  0  0  0  0  0  0
    6.3927  -14.7365   26.1786 C   0  0  0  0  0  0  0  0  0  0  0  0
    5.6997  -13.5656   25.9013 C   0  0  0  0  0  0  0  0  0  0  0  0
   10.2413  -18.5254   25.7332 O   0  0  0  0  0  0  0  0  0  0  0  0
  2  1  1  1
  3  2  1  0
  4  6  1  0
  4  2  1  0
  5  4  2  0
  6 10  1  0
  7  6  1  0
  7  8  1  0
  8  9  1  0
  9 10  1  0
 10 11  1  1
 11 12  2  0
 13 14  1  0
 14 15  2  0
 15 16  1  0
 17 18  1  0
 17 16  2  0
 19 18  1  1
 19 21  1  0
 20 19  1  0
 20 11  1  0
 21 22  1  0
 23 17  1  0
 24 23  2  0
 24 14  1  0
 25 21  2  0
M  END
$$$$
