APY.pdb
     RDKit          3D

 25 26  0  0  1  0  0  0  0  0999 V2000
    9.5898  -14.8066   17.7119 C   0  0  0  0  0  0  0  0  0  0  0  0
    8.2810  -14.2633   18.2495 C   0  0  2  0  0  0  0  0  0  0  0  0
    8.2107  -12.8794   17.9124 N   0  0  0  0  0  0  0  0  0  0  0  0
    8.0514  -14.6080   19.6501 C   0  0  0  0  0  0  0  0  0  0  0  0
    8.5725  -13.9043   20.5762 O   0  0  0  0  0  0  0  0  0  0  0  0
    7.2515  -15.7244   20.1022 N   0  0  0  0  0  0  0  0  0  0  0  0
    6.5146  -16.5231   19.1804 C   0  0  0  0  0  0  0  0  0  0  0  0
    5.9612  -17.6629   19.9794 C   0  0  0  0  0  0  0  0  0  0  0  0
    6.5090  -17.5485   21.3573 C   0  0  0  0  0  0  0  0  0  0  0  0
    7.0594  -16.1648   21.4310 C   0  0  1  0  0  0  0  0  0  0  0  0
    8.2933  -16.1841   22.2804 C   0  0  0  0  0  0  0  0  0  0  0  0
    9.3717  -16.6402   21.8517 O   0  0  0  0  0  0  0  0  0  0  0  0
    5.0890  -11.9077   27.2356 O   0  0  0  0  0  0  0  0  0  0  0  0
    6.2227  -12.4710   26.6781 C   0  0  0  0  0  0  0  0  0  0  0  0
    6.4841  -12.2817   25.3527 C   0  0  0  0  0  0  0  0  0  0  0  0
    7.6180  -12.8371   24.7648 C   0  0  0  0  0  0  0  0  0  0  0  0
    8.4979  -13.5865   25.5049 C   0  0  0  0  0  0  0  0  0  0  0  0
    9.6808  -14.2039   24.9077 C   0  0  0  0  0  0  0  0  0  0  0  0
    9.3983  -15.6164   24.4989 C   0  0  2  0  0  0  0  0  0  0  0  0
    8.2407  -15.6719   23.6035 N   0  0  0  0  0  0  0  0  0  0  0  0
    9.2101  -16.4662   25.6739 C   0  0  0  0  0  0  0  0  0  0  0  0
   10.2208  -16.8196   26.5253 O   0  0  0  0  0  0  0  0  0  0  0  0
    8.2167  -13.7653   26.8351 C   0  0  0  0  0  0  0  0  0  0  0  0
    7.0923  -13.2206   27.4413 C   0  0  0  0  0  0  0  0  0  0  0  0
    8.0498  -16.9278   25.9530 O   0  0  0  0  0  0  0  0  0  0  0  0
  2  1  1  1
  3  2  1  0
  4  6  1  0
  4  2  1  0
  5  4  2  0
  6 10  1  0
  7  6  1  0
  7  8  1  0
  8  9  1  0
  9 10  1  0
 10 11  1  1
 11 12  2  0
 13 14  1  0
 14 15  2  0
 15 16  1  0
 17 18  1  0
 17 16  2  0
 19 18  1  1
 19 21  1  0
 20 19  1  0
 20 11  1  0
 21 22  1  0
 23 17  1  0
 24 23  2  0
 24 14  1  0
 25 21  2  0
M  END
$$$$
