APY.pdb
     RDKit          3D

 25 26  0  0  1  0  0  0  0  0999 V2000
    6.9013  -12.1519   25.8535 C   0  0  0  0  0  0  0  0  0  0  0  0
    6.2028  -13.3763   25.2966 C   0  0  2  0  0  0  0  0  0  0  0  0
    5.2543  -13.8174   26.2660 N   0  0  0  0  0  0  0  0  0  0  0  0
    7.1314  -14.3811   24.7855 C   0  0  0  0  0  0  0  0  0  0  0  0
    7.8563  -15.0514   25.5914 O   0  0  0  0  0  0  0  0  0  0  0  0
    7.3114  -14.6989   23.3865 N   0  0  0  0  0  0  0  0  0  0  0  0
    6.4017  -14.2201   22.3998 C   0  0  0  0  0  0  0  0  0  0  0  0
    6.9965  -14.5987   21.0781 C   0  0  0  0  0  0  0  0  0  0  0  0
    8.3303  -15.1997   21.3456 C   0  0  0  0  0  0  0  0  0  0  0  0
    8.3251  -15.4948   22.8071 C   0  0  1  0  0  0  0  0  0  0  0  0
    9.7031  -15.2643   23.3478 C   0  0  0  0  0  0  0  0  0  0  0  0
   10.3117  -14.1950   23.1449 O   0  0  0  0  0  0  0  0  0  0  0  0
    9.9028  -16.3950   30.6953 O   0  0  0  0  0  0  0  0  0  0  0  0
   10.3666  -16.0520   29.4381 C   0  0  0  0  0  0  0  0  0  0  0  0
   10.9708  -16.9989   28.6641 C   0  0  0  0  0  0  0  0  0  0  0  0
   11.4475  -16.6817   27.3944 C   0  0  0  0  0  0  0  0  0  0  0  0
   11.3198  -15.4106   26.8930 C   0  0  0  0  0  0  0  0  0  0  0  0
   11.8354  -15.0434   25.5753 C   0  0  0  0  0  0  0  0  0  0  0  0
   11.7072  -16.1840   24.6138 C   0  0  2  0  0  0  0  0  0  0  0  0
   10.3354  -16.2815   24.1102 N   0  0  0  0  0  0  0  0  0  0  0  0
   12.1417  -17.4345   25.2350 C   0  0  0  0  0  0  0  0  0  0  0  0
   11.2996  -18.4748   25.5174 O   0  0  0  0  0  0  0  0  0  0  0  0
   10.7099  -14.4735   27.6870 C   0  0  0  0  0  0  0  0  0  0  0  0
   10.2276  -14.7681   28.9554 C   0  0  0  0  0  0  0  0  0  0  0  0
   13.3706  -17.6016   25.5501 O   0  0  0  0  0  0  0  0  0  0  0  0
  2  1  1  1
  3  2  1  0
  4  6  1  0
  4  2  1  0
  5  4  2  0
  6 10  1  0
  7  6  1  0
  7  8  1  0
  8  9  1  0
  9 10  1  0
 10 11  1  1
 11 12  2  0
 13 14  1  0
 14 15  2  0
 15 16  1  0
 17 18  1  0
 17 16  2  0
 19 18  1  1
 19 21  1  0
 20 19  1  0
 20 11  1  0
 21 22  1  0
 23 17  1  0
 24 23  2  0
 24 14  1  0
 25 21  2  0
M  END
$$$$
