APY.pdb
     RDKit          3D

 25 26  0  0  1  0  0  0  0  0999 V2000
    9.8878  -13.5249   18.9425 C   0  0  0  0  0  0  0  0  0  0  0  0
    8.4104  -13.4876   19.2786 C   0  0  2  0  0  0  0  0  0  0  0  0
    7.9501  -12.1525   19.0792 N   0  0  0  0  0  0  0  0  0  0  0  0
    8.1019  -14.1002   20.5681 C   0  0  0  0  0  0  0  0  0  0  0  0
    8.2916  -13.4496   21.6475 O   0  0  0  0  0  0  0  0  0  0  0  0
    7.5778  -15.4368   20.7395 N   0  0  0  0  0  0  0  0  0  0  0  0
    7.1141  -16.1943   19.6252 C   0  0  0  0  0  0  0  0  0  0  0  0
    6.8146  -17.5621   20.1575 C   0  0  0  0  0  0  0  0  0  0  0  0
    7.2385  -17.5880   21.5829 C   0  0  0  0  0  0  0  0  0  0  0  0
    7.4254  -16.1543   21.9473 C   0  0  1  0  0  0  0  0  0  0  0  0
    8.5758  -16.0480   22.9009 C   0  0  0  0  0  0  0  0  0  0  0  0
    9.7469  -15.9098   22.4956 O   0  0  0  0  0  0  0  0  0  0  0  0
    5.8263  -10.9226   26.3229 O   0  0  0  0  0  0  0  0  0  0  0  0
    6.5769  -12.0824   26.3933 C   0  0  0  0  0  0  0  0  0  0  0  0
    5.9452  -13.2833   26.5324 C   0  0  0  0  0  0  0  0  0  0  0  0
    6.6757  -14.4670   26.6060 C   0  0  0  0  0  0  0  0  0  0  0  0
    8.0465  -14.4522   26.5399 C   0  0  0  0  0  0  0  0  0  0  0  0
    8.8390  -15.6763   26.6423 C   0  0  0  0  0  0  0  0  0  0  0  0
    9.3948  -16.0670   25.3080 C   0  0  2  0  0  0  0  0  0  0  0  0
    8.3341  -16.1039   24.2989 N   0  0  0  0  0  0  0  0  0  0  0  0
   10.0975  -17.3464   25.3959 C   0  0  0  0  0  0  0  0  0  0  0  0
   11.3348  -17.4960   25.9599 O   0  0  0  0  0  0  0  0  0  0  0  0
    8.6620  -13.2348   26.4005 C   0  0  0  0  0  0  0  0  0  0  0  0
    7.9533  -12.0430   26.3250 C   0  0  0  0  0  0  0  0  0  0  0  0
    9.5589  -18.4082   24.9271 O   0  0  0  0  0  0  0  0  0  0  0  0
  2  1  1  1
  3  2  1  0
  4  6  1  0
  4  2  1  0
  5  4  2  0
  6 10  1  0
  7  6  1  0
  7  8  1  0
  8  9  1  0
  9 10  1  0
 10 11  1  1
 11 12  2  0
 13 14  1  0
 14 15  2  0
 15 16  1  0
 17 18  1  0
 17 16  2  0
 19 18  1  1
 19 21  1  0
 20 19  1  0
 20 11  1  0
 21 22  1  0
 23 17  1  0
 24 23  2  0
 24 14  1  0
 25 21  2  0
M  END
$$$$
