APY.pdb
     RDKit          3D

 25 26  0  0  1  0  0  0  0  0999 V2000
    5.9984  -17.9077   20.9137 C   0  0  0  0  0  0  0  0  0  0  0  0
    7.1546  -17.4552   20.0443 C   0  0  2  0  0  0  0  0  0  0  0  0
    7.7767  -18.6191   19.5035 N   0  0  0  0  0  0  0  0  0  0  0  0
    8.0303  -16.4956   20.7117 C   0  0  0  0  0  0  0  0  0  0  0  0
    8.9052  -16.8998   21.5457 O   0  0  0  0  0  0  0  0  0  0  0  0
    7.9936  -15.0652   20.5035 N   0  0  0  0  0  0  0  0  0  0  0  0
    7.2048  -14.4925   19.4641 C   0  0  0  0  0  0  0  0  0  0  0  0
    7.2808  -13.0099   19.6637 C   0  0  0  0  0  0  0  0  0  0  0  0
    8.0384  -12.7678   20.9204 C   0  0  0  0  0  0  0  0  0  0  0  0
    8.6960  -14.0716   21.2219 C   0  0  1  0  0  0  0  0  0  0  0  0
    8.7262  -14.2612   22.7076 C   0  0  0  0  0  0  0  0  0  0  0  0
    8.0667  -13.5283   23.4711 O   0  0  0  0  0  0  0  0  0  0  0  0
    6.2091  -10.9158   27.3330 O   0  0  0  0  0  0  0  0  0  0  0  0
    6.7608  -12.0897   26.8525 C   0  0  0  0  0  0  0  0  0  0  0  0
    5.9468  -13.0434   26.3153 C   0  0  0  0  0  0  0  0  0  0  0  0
    6.4748  -14.2350   25.8240 C   0  0  0  0  0  0  0  0  0  0  0  0
    7.8251  -14.4765   25.8685 C   0  0  0  0  0  0  0  0  0  0  0  0
    8.4031  -15.7293   25.3854 C   0  0  0  0  0  0  0  0  0  0  0  0
    9.7144  -15.4862   24.7047 C   0  0  2  0  0  0  0  0  0  0  0  0
    9.5204  -15.2975   23.2653 N   0  0  0  0  0  0  0  0  0  0  0  0
   10.6502  -16.5749   24.9826 C   0  0  0  0  0  0  0  0  0  0  0  0
   11.1352  -16.8596   26.2296 O   0  0  0  0  0  0  0  0  0  0  0  0
    8.6259  -13.5054   26.4127 C   0  0  0  0  0  0  0  0  0  0  0  0
    8.1206  -12.3106   26.9081 C   0  0  0  0  0  0  0  0  0  0  0  0
   11.0647  -17.3236   24.0314 O   0  0  0  0  0  0  0  0  0  0  0  0
  2  1  1  1
  3  2  1  0
  4  6  1  0
  4  2  1  0
  5  4  2  0
  6 10  1  0
  7  6  1  0
  7  8  1  0
  8  9  1  0
  9 10  1  0
 10 11  1  1
 11 12  2  0
 13 14  1  0
 14 15  2  0
 15 16  1  0
 17 18  1  0
 17 16  2  0
 19 18  1  1
 19 21  1  0
 20 19  1  0
 20 11  1  0
 21 22  1  0
 23 17  1  0
 24 23  2  0
 24 14  1  0
 25 21  2  0
M  END
$$$$
