PLQ.pdb
     RDKit          3D

 25 25  0  0  1  0  0  0  0  0999 V2000
    7.2884  -15.7569   21.4847 N   0  0  0  0  0  0  0  0  0  0  0  0
    6.5320  -14.6785   20.8763 C   0  0  0  0  0  0  0  0  0  0  0  0
    7.5232  -13.9759   19.9738 C   0  0  0  0  0  0  0  0  0  0  0  0
    8.8274  -14.0988   20.7630 C   0  0  0  0  0  0  0  0  0  0  0  0
    8.6196  -15.2610   21.7021 C   0  0  1  0  0  0  0  0  0  0  0  0
    8.8605  -14.8963   23.1217 C   0  0  0  0  0  0  0  0  0  0  0  0
   10.0626  -14.7545   23.5010 O   0  0  0  0  0  0  0  0  0  0  0  0
    8.2115  -11.3083   25.7477 C   0  0  0  0  0  0  0  0  0  0  0  0
    6.9095  -12.0694   25.5265 C   0  0  2  0  0  0  0  0  0  0  0  0
    5.7433  -11.2662   25.9754 C   0  0  0  0  0  0  0  0  0  0  0  0
    6.9775  -13.4645   25.9750 C   0  0  0  0  0  0  0  0  0  0  0  0
    7.9861  -14.3868   25.4364 C   0  0  2  0  0  0  0  0  0  0  0  0
    7.8101  -14.7076   24.0392 N   0  0  0  0  0  0  0  0  0  0  0  0
    8.3017  -15.5768   26.2576 C   0  0  0  0  0  0  0  0  0  0  0  0
    8.6179  -15.4944   27.4830 O   0  0  0  0  0  0  0  0  0  0  0  0
    6.1166  -21.0593   24.8585 N   0  0  0  0  0  0  0  0  0  0  0  0
    6.6583  -21.3969   26.1173 C   0  0  0  0  0  0  0  0  0  0  0  0
    6.4312  -22.5042   26.6294 O   0  0  0  0  0  0  0  0  0  0  0  0
    7.5057  -20.4055   26.8213 C   0  0  0  0  0  0  0  0  0  0  0  0
    7.5428  -19.1437   26.0066 C   0  0  0  0  0  0  0  0  0  0  0  0
    8.3879  -18.0686   26.6380 C   0  0  2  0  0  0  0  0  0  0  0  0
    8.2721  -16.8977   25.7314 N   0  0  0  0  0  0  0  0  0  0  0  0
    9.8087  -18.4734   26.6412 C   0  0  0  0  0  0  0  0  0  0  0  0
   10.7479  -17.9388   25.7875 O   0  0  0  0  0  0  0  0  0  0  0  0
   10.2181  -19.3601   27.4607 O   0  0  0  0  0  0  0  0  0  0  0  0
  1  2  1  0
  3  2  1  0
  4  5  1  0
  4  3  1  0
  5  1  1  0
  6  7  2  0
  5  6  1  1
  9 10  1  1
  9  8  1  0
 11  9  1  0
 12 11  1  1
 12 13  1  0
 13  6  1  0
 14 15  2  0
 14 12  1  0
 16 17  1  0
 17 18  2  0
 19 17  1  0
 19 20  1  0
 21 20  1  6
 21 22  1  0
 22 14  1  0
 23 21  1  0
 24 23  1  0
 25 23  2  0
M  END
$$$$
