PLQ.pdb
     RDKit          3D

 25 25  0  0  1  0  0  0  0  0999 V2000
    7.1812  -15.8022   21.6647 N   0  0  0  0  0  0  0  0  0  0  0  0
    6.3789  -14.7478   21.0734 C   0  0  0  0  0  0  0  0  0  0  0  0
    7.2773  -14.1220   20.0284 C   0  0  0  0  0  0  0  0  0  0  0  0
    8.6567  -14.2231   20.6809 C   0  0  0  0  0  0  0  0  0  0  0  0
    8.5347  -15.3212   21.7080 C   0  0  1  0  0  0  0  0  0  0  0  0
    8.9313  -14.8754   23.0683 C   0  0  0  0  0  0  0  0  0  0  0  0
   10.1297  -14.4975   23.2417 O   0  0  0  0  0  0  0  0  0  0  0  0
    8.0513  -11.3940   25.6494 C   0  0  0  0  0  0  0  0  0  0  0  0
    6.9379  -12.4343   25.6869 C   0  0  2  0  0  0  0  0  0  0  0  0
    5.6917  -11.8566   26.2524 C   0  0  0  0  0  0  0  0  0  0  0  0
    7.3800  -13.7286   26.2176 C   0  0  0  0  0  0  0  0  0  0  0  0
    8.3831  -14.5362   25.5109 C   0  0  2  0  0  0  0  0  0  0  0  0
    8.0298  -14.8616   24.1488 N   0  0  0  0  0  0  0  0  0  0  0  0
    8.9395  -15.6939   26.2460 C   0  0  0  0  0  0  0  0  0  0  0  0
    9.2721  -15.6287   27.4681 O   0  0  0  0  0  0  0  0  0  0  0  0
    7.6763  -21.5628   26.8260 N   0  0  0  0  0  0  0  0  0  0  0  0
    6.9254  -20.4222   27.1823 C   0  0  0  0  0  0  0  0  0  0  0  0
    5.8277  -20.5370   27.7496 O   0  0  0  0  0  0  0  0  0  0  0  0
    7.4693  -19.0799   26.8677 C   0  0  0  0  0  0  0  0  0  0  0  0
    8.7953  -19.2499   26.1819 C   0  0  0  0  0  0  0  0  0  0  0  0
    9.7226  -18.0855   26.4125 C   0  0  2  0  0  0  0  0  0  0  0  0
    9.1400  -16.9622   25.6347 N   0  0  0  0  0  0  0  0  0  0  0  0
   11.0511  -18.3694   25.8321 C   0  0  0  0  0  0  0  0  0  0  0  0
   11.9537  -19.2396   26.4020 O   0  0  0  0  0  0  0  0  0  0  0  0
   11.4118  -17.7957   24.7521 O   0  0  0  0  0  0  0  0  0  0  0  0
  1  2  1  0
  3  2  1  0
  4  5  1  0
  4  3  1  0
  5  1  1  0
  6  7  2  0
  5  6  1  1
  9 10  1  1
  9  8  1  0
 11  9  1  0
 12 11  1  1
 12 13  1  0
 13  6  1  0
 14 15  2  0
 14 12  1  0
 16 17  1  0
 17 18  2  0
 19 17  1  0
 19 20  1  0
 21 20  1  6
 21 22  1  0
 22 14  1  0
 23 21  1  0
 24 23  1  0
 25 23  2  0
M  END
$$$$
