PLQ.pdb
     RDKit          3D

 25 25  0  0  1  0  0  0  0  0999 V2000
    7.3182  -15.1620   21.0856 N   0  0  0  0  0  0  0  0  0  0  0  0
    6.4723  -14.0584   20.6712 C   0  0  0  0  0  0  0  0  0  0  0  0
    7.3534  -13.2148   19.7751 C   0  0  0  0  0  0  0  0  0  0  0  0
    8.7261  -13.3649   20.4322 C   0  0  0  0  0  0  0  0  0  0  0  0
    8.6447  -14.6328   21.2456 C   0  0  1  0  0  0  0  0  0  0  0  0
    8.9976  -14.4178   22.6724 C   0  0  0  0  0  0  0  0  0  0  0  0
   10.1977  -14.1113   22.9460 O   0  0  0  0  0  0  0  0  0  0  0  0
    8.1760  -11.4374   25.9504 C   0  0  0  0  0  0  0  0  0  0  0  0
    6.9763  -12.3502   25.7247 C   0  0  2  0  0  0  0  0  0  0  0  0
    5.7747  -11.8293   26.4257 C   0  0  0  0  0  0  0  0  0  0  0  0
    7.2953  -13.7710   25.9029 C   0  0  0  0  0  0  0  0  0  0  0  0
    8.3545  -14.4158   25.1154 C   0  0  2  0  0  0  0  0  0  0  0  0
    8.0535  -14.5429   23.7085 N   0  0  0  0  0  0  0  0  0  0  0  0
    8.9463  -15.6475   25.6837 C   0  0  0  0  0  0  0  0  0  0  0  0
    9.2107  -15.7693   26.9180 O   0  0  0  0  0  0  0  0  0  0  0  0
    9.2423  -21.1282   22.9629 N   0  0  0  0  0  0  0  0  0  0  0  0
   10.2122  -21.3780   23.9573 C   0  0  0  0  0  0  0  0  0  0  0  0
   10.6723  -22.5187   24.1226 O   0  0  0  0  0  0  0  0  0  0  0  0
   10.6749  -20.2536   24.8047 C   0  0  0  0  0  0  0  0  0  0  0  0
    9.9235  -19.0147   24.4074 C   0  0  0  0  0  0  0  0  0  0  0  0
    9.8916  -17.9785   25.5002 C   0  0  2  0  0  0  0  0  0  0  0  0
    9.2599  -16.7826   24.8863 N   0  0  0  0  0  0  0  0  0  0  0  0
   11.2671  -17.5942   25.8784 C   0  0  0  0  0  0  0  0  0  0  0  0
   12.0955  -16.8550   25.0634 O   0  0  0  0  0  0  0  0  0  0  0  0
   11.7419  -17.9499   27.0069 O   0  0  0  0  0  0  0  0  0  0  0  0
  1  2  1  0
  3  2  1  0
  4  5  1  0
  4  3  1  0
  5  1  1  0
  6  7  2  0
  5  6  1  1
  9 10  1  1
  9  8  1  0
 11  9  1  0
 12 11  1  1
 12 13  1  0
 13  6  1  0
 14 15  2  0
 14 12  1  0
 16 17  1  0
 17 18  2  0
 19 17  1  0
 19 20  1  0
 21 20  1  6
 21 22  1  0
 22 14  1  0
 23 21  1  0
 24 23  1  0
 25 23  2  0
M  END
$$$$
