PLQ.pdb
     RDKit          3D

 25 25  0  0  1  0  0  0  0  0999 V2000
    7.3002  -16.0362   21.5119 N   0  0  0  0  0  0  0  0  0  0  0  0
    6.5369  -15.0253   20.8044 C   0  0  0  0  0  0  0  0  0  0  0  0
    7.5295  -14.3890   19.8554 C   0  0  0  0  0  0  0  0  0  0  0  0
    8.8256  -14.4247   20.6664 C   0  0  0  0  0  0  0  0  0  0  0  0
    8.6220  -15.5044   21.7001 C   0  0  1  0  0  0  0  0  0  0  0  0
    8.8407  -15.0150   23.0855 C   0  0  0  0  0  0  0  0  0  0  0  0
   10.0198  -14.6863   23.4182 O   0  0  0  0  0  0  0  0  0  0  0  0
    8.1065  -11.4722   25.9144 C   0  0  0  0  0  0  0  0  0  0  0  0
    6.7996  -12.1875   25.5921 C   0  0  2  0  0  0  0  0  0  0  0  0
    5.6362  -11.4284   26.1182 C   0  0  0  0  0  0  0  0  0  0  0  0
    6.8479  -13.6259   25.8765 C   0  0  0  0  0  0  0  0  0  0  0  0
    7.9521  -14.4604   25.3843 C   0  0  2  0  0  0  0  0  0  0  0  0
    7.7943  -14.9087   24.0204 N   0  0  0  0  0  0  0  0  0  0  0  0
    8.4226  -15.5360   26.2854 C   0  0  0  0  0  0  0  0  0  0  0  0
    8.8250  -15.3079   27.4662 O   0  0  0  0  0  0  0  0  0  0  0  0
    6.2649  -21.1354   25.8443 N   0  0  0  0  0  0  0  0  0  0  0  0
    7.0827  -21.3684   26.9706 C   0  0  0  0  0  0  0  0  0  0  0  0
    7.0112  -22.4378   27.5963 O   0  0  0  0  0  0  0  0  0  0  0  0
    8.0320  -20.3131   27.3970 C   0  0  0  0  0  0  0  0  0  0  0  0
    7.8468  -19.1160   26.5082 C   0  0  0  0  0  0  0  0  0  0  0  0
    8.7380  -17.9638   26.8917 C   0  0  2  0  0  0  0  0  0  0  0  0
    8.4561  -16.9022   25.8917 N   0  0  0  0  0  0  0  0  0  0  0  0
   10.1571  -18.3419   26.7316 C   0  0  0  0  0  0  0  0  0  0  0  0
   10.8440  -19.1030   27.6513 O   0  0  0  0  0  0  0  0  0  0  0  0
   10.8077  -17.9596   25.7039 O   0  0  0  0  0  0  0  0  0  0  0  0
  1  2  1  0
  3  2  1  0
  4  5  1  0
  4  3  1  0
  5  1  1  0
  6  7  2  0
  5  6  1  1
  9 10  1  1
  9  8  1  0
 11  9  1  0
 12 11  1  1
 12 13  1  0
 13  6  1  0
 14 15  2  0
 14 12  1  0
 16 17  1  0
 17 18  2  0
 19 17  1  0
 19 20  1  0
 21 20  1  6
 21 22  1  0
 22 14  1  0
 23 21  1  0
 24 23  1  0
 25 23  2  0
M  END
$$$$
