PLQ.pdb
     RDKit          3D

 25 25  0  0  1  0  0  0  0  0999 V2000
    7.9812  -14.9661   19.7622 N   0  0  0  0  0  0  0  0  0  0  0  0
    8.4624  -16.2210   19.2157 C   0  0  0  0  0  0  0  0  0  0  0  0
    7.3652  -17.2182   19.5201 C   0  0  0  0  0  0  0  0  0  0  0  0
    6.8489  -16.7320   20.8750 C   0  0  0  0  0  0  0  0  0  0  0  0
    7.2626  -15.2841   20.9655 C   0  0  1  0  0  0  0  0  0  0  0  0
    8.0541  -14.9932   22.1883 C   0  0  0  0  0  0  0  0  0  0  0  0
    9.3113  -14.8772   22.0664 O   0  0  0  0  0  0  0  0  0  0  0  0
    7.6379  -11.4234   25.1192 C   0  0  0  0  0  0  0  0  0  0  0  0
    6.6671  -12.5663   25.3930 C   0  0  2  0  0  0  0  0  0  0  0  0
    5.5957  -12.1388   26.3289 C   0  0  0  0  0  0  0  0  0  0  0  0
    7.3429  -13.8364   25.6799 C   0  0  0  0  0  0  0  0  0  0  0  0
    8.1678  -14.5038   24.6641 C   0  0  2  0  0  0  0  0  0  0  0  0
    7.4570  -14.8457   23.4542 N   0  0  0  0  0  0  0  0  0  0  0  0
    9.0448  -15.5981   25.1368 C   0  0  0  0  0  0  0  0  0  0  0  0
    8.5913  -16.6372   25.7053 O   0  0  0  0  0  0  0  0  0  0  0  0
   10.8272  -14.2679   29.6525 N   0  0  0  0  0  0  0  0  0  0  0  0
   11.0399  -15.6604   29.7382 C   0  0  0  0  0  0  0  0  0  0  0  0
   11.2294  -16.2070   30.8362 O   0  0  0  0  0  0  0  0  0  0  0  0
   11.0335  -16.4638   28.4927 C   0  0  0  0  0  0  0  0  0  0  0  0
   10.8979  -15.5310   27.3228 C   0  0  0  0  0  0  0  0  0  0  0  0
   11.3379  -16.1577   26.0256 C   0  0  2  0  0  0  0  0  0  0  0  0
   10.4586  -15.5631   24.9866 N   0  0  0  0  0  0  0  0  0  0  0  0
   11.0652  -17.6095   26.0428 C   0  0  0  0  0  0  0  0  0  0  0  0
   11.9983  -18.5484   26.4231 O   0  0  0  0  0  0  0  0  0  0  0  0
    9.9207  -18.0484   25.6922 O   0  0  0  0  0  0  0  0  0  0  0  0
  1  2  1  0
  3  2  1  0
  4  5  1  0
  4  3  1  0
  5  1  1  0
  6  7  2  0
  5  6  1  1
  9 10  1  1
  9  8  1  0
 11  9  1  0
 12 11  1  1
 12 13  1  0
 13  6  1  0
 14 15  2  0
 14 12  1  0
 16 17  1  0
 17 18  2  0
 19 17  1  0
 19 20  1  0
 21 20  1  1
 21 22  1  0
 22 14  1  0
 23 21  1  0
 24 23  1  0
 25 23  2  0
M  END
$$$$
