PLQ.pdb
     RDKit          3D

 25 25  0  0  1  0  0  0  0  0999 V2000
    8.9385  -16.3359   20.4676 N   0  0  0  0  0  0  0  0  0  0  0  0
    9.2739  -17.7415   20.5985 C   0  0  0  0  0  0  0  0  0  0  0  0
    7.9408  -18.4417   20.7507 C   0  0  0  0  0  0  0  0  0  0  0  0
    7.1268  -17.4236   21.5506 C   0  0  0  0  0  0  0  0  0  0  0  0
    7.8062  -16.0967   21.3196 C   0  0  1  0  0  0  0  0  0  0  0  0
    8.1872  -15.4235   22.5878 C   0  0  0  0  0  0  0  0  0  0  0  0
    9.3929  -15.5192   22.9701 O   0  0  0  0  0  0  0  0  0  0  0  0
    8.2480  -12.2634   26.7180 C   0  0  0  0  0  0  0  0  0  0  0  0
    6.9113  -11.9982   26.0351 C   0  0  2  0  0  0  0  0  0  0  0  0
    5.8271  -11.8356   27.0374 C   0  0  0  0  0  0  0  0  0  0  0  0
    6.6545  -12.9008   24.9075 C   0  0  0  0  0  0  0  0  0  0  0  0
    7.5863  -13.9873   24.5772 C   0  0  2  0  0  0  0  0  0  0  0  0
    7.2632  -14.6964   23.3612 N   0  0  0  0  0  0  0  0  0  0  0  0
    7.9628  -14.8965   25.6826 C   0  0  0  0  0  0  0  0  0  0  0  0
    8.4677  -14.4769   26.7677 O   0  0  0  0  0  0  0  0  0  0  0  0
    6.6432  -20.9206   25.7572 N   0  0  0  0  0  0  0  0  0  0  0  0
    7.3003  -20.8599   27.0047 C   0  0  0  0  0  0  0  0  0  0  0  0
    7.4473  -21.8809   27.6947 O   0  0  0  0  0  0  0  0  0  0  0  0
    7.8143  -19.5538   27.4806 C   0  0  0  0  0  0  0  0  0  0  0  0
    7.4909  -18.5087   26.4507 C   0  0  0  0  0  0  0  0  0  0  0  0
    8.0775  -17.1622   26.7847 C   0  0  2  0  0  0  0  0  0  0  0  0
    7.7843  -16.3054   25.6073 N   0  0  0  0  0  0  0  0  0  0  0  0
    9.5477  -17.2594   26.8926 C   0  0  0  0  0  0  0  0  0  0  0  0
   10.2045  -17.4759   28.0836 O   0  0  0  0  0  0  0  0  0  0  0  0
   10.2735  -17.1394   25.8513 O   0  0  0  0  0  0  0  0  0  0  0  0
  1  2  1  0
  3  2  1  0
  4  5  1  0
  4  3  1  0
  5  1  1  0
  6  7  2  0
  5  6  1  1
  9 10  1  1
  9  8  1  0
 11  9  1  0
 12 11  1  1
 12 13  1  0
 13  6  1  0
 14 15  2  0
 14 12  1  0
 16 17  1  0
 17 18  2  0
 19 17  1  0
 19 20  1  0
 21 20  1  6
 21 22  1  0
 22 14  1  0
 23 21  1  0
 24 23  1  0
 25 23  2  0
M  END
$$$$
