PLQ.pdb
     RDKit          3D

 25 25  0  0  1  0  0  0  0  0999 V2000
    8.7242  -15.5070   19.5294 N   0  0  0  0  0  0  0  0  0  0  0  0
    9.1069  -16.8848   19.2839 C   0  0  0  0  0  0  0  0  0  0  0  0
    7.8175  -17.6684   19.4036 C   0  0  0  0  0  0  0  0  0  0  0  0
    7.0757  -16.9101   20.5051 C   0  0  0  0  0  0  0  0  0  0  0  0
    7.6913  -15.5331   20.5282 C   0  0  1  0  0  0  0  0  0  0  0  0
    8.1982  -15.1584   21.8733 C   0  0  0  0  0  0  0  0  0  0  0  0
    9.4348  -15.3189   22.1060 O   0  0  0  0  0  0  0  0  0  0  0  0
    5.8787  -12.5590   27.0278 C   0  0  0  0  0  0  0  0  0  0  0  0
    7.1552  -12.9393   26.2867 C   0  0  2  0  0  0  0  0  0  0  0  0
    8.2320  -11.9486   26.5430 C   0  0  0  0  0  0  0  0  0  0  0  0
    6.9152  -13.3255   24.8920 C   0  0  0  0  0  0  0  0  0  0  0  0
    7.7899  -14.2882   24.2095 C   0  0  2  0  0  0  0  0  0  0  0  0
    7.3586  -14.6400   22.8767 N   0  0  0  0  0  0  0  0  0  0  0  0
    8.2218  -15.4648   24.9964 C   0  0  0  0  0  0  0  0  0  0  0  0
    7.4422  -16.4286   25.2643 O   0  0  0  0  0  0  0  0  0  0  0  0
   12.7230  -18.4114   22.2284 N   0  0  0  0  0  0  0  0  0  0  0  0
   12.5772  -17.8888   23.5313 C   0  0  0  0  0  0  0  0  0  0  0  0
   13.5704  -17.5515   24.1945 O   0  0  0  0  0  0  0  0  0  0  0  0
   11.2150  -17.7480   24.0981 C   0  0  0  0  0  0  0  0  0  0  0  0
   11.3293  -17.1668   25.4788 C   0  0  0  0  0  0  0  0  0  0  0  0
    9.9881  -16.8845   26.1036 C   0  0  2  0  0  0  0  0  0  0  0  0
    9.5422  -15.5992   25.5075 N   0  0  0  0  0  0  0  0  0  0  0  0
   10.1399  -16.6574   27.5555 C   0  0  0  0  0  0  0  0  0  0  0  0
   10.3177  -17.6767   28.4645 O   0  0  0  0  0  0  0  0  0  0  0  0
   10.1074  -15.4717   28.0231 O   0  0  0  0  0  0  0  0  0  0  0  0
  1  2  1  0
  3  2  1  0
  4  5  1  0
  4  3  1  0
  5  1  1  0
  6  7  2  0
  5  6  1  1
  9 10  1  6
  9  8  1  0
 11  9  1  0
 12 11  1  1
 12 13  1  0
 13  6  1  0
 14 15  2  0
 14 12  1  0
 16 17  1  0
 17 18  2  0
 19 17  1  0
 19 20  1  0
 21 20  1  6
 21 22  1  0
 22 14  1  0
 23 21  1  0
 24 23  1  0
 25 23  2  0
M  END
$$$$
