PLQ.pdb
     RDKit          3D

 25 25  0  0  1  0  0  0  0  0999 V2000
    7.4934  -14.9721   20.8349 N   0  0  0  0  0  0  0  0  0  0  0  0
    6.5554  -13.9341   20.4502 C   0  0  0  0  0  0  0  0  0  0  0  0
    7.3916  -12.9201   19.6998 C   0  0  0  0  0  0  0  0  0  0  0  0
    8.7247  -12.9792   20.4468 C   0  0  0  0  0  0  0  0  0  0  0  0
    8.7357  -14.3181   21.1417 C   0  0  1  0  0  0  0  0  0  0  0  0
    8.9636  -14.1987   22.6047 C   0  0  0  0  0  0  0  0  0  0  0  0
   10.0727  -13.7222   22.9944 O   0  0  0  0  0  0  0  0  0  0  0  0
    7.7920  -11.6561   26.0666 C   0  0  0  0  0  0  0  0  0  0  0  0
    6.6802  -12.5996   25.6224 C   0  0  2  0  0  0  0  0  0  0  0  0
    5.3753  -12.1915   26.2031 C   0  0  0  0  0  0  0  0  0  0  0  0
    7.0514  -14.0147   25.7314 C   0  0  0  0  0  0  0  0  0  0  0  0
    8.1913  -14.5604   24.9826 C   0  0  2  0  0  0  0  0  0  0  0  0
    7.9997  -14.5927   23.5514 N   0  0  0  0  0  0  0  0  0  0  0  0
    8.7903  -15.8091   25.5044 C   0  0  0  0  0  0  0  0  0  0  0  0
    8.7096  -16.1453   26.7245 O   0  0  0  0  0  0  0  0  0  0  0  0
    9.7892  -20.7704   22.2654 N   0  0  0  0  0  0  0  0  0  0  0  0
    8.5647  -20.2771   22.7643 C   0  0  0  0  0  0  0  0  0  0  0  0
    7.4839  -20.7010   22.3257 O   0  0  0  0  0  0  0  0  0  0  0  0
    8.5884  -19.2413   23.8242 C   0  0  0  0  0  0  0  0  0  0  0  0
   10.0165  -18.9972   24.2223 C   0  0  0  0  0  0  0  0  0  0  0  0
   10.1533  -17.9175   25.2636 C   0  0  2  0  0  0  0  0  0  0  0  0
    9.4984  -16.7215   24.6745 N   0  0  0  0  0  0  0  0  0  0  0  0
   11.5773  -17.5770   25.4606 C   0  0  0  0  0  0  0  0  0  0  0  0
   12.4533  -18.3729   26.1649 O   0  0  0  0  0  0  0  0  0  0  0  0
   12.0500  -16.4997   24.9693 O   0  0  0  0  0  0  0  0  0  0  0  0
  1  2  1  0
  3  2  1  0
  4  5  1  0
  4  3  1  0
  5  1  1  0
  6  7  2  0
  5  6  1  1
  9 10  1  1
  9  8  1  0
 11  9  1  0
 12 11  1  1
 12 13  1  0
 13  6  1  0
 14 15  2  0
 14 12  1  0
 16 17  1  0
 17 18  2  0
 19 17  1  0
 19 20  1  0
 21 20  1  6
 21 22  1  0
 22 14  1  0
 23 21  1  0
 24 23  1  0
 25 23  2  0
M  END
$$$$
