PLQ.pdb
     RDKit          3D

 25 25  0  0  1  0  0  0  0  0999 V2000
    7.5069  -15.1376   20.2417 N   0  0  0  0  0  0  0  0  0  0  0  0
    6.5073  -14.2073   19.7514 C   0  0  0  0  0  0  0  0  0  0  0  0
    7.2803  -13.2321   18.8899 C   0  0  0  0  0  0  0  0  0  0  0  0
    8.6138  -13.1275   19.6312 C   0  0  0  0  0  0  0  0  0  0  0  0
    8.7065  -14.3792   20.4681 C   0  0  1  0  0  0  0  0  0  0  0  0
    8.9252  -14.0868   21.9079 C   0  0  0  0  0  0  0  0  0  0  0  0
   10.0334  -13.5702   22.2456 O   0  0  0  0  0  0  0  0  0  0  0  0
    5.8994  -12.7324   27.0634 C   0  0  0  0  0  0  0  0  0  0  0  0
    7.2299  -13.0556   26.3934 C   0  0  2  0  0  0  0  0  0  0  0  0
    8.2345  -11.9974   26.6722 C   0  0  0  0  0  0  0  0  0  0  0  0
    7.0798  -13.4896   25.0001 C   0  0  0  0  0  0  0  0  0  0  0  0
    8.1556  -14.2144   24.3107 C   0  0  2  0  0  0  0  0  0  0  0  0
    7.9538  -14.3625   22.8882 N   0  0  0  0  0  0  0  0  0  0  0  0
    8.6303  -15.4616   24.9504 C   0  0  0  0  0  0  0  0  0  0  0  0
    7.8869  -16.4790   25.0944 O   0  0  0  0  0  0  0  0  0  0  0  0
   13.9062  -17.7072   22.5231 N   0  0  0  0  0  0  0  0  0  0  0  0
   13.4932  -17.2562   23.7951 C   0  0  0  0  0  0  0  0  0  0  0  0
   14.3273  -16.9353   24.6561 O   0  0  0  0  0  0  0  0  0  0  0  0
   12.0429  -17.1712   24.0886 C   0  0  0  0  0  0  0  0  0  0  0  0
   11.8635  -17.0198   25.5726 C   0  0  0  0  0  0  0  0  0  0  0  0
   10.4157  -16.9183   25.9757 C   0  0  2  0  0  0  0  0  0  0  0  0
    9.9543  -15.6086   25.4485 N   0  0  0  0  0  0  0  0  0  0  0  0
   10.2996  -16.8566   27.4472 C   0  0  0  0  0  0  0  0  0  0  0  0
   10.4431  -17.9571   28.2627 O   0  0  0  0  0  0  0  0  0  0  0  0
   10.0531  -15.7456   28.0221 O   0  0  0  0  0  0  0  0  0  0  0  0
  1  2  1  0
  3  2  1  0
  4  5  1  0
  4  3  1  0
  5  1  1  0
  6  7  2  0
  5  6  1  1
  9 10  1  6
  9  8  1  0
 11  9  1  0
 12 11  1  1
 12 13  1  0
 13  6  1  0
 14 15  2  0
 14 12  1  0
 16 17  1  0
 17 18  2  0
 19 17  1  0
 19 20  1  0
 21 20  1  1
 21 22  1  0
 22 14  1  0
 23 21  1  0
 24 23  1  0
 25 23  2  0
M  END
$$$$
