PLQ.pdb
     RDKit          3D

 25 25  0  0  1  0  0  0  0  0999 V2000
    7.4598  -15.2072   20.0813 N   0  0  0  0  0  0  0  0  0  0  0  0
    6.5600  -14.1757   19.5999 C   0  0  0  0  0  0  0  0  0  0  0  0
    7.4431  -13.2340   18.8099 C   0  0  0  0  0  0  0  0  0  0  0  0
    8.7519  -13.2740   19.5999 C   0  0  0  0  0  0  0  0  0  0  0  0
    8.7088  -14.5632   20.3821 C   0  0  1  0  0  0  0  0  0  0  0  0
    8.8969  -14.3512   21.8403 C   0  0  0  0  0  0  0  0  0  0  0  0
   10.0819  -14.2094   22.2701 O   0  0  0  0  0  0  0  0  0  0  0  0
    5.5568  -12.7875   26.8218 C   0  0  0  0  0  0  0  0  0  0  0  0
    6.9394  -13.0462   26.2347 C   0  0  2  0  0  0  0  0  0  0  0  0
    7.9102  -12.0193   26.6925 C   0  0  0  0  0  0  0  0  0  0  0  0
    6.9058  -13.3467   24.7992 C   0  0  0  0  0  0  0  0  0  0  0  0
    7.9429  -14.1775   24.1730 C   0  0  2  0  0  0  0  0  0  0  0  0
    7.8157  -14.3046   22.7399 N   0  0  0  0  0  0  0  0  0  0  0  0
    8.2478  -15.4664   24.8332 C   0  0  0  0  0  0  0  0  0  0  0  0
    7.4063  -16.4127   24.9012 O   0  0  0  0  0  0  0  0  0  0  0  0
   11.1454  -20.4738   23.3601 N   0  0  0  0  0  0  0  0  0  0  0  0
   11.9708  -19.4558   23.8837 C   0  0  0  0  0  0  0  0  0  0  0  0
   12.9850  -19.0842   23.2726 O   0  0  0  0  0  0  0  0  0  0  0  0
   11.6071  -18.8345   25.1792 C   0  0  0  0  0  0  0  0  0  0  0  0
   11.0540  -17.4631   24.9133 C   0  0  0  0  0  0  0  0  0  0  0  0
    9.8823  -17.1272   25.7982 C   0  0  2  0  0  0  0  0  0  0  0  0
    9.5066  -15.7361   25.4376 N   0  0  0  0  0  0  0  0  0  0  0  0
   10.3024  -17.1077   27.2144 C   0  0  0  0  0  0  0  0  0  0  0  0
   10.4709  -15.9468   27.9360 O   0  0  0  0  0  0  0  0  0  0  0  0
   10.5300  -18.2019   27.8279 O   0  0  0  0  0  0  0  0  0  0  0  0
  1  2  1  0
  3  2  1  0
  4  5  1  0
  4  3  1  0
  5  1  1  0
  6  7  2  0
  5  6  1  1
  9 10  1  6
  9  8  1  0
 11  9  1  0
 12 11  1  1
 12 13  1  0
 13  6  1  0
 14 15  2  0
 14 12  1  0
 16 17  1  0
 17 18  2  0
 19 17  1  0
 19 20  1  0
 21 20  1  6
 21 22  1  0
 22 14  1  0
 23 21  1  0
 24 23  1  0
 25 23  2  0
M  END
$$$$
