KKN.pdb
     RDKit          3D

 27 26  0  0  1  0  0  0  0  0999 V2000
    8.0195  -21.2363   18.9103 N   0  0  0  0  0  0  0  0  0  0  0  0
    9.4086  -21.2684   18.5326 C   0  0  1  0  0  0  0  0  0  0  0  0
    9.5861  -21.5201   17.0466 C   0  0  0  0  0  0  0  0  0  0  0  0
    8.2523  -21.4159   16.3922 C   0  0  0  0  0  0  0  0  0  0  0  0
    7.6899  -22.6805   15.8484 C   0  0  0  0  0  0  0  0  0  0  0  0
    6.4553  -22.5527   15.0257 C   0  0  0  0  0  0  0  0  0  0  0  0
    5.8521  -23.7738   14.6048 N   0  0  0  0  0  0  0  0  0  0  0  0
   10.0369  -19.9769   18.9577 C   0  0  0  0  0  0  0  0  0  0  0  0
   11.2624  -19.8595   18.8483 O   0  0  0  0  0  0  0  0  0  0  0  0
    9.2653  -18.9108   19.4717 N   0  0  0  0  0  0  0  0  0  0  0  0
    9.7281  -17.6738   19.9711 C   0  0  1  0  0  0  0  0  0  0  0  0
    8.8071  -16.4901   19.8455 C   0  0  0  0  0  0  0  0  0  0  0  0
    9.3898  -15.1582   20.1337 C   0  0  0  0  0  0  0  0  0  0  0  0
    8.3867  -14.0179   19.9001 C   0  0  0  0  0  0  0  0  0  0  0  0
    8.9894  -12.6716   20.1126 C   0  0  0  0  0  0  0  0  0  0  0  0
    7.9865  -11.6333   19.9237 N   0  0  0  0  0  0  0  0  0  0  0  0
   10.3566  -17.7055   21.3056 C   0  0  0  0  0  0  0  0  0  0  0  0
    9.6977  -18.1371   22.2746 O   0  0  0  0  0  0  0  0  0  0  0  0
   12.0272  -19.4506   24.7157 N   0  0  0  0  0  0  0  0  0  0  0  0
   12.9630  -19.5061   23.6399 C   0  0  0  0  0  0  0  0  0  0  0  0
   13.3511  -20.6672   23.2994 O   0  0  0  0  0  0  0  0  0  0  0  0
   13.4204  -18.2554   22.9955 C   0  0  0  0  0  0  0  0  0  0  0  0
   12.2917  -17.3000   22.8886 C   0  0  2  0  0  0  0  0  0  0  0  0
   11.6823  -17.2723   21.5724 N   0  0  0  0  0  0  0  0  0  0  0  0
   12.6336  -15.9286   23.3467 C   0  0  0  0  0  0  0  0  0  0  0  0
   13.3437  -15.1206   22.7090 O   0  0  0  0  0  0  0  0  0  0  0  0
   12.1391  -15.4857   24.5724 O   0  0  0  0  0  0  0  0  0  0  0  0
  2  1  1  6
  3  2  1  0
  4  3  1  0
  5  4  1  0
  5  6  1  0
  7  6  1  0
  8  2  1  0
  8  9  2  0
 10 11  1  0
 10  8  1  0
 11 12  1  1
 13 12  1  0
 14 13  1  0
 15 14  1  0
 16 15  1  0
 17 18  2  0
 17 11  1  0
 19 20  1  0
 20 21  2  0
 20 22  1  0
 23 22  1  6
 23 24  1  0
 23 25  1  0
 24 17  1  0
 25 27  1  0
 26 25  2  0
M  END
$$$$
