KKN.pdb
     RDKit          3D

 27 26  0  0  1  0  0  0  0  0999 V2000
    8.5923  -21.1040   18.1170 N   0  0  0  0  0  0  0  0  0  0  0  0
    9.6856  -21.1280   19.0537 C   0  0  1  0  0  0  0  0  0  0  0  0
   10.8965  -21.8509   18.4929 C   0  0  0  0  0  0  0  0  0  0  0  0
   10.4199  -23.0337   17.7235 C   0  0  0  0  0  0  0  0  0  0  0  0
   11.4695  -23.8375   17.0428 C   0  0  0  0  0  0  0  0  0  0  0  0
   10.9953  -25.0075   16.2531 C   0  0  0  0  0  0  0  0  0  0  0  0
   11.9598  -25.6242   15.4038 N   0  0  0  0  0  0  0  0  0  0  0  0
   10.0064  -19.7146   19.4316 C   0  0  0  0  0  0  0  0  0  0  0  0
   11.0910  -19.2450   19.0701 O   0  0  0  0  0  0  0  0  0  0  0  0
    9.1057  -18.9246   20.1803 N   0  0  0  0  0  0  0  0  0  0  0  0
    9.2992  -17.6073   20.6505 C   0  0  1  0  0  0  0  0  0  0  0  0
    8.3980  -16.5368   20.0964 C   0  0  0  0  0  0  0  0  0  0  0  0
    8.7360  -15.1357   20.4419 C   0  0  0  0  0  0  0  0  0  0  0  0
    7.7663  -14.1266   19.8075 C   0  0  0  0  0  0  0  0  0  0  0  0
    8.0847  -12.7175   20.1738 C   0  0  0  0  0  0  0  0  0  0  0  0
    7.0921  -11.8127   19.6119 N   0  0  0  0  0  0  0  0  0  0  0  0
    9.4542  -17.4539   22.1097 C   0  0  0  0  0  0  0  0  0  0  0  0
    8.7766  -16.5885   22.7025 O   0  0  0  0  0  0  0  0  0  0  0  0
   14.8573  -17.9580   23.4378 N   0  0  0  0  0  0  0  0  0  0  0  0
   13.8923  -17.0855   22.8516 C   0  0  0  0  0  0  0  0  0  0  0  0
   14.1906  -15.8503   22.8445 O   0  0  0  0  0  0  0  0  0  0  0  0
   12.6363  -17.6397   22.3002 C   0  0  0  0  0  0  0  0  0  0  0  0
   11.6248  -17.7675   23.3766 C   0  0  2  0  0  0  0  0  0  0  0  0
   10.3354  -18.2346   22.9037 N   0  0  0  0  0  0  0  0  0  0  0  0
   11.4780  -16.5381   24.1979 C   0  0  0  0  0  0  0  0  0  0  0  0
   12.4244  -15.8039   24.5572 O   0  0  0  0  0  0  0  0  0  0  0  0
   10.2035  -16.1525   24.6103 O   0  0  0  0  0  0  0  0  0  0  0  0
  2  1  1  6
  3  2  1  0
  4  3  1  0
  5  4  1  0
  5  6  1  0
  7  6  1  0
  8  2  1  0
  8  9  2  0
 10 11  1  0
 10  8  1  0
 11 12  1  1
 13 12  1  0
 14 13  1  0
 15 14  1  0
 16 15  1  0
 17 18  2  0
 17 11  1  0
 19 20  1  0
 20 21  2  0
 20 22  1  0
 23 22  1  6
 23 24  1  0
 23 25  1  0
 24 17  1  0
 25 27  1  0
 26 25  2  0
M  END
$$$$
