KKN.pdb
     RDKit          3D

 27 26  0  0  1  0  0  0  0  0999 V2000
    8.3497  -16.0647   18.6690 N   0  0  0  0  0  0  0  0  0  0  0  0
    8.6156  -14.7796   19.2617 C   0  0  1  0  0  0  0  0  0  0  0  0
    7.9057  -13.6582   18.5257 C   0  0  0  0  0  0  0  0  0  0  0  0
    7.6281  -14.1140   17.1352 C   0  0  0  0  0  0  0  0  0  0  0  0
    8.0567  -13.1947   16.0478 C   0  0  0  0  0  0  0  0  0  0  0  0
    7.6424  -13.5685   14.6672 C   0  0  0  0  0  0  0  0  0  0  0  0
    7.8903  -12.5981   13.6529 N   0  0  0  0  0  0  0  0  0  0  0  0
    8.2156  -14.8400   20.7039 C   0  0  0  0  0  0  0  0  0  0  0  0
    8.3430  -13.8191   21.3888 O   0  0  0  0  0  0  0  0  0  0  0  0
    7.7044  -16.0232   21.2826 N   0  0  0  0  0  0  0  0  0  0  0  0
    7.4481  -16.2742   22.6482 C   0  0  1  0  0  0  0  0  0  0  0  0
    6.3696  -17.2713   22.9767 C   0  0  0  0  0  0  0  0  0  0  0  0
    5.4103  -17.5967   21.8947 C   0  0  0  0  0  0  0  0  0  0  0  0
    4.4223  -18.7010   22.3016 C   0  0  0  0  0  0  0  0  0  0  0  0
    3.3320  -18.8910   21.3035 C   0  0  0  0  0  0  0  0  0  0  0  0
    2.4222  -19.9395   21.7423 N   0  0  0  0  0  0  0  0  0  0  0  0
    8.6314  -16.4860   23.5036 C   0  0  0  0  0  0  0  0  0  0  0  0
    8.4668  -16.8775   24.6780 O   0  0  0  0  0  0  0  0  0  0  0  0
   12.6436  -19.5866   25.6147 N   0  0  0  0  0  0  0  0  0  0  0  0
   12.4086  -18.2890   25.0693 C   0  0  0  0  0  0  0  0  0  0  0  0
   13.3256  -17.4305   25.2609 O   0  0  0  0  0  0  0  0  0  0  0  0
   11.1548  -18.0148   24.3336 C   0  0  0  0  0  0  0  0  0  0  0  0
   11.1333  -16.6034   23.8801 C   0  0  2  0  0  0  0  0  0  0  0  0
    9.9696  -16.2726   23.0794 N   0  0  0  0  0  0  0  0  0  0  0  0
   12.3854  -16.1826   23.2000 C   0  0  0  0  0  0  0  0  0  0  0  0
   13.3881  -15.7120   23.7805 O   0  0  0  0  0  0  0  0  0  0  0  0
   12.4752  -16.3120   21.8150 O   0  0  0  0  0  0  0  0  0  0  0  0
  2  1  1  6
  3  2  1  0
  4  3  1  0
  5  4  1  0
  5  6  1  0
  7  6  1  0
  8  2  1  0
  8  9  2  0
 10 11  1  0
 10  8  1  0
 11 12  1  6
 13 12  1  0
 14 13  1  0
 15 14  1  0
 16 15  1  0
 17 18  2  0
 17 11  1  0
 19 20  1  0
 20 21  2  0
 20 22  1  0
 23 22  1  6
 23 24  1  0
 23 25  1  0
 24 17  1  0
 25 27  1  0
 26 25  2  0
M  END
$$$$
