KKN.pdb
     RDKit          3D

 27 26  0  0  1  0  0  0  0  0999 V2000
   10.1518  -16.4159   19.3497 N   0  0  0  0  0  0  0  0  0  0  0  0
    9.2765  -16.8254   20.4172 C   0  0  1  0  0  0  0  0  0  0  0  0
    9.4505  -18.2933   20.7612 C   0  0  0  0  0  0  0  0  0  0  0  0
    9.2091  -19.0940   19.5288 C   0  0  0  0  0  0  0  0  0  0  0  0
    9.1873  -20.5707   19.7021 C   0  0  0  0  0  0  0  0  0  0  0  0
    8.8265  -21.3703   18.4989 C   0  0  0  0  0  0  0  0  0  0  0  0
    8.7083  -22.7776   18.6925 N   0  0  0  0  0  0  0  0  0  0  0  0
    9.5372  -15.9419   21.5983 C   0  0  0  0  0  0  0  0  0  0  0  0
   10.6952  -15.5583   21.7966 O   0  0  0  0  0  0  0  0  0  0  0  0
    8.4998  -15.5474   22.4725 N   0  0  0  0  0  0  0  0  0  0  0  0
    8.6144  -14.7993   23.6645 C   0  0  1  0  0  0  0  0  0  0  0  0
    7.4130  -14.0037   24.0988 C   0  0  0  0  0  0  0  0  0  0  0  0
    7.5534  -13.2084   25.3417 C   0  0  0  0  0  0  0  0  0  0  0  0
    6.2464  -12.5027   25.7353 C   0  0  0  0  0  0  0  0  0  0  0  0
    6.3840  -11.6937   26.9793 C   0  0  0  0  0  0  0  0  0  0  0  0
    5.1392  -10.9963   27.2689 N   0  0  0  0  0  0  0  0  0  0  0  0
    9.2204  -15.4973   24.8145 C   0  0  0  0  0  0  0  0  0  0  0  0
    8.6130  -16.4611   25.3260 O   0  0  0  0  0  0  0  0  0  0  0  0
   11.2326  -17.8922   28.6555 N   0  0  0  0  0  0  0  0  0  0  0  0
   10.6003  -16.6241   28.8237 C   0  0  0  0  0  0  0  0  0  0  0  0
   10.6074  -16.1509   30.0029 O   0  0  0  0  0  0  0  0  0  0  0  0
    9.9887  -15.9453   27.6601 C   0  0  0  0  0  0  0  0  0  0  0  0
   11.0028  -15.7556   26.5953 C   0  0  2  0  0  0  0  0  0  0  0  0
   10.4688  -15.1452   25.3925 N   0  0  0  0  0  0  0  0  0  0  0  0
   11.7602  -16.9928   26.2741 C   0  0  0  0  0  0  0  0  0  0  0  0
   11.2990  -17.9658   25.6382 O   0  0  0  0  0  0  0  0  0  0  0  0
   13.0829  -17.1019   26.7002 O   0  0  0  0  0  0  0  0  0  0  0  0
  2  1  1  6
  3  2  1  0
  4  3  1  0
  5  4  1  0
  5  6  1  0
  7  6  1  0
  8  2  1  0
  8  9  2  0
 10 11  1  0
 10  8  1  0
 11 12  1  1
 13 12  1  0
 14 13  1  0
 15 14  1  0
 16 15  1  0
 17 18  2  0
 17 11  1  0
 19 20  1  0
 20 21  2  0
 20 22  1  0
 23 22  1  1
 23 24  1  0
 23 25  1  0
 24 17  1  0
 25 27  1  0
 26 25  2  0
M  END
$$$$
