KKN.pdb
     RDKit          3D

 27 26  0  0  1  0  0  0  0  0999 V2000
    8.7467  -15.4754   18.5797 N   0  0  0  0  0  0  0  0  0  0  0  0
    8.1320  -16.0612   19.7427 C   0  0  1  0  0  0  0  0  0  0  0  0
    8.3763  -17.5570   19.8200 C   0  0  0  0  0  0  0  0  0  0  0  0
    7.7271  -18.1981   18.6429 C   0  0  0  0  0  0  0  0  0  0  0  0
    7.2273  -19.5839   18.8457 C   0  0  0  0  0  0  0  0  0  0  0  0
    6.6202  -20.2460   17.6581 C   0  0  0  0  0  0  0  0  0  0  0  0
    6.0961  -21.5548   17.8685 N   0  0  0  0  0  0  0  0  0  0  0  0
    8.6521  -15.3486   20.9532 C   0  0  0  0  0  0  0  0  0  0  0  0
    9.8762  -15.2516   21.0931 O   0  0  0  0  0  0  0  0  0  0  0  0
    7.7817  -14.7959   21.9191 N   0  0  0  0  0  0  0  0  0  0  0  0
    8.0974  -14.3959   23.2360 C   0  0  1  0  0  0  0  0  0  0  0  0
    7.0848  -13.5527   23.9632 C   0  0  0  0  0  0  0  0  0  0  0  0
    7.4490  -13.1014   25.3272 C   0  0  0  0  0  0  0  0  0  0  0  0
    6.3716  -12.2019   25.9528 C   0  0  0  0  0  0  0  0  0  0  0  0
    6.7316  -11.7459   27.3252 C   0  0  0  0  0  0  0  0  0  0  0  0
    5.6321  -10.9937   27.9124 N   0  0  0  0  0  0  0  0  0  0  0  0
    8.6351  -15.4451   24.1230 C   0  0  0  0  0  0  0  0  0  0  0  0
    7.8685  -16.3408   24.5346 O   0  0  0  0  0  0  0  0  0  0  0  0
   11.8697  -17.8171   23.0354 N   0  0  0  0  0  0  0  0  0  0  0  0
   12.4171  -16.7986   23.8717 C   0  0  0  0  0  0  0  0  0  0  0  0
   13.2545  -16.0172   23.3215 O   0  0  0  0  0  0  0  0  0  0  0  0
   11.9990  -16.7040   25.2877 C   0  0  0  0  0  0  0  0  0  0  0  0
   10.5241  -16.5796   25.3720 C   0  0  2  0  0  0  0  0  0  0  0  0
    9.9876  -15.5109   24.5506 N   0  0  0  0  0  0  0  0  0  0  0  0
   10.0180  -16.4860   26.7657 C   0  0  0  0  0  0  0  0  0  0  0  0
   10.0709  -17.4101   27.6066 O   0  0  0  0  0  0  0  0  0  0  0  0
    9.4384  -15.2923   27.1925 O   0  0  0  0  0  0  0  0  0  0  0  0
  2  1  1  6
  3  2  1  0
  4  3  1  0
  5  4  1  0
  5  6  1  0
  7  6  1  0
  8  2  1  0
  8  9  2  0
 10 11  1  0
 10  8  1  0
 11 12  1  1
 13 12  1  0
 14 13  1  0
 15 14  1  0
 16 15  1  0
 17 18  2  0
 17 11  1  0
 19 20  1  0
 20 21  2  0
 20 22  1  0
 23 22  1  1
 23 24  1  0
 23 25  1  0
 24 17  1  0
 25 27  1  0
 26 25  2  0
M  END
$$$$
