KKN.pdb
     RDKit          3D

 27 26  0  0  1  0  0  0  0  0999 V2000
    7.2647  -12.3486   18.9454 N   0  0  0  0  0  0  0  0  0  0  0  0
    7.8779  -13.6069   18.6075 C   0  0  1  0  0  0  0  0  0  0  0  0
    8.9257  -13.4530   17.5205 C   0  0  0  0  0  0  0  0  0  0  0  0
    8.5039  -14.2661   16.3461 C   0  0  0  0  0  0  0  0  0  0  0  0
    8.1622  -15.6866   16.6228 C   0  0  0  0  0  0  0  0  0  0  0  0
    7.8380  -16.5293   15.4387 C   0  0  0  0  0  0  0  0  0  0  0  0
    7.3307  -17.8323   15.7153 N   0  0  0  0  0  0  0  0  0  0  0  0
    8.4552  -14.1946   19.8583 C   0  0  0  0  0  0  0  0  0  0  0  0
    9.4571  -13.6604   20.3465 O   0  0  0  0  0  0  0  0  0  0  0  0
    7.8832  -15.3285   20.4774 N   0  0  0  0  0  0  0  0  0  0  0  0
    8.3839  -16.0530   21.5812 C   0  0  1  0  0  0  0  0  0  0  0  0
    7.4433  -17.0090   22.2639 C   0  0  0  0  0  0  0  0  0  0  0  0
    7.9626  -17.7173   23.4578 C   0  0  0  0  0  0  0  0  0  0  0  0
    6.9543  -18.7305   24.0215 C   0  0  0  0  0  0  0  0  0  0  0  0
    7.4561  -19.4190   25.2443 C   0  0  0  0  0  0  0  0  0  0  0  0
    6.5640  -20.5090   25.6126 N   0  0  0  0  0  0  0  0  0  0  0  0
    9.7144  -16.6664   21.4068 C   0  0  0  0  0  0  0  0  0  0  0  0
    9.9712  -17.2614   20.3394 O   0  0  0  0  0  0  0  0  0  0  0  0
   14.4707  -13.9323   20.7546 N   0  0  0  0  0  0  0  0  0  0  0  0
   13.8568  -15.2153   20.8702 C   0  0  0  0  0  0  0  0  0  0  0  0
   14.6257  -16.2157   20.7191 O   0  0  0  0  0  0  0  0  0  0  0  0
   12.4077  -15.3165   21.1502 C   0  0  0  0  0  0  0  0  0  0  0  0
   12.1488  -16.4492   22.0712 C   0  0  2  0  0  0  0  0  0  0  0  0
   10.7437  -16.6281   22.3843 N   0  0  0  0  0  0  0  0  0  0  0  0
   12.9691  -16.4030   23.3091 C   0  0  0  0  0  0  0  0  0  0  0  0
   14.0039  -17.0777   23.5038 O   0  0  0  0  0  0  0  0  0  0  0  0
   12.5793  -15.5539   24.3435 O   0  0  0  0  0  0  0  0  0  0  0  0
  2  1  1  1
  3  2  1  0
  4  3  1  0
  5  4  1  0
  5  6  1  0
  7  6  1  0
  8  2  1  0
  8  9  2  0
 10 11  1  0
 10  8  1  0
 11 12  1  6
 13 12  1  0
 14 13  1  0
 15 14  1  0
 16 15  1  0
 17 18  2  0
 17 11  1  0
 19 20  1  0
 20 21  2  0
 20 22  1  0
 23 22  1  1
 23 24  1  0
 23 25  1  0
 24 17  1  0
 25 27  1  0
 26 25  2  0
M  END
$$$$
