KKN.pdb
     RDKit          3D

 27 26  0  0  1  0  0  0  0  0999 V2000
    9.1954  -21.0996   18.9148 N   0  0  0  0  0  0  0  0  0  0  0  0
    9.8126  -22.2548   19.5132 C   0  0  1  0  0  0  0  0  0  0  0  0
   10.6954  -22.9995   18.5288 C   0  0  0  0  0  0  0  0  0  0  0  0
   10.4077  -22.4850   17.1610 C   0  0  0  0  0  0  0  0  0  0  0  0
   11.1926  -23.0941   16.0545 C   0  0  0  0  0  0  0  0  0  0  0  0
   10.8816  -22.6095   14.6813 C   0  0  0  0  0  0  0  0  0  0  0  0
   11.7041  -23.1188   13.6345 N   0  0  0  0  0  0  0  0  0  0  0  0
   10.5799  -21.8017   20.7172 C   0  0  0  0  0  0  0  0  0  0  0  0
   11.2931  -20.7979   20.6117 O   0  0  0  0  0  0  0  0  0  0  0  0
   10.5024  -22.4907   21.9482 N   0  0  0  0  0  0  0  0  0  0  0  0
   11.2758  -22.2718   23.1091 C   0  0  1  0  0  0  0  0  0  0  0  0
   10.6947  -22.7242   24.4216 C   0  0  0  0  0  0  0  0  0  0  0  0
   11.5038  -22.4610   25.6353 C   0  0  0  0  0  0  0  0  0  0  0  0
   10.8781  -23.0715   26.8990 C   0  0  0  0  0  0  0  0  0  0  0  0
   11.6041  -22.6855   28.1420 C   0  0  0  0  0  0  0  0  0  0  0  0
   11.0697  -23.4111   29.2854 N   0  0  0  0  0  0  0  0  0  0  0  0
   12.7027  -22.6357   23.0180 C   0  0  0  0  0  0  0  0  0  0  0  0
   13.0105  -23.8228   22.7822 O   0  0  0  0  0  0  0  0  0  0  0  0
   15.1815  -19.8598   20.1944 N   0  0  0  0  0  0  0  0  0  0  0  0
   15.5261  -21.0824   20.8446 C   0  0  0  0  0  0  0  0  0  0  0  0
   15.4409  -22.1332   20.1352 O   0  0  0  0  0  0  0  0  0  0  0  0
   15.9506  -21.0693   22.2618 C   0  0  0  0  0  0  0  0  0  0  0  0
   15.1710  -22.0679   23.0321 C   0  0  2  0  0  0  0  0  0  0  0  0
   13.7717  -21.7156   23.1824 N   0  0  0  0  0  0  0  0  0  0  0  0
   15.7793  -22.4071   24.3444 C   0  0  0  0  0  0  0  0  0  0  0  0
   16.9160  -22.9062   24.4953 O   0  0  0  0  0  0  0  0  0  0  0  0
   15.0515  -22.1605   25.5074 O   0  0  0  0  0  0  0  0  0  0  0  0
  2  1  1  6
  3  2  1  0
  4  3  1  0
  5  4  1  0
  5  6  1  0
  7  6  1  0
  8  2  1  0
  8  9  2  0
 10 11  1  0
 10  8  1  0
 11 12  1  1
 13 12  1  0
 14 13  1  0
 15 14  1  0
 16 15  1  0
 17 18  2  0
 17 11  1  0
 19 20  1  0
 20 21  2  0
 20 22  1  0
 23 22  1  1
 23 24  1  0
 23 25  1  0
 24 17  1  0
 25 27  1  0
 26 25  2  0
M  END
$$$$
