KKN.pdb
     RDKit          3D

 27 26  0  0  1  0  0  0  0  0999 V2000
   11.3367  -20.1060   18.0424 N   0  0  0  0  0  0  0  0  0  0  0  0
   12.6647  -19.5690   17.8956 C   0  0  1  0  0  0  0  0  0  0  0  0
   12.8479  -18.8669   16.5627 C   0  0  0  0  0  0  0  0  0  0  0  0
   11.8537  -19.4208   15.6020 C   0  0  0  0  0  0  0  0  0  0  0  0
   12.0353  -19.0350   14.1775 C   0  0  0  0  0  0  0  0  0  0  0  0
   11.0050  -19.5312   13.2237 C   0  0  0  0  0  0  0  0  0  0  0  0
   11.0689  -19.0047   11.9006 N   0  0  0  0  0  0  0  0  0  0  0  0
   12.9260  -18.6505   19.0495 C   0  0  0  0  0  0  0  0  0  0  0  0
   14.0092  -18.0566   19.0898 O   0  0  0  0  0  0  0  0  0  0  0  0
   11.9718  -18.4557   20.0730 N   0  0  0  0  0  0  0  0  0  0  0  0
   12.0906  -17.6390   21.2187 C   0  0  1  0  0  0  0  0  0  0  0  0
   10.8166  -17.1998   21.8889 C   0  0  0  0  0  0  0  0  0  0  0  0
   10.9483  -16.2272   22.9995 C   0  0  0  0  0  0  0  0  0  0  0  0
    9.5851  -15.7729   23.5439 C   0  0  0  0  0  0  0  0  0  0  0  0
    9.7079  -14.7177   24.5891 C   0  0  0  0  0  0  0  0  0  0  0  0
    8.3889  -14.2723   25.0151 N   0  0  0  0  0  0  0  0  0  0  0  0
   13.0862  -18.0652   22.2206 C   0  0  0  0  0  0  0  0  0  0  0  0
   13.0492  -19.2372   22.6499 O   0  0  0  0  0  0  0  0  0  0  0  0
   17.6255  -18.8415   24.2167 N   0  0  0  0  0  0  0  0  0  0  0  0
   17.5329  -18.7002   22.7997 C   0  0  0  0  0  0  0  0  0  0  0  0
   18.5118  -19.1558   22.1299 O   0  0  0  0  0  0  0  0  0  0  0  0
   16.3453  -18.0537   22.1996 C   0  0  0  0  0  0  0  0  0  0  0  0
   15.3682  -17.7079   23.2598 C   0  0  2  0  0  0  0  0  0  0  0  0
   14.1031  -17.2222   22.7419 N   0  0  0  0  0  0  0  0  0  0  0  0
   15.9139  -16.7835   24.2869 C   0  0  0  0  0  0  0  0  0  0  0  0
   15.9312  -17.0139   25.5160 O   0  0  0  0  0  0  0  0  0  0  0  0
   16.4522  -15.5646   23.8775 O   0  0  0  0  0  0  0  0  0  0  0  0
  2  1  1  1
  3  2  1  0
  4  3  1  0
  5  4  1  0
  5  6  1  0
  7  6  1  0
  8  2  1  0
  8  9  2  0
 10 11  1  0
 10  8  1  0
 11 12  1  1
 13 12  1  0
 14 13  1  0
 15 14  1  0
 16 15  1  0
 17 18  2  0
 17 11  1  0
 19 20  1  0
 20 21  2  0
 20 22  1  0
 23 22  1  6
 23 24  1  0
 23 25  1  0
 24 17  1  0
 25 27  1  0
 26 25  2  0
M  END
$$$$
