KKN.pdb
     RDKit          3D

 27 26  0  0  1  0  0  0  0  0999 V2000
    8.9811  -16.5612   20.3565 N   0  0  0  0  0  0  0  0  0  0  0  0
    8.8989  -15.3006   21.0474 C   0  0  1  0  0  0  0  0  0  0  0  0
    7.9899  -14.3195   20.3303 C   0  0  0  0  0  0  0  0  0  0  0  0
    8.3484  -14.3209   18.8847 C   0  0  0  0  0  0  0  0  0  0  0  0
    7.5089  -13.4683   18.0018 C   0  0  0  0  0  0  0  0  0  0  0  0
    7.8034  -13.5385   16.5439 C   0  0  0  0  0  0  0  0  0  0  0  0
    6.8736  -12.8853   15.6832 N   0  0  0  0  0  0  0  0  0  0  0  0
    8.4378  -15.5659   22.4476 C   0  0  0  0  0  0  0  0  0  0  0  0
    8.3705  -14.6124   23.2311 O   0  0  0  0  0  0  0  0  0  0  0  0
    8.0850  -16.8643   22.8784 N   0  0  0  0  0  0  0  0  0  0  0  0
    7.8526  -17.3006   24.2011 C   0  0  1  0  0  0  0  0  0  0  0  0
    7.4685  -18.7428   24.3953 C   0  0  0  0  0  0  0  0  0  0  0  0
    7.1783  -19.1746   25.7831 C   0  0  0  0  0  0  0  0  0  0  0  0
    6.7805  -20.6567   25.8634 C   0  0  0  0  0  0  0  0  0  0  0  0
    6.4391  -21.0843   27.2496 C   0  0  0  0  0  0  0  0  0  0  0  0
    6.1182  -22.5041   27.2759 N   0  0  0  0  0  0  0  0  0  0  0  0
    8.8497  -16.8871   25.2069 C   0  0  0  0  0  0  0  0  0  0  0  0
   10.0633  -16.9644   24.9231 O   0  0  0  0  0  0  0  0  0  0  0  0
   11.0299  -13.2148   28.6978 N   0  0  0  0  0  0  0  0  0  0  0  0
   10.0211  -14.1486   29.0808 C   0  0  0  0  0  0  0  0  0  0  0  0
   10.0557  -14.5410   30.2888 O   0  0  0  0  0  0  0  0  0  0  0  0
    9.0194  -14.5992   28.0897 C   0  0  0  0  0  0  0  0  0  0  0  0
    9.4920  -15.8342   27.4191 C   0  0  2  0  0  0  0  0  0  0  0  0
    8.5223  -16.3981   26.4992 N   0  0  0  0  0  0  0  0  0  0  0  0
    9.9919  -16.8653   28.3648 C   0  0  0  0  0  0  0  0  0  0  0  0
   11.1790  -16.9683   28.7446 O   0  0  0  0  0  0  0  0  0  0  0  0
    9.0930  -17.7969   28.8815 O   0  0  0  0  0  0  0  0  0  0  0  0
  2  1  1  6
  3  2  1  0
  4  3  1  0
  5  4  1  0
  5  6  1  0
  7  6  1  0
  8  2  1  0
  8  9  2  0
 10 11  1  0
 10  8  1  0
 11 12  1  6
 13 12  1  0
 14 13  1  0
 15 14  1  0
 16 15  1  0
 17 18  2  0
 17 11  1  0
 19 20  1  0
 20 21  2  0
 20 22  1  0
 23 22  1  1
 23 24  1  0
 23 25  1  0
 24 17  1  0
 25 27  1  0
 26 25  2  0
M  END
$$$$
