KKN.pdb
     RDKit          3D

 27 26  0  0  1  0  0  0  0  0999 V2000
    8.1287  -12.9699   18.1406 N   0  0  0  0  0  0  0  0  0  0  0  0
    7.3032  -13.7238   19.0481 C   0  0  1  0  0  0  0  0  0  0  0  0
    7.0928  -15.1492   18.5718 C   0  0  0  0  0  0  0  0  0  0  0  0
    8.2662  -15.5432   17.7434 C   0  0  0  0  0  0  0  0  0  0  0  0
    9.1755  -16.5585   18.3382 C   0  0  0  0  0  0  0  0  0  0  0  0
    9.0352  -17.9496   17.8260 C   0  0  0  0  0  0  0  0  0  0  0  0
    9.8675  -18.9313   18.4389 N   0  0  0  0  0  0  0  0  0  0  0  0
    7.9387  -13.6776   20.4037 C   0  0  0  0  0  0  0  0  0  0  0  0
    9.1622  -13.5159   20.4702 O   0  0  0  0  0  0  0  0  0  0  0  0
    7.1759  -13.8132   21.5851 N   0  0  0  0  0  0  0  0  0  0  0  0
    7.6299  -13.7273   22.9194 C   0  0  1  0  0  0  0  0  0  0  0  0
    6.6633  -13.1998   23.9453 C   0  0  0  0  0  0  0  0  0  0  0  0
    7.1988  -12.9639   25.3070 C   0  0  0  0  0  0  0  0  0  0  0  0
    6.1492  -12.3578   26.2515 C   0  0  0  0  0  0  0  0  0  0  0  0
    6.6998  -12.0577   27.6034 C   0  0  0  0  0  0  0  0  0  0  0  0
    5.6625  -11.4993   28.4590 N   0  0  0  0  0  0  0  0  0  0  0  0
    8.3489  -14.9063   23.4388 C   0  0  0  0  0  0  0  0  0  0  0  0
    7.9124  -16.0461   23.1745 O   0  0  0  0  0  0  0  0  0  0  0  0
   11.6485  -18.0636   25.7465 N   0  0  0  0  0  0  0  0  0  0  0  0
   10.2308  -18.1061   25.9026 C   0  0  0  0  0  0  0  0  0  0  0  0
    9.7658  -19.1345   26.4865 O   0  0  0  0  0  0  0  0  0  0  0  0
    9.3998  -16.9920   25.3960 C   0  0  0  0  0  0  0  0  0  0  0  0
   10.2540  -16.0009   24.6988 C   0  0  2  0  0  0  0  0  0  0  0  0
    9.5241  -14.8370   24.2328 N   0  0  0  0  0  0  0  0  0  0  0  0
   11.0711  -16.5901   23.6067 C   0  0  0  0  0  0  0  0  0  0  0  0
   10.6758  -16.7583   22.4322 O   0  0  0  0  0  0  0  0  0  0  0  0
   12.3766  -16.9920   23.8846 O   0  0  0  0  0  0  0  0  0  0  0  0
  2  1  1  6
  3  2  1  0
  4  3  1  0
  5  4  1  0
  5  6  1  0
  7  6  1  0
  8  2  1  0
  8  9  2  0
 10 11  1  0
 10  8  1  0
 11 12  1  1
 13 12  1  0
 14 13  1  0
 15 14  1  0
 16 15  1  0
 17 18  2  0
 17 11  1  0
 19 20  1  0
 20 21  2  0
 20 22  1  0
 23 22  1  6
 23 24  1  0
 23 25  1  0
 24 17  1  0
 25 27  1  0
 26 25  2  0
M  END
$$$$
