KKN.pdb
     RDKit          3D

 27 26  0  0  1  0  0  0  0  0999 V2000
    7.9633  -12.4722   18.1298 N   0  0  0  0  0  0  0  0  0  0  0  0
    8.0861  -13.8480   18.5366 C   0  0  1  0  0  0  0  0  0  0  0  0
    8.7585  -14.6957   17.4725 C   0  0  0  0  0  0  0  0  0  0  0  0
    7.9157  -14.6601   16.2450 C   0  0  0  0  0  0  0  0  0  0  0  0
    8.3384  -15.5551   15.1351 C   0  0  0  0  0  0  0  0  0  0  0  0
    7.4130  -15.6449   13.9720 C   0  0  0  0  0  0  0  0  0  0  0  0
    7.8254  -16.4965   12.9059 N   0  0  0  0  0  0  0  0  0  0  0  0
    8.8346  -13.8852   19.8335 C   0  0  0  0  0  0  0  0  0  0  0  0
    9.8821  -13.2353   19.9223 O   0  0  0  0  0  0  0  0  0  0  0  0
    8.3707  -14.6371   20.9359 N   0  0  0  0  0  0  0  0  0  0  0  0
    9.1099  -15.0648   22.0604 C   0  0  1  0  0  0  0  0  0  0  0  0
    8.3822  -15.8783   23.0967 C   0  0  0  0  0  0  0  0  0  0  0  0
    9.1749  -16.3366   24.2622 C   0  0  0  0  0  0  0  0  0  0  0  0
    8.3832  -17.2917   25.1688 C   0  0  0  0  0  0  0  0  0  0  0  0
    9.0932  -17.5916   26.4444 C   0  0  0  0  0  0  0  0  0  0  0  0
    8.2645  -18.4296   27.2992 N   0  0  0  0  0  0  0  0  0  0  0  0
   10.4389  -15.6425   21.7835 C   0  0  0  0  0  0  0  0  0  0  0  0
   10.5182  -16.6614   21.0659 O   0  0  0  0  0  0  0  0  0  0  0  0
   13.1417  -16.1264   19.2981 N   0  0  0  0  0  0  0  0  0  0  0  0
   13.8405  -14.9821   19.7867 C   0  0  0  0  0  0  0  0  0  0  0  0
   14.4440  -14.2838   18.9133 O   0  0  0  0  0  0  0  0  0  0  0  0
   13.8297  -14.6742   21.2336 C   0  0  0  0  0  0  0  0  0  0  0  0
   12.9663  -15.6434   21.9501 C   0  0  2  0  0  0  0  0  0  0  0  0
   11.6579  -15.1131   22.2839 N   0  0  0  0  0  0  0  0  0  0  0  0
   13.6174  -16.2455   23.1422 C   0  0  0  0  0  0  0  0  0  0  0  0
   14.7582  -16.7578   23.1485 O   0  0  0  0  0  0  0  0  0  0  0  0
   12.9285  -16.2521   24.3539 O   0  0  0  0  0  0  0  0  0  0  0  0
  2  1  1  6
  3  2  1  0
  4  3  1  0
  5  4  1  0
  5  6  1  0
  7  6  1  0
  8  2  1  0
  8  9  2  0
 10 11  1  0
 10  8  1  0
 11 12  1  6
 13 12  1  0
 14 13  1  0
 15 14  1  0
 16 15  1  0
 17 18  2  0
 17 11  1  0
 19 20  1  0
 20 21  2  0
 20 22  1  0
 23 22  1  1
 23 24  1  0
 23 25  1  0
 24 17  1  0
 25 27  1  0
 26 25  2  0
M  END
$$$$
