KKN.pdb
     RDKit          3D

 27 26  0  0  1  0  0  0  0  0999 V2000
    9.8994  -15.8488   14.3132 N   0  0  0  0  0  0  0  0  0  0  0  0
   10.7857  -16.7236   15.0362 C   0  0  1  0  0  0  0  0  0  0  0  0
   11.9784  -17.1421   14.1964 C   0  0  0  0  0  0  0  0  0  0  0  0
   11.5384  -17.2429   12.7771 C   0  0  0  0  0  0  0  0  0  0  0  0
   12.2115  -16.3283   11.8170 C   0  0  0  0  0  0  0  0  0  0  0  0
   12.0687  -16.6663   10.3739 C   0  0  0  0  0  0  0  0  0  0  0  0
   12.5298  -15.6834    9.4502 N   0  0  0  0  0  0  0  0  0  0  0  0
   11.2068  -16.0254   16.2927 C   0  0  0  0  0  0  0  0  0  0  0  0
   11.7487  -14.9191   16.1927 O   0  0  0  0  0  0  0  0  0  0  0  0
   10.9980  -16.6005   17.5661 N   0  0  0  0  0  0  0  0  0  0  0  0
   11.4322  -16.1083   18.8163 C   0  0  1  0  0  0  0  0  0  0  0  0
   10.7555  -16.6523   20.0456 C   0  0  0  0  0  0  0  0  0  0  0  0
   11.1630  -16.0677   21.3452 C   0  0  0  0  0  0  0  0  0  0  0  0
   10.4494  -16.7301   22.5340 C   0  0  0  0  0  0  0  0  0  0  0  0
   10.8696  -16.1595   23.8451 C   0  0  0  0  0  0  0  0  0  0  0  0
   10.2060  -16.8584   24.9363 N   0  0  0  0  0  0  0  0  0  0  0  0
   12.8924  -16.0352   19.0147 C   0  0  0  0  0  0  0  0  0  0  0  0
   13.5782  -17.0652   18.8467 O   0  0  0  0  0  0  0  0  0  0  0  0
   17.5137  -14.7190   18.0226 N   0  0  0  0  0  0  0  0  0  0  0  0
   16.5175  -13.7006   17.9405 C   0  0  0  0  0  0  0  0  0  0  0  0
   16.4940  -13.0311   16.8608 O   0  0  0  0  0  0  0  0  0  0  0  0
   15.5932  -13.4806   19.0744 C   0  0  0  0  0  0  0  0  0  0  0  0
   15.0296  -14.7755   19.5255 C   0  0  2  0  0  0  0  0  0  0  0  0
   13.5874  -14.8552   19.3901 N   0  0  0  0  0  0  0  0  0  0  0  0
   15.4585  -15.1613   20.8947 C   0  0  0  0  0  0  0  0  0  0  0  0
   14.7059  -15.2002   21.8928 O   0  0  0  0  0  0  0  0  0  0  0  0
   16.7908  -15.5104   21.1094 O   0  0  0  0  0  0  0  0  0  0  0  0
  2  1  1  6
  3  2  1  0
  4  3  1  0
  5  4  1  0
  5  6  1  0
  7  6  1  0
  8  2  1  0
  8  9  2  0
 10 11  1  0
 10  8  1  0
 11 12  1  1
 13 12  1  0
 14 13  1  0
 15 14  1  0
 16 15  1  0
 17 18  2  0
 17 11  1  0
 19 20  1  0
 20 21  2  0
 20 22  1  0
 23 22  1  1
 23 24  1  0
 23 25  1  0
 24 17  1  0
 25 27  1  0
 26 25  2  0
M  END
$$$$
