KKN.pdb
     RDKit          3D

 27 26  0  0  1  0  0  0  0  0999 V2000
   10.5891  -17.5388   17.2858 N   0  0  0  0  0  0  0  0  0  0  0  0
   11.5925  -18.3323   17.9469 C   0  0  1  0  0  0  0  0  0  0  0  0
   12.8395  -18.4921   17.0969 C   0  0  0  0  0  0  0  0  0  0  0  0
   12.4196  -18.6562   15.6774 C   0  0  0  0  0  0  0  0  0  0  0  0
   13.5127  -18.8733   14.6929 C   0  0  0  0  0  0  0  0  0  0  0  0
   13.0932  -19.1133   13.2844 C   0  0  0  0  0  0  0  0  0  0  0  0
   14.1336  -19.1088   12.3100 N   0  0  0  0  0  0  0  0  0  0  0  0
   11.8965  -17.6932   19.2670 C   0  0  0  0  0  0  0  0  0  0  0  0
   12.5035  -16.6166   19.2689 O   0  0  0  0  0  0  0  0  0  0  0  0
   11.5076  -18.2904   20.4869 N   0  0  0  0  0  0  0  0  0  0  0  0
   11.7689  -17.8281   21.7953 C   0  0  1  0  0  0  0  0  0  0  0  0
   10.9901  -18.4577   22.9187 C   0  0  0  0  0  0  0  0  0  0  0  0
    9.5124  -18.4154   22.8115 C   0  0  0  0  0  0  0  0  0  0  0  0
    8.8484  -19.6794   23.3793 C   0  0  0  0  0  0  0  0  0  0  0  0
    7.3604  -19.5971   23.3737 C   0  0  0  0  0  0  0  0  0  0  0  0
    6.7857  -20.7952   23.9685 N   0  0  0  0  0  0  0  0  0  0  0  0
   13.1907  -17.6859   22.1627 C   0  0  0  0  0  0  0  0  0  0  0  0
   13.9912  -18.5901   21.8449 O   0  0  0  0  0  0  0  0  0  0  0  0
   17.7941  -16.0912   23.5362 N   0  0  0  0  0  0  0  0  0  0  0  0
   17.1102  -14.9921   22.9355 C   0  0  0  0  0  0  0  0  0  0  0  0
   17.8336  -14.0027   22.6005 O   0  0  0  0  0  0  0  0  0  0  0  0
   15.6453  -15.0543   22.7386 C   0  0  0  0  0  0  0  0  0  0  0  0
   15.1386  -16.3904   23.1338 C   0  0  2  0  0  0  0  0  0  0  0  0
   13.7247  -16.5734   22.8654 N   0  0  0  0  0  0  0  0  0  0  0  0
   15.4665  -16.7553   24.5362 C   0  0  0  0  0  0  0  0  0  0  0  0
   16.6226  -16.7895   25.0119 O   0  0  0  0  0  0  0  0  0  0  0  0
   14.4287  -17.0871   25.4055 O   0  0  0  0  0  0  0  0  0  0  0  0
  2  1  1  6
  3  2  1  0
  4  3  1  0
  5  4  1  0
  5  6  1  0
  7  6  1  0
  8  2  1  0
  8  9  2  0
 10 11  1  0
 10  8  1  0
 11 12  1  1
 13 12  1  0
 14 13  1  0
 15 14  1  0
 16 15  1  0
 17 18  2  0
 17 11  1  0
 19 20  1  0
 20 21  2  0
 20 22  1  0
 23 22  1  1
 23 24  1  0
 23 25  1  0
 24 17  1  0
 25 27  1  0
 26 25  2  0
M  END
$$$$
