KKN.pdb
     RDKit          3D

 27 26  0  0  1  0  0  0  0  0999 V2000
    9.1427  -16.0054   17.5256 N   0  0  0  0  0  0  0  0  0  0  0  0
    8.9828  -14.8053   18.3051 C   0  0  1  0  0  0  0  0  0  0  0  0
    7.8633  -13.9293   17.7736 C   0  0  0  0  0  0  0  0  0  0  0  0
    7.6559  -14.2569   16.3356 C   0  0  0  0  0  0  0  0  0  0  0  0
    7.8304  -13.1335   15.3770 C   0  0  0  0  0  0  0  0  0  0  0  0
    7.5159  -13.4283   13.9517 C   0  0  0  0  0  0  0  0  0  0  0  0
    7.6895  -12.3509   13.0346 N   0  0  0  0  0  0  0  0  0  0  0  0
    8.7500  -15.2030   19.7302 C   0  0  0  0  0  0  0  0  0  0  0  0
    8.6582  -14.3090   20.5787 O   0  0  0  0  0  0  0  0  0  0  0  0
    8.6356  -16.5583   20.1125 N   0  0  0  0  0  0  0  0  0  0  0  0
    8.6037  -17.0851   21.4222 C   0  0  1  0  0  0  0  0  0  0  0  0
    7.8175  -18.3500   21.6389 C   0  0  0  0  0  0  0  0  0  0  0  0
    7.7548  -18.8669   23.0266 C   0  0  0  0  0  0  0  0  0  0  0  0
    7.0196  -20.2132   23.1167 C   0  0  0  0  0  0  0  0  0  0  0  0
    7.0088  -20.7690   24.4994 C   0  0  0  0  0  0  0  0  0  0  0  0
    6.4830  -22.1266   24.4942 N   0  0  0  0  0  0  0  0  0  0  0  0
    9.8970  -17.1480   22.1294 C   0  0  0  0  0  0  0  0  0  0  0  0
   10.0742  -18.0365   22.9888 O   0  0  0  0  0  0  0  0  0  0  0  0
   12.9973  -14.2394   19.8595 N   0  0  0  0  0  0  0  0  0  0  0  0
   13.3211  -15.3932   20.6342 C   0  0  0  0  0  0  0  0  0  0  0  0
   13.6687  -16.4243   19.9780 O   0  0  0  0  0  0  0  0  0  0  0  0
   13.2398  -15.3365   22.1102 C   0  0  0  0  0  0  0  0  0  0  0  0
   12.2440  -16.3198   22.5996 C   0  0  2  0  0  0  0  0  0  0  0  0
   10.9756  -16.2536   21.8987 N   0  0  0  0  0  0  0  0  0  0  0  0
   12.0429  -16.2742   24.0710 C   0  0  0  0  0  0  0  0  0  0  0  0
   10.9382  -16.1124   24.6346 O   0  0  0  0  0  0  0  0  0  0  0  0
   13.1491  -16.4204   24.9064 O   0  0  0  0  0  0  0  0  0  0  0  0
  2  1  1  6
  3  2  1  0
  4  3  1  0
  5  4  1  0
  5  6  1  0
  7  6  1  0
  8  2  1  0
  8  9  2  0
 10 11  1  0
 10  8  1  0
 11 12  1  6
 13 12  1  0
 14 13  1  0
 15 14  1  0
 16 15  1  0
 17 18  2  0
 17 11  1  0
 19 20  1  0
 20 21  2  0
 20 22  1  0
 23 22  1  6
 23 24  1  0
 23 25  1  0
 24 17  1  0
 25 27  1  0
 26 25  2  0
M  END
$$$$
