TMY.pdb
     RDKit          3D

 28 28  0  0  1  0  0  0  0  0999 V2000
   28.4629  -18.3067  -15.7507 C   0  0  0  0  0  0  0  0  0  0  0  0
   27.3683  -18.9816  -14.9580 C   0  0  1  0  0  0  0  0  0  0  0  0
   26.1311  -18.7964  -15.5338 O   0  0  0  0  0  0  0  0  0  0  0  0
   27.6969  -20.4235  -14.6808 C   0  0  2  0  0  0  0  0  0  0  0  0
   27.5735  -21.2232  -15.8970 N   0  0  0  0  0  0  0  0  0  0  0  0
   26.7657  -20.9637  -13.6735 C   0  0  0  0  0  0  0  0  0  0  0  0
   25.7838  -21.6384  -14.0546 O   0  0  0  0  0  0  0  0  0  0  0  0
   27.7821  -20.1273   -7.5509 C   0  0  0  0  0  0  0  0  0  0  0  0
   26.0952  -20.6911   -7.2943 S   0  0  0  0  0  0  0  0  0  0  0  0
   25.2962  -21.1227   -8.8989 C   0  0  0  0  0  0  0  0  0  0  0  0
   26.3155  -20.7791   -9.9472 C   0  0  0  0  0  0  0  0  0  0  0  0
   25.8718  -21.0441  -11.3443 C   0  0  2  0  0  0  0  0  0  0  0  0
   26.9397  -20.7482  -12.2884 N   0  0  0  0  0  0  0  0  0  0  0  0
   24.6251  -20.3435  -11.7319 C   0  0  0  0  0  0  0  0  0  0  0  0
   24.5054  -19.0990  -11.7952 O   0  0  0  0  0  0  0  0  0  0  0  0
   22.8864  -22.4419  -18.4751 O   0  0  0  0  0  0  0  0  0  0  0  0
   22.7742  -21.7263  -17.2945 C   0  0  0  0  0  0  0  0  0  0  0  0
   23.8721  -21.1123  -16.7329 C   0  0  0  0  0  0  0  0  0  0  0  0
   23.7343  -20.3990  -15.5462 C   0  0  0  0  0  0  0  0  0  0  0  0
   22.5170  -20.2866  -14.9075 C   0  0  0  0  0  0  0  0  0  0  0  0
   22.3899  -19.5278  -13.6525 C   0  0  0  0  0  0  0  0  0  0  0  0
   22.2002  -20.4169  -12.4437 C   0  0  2  0  0  0  0  0  0  0  0  0
   23.4317  -21.0797  -12.0718 N   0  0  0  0  0  0  0  0  0  0  0  0
   21.0978  -21.3926  -12.6322 C   0  0  0  0  0  0  0  0  0  0  0  0
   19.9172  -21.0825  -12.8283 O   0  0  0  0  0  0  0  0  0  0  0  0
   21.4396  -20.9135  -15.4975 C   0  0  0  0  0  0  0  0  0  0  0  0
   21.5512  -21.6268  -16.6742 C   0  0  0  0  0  0  0  0  0  0  0  0
   21.4120  -22.7446  -12.5853 O   0  0  0  0  0  0  0  0  0  0  0  0
  2  1  1  6
  2  4  1  0
  3  2  1  0
  4  6  1  0
  4  5  1  6
  6  7  2  0
  9  8  1  0
 10  9  1  0
 11 10  1  0
 12 11  1  1
 13 12  1  0
 13  6  1  0
 14 15  2  0
 14 12  1  0
 16 17  1  0
 17 27  2  0
 17 18  1  0
 18 19  2  0
 19 20  1  0
 20 21  1  0
 22 21  1  6
 22 23  1  0
 22 24  1  0
 23 14  1  0
 24 28  1  0
 25 24  2  0
 26 20  2  0
 27 26  1  0
M  END
$$$$
