TMY.pdb
     RDKit          3D

 28 28  0  0  1  0  0  0  0  0999 V2000
   17.5597  -12.2141  -14.9892 C   0  0  0  0  0  0  0  0  0  0  0  0
   18.4810  -11.2157  -15.6500 C   0  0  1  0  0  0  0  0  0  0  0  0
   19.6093  -11.8195  -16.1586 O   0  0  0  0  0  0  0  0  0  0  0  0
   17.7462  -10.3658  -16.6508 C   0  0  2  0  0  0  0  0  0  0  0  0
   17.2809  -11.1771  -17.7730 N   0  0  0  0  0  0  0  0  0  0  0  0
   18.6448   -9.3208  -17.1746 C   0  0  0  0  0  0  0  0  0  0  0  0
   19.1995   -9.4964  -18.2819 O   0  0  0  0  0  0  0  0  0  0  0  0
   17.7369   -3.1424  -13.8777 C   0  0  0  0  0  0  0  0  0  0  0  0
   18.3063   -3.6979  -15.4891 S   0  0  0  0  0  0  0  0  0  0  0  0
   18.9615   -5.4188  -15.3963 C   0  0  0  0  0  0  0  0  0  0  0  0
   19.3497   -5.7651  -16.8053 C   0  0  0  0  0  0  0  0  0  0  0  0
   19.8648   -7.1522  -16.9763 C   0  0  2  0  0  0  0  0  0  0  0  0
   18.9051   -8.1236  -16.4718 N   0  0  0  0  0  0  0  0  0  0  0  0
   21.2021   -7.3842  -16.3818 C   0  0  0  0  0  0  0  0  0  0  0  0
   21.3959   -7.9305  -15.2722 O   0  0  0  0  0  0  0  0  0  0  0  0
   28.9244  -11.1029  -15.8862 O   0  0  0  0  0  0  0  0  0  0  0  0
   27.6529  -10.5882  -16.0780 C   0  0  0  0  0  0  0  0  0  0  0  0
   26.8185  -10.3484  -15.0086 C   0  0  0  0  0  0  0  0  0  0  0  0
   25.5454   -9.8309  -15.2266 C   0  0  0  0  0  0  0  0  0  0  0  0
   25.0881   -9.5475  -16.4967 C   0  0  0  0  0  0  0  0  0  0  0  0
   23.7380   -9.0005  -16.7085 C   0  0  0  0  0  0  0  0  0  0  0  0
   23.7079   -7.4882  -16.7021 C   0  0  2  0  0  0  0  0  0  0  0  0
   22.4038   -6.9802  -17.0705 N   0  0  0  0  0  0  0  0  0  0  0  0
   24.7749   -6.9020  -17.5509 C   0  0  0  0  0  0  0  0  0  0  0  0
   24.6371   -6.6139  -18.7453 O   0  0  0  0  0  0  0  0  0  0  0  0
   25.9495   -9.7998  -17.5436 C   0  0  0  0  0  0  0  0  0  0  0  0
   27.2169  -10.3128  -17.3526 C   0  0  0  0  0  0  0  0  0  0  0  0
   26.0110   -6.6605  -16.9659 O   0  0  0  0  0  0  0  0  0  0  0  0
  2  1  1  6
  2  4  1  0
  3  2  1  0
  4  6  1  0
  4  5  1  6
  6  7  2  0
  9  8  1  0
 10  9  1  0
 11 10  1  0
 12 11  1  1
 13 12  1  0
 13  6  1  0
 14 15  2  0
 14 12  1  0
 16 17  1  0
 17 27  2  0
 17 18  1  0
 18 19  2  0
 19 20  1  0
 20 21  1  0
 22 21  1  6
 22 23  1  0
 22 24  1  0
 23 14  1  0
 24 28  1  0
 25 24  2  0
 26 20  2  0
 27 26  1  0
M  END
$$$$
