TMY.pdb
     RDKit          3D

 28 28  0  0  1  0  0  0  0  0999 V2000
   28.6759  -18.9231  -16.2419 C   0  0  0  0  0  0  0  0  0  0  0  0
   27.4824  -19.4073  -15.4525 C   0  0  1  0  0  0  0  0  0  0  0  0
   26.3190  -19.3302  -16.1853 O   0  0  0  0  0  0  0  0  0  0  0  0
   27.7313  -20.7650  -14.8536 C   0  0  2  0  0  0  0  0  0  0  0  0
   27.8200  -21.7812  -15.8993 N   0  0  0  0  0  0  0  0  0  0  0  0
   26.6227  -21.1238  -13.9504 C   0  0  0  0  0  0  0  0  0  0  0  0
   25.7074  -21.8623  -14.3764 O   0  0  0  0  0  0  0  0  0  0  0  0
   25.4889  -20.1712   -7.4411 C   0  0  0  0  0  0  0  0  0  0  0  0
   27.0787  -20.7213   -8.0730 S   0  0  0  0  0  0  0  0  0  0  0  0
   26.9188  -21.3409   -9.8022 C   0  0  0  0  0  0  0  0  0  0  0  0
   25.6974  -20.6593  -10.3496 C   0  0  0  0  0  0  0  0  0  0  0  0
   25.4061  -20.9750  -11.7758 C   0  0  2  0  0  0  0  0  0  0  0  0
   26.5532  -20.6642  -12.6166 N   0  0  0  0  0  0  0  0  0  0  0  0
   24.1820  -20.3300  -12.3059 C   0  0  0  0  0  0  0  0  0  0  0  0
   24.1732  -19.2609  -12.9573 O   0  0  0  0  0  0  0  0  0  0  0  0
   21.0450  -16.8810  -18.0963 O   0  0  0  0  0  0  0  0  0  0  0  0
   21.3277  -17.8970  -17.1984 C   0  0  0  0  0  0  0  0  0  0  0  0
   22.5811  -18.0186  -16.6401 C   0  0  0  0  0  0  0  0  0  0  0  0
   22.8410  -19.0477  -15.7404 C   0  0  0  0  0  0  0  0  0  0  0  0
   21.8696  -19.9607  -15.3863 C   0  0  0  0  0  0  0  0  0  0  0  0
   22.1624  -21.0433  -14.4327 C   0  0  0  0  0  0  0  0  0  0  0  0
   21.7815  -20.6945  -13.0111 C   0  0  2  0  0  0  0  0  0  0  0  0
   22.8805  -20.9161  -12.0959 N   0  0  0  0  0  0  0  0  0  0  0  0
   20.5575  -21.4070  -12.5672 C   0  0  0  0  0  0  0  0  0  0  0  0
   19.4574  -21.3178  -13.1242 O   0  0  0  0  0  0  0  0  0  0  0  0
   20.6266  -19.8091  -15.9641 C   0  0  0  0  0  0  0  0  0  0  0  0
   20.3447  -18.7965  -16.8592 C   0  0  0  0  0  0  0  0  0  0  0  0
   20.6529  -22.2290  -11.4519 O   0  0  0  0  0  0  0  0  0  0  0  0
  2  1  1  6
  2  4  1  0
  3  2  1  0
  4  6  1  0
  4  5  1  6
  6  7  2  0
  9  8  1  0
 10  9  1  0
 11 10  1  0
 12 11  1  1
 13 12  1  0
 13  6  1  0
 14 15  2  0
 14 12  1  0
 16 17  1  0
 17 27  2  0
 17 18  1  0
 18 19  2  0
 19 20  1  0
 20 21  1  0
 22 21  1  6
 22 23  1  0
 22 24  1  0
 23 14  1  0
 24 28  1  0
 25 24  2  0
 26 20  2  0
 27 26  1  0
M  END
$$$$
