TMY.pdb
     RDKit          3D

 28 28  0  0  1  0  0  0  0  0999 V2000
   28.3467  -18.9116  -15.6526 C   0  0  0  0  0  0  0  0  0  0  0  0
   27.2760  -19.3311  -14.6728 C   0  0  1  0  0  0  0  0  0  0  0  0
   26.0116  -19.1343  -15.1816 O   0  0  0  0  0  0  0  0  0  0  0  0
   27.5123  -20.7264  -14.1618 C   0  0  2  0  0  0  0  0  0  0  0  0
   27.3339  -21.7043  -15.2322 N   0  0  0  0  0  0  0  0  0  0  0  0
   26.5514  -21.0344  -13.0868 C   0  0  0  0  0  0  0  0  0  0  0  0
   25.5953  -21.8035  -13.3292 O   0  0  0  0  0  0  0  0  0  0  0  0
   26.5768  -19.0613   -6.8774 C   0  0  0  0  0  0  0  0  0  0  0  0
   27.8297  -20.2404   -7.3962 S   0  0  0  0  0  0  0  0  0  0  0  0
   27.3601  -21.0378   -8.9909 C   0  0  0  0  0  0  0  0  0  0  0  0
   26.1170  -20.3209   -9.4345 C   0  0  0  0  0  0  0  0  0  0  0  0
   25.6335  -20.7117  -10.7881 C   0  0  2  0  0  0  0  0  0  0  0  0
   26.6688  -20.4923  -11.7878 N   0  0  0  0  0  0  0  0  0  0  0  0
   24.3683  -20.0577  -11.1966 C   0  0  0  0  0  0  0  0  0  0  0  0
   24.3034  -19.0165  -11.8886 O   0  0  0  0  0  0  0  0  0  0  0  0
   21.2549  -17.5999  -17.3113 O   0  0  0  0  0  0  0  0  0  0  0  0
   21.4979  -18.4764  -16.2667 C   0  0  0  0  0  0  0  0  0  0  0  0
   20.4634  -19.1444  -15.6492 C   0  0  0  0  0  0  0  0  0  0  0  0
   20.7326  -20.0199  -14.6019 C   0  0  0  0  0  0  0  0  0  0  0  0
   22.0196  -20.2418  -14.1579 C   0  0  0  0  0  0  0  0  0  0  0  0
   22.2857  -21.1718  -13.0482 C   0  0  0  0  0  0  0  0  0  0  0  0
   21.9467  -20.5865  -11.6954 C   0  0  2  0  0  0  0  0  0  0  0  0
   23.0895  -20.6009  -10.8076 N   0  0  0  0  0  0  0  0  0  0  0  0
   20.7729  -21.2499  -11.0750 C   0  0  0  0  0  0  0  0  0  0  0  0
   19.6507  -20.7395  -10.9829 O   0  0  0  0  0  0  0  0  0  0  0  0
   23.0304  -19.5567  -14.7986 C   0  0  0  0  0  0  0  0  0  0  0  0
   22.7884  -18.6830  -15.8398 C   0  0  0  0  0  0  0  0  0  0  0  0
   20.9453  -22.5294  -10.5634 O   0  0  0  0  0  0  0  0  0  0  0  0
  2  1  1  6
  2  4  1  0
  3  2  1  0
  4  6  1  0
  4  5  1  6
  6  7  2  0
  9  8  1  0
 10  9  1  0
 11 10  1  0
 12 11  1  1
 13 12  1  0
 13  6  1  0
 14 15  2  0
 14 12  1  0
 16 17  1  0
 17 27  2  0
 17 18  1  0
 18 19  2  0
 19 20  1  0
 20 21  1  0
 22 21  1  6
 22 23  1  0
 22 24  1  0
 23 14  1  0
 24 28  1  0
 25 24  2  0
 26 20  2  0
 27 26  1  0
M  END
$$$$
