TMY.pdb
     RDKit          3D

 28 28  0  0  1  0  0  0  0  0999 V2000
   17.5738   -8.9762  -17.5207 C   0  0  0  0  0  0  0  0  0  0  0  0
   16.9515  -10.0373  -16.6437 C   0  0  1  0  0  0  0  0  0  0  0  0
   15.7880  -10.5333  -17.1882 O   0  0  0  0  0  0  0  0  0  0  0  0
   17.9486  -11.1018  -16.2744 C   0  0  2  0  0  0  0  0  0  0  0  0
   17.3494  -12.0765  -15.3663 N   0  0  0  0  0  0  0  0  0  0  0  0
   19.1070  -10.4890  -15.5989 C   0  0  0  0  0  0  0  0  0  0  0  0
   19.0010  -10.1502  -14.3995 O   0  0  0  0  0  0  0  0  0  0  0  0
   26.7938  -10.5390  -14.6819 C   0  0  0  0  0  0  0  0  0  0  0  0
   25.3225  -10.9084  -15.6452 S   0  0  0  0  0  0  0  0  0  0  0  0
   23.9357   -9.7851  -15.1821 C   0  0  0  0  0  0  0  0  0  0  0  0
   22.7315  -10.3405  -15.8874 C   0  0  0  0  0  0  0  0  0  0  0  0
   21.4554   -9.6437  -15.5636 C   0  0  2  0  0  0  0  0  0  0  0  0
   20.3377  -10.2684  -16.2562 N   0  0  0  0  0  0  0  0  0  0  0  0
   21.4755   -8.1842  -15.8181 C   0  0  0  0  0  0  0  0  0  0  0  0
   21.5565   -7.6671  -16.9553 O   0  0  0  0  0  0  0  0  0  0  0  0
   20.4910    0.4988  -15.3143 O   0  0  0  0  0  0  0  0  0  0  0  0
   20.4358   -0.8685  -15.1004 C   0  0  0  0  0  0  0  0  0  0  0  0
   20.7994   -1.4096  -13.8869 C   0  0  0  0  0  0  0  0  0  0  0  0
   20.7354   -2.7863  -13.6961 C   0  0  0  0  0  0  0  0  0  0  0  0
   20.3138   -3.6360  -14.6975 C   0  0  0  0  0  0  0  0  0  0  0  0
   20.2524   -5.0903  -14.4778 C   0  0  0  0  0  0  0  0  0  0  0  0
   21.4965   -5.8099  -14.9492 C   0  0  2  0  0  0  0  0  0  0  0  0
   21.4004   -7.2375  -14.7318 N   0  0  0  0  0  0  0  0  0  0  0  0
   22.7309   -5.2535  -14.3414 C   0  0  0  0  0  0  0  0  0  0  0  0
   23.5170   -4.4985  -14.9250 O   0  0  0  0  0  0  0  0  0  0  0  0
   19.9575   -3.0605  -15.8990 C   0  0  0  0  0  0  0  0  0  0  0  0
   20.0125   -1.6976  -16.1123 C   0  0  0  0  0  0  0  0  0  0  0  0
   23.0237   -5.6033  -13.0297 O   0  0  0  0  0  0  0  0  0  0  0  0
  2  1  1  6
  2  4  1  0
  3  2  1  0
  4  6  1  0
  4  5  1  1
  6  7  2  0
  9  8  1  0
 10  9  1  0
 11 10  1  0
 12 11  1  6
 13 12  1  0
 13  6  1  0
 14 15  2  0
 14 12  1  0
 16 17  1  0
 17 27  2  0
 17 18  1  0
 18 19  2  0
 19 20  1  0
 20 21  1  0
 22 21  1  1
 22 23  1  0
 22 24  1  0
 23 14  1  0
 24 28  1  0
 25 24  2  0
 26 20  2  0
 27 26  1  0
M  END
$$$$
