TMY.pdb
     RDKit          3D

 28 28  0  0  1  0  0  0  0  0999 V2000
   22.8436  -11.2049  -15.6134 C   0  0  0  0  0  0  0  0  0  0  0  0
   22.4524   -9.9575  -14.8562 C   0  0  1  0  0  0  0  0  0  0  0  0
   22.7937   -8.8139  -15.5433 O   0  0  0  0  0  0  0  0  0  0  0  0
   21.0098  -10.0002  -14.4311 C   0  0  2  0  0  0  0  0  0  0  0  0
   20.1275   -9.8977  -15.5907 N   0  0  0  0  0  0  0  0  0  0  0  0
   20.7215   -8.8717  -13.5272 C   0  0  0  0  0  0  0  0  0  0  0  0
   21.3362   -8.7917  -12.4408 O   0  0  0  0  0  0  0  0  0  0  0  0
   22.6905   -3.0412  -15.1405 C   0  0  0  0  0  0  0  0  0  0  0  0
   21.0857   -3.4734  -14.4572 S   0  0  0  0  0  0  0  0  0  0  0  0
   21.0834   -5.2088  -13.8344 C   0  0  0  0  0  0  0  0  0  0  0  0
   19.6574   -5.4839  -13.4510 C   0  0  0  0  0  0  0  0  0  0  0  0
   19.4271   -6.8388  -12.8768 C   0  0  2  0  0  0  0  0  0  0  0  0
   19.7738   -7.8725  -13.8414 N   0  0  0  0  0  0  0  0  0  0  0  0
   18.0585   -7.0545  -12.3516 C   0  0  0  0  0  0  0  0  0  0  0  0
   17.0607   -7.3064  -13.0645 O   0  0  0  0  0  0  0  0  0  0  0  0
   11.0361   -7.7026   -7.0756 O   0  0  0  0  0  0  0  0  0  0  0  0
   12.3338   -7.6608   -7.5579 C   0  0  0  0  0  0  0  0  0  0  0  0
   12.8196   -8.6635   -8.3680 C   0  0  0  0  0  0  0  0  0  0  0  0
   14.1268   -8.5992   -8.8402 C   0  0  0  0  0  0  0  0  0  0  0  0
   14.9610   -7.5491   -8.5179 C   0  0  0  0  0  0  0  0  0  0  0  0
   16.3414   -7.4976   -9.0267 C   0  0  0  0  0  0  0  0  0  0  0  0
   16.4342   -6.9144  -10.4192 C   0  0  2  0  0  0  0  0  0  0  0  0
   17.7838   -6.9848  -10.9369 N   0  0  0  0  0  0  0  0  0  0  0  0
   15.9027   -5.5302  -10.4844 C   0  0  0  0  0  0  0  0  0  0  0  0
   16.5520   -4.5189  -10.1945 O   0  0  0  0  0  0  0  0  0  0  0  0
   14.4420   -6.5632   -7.7053 C   0  0  0  0  0  0  0  0  0  0  0  0
   13.1486   -6.6047   -7.2244 C   0  0  0  0  0  0  0  0  0  0  0  0
   14.5884   -5.3580  -10.8987 O   0  0  0  0  0  0  0  0  0  0  0  0
  2  1  1  6
  2  4  1  0
  3  2  1  0
  4  6  1  0
  4  5  1  6
  6  7  2  0
  9  8  1  0
 10  9  1  0
 11 10  1  0
 12 11  1  6
 13 12  1  0
 13  6  1  0
 14 15  2  0
 14 12  1  0
 16 17  1  0
 17 27  2  0
 17 18  1  0
 18 19  2  0
 19 20  1  0
 20 21  1  0
 22 21  1  1
 22 23  1  0
 22 24  1  0
 23 14  1  0
 24 28  1  0
 25 24  2  0
 26 20  2  0
 27 26  1  0
M  END
$$$$
