TMY.pdb
     RDKit          3D

 28 28  0  0  1  0  0  0  0  0999 V2000
   28.0393  -23.3307  -17.1627 C   0  0  0  0  0  0  0  0  0  0  0  0
   28.9904  -22.5068  -17.9986 C   0  0  1  0  0  0  0  0  0  0  0  0
   29.8169  -23.2992  -18.7636 O   0  0  0  0  0  0  0  0  0  0  0  0
   28.2605  -21.4544  -18.7883 C   0  0  2  0  0  0  0  0  0  0  0  0
   29.2055  -20.5789  -19.4770 N   0  0  0  0  0  0  0  0  0  0  0  0
   27.4391  -20.6301  -17.8828 C   0  0  0  0  0  0  0  0  0  0  0  0
   27.9618  -19.6443  -17.3177 O   0  0  0  0  0  0  0  0  0  0  0  0
   20.1917  -18.1246  -16.2126 C   0  0  0  0  0  0  0  0  0  0  0  0
   21.4103  -18.9965  -17.2046 S   0  0  0  0  0  0  0  0  0  0  0  0
   23.0303  -19.0819  -16.3285 C   0  0  0  0  0  0  0  0  0  0  0  0
   23.9321  -19.8526  -17.2499 C   0  0  0  0  0  0  0  0  0  0  0  0
   25.3019  -20.0864  -16.7135 C   0  0  2  0  0  0  0  0  0  0  0  0
   26.0787  -20.9114  -17.6274 N   0  0  0  0  0  0  0  0  0  0  0  0
   25.3328  -20.6542  -15.3453 C   0  0  0  0  0  0  0  0  0  0  0  0
   24.9699  -21.8167  -15.0552 O   0  0  0  0  0  0  0  0  0  0  0  0
   26.4205  -21.1117   -6.5467 O   0  0  0  0  0  0  0  0  0  0  0  0
   26.4995  -20.7380   -7.8781 C   0  0  0  0  0  0  0  0  0  0  0  0
   25.8323  -19.6252   -8.3408 C   0  0  0  0  0  0  0  0  0  0  0  0
   25.9269  -19.2699   -9.6828 C   0  0  0  0  0  0  0  0  0  0  0  0
   26.6777  -20.0072  -10.5745 C   0  0  0  0  0  0  0  0  0  0  0  0
   26.7664  -19.6164  -11.9910 C   0  0  0  0  0  0  0  0  0  0  0  0
   25.8279  -20.4032  -12.8786 C   0  0  2  0  0  0  0  0  0  0  0  0
   25.7996  -19.8736  -14.2252 N   0  0  0  0  0  0  0  0  0  0  0  0
   24.4615  -20.4972  -12.3069 C   0  0  0  0  0  0  0  0  0  0  0  0
   24.0894  -21.3846  -11.5307 O   0  0  0  0  0  0  0  0  0  0  0  0
   27.3321  -21.1145  -10.0772 C   0  0  0  0  0  0  0  0  0  0  0  0
   27.2536  -21.4871   -8.7502 C   0  0  0  0  0  0  0  0  0  0  0  0
   23.5384  -19.5242  -12.6669 O   0  0  0  0  0  0  0  0  0  0  0  0
  2  1  1  6
  2  4  1  0
  3  2  1  0
  4  6  1  0
  4  5  1  1
  6  7  2  0
  9  8  1  0
 10  9  1  0
 11 10  1  0
 12 11  1  6
 13 12  1  0
 13  6  1  0
 14 15  2  0
 14 12  1  0
 16 17  1  0
 17 27  2  0
 17 18  1  0
 18 19  2  0
 19 20  1  0
 20 21  1  0
 22 21  1  1
 22 23  1  0
 22 24  1  0
 23 14  1  0
 24 28  1  0
 25 24  2  0
 26 20  2  0
 27 26  1  0
M  END
$$$$
