TMY.pdb
     RDKit          3D

 28 28  0  0  1  0  0  0  0  0999 V2000
   12.9578  -19.7853    0.8671 C   0  0  0  0  0  0  0  0  0  0  0  0
   14.0374  -19.5314    1.8929 C   0  0  1  0  0  0  0  0  0  0  0  0
   14.6579  -18.3185    1.6931 O   0  0  0  0  0  0  0  0  0  0  0  0
   13.5233  -19.7246    3.2938 C   0  0  2  0  0  0  0  0  0  0  0  0
   12.4867  -18.7427    3.6023 N   0  0  0  0  0  0  0  0  0  0  0  0
   14.6253  -19.5549    4.2584 C   0  0  0  0  0  0  0  0  0  0  0  0
   14.5423  -18.6545    5.1227 O   0  0  0  0  0  0  0  0  0  0  0  0
   21.1177  -23.0335    7.2207 C   0  0  0  0  0  0  0  0  0  0  0  0
   19.7693  -22.9233    6.0381 S   0  0  0  0  0  0  0  0  0  0  0  0
   18.8249  -21.3559    6.2639 C   0  0  0  0  0  0  0  0  0  0  0  0
   17.7206  -21.4158    5.2474 C   0  0  0  0  0  0  0  0  0  0  0  0
   16.7972  -20.2474    5.2753 C   0  0  2  0  0  0  0  0  0  0  0  0
   15.7766  -20.3731    4.2448 N   0  0  0  0  0  0  0  0  0  0  0  0
   17.4737  -18.9326    5.1807 C   0  0  0  0  0  0  0  0  0  0  0  0
   17.9674  -18.4671    4.1286 O   0  0  0  0  0  0  0  0  0  0  0  0
   20.0212  -10.6541    6.1198 O   0  0  0  0  0  0  0  0  0  0  0  0
   19.3728  -11.8778    6.1392 C   0  0  0  0  0  0  0  0  0  0  0  0
   19.1958  -12.5655    7.3196 C   0  0  0  0  0  0  0  0  0  0  0  0
   18.5412  -13.7933    7.3137 C   0  0  0  0  0  0  0  0  0  0  0  0
   18.0583  -14.3493    6.1475 C   0  0  0  0  0  0  0  0  0  0  0  0
   17.3682  -15.6496    6.1602 C   0  0  0  0  0  0  0  0  0  0  0  0
   18.3190  -16.8196    6.2821 C   0  0  2  0  0  0  0  0  0  0  0  0
   17.6087  -18.0793    6.3363 N   0  0  0  0  0  0  0  0  0  0  0  0
   19.2453  -16.6724    7.4323 C   0  0  0  0  0  0  0  0  0  0  0  0
   19.0298  -17.1215    8.5638 O   0  0  0  0  0  0  0  0  0  0  0  0
   18.2529  -13.6340    4.9847 C   0  0  0  0  0  0  0  0  0  0  0  0
   18.8992  -12.4142    4.9651 C   0  0  0  0  0  0  0  0  0  0  0  0
   20.4339  -15.9846    7.2252 O   0  0  0  0  0  0  0  0  0  0  0  0
  2  1  1  6
  2  4  1  0
  3  2  1  0
  4  6  1  0
  4  5  1  1
  6  7  2  0
  9  8  1  0
 10  9  1  0
 11 10  1  0
 12 11  1  6
 13 12  1  0
 13  6  1  0
 14 15  2  0
 14 12  1  0
 16 17  1  0
 17 27  2  0
 17 18  1  0
 18 19  2  0
 19 20  1  0
 20 21  1  0
 22 21  1  1
 22 23  1  0
 22 24  1  0
 23 14  1  0
 24 28  1  0
 25 24  2  0
 26 20  2  0
 27 26  1  0
M  END
$$$$
