TMY.pdb
     RDKit          3D

 28 28  0  0  1  0  0  0  0  0999 V2000
   15.0619  -15.1506  -13.8037 C   0  0  0  0  0  0  0  0  0  0  0  0
   15.6816  -13.9217  -14.4265 C   0  0  1  0  0  0  0  0  0  0  0  0
   16.9373  -13.6695  -13.9205 O   0  0  0  0  0  0  0  0  0  0  0  0
   15.6357  -13.9823  -15.9292 C   0  0  2  0  0  0  0  0  0  0  0  0
   16.4908  -15.0565  -16.4279 N   0  0  0  0  0  0  0  0  0  0  0  0
   16.1135  -12.7077  -16.4957 C   0  0  0  0  0  0  0  0  0  0  0  0
   17.1294  -12.7107  -17.2254 O   0  0  0  0  0  0  0  0  0  0  0  0
   11.5234   -8.9961  -17.6208 C   0  0  0  0  0  0  0  0  0  0  0  0
   12.5840   -9.2272  -19.0529 S   0  0  0  0  0  0  0  0  0  0  0  0
   14.0481  -10.2630  -18.6250 C   0  0  0  0  0  0  0  0  0  0  0  0
   14.7211   -9.5391  -17.4941 C   0  0  0  0  0  0  0  0  0  0  0  0
   15.8910  -10.2573  -16.9159 C   0  0  2  0  0  0  0  0  0  0  0  0
   15.4659  -11.4776  -16.2455 N   0  0  0  0  0  0  0  0  0  0  0  0
   16.7287   -9.4324  -16.0141 C   0  0  0  0  0  0  0  0  0  0  0  0
   16.6298   -9.4288  -14.7661 O   0  0  0  0  0  0  0  0  0  0  0  0
   22.8207   -3.4658  -13.5167 O   0  0  0  0  0  0  0  0  0  0  0  0
   22.1132   -4.4562  -14.1778 C   0  0  0  0  0  0  0  0  0  0  0  0
   21.3563   -4.1616  -15.2904 C   0  0  0  0  0  0  0  0  0  0  0  0
   20.6543   -5.1737  -15.9375 C   0  0  0  0  0  0  0  0  0  0  0  0
   20.6939   -6.4789  -15.4933 C   0  0  0  0  0  0  0  0  0  0  0  0
   19.9447   -7.5370  -16.1905 C   0  0  0  0  0  0  0  0  0  0  0  0
   18.5278   -7.6872  -15.6829 C   0  0  2  0  0  0  0  0  0  0  0  0
   17.7447   -8.5526  -16.5387 N   0  0  0  0  0  0  0  0  0  0  0  0
   17.8606   -6.3763  -15.4853 C   0  0  0  0  0  0  0  0  0  0  0  0
   17.2174   -5.7820  -16.3580 O   0  0  0  0  0  0  0  0  0  0  0  0
   21.4613   -6.7379  -14.3771 C   0  0  0  0  0  0  0  0  0  0  0  0
   22.1666   -5.7509  -13.7181 C   0  0  0  0  0  0  0  0  0  0  0  0
   17.9648   -5.7761  -14.2373 O   0  0  0  0  0  0  0  0  0  0  0  0
  2  1  1  1
  2  4  1  0
  3  2  1  0
  4  6  1  0
  4  5  1  6
  6  7  2  0
  9  8  1  0
 10  9  1  0
 11 10  1  0
 12 11  1  1
 13 12  1  0
 13  6  1  0
 14 15  2  0
 14 12  1  0
 16 17  1  0
 17 27  2  0
 17 18  1  0
 18 19  2  0
 19 20  1  0
 20 21  1  0
 22 21  1  6
 22 23  1  0
 22 24  1  0
 23 14  1  0
 24 28  1  0
 25 24  2  0
 26 20  2  0
 27 26  1  0
M  END
$$$$
