TMY.pdb
     RDKit          3D

 28 28  0  0  1  0  0  0  0  0999 V2000
   23.8731   -8.5465  -20.8975 C   0  0  0  0  0  0  0  0  0  0  0  0
   23.1400   -9.8547  -21.0806 C   0  0  1  0  0  0  0  0  0  0  0  0
   22.9725  -10.1653  -22.4117 O   0  0  0  0  0  0  0  0  0  0  0  0
   23.7723  -10.9582  -20.2767 C   0  0  2  0  0  0  0  0  0  0  0  0
   23.0315  -12.2062  -20.4425 N   0  0  0  0  0  0  0  0  0  0  0  0
   23.7661  -10.6013  -18.8462 C   0  0  0  0  0  0  0  0  0  0  0  0
   22.7047  -10.7211  -18.1953 O   0  0  0  0  0  0  0  0  0  0  0  0
   28.5716  -13.5020  -15.3626 C   0  0  0  0  0  0  0  0  0  0  0  0
   28.0014  -11.8008  -15.2624 S   0  0  0  0  0  0  0  0  0  0  0  0
   26.3988  -11.5925  -16.1499 C   0  0  0  0  0  0  0  0  0  0  0  0
   26.0898  -10.1254  -16.0583 C   0  0  0  0  0  0  0  0  0  0  0  0
   24.8570   -9.7117  -16.7848 C   0  0  2  0  0  0  0  0  0  0  0  0
   24.9171  -10.1271  -18.1788 N   0  0  0  0  0  0  0  0  0  0  0  0
   24.5459   -8.2665  -16.6851 C   0  0  0  0  0  0  0  0  0  0  0  0
   24.9964   -7.3925  -17.4600 O   0  0  0  0  0  0  0  0  0  0  0  0
   20.9481   -0.5592  -16.9555 O   0  0  0  0  0  0  0  0  0  0  0  0
   21.3580   -1.8822  -16.9479 C   0  0  0  0  0  0  0  0  0  0  0  0
   22.6903   -2.2102  -17.0702 C   0  0  0  0  0  0  0  0  0  0  0  0
   23.0776   -3.5466  -17.0598 C   0  0  0  0  0  0  0  0  0  0  0  0
   22.1566   -4.5651  -16.9292 C   0  0  0  0  0  0  0  0  0  0  0  0
   22.5846   -5.9736  -16.9203 C   0  0  0  0  0  0  0  0  0  0  0  0
   23.2405   -6.3814  -15.6199 C   0  0  2  0  0  0  0  0  0  0  0  0
   23.6741   -7.7617  -15.6522 N   0  0  0  0  0  0  0  0  0  0  0  0
   22.3721   -6.1159  -14.4459 C   0  0  0  0  0  0  0  0  0  0  0  0
   21.5476   -6.9176  -13.9922 O   0  0  0  0  0  0  0  0  0  0  0  0
   20.8321   -4.2007  -16.8090 C   0  0  0  0  0  0  0  0  0  0  0  0
   20.4233   -2.8820  -16.8166 C   0  0  0  0  0  0  0  0  0  0  0  0
   22.4927   -4.8852  -13.8138 O   0  0  0  0  0  0  0  0  0  0  0  0
  2  1  1  6
  2  4  1  0
  3  2  1  0
  4  6  1  0
  4  5  1  1
  6  7  2  0
  9  8  1  0
 10  9  1  0
 11 10  1  0
 12 11  1  6
 13 12  1  0
 13  6  1  0
 14 15  2  0
 14 12  1  0
 16 17  1  0
 17 27  2  0
 17 18  1  0
 18 19  2  0
 19 20  1  0
 20 21  1  0
 22 21  1  6
 22 23  1  0
 22 24  1  0
 23 14  1  0
 24 28  1  0
 25 24  2  0
 26 20  2  0
 27 26  1  0
M  END
$$$$
