TMY.pdb
     RDKit          3D

 28 28  0  0  1  0  0  0  0  0999 V2000
   27.9195  -18.4650  -14.9062 C   0  0  0  0  0  0  0  0  0  0  0  0
   27.0939  -19.0801  -13.8006 C   0  0  1  0  0  0  0  0  0  0  0  0
   25.7444  -18.9927  -14.0608 O   0  0  0  0  0  0  0  0  0  0  0  0
   27.5584  -20.4738  -13.4756 C   0  0  2  0  0  0  0  0  0  0  0  0
   27.3927  -21.3544  -14.6292 N   0  0  0  0  0  0  0  0  0  0  0  0
   26.7644  -21.0175  -12.3586 C   0  0  0  0  0  0  0  0  0  0  0  0
   25.9087  -21.8987  -12.5946 O   0  0  0  0  0  0  0  0  0  0  0  0
   27.5105  -21.0141   -5.7377 C   0  0  0  0  0  0  0  0  0  0  0  0
   27.4783  -19.4027   -6.5325 S   0  0  0  0  0  0  0  0  0  0  0  0
   26.4581  -19.4483   -8.0676 C   0  0  0  0  0  0  0  0  0  0  0  0
   26.6618  -20.8257   -8.6307 C   0  0  0  0  0  0  0  0  0  0  0  0
   26.0434  -21.0389   -9.9689 C   0  0  2  0  0  0  0  0  0  0  0  0
   26.9330  -20.5803  -11.0261 N   0  0  0  0  0  0  0  0  0  0  0  0
   24.6984  -20.4367  -10.1226 C   0  0  0  0  0  0  0  0  0  0  0  0
   24.3967  -19.2796   -9.7519 O   0  0  0  0  0  0  0  0  0  0  0  0
   20.0142  -17.5652  -16.6453 O   0  0  0  0  0  0  0  0  0  0  0  0
   20.8502  -18.1419  -15.7035 C   0  0  0  0  0  0  0  0  0  0  0  0
   20.3354  -18.7608  -14.5857 C   0  0  0  0  0  0  0  0  0  0  0  0
   21.1955  -19.3329  -13.6536 C   0  0  0  0  0  0  0  0  0  0  0  0
   22.5646  -19.2987  -13.8170 C   0  0  0  0  0  0  0  0  0  0  0  0
   23.4596  -19.9094  -12.8204 C   0  0  0  0  0  0  0  0  0  0  0  0
   22.7116  -20.5651  -11.6810 C   0  0  2  0  0  0  0  0  0  0  0  0
   23.6170  -21.1738  -10.7301 N   0  0  0  0  0  0  0  0  0  0  0  0
   21.6989  -21.5383  -12.1608 C   0  0  0  0  0  0  0  0  0  0  0  0
   20.4812  -21.4249  -11.9796 O   0  0  0  0  0  0  0  0  0  0  0  0
   23.0454  -18.6713  -14.9470 C   0  0  0  0  0  0  0  0  0  0  0  0
   22.2122  -18.0965  -15.8859 C   0  0  0  0  0  0  0  0  0  0  0  0
   22.1476  -22.6509  -12.8603 O   0  0  0  0  0  0  0  0  0  0  0  0
  2  1  1  6
  2  4  1  0
  3  2  1  0
  4  6  1  0
  4  5  1  6
  6  7  2  0
  9  8  1  0
 10  9  1  0
 11 10  1  0
 12 11  1  1
 13 12  1  0
 13  6  1  0
 14 15  2  0
 14 12  1  0
 16 17  1  0
 17 27  2  0
 17 18  1  0
 18 19  2  0
 19 20  1  0
 20 21  1  0
 22 21  1  6
 22 23  1  0
 22 24  1  0
 23 14  1  0
 24 28  1  0
 25 24  2  0
 26 20  2  0
 27 26  1  0
M  END
$$$$
