TMY.pdb
     RDKit          3D

 28 28  0  0  1  0  0  0  0  0999 V2000
   28.4398  -18.6380  -15.7951 C   0  0  0  0  0  0  0  0  0  0  0  0
   27.4088  -19.2812  -14.8976 C   0  0  1  0  0  0  0  0  0  0  0  0
   26.1436  -19.2059  -15.4360 O   0  0  0  0  0  0  0  0  0  0  0  0
   27.8155  -20.6744  -14.5007 C   0  0  2  0  0  0  0  0  0  0  0  0
   27.7491  -21.5771  -15.6473 N   0  0  0  0  0  0  0  0  0  0  0  0
   26.9065  -21.1822  -13.4569 C   0  0  0  0  0  0  0  0  0  0  0  0
   25.9671  -21.9397  -13.7860 O   0  0  0  0  0  0  0  0  0  0  0  0
   26.9859  -18.9493   -7.1906 C   0  0  0  0  0  0  0  0  0  0  0  0
   26.1858  -20.5564   -7.1113 S   0  0  0  0  0  0  0  0  0  0  0  0
   25.3597  -20.9578   -8.7100 C   0  0  0  0  0  0  0  0  0  0  0  0
   26.4201  -20.7653   -9.7563 C   0  0  0  0  0  0  0  0  0  0  0  0
   25.9712  -21.0593  -11.1458 C   0  0  2  0  0  0  0  0  0  0  0  0
   27.0556  -20.8453  -12.0933 N   0  0  0  0  0  0  0  0  0  0  0  0
   24.7592  -20.3174  -11.5654 C   0  0  0  0  0  0  0  0  0  0  0  0
   24.7741  -19.1837  -12.0961 O   0  0  0  0  0  0  0  0  0  0  0  0
   18.2085  -18.5930  -16.7107 O   0  0  0  0  0  0  0  0  0  0  0  0
   19.2757  -19.0518  -15.9563 C   0  0  0  0  0  0  0  0  0  0  0  0
   19.3739  -20.3802  -15.6051 C   0  0  0  0  0  0  0  0  0  0  0  0
   20.4555  -20.8172  -14.8466 C   0  0  0  0  0  0  0  0  0  0  0  0
   21.4442  -19.9500  -14.4308 C   0  0  0  0  0  0  0  0  0  0  0  0
   22.5814  -20.4300  -13.6287 C   0  0  0  0  0  0  0  0  0  0  0  0
   22.2997  -20.4195  -12.1426 C   0  0  2  0  0  0  0  0  0  0  0  0
   23.4421  -20.8770  -11.3810 N   0  0  0  0  0  0  0  0  0  0  0  0
   21.0781  -21.1885  -11.7975 C   0  0  0  0  0  0  0  0  0  0  0  0
   21.0216  -22.4224  -11.7457 O   0  0  0  0  0  0  0  0  0  0  0  0
   21.3140  -18.6277  -14.8002 C   0  0  0  0  0  0  0  0  0  0  0  0
   20.2504  -18.1703  -15.5522 C   0  0  0  0  0  0  0  0  0  0  0  0
   19.9205  -20.4757  -11.5135 O   0  0  0  0  0  0  0  0  0  0  0  0
  2  1  1  6
  2  4  1  0
  3  2  1  0
  4  6  1  0
  4  5  1  6
  6  7  2  0
  9  8  1  0
 10  9  1  0
 11 10  1  0
 12 11  1  1
 13 12  1  0
 13  6  1  0
 14 15  2  0
 14 12  1  0
 16 17  1  0
 17 27  2  0
 17 18  1  0
 18 19  2  0
 19 20  1  0
 20 21  1  0
 22 21  1  6
 22 23  1  0
 22 24  1  0
 23 14  1  0
 24 28  1  0
 25 24  2  0
 26 20  2  0
 27 26  1  0
M  END
$$$$
