TMY.pdb
     RDKit          3D

 28 28  0  0  1  0  0  0  0  0999 V2000
   28.2220  -18.0420  -16.2799 C   0  0  0  0  0  0  0  0  0  0  0  0
   27.2285  -18.7958  -15.4272 C   0  0  1  0  0  0  0  0  0  0  0  0
   25.9879  -18.8584  -16.0217 O   0  0  0  0  0  0  0  0  0  0  0  0
   27.7671  -20.1368  -15.0082 C   0  0  2  0  0  0  0  0  0  0  0  0
   27.8837  -21.0280  -16.1597 N   0  0  0  0  0  0  0  0  0  0  0  0
   26.8552  -20.7584  -14.0306 C   0  0  0  0  0  0  0  0  0  0  0  0
   26.1365  -21.7154  -14.3940 O   0  0  0  0  0  0  0  0  0  0  0  0
   27.6154  -20.9612   -7.5325 C   0  0  0  0  0  0  0  0  0  0  0  0
   25.8758  -20.5476   -7.7112 S   0  0  0  0  0  0  0  0  0  0  0  0
   25.2243  -21.1367   -9.3324 C   0  0  0  0  0  0  0  0  0  0  0  0
   26.1494  -20.5511  -10.3607 C   0  0  0  0  0  0  0  0  0  0  0  0
   25.8214  -20.9252  -11.7647 C   0  0  2  0  0  0  0  0  0  0  0  0
   26.7609  -20.3134  -12.6933 N   0  0  0  0  0  0  0  0  0  0  0  0
   24.4259  -20.6290  -12.1651 C   0  0  0  0  0  0  0  0  0  0  0  0
   24.0606  -19.5667  -12.7176 O   0  0  0  0  0  0  0  0  0  0  0  0
   16.1022  -18.8452  -12.7940 O   0  0  0  0  0  0  0  0  0  0  0  0
   17.4306  -19.1273  -12.5217 C   0  0  0  0  0  0  0  0  0  0  0  0
   17.7741  -20.1093  -11.6188 C   0  0  0  0  0  0  0  0  0  0  0  0
   19.1156  -20.3744  -11.3618 C   0  0  0  0  0  0  0  0  0  0  0  0
   20.1241  -19.6751  -11.9914 C   0  0  0  0  0  0  0  0  0  0  0  0
   21.5383  -19.9691  -11.7071 C   0  0  0  0  0  0  0  0  0  0  0  0
   21.9897  -21.2958  -12.2761 C   0  0  2  0  0  0  0  0  0  0  0  0
   23.3666  -21.5810  -11.9340 N   0  0  0  0  0  0  0  0  0  0  0  0
   21.7686  -21.3825  -13.7412 C   0  0  0  0  0  0  0  0  0  0  0  0
   20.7072  -21.0927  -14.3051 O   0  0  0  0  0  0  0  0  0  0  0  0
   19.7443  -18.6994  -12.8889 C   0  0  0  0  0  0  0  0  0  0  0  0
   18.4203  -18.4181  -13.1605 C   0  0  0  0  0  0  0  0  0  0  0  0
   22.8234  -21.8179  -14.5326 O   0  0  0  0  0  0  0  0  0  0  0  0
  2  1  1  6
  2  4  1  0
  3  2  1  0
  4  6  1  0
  4  5  1  6
  6  7  2  0
  9  8  1  0
 10  9  1  0
 11 10  1  0
 12 11  1  1
 13 12  1  0
 13  6  1  0
 14 15  2  0
 14 12  1  0
 16 17  1  0
 17 27  2  0
 17 18  1  0
 18 19  2  0
 19 20  1  0
 20 21  1  0
 22 21  1  6
 22 23  1  0
 22 24  1  0
 23 14  1  0
 24 28  1  0
 25 24  2  0
 26 20  2  0
 27 26  1  0
M  END
$$$$
