TMY.pdb
     RDKit          3D

 28 28  0  0  1  0  0  0  0  0999 V2000
   21.4039   -9.3900  -22.3306 C   0  0  0  0  0  0  0  0  0  0  0  0
   21.8612   -9.9246  -20.9937 C   0  0  1  0  0  0  0  0  0  0  0  0
   23.2249  -10.1126  -20.9573 O   0  0  0  0  0  0  0  0  0  0  0  0
   21.3348   -9.0909  -19.8571 C   0  0  2  0  0  0  0  0  0  0  0  0
   21.8868   -7.7395  -19.9105 N   0  0  0  0  0  0  0  0  0  0  0  0
   21.7203   -9.6993  -18.5707 C   0  0  0  0  0  0  0  0  0  0  0  0
   21.3986  -10.8858  -18.3397 O   0  0  0  0  0  0  0  0  0  0  0  0
   27.1010  -10.1140  -16.0524 C   0  0  0  0  0  0  0  0  0  0  0  0
   26.3166   -9.8994  -14.4499 S   0  0  0  0  0  0  0  0  0  0  0  0
   24.4862  -10.0735  -14.5866 C   0  0  0  0  0  0  0  0  0  0  0  0
   24.1400   -9.5082  -15.9344 C   0  0  0  0  0  0  0  0  0  0  0  0
   22.6914   -9.5763  -16.2745 C   0  0  2  0  0  0  0  0  0  0  0  0
   22.4420   -8.9915  -17.5841 N   0  0  0  0  0  0  0  0  0  0  0  0
   21.7969   -8.9759  -15.2572 C   0  0  0  0  0  0  0  0  0  0  0  0
   21.7370   -9.3468  -14.0630 O   0  0  0  0  0  0  0  0  0  0  0  0
   16.5929   -4.8885   -9.8181 O   0  0  0  0  0  0  0  0  0  0  0  0
   17.5443   -5.3878  -10.6921 C   0  0  0  0  0  0  0  0  0  0  0  0
   18.0904   -4.5903  -11.6736 C   0  0  0  0  0  0  0  0  0  0  0  0
   19.0446   -5.1147  -12.5399 C   0  0  0  0  0  0  0  0  0  0  0  0
   19.4654   -6.4248  -12.4444 C   0  0  0  0  0  0  0  0  0  0  0  0
   20.4761   -6.9626  -13.3697 C   0  0  0  0  0  0  0  0  0  0  0  0
   19.8853   -7.4238  -14.6835 C   0  0  2  0  0  0  0  0  0  0  0  0
   20.9097   -7.8891  -15.5938 N   0  0  0  0  0  0  0  0  0  0  0  0
   19.0362   -6.3822  -15.3135 C   0  0  0  0  0  0  0  0  0  0  0  0
   19.4553   -5.5150  -16.0886 O   0  0  0  0  0  0  0  0  0  0  0  0
   18.8979   -7.1943  -11.4507 C   0  0  0  0  0  0  0  0  0  0  0  0
   17.9496   -6.6968  -10.5794 C   0  0  0  0  0  0  0  0  0  0  0  0
   17.6803   -6.3802  -15.0131 O   0  0  0  0  0  0  0  0  0  0  0  0
  2  1  1  6
  2  4  1  0
  3  2  1  0
  4  6  1  0
  4  5  1  6
  6  7  2  0
  9  8  1  0
 10  9  1  0
 11 10  1  0
 12 11  1  1
 13 12  1  0
 13  6  1  0
 14 15  2  0
 14 12  1  0
 16 17  1  0
 17 27  2  0
 17 18  1  0
 18 19  2  0
 19 20  1  0
 20 21  1  0
 22 21  1  1
 22 23  1  0
 22 24  1  0
 23 14  1  0
 24 28  1  0
 25 24  2  0
 26 20  2  0
 27 26  1  0
M  END
$$$$
