TMY.pdb
     RDKit          3D

 28 28  0  0  1  0  0  0  0  0999 V2000
   28.3726  -17.6986  -15.7267 C   0  0  0  0  0  0  0  0  0  0  0  0
   27.3423  -18.5149  -14.9822 C   0  0  1  0  0  0  0  0  0  0  0  0
   26.0686  -18.2806  -15.4501 O   0  0  0  0  0  0  0  0  0  0  0  0
   27.7149  -19.9722  -14.9455 C   0  0  2  0  0  0  0  0  0  0  0  0
   27.8004  -20.5165  -16.2984 N   0  0  0  0  0  0  0  0  0  0  0  0
   26.6917  -20.7312  -14.2036 C   0  0  0  0  0  0  0  0  0  0  0  0
   25.8878  -21.4482  -14.8394 O   0  0  0  0  0  0  0  0  0  0  0  0
   24.7134  -20.7954   -7.3556 C   0  0  0  0  0  0  0  0  0  0  0  0
   26.2556  -20.4439   -8.2084 S   0  0  0  0  0  0  0  0  0  0  0  0
   25.9481  -20.0385   -9.9805 C   0  0  0  0  0  0  0  0  0  0  0  0
   25.6980  -21.3617  -10.6458 C   0  0  0  0  0  0  0  0  0  0  0  0
   25.4438  -21.2734  -12.1108 C   0  0  2  0  0  0  0  0  0  0  0  0
   26.5830  -20.6803  -12.7961 N   0  0  0  0  0  0  0  0  0  0  0  0
   24.1930  -20.5657  -12.4715 C   0  0  0  0  0  0  0  0  0  0  0  0
   24.1424  -19.3789  -12.8668 O   0  0  0  0  0  0  0  0  0  0  0  0
   22.5988  -15.4919  -16.6516 O   0  0  0  0  0  0  0  0  0  0  0  0
   22.4639  -16.7797  -16.1598 C   0  0  0  0  0  0  0  0  0  0  0  0
   21.2185  -17.3259  -15.9405 C   0  0  0  0  0  0  0  0  0  0  0  0
   21.1085  -18.6217  -15.4458 C   0  0  0  0  0  0  0  0  0  0  0  0
   22.2224  -19.3851  -15.1649 C   0  0  0  0  0  0  0  0  0  0  0  0
   22.0871  -20.7545  -14.6419 C   0  0  0  0  0  0  0  0  0  0  0  0
   21.7715  -20.7913  -13.1631 C   0  0  2  0  0  0  0  0  0  0  0  0
   22.9126  -21.2253  -12.3859 N   0  0  0  0  0  0  0  0  0  0  0  0
   20.5720  -21.6131  -12.8656 C   0  0  0  0  0  0  0  0  0  0  0  0
   20.5806  -22.6333  -12.1672 O   0  0  0  0  0  0  0  0  0  0  0  0
   23.4529  -18.8070  -15.3962 C   0  0  0  0  0  0  0  0  0  0  0  0
   23.5875  -17.5234  -15.8864 C   0  0  0  0  0  0  0  0  0  0  0  0
   19.3582  -21.2104  -13.4071 O   0  0  0  0  0  0  0  0  0  0  0  0
  2  1  1  6
  2  4  1  0
  3  2  1  0
  4  6  1  0
  4  5  1  6
  6  7  2  0
  9  8  1  0
 10  9  1  0
 11 10  1  0
 12 11  1  1
 13 12  1  0
 13  6  1  0
 14 15  2  0
 14 12  1  0
 16 17  1  0
 17 27  2  0
 17 18  1  0
 18 19  2  0
 19 20  1  0
 20 21  1  0
 22 21  1  6
 22 23  1  0
 22 24  1  0
 23 14  1  0
 24 28  1  0
 25 24  2  0
 26 20  2  0
 27 26  1  0
M  END
$$$$
