HCH.pdb
     RDKit          3D

 27 28  0  0  1  0  0  0  0  0999 V2000
   10.8796  -18.6854   17.9730 N   0  0  0  0  0  0  0  0  0  0  0  0
    9.9625  -18.5791   19.0855 C   0  0  1  0  0  0  0  0  0  0  0  0
    9.2630  -19.8967   19.3036 C   0  0  0  0  0  0  0  0  0  0  0  0
    8.4708  -20.3486   18.1360 C   0  0  0  0  0  0  0  0  0  0  0  0
    7.6457  -19.5159   17.3651 C   0  0  0  0  0  0  0  0  0  0  0  0
    7.0839  -20.2426   16.3985 N   0  0  0  0  0  0  0  0  0  0  0  0
    7.5254  -21.4998   16.5340 C   0  0  0  0  0  0  0  0  0  0  0  0
    8.3531  -21.5614   17.5713 N   0  0  0  0  0  0  0  0  0  0  0  0
   10.7692  -18.3238   20.3101 C   0  0  0  0  0  0  0  0  0  0  0  0
   11.9752  -18.6712   20.2644 O   0  0  0  0  0  0  0  0  0  0  0  0
   10.2888  -17.7329   21.4937 N   0  0  0  0  0  0  0  0  0  0  0  0
   11.0743  -17.5590   22.6875 C   0  0  1  0  0  0  0  0  0  0  0  0
   10.7307  -16.3105   23.4530 C   0  0  0  0  0  0  0  0  0  0  0  0
    9.0077  -15.8135   23.1885 S   0  0  0  0  0  0  0  0  0  0  0  0
   10.9626  -18.7175   23.6099 C   0  0  0  0  0  0  0  0  0  0  0  0
    9.9114  -19.4064   23.6296 O   0  0  0  0  0  0  0  0  0  0  0  0
   12.0256  -19.0511   24.4633 N   0  0  0  0  0  0  0  0  0  0  0  0
   11.9952  -20.2376   25.3341 C   0  0  1  0  0  0  0  0  0  0  0  0
   13.0615  -21.1747   24.8846 C   0  0  0  0  0  0  0  0  0  0  0  0
   12.6019  -21.9718   23.7263 C   0  0  0  0  0  0  0  0  0  0  0  0
   11.3497  -21.9417   23.1254 C   0  0  0  0  0  0  0  0  0  0  0  0
   11.3094  -22.8087   22.0988 N   0  0  0  0  0  0  0  0  0  0  0  0
   12.5229  -23.3762   22.0564 C   0  0  0  0  0  0  0  0  0  0  0  0
   13.3039  -22.8718   23.0383 N   0  0  0  0  0  0  0  0  0  0  0  0
   12.2764  -19.7801   26.7090 C   0  0  0  0  0  0  0  0  0  0  0  0
   12.6528  -18.4732   26.9379 O   0  0  0  0  0  0  0  0  0  0  0  0
   12.1926  -20.5312   27.7263 O   0  0  0  0  0  0  0  0  0  0  0  0
  2  1  1  6
  2  9  1  0
  3  2  1  0
  3  4  1  0
  4  5  2  0
  5  6  1  0
  7  6  1  0
  8  4  1  0
  8  7  2  0
  9 11  1  0
  9 10  2  0
 11 12  1  0
 12 15  1  0
 12 13  1  1
 14 13  1  0
 15 16  2  0
 17 15  1  0
 17 18  1  0
 18 25  1  0
 19 20  1  0
 18 19  1  6
 20 24  1  0
 21 20  2  0
 21 22  1  0
 22 23  1  0
 24 23  2  0
 25 26  1  0
 27 25  2  0
M  END
$$$$
