HCH.pdb
     RDKit          3D

 27 28  0  0  1  0  0  0  0  0999 V2000
   11.0747  -16.7819   11.3119 N   0  0  0  0  0  0  0  0  0  0  0  0
   11.6851  -15.9068   12.2873 C   0  0  1  0  0  0  0  0  0  0  0  0
   10.9247  -14.6070   12.3597 C   0  0  0  0  0  0  0  0  0  0  0  0
   11.0499  -13.7772   11.1388 C   0  0  0  0  0  0  0  0  0  0  0  0
   12.2690  -13.3690   10.5768 C   0  0  0  0  0  0  0  0  0  0  0  0
   12.0185  -12.6383    9.4900 N   0  0  0  0  0  0  0  0  0  0  0  0
   10.6882  -12.5727    9.3488 C   0  0  0  0  0  0  0  0  0  0  0  0
   10.1116  -13.2529   10.3336 N   0  0  0  0  0  0  0  0  0  0  0  0
   11.5426  -16.5519   13.6212 C   0  0  0  0  0  0  0  0  0  0  0  0
   10.6748  -17.4551   13.7127 O   0  0  0  0  0  0  0  0  0  0  0  0
   12.2948  -16.2299   14.7664 N   0  0  0  0  0  0  0  0  0  0  0  0
   12.3894  -17.0671   15.9337 C   0  0  1  0  0  0  0  0  0  0  0  0
   12.9507  -18.4328   15.6463 C   0  0  0  0  0  0  0  0  0  0  0  0
   12.6051  -19.5974   16.9917 S   0  0  0  0  0  0  0  0  0  0  0  0
   13.2027  -16.4453   17.0095 C   0  0  0  0  0  0  0  0  0  0  0  0
   14.3171  -15.9312   16.7376 O   0  0  0  0  0  0  0  0  0  0  0  0
   12.7354  -16.4266   18.3326 N   0  0  0  0  0  0  0  0  0  0  0  0
   13.4185  -15.6770   19.3997 C   0  0  1  0  0  0  0  0  0  0  0  0
   12.3976  -15.2431   20.3931 C   0  0  0  0  0  0  0  0  0  0  0  0
   11.4336  -14.3061   19.7757 C   0  0  0  0  0  0  0  0  0  0  0  0
   11.5942  -13.5842   18.5997 C   0  0  0  0  0  0  0  0  0  0  0  0
   10.5006  -12.8391   18.3624 N   0  0  0  0  0  0  0  0  0  0  0  0
    9.6635  -13.0911   19.3785 C   0  0  0  0  0  0  0  0  0  0  0  0
   10.2256  -13.9764   20.2322 N   0  0  0  0  0  0  0  0  0  0  0  0
   14.3791  -16.5985   20.0375 C   0  0  0  0  0  0  0  0  0  0  0  0
   15.2682  -16.1249   20.9793 O   0  0  0  0  0  0  0  0  0  0  0  0
   14.4442  -17.8354   19.7695 O   0  0  0  0  0  0  0  0  0  0  0  0
  2  1  1  6
  2  9  1  0
  3  2  1  0
  3  4  1  0
  4  5  2  0
  5  6  1  0
  7  6  1  0
  8  4  1  0
  8  7  2  0
  9 11  1  0
  9 10  2  0
 11 12  1  0
 12 15  1  0
 12 13  1  6
 14 13  1  0
 15 16  2  0
 17 15  1  0
 17 18  1  0
 18 25  1  0
 19 20  1  0
 18 19  1  1
 20 24  1  0
 21 20  2  0
 21 22  1  0
 22 23  1  0
 24 23  2  0
 25 26  1  0
 27 25  2  0
M  END
$$$$
