HCH.pdb
     RDKit          3D

 27 28  0  0  1  0  0  0  0  0999 V2000
    7.5424  -18.9974   17.5345 N   0  0  0  0  0  0  0  0  0  0  0  0
    7.3115  -20.0588   18.4885 C   0  0  1  0  0  0  0  0  0  0  0  0
    8.3291  -21.1543   18.2958 C   0  0  0  0  0  0  0  0  0  0  0  0
    8.1348  -21.9327   17.0502 C   0  0  0  0  0  0  0  0  0  0  0  0
    9.0186  -21.9226   15.9607 C   0  0  0  0  0  0  0  0  0  0  0  0
    8.5422  -22.7302   15.0127 N   0  0  0  0  0  0  0  0  0  0  0  0
    7.3927  -23.2467   15.4664 C   0  0  0  0  0  0  0  0  0  0  0  0
    7.1509  -22.7697   16.6825 N   0  0  0  0  0  0  0  0  0  0  0  0
    7.5474  -19.5004   19.8479 C   0  0  0  0  0  0  0  0  0  0  0  0
    7.8570  -18.2846   19.9040 O   0  0  0  0  0  0  0  0  0  0  0  0
    7.4512  -20.2214   21.0529 N   0  0  0  0  0  0  0  0  0  0  0  0
    7.4012  -19.6139   22.3570 C   0  0  1  0  0  0  0  0  0  0  0  0
    6.2278  -18.6912   22.5426 C   0  0  0  0  0  0  0  0  0  0  0  0
    4.6720  -19.4744   22.0410 S   0  0  0  0  0  0  0  0  0  0  0  0
    7.3797  -20.6213   23.4480 C   0  0  0  0  0  0  0  0  0  0  0  0
    6.9982  -21.7955   23.2120 O   0  0  0  0  0  0  0  0  0  0  0  0
    7.7836  -20.2718   24.7458 N   0  0  0  0  0  0  0  0  0  0  0  0
    8.9361  -20.9025   25.4098 C   0  0  1  0  0  0  0  0  0  0  0  0
   10.1573  -20.6007   24.6129 C   0  0  0  0  0  0  0  0  0  0  0  0
   10.7727  -21.8477   24.1081 C   0  0  0  0  0  0  0  0  0  0  0  0
   10.3714  -23.1519   24.3689 C   0  0  0  0  0  0  0  0  0  0  0  0
   11.1777  -24.0190   23.7322 N   0  0  0  0  0  0  0  0  0  0  0  0
   12.0746  -23.2668   23.0793 C   0  0  0  0  0  0  0  0  0  0  0  0
   11.8311  -21.9561   23.3054 N   0  0  0  0  0  0  0  0  0  0  0  0
    9.0521  -20.3011   26.7526 C   0  0  0  0  0  0  0  0  0  0  0  0
    8.6379  -19.0030   26.9654 O   0  0  0  0  0  0  0  0  0  0  0  0
    9.5218  -20.9167   27.7559 O   0  0  0  0  0  0  0  0  0  0  0  0
  2  1  1  6
  2  9  1  0
  3  2  1  0
  3  4  1  0
  4  5  2  0
  5  6  1  0
  7  6  1  0
  8  4  1  0
  8  7  2  0
  9 11  1  0
  9 10  2  0
 11 12  1  0
 12 15  1  0
 12 13  1  6
 14 13  1  0
 15 16  2  0
 17 15  1  0
 17 18  1  0
 18 25  1  0
 19 20  1  0
 18 19  1  6
 20 24  1  0
 21 20  2  0
 21 22  1  0
 22 23  1  0
 24 23  2  0
 25 26  1  0
 27 25  2  0
M  END
$$$$
