HCH.pdb
     RDKit          3D

 27 28  0  0  1  0  0  0  0  0999 V2000
   13.0619  -14.1724   17.3907 N   0  0  0  0  0  0  0  0  0  0  0  0
   11.7262  -14.7253   17.4050 C   0  0  1  0  0  0  0  0  0  0  0  0
   11.7807  -16.2093   17.1446 C   0  0  0  0  0  0  0  0  0  0  0  0
   12.1600  -16.5545   15.7546 C   0  0  0  0  0  0  0  0  0  0  0  0
   11.6476  -15.9237   14.6109 C   0  0  0  0  0  0  0  0  0  0  0  0
   12.1993  -16.4773   13.5306 N   0  0  0  0  0  0  0  0  0  0  0  0
   13.0385  -17.4317   13.9533 C   0  0  0  0  0  0  0  0  0  0  0  0
   13.0139  -17.4766   15.2809 N   0  0  0  0  0  0  0  0  0  0  0  0
   11.1860  -14.5599   18.7820 C   0  0  0  0  0  0  0  0  0  0  0  0
   11.9956  -14.7476   19.7236 O   0  0  0  0  0  0  0  0  0  0  0  0
    9.8591  -14.2152   19.1008 N   0  0  0  0  0  0  0  0  0  0  0  0
    9.3544  -14.0974   20.4438 C   0  0  1  0  0  0  0  0  0  0  0  0
    7.9427  -13.5822   20.5093 C   0  0  0  0  0  0  0  0  0  0  0  0
    7.6990  -12.1517   19.4231 S   0  0  0  0  0  0  0  0  0  0  0  0
    9.4168  -15.3831   21.1846 C   0  0  0  0  0  0  0  0  0  0  0  0
    9.2854  -16.4707   20.5683 O   0  0  0  0  0  0  0  0  0  0  0  0
    9.6222  -15.3939   22.5728 N   0  0  0  0  0  0  0  0  0  0  0  0
   10.3934  -16.4506   23.2477 C   0  0  1  0  0  0  0  0  0  0  0  0
   11.7619  -16.4775   22.6614 C   0  0  0  0  0  0  0  0  0  0  0  0
   11.9208  -17.6396   21.7598 C   0  0  0  0  0  0  0  0  0  0  0  0
   10.9773  -18.6169   21.4693 C   0  0  0  0  0  0  0  0  0  0  0  0
   11.4897  -19.5112   20.6061 N   0  0  0  0  0  0  0  0  0  0  0  0
   12.7408  -19.0991   20.3581 C   0  0  0  0  0  0  0  0  0  0  0  0
   13.0021  -17.9695   21.0539 N   0  0  0  0  0  0  0  0  0  0  0  0
   10.4675  -16.0943   24.6781 C   0  0  0  0  0  0  0  0  0  0  0  0
    9.8613  -14.9427   25.1347 O   0  0  0  0  0  0  0  0  0  0  0  0
   11.0700  -16.7976   25.5432 O   0  0  0  0  0  0  0  0  0  0  0  0
  2  1  1  1
  2  9  1  0
  3  2  1  0
  3  4  1  0
  4  5  2  0
  5  6  1  0
  7  6  1  0
  8  4  1  0
  8  7  2  0
  9 11  1  0
  9 10  2  0
 11 12  1  0
 12 15  1  0
 12 13  1  6
 14 13  1  0
 15 16  2  0
 17 15  1  0
 17 18  1  0
 18 25  1  0
 19 20  1  0
 18 19  1  6
 20 24  1  0
 21 20  2  0
 21 22  1  0
 22 23  1  0
 24 23  2  0
 25 26  1  0
 27 25  2  0
M  END
$$$$
