HCH.pdb
     RDKit          3D

 27 28  0  0  1  0  0  0  0  0999 V2000
   12.3817  -14.0009   18.7990 N   0  0  0  0  0  0  0  0  0  0  0  0
   11.1918  -14.1100   19.6128 C   0  0  1  0  0  0  0  0  0  0  0  0
   10.2934  -15.1914   19.0684 C   0  0  0  0  0  0  0  0  0  0  0  0
    9.1144  -14.6714   18.3372 C   0  0  0  0  0  0  0  0  0  0  0  0
    8.8396  -13.3100   18.1381 C   0  0  0  0  0  0  0  0  0  0  0  0
    7.7065  -13.1969   17.4444 N   0  0  0  0  0  0  0  0  0  0  0  0
    7.2600  -14.4359   17.2008 C   0  0  0  0  0  0  0  0  0  0  0  0
    8.1014  -15.3148   17.7343 N   0  0  0  0  0  0  0  0  0  0  0  0
   11.6139  -14.5571   20.9683 C   0  0  0  0  0  0  0  0  0  0  0  0
   12.5529  -13.9139   21.4991 O   0  0  0  0  0  0  0  0  0  0  0  0
   11.0488  -15.6281   21.6857 N   0  0  0  0  0  0  0  0  0  0  0  0
   10.9640  -15.6844   23.1217 C   0  0  1  0  0  0  0  0  0  0  0  0
   10.1453  -14.5715   23.7167 C   0  0  0  0  0  0  0  0  0  0  0  0
    8.3810  -14.7653   23.3486 S   0  0  0  0  0  0  0  0  0  0  0  0
   10.4147  -16.9771   23.6041 C   0  0  0  0  0  0  0  0  0  0  0  0
    9.1862  -17.2188   23.4928 O   0  0  0  0  0  0  0  0  0  0  0  0
   11.2594  -17.9352   24.1855 N   0  0  0  0  0  0  0  0  0  0  0  0
   10.7494  -19.1897   24.7626 C   0  0  1  0  0  0  0  0  0  0  0  0
   11.8529  -20.1894   24.7569 C   0  0  0  0  0  0  0  0  0  0  0  0
   12.2554  -20.5148   23.3710 C   0  0  0  0  0  0  0  0  0  0  0  0
   12.9745  -19.7151   22.4917 C   0  0  0  0  0  0  0  0  0  0  0  0
   13.1463  -20.3542   21.3216 N   0  0  0  0  0  0  0  0  0  0  0  0
   12.5416  -21.5417   21.4655 C   0  0  0  0  0  0  0  0  0  0  0  0
   12.0034  -21.6398   22.7022 N   0  0  0  0  0  0  0  0  0  0  0  0
   10.3422  -18.9001   26.1515 C   0  0  0  0  0  0  0  0  0  0  0  0
    9.8092  -19.9004   26.9372 O   0  0  0  0  0  0  0  0  0  0  0  0
   10.4528  -17.7574   26.6883 O   0  0  0  0  0  0  0  0  0  0  0  0
  2  1  1  6
  2  9  1  0
  3  2  1  0
  3  4  1  0
  4  5  2  0
  5  6  1  0
  7  6  1  0
  8  4  1  0
  8  7  2  0
  9 11  1  0
  9 10  2  0
 11 12  1  0
 12 15  1  0
 12 13  1  6
 14 13  1  0
 15 16  2  0
 17 15  1  0
 17 18  1  0
 18 25  1  0
 19 20  1  0
 18 19  1  1
 20 24  1  0
 21 20  2  0
 21 22  1  0
 22 23  1  0
 24 23  2  0
 25 26  1  0
 27 25  2  0
M  END
$$$$
