HCH.pdb
     RDKit          3D

 27 28  0  0  1  0  0  0  0  0999 V2000
   10.7626  -15.7966   13.9569 N   0  0  0  0  0  0  0  0  0  0  0  0
    9.7480  -16.0706   14.9496 C   0  0  1  0  0  0  0  0  0  0  0  0
    9.7790  -17.5296   15.3279 C   0  0  0  0  0  0  0  0  0  0  0  0
    9.0275  -18.4011   14.3946 C   0  0  0  0  0  0  0  0  0  0  0  0
    8.6423  -18.0307   13.0974 C   0  0  0  0  0  0  0  0  0  0  0  0
    7.9855  -19.0468   12.5370 N   0  0  0  0  0  0  0  0  0  0  0  0
    7.9441  -20.0408   13.4338 C   0  0  0  0  0  0  0  0  0  0  0  0
    8.5665  -19.6538   14.5419 N   0  0  0  0  0  0  0  0  0  0  0  0
   10.1045  -15.3101   16.1784 C   0  0  0  0  0  0  0  0  0  0  0  0
   11.3262  -15.2562   16.4646 O   0  0  0  0  0  0  0  0  0  0  0  0
    9.1902  -14.6592   17.0278 N   0  0  0  0  0  0  0  0  0  0  0  0
    9.5461  -14.0442   18.2798 C   0  0  1  0  0  0  0  0  0  0  0  0
    8.3635  -13.5135   19.0430 C   0  0  0  0  0  0  0  0  0  0  0  0
    8.8630  -12.7518   20.6102 S   0  0  0  0  0  0  0  0  0  0  0  0
   10.2986  -14.9667   19.1676 C   0  0  0  0  0  0  0  0  0  0  0  0
   10.0829  -16.2041   19.1163 O   0  0  0  0  0  0  0  0  0  0  0  0
   11.2526  -14.4666   20.0670 N   0  0  0  0  0  0  0  0  0  0  0  0
   12.0462  -15.3436   20.9434 C   0  0  1  0  0  0  0  0  0  0  0  0
   12.0795  -16.7034   20.3375 C   0  0  0  0  0  0  0  0  0  0  0  0
   10.9368  -17.5144   20.8118 C   0  0  0  0  0  0  0  0  0  0  0  0
   10.0425  -17.1990   21.8270 C   0  0  0  0  0  0  0  0  0  0  0  0
    9.1390  -18.1843   21.9689 N   0  0  0  0  0  0  0  0  0  0  0  0
    9.4632  -19.1074   21.0527 C   0  0  0  0  0  0  0  0  0  0  0  0
   10.5483  -18.7042   20.3538 N   0  0  0  0  0  0  0  0  0  0  0  0
   13.4119  -14.7866   21.0012 C   0  0  0  0  0  0  0  0  0  0  0  0
   14.4033  -15.4597   21.6838 O   0  0  0  0  0  0  0  0  0  0  0  0
   13.7459  -13.6964   20.4480 O   0  0  0  0  0  0  0  0  0  0  0  0
  2  1  1  6
  2  9  1  0
  3  2  1  0
  3  4  1  0
  4  5  2  0
  5  6  1  0
  7  6  1  0
  8  4  1  0
  8  7  2  0
  9 11  1  0
  9 10  2  0
 11 12  1  0
 12 15  1  0
 12 13  1  1
 14 13  1  0
 15 16  2  0
 17 15  1  0
 17 18  1  0
 18 25  1  0
 19 20  1  0
 18 19  1  6
 20 24  1  0
 21 20  2  0
 21 22  1  0
 22 23  1  0
 24 23  2  0
 25 26  1  0
 27 25  2  0
M  END
$$$$
