HCH.pdb
     RDKit          3D

 27 28  0  0  1  0  0  0  0  0999 V2000
    8.8782  -17.4091   16.0287 N   0  0  0  0  0  0  0  0  0  0  0  0
    7.9404  -17.2910   17.1226 C   0  0  1  0  0  0  0  0  0  0  0  0
    7.6323  -18.6552   17.6857 C   0  0  0  0  0  0  0  0  0  0  0  0
    6.8185  -19.5008   16.7815 C   0  0  0  0  0  0  0  0  0  0  0  0
    5.4255  -19.4051   16.6435 C   0  0  0  0  0  0  0  0  0  0  0  0
    5.0184  -20.3091   15.7519 N   0  0  0  0  0  0  0  0  0  0  0  0
    6.1034  -20.9683   15.3252 C   0  0  0  0  0  0  0  0  0  0  0  0
    7.1769  -20.4847   15.9406 N   0  0  0  0  0  0  0  0  0  0  0  0
    8.6124  -16.5292   18.2104 C   0  0  0  0  0  0  0  0  0  0  0  0
    9.7827  -16.8837   18.4970 O   0  0  0  0  0  0  0  0  0  0  0  0
    8.0435  -15.4608   18.9286 N   0  0  0  0  0  0  0  0  0  0  0  0
    8.6849  -14.7958   20.0325 C   0  0  1  0  0  0  0  0  0  0  0  0
    7.9371  -13.5838   20.5170 C   0  0  0  0  0  0  0  0  0  0  0  0
    7.5173  -12.4649   19.1541 S   0  0  0  0  0  0  0  0  0  0  0  0
    8.9022  -15.7027   21.1883 C   0  0  0  0  0  0  0  0  0  0  0  0
    8.0605  -16.5985   21.4513 O   0  0  0  0  0  0  0  0  0  0  0  0
   10.0442  -15.5676   21.9925 N   0  0  0  0  0  0  0  0  0  0  0  0
   10.5261  -16.6498   22.8663 C   0  0  1  0  0  0  0  0  0  0  0  0
   10.8494  -17.8284   22.0156 C   0  0  0  0  0  0  0  0  0  0  0  0
   11.3598  -18.9444   22.8418 C   0  0  0  0  0  0  0  0  0  0  0  0
   12.6865  -19.2934   23.0609 C   0  0  0  0  0  0  0  0  0  0  0  0
   12.7543  -20.3656   23.8690 N   0  0  0  0  0  0  0  0  0  0  0  0
   11.4841  -20.6855   24.1535 C   0  0  0  0  0  0  0  0  0  0  0  0
   10.6415  -19.8283   23.5340 N   0  0  0  0  0  0  0  0  0  0  0  0
   11.7488  -16.1629   23.5344 C   0  0  0  0  0  0  0  0  0  0  0  0
   12.1184  -16.6792   24.7587 O   0  0  0  0  0  0  0  0  0  0  0  0
   12.5066  -15.2737   23.0433 O   0  0  0  0  0  0  0  0  0  0  0  0
  2  1  1  6
  2  9  1  0
  3  2  1  0
  3  4  1  0
  4  5  2  0
  5  6  1  0
  7  6  1  0
  8  4  1  0
  8  7  2  0
  9 11  1  0
  9 10  2  0
 11 12  1  0
 12 15  1  0
 12 13  1  1
 14 13  1  0
 15 16  2  0
 17 15  1  0
 17 18  1  0
 18 25  1  0
 19 20  1  0
 18 19  1  6
 20 24  1  0
 21 20  2  0
 21 22  1  0
 22 23  1  0
 24 23  2  0
 25 26  1  0
 27 25  2  0
M  END
$$$$
