HCH.pdb
     RDKit          3D

 27 28  0  0  1  0  0  0  0  0999 V2000
    9.2839  -17.0939   16.7309 N   0  0  0  0  0  0  0  0  0  0  0  0
    8.1742  -17.1662   17.6547 C   0  0  1  0  0  0  0  0  0  0  0  0
    7.8829  -18.6052   17.9974 C   0  0  0  0  0  0  0  0  0  0  0  0
    7.4016  -19.4039   16.8461 C   0  0  0  0  0  0  0  0  0  0  0  0
    6.2186  -19.1443   16.1379 C   0  0  0  0  0  0  0  0  0  0  0  0
    6.0897  -20.0509   15.1686 N   0  0  0  0  0  0  0  0  0  0  0  0
    7.1472  -20.8695   15.2420 C   0  0  0  0  0  0  0  0  0  0  0  0
    7.9293  -20.4820   16.2437 N   0  0  0  0  0  0  0  0  0  0  0  0
    8.6004  -16.5106   18.9212 C   0  0  0  0  0  0  0  0  0  0  0  0
    9.7818  -16.7258   19.2890 O   0  0  0  0  0  0  0  0  0  0  0  0
    7.7918  -15.6829   19.7224 N   0  0  0  0  0  0  0  0  0  0  0  0
    8.2131  -15.1055   20.9720 C   0  0  1  0  0  0  0  0  0  0  0  0
    7.1710  -14.2251   21.6058 C   0  0  0  0  0  0  0  0  0  0  0  0
    7.6220  -13.7636   23.2997 S   0  0  0  0  0  0  0  0  0  0  0  0
    8.6178  -16.1361   21.9616 C   0  0  0  0  0  0  0  0  0  0  0  0
    7.8313  -17.0731   22.2507 O   0  0  0  0  0  0  0  0  0  0  0  0
    9.8764  -16.0726   22.5792 N   0  0  0  0  0  0  0  0  0  0  0  0
   10.3057  -17.0463   23.5964 C   0  0  1  0  0  0  0  0  0  0  0  0
   11.7880  -17.1706   23.5280 C   0  0  0  0  0  0  0  0  0  0  0  0
   12.2909  -18.0295   24.6225 C   0  0  0  0  0  0  0  0  0  0  0  0
   11.5416  -18.6955   25.5842 C   0  0  0  0  0  0  0  0  0  0  0  0
   12.3530  -19.3769   26.4115 N   0  0  0  0  0  0  0  0  0  0  0  0
   13.5976  -19.1408   25.9733 C   0  0  0  0  0  0  0  0  0  0  0  0
   13.5613  -18.3277   24.8936 N   0  0  0  0  0  0  0  0  0  0  0  0
    9.9075  -16.5103   24.9127 C   0  0  0  0  0  0  0  0  0  0  0  0
    9.7042  -17.3672   25.9739 O   0  0  0  0  0  0  0  0  0  0  0  0
    9.7341  -15.2758   25.1411 O   0  0  0  0  0  0  0  0  0  0  0  0
  2  1  1  6
  2  9  1  0
  3  2  1  0
  3  4  1  0
  4  5  2  0
  5  6  1  0
  7  6  1  0
  8  4  1  0
  8  7  2  0
  9 11  1  0
  9 10  2  0
 11 12  1  0
 12 15  1  0
 12 13  1  1
 14 13  1  0
 15 16  2  0
 17 15  1  0
 17 18  1  0
 18 25  1  0
 19 20  1  0
 18 19  1  1
 20 24  1  0
 21 20  2  0
 21 22  1  0
 22 23  1  0
 24 23  2  0
 25 26  1  0
 27 25  2  0
M  END
$$$$
