HCH.pdb
     RDKit          3D

 27 28  0  0  1  0  0  0  0  0999 V2000
   18.2638  -26.8212   28.1988 N   0  0  0  0  0  0  0  0  0  0  0  0
   18.6760  -25.7539   29.0825 C   0  0  1  0  0  0  0  0  0  0  0  0
   18.4523  -24.4197   28.4171 C   0  0  0  0  0  0  0  0  0  0  0  0
   19.3480  -24.1745   27.2626 C   0  0  0  0  0  0  0  0  0  0  0  0
   20.7458  -24.0870   27.3458 C   0  0  0  0  0  0  0  0  0  0  0  0
   21.2360  -23.8606   26.1266 N   0  0  0  0  0  0  0  0  0  0  0  0
   20.1984  -23.8028   25.2816 C   0  0  0  0  0  0  0  0  0  0  0  0
   19.0723  -23.9903   25.9612 N   0  0  0  0  0  0  0  0  0  0  0  0
   17.7823  -25.7851   30.2724 C   0  0  0  0  0  0  0  0  0  0  0  0
   17.0611  -26.8053   30.3999 O   0  0  0  0  0  0  0  0  0  0  0  0
   17.6875  -24.7741   31.2470 N   0  0  0  0  0  0  0  0  0  0  0  0
   17.0514  -24.9421   32.5274 C   0  0  1  0  0  0  0  0  0  0  0  0
   17.5655  -26.1260   33.3000 C   0  0  0  0  0  0  0  0  0  0  0  0
   19.3676  -26.0739   33.4877 S   0  0  0  0  0  0  0  0  0  0  0  0
   17.1791  -23.7353   33.3834 C   0  0  0  0  0  0  0  0  0  0  0  0
   18.2756  -23.1241   33.4487 O   0  0  0  0  0  0  0  0  0  0  0  0
   16.0812  -23.2694   34.1229 N   0  0  0  0  0  0  0  0  0  0  0  0
   16.1481  -22.0569   34.9550 C   0  0  1  0  0  0  0  0  0  0  0  0
   15.0863  -21.1178   34.4990 C   0  0  0  0  0  0  0  0  0  0  0  0
   15.5087  -20.4085   33.2714 C   0  0  0  0  0  0  0  0  0  0  0  0
   16.7070  -20.5533   32.5837 C   0  0  0  0  0  0  0  0  0  0  0  0
   16.7268  -19.7391   31.5142 N   0  0  0  0  0  0  0  0  0  0  0  0
   15.5537  -19.0908   31.5310 C   0  0  0  0  0  0  0  0  0  0  0  0
   14.8176  -19.4941   32.5912 N   0  0  0  0  0  0  0  0  0  0  0  0
   15.8901  -22.4669   36.3493 C   0  0  0  0  0  0  0  0  0  0  0  0
   16.0741  -21.5673   37.3783 O   0  0  0  0  0  0  0  0  0  0  0  0
   15.4984  -23.6271   36.6754 O   0  0  0  0  0  0  0  0  0  0  0  0
  2  1  1  6
  2  9  1  0
  3  2  1  0
  3  4  1  0
  4  5  2  0
  5  6  1  0
  7  6  1  0
  8  4  1  0
  8  7  2  0
  9 11  1  0
  9 10  2  0
 11 12  1  0
 12 15  1  0
 12 13  1  1
 14 13  1  0
 15 16  2  0
 17 15  1  0
 17 18  1  0
 18 25  1  0
 19 20  1  0
 18 19  1  6
 20 24  1  0
 21 20  2  0
 21 22  1  0
 22 23  1  0
 24 23  2  0
 25 26  1  0
 27 25  2  0
M  END
$$$$
