KCM.pdb
     RDKit          3D

 24 23  0  0  1  0  0  0  0  0999 V2000
   24.7814  -15.3682  -19.0794 N   0  0  0  0  0  0  0  0  0  0  0  0
   24.5531  -14.0179  -19.4642 C   0  0  1  0  0  0  0  0  0  0  0  0
   23.1765  -13.8429  -19.9972 C   0  0  0  0  0  0  0  0  0  0  0  0
   22.8652  -14.6120  -21.2437 C   0  0  0  0  0  0  0  0  0  0  0  0
   21.4958  -14.4143  -21.7915 C   0  0  0  0  0  0  0  0  0  0  0  0
   21.3194  -15.3758  -22.9843 C   0  0  0  0  0  0  0  0  0  0  0  0
   21.1352  -16.7125  -22.4691 N   0  0  0  0  0  0  0  0  0  0  0  0
   24.9026  -13.0328  -18.4133 C   0  0  0  0  0  0  0  0  0  0  0  0
   24.5354  -13.2679  -17.2338 O   0  0  0  0  0  0  0  0  0  0  0  0
   25.6287  -11.8356  -18.6553 N   0  0  0  0  0  0  0  0  0  0  0  0
   25.9069  -10.8402  -17.6394 C   0  0  1  0  0  0  0  0  0  0  0  0
   27.3200  -10.3513  -17.6809 C   0  0  0  0  0  0  0  0  0  0  0  0
   27.6916   -9.1513  -16.3919 S   0  0  0  0  0  0  0  0  0  0  0  0
   24.9766   -9.7019  -17.6754 C   0  0  0  0  0  0  0  0  0  0  0  0
   24.6681   -9.0666  -18.7050 O   0  0  0  0  0  0  0  0  0  0  0  0
   18.8783  -10.6693  -14.6808 C   0  0  0  0  0  0  0  0  0  0  0  0
   20.1828   -9.4909  -14.2146 S   0  0  0  0  0  0  0  0  0  0  0  0
   21.2709   -9.1789  -15.6090 C   0  0  0  0  0  0  0  0  0  0  0  0
   22.5127   -8.4161  -15.2613 C   0  0  0  0  0  0  0  0  0  0  0  0
   23.4431   -8.1728  -16.4073 C   0  0  2  0  0  0  0  0  0  0  0  0
   24.3834   -9.2926  -16.4506 N   0  0  0  0  0  0  0  0  0  0  0  0
   24.2175   -6.9424  -16.1696 C   0  0  0  0  0  0  0  0  0  0  0  0
   25.5976   -6.9477  -15.9664 O   0  0  0  0  0  0  0  0  0  0  0  0
   23.6479   -5.8126  -16.1380 O   0  0  0  0  0  0  0  0  0  0  0  0
  2  1  1  1
  3  2  1  0
  4  3  1  0
  5  6  1  0
  5  4  1  0
  7  6  1  0
  8  2  1  0
  8  9  2  0
 10 11  1  0
 10  8  1  0
 11 12  1  6
 12 13  1  0
 14 11  1  0
 15 14  2  0
 16 17  1  0
 18 19  1  0
 18 17  1  0
 20 19  1  1
 20 21  1  0
 21 14  1  0
 22 20  1  0
 22 23  1  0
 24 22  2  0
M  END
$$$$
