KCM.pdb
     RDKit          3D

 24 23  0  0  1  0  0  0  0  0999 V2000
   27.9710  -23.7120  -17.5815 N   0  0  0  0  0  0  0  0  0  0  0  0
   26.5817  -23.8272  -17.2988 C   0  0  1  0  0  0  0  0  0  0  0  0
   26.2926  -25.0830  -16.5579 C   0  0  0  0  0  0  0  0  0  0  0  0
   26.3743  -26.3413  -17.3655 C   0  0  0  0  0  0  0  0  0  0  0  0
   27.4128  -27.3141  -16.9300 C   0  0  0  0  0  0  0  0  0  0  0  0
   27.3466  -28.5320  -17.8736 C   0  0  0  0  0  0  0  0  0  0  0  0
   28.4775  -29.3863  -17.5957 N   0  0  0  0  0  0  0  0  0  0  0  0
   26.0038  -22.6231  -16.6559 C   0  0  0  0  0  0  0  0  0  0  0  0
   26.7712  -21.8761  -15.9967 O   0  0  0  0  0  0  0  0  0  0  0  0
   24.6328  -22.2584  -16.7376 N   0  0  0  0  0  0  0  0  0  0  0  0
   24.0528  -21.1331  -16.0322 C   0  0  1  0  0  0  0  0  0  0  0  0
   23.0507  -20.3887  -16.8562 C   0  0  0  0  0  0  0  0  0  0  0  0
   22.1838  -19.1108  -15.9317 S   0  0  0  0  0  0  0  0  0  0  0  0
   23.4663  -21.5039  -14.7357 C   0  0  0  0  0  0  0  0  0  0  0  0
   22.5385  -22.3252  -14.5825 O   0  0  0  0  0  0  0  0  0  0  0  0
   26.6273  -19.8833   -9.1065 C   0  0  0  0  0  0  0  0  0  0  0  0
   24.8772  -19.7608   -8.6271 S   0  0  0  0  0  0  0  0  0  0  0  0
   23.8410  -20.6143   -9.8201 C   0  0  0  0  0  0  0  0  0  0  0  0
   24.2789  -20.4502  -11.2435 C   0  0  0  0  0  0  0  0  0  0  0  0
   23.4542  -21.1950  -12.2452 C   0  0  2  0  0  0  0  0  0  0  0  0
   23.9918  -20.8842  -13.5697 N   0  0  0  0  0  0  0  0  0  0  0  0
   22.0615  -20.7173  -12.2001 C   0  0  0  0  0  0  0  0  0  0  0  0
   21.6676  -19.4903  -12.7345 O   0  0  0  0  0  0  0  0  0  0  0  0
   21.1528  -21.4149  -11.6621 O   0  0  0  0  0  0  0  0  0  0  0  0
  2  1  1  1
  3  2  1  0
  4  3  1  0
  5  6  1  0
  5  4  1  0
  7  6  1  0
  8  2  1  0
  8  9  2  0
 10 11  1  0
 10  8  1  0
 11 12  1  6
 12 13  1  0
 14 11  1  0
 15 14  2  0
 16 17  1  0
 18 19  1  0
 18 17  1  0
 20 19  1  1
 20 21  1  0
 21 14  1  0
 22 20  1  0
 22 23  1  0
 24 22  2  0
M  END
$$$$
