KCM.pdb
     RDKit          3D

 24 23  0  0  1  0  0  0  0  0999 V2000
   21.9946  -13.1979  -18.6754 N   0  0  0  0  0  0  0  0  0  0  0  0
   20.7882  -12.6839  -18.1240 C   0  0  1  0  0  0  0  0  0  0  0  0
   19.9575  -13.7761  -17.5526 C   0  0  0  0  0  0  0  0  0  0  0  0
   19.5421  -14.8426  -18.5182 C   0  0  0  0  0  0  0  0  0  0  0  0
   18.5343  -14.4296  -19.5322 C   0  0  0  0  0  0  0  0  0  0  0  0
   18.1226  -15.6841  -20.3292 C   0  0  0  0  0  0  0  0  0  0  0  0
   17.1907  -15.2852  -21.3580 N   0  0  0  0  0  0  0  0  0  0  0  0
   20.9967  -11.5560  -17.1851 C   0  0  0  0  0  0  0  0  0  0  0  0
   19.9966  -11.0993  -16.5747 O   0  0  0  0  0  0  0  0  0  0  0  0
   22.2595  -10.9563  -16.9304 N   0  0  0  0  0  0  0  0  0  0  0  0
   22.4464   -9.7962  -16.0822 C   0  0  1  0  0  0  0  0  0  0  0  0
   23.8662   -9.6230  -15.6444 C   0  0  0  0  0  0  0  0  0  0  0  0
   24.4469  -10.9559  -14.5834 S   0  0  0  0  0  0  0  0  0  0  0  0
   21.9483   -8.5517  -16.6870 C   0  0  0  0  0  0  0  0  0  0  0  0
   22.2832   -8.1220  -17.8103 O   0  0  0  0  0  0  0  0  0  0  0  0
   16.0924   -7.3605  -17.5696 C   0  0  0  0  0  0  0  0  0  0  0  0
   16.4882   -5.6423  -17.1233 S   0  0  0  0  0  0  0  0  0  0  0  0
   18.2648   -5.4303  -16.9672 C   0  0  0  0  0  0  0  0  0  0  0  0
   18.9955   -6.6644  -16.5339 C   0  0  0  0  0  0  0  0  0  0  0  0
   20.4838   -6.5251  -16.4720 C   0  0  2  0  0  0  0  0  0  0  0  0
   21.0172   -7.7795  -15.9410 N   0  0  0  0  0  0  0  0  0  0  0  0
   20.8463   -5.4481  -15.5346 C   0  0  0  0  0  0  0  0  0  0  0  0
   20.8303   -4.0999  -15.8926 O   0  0  0  0  0  0  0  0  0  0  0  0
   21.1949   -5.7113  -14.3467 O   0  0  0  0  0  0  0  0  0  0  0  0
  2  1  1  1
  3  2  1  0
  4  3  1  0
  5  6  1  0
  5  4  1  0
  7  6  1  0
  8  2  1  0
  8  9  2  0
 10 11  1  0
 10  8  1  0
 11 12  1  6
 12 13  1  0
 14 11  1  0
 15 14  2  0
 16 17  1  0
 18 19  1  0
 18 17  1  0
 20 19  1  1
 20 21  1  0
 21 14  1  0
 22 20  1  0
 22 23  1  0
 24 22  2  0
M  END
$$$$
