KCM.pdb
     RDKit          3D

 24 23  0  0  1  0  0  0  0  0999 V2000
   21.1037  -11.1062  -15.7912 N   0  0  0  0  0  0  0  0  0  0  0  0
   20.8859  -10.1472  -16.8189 C   0  0  1  0  0  0  0  0  0  0  0  0
   19.7229  -10.5278  -17.6629 C   0  0  0  0  0  0  0  0  0  0  0  0
   19.7115  -11.9461  -18.1429 C   0  0  0  0  0  0  0  0  0  0  0  0
   18.4846  -12.3636  -18.8743 C   0  0  0  0  0  0  0  0  0  0  0  0
   18.6452  -13.8479  -19.2604 C   0  0  0  0  0  0  0  0  0  0  0  0
   17.4979  -14.2419  -20.0444 N   0  0  0  0  0  0  0  0  0  0  0  0
   20.8176   -8.7513  -16.3250 C   0  0  0  0  0  0  0  0  0  0  0  0
   20.1413   -7.9209  -16.9842 O   0  0  0  0  0  0  0  0  0  0  0  0
   21.4703   -8.2907  -15.1498 N   0  0  0  0  0  0  0  0  0  0  0  0
   21.4404   -6.9147  -14.6958 C   0  0  1  0  0  0  0  0  0  0  0  0
   22.1790   -6.7140  -13.4107 C   0  0  0  0  0  0  0  0  0  0  0  0
   22.1589   -5.0063  -12.8424 S   0  0  0  0  0  0  0  0  0  0  0  0
   21.9187   -5.9616  -15.7083 C   0  0  0  0  0  0  0  0  0  0  0  0
   22.9340   -6.1245  -16.4165 O   0  0  0  0  0  0  0  0  0  0  0  0
   19.4968   -4.7754  -21.3246 C   0  0  0  0  0  0  0  0  0  0  0  0
   21.2554   -4.4172  -21.0304 S   0  0  0  0  0  0  0  0  0  0  0  0
   21.4684   -3.5832  -19.4541 C   0  0  0  0  0  0  0  0  0  0  0  0
   21.2763   -4.4672  -18.2599 C   0  0  0  0  0  0  0  0  0  0  0  0
   21.5376   -3.8095  -16.9418 C   0  0  2  0  0  0  0  0  0  0  0  0
   21.1730   -4.7666  -15.8973 N   0  0  0  0  0  0  0  0  0  0  0  0
   20.6713   -2.6275  -16.7928 C   0  0  0  0  0  0  0  0  0  0  0  0
   19.5712   -2.6022  -15.9353 O   0  0  0  0  0  0  0  0  0  0  0  0
   20.8958   -1.5706  -17.4520 O   0  0  0  0  0  0  0  0  0  0  0  0
  2  1  1  1
  3  2  1  0
  4  3  1  0
  5  6  1  0
  5  4  1  0
  7  6  1  0
  8  2  1  0
  8  9  2  0
 10 11  1  0
 10  8  1  0
 11 12  1  1
 12 13  1  0
 14 11  1  0
 15 14  2  0
 16 17  1  0
 18 19  1  0
 18 17  1  0
 20 19  1  6
 20 21  1  0
 21 14  1  0
 22 20  1  0
 22 23  1  0
 24 22  2  0
M  END
$$$$
