KCM.pdb
     RDKit          3D

 24 23  0  0  1  0  0  0  0  0999 V2000
   25.6624  -22.8582  -13.5161 N   0  0  0  0  0  0  0  0  0  0  0  0
   25.1959  -21.5790  -13.1046 C   0  0  1  0  0  0  0  0  0  0  0  0
   26.3228  -20.7241  -12.6476 C   0  0  0  0  0  0  0  0  0  0  0  0
   26.3966  -20.4901  -11.1705 C   0  0  0  0  0  0  0  0  0  0  0  0
   25.2871  -21.0805  -10.3735 C   0  0  0  0  0  0  0  0  0  0  0  0
   25.4316  -20.5848   -8.9204 C   0  0  0  0  0  0  0  0  0  0  0  0
   24.3356  -21.1180   -8.1455 N   0  0  0  0  0  0  0  0  0  0  0  0
   24.3255  -20.9139  -14.1033 C   0  0  0  0  0  0  0  0  0  0  0  0
   24.5820  -21.0859  -15.3223 O   0  0  0  0  0  0  0  0  0  0  0  0
   23.2160  -20.0914  -13.7690 N   0  0  0  0  0  0  0  0  0  0  0  0
   22.3367  -19.4842  -14.7479 C   0  0  1  0  0  0  0  0  0  0  0  0
   20.9909  -19.1496  -14.1872 C   0  0  0  0  0  0  0  0  0  0  0  0
   19.9787  -18.1741  -15.3112 S   0  0  0  0  0  0  0  0  0  0  0  0
   22.9227  -18.3016  -15.3963 C   0  0  0  0  0  0  0  0  0  0  0  0
   23.4018  -17.3209  -14.7900 O   0  0  0  0  0  0  0  0  0  0  0  0
   28.3230  -17.1623  -18.3756 C   0  0  0  0  0  0  0  0  0  0  0  0
   27.0661  -17.1471  -19.6900 S   0  0  0  0  0  0  0  0  0  0  0  0
   25.4845  -16.6023  -19.0364 C   0  0  0  0  0  0  0  0  0  0  0  0
   24.8058  -17.6047  -18.1536 C   0  0  0  0  0  0  0  0  0  0  0  0
   23.5281  -17.1341  -17.5338 C   0  0  2  0  0  0  0  0  0  0  0  0
   22.9474  -18.2694  -16.8169 N   0  0  0  0  0  0  0  0  0  0  0  0
   22.5798  -16.7329  -18.5872 C   0  0  0  0  0  0  0  0  0  0  0  0
   22.4840  -15.4227  -19.0563 O   0  0  0  0  0  0  0  0  0  0  0  0
   21.7995  -17.5784  -19.1147 O   0  0  0  0  0  0  0  0  0  0  0  0
  2  1  1  6
  3  2  1  0
  4  3  1  0
  5  6  1  0
  5  4  1  0
  7  6  1  0
  8  2  1  0
  8  9  2  0
 10 11  1  0
 10  8  1  0
 11 12  1  1
 12 13  1  0
 14 11  1  0
 15 14  2  0
 16 17  1  0
 18 19  1  0
 18 17  1  0
 20 19  1  6
 20 21  1  0
 21 14  1  0
 22 20  1  0
 22 23  1  0
 24 22  2  0
M  END
$$$$
