KCM.pdb
     RDKit          3D

 24 23  0  0  1  0  0  0  0  0999 V2000
   14.8045  -11.8872  -13.2926 N   0  0  0  0  0  0  0  0  0  0  0  0
   14.7801  -10.4670  -13.3703 C   0  0  1  0  0  0  0  0  0  0  0  0
   14.2873   -9.8737  -12.0996 C   0  0  0  0  0  0  0  0  0  0  0  0
   12.8805  -10.2260  -11.7267 C   0  0  0  0  0  0  0  0  0  0  0  0
   12.6738  -10.6122  -10.3045 C   0  0  0  0  0  0  0  0  0  0  0  0
   11.1885  -10.9870  -10.1265 C   0  0  0  0  0  0  0  0  0  0  0  0
   11.1103  -12.3846   -9.7703 N   0  0  0  0  0  0  0  0  0  0  0  0
   16.0569   -9.8749  -13.8352 C   0  0  0  0  0  0  0  0  0  0  0  0
   17.1159  -10.5276  -13.6505 O   0  0  0  0  0  0  0  0  0  0  0  0
   16.1603   -8.6121  -14.4785 N   0  0  0  0  0  0  0  0  0  0  0  0
   17.4041   -8.0574  -14.9742 C   0  0  1  0  0  0  0  0  0  0  0  0
   17.2021   -7.1196  -16.1218 C   0  0  0  0  0  0  0  0  0  0  0  0
   18.7394   -6.4174  -16.7408 S   0  0  0  0  0  0  0  0  0  0  0  0
   18.2060   -7.4087  -13.9260 C   0  0  0  0  0  0  0  0  0  0  0  0
   17.7558   -6.6155  -13.0734 O   0  0  0  0  0  0  0  0  0  0  0  0
   24.0030   -8.9814   -9.0202 C   0  0  0  0  0  0  0  0  0  0  0  0
   23.0332   -9.4694  -10.4793 S   0  0  0  0  0  0  0  0  0  0  0  0
   22.1897   -8.0443  -11.1746 C   0  0  0  0  0  0  0  0  0  0  0  0
   21.2055   -8.3784  -12.2536 C   0  0  0  0  0  0  0  0  0  0  0  0
   20.4307   -7.2125  -12.7814 C   0  0  2  0  0  0  0  0  0  0  0  0
   19.5952   -7.7044  -13.8768 N   0  0  0  0  0  0  0  0  0  0  0  0
   21.3549   -6.2078  -13.3350 C   0  0  0  0  0  0  0  0  0  0  0  0
   21.9142   -5.1906  -12.5614 O   0  0  0  0  0  0  0  0  0  0  0  0
   21.6804   -6.2291  -14.5579 O   0  0  0  0  0  0  0  0  0  0  0  0
  2  1  1  1
  3  2  1  0
  4  3  1  0
  5  6  1  0
  5  4  1  0
  7  6  1  0
  8  2  1  0
  8  9  2  0
 10 11  1  0
 10  8  1  0
 11 12  1  6
 12 13  1  0
 14 11  1  0
 15 14  2  0
 16 17  1  0
 18 19  1  0
 18 17  1  0
 20 19  1  6
 20 21  1  0
 21 14  1  0
 22 20  1  0
 22 23  1  0
 24 22  2  0
M  END
$$$$
