KCM.pdb
     RDKit          3D

 24 23  0  0  1  0  0  0  0  0999 V2000
   23.8610  -20.5054  -13.6828 N   0  0  0  0  0  0  0  0  0  0  0  0
   23.4315  -20.5626  -12.3279 C   0  0  1  0  0  0  0  0  0  0  0  0
   22.1796  -21.3537  -12.2003 C   0  0  0  0  0  0  0  0  0  0  0  0
   21.3201  -21.4024  -13.4255 C   0  0  0  0  0  0  0  0  0  0  0  0
   21.0034  -20.0832  -14.0369 C   0  0  0  0  0  0  0  0  0  0  0  0
   19.8944  -20.3014  -15.0862 C   0  0  0  0  0  0  0  0  0  0  0  0
   18.8270  -19.3647  -14.8231 N   0  0  0  0  0  0  0  0  0  0  0  0
   24.4923  -20.9911  -11.3854 C   0  0  0  0  0  0  0  0  0  0  0  0
   24.1426  -21.4864  -10.2836 O   0  0  0  0  0  0  0  0  0  0  0  0
   25.8839  -20.8773  -11.6491 N   0  0  0  0  0  0  0  0  0  0  0  0
   26.9158  -21.1171  -10.6601 C   0  0  1  0  0  0  0  0  0  0  0  0
   28.2953  -21.0333  -11.2321 C   0  0  0  0  0  0  0  0  0  0  0  0
   29.5749  -21.5333  -10.0693 S   0  0  0  0  0  0  0  0  0  0  0  0
   26.8023  -20.2431   -9.4829 C   0  0  0  0  0  0  0  0  0  0  0  0
   26.4439  -19.0476   -9.5154 O   0  0  0  0  0  0  0  0  0  0  0  0
   29.2757  -22.6134   -3.9809 C   0  0  0  0  0  0  0  0  0  0  0  0
   28.9261  -20.9270   -3.3966 S   0  0  0  0  0  0  0  0  0  0  0  0
   28.0229  -20.0068   -4.6468 C   0  0  0  0  0  0  0  0  0  0  0  0
   27.8868  -20.7206   -5.9571 C   0  0  0  0  0  0  0  0  0  0  0  0
   27.1476  -19.9614   -7.0132 C   0  0  2  0  0  0  0  0  0  0  0  0
   27.1231  -20.7966   -8.2139 N   0  0  0  0  0  0  0  0  0  0  0  0
   27.8751  -18.7229   -7.3399 C   0  0  0  0  0  0  0  0  0  0  0  0
   28.9094  -18.6804   -8.2750 O   0  0  0  0  0  0  0  0  0  0  0  0
   27.5846  -17.6300   -6.7714 O   0  0  0  0  0  0  0  0  0  0  0  0
  2  1  1  6
  3  2  1  0
  4  3  1  0
  5  6  1  0
  5  4  1  0
  7  6  1  0
  8  2  1  0
  8  9  2  0
 10 11  1  0
 10  8  1  0
 11 12  1  6
 12 13  1  0
 14 11  1  0
 15 14  2  0
 16 17  1  0
 18 19  1  0
 18 17  1  0
 20 19  1  1
 20 21  1  0
 21 14  1  0
 22 20  1  0
 22 23  1  0
 24 22  2  0
M  END
$$$$
