KCM.pdb
     RDKit          3D

 24 23  0  0  1  0  0  0  0  0999 V2000
   28.5182  -21.4667  -15.7625 N   0  0  0  0  0  0  0  0  0  0  0  0
   27.8969  -20.4536  -14.9809 C   0  0  1  0  0  0  0  0  0  0  0  0
   27.4796  -19.3077  -15.8309 C   0  0  0  0  0  0  0  0  0  0  0  0
   28.4366  -18.9300  -16.9188 C   0  0  0  0  0  0  0  0  0  0  0  0
   28.5862  -19.9271  -18.0133 C   0  0  0  0  0  0  0  0  0  0  0  0
   29.5268  -19.3254  -19.0770 C   0  0  0  0  0  0  0  0  0  0  0  0
   29.8557  -20.3583  -20.0316 N   0  0  0  0  0  0  0  0  0  0  0  0
   26.8115  -20.9586  -14.1068 C   0  0  0  0  0  0  0  0  0  0  0  0
   25.9184  -21.6769  -14.6244 O   0  0  0  0  0  0  0  0  0  0  0  0
   26.7161  -20.6814  -12.7164 N   0  0  0  0  0  0  0  0  0  0  0  0
   25.5659  -21.0198  -11.9023 C   0  0  1  0  0  0  0  0  0  0  0  0
   25.7599  -20.6809  -10.4584 C   0  0  0  0  0  0  0  0  0  0  0  0
   24.3454  -21.1148   -9.4336 S   0  0  0  0  0  0  0  0  0  0  0  0
   24.3137  -20.4283  -12.3969 C   0  0  0  0  0  0  0  0  0  0  0  0
   24.1786  -19.2382  -12.7491 O   0  0  0  0  0  0  0  0  0  0  0  0
   21.9884  -21.9807  -17.3816 C   0  0  0  0  0  0  0  0  0  0  0  0
   20.5023  -21.0623  -16.8759 S   0  0  0  0  0  0  0  0  0  0  0  0
   20.5243  -20.7640  -15.1049 C   0  0  0  0  0  0  0  0  0  0  0  0
   21.8161  -21.1240  -14.4368 C   0  0  0  0  0  0  0  0  0  0  0  0
   21.8974  -20.7609  -12.9877 C   0  0  2  0  0  0  0  0  0  0  0  0
   23.1719  -21.2703  -12.4816 N   0  0  0  0  0  0  0  0  0  0  0  0
   20.8166  -21.4302  -12.2435 C   0  0  0  0  0  0  0  0  0  0  0  0
   19.5978  -20.8114  -11.9646 O   0  0  0  0  0  0  0  0  0  0  0  0
   20.9572  -22.6141  -11.8189 O   0  0  0  0  0  0  0  0  0  0  0  0
  2  1  1  6
  3  2  1  0
  4  3  1  0
  5  6  1  0
  5  4  1  0
  7  6  1  0
  8  2  1  0
  8  9  2  0
 10 11  1  0
 10  8  1  0
 11 12  1  1
 12 13  1  0
 14 11  1  0
 15 14  2  0
 16 17  1  0
 18 19  1  0
 18 17  1  0
 20 19  1  6
 20 21  1  0
 21 14  1  0
 22 20  1  0
 22 23  1  0
 24 22  2  0
M  END
$$$$
