KCM.pdb
     RDKit          3D

 24 23  0  0  1  0  0  0  0  0999 V2000
   17.1768  -12.5042  -17.7841 N   0  0  0  0  0  0  0  0  0  0  0  0
   18.0517  -12.2868  -16.6838 C   0  0  1  0  0  0  0  0  0  0  0  0
   19.3537  -12.9717  -16.8967 C   0  0  0  0  0  0  0  0  0  0  0  0
   19.2707  -14.3439  -17.4904 C   0  0  0  0  0  0  0  0  0  0  0  0
   20.5769  -14.9888  -17.7945 C   0  0  0  0  0  0  0  0  0  0  0  0
   20.2918  -16.4056  -18.3326 C   0  0  0  0  0  0  0  0  0  0  0  0
   21.5521  -17.0334  -18.6545 N   0  0  0  0  0  0  0  0  0  0  0  0
   18.1962  -10.8592  -16.3120 C   0  0  0  0  0  0  0  0  0  0  0  0
   18.4093  -10.0257  -17.2291 O   0  0  0  0  0  0  0  0  0  0  0  0
   18.1088  -10.3715  -14.9802 N   0  0  0  0  0  0  0  0  0  0  0  0
   18.3344   -8.9886  -14.6099 C   0  0  1  0  0  0  0  0  0  0  0  0
   17.5280   -8.5694  -13.4219 C   0  0  0  0  0  0  0  0  0  0  0  0
   18.5275   -8.2891  -11.9516 S   0  0  0  0  0  0  0  0  0  0  0  0
   19.7543   -8.6722  -14.3946 C   0  0  0  0  0  0  0  0  0  0  0  0
   20.5787   -9.4338  -13.8478 O   0  0  0  0  0  0  0  0  0  0  0  0
   25.9238   -5.6714  -17.8780 C   0  0  0  0  0  0  0  0  0  0  0  0
   24.1396   -6.0241  -17.8744 S   0  0  0  0  0  0  0  0  0  0  0  0
   23.5745   -6.3728  -16.2057 C   0  0  0  0  0  0  0  0  0  0  0  0
   22.1543   -6.8427  -16.1230 C   0  0  0  0  0  0  0  0  0  0  0  0
   21.6409   -7.0523  -14.7336 C   0  0  2  0  0  0  0  0  0  0  0  0
   20.2260   -7.4081  -14.8408 N   0  0  0  0  0  0  0  0  0  0  0  0
   21.7335   -5.7950  -13.9717 C   0  0  0  0  0  0  0  0  0  0  0  0
   22.8850   -5.4140  -13.2826 O   0  0  0  0  0  0  0  0  0  0  0  0
   20.7514   -4.9990  -13.9106 O   0  0  0  0  0  0  0  0  0  0  0  0
  2  1  1  6
  3  2  1  0
  4  3  1  0
  5  6  1  0
  5  4  1  0
  7  6  1  0
  8  2  1  0
  8  9  2  0
 10 11  1  0
 10  8  1  0
 11 12  1  1
 12 13  1  0
 14 11  1  0
 15 14  2  0
 16 17  1  0
 18 19  1  0
 18 17  1  0
 20 19  1  6
 20 21  1  0
 21 14  1  0
 22 20  1  0
 22 23  1  0
 24 22  2  0
M  END
$$$$
