KCM.pdb
     RDKit          3D

 24 23  0  0  1  0  0  0  0  0999 V2000
   16.9719  -25.4688   -5.6845 N   0  0  0  0  0  0  0  0  0  0  0  0
   17.8295  -25.5552   -6.8161 C   0  0  1  0  0  0  0  0  0  0  0  0
   17.3595  -26.6026   -7.7603 C   0  0  0  0  0  0  0  0  0  0  0  0
   18.1338  -27.8841   -7.7387 C   0  0  0  0  0  0  0  0  0  0  0  0
   18.2370  -28.5464   -6.4101 C   0  0  0  0  0  0  0  0  0  0  0  0
   18.0212  -30.0593   -6.6169 C   0  0  0  0  0  0  0  0  0  0  0  0
   19.2718  -30.6447   -7.0404 N   0  0  0  0  0  0  0  0  0  0  0  0
   18.0835  -24.2497   -7.4707 C   0  0  0  0  0  0  0  0  0  0  0  0
   17.1076  -23.4783   -7.6548 O   0  0  0  0  0  0  0  0  0  0  0  0
   19.3643  -23.8135   -7.9048 N   0  0  0  0  0  0  0  0  0  0  0  0
   19.5802  -22.6541   -8.7470 C   0  0  1  0  0  0  0  0  0  0  0  0
   20.9556  -22.0840   -8.6042 C   0  0  0  0  0  0  0  0  0  0  0  0
   21.1986  -20.5756   -9.5556 S   0  0  0  0  0  0  0  0  0  0  0  0
   19.2818  -22.9060  -10.1648 C   0  0  0  0  0  0  0  0  0  0  0  0
   19.6262  -23.9276  -10.7944 O   0  0  0  0  0  0  0  0  0  0  0  0
   15.8482  -23.9499  -16.3051 C   0  0  0  0  0  0  0  0  0  0  0  0
   16.2784  -23.9165  -14.5383 S   0  0  0  0  0  0  0  0  0  0  0  0
   16.4202  -22.2217  -13.9612 C   0  0  0  0  0  0  0  0  0  0  0  0
   16.8430  -22.0929  -12.5297 C   0  0  0  0  0  0  0  0  0  0  0  0
   18.3221  -22.0341  -12.3135 C   0  0  2  0  0  0  0  0  0  0  0  0
   18.5477  -21.9164  -10.8729 N   0  0  0  0  0  0  0  0  0  0  0  0
   18.8735  -20.8288  -12.9563 C   0  0  0  0  0  0  0  0  0  0  0  0
   19.3426  -20.8226  -14.2701 O   0  0  0  0  0  0  0  0  0  0  0  0
   18.9459  -19.7329  -12.3274 O   0  0  0  0  0  0  0  0  0  0  0  0
  2  1  1  1
  3  2  1  0
  4  3  1  0
  5  6  1  0
  5  4  1  0
  7  6  1  0
  8  2  1  0
  8  9  2  0
 10 11  1  0
 10  8  1  0
 11 12  1  6
 12 13  1  0
 14 11  1  0
 15 14  2  0
 16 17  1  0
 18 19  1  0
 18 17  1  0
 20 19  1  1
 20 21  1  0
 21 14  1  0
 22 20  1  0
 22 23  1  0
 24 22  2  0
M  END
$$$$
