KCM.pdb
     RDKit          3D

 24 23  0  0  1  0  0  0  0  0999 V2000
   15.7580  -11.6324  -14.6836 N   0  0  0  0  0  0  0  0  0  0  0  0
   17.1221  -11.4980  -15.0636 C   0  0  1  0  0  0  0  0  0  0  0  0
   17.4333  -12.3541  -16.2383 C   0  0  0  0  0  0  0  0  0  0  0  0
   17.1125  -13.8081  -16.0793 C   0  0  0  0  0  0  0  0  0  0  0  0
   17.3486  -14.6502  -17.2833 C   0  0  0  0  0  0  0  0  0  0  0  0
   16.9160  -16.0914  -16.9457 C   0  0  0  0  0  0  0  0  0  0  0  0
   17.1327  -16.9173  -18.1106 N   0  0  0  0  0  0  0  0  0  0  0  0
   17.5559  -10.0910  -15.2346 C   0  0  0  0  0  0  0  0  0  0  0  0
   18.6254   -9.8713  -15.8587 O   0  0  0  0  0  0  0  0  0  0  0  0
   16.8372   -8.9710  -14.7363 N   0  0  0  0  0  0  0  0  0  0  0  0
   17.2628   -7.5964  -14.9084 C   0  0  1  0  0  0  0  0  0  0  0  0
   16.1994   -6.6115  -14.5391 C   0  0  0  0  0  0  0  0  0  0  0  0
   14.5410   -7.1698  -14.9601 S   0  0  0  0  0  0  0  0  0  0  0  0
   18.5108   -7.2843  -14.1959 C   0  0  0  0  0  0  0  0  0  0  0  0
   18.8344   -7.7560  -13.0862 O   0  0  0  0  0  0  0  0  0  0  0  0
   23.2500  -10.2705  -13.2913 C   0  0  0  0  0  0  0  0  0  0  0  0
   23.7874   -9.0789  -14.5559 S   0  0  0  0  0  0  0  0  0  0  0  0
   22.9747   -7.4964  -14.3092 C   0  0  0  0  0  0  0  0  0  0  0  0
   21.5296   -7.4792  -14.7041 C   0  0  0  0  0  0  0  0  0  0  0  0
   20.7880   -6.2371  -14.3227 C   0  0  2  0  0  0  0  0  0  0  0  0
   19.4171   -6.3801  -14.8129 N   0  0  0  0  0  0  0  0  0  0  0  0
   21.3877   -5.0710  -14.9939 C   0  0  0  0  0  0  0  0  0  0  0  0
   20.8714   -4.5312  -16.1720 O   0  0  0  0  0  0  0  0  0  0  0  0
   22.4156   -4.5058  -14.5185 O   0  0  0  0  0  0  0  0  0  0  0  0
  2  1  1  6
  3  2  1  0
  4  3  1  0
  5  6  1  0
  5  4  1  0
  7  6  1  0
  8  2  1  0
  8  9  2  0
 10 11  1  0
 10  8  1  0
 11 12  1  1
 12 13  1  0
 14 11  1  0
 15 14  2  0
 16 17  1  0
 18 19  1  0
 18 17  1  0
 20 19  1  6
 20 21  1  0
 21 14  1  0
 22 20  1  0
 22 23  1  0
 24 22  2  0
M  END
$$$$
