KCM.pdb
     RDKit          3D

 24 23  0  0  1  0  0  0  0  0999 V2000
   25.1633  -22.1978  -13.9450 N   0  0  0  0  0  0  0  0  0  0  0  0
   23.9357  -21.8645  -14.5818 C   0  0  1  0  0  0  0  0  0  0  0  0
   23.6160  -22.8357  -15.6608 C   0  0  0  0  0  0  0  0  0  0  0  0
   24.7537  -23.1888  -16.5680 C   0  0  0  0  0  0  0  0  0  0  0  0
   25.4824  -24.4394  -16.2225 C   0  0  0  0  0  0  0  0  0  0  0  0
   26.5458  -24.6847  -17.3121 C   0  0  0  0  0  0  0  0  0  0  0  0
   27.2796  -25.8813  -16.9721 N   0  0  0  0  0  0  0  0  0  0  0  0
   22.8142  -21.6512  -13.6364 C   0  0  0  0  0  0  0  0  0  0  0  0
   22.7171  -22.4215  -12.6471 O   0  0  0  0  0  0  0  0  0  0  0  0
   21.8385  -20.6278  -13.7777 N   0  0  0  0  0  0  0  0  0  0  0  0
   20.7662  -20.3976  -12.8304 C   0  0  1  0  0  0  0  0  0  0  0  0
   20.1232  -19.0577  -12.9995 C   0  0  0  0  0  0  0  0  0  0  0  0
   19.3745  -18.8318  -14.6206 S   0  0  0  0  0  0  0  0  0  0  0  0
   19.7440  -21.4548  -12.8465 C   0  0  0  0  0  0  0  0  0  0  0  0
   19.3701  -22.0684  -13.8675 O   0  0  0  0  0  0  0  0  0  0  0  0
   18.6660  -25.3505   -7.6838 C   0  0  0  0  0  0  0  0  0  0  0  0
   16.9592  -24.9412   -8.1600 S   0  0  0  0  0  0  0  0  0  0  0  0
   16.9197  -24.2615   -9.8220 C   0  0  0  0  0  0  0  0  0  0  0  0
   18.0030  -23.2660  -10.1050 C   0  0  0  0  0  0  0  0  0  0  0  0
   18.1338  -22.8701  -11.5418 C   0  0  2  0  0  0  0  0  0  0  0  0
   19.1355  -21.8062  -11.6112 N   0  0  0  0  0  0  0  0  0  0  0  0
   16.8565  -22.3193  -12.0266 C   0  0  0  0  0  0  0  0  0  0  0  0
   15.9116  -23.0904  -12.7038 O   0  0  0  0  0  0  0  0  0  0  0  0
   16.5640  -21.1013  -11.8452 O   0  0  0  0  0  0  0  0  0  0  0  0
  2  1  1  1
  3  2  1  0
  4  3  1  0
  5  6  1  0
  5  4  1  0
  7  6  1  0
  8  2  1  0
  8  9  2  0
 10 11  1  0
 10  8  1  0
 11 12  1  6
 12 13  1  0
 14 11  1  0
 15 14  2  0
 16 17  1  0
 18 19  1  0
 18 17  1  0
 20 19  1  1
 20 21  1  0
 21 14  1  0
 22 20  1  0
 22 23  1  0
 24 22  2  0
M  END
$$$$
