KCM.pdb
     RDKit          3D

 24 23  0  0  1  0  0  0  0  0999 V2000
   18.9204  -26.8191  -12.2335 N   0  0  0  0  0  0  0  0  0  0  0  0
   19.5050  -27.3668  -11.0580 C   0  0  1  0  0  0  0  0  0  0  0  0
   20.9247  -27.7385  -11.2943 C   0  0  0  0  0  0  0  0  0  0  0  0
   21.1588  -28.7167  -12.4036 C   0  0  0  0  0  0  0  0  0  0  0  0
   20.8214  -30.1317  -12.0899 C   0  0  0  0  0  0  0  0  0  0  0  0
   21.1791  -30.9883  -13.3214 C   0  0  0  0  0  0  0  0  0  0  0  0
   20.9828  -32.3785  -12.9826 N   0  0  0  0  0  0  0  0  0  0  0  0
   19.3139  -26.5266   -9.8519 C   0  0  0  0  0  0  0  0  0  0  0  0
   19.8700  -26.8872   -8.7832 O   0  0  0  0  0  0  0  0  0  0  0  0
   18.5394  -25.3355   -9.8269 N   0  0  0  0  0  0  0  0  0  0  0  0
   18.2788  -24.5665   -8.6265 C   0  0  1  0  0  0  0  0  0  0  0  0
   17.5686  -23.2802   -8.9069 C   0  0  0  0  0  0  0  0  0  0  0  0
   18.6280  -22.0377   -9.6640 S   0  0  0  0  0  0  0  0  0  0  0  0
   17.5566  -25.3289   -7.5971 C   0  0  0  0  0  0  0  0  0  0  0  0
   16.5249  -26.0016   -7.8016 O   0  0  0  0  0  0  0  0  0  0  0  0
   18.4167  -28.2529   -0.2877 C   0  0  0  0  0  0  0  0  0  0  0  0
   19.1256  -27.2504   -1.6293 S   0  0  0  0  0  0  0  0  0  0  0  0
   17.8741  -26.8838   -2.8642 C   0  0  0  0  0  0  0  0  0  0  0  0
   18.4010  -26.2029   -4.0903 C   0  0  0  0  0  0  0  0  0  0  0  0
   17.4044  -26.0332   -5.1931 C   0  0  2  0  0  0  0  0  0  0  0  0
   18.0680  -25.3005   -6.2714 N   0  0  0  0  0  0  0  0  0  0  0  0
   16.2726  -25.2162   -4.7225 C   0  0  0  0  0  0  0  0  0  0  0  0
   16.2070  -23.8362   -4.9161 O   0  0  0  0  0  0  0  0  0  0  0  0
   15.2995  -25.7459   -4.1107 O   0  0  0  0  0  0  0  0  0  0  0  0
  2  1  1  6
  3  2  1  0
  4  3  1  0
  5  6  1  0
  5  4  1  0
  7  6  1  0
  8  2  1  0
  8  9  2  0
 10 11  1  0
 10  8  1  0
 11 12  1  6
 12 13  1  0
 14 11  1  0
 15 14  2  0
 16 17  1  0
 18 19  1  0
 18 17  1  0
 20 19  1  1
 20 21  1  0
 21 14  1  0
 22 20  1  0
 22 23  1  0
 24 22  2  0
M  END
$$$$
