KCM.pdb
     RDKit          3D

 24 23  0  0  1  0  0  0  0  0999 V2000
   16.7305  -11.8331  -16.9019 N   0  0  0  0  0  0  0  0  0  0  0  0
   17.8460  -11.6117  -16.0474 C   0  0  1  0  0  0  0  0  0  0  0  0
   19.1016  -12.1000  -16.6755 C   0  0  0  0  0  0  0  0  0  0  0  0
   19.1617  -13.5735  -16.9352 C   0  0  0  0  0  0  0  0  0  0  0  0
   20.4444  -14.0709  -17.5024 C   0  0  0  0  0  0  0  0  0  0  0  0
   20.3578  -15.6079  -17.5934 C   0  0  0  0  0  0  0  0  0  0  0  0
   19.8851  -15.9608  -18.9118 N   0  0  0  0  0  0  0  0  0  0  0  0
   17.9455  -10.2196  -15.5481 C   0  0  0  0  0  0  0  0  0  0  0  0
   17.8398   -9.2819  -16.3793 O   0  0  0  0  0  0  0  0  0  0  0  0
   18.1533   -9.8766  -14.1849 N   0  0  0  0  0  0  0  0  0  0  0  0
   18.2396   -8.5140  -13.6988 C   0  0  1  0  0  0  0  0  0  0  0  0
   17.4825   -8.3054  -12.4258 C   0  0  0  0  0  0  0  0  0  0  0  0
   15.7829   -8.8917  -12.5092 S   0  0  0  0  0  0  0  0  0  0  0  0
   19.6237   -8.0409  -13.5475 C   0  0  0  0  0  0  0  0  0  0  0  0
   20.5327   -8.6717  -12.9690 O   0  0  0  0  0  0  0  0  0  0  0  0
   25.6561   -6.4156  -17.5744 C   0  0  0  0  0  0  0  0  0  0  0  0
   23.9390   -6.9696  -17.3454 S   0  0  0  0  0  0  0  0  0  0  0  0
   23.2815   -6.3435  -15.7958 C   0  0  0  0  0  0  0  0  0  0  0  0
   21.9038   -6.8337  -15.4697 C   0  0  0  0  0  0  0  0  0  0  0  0
   21.3452   -6.3269  -14.1777 C   0  0  2  0  0  0  0  0  0  0  0  0
   19.9544   -6.7736  -14.0991 N   0  0  0  0  0  0  0  0  0  0  0  0
   21.3466   -4.8539  -14.1762 C   0  0  0  0  0  0  0  0  0  0  0  0
   20.2596   -4.0984  -14.6164 O   0  0  0  0  0  0  0  0  0  0  0  0
   22.3550   -4.2060  -13.7698 O   0  0  0  0  0  0  0  0  0  0  0  0
  2  1  1  6
  3  2  1  0
  4  3  1  0
  5  6  1  0
  5  4  1  0
  7  6  1  0
  8  2  1  0
  8  9  2  0
 10 11  1  0
 10  8  1  0
 11 12  1  1
 12 13  1  0
 14 11  1  0
 15 14  2  0
 16 17  1  0
 18 19  1  0
 18 17  1  0
 20 19  1  6
 20 21  1  0
 21 14  1  0
 22 20  1  0
 22 23  1  0
 24 22  2  0
M  END
$$$$
