KCM.pdb
     RDKit          3D

 24 23  0  0  1  0  0  0  0  0999 V2000
   21.6622  -13.6447  -16.7953 N   0  0  0  0  0  0  0  0  0  0  0  0
   22.0498  -12.5088  -17.5587 C   0  0  1  0  0  0  0  0  0  0  0  0
   20.9990  -12.1486  -18.5464 C   0  0  0  0  0  0  0  0  0  0  0  0
   20.6178  -13.2329  -19.5063 C   0  0  0  0  0  0  0  0  0  0  0  0
   21.7363  -13.7988  -20.3084 C   0  0  0  0  0  0  0  0  0  0  0  0
   21.1469  -14.8578  -21.2620 C   0  0  0  0  0  0  0  0  0  0  0  0
   22.2198  -15.3952  -22.0659 N   0  0  0  0  0  0  0  0  0  0  0  0
   22.4937  -11.3606  -16.7329 C   0  0  0  0  0  0  0  0  0  0  0  0
   21.6645  -10.8425  -15.9422 O   0  0  0  0  0  0  0  0  0  0  0  0
   23.8015  -10.8067  -16.7786 N   0  0  0  0  0  0  0  0  0  0  0  0
   24.2484   -9.7197  -15.9306 C   0  0  1  0  0  0  0  0  0  0  0  0
   25.7322   -9.7062  -15.7420 C   0  0  0  0  0  0  0  0  0  0  0  0
   26.3326  -11.0866  -14.7554 S   0  0  0  0  0  0  0  0  0  0  0  0
   23.7848   -8.4014  -16.3884 C   0  0  0  0  0  0  0  0  0  0  0  0
   24.0448   -7.9026  -17.5030 O   0  0  0  0  0  0  0  0  0  0  0  0
   17.8053   -7.0446  -15.8008 C   0  0  0  0  0  0  0  0  0  0  0  0
   18.4155   -5.6488  -16.7944 S   0  0  0  0  0  0  0  0  0  0  0  0
   20.1517   -5.3466  -16.4481 C   0  0  0  0  0  0  0  0  0  0  0  0
   20.9300   -6.5755  -16.0894 C   0  0  0  0  0  0  0  0  0  0  0  0
   22.4008   -6.3612  -15.9190 C   0  0  2  0  0  0  0  0  0  0  0  0
   22.9815   -7.6367  -15.4998 N   0  0  0  0  0  0  0  0  0  0  0  0
   22.6420   -5.3814  -14.8458 C   0  0  0  0  0  0  0  0  0  0  0  0
   22.5765   -4.0035  -15.0542 O   0  0  0  0  0  0  0  0  0  0  0  0
   22.9255   -5.7606  -13.6721 O   0  0  0  0  0  0  0  0  0  0  0  0
  2  1  1  1
  3  2  1  0
  4  3  1  0
  5  6  1  0
  5  4  1  0
  7  6  1  0
  8  2  1  0
  8  9  2  0
 10 11  1  0
 10  8  1  0
 11 12  1  6
 12 13  1  0
 14 11  1  0
 15 14  2  0
 16 17  1  0
 18 19  1  0
 18 17  1  0
 20 19  1  1
 20 21  1  0
 21 14  1  0
 22 20  1  0
 22 23  1  0
 24 22  2  0
M  END
$$$$
