NLD.pdb
     RDKit          3D

 25 24  0  0  1  0  0  0  0  0999 V2000
    7.4257  -16.8879   19.0681 N   0  0  0  0  0  0  0  0  0  0  0  0
    7.7825  -15.4927   19.0222 C   0  0  0  0  0  0  0  0  0  0  0  0
    7.7619  -14.8789   17.9385 O   0  0  0  0  0  0  0  0  0  0  0  0
    8.1684  -14.8007   20.2487 C   0  0  0  0  0  0  0  0  0  0  0  0
    8.1529  -15.6789   21.4422 C   0  0  2  0  0  0  0  0  0  0  0  0
    6.9209  -16.3236   21.7510 N   0  0  0  0  0  0  0  0  0  0  0  0
    8.7218  -15.0510   22.6830 C   0  0  0  0  0  0  0  0  0  0  0  0
    9.8977  -14.6124   22.7074 O   0  0  0  0  0  0  0  0  0  0  0  0
    5.5475  -12.4264   26.6529 C   0  0  0  0  0  0  0  0  0  0  0  0
    6.6856  -12.8060   25.7203 C   0  0  1  0  0  0  0  0  0  0  0  0
    7.5230  -11.6193   25.4206 C   0  0  0  0  0  0  0  0  0  0  0  0
    7.3785  -14.0430   26.1444 C   0  0  0  0  0  0  0  0  0  0  0  0
    8.4101  -14.5774   25.1701 C   0  0  2  0  0  0  0  0  0  0  0  0
    7.9520  -14.9299   23.8844 N   0  0  0  0  0  0  0  0  0  0  0  0
    9.3306  -15.5081   25.8400 C   0  0  0  0  0  0  0  0  0  0  0  0
    9.7658  -15.1770   26.9726 O   0  0  0  0  0  0  0  0  0  0  0  0
    9.7574  -16.7366   25.3077 N   0  0  0  0  0  0  0  0  0  0  0  0
   10.7173  -17.5773   26.0453 C   0  0  1  0  0  0  0  0  0  0  0  0
   10.0586  -18.9028   26.2313 C   0  0  0  0  0  0  0  0  0  0  0  0
   10.3270  -19.5452   27.5220 C   0  0  0  0  0  0  0  0  0  0  0  0
   11.0916  -18.9552   28.3274 O   0  0  0  0  0  0  0  0  0  0  0  0
   11.9652  -17.6479   25.2499 C   0  0  0  0  0  0  0  0  0  0  0  0
   13.2267  -17.8781   25.7607 O   0  0  0  0  0  0  0  0  0  0  0  0
    9.8004  -20.7521   27.9131 O   0  0  0  0  0  0  0  0  0  0  0  0
   11.9077  -17.4881   23.9937 O   0  0  0  0  0  0  0  0  0  0  0  0
  1  2  1  0
  2  3  2  0
  4  2  1  0
  5  4  1  0
  5  6  1  1
  7  8  2  0
  7  5  1  0
 10  9  1  1
 10 11  1  0
 10 12  1  0
 13 12  1  1
 13 14  1  0
 14  7  1  0
 15 17  1  0
 15 13  1  0
 16 15  2  0
 18 17  1  0
 18 22  1  0
 18 19  1  6
 20 19  1  0
 21 20  2  0
 22 23  1  0
 24 20  1  0
 25 22  2  0
M  END
$$$$
