NLD.pdb
     RDKit          3D

 25 24  0  0  1  0  0  0  0  0999 V2000
    8.7742  -17.3994   14.1561 N   0  0  0  0  0  0  0  0  0  0  0  0
    9.5484  -17.9931   15.2163 C   0  0  0  0  0  0  0  0  0  0  0  0
    9.8163  -19.2092   15.1874 O   0  0  0  0  0  0  0  0  0  0  0  0
   10.0177  -17.1658   16.3242 C   0  0  0  0  0  0  0  0  0  0  0  0
    9.5018  -17.6086   17.6409 C   0  0  2  0  0  0  0  0  0  0  0  0
    8.1109  -17.9047   17.7206 N   0  0  0  0  0  0  0  0  0  0  0  0
    9.9000  -16.7290   18.7919 C   0  0  0  0  0  0  0  0  0  0  0  0
   11.1077  -16.5468   19.0816 O   0  0  0  0  0  0  0  0  0  0  0  0
    6.9142  -13.5858   19.0209 C   0  0  0  0  0  0  0  0  0  0  0  0
    7.9961  -13.2045   20.0175 C   0  0  1  0  0  0  0  0  0  0  0  0
    7.8421  -11.7876   20.4274 C   0  0  0  0  0  0  0  0  0  0  0  0
    8.1620  -14.2125   21.0884 C   0  0  0  0  0  0  0  0  0  0  0  0
    9.1428  -15.3284   20.7849 C   0  0  2  0  0  0  0  0  0  0  0  0
    8.9241  -16.0675   19.6047 N   0  0  0  0  0  0  0  0  0  0  0  0
    9.4734  -16.0810   22.0041 C   0  0  0  0  0  0  0  0  0  0  0  0
    8.6039  -16.8735   22.4489 O   0  0  0  0  0  0  0  0  0  0  0  0
   10.6869  -15.9791   22.7055 N   0  0  0  0  0  0  0  0  0  0  0  0
   11.2120  -17.1303   23.4612 C   0  0  1  0  0  0  0  0  0  0  0  0
   11.3936  -18.2336   22.4737 C   0  0  0  0  0  0  0  0  0  0  0  0
   12.0155  -19.4458   23.0162 C   0  0  0  0  0  0  0  0  0  0  0  0
   12.1095  -19.5528   24.2656 O   0  0  0  0  0  0  0  0  0  0  0  0
   12.4752  -16.7099   24.1113 C   0  0  0  0  0  0  0  0  0  0  0  0
   13.4381  -15.9029   23.5397 O   0  0  0  0  0  0  0  0  0  0  0  0
   12.5059  -20.4760   22.2511 O   0  0  0  0  0  0  0  0  0  0  0  0
   12.7258  -17.1052   25.2893 O   0  0  0  0  0  0  0  0  0  0  0  0
  1  2  1  0
  2  3  2  0
  4  2  1  0
  5  4  1  0
  5  6  1  6
  7  8  2  0
  7  5  1  0
 10  9  1  1
 10 11  1  0
 10 12  1  0
 13 12  1  1
 13 14  1  0
 14  7  1  0
 15 17  1  0
 15 13  1  0
 16 15  2  0
 18 17  1  0
 18 22  1  0
 18 19  1  6
 20 19  1  0
 21 20  2  0
 22 23  1  0
 24 20  1  0
 25 22  2  0
M  END
$$$$
