NLD.pdb
     RDKit          3D

 25 24  0  0  1  0  0  0  0  0999 V2000
    7.3127  -17.3317   19.5876 N   0  0  0  0  0  0  0  0  0  0  0  0
    7.8738  -16.0301   19.3287 C   0  0  0  0  0  0  0  0  0  0  0  0
    7.9652  -15.6116   18.1591 O   0  0  0  0  0  0  0  0  0  0  0  0
    8.3349  -15.2036   20.4406 C   0  0  0  0  0  0  0  0  0  0  0  0
    8.1736  -15.8593   21.7597 C   0  0  2  0  0  0  0  0  0  0  0  0
    6.8542  -16.2509   22.1266 N   0  0  0  0  0  0  0  0  0  0  0  0
    8.8213  -15.1273   22.9007 C   0  0  0  0  0  0  0  0  0  0  0  0
   10.0486  -14.8642   22.8895 O   0  0  0  0  0  0  0  0  0  0  0  0
    5.5213  -12.2106   26.4416 C   0  0  0  0  0  0  0  0  0  0  0  0
    6.6899  -12.6104   25.5563 C   0  0  1  0  0  0  0  0  0  0  0  0
    7.2975  -11.4099   24.9327 C   0  0  0  0  0  0  0  0  0  0  0  0
    7.5994  -13.5728   26.2174 C   0  0  0  0  0  0  0  0  0  0  0  0
    8.5677  -14.2900   25.2969 C   0  0  2  0  0  0  0  0  0  0  0  0
    8.0707  -14.7039   24.0445 N   0  0  0  0  0  0  0  0  0  0  0  0
    9.3929  -15.2474   26.0483 C   0  0  0  0  0  0  0  0  0  0  0  0
    9.8170  -14.8860   27.1759 O   0  0  0  0  0  0  0  0  0  0  0  0
    9.7405  -16.5327   25.5987 N   0  0  0  0  0  0  0  0  0  0  0  0
   10.5941  -17.4070   26.4229 C   0  0  1  0  0  0  0  0  0  0  0  0
    9.6768  -18.3571   27.1165 C   0  0  0  0  0  0  0  0  0  0  0  0
   10.3493  -19.3762   27.9287 C   0  0  0  0  0  0  0  0  0  0  0  0
   11.2980  -19.0102   28.6685 O   0  0  0  0  0  0  0  0  0  0  0  0
   11.5626  -18.0763   25.5234 C   0  0  0  0  0  0  0  0  0  0  0  0
   11.6500  -17.8854   24.1592 O   0  0  0  0  0  0  0  0  0  0  0  0
   10.0144  -20.7085   27.9363 O   0  0  0  0  0  0  0  0  0  0  0  0
   12.3942  -18.8987   26.0122 O   0  0  0  0  0  0  0  0  0  0  0  0
  1  2  1  0
  2  3  2  0
  4  2  1  0
  5  4  1  0
  5  6  1  1
  7  8  2  0
  7  5  1  0
 10  9  1  1
 10 11  1  0
 10 12  1  0
 13 12  1  1
 13 14  1  0
 14  7  1  0
 15 17  1  0
 15 13  1  0
 16 15  2  0
 18 17  1  0
 18 22  1  0
 18 19  1  6
 20 19  1  0
 21 20  2  0
 22 23  1  0
 24 20  1  0
 25 22  2  0
M  END
$$$$
