NLD.pdb
     RDKit          3D

 25 24  0  0  1  0  0  0  0  0999 V2000
    8.0714  -13.1047   18.2128 N   0  0  0  0  0  0  0  0  0  0  0  0
    8.2302  -14.3326   18.9497 C   0  0  0  0  0  0  0  0  0  0  0  0
    7.9000  -15.4170   18.4334 O   0  0  0  0  0  0  0  0  0  0  0  0
    8.7785  -14.3023   20.3026 C   0  0  0  0  0  0  0  0  0  0  0  0
    8.1336  -15.2764   21.2143 C   0  0  2  0  0  0  0  0  0  0  0  0
    6.7184  -15.4072   21.1195 N   0  0  0  0  0  0  0  0  0  0  0  0
    8.5348  -15.1383   22.6555 C   0  0  0  0  0  0  0  0  0  0  0  0
    9.7415  -15.1762   22.9995 O   0  0  0  0  0  0  0  0  0  0  0  0
    5.5335  -12.1532   26.4275 C   0  0  0  0  0  0  0  0  0  0  0  0
    6.6986  -12.8045   25.7012 C   0  0  1  0  0  0  0  0  0  0  0  0
    7.9325  -12.0025   25.8847 C   0  0  0  0  0  0  0  0  0  0  0  0
    6.7841  -14.2599   25.9560 C   0  0  0  0  0  0  0  0  0  0  0  0
    7.7694  -15.0157   25.0858 C   0  0  2  0  0  0  0  0  0  0  0  0
    7.5630  -14.9617   23.6924 N   0  0  0  0  0  0  0  0  0  0  0  0
    8.0894  -16.3252   25.6730 C   0  0  0  0  0  0  0  0  0  0  0  0
    7.1829  -17.1971   25.6722 O   0  0  0  0  0  0  0  0  0  0  0  0
    9.3310  -16.6715   26.2329 N   0  0  0  0  0  0  0  0  0  0  0  0
    9.5466  -18.0152   26.7990 C   0  0  1  0  0  0  0  0  0  0  0  0
   10.0620  -18.8627   25.6848 C   0  0  0  0  0  0  0  0  0  0  0  0
   10.4401  -20.2248   26.0749 C   0  0  0  0  0  0  0  0  0  0  0  0
    9.5997  -20.9121   26.7095 O   0  0  0  0  0  0  0  0  0  0  0  0
   10.4978  -17.8862   27.9275 C   0  0  0  0  0  0  0  0  0  0  0  0
   11.0832  -16.7093   28.3487 O   0  0  0  0  0  0  0  0  0  0  0  0
   11.6541  -20.8038   25.7955 O   0  0  0  0  0  0  0  0  0  0  0  0
   10.8242  -18.9212   28.5825 O   0  0  0  0  0  0  0  0  0  0  0  0
  1  2  1  0
  2  3  2  0
  4  2  1  0
  5  4  1  0
  5  6  1  1
  7  8  2  0
  7  5  1  0
 10  9  1  1
 10 11  1  0
 10 12  1  0
 13 12  1  1
 13 14  1  0
 14  7  1  0
 15 17  1  0
 15 13  1  0
 16 15  2  0
 18 17  1  0
 18 22  1  0
 18 19  1  6
 20 19  1  0
 21 20  2  0
 22 23  1  0
 24 20  1  0
 25 22  2  0
M  END
$$$$
