NLD.pdb
     RDKit          3D

 25 24  0  0  1  0  0  0  0  0999 V2000
    7.5831  -12.7450   18.1674 N   0  0  0  0  0  0  0  0  0  0  0  0
    8.1914  -13.8187   18.9112 C   0  0  0  0  0  0  0  0  0  0  0  0
    8.3967  -14.9186   18.3640 O   0  0  0  0  0  0  0  0  0  0  0  0
    8.5661  -13.6140   20.3076 C   0  0  0  0  0  0  0  0  0  0  0  0
    8.2645  -14.7818   21.1686 C   0  0  2  0  0  0  0  0  0  0  0  0
    6.9175  -15.2448   21.1764 N   0  0  0  0  0  0  0  0  0  0  0  0
    8.7672  -14.6600   22.5792 C   0  0  0  0  0  0  0  0  0  0  0  0
    9.9953  -14.5766   22.8252 O   0  0  0  0  0  0  0  0  0  0  0  0
    5.6354  -12.2780   26.6545 C   0  0  0  0  0  0  0  0  0  0  0  0
    6.8550  -12.7031   25.8538 C   0  0  1  0  0  0  0  0  0  0  0  0
    7.9498  -11.7169   26.0212 C   0  0  0  0  0  0  0  0  0  0  0  0
    7.1872  -14.1330   26.0418 C   0  0  0  0  0  0  0  0  0  0  0  0
    8.2004  -14.6990   25.0660 C   0  0  2  0  0  0  0  0  0  0  0  0
    7.8719  -14.6371   23.6966 N   0  0  0  0  0  0  0  0  0  0  0  0
    8.7663  -15.9589   25.5706 C   0  0  0  0  0  0  0  0  0  0  0  0
    8.0114  -16.9647   25.5929 O   0  0  0  0  0  0  0  0  0  0  0  0
   10.0854  -16.1196   26.0279 N   0  0  0  0  0  0  0  0  0  0  0  0
   10.5877  -17.4524   26.4067 C   0  0  1  0  0  0  0  0  0  0  0  0
   12.0150  -17.5016   25.9758 C   0  0  0  0  0  0  0  0  0  0  0  0
   12.2172  -17.5042   24.5234 C   0  0  0  0  0  0  0  0  0  0  0  0
   11.4013  -18.1473   23.8148 O   0  0  0  0  0  0  0  0  0  0  0  0
   10.4099  -17.6068   27.8695 C   0  0  0  0  0  0  0  0  0  0  0  0
   10.5134  -18.7937   28.5663 O   0  0  0  0  0  0  0  0  0  0  0  0
   13.2410  -16.8515   23.8808 O   0  0  0  0  0  0  0  0  0  0  0  0
   10.1392  -16.5860   28.5705 O   0  0  0  0  0  0  0  0  0  0  0  0
  1  2  1  0
  2  3  2  0
  4  2  1  0
  5  4  1  0
  5  6  1  1
  7  8  2  0
  7  5  1  0
 10  9  1  1
 10 11  1  0
 10 12  1  0
 13 12  1  1
 13 14  1  0
 14  7  1  0
 15 17  1  0
 15 13  1  0
 16 15  2  0
 18 17  1  0
 18 22  1  0
 18 19  1  1
 20 19  1  0
 21 20  2  0
 22 23  1  0
 24 20  1  0
 25 22  2  0
M  END
$$$$
