NLD.pdb
     RDKit          3D

 25 24  0  0  1  0  0  0  0  0999 V2000
    8.7980  -12.6161   17.9482 N   0  0  0  0  0  0  0  0  0  0  0  0
    7.9807  -13.4057   18.8340 C   0  0  0  0  0  0  0  0  0  0  0  0
    7.0993  -14.1530   18.3692 O   0  0  0  0  0  0  0  0  0  0  0  0
    8.1881  -13.3272   20.2772 C   0  0  0  0  0  0  0  0  0  0  0  0
    8.3169  -14.6561   20.9201 C   0  0  2  0  0  0  0  0  0  0  0  0
    7.2089  -15.5423   20.7936 N   0  0  0  0  0  0  0  0  0  0  0  0
    8.7705  -14.6123   22.3517 C   0  0  0  0  0  0  0  0  0  0  0  0
    9.9817  -14.4595   22.6440 O   0  0  0  0  0  0  0  0  0  0  0  0
    5.7869  -12.2146   26.3664 C   0  0  0  0  0  0  0  0  0  0  0  0
    7.0306  -12.7426   25.6711 C   0  0  1  0  0  0  0  0  0  0  0  0
    8.2119  -11.9245   26.0379 C   0  0  0  0  0  0  0  0  0  0  0  0
    7.1578  -14.2135   25.7753 C   0  0  0  0  0  0  0  0  0  0  0  0
    8.1398  -14.8512   24.8119 C   0  0  2  0  0  0  0  0  0  0  0  0
    7.8461  -14.7455   23.4373 N   0  0  0  0  0  0  0  0  0  0  0  0
    8.5874  -16.1602   25.3102 C   0  0  0  0  0  0  0  0  0  0  0  0
    7.7526  -17.1009   25.2969 O   0  0  0  0  0  0  0  0  0  0  0  0
    9.8762  -16.4349   25.7985 N   0  0  0  0  0  0  0  0  0  0  0  0
   10.2687  -17.8148   26.1365 C   0  0  1  0  0  0  0  0  0  0  0  0
   11.4858  -18.1154   25.3280 C   0  0  0  0  0  0  0  0  0  0  0  0
   12.1276  -19.3967   25.6392 C   0  0  0  0  0  0  0  0  0  0  0  0
   11.4013  -20.3350   26.0557 O   0  0  0  0  0  0  0  0  0  0  0  0
   10.5044  -17.8757   27.5979 C   0  0  0  0  0  0  0  0  0  0  0  0
   10.3316  -18.9931   28.3895 O   0  0  0  0  0  0  0  0  0  0  0  0
   13.4725  -19.6435   25.5083 O   0  0  0  0  0  0  0  0  0  0  0  0
   10.8973  -16.8344   28.2048 O   0  0  0  0  0  0  0  0  0  0  0  0
  1  2  1  0
  2  3  2  0
  4  2  1  0
  5  4  1  0
  5  6  1  1
  7  8  2  0
  7  5  1  0
 10  9  1  1
 10 11  1  0
 10 12  1  0
 13 12  1  1
 13 14  1  0
 14  7  1  0
 15 17  1  0
 15 13  1  0
 16 15  2  0
 18 17  1  0
 18 22  1  0
 18 19  1  6
 20 19  1  0
 21 20  2  0
 22 23  1  0
 24 20  1  0
 25 22  2  0
M  END
$$$$
