NLD.pdb
     RDKit          3D

 25 24  0  0  1  0  0  0  0  0999 V2000
    7.3362  -12.6735   17.7089 N   0  0  0  0  0  0  0  0  0  0  0  0
    8.2249  -13.6656   18.2584 C   0  0  0  0  0  0  0  0  0  0  0  0
    8.6106  -14.6168   17.5528 O   0  0  0  0  0  0  0  0  0  0  0  0
    8.6717  -13.5531   19.6440 C   0  0  0  0  0  0  0  0  0  0  0  0
    8.4205  -14.7787   20.4382 C   0  0  2  0  0  0  0  0  0  0  0  0
    7.1284  -15.3669   20.3225 N   0  0  0  0  0  0  0  0  0  0  0  0
    8.7997  -14.6683   21.8877 C   0  0  0  0  0  0  0  0  0  0  0  0
   10.0026  -14.6015   22.2403 O   0  0  0  0  0  0  0  0  0  0  0  0
    8.4625  -12.4162   26.5974 C   0  0  0  0  0  0  0  0  0  0  0  0
    7.2938  -13.3799   26.4765 C   0  0  1  0  0  0  0  0  0  0  0  0
    6.1852  -12.9589   27.3670 C   0  0  0  0  0  0  0  0  0  0  0  0
    6.9598  -13.6932   25.0692 C   0  0  0  0  0  0  0  0  0  0  0  0
    8.0163  -14.4693   24.3072 C   0  0  2  0  0  0  0  0  0  0  0  0
    7.8107  -14.6380   22.9229 N   0  0  0  0  0  0  0  0  0  0  0  0
    8.4591  -15.6430   25.0743 C   0  0  0  0  0  0  0  0  0  0  0  0
    7.5878  -16.4971   25.3800 O   0  0  0  0  0  0  0  0  0  0  0  0
    9.7811  -15.8784   25.4890 N   0  0  0  0  0  0  0  0  0  0  0  0
   10.1376  -17.1356   26.1706 C   0  0  1  0  0  0  0  0  0  0  0  0
   11.4504  -17.5624   25.6050 C   0  0  0  0  0  0  0  0  0  0  0  0
   11.4288  -17.8727   24.1718 C   0  0  0  0  0  0  0  0  0  0  0  0
   10.6495  -18.7764   23.7750 O   0  0  0  0  0  0  0  0  0  0  0  0
   10.1849  -16.8662   27.6266 C   0  0  0  0  0  0  0  0  0  0  0  0
   10.0971  -17.8211   28.6194 O   0  0  0  0  0  0  0  0  0  0  0  0
   12.2049  -17.2432   23.2293 O   0  0  0  0  0  0  0  0  0  0  0  0
   10.3157  -15.6718   28.0305 O   0  0  0  0  0  0  0  0  0  0  0  0
  1  2  1  0
  2  3  2  0
  4  2  1  0
  5  4  1  0
  5  6  1  1
  7  8  2  0
  7  5  1  0
 10  9  1  6
 10 11  1  0
 10 12  1  0
 13 12  1  1
 13 14  1  0
 14  7  1  0
 15 17  1  0
 15 13  1  0
 16 15  2  0
 18 17  1  0
 18 22  1  0
 18 19  1  6
 20 19  1  0
 21 20  2  0
 22 23  1  0
 24 20  1  0
 25 22  2  0
M  END
$$$$
