NLD.pdb
     RDKit          3D

 25 24  0  0  1  0  0  0  0  0999 V2000
    8.8179  -16.6735   14.1445 N   0  0  0  0  0  0  0  0  0  0  0  0
    9.1387  -17.2544   15.4234 C   0  0  0  0  0  0  0  0  0  0  0  0
    9.0447  -18.4851   15.5907 O   0  0  0  0  0  0  0  0  0  0  0  0
    9.5737  -16.3969   16.5222 C   0  0  0  0  0  0  0  0  0  0  0  0
   10.0838  -17.1573   17.6874 C   0  0  2  0  0  0  0  0  0  0  0  0
    9.4131  -18.3728   18.0062 N   0  0  0  0  0  0  0  0  0  0  0  0
   10.2666  -16.3371   18.9328 C   0  0  0  0  0  0  0  0  0  0  0  0
   11.4078  -15.9734   19.3083 O   0  0  0  0  0  0  0  0  0  0  0  0
    6.1596  -12.8892   20.4075 C   0  0  0  0  0  0  0  0  0  0  0  0
    7.5343  -13.4864   20.1568 C   0  0  1  0  0  0  0  0  0  0  0  0
    8.4685  -12.4420   19.6715 C   0  0  0  0  0  0  0  0  0  0  0  0
    7.9901  -14.3486   21.2700 C   0  0  0  0  0  0  0  0  0  0  0  0
    9.1816  -15.2341   20.9610 C   0  0  2  0  0  0  0  0  0  0  0  0
    9.1532  -15.9404   19.7414 N   0  0  0  0  0  0  0  0  0  0  0  0
    9.6130  -15.9688   22.1594 C   0  0  0  0  0  0  0  0  0  0  0  0
    8.7472  -16.6549   22.7606 O   0  0  0  0  0  0  0  0  0  0  0  0
   10.9185  -15.9597   22.6795 N   0  0  0  0  0  0  0  0  0  0  0  0
   11.3364  -16.9707   23.6671 C   0  0  1  0  0  0  0  0  0  0  0  0
   11.0656  -18.3004   23.0474 C   0  0  0  0  0  0  0  0  0  0  0  0
   11.4729  -19.4504   23.8610 C   0  0  0  0  0  0  0  0  0  0  0  0
   12.6521  -19.4773   24.2970 O   0  0  0  0  0  0  0  0  0  0  0  0
   12.7687  -16.7449   23.9711 C   0  0  0  0  0  0  0  0  0  0  0  0
   13.5963  -15.8602   23.3097 O   0  0  0  0  0  0  0  0  0  0  0  0
   10.6528  -20.5053   24.1800 O   0  0  0  0  0  0  0  0  0  0  0  0
   13.3126  -17.4013   24.9093 O   0  0  0  0  0  0  0  0  0  0  0  0
  1  2  1  0
  2  3  2  0
  4  2  1  0
  5  4  1  0
  5  6  1  1
  7  8  2  0
  7  5  1  0
 10  9  1  1
 10 11  1  0
 10 12  1  0
 13 12  1  1
 13 14  1  0
 14  7  1  0
 15 17  1  0
 15 13  1  0
 16 15  2  0
 18 17  1  0
 18 22  1  0
 18 19  1  6
 20 19  1  0
 21 20  2  0
 22 23  1  0
 24 20  1  0
 25 22  2  0
M  END
$$$$
