NLD.pdb
     RDKit          3D

 25 24  0  0  1  0  0  0  0  0999 V2000
    6.6665  -15.5426   18.1919 N   0  0  0  0  0  0  0  0  0  0  0  0
    7.8611  -16.1382   18.7343 C   0  0  0  0  0  0  0  0  0  0  0  0
    8.2257  -17.2656   18.3503 O   0  0  0  0  0  0  0  0  0  0  0  0
    8.6426  -15.4171   19.7349 C   0  0  0  0  0  0  0  0  0  0  0  0
    8.6047  -16.0533   21.0727 C   0  0  2  0  0  0  0  0  0  0  0  0
    7.4448  -16.8168   21.3896 N   0  0  0  0  0  0  0  0  0  0  0  0
    8.9289  -15.1272   22.2105 C   0  0  0  0  0  0  0  0  0  0  0  0
   10.0983  -14.7093   22.3938 O   0  0  0  0  0  0  0  0  0  0  0  0
    8.0793  -11.4884   25.9432 C   0  0  0  0  0  0  0  0  0  0  0  0
    7.1806  -12.6713   26.2628 C   0  0  1  0  0  0  0  0  0  0  0  0
    6.0258  -12.2333   27.0836 C   0  0  0  0  0  0  0  0  0  0  0  0
    6.8978  -13.5067   25.0743 C   0  0  0  0  0  0  0  0  0  0  0  0
    8.1126  -14.1242   24.4093 C   0  0  2  0  0  0  0  0  0  0  0  0
    7.9239  -14.6870   23.1308 N   0  0  0  0  0  0  0  0  0  0  0  0
    8.9050  -14.8953   25.3787 C   0  0  0  0  0  0  0  0  0  0  0  0
    9.1557  -14.3512   26.4846 O   0  0  0  0  0  0  0  0  0  0  0  0
    9.4006  -16.1919   25.1591 N   0  0  0  0  0  0  0  0  0  0  0  0
   10.1851  -16.8782   26.2012 C   0  0  1  0  0  0  0  0  0  0  0  0
    9.3963  -18.0809   26.5970 C   0  0  0  0  0  0  0  0  0  0  0  0
   10.0750  -18.9764   27.5393 C   0  0  0  0  0  0  0  0  0  0  0  0
   10.7375  -18.4578   28.4739 O   0  0  0  0  0  0  0  0  0  0  0  0
   11.5114  -17.2077   25.6291 C   0  0  0  0  0  0  0  0  0  0  0  0
   12.6992  -17.2397   26.3314 O   0  0  0  0  0  0  0  0  0  0  0  0
   10.0384  -20.3479   27.4708 O   0  0  0  0  0  0  0  0  0  0  0  0
   11.6006  -17.4881   24.3961 O   0  0  0  0  0  0  0  0  0  0  0  0
  1  2  1  0
  2  3  2  0
  4  2  1  0
  5  4  1  0
  5  6  1  1
  7  8  2  0
  7  5  1  0
 10  9  1  6
 10 11  1  0
 10 12  1  0
 13 12  1  1
 13 14  1  0
 14  7  1  0
 15 17  1  0
 15 13  1  0
 16 15  2  0
 18 17  1  0
 18 22  1  0
 18 19  1  6
 20 19  1  0
 21 20  2  0
 22 23  1  0
 24 20  1  0
 25 22  2  0
M  END
$$$$
