NLD.pdb
     RDKit          3D

 25 24  0  0  1  0  0  0  0  0999 V2000
    7.2865  -15.4642   18.1325 N   0  0  0  0  0  0  0  0  0  0  0  0
    8.6046  -15.6138   18.6948 C   0  0  0  0  0  0  0  0  0  0  0  0
    9.5017  -16.1777   18.0402 O   0  0  0  0  0  0  0  0  0  0  0  0
    8.8856  -15.1030   20.0336 C   0  0  0  0  0  0  0  0  0  0  0  0
    8.3333  -15.9578   21.1107 C   0  0  2  0  0  0  0  0  0  0  0  0
    6.9209  -16.1418   21.1258 N   0  0  0  0  0  0  0  0  0  0  0  0
    8.8139  -15.6069   22.4903 C   0  0  0  0  0  0  0  0  0  0  0  0
   10.0396  -15.5412   22.7531 O   0  0  0  0  0  0  0  0  0  0  0  0
    5.7983  -12.3158   25.9720 C   0  0  0  0  0  0  0  0  0  0  0  0
    6.9838  -12.9729   25.2851 C   0  0  1  0  0  0  0  0  0  0  0  0
    8.1477  -12.0539   25.2759 C   0  0  0  0  0  0  0  0  0  0  0  0
    7.2108  -14.3601   25.7483 C   0  0  0  0  0  0  0  0  0  0  0  0
    8.1965  -15.1672   24.9261 C   0  0  2  0  0  0  0  0  0  0  0  0
    7.8992  -15.3371   23.5586 N   0  0  0  0  0  0  0  0  0  0  0  0
    8.6564  -16.3486   25.6711 C   0  0  0  0  0  0  0  0  0  0  0  0
    7.8052  -17.2378   25.9290 O   0  0  0  0  0  0  0  0  0  0  0  0
    9.9740  -16.5548   26.1142 N   0  0  0  0  0  0  0  0  0  0  0  0
   10.3948  -17.8743   26.6183 C   0  0  1  0  0  0  0  0  0  0  0  0
   11.5162  -18.3208   25.7416 C   0  0  0  0  0  0  0  0  0  0  0  0
   12.1644  -19.5672   26.1622 C   0  0  0  0  0  0  0  0  0  0  0  0
   11.5458  -20.3132   26.9636 O   0  0  0  0  0  0  0  0  0  0  0  0
   10.7868  -17.7150   28.0382 C   0  0  0  0  0  0  0  0  0  0  0  0
   10.7124  -16.5415   28.7610 O   0  0  0  0  0  0  0  0  0  0  0  0
   13.4059  -19.9772   25.7410 O   0  0  0  0  0  0  0  0  0  0  0  0
   11.2318  -18.7179   28.6730 O   0  0  0  0  0  0  0  0  0  0  0  0
  1  2  1  0
  2  3  2  0
  4  2  1  0
  5  4  1  0
  5  6  1  1
  7  8  2  0
  7  5  1  0
 10  9  1  1
 10 11  1  0
 10 12  1  0
 13 12  1  1
 13 14  1  0
 14  7  1  0
 15 17  1  0
 15 13  1  0
 16 15  2  0
 18 17  1  0
 18 22  1  0
 18 19  1  6
 20 19  1  0
 21 20  2  0
 22 23  1  0
 24 20  1  0
 25 22  2  0
M  END
$$$$
