NLD.pdb
     RDKit          3D

 25 24  0  0  1  0  0  0  0  0999 V2000
    7.6758  -17.4224   19.2566 N   0  0  0  0  0  0  0  0  0  0  0  0
    7.9288  -16.0085   19.1428 C   0  0  0  0  0  0  0  0  0  0  0  0
    7.7833  -15.4350   18.0467 O   0  0  0  0  0  0  0  0  0  0  0  0
    8.3563  -15.2503   20.3152 C   0  0  0  0  0  0  0  0  0  0  0  0
    8.3815  -16.0609   21.5554 C   0  0  2  0  0  0  0  0  0  0  0  0
    7.1663  -16.7029   21.9295 N   0  0  0  0  0  0  0  0  0  0  0  0
    8.9709  -15.3578   22.7452 C   0  0  0  0  0  0  0  0  0  0  0  0
   10.1613  -14.9596   22.7394 O   0  0  0  0  0  0  0  0  0  0  0  0
    5.7171  -12.3954   26.3500 C   0  0  0  0  0  0  0  0  0  0  0  0
    6.9008  -12.8221   25.4980 C   0  0  1  0  0  0  0  0  0  0  0  0
    7.7001  -11.6388   25.0979 C   0  0  0  0  0  0  0  0  0  0  0  0
    7.6274  -13.9762   26.0731 C   0  0  0  0  0  0  0  0  0  0  0  0
    8.6622  -14.6113   25.1649 C   0  0  2  0  0  0  0  0  0  0  0  0
    8.2049  -15.1164   23.9308 N   0  0  0  0  0  0  0  0  0  0  0  0
    9.5930  -15.4484   25.9363 C   0  0  0  0  0  0  0  0  0  0  0  0
    9.5903  -15.3155   27.1870 O   0  0  0  0  0  0  0  0  0  0  0  0
   10.4821  -16.3829   25.3787 N   0  0  0  0  0  0  0  0  0  0  0  0
   11.1426  -17.3871   26.2318 C   0  0  1  0  0  0  0  0  0  0  0  0
   10.0584  -18.2574   26.7724 C   0  0  0  0  0  0  0  0  0  0  0  0
   10.5217  -19.3519   27.6314 C   0  0  0  0  0  0  0  0  0  0  0  0
   11.7563  -19.4483   27.8506 O   0  0  0  0  0  0  0  0  0  0  0  0
   12.1226  -18.1198   25.3965 C   0  0  0  0  0  0  0  0  0  0  0  0
   12.3231  -17.9267   24.0446 O   0  0  0  0  0  0  0  0  0  0  0  0
    9.6977  -20.2837   28.2143 O   0  0  0  0  0  0  0  0  0  0  0  0
   12.8541  -19.0045   25.9342 O   0  0  0  0  0  0  0  0  0  0  0  0
  1  2  1  0
  2  3  2  0
  4  2  1  0
  5  4  1  0
  5  6  1  1
  7  8  2  0
  7  5  1  0
 10  9  1  1
 10 11  1  0
 10 12  1  0
 13 12  1  1
 13 14  1  0
 14  7  1  0
 15 17  1  0
 15 13  1  0
 16 15  2  0
 18 17  1  0
 18 22  1  0
 18 19  1  6
 20 19  1  0
 21 20  2  0
 22 23  1  0
 24 20  1  0
 25 22  2  0
M  END
$$$$
