NLD.pdb
     RDKit          3D

 25 24  0  0  1  0  0  0  0  0999 V2000
    8.1291  -19.5706   20.5894 N   0  0  0  0  0  0  0  0  0  0  0  0
    7.6504  -18.2387   20.8595 C   0  0  0  0  0  0  0  0  0  0  0  0
    6.7556  -17.7415   20.1499 O   0  0  0  0  0  0  0  0  0  0  0  0
    8.2170  -17.4737   21.9667 C   0  0  0  0  0  0  0  0  0  0  0  0
    8.0717  -16.0088   21.7968 C   0  0  2  0  0  0  0  0  0  0  0  0
    8.4424  -15.4677   20.5325 N   0  0  0  0  0  0  0  0  0  0  0  0
    8.6857  -15.1917   22.8980 C   0  0  0  0  0  0  0  0  0  0  0  0
    9.8987  -14.8701   22.8682 O   0  0  0  0  0  0  0  0  0  0  0  0
    5.5562  -11.9389   26.4538 C   0  0  0  0  0  0  0  0  0  0  0  0
    6.7346  -12.4032   25.6141 C   0  0  1  0  0  0  0  0  0  0  0  0
    7.5971  -11.2512   25.2560 C   0  0  0  0  0  0  0  0  0  0  0  0
    7.3939  -13.6033   26.1758 C   0  0  0  0  0  0  0  0  0  0  0  0
    8.3974  -14.2811   25.2634 C   0  0  2  0  0  0  0  0  0  0  0  0
    7.9182  -14.7504   24.0236 N   0  0  0  0  0  0  0  0  0  0  0  0
    9.2830  -15.1715   26.0284 C   0  0  0  0  0  0  0  0  0  0  0  0
    9.8022  -14.7102   27.0769 O   0  0  0  0  0  0  0  0  0  0  0  0
    9.5897  -16.4962   25.6734 N   0  0  0  0  0  0  0  0  0  0  0  0
   10.4876  -17.3065   26.5157 C   0  0  1  0  0  0  0  0  0  0  0  0
    9.6489  -18.3935   27.0992 C   0  0  0  0  0  0  0  0  0  0  0  0
   10.3854  -19.3669   27.9119 C   0  0  0  0  0  0  0  0  0  0  0  0
   11.2640  -18.9334   28.7004 O   0  0  0  0  0  0  0  0  0  0  0  0
   11.5862  -17.8084   25.6577 C   0  0  0  0  0  0  0  0  0  0  0  0
   12.7388  -18.4183   26.1102 O   0  0  0  0  0  0  0  0  0  0  0  0
   10.1825  -20.7249   27.8705 O   0  0  0  0  0  0  0  0  0  0  0  0
   11.4944  -17.6840   24.3996 O   0  0  0  0  0  0  0  0  0  0  0  0
  1  2  1  0
  2  3  2  0
  4  2  1  0
  5  4  1  0
  5  6  1  6
  7  8  2  0
  7  5  1  0
 10  9  1  1
 10 11  1  0
 10 12  1  0
 13 12  1  1
 13 14  1  0
 14  7  1  0
 15 17  1  0
 15 13  1  0
 16 15  2  0
 18 17  1  0
 18 22  1  0
 18 19  1  6
 20 19  1  0
 21 20  2  0
 22 23  1  0
 24 20  1  0
 25 22  2  0
M  END
$$$$
