NLD.pdb
     RDKit          3D

 25 24  0  0  1  0  0  0  0  0999 V2000
   10.0240  -16.2729   18.1996 N   0  0  0  0  0  0  0  0  0  0  0  0
    8.9203  -15.7545   18.9672 C   0  0  0  0  0  0  0  0  0  0  0  0
    7.7696  -15.7647   18.4904 O   0  0  0  0  0  0  0  0  0  0  0  0
    9.1543  -15.2171   20.3045 C   0  0  0  0  0  0  0  0  0  0  0  0
    8.7383  -16.1423   21.3848 C   0  0  2  0  0  0  0  0  0  0  0  0
    7.3717  -16.5435   21.3978 N   0  0  0  0  0  0  0  0  0  0  0  0
    9.1546  -15.7146   22.7636 C   0  0  0  0  0  0  0  0  0  0  0  0
   10.3593  -15.4930   23.0381 O   0  0  0  0  0  0  0  0  0  0  0  0
    5.8601  -12.6178   26.0473 C   0  0  0  0  0  0  0  0  0  0  0  0
    7.1345  -13.2024   25.4612 C   0  0  1  0  0  0  0  0  0  0  0  0
    8.2290  -12.2029   25.5096 C   0  0  0  0  0  0  0  0  0  0  0  0
    7.4244  -14.5600   25.9742 C   0  0  0  0  0  0  0  0  0  0  0  0
    8.4573  -15.3450   25.1894 C   0  0  2  0  0  0  0  0  0  0  0  0
    8.2004  -15.5457   23.8180 N   0  0  0  0  0  0  0  0  0  0  0  0
    8.9385  -16.4984   25.9643 C   0  0  0  0  0  0  0  0  0  0  0  0
    8.1293  -17.4405   26.1629 O   0  0  0  0  0  0  0  0  0  0  0  0
   10.2329  -16.6233   26.4970 N   0  0  0  0  0  0  0  0  0  0  0  0
   10.6274  -17.8437   27.2231 C   0  0  1  0  0  0  0  0  0  0  0  0
   12.0905  -18.0171   26.9895 C   0  0  0  0  0  0  0  0  0  0  0  0
   12.4467  -18.4703   25.6411 C   0  0  0  0  0  0  0  0  0  0  0  0
   11.5177  -18.6402   24.8107 O   0  0  0  0  0  0  0  0  0  0  0  0
   10.2785  -17.6565   28.6508 C   0  0  0  0  0  0  0  0  0  0  0  0
   10.0789  -18.6716   29.5645 O   0  0  0  0  0  0  0  0  0  0  0  0
   13.7296  -18.7247   25.2209 O   0  0  0  0  0  0  0  0  0  0  0  0
   10.1436  -16.4809   29.1053 O   0  0  0  0  0  0  0  0  0  0  0  0
  1  2  1  0
  2  3  2  0
  4  2  1  0
  5  4  1  0
  5  6  1  1
  7  8  2  0
  7  5  1  0
 10  9  1  1
 10 11  1  0
 10 12  1  0
 13 12  1  1
 13 14  1  0
 14  7  1  0
 15 17  1  0
 15 13  1  0
 16 15  2  0
 18 17  1  0
 18 22  1  0
 18 19  1  1
 20 19  1  0
 21 20  2  0
 22 23  1  0
 24 20  1  0
 25 22  2  0
M  END
$$$$
