NLD.pdb
     RDKit          3D

 25 24  0  0  1  0  0  0  0  0999 V2000
    9.2877  -16.5071   14.4511 N   0  0  0  0  0  0  0  0  0  0  0  0
   10.0703  -17.2070   15.4379 C   0  0  0  0  0  0  0  0  0  0  0  0
   10.1476  -18.4498   15.4060 O   0  0  0  0  0  0  0  0  0  0  0  0
   10.7720  -16.4559   16.4749 C   0  0  0  0  0  0  0  0  0  0  0  0
   10.6419  -17.0611   17.8212 C   0  0  2  0  0  0  0  0  0  0  0  0
    9.5603  -17.9668   18.0179 N   0  0  0  0  0  0  0  0  0  0  0  0
   10.6895  -16.0744   18.9532 C   0  0  0  0  0  0  0  0  0  0  0  0
   11.7432  -15.4484   19.2243 O   0  0  0  0  0  0  0  0  0  0  0  0
    6.0667  -13.3230   20.3771 C   0  0  0  0  0  0  0  0  0  0  0  0
    7.5241  -13.6624   20.1130 C   0  0  1  0  0  0  0  0  0  0  0  0
    8.2309  -12.4891   19.5444 C   0  0  0  0  0  0  0  0  0  0  0  0
    8.1607  -14.3580   21.2537 C   0  0  0  0  0  0  0  0  0  0  0  0
    9.4805  -15.0382   20.9462 C   0  0  2  0  0  0  0  0  0  0  0  0
    9.5421  -15.8101   19.7683 N   0  0  0  0  0  0  0  0  0  0  0  0
   10.0697  -15.6133   22.1645 C   0  0  0  0  0  0  0  0  0  0  0  0
   10.0690  -14.8999   23.2003 O   0  0  0  0  0  0  0  0  0  0  0  0
   10.6313  -16.8984   22.2546 N   0  0  0  0  0  0  0  0  0  0  0  0
   11.2818  -17.3439   23.4999 C   0  0  1  0  0  0  0  0  0  0  0  0
   10.7785  -18.7226   23.7668 C   0  0  0  0  0  0  0  0  0  0  0  0
   11.4086  -19.3952   24.9074 C   0  0  0  0  0  0  0  0  0  0  0  0
   12.1823  -18.7226   25.6357 O   0  0  0  0  0  0  0  0  0  0  0  0
   12.7478  -17.2832   23.2943 C   0  0  0  0  0  0  0  0  0  0  0  0
   13.6835  -17.0390   24.2791 O   0  0  0  0  0  0  0  0  0  0  0  0
   11.2127  -20.7146   25.2359 O   0  0  0  0  0  0  0  0  0  0  0  0
   13.2170  -17.4653   22.1309 O   0  0  0  0  0  0  0  0  0  0  0  0
  1  2  1  0
  2  3  2  0
  4  2  1  0
  5  4  1  0
  5  6  1  6
  7  8  2  0
  7  5  1  0
 10  9  1  1
 10 11  1  0
 10 12  1  0
 13 12  1  1
 13 14  1  0
 14  7  1  0
 15 17  1  0
 15 13  1  0
 16 15  2  0
 18 17  1  0
 18 22  1  0
 18 19  1  6
 20 19  1  0
 21 20  2  0
 22 23  1  0
 24 20  1  0
 25 22  2  0
M  END
$$$$
