QVQ.pdb
     RDKit          3D

 26 25  0  0  1  0  0  0  0  0999 V2000
   19.0971  -20.9963  -17.2718 N   0  0  0  0  0  0  0  0  0  0  0  0
   19.7174  -19.7433  -17.3918 C   0  0  0  0  0  0  0  0  0  0  0  0
   19.7280  -19.1680  -18.5007 O   0  0  0  0  0  0  0  0  0  0  0  0
   20.3414  -19.1250  -16.2293 C   0  0  0  0  0  0  0  0  0  0  0  0
   20.1236  -19.8852  -14.9459 C   0  0  0  0  0  0  0  0  0  0  0  0
   21.4113  -19.7579  -14.1494 C   0  0  2  0  0  0  0  0  0  0  0  0
   22.5830  -19.7816  -14.9873 N   0  0  0  0  0  0  0  0  0  0  0  0
   21.4905  -20.7376  -13.0483 C   0  0  0  0  0  0  0  0  0  0  0  0
   21.5134  -21.9653  -13.2500 O   0  0  0  0  0  0  0  0  0  0  0  0
   23.9639  -20.2248  -10.1082 C   0  0  0  0  0  0  0  0  0  0  0  0
   22.5702  -20.4922   -9.5961 C   0  0  2  0  0  0  0  0  0  0  0  0
   22.5717  -21.1242   -8.2369 C   0  0  0  0  0  0  0  0  0  0  0  0
   21.6721  -21.1960  -10.5728 C   0  0  2  0  0  0  0  0  0  0  0  0
   21.5426  -20.2735  -11.7144 N   0  0  0  0  0  0  0  0  0  0  0  0
   20.3244  -21.4908  -10.0904 C   0  0  0  0  0  0  0  0  0  0  0  0
   19.3499  -20.9053  -10.6851 O   0  0  0  0  0  0  0  0  0  0  0  0
   17.2808  -26.2184  -10.8813 N   0  0  0  0  0  0  0  0  0  0  0  0
   16.6509  -25.0084  -11.3171 C   0  0  0  0  0  0  0  0  0  0  0  0
   15.5662  -25.1377  -11.9678 O   0  0  0  0  0  0  0  0  0  0  0  0
   17.2362  -23.6915  -11.0135 C   0  0  0  0  0  0  0  0  0  0  0  0
   18.5336  -23.7297  -10.3022 C   0  0  0  0  0  0  0  0  0  0  0  0
   18.6735  -23.0083   -9.0131 C   0  0  2  0  0  0  0  0  0  0  0  0
   20.0047  -22.3542   -9.0392 N   0  0  0  0  0  0  0  0  0  0  0  0
   18.5958  -23.8567   -7.8359 C   0  0  0  0  0  0  0  0  0  0  0  0
   17.4945  -24.2983   -7.3731 O   0  0  0  0  0  0  0  0  0  0  0  0
   19.7203  -24.2600   -7.1123 O   0  0  0  0  0  0  0  0  0  0  0  0
  2  1  1  0
  2  3  2  0
  4  5  1  0
  4  2  1  0
  6  7  1  6
  6  5  1  0
  8  6  1  0
  9  8  2  0
 11 10  1  6
 11 12  1  0
 11 13  1  0
 13 14  1  6
 14  8  1  0
 15 16  2  0
 15 13  1  0
 18 17  1  0
 19 18  2  0
 20 18  1  0
 22 21  1  6
 21 20  1  0
 22 23  1  0
 23 15  1  0
 24 22  1  0
 25 24  2  0
 26 24  1  0
M  END
$$$$
