QVQ.pdb
     RDKit          3D

 26 25  0  0  1  0  0  0  0  0999 V2000
   26.6787  -18.4086  -18.3898 N   0  0  0  0  0  0  0  0  0  0  0  0
   27.9257  -18.1337  -17.8079 C   0  0  0  0  0  0  0  0  0  0  0  0
   28.7608  -17.4530  -18.4403 O   0  0  0  0  0  0  0  0  0  0  0  0
   28.2367  -18.6409  -16.4778 C   0  0  0  0  0  0  0  0  0  0  0  0
   27.1005  -19.3929  -15.8327 C   0  0  0  0  0  0  0  0  0  0  0  0
   27.7349  -20.4895  -14.9939 C   0  0  2  0  0  0  0  0  0  0  0  0
   28.5613  -21.3737  -15.7753 N   0  0  0  0  0  0  0  0  0  0  0  0
   26.7429  -21.2216  -14.1824 C   0  0  0  0  0  0  0  0  0  0  0  0
   26.1784  -22.2522  -14.5917 O   0  0  0  0  0  0  0  0  0  0  0  0
   24.8024  -21.8268   -9.6797 C   0  0  0  0  0  0  0  0  0  0  0  0
   25.7304  -21.1708  -10.6719 C   0  0  2  0  0  0  0  0  0  0  0  0
   26.0666  -19.7596  -10.2942 C   0  0  0  0  0  0  0  0  0  0  0  0
   25.3096  -21.3130  -12.1067 C   0  0  2  0  0  0  0  0  0  0  0  0
   26.4168  -20.7420  -12.8936 N   0  0  0  0  0  0  0  0  0  0  0  0
   24.0905  -20.5986  -12.4799 C   0  0  0  0  0  0  0  0  0  0  0  0
   24.2251  -19.3951  -12.9035 O   0  0  0  0  0  0  0  0  0  0  0  0
   19.9093  -22.0576  -16.0024 N   0  0  0  0  0  0  0  0  0  0  0  0
   19.5543  -20.6800  -15.8378 C   0  0  0  0  0  0  0  0  0  0  0  0
   18.5377  -20.2763  -16.4860 O   0  0  0  0  0  0  0  0  0  0  0  0
   20.3304  -19.7923  -14.9554 C   0  0  0  0  0  0  0  0  0  0  0  0
   21.4822  -20.4298  -14.2789 C   0  0  0  0  0  0  0  0  0  0  0  0
   21.6497  -20.2536  -12.8151 C   0  0  2  0  0  0  0  0  0  0  0  0
   22.7922  -21.1115  -12.4160 N   0  0  0  0  0  0  0  0  0  0  0  0
   20.4889  -20.6292  -12.0259 C   0  0  0  0  0  0  0  0  0  0  0  0
   20.4141  -21.7274  -11.3852 O   0  0  0  0  0  0  0  0  0  0  0  0
   19.3576  -19.8196  -11.9023 O   0  0  0  0  0  0  0  0  0  0  0  0
  2  1  1  0
  2  3  2  0
  4  5  1  0
  4  2  1  0
  6  7  1  6
  6  5  1  0
  8  6  1  0
  9  8  2  0
 11 10  1  1
 11 12  1  0
 11 13  1  0
 13 14  1  6
 14  8  1  0
 15 16  2  0
 15 13  1  0
 18 17  1  0
 19 18  2  0
 20 18  1  0
 22 21  1  6
 21 20  1  0
 22 23  1  0
 23 15  1  0
 24 22  1  0
 25 24  2  0
 26 24  1  0
M  END
$$$$
