QVQ.pdb
     RDKit          3D

 26 25  0  0  1  0  0  0  0  0999 V2000
   14.7914   -9.4289  -17.5121 N   0  0  0  0  0  0  0  0  0  0  0  0
   15.2761  -10.6144  -18.0855 C   0  0  0  0  0  0  0  0  0  0  0  0
   14.5885  -11.2057  -18.9447 O   0  0  0  0  0  0  0  0  0  0  0  0
   16.5704  -11.1448  -17.6777 C   0  0  0  0  0  0  0  0  0  0  0  0
   17.2939  -10.2804  -16.6766 C   0  0  0  0  0  0  0  0  0  0  0  0
   18.5536  -11.0366  -16.2896 C   0  0  2  0  0  0  0  0  0  0  0  0
   18.2838  -12.3991  -15.9074 N   0  0  0  0  0  0  0  0  0  0  0  0
   19.3517  -10.3185  -15.2768 C   0  0  0  0  0  0  0  0  0  0  0  0
   19.1175  -10.4091  -14.0580 O   0  0  0  0  0  0  0  0  0  0  0  0
   23.2602   -9.2228  -16.2783 C   0  0  0  0  0  0  0  0  0  0  0  0
   22.6513   -9.4275  -14.9133 C   0  0  2  0  0  0  0  0  0  0  0  0
   22.7022  -10.8595  -14.4731 C   0  0  0  0  0  0  0  0  0  0  0  0
   21.2967   -8.8036  -14.7355 C   0  0  2  0  0  0  0  0  0  0  0  0
   20.4217   -9.4965  -15.6973 N   0  0  0  0  0  0  0  0  0  0  0  0
   21.2193   -7.3726  -15.0221 C   0  0  0  0  0  0  0  0  0  0  0  0
   20.9957   -7.0317  -16.2385 O   0  0  0  0  0  0  0  0  0  0  0  0
   18.7575   -3.9152  -16.9380 N   0  0  0  0  0  0  0  0  0  0  0  0
   19.0203   -2.8249  -16.0476 C   0  0  0  0  0  0  0  0  0  0  0  0
   18.6854   -1.6680  -16.4551 O   0  0  0  0  0  0  0  0  0  0  0  0
   19.6392   -3.0482  -14.7299 C   0  0  0  0  0  0  0  0  0  0  0  0
   19.9556   -4.4594  -14.4157 C   0  0  0  0  0  0  0  0  0  0  0  0
   21.3552   -4.9341  -14.5485 C   0  0  2  0  0  0  0  0  0  0  0  0
   21.3669   -6.3441  -14.0877 N   0  0  0  0  0  0  0  0  0  0  0  0
   22.3234   -4.1823  -13.7681 C   0  0  0  0  0  0  0  0  0  0  0  0
   22.5963   -4.4565  -12.5547 O   0  0  0  0  0  0  0  0  0  0  0  0
   23.0365   -3.0964  -14.2809 O   0  0  0  0  0  0  0  0  0  0  0  0
  2  1  1  0
  2  3  2  0
  4  5  1  0
  4  2  1  0
  6  7  1  1
  6  5  1  0
  8  6  1  0
  9  8  2  0
 11 10  1  6
 11 12  1  0
 11 13  1  0
 13 14  1  6
 14  8  1  0
 15 16  2  0
 15 13  1  0
 18 17  1  0
 19 18  2  0
 20 18  1  0
 22 21  1  1
 21 20  1  0
 22 23  1  0
 23 15  1  0
 24 22  1  0
 25 24  2  0
 26 24  1  0
M  END
$$$$
