QVQ.pdb
     RDKit          3D

 26 25  0  0  1  0  0  0  0  0999 V2000
   27.9936  -26.3257  -19.3670 N   0  0  0  0  0  0  0  0  0  0  0  0
   28.0726  -25.1979  -20.1984 C   0  0  0  0  0  0  0  0  0  0  0  0
   28.5384  -25.3176  -21.3514 O   0  0  0  0  0  0  0  0  0  0  0  0
   27.6137  -23.9026  -19.7144 C   0  0  0  0  0  0  0  0  0  0  0  0
   27.0290  -23.9446  -18.3254 C   0  0  0  0  0  0  0  0  0  0  0  0
   27.9317  -23.0864  -17.4551 C   0  0  2  0  0  0  0  0  0  0  0  0
   29.0803  -23.8086  -16.9710 N   0  0  0  0  0  0  0  0  0  0  0  0
   27.1924  -22.4163  -16.3675 C   0  0  0  0  0  0  0  0  0  0  0  0
   26.8227  -23.0196  -15.3439 O   0  0  0  0  0  0  0  0  0  0  0  0
   26.5198  -17.9733  -14.3432 C   0  0  0  0  0  0  0  0  0  0  0  0
   26.9517  -18.9249  -15.4313 C   0  0  2  0  0  0  0  0  0  0  0  0
   26.8937  -18.3011  -16.7931 C   0  0  0  0  0  0  0  0  0  0  0  0
   26.2977  -20.2758  -15.3731 C   0  0  2  0  0  0  0  0  0  0  0  0
   26.8893  -21.0409  -16.4847 N   0  0  0  0  0  0  0  0  0  0  0  0
   24.8479  -20.2827  -15.5569 C   0  0  0  0  0  0  0  0  0  0  0  0
   24.4106  -20.1629  -16.7571 O   0  0  0  0  0  0  0  0  0  0  0  0
   20.4261  -22.4232  -11.6702 N   0  0  0  0  0  0  0  0  0  0  0  0
   19.6334  -21.7381  -12.6464 C   0  0  0  0  0  0  0  0  0  0  0  0
   18.3774  -21.7273  -12.4491 O   0  0  0  0  0  0  0  0  0  0  0  0
   20.2549  -21.0792  -13.8077 C   0  0  0  0  0  0  0  0  0  0  0  0
   21.7349  -21.0715  -13.8077 C   0  0  0  0  0  0  0  0  0  0  0  0
   22.4546  -20.3407  -14.8801 C   0  0  2  0  0  0  0  0  0  0  0  0
   23.8971  -20.4087  -14.5406 N   0  0  0  0  0  0  0  0  0  0  0  0
   22.0751  -18.9448  -15.0178 C   0  0  0  0  0  0  0  0  0  0  0  0
   22.5826  -18.0169  -14.3082 O   0  0  0  0  0  0  0  0  0  0  0  0
   21.1231  -18.5018  -15.9386 O   0  0  0  0  0  0  0  0  0  0  0  0
  2  1  1  0
  2  3  2  0
  4  5  1  0
  4  2  1  0
  6  7  1  1
  6  5  1  0
  8  6  1  0
  9  8  2  0
 11 10  1  1
 11 12  1  0
 11 13  1  0
 13 14  1  6
 14  8  1  0
 15 16  2  0
 15 13  1  0
 18 17  1  0
 19 18  2  0
 20 18  1  0
 22 21  1  1
 21 20  1  0
 22 23  1  0
 23 15  1  0
 24 22  1  0
 25 24  2  0
 26 24  1  0
M  END
$$$$
