QVQ.pdb
     RDKit          3D

 26 25  0  0  1  0  0  0  0  0999 V2000
   27.1309  -16.2911  -15.9532 N   0  0  0  0  0  0  0  0  0  0  0  0
   26.5594  -17.3780  -16.6323 C   0  0  0  0  0  0  0  0  0  0  0  0
   25.7493  -17.1646  -17.5591 O   0  0  0  0  0  0  0  0  0  0  0  0
   26.9122  -18.7402  -16.2543 C   0  0  0  0  0  0  0  0  0  0  0  0
   27.9073  -18.8195  -15.1246 C   0  0  0  0  0  0  0  0  0  0  0  0
   28.1056  -20.2972  -14.8320 C   0  0  2  0  0  0  0  0  0  0  0  0
   28.5240  -21.0386  -15.9942 N   0  0  0  0  0  0  0  0  0  0  0  0
   26.9309  -20.9027  -14.1747 C   0  0  0  0  0  0  0  0  0  0  0  0
   26.1522  -21.6657  -14.7745 O   0  0  0  0  0  0  0  0  0  0  0  0
   24.7658  -21.5255   -9.7095 C   0  0  0  0  0  0  0  0  0  0  0  0
   25.7970  -20.9457  -10.6457 C   0  0  2  0  0  0  0  0  0  0  0  0
   26.1189  -19.5166  -10.3280 C   0  0  0  0  0  0  0  0  0  0  0  0
   25.5155  -21.1769  -12.1028 C   0  0  2  0  0  0  0  0  0  0  0  0
   26.6740  -20.6109  -12.8159 N   0  0  0  0  0  0  0  0  0  0  0  0
   24.3162  -20.5245  -12.6244 C   0  0  0  0  0  0  0  0  0  0  0  0
   24.4217  -19.2909  -12.9609 O   0  0  0  0  0  0  0  0  0  0  0  0
   22.4753  -19.7083  -17.3686 N   0  0  0  0  0  0  0  0  0  0  0  0
   21.1224  -19.6296  -16.9058 C   0  0  0  0  0  0  0  0  0  0  0  0
   20.2909  -19.0615  -17.6820 O   0  0  0  0  0  0  0  0  0  0  0  0
   20.7287  -20.1883  -15.6012 C   0  0  0  0  0  0  0  0  0  0  0  0
   21.8413  -20.7262  -14.7869 C   0  0  0  0  0  0  0  0  0  0  0  0
   21.9467  -20.3369  -13.3589 C   0  0  2  0  0  0  0  0  0  0  0  0
   23.0659  -21.1264  -12.7890 N   0  0  0  0  0  0  0  0  0  0  0  0
   20.7508  -20.5930  -12.5742 C   0  0  0  0  0  0  0  0  0  0  0  0
   20.5626  -21.6782  -11.9345 O   0  0  0  0  0  0  0  0  0  0  0  0
   19.7070  -19.6729  -12.4544 O   0  0  0  0  0  0  0  0  0  0  0  0
  2  1  1  0
  2  3  2  0
  4  5  1  0
  4  2  1  0
  6  7  1  6
  6  5  1  0
  8  6  1  0
  9  8  2  0
 11 10  1  1
 11 12  1  0
 11 13  1  0
 13 14  1  6
 14  8  1  0
 15 16  2  0
 15 13  1  0
 18 17  1  0
 19 18  2  0
 20 18  1  0
 22 21  1  6
 21 20  1  0
 22 23  1  0
 23 15  1  0
 24 22  1  0
 25 24  2  0
 26 24  1  0
M  END
$$$$
