QVQ.pdb
     RDKit          3D

 26 25  0  0  1  0  0  0  0  0999 V2000
   12.0302  -17.2112    5.2282 N   0  0  0  0  0  0  0  0  0  0  0  0
   13.1086  -17.4166    4.3539 C   0  0  0  0  0  0  0  0  0  0  0  0
   13.1660  -16.7674    3.2881 O   0  0  0  0  0  0  0  0  0  0  0  0
   14.1479  -18.3798    4.6929 C   0  0  0  0  0  0  0  0  0  0  0  0
   15.4048  -17.7514    5.2389 C   0  0  0  0  0  0  0  0  0  0  0  0
   16.1848  -17.2422    4.0385 C   0  0  2  0  0  0  0  0  0  0  0  0
   16.3791  -18.2578    3.0355 N   0  0  0  0  0  0  0  0  0  0  0  0
   17.4502  -16.5889    4.4263 C   0  0  0  0  0  0  0  0  0  0  0  0
   18.5337  -17.2003    4.4540 O   0  0  0  0  0  0  0  0  0  0  0  0
   19.5879  -12.1578    5.1317 C   0  0  0  0  0  0  0  0  0  0  0  0
   18.4061  -13.0657    4.8971 C   0  0  2  0  0  0  0  0  0  0  0  0
   17.1515  -12.5474    5.5329 C   0  0  0  0  0  0  0  0  0  0  0  0
   18.6643  -14.5145    5.1971 C   0  0  2  0  0  0  0  0  0  0  0  0
   17.4402  -15.2207    4.7802 N   0  0  0  0  0  0  0  0  0  0  0  0
   18.8996  -14.8348    6.6035 C   0  0  0  0  0  0  0  0  0  0  0  0
   17.8689  -15.0791    7.3274 O   0  0  0  0  0  0  0  0  0  0  0  0
   22.5897  -18.8720    8.8159 N   0  0  0  0  0  0  0  0  0  0  0  0
   22.1145  -18.3219   10.0497 C   0  0  0  0  0  0  0  0  0  0  0  0
   22.4663  -18.9264   11.1115 O   0  0  0  0  0  0  0  0  0  0  0  0
   21.2703  -17.1153   10.0720 C   0  0  0  0  0  0  0  0  0  0  0  0
   20.9668  -16.5365    8.7441 C   0  0  0  0  0  0  0  0  0  0  0  0
   20.2257  -15.2532    8.6664 C   0  0  2  0  0  0  0  0  0  0  0  0
   20.1480  -14.8986    7.2280 N   0  0  0  0  0  0  0  0  0  0  0  0
   20.8482  -14.1531    9.3831 C   0  0  0  0  0  0  0  0  0  0  0  0
   20.7937  -14.0341   10.6500 O   0  0  0  0  0  0  0  0  0  0  0  0
   21.5585  -13.1337    8.7454 O   0  0  0  0  0  0  0  0  0  0  0  0
  2  1  1  0
  2  3  2  0
  4  5  1  0
  4  2  1  0
  6  7  1  6
  6  5  1  0
  8  6  1  0
  9  8  2  0
 11 10  1  1
 11 12  1  0
 11 13  1  0
 13 14  1  1
 14  8  1  0
 15 16  2  0
 15 13  1  0
 18 17  1  0
 19 18  2  0
 20 18  1  0
 22 21  1  6
 21 20  1  0
 22 23  1  0
 23 15  1  0
 24 22  1  0
 25 24  2  0
 26 24  1  0
M  END
$$$$
