QVQ.pdb
     RDKit          3D

 26 25  0  0  1  0  0  0  0  0999 V2000
   25.7453  -21.6025  -16.5852 N   0  0  0  0  0  0  0  0  0  0  0  0
   25.8464  -22.8647  -15.9803 C   0  0  0  0  0  0  0  0  0  0  0  0
   26.5706  -23.7385  -16.5023 O   0  0  0  0  0  0  0  0  0  0  0  0
   25.1104  -23.1461  -14.7547 C   0  0  0  0  0  0  0  0  0  0  0  0
   24.3480  -21.9617  -14.2175 C   0  0  0  0  0  0  0  0  0  0  0  0
   25.3725  -21.0614  -13.5479 C   0  0  2  0  0  0  0  0  0  0  0  0
   25.7094  -21.5022  -12.2184 N   0  0  0  0  0  0  0  0  0  0  0  0
   24.9797  -19.6391  -13.5835 C   0  0  0  0  0  0  0  0  0  0  0  0
   24.1905  -19.1457  -12.7577 O   0  0  0  0  0  0  0  0  0  0  0  0
   26.3931  -15.1981  -15.1938 C   0  0  0  0  0  0  0  0  0  0  0  0
   26.4476  -16.7054  -15.1619 C   0  0  2  0  0  0  0  0  0  0  0  0
   26.9357  -17.2877  -16.4541 C   0  0  0  0  0  0  0  0  0  0  0  0
   25.1968  -17.3634  -14.6537 C   0  0  2  0  0  0  0  0  0  0  0  0
   25.5143  -18.8007  -14.5879 N   0  0  0  0  0  0  0  0  0  0  0  0
   24.0159  -17.2120  -15.5014 C   0  0  0  0  0  0  0  0  0  0  0  0
   23.9236  -17.9884  -16.5186 O   0  0  0  0  0  0  0  0  0  0  0  0
   18.2188  -16.1357  -13.8319 N   0  0  0  0  0  0  0  0  0  0  0  0
   18.2183  -16.9658  -14.9988 C   0  0  0  0  0  0  0  0  0  0  0  0
   17.1281  -17.5615  -15.2691 O   0  0  0  0  0  0  0  0  0  0  0  0
   19.4221  -17.1060  -15.8357 C   0  0  0  0  0  0  0  0  0  0  0  0
   20.6034  -16.3463  -15.3691 C   0  0  0  0  0  0  0  0  0  0  0  0
   21.8167  -16.2994  -16.2222 C   0  0  2  0  0  0  0  0  0  0  0  0
   22.9792  -16.2968  -15.3006 N   0  0  0  0  0  0  0  0  0  0  0  0
   21.9038  -15.1319  -17.0829 C   0  0  0  0  0  0  0  0  0  0  0  0
   22.4948  -14.0586  -16.7350 O   0  0  0  0  0  0  0  0  0  0  0  0
   21.3479  -15.0866  -18.3633 O   0  0  0  0  0  0  0  0  0  0  0  0
  2  1  1  0
  2  3  2  0
  4  5  1  0
  4  2  1  0
  6  7  1  1
  6  5  1  0
  8  6  1  0
  9  8  2  0
 11 10  1  6
 11 12  1  0
 11 13  1  0
 13 14  1  6
 14  8  1  0
 15 16  2  0
 15 13  1  0
 18 17  1  0
 19 18  2  0
 20 18  1  0
 22 21  1  1
 21 20  1  0
 22 23  1  0
 23 15  1  0
 24 22  1  0
 25 24  2  0
 26 24  1  0
M  END
$$$$
