QVQ.pdb
     RDKit          3D

 26 25  0  0  1  0  0  0  0  0999 V2000
   16.4979  -27.3305   -7.4712 N   0  0  0  0  0  0  0  0  0  0  0  0
   17.8352  -27.7559   -7.4630 C   0  0  0  0  0  0  0  0  0  0  0  0
   18.1209  -28.8706   -6.9767 O   0  0  0  0  0  0  0  0  0  0  0  0
   18.8754  -26.9001   -8.0183 C   0  0  0  0  0  0  0  0  0  0  0  0
   18.3557  -25.6091   -8.5978 C   0  0  0  0  0  0  0  0  0  0  0  0
   19.0304  -24.4899   -7.8226 C   0  0  2  0  0  0  0  0  0  0  0  0
   18.6327  -24.4598   -6.4383 N   0  0  0  0  0  0  0  0  0  0  0  0
   18.8733  -23.1773   -8.4790 C   0  0  0  0  0  0  0  0  0  0  0  0
   17.8081  -22.5353   -8.4369 O   0  0  0  0  0  0  0  0  0  0  0  0
   21.3196  -19.2586  -10.1701 C   0  0  0  0  0  0  0  0  0  0  0  0
   21.1435  -20.5955   -9.4935 C   0  0  2  0  0  0  0  0  0  0  0  0
   22.3639  -21.4587   -9.6058 C   0  0  0  0  0  0  0  0  0  0  0  0
   19.8765  -21.3155   -9.8569 C   0  0  2  0  0  0  0  0  0  0  0  0
   19.9663  -22.6224   -9.1824 N   0  0  0  0  0  0  0  0  0  0  0  0
   19.6823  -21.5690  -11.2830 C   0  0  0  0  0  0  0  0  0  0  0  0
   20.2597  -22.6029  -11.7766 O   0  0  0  0  0  0  0  0  0  0  0  0
   16.9833  -19.6753  -16.5012 N   0  0  0  0  0  0  0  0  0  0  0  0
   16.6241  -18.9892  -15.2966 C   0  0  0  0  0  0  0  0  0  0  0  0
   16.0901  -17.8437  -15.4354 O   0  0  0  0  0  0  0  0  0  0  0  0
   16.8599  -19.5944  -13.9747 C   0  0  0  0  0  0  0  0  0  0  0  0
   17.4357  -20.9576  -14.0018 C   0  0  0  0  0  0  0  0  0  0  0  0
   18.8475  -21.1550  -13.5897 C   0  0  2  0  0  0  0  0  0  0  0  0
   18.9229  -20.7846  -12.1552 N   0  0  0  0  0  0  0  0  0  0  0  0
   19.8087  -20.3531  -14.3277 C   0  0  0  0  0  0  0  0  0  0  0  0
   20.3455  -19.3023  -13.8484 O   0  0  0  0  0  0  0  0  0  0  0  0
   20.2257  -20.6654  -15.6235 O   0  0  0  0  0  0  0  0  0  0  0  0
  2  1  1  0
  2  3  2  0
  4  5  1  0
  4  2  1  0
  6  7  1  1
  6  5  1  0
  8  6  1  0
  9  8  2  0
 11 10  1  6
 11 12  1  0
 11 13  1  0
 13 14  1  1
 14  8  1  0
 15 16  2  0
 15 13  1  0
 18 17  1  0
 19 18  2  0
 20 18  1  0
 22 21  1  6
 21 20  1  0
 22 23  1  0
 23 15  1  0
 24 22  1  0
 25 24  2  0
 26 24  1  0
M  END
$$$$
