QVQ.pdb
     RDKit          3D

 26 25  0  0  1  0  0  0  0  0999 V2000
   15.6411  -13.8083  -17.8787 N   0  0  0  0  0  0  0  0  0  0  0  0
   16.1570  -13.5081  -19.1487 C   0  0  0  0  0  0  0  0  0  0  0  0
   15.6769  -14.0724  -20.1546 O   0  0  0  0  0  0  0  0  0  0  0  0
   17.2427  -12.5460  -19.2852 C   0  0  0  0  0  0  0  0  0  0  0  0
   17.6321  -11.8806  -17.9898 C   0  0  0  0  0  0  0  0  0  0  0  0
   19.0485  -12.3371  -17.6831 C   0  0  2  0  0  0  0  0  0  0  0  0
   19.1594  -13.7708  -17.5956 N   0  0  0  0  0  0  0  0  0  0  0  0
   19.6144  -11.6585  -16.5009 C   0  0  0  0  0  0  0  0  0  0  0  0
   19.2217  -11.8979  -15.3446 O   0  0  0  0  0  0  0  0  0  0  0  0
   23.4455   -9.9851  -14.2829 C   0  0  0  0  0  0  0  0  0  0  0  0
   22.6158  -10.5927  -15.3867 C   0  0  2  0  0  0  0  0  0  0  0  0
   23.3667  -10.6881  -16.6805 C   0  0  0  0  0  0  0  0  0  0  0  0
   21.2484   -9.9910  -15.5414 C   0  0  2  0  0  0  0  0  0  0  0  0
   20.6389  -10.7014  -16.6793 N   0  0  0  0  0  0  0  0  0  0  0  0
   21.2194   -8.5624  -15.8482 C   0  0  0  0  0  0  0  0  0  0  0  0
   21.5691   -8.2118  -17.0317 O   0  0  0  0  0  0  0  0  0  0  0  0
   17.5240   -4.7745  -17.2027 N   0  0  0  0  0  0  0  0  0  0  0  0
   18.3185   -3.7653  -16.5695 C   0  0  0  0  0  0  0  0  0  0  0  0
   18.0154   -2.5588  -16.8325 O   0  0  0  0  0  0  0  0  0  0  0  0
   19.4197   -4.1212  -15.6587 C   0  0  0  0  0  0  0  0  0  0  0  0
   19.6030   -5.5722  -15.4318 C   0  0  0  0  0  0  0  0  0  0  0  0
   20.9775   -6.1297  -15.3872 C   0  0  2  0  0  0  0  0  0  0  0  0
   20.8438   -7.5458  -14.9661 N   0  0  0  0  0  0  0  0  0  0  0  0
   21.8729   -5.4531  -14.4642 C   0  0  0  0  0  0  0  0  0  0  0  0
   22.0118   -5.8091  -13.2492 O   0  0  0  0  0  0  0  0  0  0  0  0
   22.6566   -4.3563  -14.8294 O   0  0  0  0  0  0  0  0  0  0  0  0
  2  1  1  0
  2  3  2  0
  4  5  1  0
  4  2  1  0
  6  7  1  1
  6  5  1  0
  8  6  1  0
  9  8  2  0
 11 10  1  1
 11 12  1  0
 11 13  1  0
 13 14  1  6
 14  8  1  0
 15 16  2  0
 15 13  1  0
 18 17  1  0
 19 18  2  0
 20 18  1  0
 22 21  1  1
 21 20  1  0
 22 23  1  0
 23 15  1  0
 24 22  1  0
 25 24  2  0
 26 24  1  0
M  END
$$$$
