QVQ.pdb
     RDKit          3D

 26 25  0  0  1  0  0  0  0  0999 V2000
   16.6502  -17.2155  -17.3510 N   0  0  0  0  0  0  0  0  0  0  0  0
   17.5195  -16.2390  -17.8611 C   0  0  0  0  0  0  0  0  0  0  0  0
   17.0581  -15.3129  -18.5612 O   0  0  0  0  0  0  0  0  0  0  0  0
   18.9458  -16.3112  -17.5726 C   0  0  0  0  0  0  0  0  0  0  0  0
   19.4148  -15.2929  -16.5648 C   0  0  0  0  0  0  0  0  0  0  0  0
   20.9232  -15.4489  -16.4691 C   0  0  2  0  0  0  0  0  0  0  0  0
   21.3176  -16.7854  -16.1039 N   0  0  0  0  0  0  0  0  0  0  0  0
   21.5403  -14.4263  -15.6019 C   0  0  0  0  0  0  0  0  0  0  0  0
   21.4233  -14.4454  -14.3632 O   0  0  0  0  0  0  0  0  0  0  0  0
   25.1785  -11.3203  -14.9518 C   0  0  0  0  0  0  0  0  0  0  0  0
   24.3654  -12.3995  -15.6227 C   0  0  2  0  0  0  0  0  0  0  0  0
   24.7219  -12.5689  -17.0688 C   0  0  0  0  0  0  0  0  0  0  0  0
   22.8852  -12.3011  -15.3878 C   0  0  2  0  0  0  0  0  0  0  0  0
   22.2925  -13.3848  -16.1910 N   0  0  0  0  0  0  0  0  0  0  0  0
   22.2618  -11.0487  -15.8107 C   0  0  0  0  0  0  0  0  0  0  0  0
   21.8828  -10.9686  -17.0338 O   0  0  0  0  0  0  0  0  0  0  0  0
   17.1996   -9.8038  -15.9089 N   0  0  0  0  0  0  0  0  0  0  0  0
   17.5679   -8.4346  -16.1100 C   0  0  0  0  0  0  0  0  0  0  0  0
   16.6195   -7.6235  -16.3536 O   0  0  0  0  0  0  0  0  0  0  0  0
   18.9735   -8.0028  -16.0283 C   0  0  0  0  0  0  0  0  0  0  0  0
   19.9434   -9.0768  -15.7177 C   0  0  0  0  0  0  0  0  0  0  0  0
   21.3800   -8.7346  -15.5729 C   0  0  2  0  0  0  0  0  0  0  0  0
   22.0421   -9.9320  -14.9998 N   0  0  0  0  0  0  0  0  0  0  0  0
   21.6448   -7.5982  -14.7068 C   0  0  0  0  0  0  0  0  0  0  0  0
   22.0959   -7.7219  -13.5222 O   0  0  0  0  0  0  0  0  0  0  0  0
   21.4278   -6.2753  -15.0984 O   0  0  0  0  0  0  0  0  0  0  0  0
  2  1  1  0
  2  3  2  0
  4  5  1  0
  4  2  1  0
  6  7  1  1
  6  5  1  0
  8  6  1  0
  9  8  2  0
 11 10  1  6
 11 12  1  0
 11 13  1  0
 13 14  1  6
 14  8  1  0
 15 16  2  0
 15 13  1  0
 18 17  1  0
 19 18  2  0
 20 18  1  0
 22 21  1  1
 21 20  1  0
 22 23  1  0
 23 15  1  0
 24 22  1  0
 25 24  2  0
 26 24  1  0
M  END
$$$$
