QVQ.pdb
     RDKit          3D

 26 25  0  0  1  0  0  0  0  0999 V2000
   16.2810  -24.4866  -12.2332 N   0  0  0  0  0  0  0  0  0  0  0  0
   15.8442  -23.1589  -12.3591 C   0  0  0  0  0  0  0  0  0  0  0  0
   14.8911  -22.7579  -11.6580 O   0  0  0  0  0  0  0  0  0  0  0  0
   16.5011  -22.2621  -13.3010 C   0  0  0  0  0  0  0  0  0  0  0  0
   17.5838  -22.9228  -14.1158 C   0  0  0  0  0  0  0  0  0  0  0  0
   18.0123  -21.9073  -15.1616 C   0  0  2  0  0  0  0  0  0  0  0  0
   17.0252  -21.7302  -16.1958 N   0  0  0  0  0  0  0  0  0  0  0  0
   19.3519  -22.1958  -15.7097 C   0  0  0  0  0  0  0  0  0  0  0  0
   19.7490  -23.3561  -15.9208 O   0  0  0  0  0  0  0  0  0  0  0  0
   21.4603  -19.4294  -18.1485 C   0  0  0  0  0  0  0  0  0  0  0  0
   21.5745  -20.9187  -17.9364 C   0  0  2  0  0  0  0  0  0  0  0  0
   20.5926  -21.6915  -18.7645 C   0  0  0  0  0  0  0  0  0  0  0  0
   21.5939  -21.3432  -16.4958 C   0  0  2  0  0  0  0  0  0  0  0  0
   20.2212  -21.1221  -16.0082 N   0  0  0  0  0  0  0  0  0  0  0  0
   22.4958  -20.5882  -15.6283 C   0  0  0  0  0  0  0  0  0  0  0  0
   22.1433  -19.3947  -15.3164 O   0  0  0  0  0  0  0  0  0  0  0  0
   26.0629  -22.4702  -10.7180 N   0  0  0  0  0  0  0  0  0  0  0  0
   25.6570  -21.0980  -10.6629 C   0  0  0  0  0  0  0  0  0  0  0  0
   25.4262  -20.6221   -9.5067 O   0  0  0  0  0  0  0  0  0  0  0  0
   25.5255  -20.2916  -11.8882 C   0  0  0  0  0  0  0  0  0  0  0  0
   24.6836  -20.8912  -12.9475 C   0  0  0  0  0  0  0  0  0  0  0  0
   24.5104  -20.1667  -14.2309 C   0  0  2  0  0  0  0  0  0  0  0  0
   23.7072  -21.0524  -15.1090 N   0  0  0  0  0  0  0  0  0  0  0  0
   25.7521  -19.8402  -14.9113 C   0  0  0  0  0  0  0  0  0  0  0  0
   26.1986  -20.5129  -15.8963 O   0  0  0  0  0  0  0  0  0  0  0  0
   26.5611  -18.7625  -14.5442 O   0  0  0  0  0  0  0  0  0  0  0  0
  2  1  1  0
  2  3  2  0
  4  5  1  0
  4  2  1  0
  6  7  1  6
  6  5  1  0
  8  6  1  0
  9  8  2  0
 11 10  1  1
 11 12  1  0
 11 13  1  0
 13 14  1  1
 14  8  1  0
 15 16  2  0
 15 13  1  0
 18 17  1  0
 19 18  2  0
 20 18  1  0
 22 21  1  1
 21 20  1  0
 22 23  1  0
 23 15  1  0
 24 22  1  0
 25 24  2  0
 26 24  1  0
M  END
$$$$
