QVQ.pdb
     RDKit          3D

 26 25  0  0  1  0  0  0  0  0999 V2000
   24.2131  -20.8702   -8.8764 N   0  0  0  0  0  0  0  0  0  0  0  0
   22.9542  -20.9136   -9.4949 C   0  0  0  0  0  0  0  0  0  0  0  0
   21.9725  -21.3499   -8.8572 O   0  0  0  0  0  0  0  0  0  0  0  0
   22.8011  -20.4523  -10.8684 C   0  0  0  0  0  0  0  0  0  0  0  0
   24.0935  -20.0192  -11.5122 C   0  0  0  0  0  0  0  0  0  0  0  0
   24.1807  -20.7586  -12.8367 C   0  0  2  0  0  0  0  0  0  0  0  0
   24.6836  -22.1003  -12.6875 N   0  0  0  0  0  0  0  0  0  0  0  0
   24.9202  -19.9940  -13.8599 C   0  0  0  0  0  0  0  0  0  0  0  0
   24.5621  -18.8622  -14.2330 O   0  0  0  0  0  0  0  0  0  0  0  0
   28.8833  -21.2723  -14.7669 C   0  0  0  0  0  0  0  0  0  0  0  0
   28.3061  -19.8805  -14.8434 C   0  0  2  0  0  0  0  0  0  0  0  0
   28.4641  -19.1242  -13.5589 C   0  0  0  0  0  0  0  0  0  0  0  0
   26.9124  -19.8139  -15.3994 C   0  0  2  0  0  0  0  0  0  0  0  0
   26.0772  -20.5599  -14.4418 N   0  0  0  0  0  0  0  0  0  0  0  0
   26.7281  -20.4258  -16.7137 C   0  0  0  0  0  0  0  0  0  0  0  0
   26.4840  -21.6850  -16.7429 O   0  0  0  0  0  0  0  0  0  0  0  0
   21.8862  -20.0069  -17.5233 N   0  0  0  0  0  0  0  0  0  0  0  0
   22.0695  -20.2706  -18.9188 C   0  0  0  0  0  0  0  0  0  0  0  0
   21.0127  -20.4082  -19.6123 O   0  0  0  0  0  0  0  0  0  0  0  0
   23.4165  -20.3668  -19.5066 C   0  0  0  0  0  0  0  0  0  0  0  0
   24.5323  -20.1527  -18.5581 C   0  0  0  0  0  0  0  0  0  0  0  0
   25.9280  -20.2060  -19.0591 C   0  0  2  0  0  0  0  0  0  0  0  0
   26.7940  -19.7597  -17.9404 N   0  0  0  0  0  0  0  0  0  0  0  0
   26.1873  -19.3613  -20.2127 C   0  0  0  0  0  0  0  0  0  0  0  0
   26.7868  -18.2408  -20.1286 O   0  0  0  0  0  0  0  0  0  0  0  0
   25.8020  -19.7051  -21.5103 O   0  0  0  0  0  0  0  0  0  0  0  0
  2  1  1  0
  2  3  2  0
  4  5  1  0
  4  2  1  0
  6  7  1  1
  6  5  1  0
  8  6  1  0
  9  8  2  0
 11 10  1  1
 11 12  1  0
 11 13  1  0
 13 14  1  1
 14  8  1  0
 15 16  2  0
 15 13  1  0
 18 17  1  0
 19 18  2  0
 20 18  1  0
 22 21  1  1
 21 20  1  0
 22 23  1  0
 23 15  1  0
 24 22  1  0
 25 24  2  0
 26 24  1  0
M  END
$$$$
