QVQ.pdb
     RDKit          3D

 26 25  0  0  1  0  0  0  0  0999 V2000
   15.5291  -11.6903  -17.4664 N   0  0  0  0  0  0  0  0  0  0  0  0
   16.4124  -11.7918  -18.5521 C   0  0  0  0  0  0  0  0  0  0  0  0
   15.9629  -12.0681  -19.6845 O   0  0  0  0  0  0  0  0  0  0  0  0
   17.8394  -11.5754  -18.3529 C   0  0  0  0  0  0  0  0  0  0  0  0
   18.2038  -11.1796  -16.9446 C   0  0  0  0  0  0  0  0  0  0  0  0
   19.6161  -11.6880  -16.7091 C   0  0  2  0  0  0  0  0  0  0  0  0
   19.6552  -13.1018  -16.4353 N   0  0  0  0  0  0  0  0  0  0  0  0
   20.3345  -10.9000  -15.6886 C   0  0  0  0  0  0  0  0  0  0  0  0
   20.0699  -10.9830  -14.4756 O   0  0  0  0  0  0  0  0  0  0  0  0
   24.1100   -9.4551  -16.7233 C   0  0  0  0  0  0  0  0  0  0  0  0
   23.5765   -9.6988  -15.3333 C   0  0  2  0  0  0  0  0  0  0  0  0
   23.8265  -11.0997  -14.8621 C   0  0  0  0  0  0  0  0  0  0  0  0
   22.1588   -9.2499  -15.1226 C   0  0  2  0  0  0  0  0  0  0  0  0
   21.3608  -10.0173  -16.0949 N   0  0  0  0  0  0  0  0  0  0  0  0
   21.9039   -7.8316  -15.3662 C   0  0  0  0  0  0  0  0  0  0  0  0
   21.9297   -7.4345  -16.5859 O   0  0  0  0  0  0  0  0  0  0  0  0
   18.6976   -3.3684  -16.4390 N   0  0  0  0  0  0  0  0  0  0  0  0
   18.4130   -4.7704  -16.5019 C   0  0  0  0  0  0  0  0  0  0  0  0
   17.5681   -5.1376  -17.3782 O   0  0  0  0  0  0  0  0  0  0  0  0
   19.0773   -5.7250  -15.5982 C   0  0  0  0  0  0  0  0  0  0  0  0
   20.0429   -5.1249  -14.6506 C   0  0  0  0  0  0  0  0  0  0  0  0
   21.4846   -5.4495  -14.7842 C   0  0  2  0  0  0  0  0  0  0  0  0
   21.6344   -6.8711  -14.3877 N   0  0  0  0  0  0  0  0  0  0  0  0
   22.3638   -4.6412  -13.9563 C   0  0  0  0  0  0  0  0  0  0  0  0
   23.0014   -5.1124  -12.9595 O   0  0  0  0  0  0  0  0  0  0  0  0
   22.5847   -3.2809  -14.1822 O   0  0  0  0  0  0  0  0  0  0  0  0
  2  1  1  0
  2  3  2  0
  4  5  1  0
  4  2  1  0
  6  7  1  1
  6  5  1  0
  8  6  1  0
  9  8  2  0
 11 10  1  6
 11 12  1  0
 11 13  1  0
 13 14  1  6
 14  8  1  0
 15 16  2  0
 15 13  1  0
 18 17  1  0
 19 18  2  0
 20 18  1  0
 22 21  1  1
 21 20  1  0
 22 23  1  0
 23 15  1  0
 24 22  1  0
 25 24  2  0
 26 24  1  0
M  END
$$$$
