SCY.pdb
     RDKit          3D

 25 25  0  0  1  0  0  0  0  0999 V2000
    3.5930  -20.8541   22.2799 O   0  0  0  0  0  0  0  0  0  0  0  0
    4.9042  -20.4078   22.2850 C   0  0  0  0  0  0  0  0  0  0  0  0
    4.9842  -19.1804   21.3967 C   0  0  2  0  0  0  0  0  0  0  0  0
    5.2378  -19.6711   20.0435 N   0  0  0  0  0  0  0  0  0  0  0  0
    6.1520  -18.3424   21.7640 C   0  0  0  0  0  0  0  0  0  0  0  0
    7.3070  -18.7595   21.4409 O   0  0  0  0  0  0  0  0  0  0  0  0
    6.0455  -17.1045   22.4546 N   0  0  0  0  0  0  0  0  0  0  0  0
    7.2460  -16.3687   22.8522 C   0  0  1  0  0  0  0  0  0  0  0  0
    6.8589  -14.9066   22.9264 C   0  0  0  0  0  0  0  0  0  0  0  0
    7.1126  -14.1718   21.2878 S   0  0  0  0  0  0  0  0  0  0  0  0
    7.5795  -16.7983   24.2461 C   0  0  0  0  0  0  0  0  0  0  0  0
    6.7889  -16.6012   25.2158 O   0  0  0  0  0  0  0  0  0  0  0  0
    4.1070  -21.6066   27.0175 O   0  0  0  0  0  0  0  0  0  0  0  0
    5.3657  -21.0551   26.7311 C   0  0  0  0  0  0  0  0  0  0  0  0
    6.0966  -20.4647   27.7400 C   0  0  0  0  0  0  0  0  0  0  0  0
    7.3300  -19.9185   27.4843 C   0  0  0  0  0  0  0  0  0  0  0  0
    7.8955  -19.9334   26.2128 C   0  0  0  0  0  0  0  0  0  0  0  0
    9.2269  -19.3335   25.9579 C   0  0  0  0  0  0  0  0  0  0  0  0
    9.2013  -17.8224   25.9023 C   0  0  2  0  0  0  0  0  0  0  0  0
    8.8027  -17.4512   24.5570 N   0  0  0  0  0  0  0  0  0  0  0  0
   10.5253  -17.2153   26.1651 C   0  0  0  0  0  0  0  0  0  0  0  0
   11.1857  -16.4944   25.1849 O   0  0  0  0  0  0  0  0  0  0  0  0
    7.1538  -20.5266   25.2138 C   0  0  0  0  0  0  0  0  0  0  0  0
    5.8963  -21.0858   25.4646 C   0  0  0  0  0  0  0  0  0  0  0  0
   11.0839  -17.3382   27.2831 O   0  0  0  0  0  0  0  0  0  0  0  0
  1  2  1  0
  2  3  1  0
  3  5  1  0
  3  4  1  6
  5  6  2  0
  7  5  1  0
  7  8  1  0
  8 11  1  0
  8  9  1  1
 10  9  1  0
 11 20  1  0
 11 12  2  0
 14 13  1  0
 15 14  2  0
 16 15  1  0
 17 16  2  0
 17 23  1  0
 18 17  1  0
 19 18  1  6
 19 21  1  0
 20 19  1  0
 21 25  2  0
 21 22  1  0
 23 24  2  0
 24 14  1  0
M  END
$$$$
