SCY.pdb
     RDKit          3D

 25 25  0  0  1  0  0  0  0  0999 V2000
   10.2602  -18.0186   19.0067 O   0  0  0  0  0  0  0  0  0  0  0  0
    9.8231  -17.2319   17.9539 C   0  0  0  0  0  0  0  0  0  0  0  0
    8.3118  -17.3433   17.8823 C   0  0  2  0  0  0  0  0  0  0  0  0
    7.8939  -16.5143   16.7534 N   0  0  0  0  0  0  0  0  0  0  0  0
    7.6846  -16.7531   19.0902 C   0  0  0  0  0  0  0  0  0  0  0  0
    7.5481  -15.4913   19.1317 O   0  0  0  0  0  0  0  0  0  0  0  0
    7.2314  -17.5220   20.1966 N   0  0  0  0  0  0  0  0  0  0  0  0
    6.5652  -16.8767   21.3282 C   0  0  1  0  0  0  0  0  0  0  0  0
    5.4142  -17.7752   21.7291 C   0  0  0  0  0  0  0  0  0  0  0  0
    6.0798  -19.4280   22.0674 S   0  0  0  0  0  0  0  0  0  0  0  0
    7.5353  -16.8834   22.4674 C   0  0  0  0  0  0  0  0  0  0  0  0
    8.5333  -17.6627   22.4937 O   0  0  0  0  0  0  0  0  0  0  0  0
   10.8937  -14.5682   30.4328 O   0  0  0  0  0  0  0  0  0  0  0  0
   10.1505  -14.6196   29.2429 C   0  0  0  0  0  0  0  0  0  0  0  0
    9.3548  -15.7150   28.9832 C   0  0  0  0  0  0  0  0  0  0  0  0
    8.6189  -15.7880   27.8264 C   0  0  0  0  0  0  0  0  0  0  0  0
    8.6391  -14.7748   26.8726 C   0  0  0  0  0  0  0  0  0  0  0  0
    7.8402  -14.8763   25.6281 C   0  0  0  0  0  0  0  0  0  0  0  0
    8.3020  -15.9856   24.7097 C   0  0  2  0  0  0  0  0  0  0  0  0
    7.3885  -16.0147   23.5823 N   0  0  0  0  0  0  0  0  0  0  0  0
    8.2665  -17.3174   25.3545 C   0  0  0  0  0  0  0  0  0  0  0  0
    7.0847  -18.0324   25.4482 O   0  0  0  0  0  0  0  0  0  0  0  0
    9.4390  -13.6858   27.1452 C   0  0  0  0  0  0  0  0  0  0  0  0
   10.1924  -13.6024   28.3209 C   0  0  0  0  0  0  0  0  0  0  0  0
    9.3067  -17.8332   25.8332 O   0  0  0  0  0  0  0  0  0  0  0  0
  1  2  1  0
  2  3  1  0
  3  5  1  0
  3  4  1  6
  5  6  2  0
  7  5  1  0
  7  8  1  0
  8 11  1  0
  8  9  1  1
 10  9  1  0
 11 20  1  0
 11 12  2  0
 14 13  1  0
 15 14  2  0
 16 15  1  0
 17 16  2  0
 17 23  1  0
 18 17  1  0
 19 18  1  1
 19 21  1  0
 20 19  1  0
 21 25  2  0
 21 22  1  0
 23 24  2  0
 24 14  1  0
M  END
$$$$
