SCY.pdb
     RDKit          3D

 25 25  0  0  1  0  0  0  0  0999 V2000
    7.6987  -12.2422   18.8905 O   0  0  0  0  0  0  0  0  0  0  0  0
    9.0003  -12.7136   18.9382 C   0  0  0  0  0  0  0  0  0  0  0  0
    8.9993  -14.1428   18.4292 C   0  0  2  0  0  0  0  0  0  0  0  0
    8.0647  -14.1760   17.3060 N   0  0  0  0  0  0  0  0  0  0  0  0
    8.4537  -15.0647   19.4555 C   0  0  0  0  0  0  0  0  0  0  0  0
    7.2635  -15.4813   19.3064 O   0  0  0  0  0  0  0  0  0  0  0  0
    9.1896  -15.5029   20.5900 N   0  0  0  0  0  0  0  0  0  0  0  0
    8.5854  -16.4145   21.5620 C   0  0  1  0  0  0  0  0  0  0  0  0
    8.9953  -17.8161   21.1613 C   0  0  0  0  0  0  0  0  0  0  0  0
   10.7998  -17.8472   20.9830 S   0  0  0  0  0  0  0  0  0  0  0  0
    9.2325  -16.1362   22.8821 C   0  0  0  0  0  0  0  0  0  0  0  0
   10.4189  -15.7018   22.9690 O   0  0  0  0  0  0  0  0  0  0  0  0
    5.8747  -10.5175   25.7285 O   0  0  0  0  0  0  0  0  0  0  0  0
    6.3672  -11.8229   25.8832 C   0  0  0  0  0  0  0  0  0  0  0  0
    7.7258  -12.0303   25.9922 C   0  0  0  0  0  0  0  0  0  0  0  0
    8.2311  -13.2978   26.1442 C   0  0  0  0  0  0  0  0  0  0  0  0
    7.4093  -14.4197   26.1952 C   0  0  0  0  0  0  0  0  0  0  0  0
    7.9766  -15.7799   26.3551 C   0  0  0  0  0  0  0  0  0  0  0  0
    9.1250  -16.0635   25.4129 C   0  0  2  0  0  0  0  0  0  0  0  0
    8.5495  -16.3448   24.1106 N   0  0  0  0  0  0  0  0  0  0  0  0
    9.9231  -17.2422   25.8184 C   0  0  0  0  0  0  0  0  0  0  0  0
   10.8433  -17.1592   26.8496 O   0  0  0  0  0  0  0  0  0  0  0  0
    6.0534  -14.1977   26.0849 C   0  0  0  0  0  0  0  0  0  0  0  0
    5.5291  -12.9101   25.9298 C   0  0  0  0  0  0  0  0  0  0  0  0
    9.7867  -18.3476   25.2383 O   0  0  0  0  0  0  0  0  0  0  0  0
  1  2  1  0
  2  3  1  0
  3  5  1  0
  3  4  1  6
  5  6  2  0
  7  5  1  0
  7  8  1  0
  8 11  1  0
  8  9  1  6
 10  9  1  0
 11 20  1  0
 11 12  2  0
 14 13  1  0
 15 14  2  0
 16 15  1  0
 17 16  2  0
 17 23  1  0
 18 17  1  0
 19 18  1  1
 19 21  1  0
 20 19  1  0
 21 25  2  0
 21 22  1  0
 23 24  2  0
 24 14  1  0
M  END
$$$$
