SCY.pdb
     RDKit          3D

 25 25  0  0  1  0  0  0  0  0999 V2000
    5.6057  -18.3946   23.5772 O   0  0  0  0  0  0  0  0  0  0  0  0
    4.4802  -17.9517   22.9022 C   0  0  0  0  0  0  0  0  0  0  0  0
    4.8029  -17.9271   21.4199 C   0  0  2  0  0  0  0  0  0  0  0  0
    5.1465  -19.2998   21.0537 N   0  0  0  0  0  0  0  0  0  0  0  0
    6.0129  -17.1091   21.1601 C   0  0  0  0  0  0  0  0  0  0  0  0
    7.1375  -17.6987   21.1518 O   0  0  0  0  0  0  0  0  0  0  0  0
    5.9788  -15.7081   20.9215 N   0  0  0  0  0  0  0  0  0  0  0  0
    7.2203  -14.9465   20.7829 C   0  0  1  0  0  0  0  0  0  0  0  0
    6.8378  -13.5763   20.2640 C   0  0  0  0  0  0  0  0  0  0  0  0
    8.3366  -12.5568   20.2043 S   0  0  0  0  0  0  0  0  0  0  0  0
    7.7674  -14.7489   22.1615 C   0  0  0  0  0  0  0  0  0  0  0  0
    7.1411  -14.0900   23.0433 O   0  0  0  0  0  0  0  0  0  0  0  0
   10.9189  -15.0290   30.1526 O   0  0  0  0  0  0  0  0  0  0  0  0
   10.3676  -15.1033   28.8637 C   0  0  0  0  0  0  0  0  0  0  0  0
   10.3295  -16.3152   28.2077 C   0  0  0  0  0  0  0  0  0  0  0  0
    9.7952  -16.4128   26.9467 C   0  0  0  0  0  0  0  0  0  0  0  0
    9.2733  -15.3097   26.2779 C   0  0  0  0  0  0  0  0  0  0  0  0
    8.7054  -15.4367   24.9145 C   0  0  0  0  0  0  0  0  0  0  0  0
    9.6614  -15.0036   23.8257 C   0  0  2  0  0  0  0  0  0  0  0  0
    9.0205  -15.2907   22.5556 N   0  0  0  0  0  0  0  0  0  0  0  0
   10.9445  -15.7406   23.8612 C   0  0  0  0  0  0  0  0  0  0  0  0
   11.1270  -16.8900   23.1113 O   0  0  0  0  0  0  0  0  0  0  0  0
    9.3180  -14.1046   26.9455 C   0  0  0  0  0  0  0  0  0  0  0  0
    9.8603  -13.9952   28.2304 C   0  0  0  0  0  0  0  0  0  0  0  0
   11.9005  -15.3429   24.5719 O   0  0  0  0  0  0  0  0  0  0  0  0
  1  2  1  0
  2  3  1  0
  3  5  1  0
  3  4  1  1
  5  6  2  0
  7  5  1  0
  7  8  1  0
  8 11  1  0
  8  9  1  1
 10  9  1  0
 11 20  1  0
 11 12  2  0
 14 13  1  0
 15 14  2  0
 16 15  1  0
 17 16  2  0
 17 23  1  0
 18 17  1  0
 19 18  1  1
 19 21  1  0
 20 19  1  0
 21 25  2  0
 21 22  1  0
 23 24  2  0
 24 14  1  0
M  END
$$$$
