SCY.pdb
     RDKit          3D

 25 25  0  0  1  0  0  0  0  0999 V2000
    4.4789  -20.8754   23.0160 O   0  0  0  0  0  0  0  0  0  0  0  0
    5.7264  -20.4473   22.5928 C   0  0  0  0  0  0  0  0  0  0  0  0
    5.5343  -19.6085   21.3434 C   0  0  2  0  0  0  0  0  0  0  0  0
    5.9190  -20.4578   20.2178 N   0  0  0  0  0  0  0  0  0  0  0  0
    6.4683  -18.4559   21.3367 C   0  0  0  0  0  0  0  0  0  0  0  0
    7.6688  -18.6669   20.9808 O   0  0  0  0  0  0  0  0  0  0  0  0
    6.0913  -17.1360   21.7059 N   0  0  0  0  0  0  0  0  0  0  0  0
    7.0963  -16.0783   21.8152 C   0  0  1  0  0  0  0  0  0  0  0  0
    6.3511  -14.7605   21.7756 C   0  0  0  0  0  0  0  0  0  0  0  0
    7.5626  -13.4218   21.9464 S   0  0  0  0  0  0  0  0  0  0  0  0
    7.7019  -16.1909   23.1787 C   0  0  0  0  0  0  0  0  0  0  0  0
    7.0453  -15.9242   24.2283 O   0  0  0  0  0  0  0  0  0  0  0  0
    5.5556  -20.5691   27.3265 O   0  0  0  0  0  0  0  0  0  0  0  0
    6.6720  -19.8982   26.8029 C   0  0  0  0  0  0  0  0  0  0  0  0
    6.9504  -19.9870   25.4556 C   0  0  0  0  0  0  0  0  0  0  0  0
    8.0364  -19.3396   24.9204 C   0  0  0  0  0  0  0  0  0  0  0  0
    8.8976  -18.5730   25.6997 C   0  0  0  0  0  0  0  0  0  0  0  0
   10.0674  -17.8863   25.1018 C   0  0  0  0  0  0  0  0  0  0  0  0
    9.7598  -16.4833   24.6285 C   0  0  2  0  0  0  0  0  0  0  0  0
    9.0482  -16.6038   23.3693 N   0  0  0  0  0  0  0  0  0  0  0  0
   10.9782  -15.6793   24.3839 C   0  0  0  0  0  0  0  0  0  0  0  0
   11.3183  -15.2721   23.1051 O   0  0  0  0  0  0  0  0  0  0  0  0
    8.6075  -18.4932   27.0448 C   0  0  0  0  0  0  0  0  0  0  0  0
    7.5032  -19.1490   27.5993 C   0  0  0  0  0  0  0  0  0  0  0  0
   11.7349  -15.3459   25.3291 O   0  0  0  0  0  0  0  0  0  0  0  0
  1  2  1  0
  2  3  1  0
  3  5  1  0
  3  4  1  6
  5  6  2  0
  7  5  1  0
  7  8  1  0
  8 11  1  0
  8  9  1  1
 10  9  1  0
 11 20  1  0
 11 12  2  0
 14 13  1  0
 15 14  2  0
 16 15  1  0
 17 16  2  0
 17 23  1  0
 18 17  1  0
 19 18  1  6
 19 21  1  0
 20 19  1  0
 21 25  2  0
 21 22  1  0
 23 24  2  0
 24 14  1  0
M  END
$$$$
