SCY.pdb
     RDKit          3D

 25 25  0  0  1  0  0  0  0  0999 V2000
    9.1689  -13.6717   21.0212 O   0  0  0  0  0  0  0  0  0  0  0  0
    9.0566  -14.3781   19.8351 C   0  0  0  0  0  0  0  0  0  0  0  0
    7.6492  -14.9391   19.7559 C   0  0  2  0  0  0  0  0  0  0  0  0
    6.7870  -13.8259   19.3637 N   0  0  0  0  0  0  0  0  0  0  0  0
    7.1835  -15.3781   21.0943 C   0  0  0  0  0  0  0  0  0  0  0  0
    6.4584  -14.5778   21.7624 O   0  0  0  0  0  0  0  0  0  0  0  0
    7.5049  -16.6402   21.6639 N   0  0  0  0  0  0  0  0  0  0  0  0
    6.9663  -17.0266   22.9682 C   0  0  1  0  0  0  0  0  0  0  0  0
    6.7036  -18.5168   22.9093 C   0  0  0  0  0  0  0  0  0  0  0  0
    6.0592  -19.0404   24.5217 S   0  0  0  0  0  0  0  0  0  0  0  0
    8.0583  -16.8200   23.9700 C   0  0  0  0  0  0  0  0  0  0  0  0
    9.2790  -16.9830   23.6745 O   0  0  0  0  0  0  0  0  0  0  0  0
    5.7928  -10.4632   25.7025 O   0  0  0  0  0  0  0  0  0  0  0  0
    6.3466  -11.6812   26.1272 C   0  0  0  0  0  0  0  0  0  0  0  0
    7.7153  -11.8071   26.2340 C   0  0  0  0  0  0  0  0  0  0  0  0
    8.2801  -12.9884   26.6473 C   0  0  0  0  0  0  0  0  0  0  0  0
    7.5106  -14.1009   26.9740 C   0  0  0  0  0  0  0  0  0  0  0  0
    8.1415  -15.3682   27.4135 C   0  0  0  0  0  0  0  0  0  0  0  0
    8.8106  -16.1249   26.2879 C   0  0  2  0  0  0  0  0  0  0  0  0
    7.7839  -16.4294   25.3084 N   0  0  0  0  0  0  0  0  0  0  0  0
    9.4064  -17.4054   26.7310 C   0  0  0  0  0  0  0  0  0  0  0  0
   10.5230  -17.4264   27.5492 O   0  0  0  0  0  0  0  0  0  0  0  0
    6.1439  -13.9609   26.8625 C   0  0  0  0  0  0  0  0  0  0  0  0
    5.5591  -12.7615   26.4425 C   0  0  0  0  0  0  0  0  0  0  0  0
    8.9150  -18.5054   26.3766 O   0  0  0  0  0  0  0  0  0  0  0  0
  1  2  1  0
  2  3  1  0
  3  5  1  0
  3  4  1  1
  5  6  2  0
  7  5  1  0
  7  8  1  0
  8 11  1  0
  8  9  1  6
 10  9  1  0
 11 20  1  0
 11 12  2  0
 14 13  1  0
 15 14  2  0
 16 15  1  0
 17 16  2  0
 17 23  1  0
 18 17  1  0
 19 18  1  1
 19 21  1  0
 20 19  1  0
 21 25  2  0
 21 22  1  0
 23 24  2  0
 24 14  1  0
M  END
$$$$
