SCY.pdb
     RDKit          3D

 25 25  0  0  1  0  0  0  0  0999 V2000
   10.4102  -18.8456   19.6467 O   0  0  0  0  0  0  0  0  0  0  0  0
    9.3387  -19.5143   19.0782 C   0  0  0  0  0  0  0  0  0  0  0  0
    8.1977  -18.5261   18.9261 C   0  0  2  0  0  0  0  0  0  0  0  0
    8.6505  -17.5240   17.9632 N   0  0  0  0  0  0  0  0  0  0  0  0
    7.9558  -17.8042   20.1993 C   0  0  0  0  0  0  0  0  0  0  0  0
    8.2902  -16.5807   20.2607 O   0  0  0  0  0  0  0  0  0  0  0  0
    7.3728  -18.4074   21.3469 N   0  0  0  0  0  0  0  0  0  0  0  0
    6.9878  -17.5940   22.5005 C   0  0  1  0  0  0  0  0  0  0  0  0
    6.1718  -18.4859   23.4125 C   0  0  0  0  0  0  0  0  0  0  0  0
    5.8160  -17.5638   24.9330 S   0  0  0  0  0  0  0  0  0  0  0  0
    8.2461  -17.2586   23.2375 C   0  0  0  0  0  0  0  0  0  0  0  0
    9.2288  -18.0561   23.2840 O   0  0  0  0  0  0  0  0  0  0  0  0
    5.4354  -11.9441   27.7993 O   0  0  0  0  0  0  0  0  0  0  0  0
    6.4519  -12.4752   26.9899 C   0  0  0  0  0  0  0  0  0  0  0  0
    7.6994  -12.7092   27.5282 C   0  0  0  0  0  0  0  0  0  0  0  0
    8.7094  -13.2281   26.7564 C   0  0  0  0  0  0  0  0  0  0  0  0
    8.5270  -13.5391   25.4123 C   0  0  0  0  0  0  0  0  0  0  0  0
    9.6329  -14.0942   24.5960 C   0  0  0  0  0  0  0  0  0  0  0  0
    9.6449  -15.6059   24.5542 C   0  0  2  0  0  0  0  0  0  0  0  0
    8.4059  -16.0256   23.9256 N   0  0  0  0  0  0  0  0  0  0  0  0
    9.6981  -16.2175   25.9011 C   0  0  0  0  0  0  0  0  0  0  0  0
    8.6313  -16.9496   26.3937 O   0  0  0  0  0  0  0  0  0  0  0  0
    7.2751  -13.2999   24.8873 C   0  0  0  0  0  0  0  0  0  0  0  0
    6.2397  -12.7716   25.6656 C   0  0  0  0  0  0  0  0  0  0  0  0
   10.7114  -16.0884   26.6316 O   0  0  0  0  0  0  0  0  0  0  0  0
  1  2  1  0
  2  3  1  0
  3  5  1  0
  3  4  1  6
  5  6  2  0
  7  5  1  0
  7  8  1  0
  8 11  1  0
  8  9  1  1
 10  9  1  0
 11 20  1  0
 11 12  2  0
 14 13  1  0
 15 14  2  0
 16 15  1  0
 17 16  2  0
 17 23  1  0
 18 17  1  0
 19 18  1  1
 19 21  1  0
 20 19  1  0
 21 25  2  0
 21 22  1  0
 23 24  2  0
 24 14  1  0
M  END
$$$$
