SCY.pdb
     RDKit          3D

 25 25  0  0  1  0  0  0  0  0999 V2000
   14.9329  -22.5606   19.7524 O   0  0  0  0  0  0  0  0  0  0  0  0
   13.9674  -21.9956   18.9356 C   0  0  0  0  0  0  0  0  0  0  0  0
   12.6746  -21.9156   19.7256 C   0  0  2  0  0  0  0  0  0  0  0  0
   11.6698  -21.3761   18.8115 N   0  0  0  0  0  0  0  0  0  0  0  0
   12.7979  -20.9393   20.8358 C   0  0  0  0  0  0  0  0  0  0  0  0
   13.3929  -19.8429   20.5986 O   0  0  0  0  0  0  0  0  0  0  0  0
   12.2877  -21.1663   22.1430 N   0  0  0  0  0  0  0  0  0  0  0  0
   12.4217  -20.1446   23.1817 C   0  0  1  0  0  0  0  0  0  0  0  0
   11.4184  -19.0574   22.8585 C   0  0  0  0  0  0  0  0  0  0  0  0
    9.7677  -19.8073   22.8160 S   0  0  0  0  0  0  0  0  0  0  0  0
   11.9816  -20.7697   24.4680 C   0  0  0  0  0  0  0  0  0  0  0  0
   10.9262  -21.4650   24.5491 O   0  0  0  0  0  0  0  0  0  0  0  0
   14.7178  -26.6466   24.2572 O   0  0  0  0  0  0  0  0  0  0  0  0
   14.4617  -25.4921   25.0135 C   0  0  0  0  0  0  0  0  0  0  0  0
   13.5856  -25.5539   26.0762 C   0  0  0  0  0  0  0  0  0  0  0  0
   13.3193  -24.4381   26.8305 C   0  0  0  0  0  0  0  0  0  0  0  0
   13.9116  -23.2073   26.5640 C   0  0  0  0  0  0  0  0  0  0  0  0
   13.6061  -22.0139   27.3885 C   0  0  0  0  0  0  0  0  0  0  0  0
   12.3794  -21.2626   26.9218 C   0  0  2  0  0  0  0  0  0  0  0  0
   12.7254  -20.6163   25.6691 N   0  0  0  0  0  0  0  0  0  0  0  0
   11.9548  -20.2096   27.8713 C   0  0  0  0  0  0  0  0  0  0  0  0
   11.4542  -20.5361   29.1202 O   0  0  0  0  0  0  0  0  0  0  0  0
   14.7851  -23.1600   25.4988 C   0  0  0  0  0  0  0  0  0  0  0  0
   15.0628  -24.2914   24.7244 C   0  0  0  0  0  0  0  0  0  0  0  0
   12.0373  -18.9934   27.5693 O   0  0  0  0  0  0  0  0  0  0  0  0
  1  2  1  0
  2  3  1  0
  3  5  1  0
  3  4  1  6
  5  6  2  0
  7  5  1  0
  7  8  1  0
  8 11  1  0
  8  9  1  6
 10  9  1  0
 11 20  1  0
 11 12  2  0
 14 13  1  0
 15 14  2  0
 16 15  1  0
 17 16  2  0
 17 23  1  0
 18 17  1  0
 19 18  1  1
 19 21  1  0
 20 19  1  0
 21 25  2  0
 21 22  1  0
 23 24  2  0
 24 14  1  0
M  END
$$$$
