SCY.pdb
     RDKit          3D

 25 25  0  0  1  0  0  0  0  0999 V2000
   10.7466  -15.4035   17.4575 O   0  0  0  0  0  0  0  0  0  0  0  0
    9.5040  -15.8989   17.8164 C   0  0  0  0  0  0  0  0  0  0  0  0
    8.5448  -14.7277   17.9177 C   0  0  2  0  0  0  0  0  0  0  0  0
    8.9967  -13.7434   16.9363 N   0  0  0  0  0  0  0  0  0  0  0  0
    8.6523  -14.0750   19.2455 C   0  0  0  0  0  0  0  0  0  0  0  0
    8.6501  -12.8059   19.2850 O   0  0  0  0  0  0  0  0  0  0  0  0
    8.7571  -14.7924   20.4683 N   0  0  0  0  0  0  0  0  0  0  0  0
    8.0625  -14.3237   21.6677 C   0  0  1  0  0  0  0  0  0  0  0  0
    6.5962  -14.6527   21.4812 C   0  0  0  0  0  0  0  0  0  0  0  0
    5.7260  -14.2432   23.0187 S   0  0  0  0  0  0  0  0  0  0  0  0
    8.5506  -15.1590   22.8092 C   0  0  0  0  0  0  0  0  0  0  0  0
    8.4394  -16.4206   22.8125 O   0  0  0  0  0  0  0  0  0  0  0  0
   11.7509  -16.7843   31.0133 O   0  0  0  0  0  0  0  0  0  0  0  0
   11.3378  -16.1726   29.8192 C   0  0  0  0  0  0  0  0  0  0  0  0
   11.9752  -16.4852   28.6374 C   0  0  0  0  0  0  0  0  0  0  0  0
   11.5890  -15.9000   27.4570 C   0  0  0  0  0  0  0  0  0  0  0  0
   10.5503  -14.9760   27.3955 C   0  0  0  0  0  0  0  0  0  0  0  0
   10.1527  -14.3525   26.1107 C   0  0  0  0  0  0  0  0  0  0  0  0
    9.5630  -15.3369   25.1255 C   0  0  2  0  0  0  0  0  0  0  0  0
    9.1658  -14.5807   23.9521 N   0  0  0  0  0  0  0  0  0  0  0  0
    8.3608  -16.0234   25.6490 C   0  0  0  0  0  0  0  0  0  0  0  0
    8.4540  -17.2718   26.2403 O   0  0  0  0  0  0  0  0  0  0  0  0
    9.9221  -14.6728   28.5844 C   0  0  0  0  0  0  0  0  0  0  0  0
   10.3084  -15.2638   29.7920 C   0  0  0  0  0  0  0  0  0  0  0  0
    7.2257  -15.4919   25.5707 O   0  0  0  0  0  0  0  0  0  0  0  0
  1  2  1  0
  2  3  1  0
  3  5  1  0
  3  4  1  6
  5  6  2  0
  7  5  1  0
  7  8  1  0
  8 11  1  0
  8  9  1  6
 10  9  1  0
 11 20  1  0
 11 12  2  0
 14 13  1  0
 15 14  2  0
 16 15  1  0
 17 16  2  0
 17 23  1  0
 18 17  1  0
 19 18  1  1
 19 21  1  0
 20 19  1  0
 21 25  2  0
 21 22  1  0
 23 24  2  0
 24 14  1  0
M  END
$$$$
