SCY.pdb
     RDKit          3D

 25 25  0  0  1  0  0  0  0  0999 V2000
    9.0952  -12.3900   20.3384 O   0  0  0  0  0  0  0  0  0  0  0  0
    9.4130  -13.5700   19.6864 C   0  0  0  0  0  0  0  0  0  0  0  0
    8.1165  -14.2814   19.3476 C   0  0  2  0  0  0  0  0  0  0  0  0
    7.1837  -13.2445   18.9105 N   0  0  0  0  0  0  0  0  0  0  0  0
    7.5224  -14.8948   20.5607 C   0  0  0  0  0  0  0  0  0  0  0  0
    6.4496  -14.3906   21.0161 O   0  0  0  0  0  0  0  0  0  0  0  0
    8.0884  -16.0107   21.2353 N   0  0  0  0  0  0  0  0  0  0  0  0
    7.4345  -16.5765   22.4156 C   0  0  1  0  0  0  0  0  0  0  0  0
    7.2853  -18.0622   22.1636 C   0  0  0  0  0  0  0  0  0  0  0  0
    6.4967  -18.8049   23.6181 S   0  0  0  0  0  0  0  0  0  0  0  0
    8.3895  -16.4261   23.5577 C   0  0  0  0  0  0  0  0  0  0  0  0
    9.6439  -16.4914   23.3960 O   0  0  0  0  0  0  0  0  0  0  0  0
    5.6790  -10.3821   25.8203 O   0  0  0  0  0  0  0  0  0  0  0  0
    6.2756  -11.6106   26.1450 C   0  0  0  0  0  0  0  0  0  0  0  0
    5.4947  -12.7424   26.2439 C   0  0  0  0  0  0  0  0  0  0  0  0
    6.0554  -13.9551   26.5601 C   0  0  0  0  0  0  0  0  0  0  0  0
    7.4197  -14.1001   26.7930 C   0  0  0  0  0  0  0  0  0  0  0  0
    8.0036  -15.4183   27.1379 C   0  0  0  0  0  0  0  0  0  0  0  0
    8.8270  -16.0184   26.0203 C   0  0  2  0  0  0  0  0  0  0  0  0
    7.9394  -16.2017   24.8868 N   0  0  0  0  0  0  0  0  0  0  0  0
    9.3927  -17.3408   26.3698 C   0  0  0  0  0  0  0  0  0  0  0  0
   10.4875  -17.4478   27.2105 O   0  0  0  0  0  0  0  0  0  0  0  0
    8.1883  -12.9604   26.6910 C   0  0  0  0  0  0  0  0  0  0  0  0
    7.6262  -11.7205   26.3693 C   0  0  0  0  0  0  0  0  0  0  0  0
    8.8948  -18.3995   25.9133 O   0  0  0  0  0  0  0  0  0  0  0  0
  1  2  1  0
  2  3  1  0
  3  5  1  0
  3  4  1  1
  5  6  2  0
  7  5  1  0
  7  8  1  0
  8 11  1  0
  8  9  1  6
 10  9  1  0
 11 20  1  0
 11 12  2  0
 14 13  1  0
 15 14  2  0
 16 15  1  0
 17 16  2  0
 17 23  1  0
 18 17  1  0
 19 18  1  1
 19 21  1  0
 20 19  1  0
 21 25  2  0
 21 22  1  0
 23 24  2  0
 24 14  1  0
M  END
$$$$
