SCY.pdb
     RDKit          3D

 25 25  0  0  1  0  0  0  0  0999 V2000
    7.3085  -12.6745   18.5091 O   0  0  0  0  0  0  0  0  0  0  0  0
    8.6766  -12.8216   18.6672 C   0  0  0  0  0  0  0  0  0  0  0  0
    9.0431  -14.2406   18.2748 C   0  0  2  0  0  0  0  0  0  0  0  0
    8.3318  -14.5165   17.0281 N   0  0  0  0  0  0  0  0  0  0  0  0
    8.5296  -15.2101   19.2733 C   0  0  0  0  0  0  0  0  0  0  0  0
    7.5128  -15.9029   18.9595 O   0  0  0  0  0  0  0  0  0  0  0  0
    9.1134  -15.4025   20.5551 N   0  0  0  0  0  0  0  0  0  0  0  0
    8.5970  -16.4286   21.4613 C   0  0  1  0  0  0  0  0  0  0  0  0
    9.1857  -17.7485   21.0091 C   0  0  0  0  0  0  0  0  0  0  0  0
   10.9741  -17.5281   20.8041 S   0  0  0  0  0  0  0  0  0  0  0  0
    9.1673  -16.1426   22.8147 C   0  0  0  0  0  0  0  0  0  0  0  0
   10.2499  -15.5027   22.9647 O   0  0  0  0  0  0  0  0  0  0  0  0
    6.6120  -10.4278   26.6522 O   0  0  0  0  0  0  0  0  0  0  0  0
    6.8728  -11.8027   26.5409 C   0  0  0  0  0  0  0  0  0  0  0  0
    8.1765  -12.2454   26.4697 C   0  0  0  0  0  0  0  0  0  0  0  0
    8.4565  -13.5850   26.3605 C   0  0  0  0  0  0  0  0  0  0  0  0
    7.4533  -14.5485   26.3169 C   0  0  0  0  0  0  0  0  0  0  0  0
    7.7780  -15.9896   26.1939 C   0  0  0  0  0  0  0  0  0  0  0  0
    8.9977  -16.2572   25.3406 C   0  0  2  0  0  0  0  0  0  0  0  0
    8.5239  -16.5743   24.0059 N   0  0  0  0  0  0  0  0  0  0  0  0
    9.7947  -17.4075   25.8224 C   0  0  0  0  0  0  0  0  0  0  0  0
   10.6417  -17.2817   26.9104 O   0  0  0  0  0  0  0  0  0  0  0  0
    6.1548  -14.0918   26.3888 C   0  0  0  0  0  0  0  0  0  0  0  0
    5.8594  -12.7289   26.5003 C   0  0  0  0  0  0  0  0  0  0  0  0
    9.7238  -18.5268   25.2574 O   0  0  0  0  0  0  0  0  0  0  0  0
  1  2  1  0
  2  3  1  0
  3  5  1  0
  3  4  1  6
  5  6  2  0
  7  5  1  0
  7  8  1  0
  8 11  1  0
  8  9  1  6
 10  9  1  0
 11 20  1  0
 11 12  2  0
 14 13  1  0
 15 14  2  0
 16 15  1  0
 17 16  2  0
 17 23  1  0
 18 17  1  0
 19 18  1  1
 19 21  1  0
 20 19  1  0
 21 25  2  0
 21 22  1  0
 23 24  2  0
 24 14  1  0
M  END
$$$$
