FAI.pdb
     RDKit          3D

 25 25  0  0  1  0  0  0  0  0999 V2000
    6.0659  -18.2684   23.6024 N   0  0  0  0  0  0  0  0  0  0  0  0
    6.6654  -16.9333   23.7512 C   0  0  1  0  0  0  0  0  0  0  0  0
    5.8145  -16.0900   24.6191 C   0  0  0  0  0  0  0  0  0  0  0  0
    6.0585  -14.6389   24.4594 C   0  0  0  0  0  0  0  0  0  0  0  0
    6.8588  -14.1319   23.4372 C   0  0  0  0  0  0  0  0  0  0  0  0
    7.1004  -12.7803   23.2922 C   0  0  0  0  0  0  0  0  0  0  0  0
    6.5489  -11.8610   24.1719 C   0  0  0  0  0  0  0  0  0  0  0  0
    5.7599  -12.3427   25.1818 C   0  0  0  0  0  0  0  0  0  0  0  0
    5.5214  -13.7137   25.3190 C   0  0  0  0  0  0  0  0  0  0  0  0
    8.0669  -17.0718   24.0598 C   0  0  0  0  0  0  0  0  0  0  0  0
    8.4101  -17.8477   25.0111 O   0  0  0  0  0  0  0  0  0  0  0  0
   11.4863  -16.0665   22.7192 C   0  0  0  0  0  0  0  0  0  0  0  0
   10.5372  -16.7153   23.7216 C   0  0  2  0  0  0  0  0  0  0  0  0
    9.1749  -16.4380   23.4181 N   0  0  0  0  0  0  0  0  0  0  0  0
   11.0284  -16.3744   25.0455 C   0  0  0  0  0  0  0  0  0  0  0  0
   12.0743  -15.6334   25.0661 O   0  0  0  0  0  0  0  0  0  0  0  0
    9.0290  -13.5328   28.6921 C   0  0  0  0  0  0  0  0  0  0  0  0
   10.0351  -14.3121   27.9303 C   0  0  0  0  0  0  0  0  0  0  0  0
   10.4432  -15.6258   28.4700 C   0  0  2  0  0  0  0  0  0  0  0  0
   10.8774  -15.5307   29.9103 C   0  0  0  0  0  0  0  0  0  0  0  0
   11.2112  -16.4982   27.5745 C   0  0  2  0  0  0  0  0  0  0  0  0
   10.5166  -16.7447   26.3034 N   0  0  0  0  0  0  0  0  0  0  0  0
   11.8038  -17.7286   28.1080 C   0  0  0  0  0  0  0  0  0  0  0  0
   13.0429  -17.6881   28.8156 O   0  0  0  0  0  0  0  0  0  0  0  0
   11.3510  -18.8885   28.0276 O   0  0  0  0  0  0  0  0  0  0  0  0
  2 10  1  0
  2  1  1  1
  3  2  1  0
  4  3  1  0
  5  4  2  0
  6  5  1  0
  7  6  2  0
  7  8  1  0
  8  9  2  0
  9  4  1  0
 10 11  2  0
 13 12  1  6
 14 13  1  0
 14 10  1  0
 15 22  1  0
 15 13  1  0
 16 15  2  0
 18 17  1  0
 19 18  1  0
 19 20  1  1
 21 19  1  0
 21 22  1  6
 23 21  1  0
 23 24  1  0
 25 23  2  0
M  END
$$$$
