FAI.pdb
     RDKit          3D

 25 25  0  0  1  0  0  0  0  0999 V2000
    6.8078  -18.2111   19.6806 N   0  0  0  0  0  0  0  0  0  0  0  0
    7.3737  -16.9536   20.1929 C   0  0  1  0  0  0  0  0  0  0  0  0
    6.5551  -15.8080   19.7388 C   0  0  0  0  0  0  0  0  0  0  0  0
    7.0528  -14.4978   20.2147 C   0  0  0  0  0  0  0  0  0  0  0  0
    6.6280  -13.9385   21.4185 C   0  0  0  0  0  0  0  0  0  0  0  0
    7.0790  -12.7105   21.8602 C   0  0  0  0  0  0  0  0  0  0  0  0
    7.9847  -11.9744   21.1113 C   0  0  0  0  0  0  0  0  0  0  0  0
    8.4123  -12.5098   19.9259 C   0  0  0  0  0  0  0  0  0  0  0  0
    7.9493  -13.7547   19.4884 C   0  0  0  0  0  0  0  0  0  0  0  0
    7.6637  -17.0988   21.5976 C   0  0  0  0  0  0  0  0  0  0  0  0
    6.7204  -17.4375   22.3853 O   0  0  0  0  0  0  0  0  0  0  0  0
   10.2729  -18.1887   23.8417 C   0  0  0  0  0  0  0  0  0  0  0  0
    9.1373  -17.1909   23.6383 C   0  0  2  0  0  0  0  0  0  0  0  0
    8.9157  -16.9133   22.2603 N   0  0  0  0  0  0  0  0  0  0  0  0
    9.3954  -16.0739   24.5303 C   0  0  0  0  0  0  0  0  0  0  0  0
   10.4222  -15.3651   24.2352 O   0  0  0  0  0  0  0  0  0  0  0  0
    5.9876  -12.6320   27.4737 C   0  0  0  0  0  0  0  0  0  0  0  0
    6.8252  -13.7622   27.0037 C   0  0  0  0  0  0  0  0  0  0  0  0
    8.2349  -13.4804   26.6616 C   0  0  2  0  0  0  0  0  0  0  0  0
    8.3525  -12.4303   25.5865 C   0  0  0  0  0  0  0  0  0  0  0  0
    9.1434  -14.6310   26.6038 C   0  0  2  0  0  0  0  0  0  0  0  0
    8.6770  -15.6648   25.6696 N   0  0  0  0  0  0  0  0  0  0  0  0
    9.6328  -15.2207   27.8537 C   0  0  0  0  0  0  0  0  0  0  0  0
   10.3579  -14.4278   28.7935 O   0  0  0  0  0  0  0  0  0  0  0  0
    9.4987  -16.3985   28.2434 O   0  0  0  0  0  0  0  0  0  0  0  0
  2 10  1  0
  2  1  1  1
  3  2  1  0
  4  3  1  0
  5  4  2  0
  6  5  1  0
  7  6  2  0
  7  8  1  0
  8  9  2  0
  9  4  1  0
 10 11  2  0
 13 12  1  6
 14 13  1  0
 14 10  1  0
 15 22  1  0
 15 13  1  0
 16 15  2  0
 18 17  1  0
 19 18  1  0
 19 20  1  6
 21 19  1  0
 21 22  1  1
 23 21  1  0
 23 24  1  0
 25 23  2  0
M  END
$$$$
