FAI.pdb
     RDKit          3D

 25 25  0  0  1  0  0  0  0  0999 V2000
    6.7083  -18.0670   19.2979 N   0  0  0  0  0  0  0  0  0  0  0  0
    7.3722  -16.8712   19.8394 C   0  0  1  0  0  0  0  0  0  0  0  0
    6.6691  -15.6519   19.3839 C   0  0  0  0  0  0  0  0  0  0  0  0
    7.3216  -14.3951   19.8147 C   0  0  0  0  0  0  0  0  0  0  0  0
    8.2692  -13.7459   19.0253 C   0  0  0  0  0  0  0  0  0  0  0  0
    8.8905  -12.5807   19.4286 C   0  0  0  0  0  0  0  0  0  0  0  0
    8.5924  -12.0032   20.6536 C   0  0  0  0  0  0  0  0  0  0  0  0
    7.6633  -12.6284   21.4413 C   0  0  0  0  0  0  0  0  0  0  0  0
    7.0397  -13.8080   21.0227 C   0  0  0  0  0  0  0  0  0  0  0  0
    7.6166  -17.0583   21.2478 C   0  0  0  0  0  0  0  0  0  0  0  0
    6.6227  -17.2629   22.0194 O   0  0  0  0  0  0  0  0  0  0  0  0
   10.1206  -18.3054   23.6150 C   0  0  0  0  0  0  0  0  0  0  0  0
    9.0215  -17.2881   23.3257 C   0  0  2  0  0  0  0  0  0  0  0  0
    8.8716  -17.0517   21.9305 N   0  0  0  0  0  0  0  0  0  0  0  0
    9.2662  -16.1483   24.1923 C   0  0  0  0  0  0  0  0  0  0  0  0
   10.1341  -15.3096   23.7599 O   0  0  0  0  0  0  0  0  0  0  0  0
    5.7731  -13.4558   27.9724 C   0  0  0  0  0  0  0  0  0  0  0  0
    6.7326  -14.3854   27.3280 C   0  0  0  0  0  0  0  0  0  0  0  0
    7.7350  -13.8123   26.4060 C   0  0  2  0  0  0  0  0  0  0  0  0
    7.0892  -13.1495   25.2161 C   0  0  0  0  0  0  0  0  0  0  0  0
    8.9517  -14.6007   26.1799 C   0  0  2  0  0  0  0  0  0  0  0  0
    8.6845  -15.8395   25.4364 N   0  0  0  0  0  0  0  0  0  0  0  0
    9.8713  -14.8350   27.2975 C   0  0  0  0  0  0  0  0  0  0  0  0
   10.2804  -16.1608   27.6331 O   0  0  0  0  0  0  0  0  0  0  0  0
   10.3847  -13.9840   28.0520 O   0  0  0  0  0  0  0  0  0  0  0  0
  2 10  1  0
  2  1  1  1
  3  2  1  0
  4  3  1  0
  5  4  2  0
  6  5  1  0
  7  6  2  0
  7  8  1  0
  8  9  2  0
  9  4  1  0
 10 11  2  0
 13 12  1  6
 14 13  1  0
 14 10  1  0
 15 22  1  0
 15 13  1  0
 16 15  2  0
 18 17  1  0
 19 18  1  0
 19 20  1  6
 21 19  1  0
 21 22  1  1
 23 21  1  0
 23 24  1  0
 25 23  2  0
M  END
$$$$
