FAI.pdb
     RDKit          3D

 25 25  0  0  1  0  0  0  0  0999 V2000
    5.6789  -18.2557   24.1963 N   0  0  0  0  0  0  0  0  0  0  0  0
    6.3134  -16.9376   24.3504 C   0  0  1  0  0  0  0  0  0  0  0  0
    5.9355  -16.3428   25.6511 C   0  0  0  0  0  0  0  0  0  0  0  0
    6.3691  -14.9364   25.8085 C   0  0  0  0  0  0  0  0  0  0  0  0
    7.4367  -14.5795   26.6303 C   0  0  0  0  0  0  0  0  0  0  0  0
    7.8364  -13.2677   26.7910 C   0  0  0  0  0  0  0  0  0  0  0  0
    7.1804  -12.2388   26.1321 C   0  0  0  0  0  0  0  0  0  0  0  0
    6.1294  -12.5724   25.3206 C   0  0  0  0  0  0  0  0  0  0  0  0
    5.7334  -13.9045   25.1648 C   0  0  0  0  0  0  0  0  0  0  0  0
    7.7083  -17.0362   23.9999 C   0  0  0  0  0  0  0  0  0  0  0  0
    8.3781  -18.0321   24.4293 O   0  0  0  0  0  0  0  0  0  0  0  0
   10.4062  -15.2101   22.0188 C   0  0  0  0  0  0  0  0  0  0  0  0
    9.8857  -16.2439   23.0122 C   0  0  2  0  0  0  0  0  0  0  0  0
    8.4791  -16.1381   23.1996 N   0  0  0  0  0  0  0  0  0  0  0  0
   10.7415  -16.1682   24.1835 C   0  0  0  0  0  0  0  0  0  0  0  0
   11.9995  -16.2391   23.9464 O   0  0  0  0  0  0  0  0  0  0  0  0
    9.4773  -14.3015   29.6321 C   0  0  0  0  0  0  0  0  0  0  0  0
    9.8943  -15.2712   28.5900 C   0  0  0  0  0  0  0  0  0  0  0  0
   10.8963  -14.8293   27.5980 C   0  0  2  0  0  0  0  0  0  0  0  0
   10.6166  -13.4341   27.1007 C   0  0  0  0  0  0  0  0  0  0  0  0
   11.3487  -15.8302   26.6251 C   0  0  2  0  0  0  0  0  0  0  0  0
   10.3815  -16.0289   25.5371 N   0  0  0  0  0  0  0  0  0  0  0  0
   11.8817  -17.1080   27.1074 C   0  0  0  0  0  0  0  0  0  0  0  0
   11.2455  -18.3368   26.7567 O   0  0  0  0  0  0  0  0  0  0  0  0
   12.8812  -17.2911   27.8316 O   0  0  0  0  0  0  0  0  0  0  0  0
  2 10  1  0
  2  1  1  1
  3  2  1  0
  4  3  1  0
  5  4  2  0
  6  5  1  0
  7  6  2  0
  7  8  1  0
  8  9  2  0
  9  4  1  0
 10 11  2  0
 13 12  1  6
 14 13  1  0
 14 10  1  0
 15 22  1  0
 15 13  1  0
 16 15  2  0
 18 17  1  0
 19 18  1  0
 19 20  1  6
 21 19  1  0
 21 22  1  6
 23 21  1  0
 23 24  1  0
 25 23  2  0
M  END
$$$$
