FAI.pdb
     RDKit          3D

 25 25  0  0  1  0  0  0  0  0999 V2000
    6.3599  -19.4238   24.1784 N   0  0  0  0  0  0  0  0  0  0  0  0
    6.6111  -17.9880   24.3769 C   0  0  1  0  0  0  0  0  0  0  0  0
    6.1675  -17.5784   25.7274 C   0  0  0  0  0  0  0  0  0  0  0  0
    6.2492  -16.1191   25.9613 C   0  0  0  0  0  0  0  0  0  0  0  0
    5.5290  -15.2059   25.1933 C   0  0  0  0  0  0  0  0  0  0  0  0
    5.6122  -13.8431   25.3987 C   0  0  0  0  0  0  0  0  0  0  0  0
    6.4287  -13.3222   26.3912 C   0  0  0  0  0  0  0  0  0  0  0  0
    7.1429  -14.2059   27.1550 C   0  0  0  0  0  0  0  0  0  0  0  0
    7.0507  -15.5844   26.9386 C   0  0  0  0  0  0  0  0  0  0  0  0
    7.9527  -17.6756   23.9515 C   0  0  0  0  0  0  0  0  0  0  0  0
    8.9115  -18.4070   24.3648 O   0  0  0  0  0  0  0  0  0  0  0  0
    9.8797  -15.1031   21.8991 C   0  0  0  0  0  0  0  0  0  0  0  0
    9.7386  -16.3395   22.7813 C   0  0  2  0  0  0  0  0  0  0  0  0
    8.3778  -16.6182   23.0899 N   0  0  0  0  0  0  0  0  0  0  0  0
   10.6727  -16.1781   23.8821 C   0  0  0  0  0  0  0  0  0  0  0  0
   11.8966  -16.0092   23.5397 O   0  0  0  0  0  0  0  0  0  0  0  0
   10.3243  -14.2676   29.5466 C   0  0  0  0  0  0  0  0  0  0  0  0
   10.3819  -15.2574   28.4435 C   0  0  0  0  0  0  0  0  0  0  0  0
   11.1014  -14.8753   27.2108 C   0  0  2  0  0  0  0  0  0  0  0  0
   10.5698  -13.5920   26.6253 C   0  0  0  0  0  0  0  0  0  0  0  0
   11.4532  -15.9604   26.2878 C   0  0  2  0  0  0  0  0  0  0  0  0
   10.4202  -16.1824   25.2669 N   0  0  0  0  0  0  0  0  0  0  0  0
   11.9513  -17.2283   26.8299 C   0  0  0  0  0  0  0  0  0  0  0  0
   11.2870  -18.4555   26.5288 O   0  0  0  0  0  0  0  0  0  0  0  0
   12.9413  -17.4037   27.5688 O   0  0  0  0  0  0  0  0  0  0  0  0
  2 10  1  0
  2  1  1  1
  3  2  1  0
  4  3  1  0
  5  4  2  0
  6  5  1  0
  7  6  2  0
  7  8  1  0
  8  9  2  0
  9  4  1  0
 10 11  2  0
 13 12  1  1
 14 13  1  0
 14 10  1  0
 15 22  1  0
 15 13  1  0
 16 15  2  0
 18 17  1  0
 19 18  1  0
 19 20  1  6
 21 19  1  0
 21 22  1  1
 23 21  1  0
 23 24  1  0
 25 23  2  0
M  END
$$$$
