FAI.pdb
     RDKit          3D

 25 25  0  0  1  0  0  0  0  0999 V2000
    5.9889  -18.0613   24.0457 N   0  0  0  0  0  0  0  0  0  0  0  0
    6.4108  -16.6609   24.2030 C   0  0  1  0  0  0  0  0  0  0  0  0
    6.2583  -16.2416   25.6135 C   0  0  0  0  0  0  0  0  0  0  0  0
    6.5243  -14.8028   25.8366 C   0  0  0  0  0  0  0  0  0  0  0  0
    5.7473  -13.8072   25.2471 C   0  0  0  0  0  0  0  0  0  0  0  0
    5.9997  -12.4637   25.4413 C   0  0  0  0  0  0  0  0  0  0  0  0
    7.0526  -12.0465   26.2414 C   0  0  0  0  0  0  0  0  0  0  0  0
    7.8258  -13.0120   26.8283 C   0  0  0  0  0  0  0  0  0  0  0  0
    7.5608  -14.3700   26.6252 C   0  0  0  0  0  0  0  0  0  0  0  0
    7.6787  -16.4682   23.5444 C   0  0  0  0  0  0  0  0  0  0  0  0
    7.8508  -15.4172   22.8439 O   0  0  0  0  0  0  0  0  0  0  0  0
   10.2207  -15.6463   22.4770 C   0  0  0  0  0  0  0  0  0  0  0  0
   10.1586  -16.8760   23.3774 C   0  0  2  0  0  0  0  0  0  0  0  0
    8.8221  -17.3244   23.5712 N   0  0  0  0  0  0  0  0  0  0  0  0
   10.9590  -16.5766   24.5520 C   0  0  0  0  0  0  0  0  0  0  0  0
   12.1443  -16.1511   24.3114 O   0  0  0  0  0  0  0  0  0  0  0  0
    9.8461  -13.9207   29.4799 C   0  0  0  0  0  0  0  0  0  0  0  0
   10.1133  -15.1510   28.6958 C   0  0  0  0  0  0  0  0  0  0  0  0
   11.1796  -15.0999   27.6741 C   0  0  2  0  0  0  0  0  0  0  0  0
   11.0791  -13.8625   26.8191 C   0  0  0  0  0  0  0  0  0  0  0  0
   11.5265  -16.3653   27.0173 C   0  0  2  0  0  0  0  0  0  0  0  0
   10.6143  -16.6896   25.9121 N   0  0  0  0  0  0  0  0  0  0  0  0
   11.8108  -17.5449   27.8403 C   0  0  0  0  0  0  0  0  0  0  0  0
   11.1745  -18.7923   27.5626 O   0  0  0  0  0  0  0  0  0  0  0  0
   12.5823  -17.6230   28.8178 O   0  0  0  0  0  0  0  0  0  0  0  0
  2 10  1  0
  2  1  1  1
  3  2  1  0
  4  3  1  0
  5  4  2  0
  6  5  1  0
  7  6  2  0
  7  8  1  0
  8  9  2  0
  9  4  1  0
 10 11  2  0
 13 12  1  6
 14 13  1  0
 14 10  1  0
 15 22  1  0
 15 13  1  0
 16 15  2  0
 18 17  1  0
 19 18  1  0
 19 20  1  6
 21 19  1  0
 21 22  1  6
 23 21  1  0
 23 24  1  0
 25 23  2  0
M  END
$$$$
