FAI.pdb
     RDKit          3D

 25 25  0  0  1  0  0  0  0  0999 V2000
    6.7784  -17.9535   19.6752 N   0  0  0  0  0  0  0  0  0  0  0  0
    7.4398  -16.7754   20.2572 C   0  0  1  0  0  0  0  0  0  0  0  0
    6.4799  -15.6543   20.3581 C   0  0  0  0  0  0  0  0  0  0  0  0
    7.0315  -14.4606   21.0375 C   0  0  0  0  0  0  0  0  0  0  0  0
    6.7992  -14.2050   22.3877 C   0  0  0  0  0  0  0  0  0  0  0  0
    7.3002  -13.0860   23.0226 C   0  0  0  0  0  0  0  0  0  0  0  0
    8.0644  -12.1583   22.3308 C   0  0  0  0  0  0  0  0  0  0  0  0
    8.3022  -12.3946   21.0034 C   0  0  0  0  0  0  0  0  0  0  0  0
    7.7902  -13.5316   20.3705 C   0  0  0  0  0  0  0  0  0  0  0  0
    8.1816  -17.1747   21.4271 C   0  0  0  0  0  0  0  0  0  0  0  0
    7.5505  -17.7018   22.4013 O   0  0  0  0  0  0  0  0  0  0  0  0
   11.6154  -18.0506   22.5951 C   0  0  0  0  0  0  0  0  0  0  0  0
   10.2326  -17.4638   22.8602 C   0  0  2  0  0  0  0  0  0  0  0  0
    9.5872  -17.0628   21.6571 N   0  0  0  0  0  0  0  0  0  0  0  0
   10.3904  -16.4783   23.9156 C   0  0  0  0  0  0  0  0  0  0  0  0
   11.1930  -15.5150   23.6480 O   0  0  0  0  0  0  0  0  0  0  0  0
    8.3696  -12.2648   27.4974 C   0  0  0  0  0  0  0  0  0  0  0  0
    9.3652  -13.3564   27.3672 C   0  0  0  0  0  0  0  0  0  0  0  0
    9.1300  -14.3847   26.3324 C   0  0  2  0  0  0  0  0  0  0  0  0
    7.6744  -14.7648   26.2393 C   0  0  0  0  0  0  0  0  0  0  0  0
   10.1299  -15.4530   26.2233 C   0  0  2  0  0  0  0  0  0  0  0  0
    9.7866  -16.4358   25.1864 N   0  0  0  0  0  0  0  0  0  0  0  0
   10.6139  -16.1081   27.4424 C   0  0  0  0  0  0  0  0  0  0  0  0
   11.4724  -15.4126   28.3463 O   0  0  0  0  0  0  0  0  0  0  0  0
   10.3677  -17.2674   27.8326 O   0  0  0  0  0  0  0  0  0  0  0  0
  2 10  1  0
  2  1  1  1
  3  2  1  0
  4  3  1  0
  5  4  2  0
  6  5  1  0
  7  6  2  0
  7  8  1  0
  8  9  2  0
  9  4  1  0
 10 11  2  0
 13 12  1  6
 14 13  1  0
 14 10  1  0
 15 22  1  0
 15 13  1  0
 16 15  2  0
 18 17  1  0
 19 18  1  0
 19 20  1  1
 21 19  1  0
 21 22  1  6
 23 21  1  0
 23 24  1  0
 25 23  2  0
M  END
$$$$
