FAI.pdb
     RDKit          3D

 25 25  0  0  1  0  0  0  0  0999 V2000
    9.3883  -15.4460   22.3042 N   0  0  0  0  0  0  0  0  0  0  0  0
    8.9216  -14.6456   23.4468 C   0  0  1  0  0  0  0  0  0  0  0  0
    7.4436  -14.5823   23.4504 C   0  0  0  0  0  0  0  0  0  0  0  0
    6.8903  -13.6990   24.5014 C   0  0  0  0  0  0  0  0  0  0  0  0
    6.2939  -14.2060   25.6546 C   0  0  0  0  0  0  0  0  0  0  0  0
    5.7643  -13.3864   26.6314 C   0  0  0  0  0  0  0  0  0  0  0  0
    5.8047  -12.0065   26.5006 C   0  0  0  0  0  0  0  0  0  0  0  0
    6.3875  -11.4921   25.3735 C   0  0  0  0  0  0  0  0  0  0  0  0
    6.9212  -12.3315   24.3906 C   0  0  0  0  0  0  0  0  0  0  0  0
    9.6110  -15.0701   24.6396 C   0  0  0  0  0  0  0  0  0  0  0  0
   10.0885  -16.2513   24.6826 O   0  0  0  0  0  0  0  0  0  0  0  0
   10.3888  -13.9289   28.1820 C   0  0  0  0  0  0  0  0  0  0  0  0
   10.5755  -14.8112   26.9519 C   0  0  2  0  0  0  0  0  0  0  0  0
    9.8499  -14.3190   25.8311 N   0  0  0  0  0  0  0  0  0  0  0  0
   10.3365  -16.1795   27.3769 C   0  0  0  0  0  0  0  0  0  0  0  0
    9.1031  -16.5013   27.5141 O   0  0  0  0  0  0  0  0  0  0  0  0
   13.5148  -20.8918   26.7178 C   0  0  0  0  0  0  0  0  0  0  0  0
   12.8475  -19.5675   26.7474 C   0  0  0  0  0  0  0  0  0  0  0  0
   11.3881  -19.5354   26.9764 C   0  0  2  0  0  0  0  0  0  0  0  0
   10.6147  -19.6725   25.6898 C   0  0  0  0  0  0  0  0  0  0  0  0
   10.8973  -18.5815   27.9775 C   0  0  2  0  0  0  0  0  0  0  0  0
   11.2685  -17.1961   27.6583 N   0  0  0  0  0  0  0  0  0  0  0  0
   11.0922  -18.8734   29.4010 C   0  0  0  0  0  0  0  0  0  0  0  0
   11.7185  -17.9181   30.2571 O   0  0  0  0  0  0  0  0  0  0  0  0
   10.7679  -19.9089   30.0170 O   0  0  0  0  0  0  0  0  0  0  0  0
  2 10  1  0
  2  1  1  6
  3  2  1  0
  4  3  1  0
  5  4  2  0
  6  5  1  0
  7  6  2  0
  7  8  1  0
  8  9  2  0
  9  4  1  0
 10 11  2  0
 13 12  1  1
 14 13  1  0
 14 10  1  0
 15 22  1  0
 15 13  1  0
 16 15  2  0
 18 17  1  0
 19 18  1  0
 19 20  1  6
 21 19  1  0
 21 22  1  6
 23 21  1  0
 23 24  1  0
 25 23  2  0
M  END
$$$$
