FAI.pdb
     RDKit          3D

 25 25  0  0  1  0  0  0  0  0999 V2000
    5.7479  -18.1182   20.1820 N   0  0  0  0  0  0  0  0  0  0  0  0
    6.4829  -16.9852   20.7651 C   0  0  1  0  0  0  0  0  0  0  0  0
    5.8551  -15.7099   20.3553 C   0  0  0  0  0  0  0  0  0  0  0  0
    6.7786  -14.5539   20.3971 C   0  0  0  0  0  0  0  0  0  0  0  0
    6.9042  -13.7485   21.5276 C   0  0  0  0  0  0  0  0  0  0  0  0
    7.7541  -12.6611   21.5669 C   0  0  0  0  0  0  0  0  0  0  0  0
    8.5265  -12.3223   20.4661 C   0  0  0  0  0  0  0  0  0  0  0  0
    8.4151  -13.1035   19.3473 C   0  0  0  0  0  0  0  0  0  0  0  0
    7.5514  -14.2029   19.3187 C   0  0  0  0  0  0  0  0  0  0  0  0
    6.7150  -17.2377   22.1654 C   0  0  0  0  0  0  0  0  0  0  0  0
    5.7197  -17.2294   22.9618 O   0  0  0  0  0  0  0  0  0  0  0  0
    8.8602  -18.8796   24.6276 C   0  0  0  0  0  0  0  0  0  0  0  0
    8.1154  -17.6107   24.2255 C   0  0  2  0  0  0  0  0  0  0  0  0
    7.9575  -17.5131   22.8146 N   0  0  0  0  0  0  0  0  0  0  0  0
    8.7571  -16.5092   24.9219 C   0  0  0  0  0  0  0  0  0  0  0  0
    9.8407  -16.0815   24.3865 O   0  0  0  0  0  0  0  0  0  0  0  0
    6.3093  -12.1971   26.1026 C   0  0  0  0  0  0  0  0  0  0  0  0
    7.2559  -13.3149   25.8694 C   0  0  0  0  0  0  0  0  0  0  0  0
    8.3227  -13.5351   26.8680 C   0  0  2  0  0  0  0  0  0  0  0  0
    9.0479  -12.2575   27.2057 C   0  0  0  0  0  0  0  0  0  0  0  0
    9.1157  -14.7616   26.7280 C   0  0  2  0  0  0  0  0  0  0  0  0
    8.3550  -15.8499   26.0988 N   0  0  0  0  0  0  0  0  0  0  0  0
    9.8950  -15.2451   27.8719 C   0  0  0  0  0  0  0  0  0  0  0  0
    9.6272  -16.5265   28.4412 O   0  0  0  0  0  0  0  0  0  0  0  0
   10.8240  -14.6578   28.4627 O   0  0  0  0  0  0  0  0  0  0  0  0
  2 10  1  0
  2  1  1  1
  3  2  1  0
  4  3  1  0
  5  4  2  0
  6  5  1  0
  7  6  2  0
  7  8  1  0
  8  9  2  0
  9  4  1  0
 10 11  2  0
 13 12  1  6
 14 13  1  0
 14 10  1  0
 15 22  1  0
 15 13  1  0
 16 15  2  0
 18 17  1  0
 19 18  1  0
 19 20  1  6
 21 19  1  0
 21 22  1  1
 23 21  1  0
 23 24  1  0
 25 23  2  0
M  END
$$$$
