FAI.pdb
     RDKit          3D

 25 25  0  0  1  0  0  0  0  0999 V2000
    7.6185  -17.7297   20.5196 N   0  0  0  0  0  0  0  0  0  0  0  0
    8.0457  -16.7001   21.4795 C   0  0  1  0  0  0  0  0  0  0  0  0
    6.9969  -15.6653   21.6122 C   0  0  0  0  0  0  0  0  0  0  0  0
    7.2881  -14.4255   20.8579 C   0  0  0  0  0  0  0  0  0  0  0  0
    6.7545  -14.1874   19.5926 C   0  0  0  0  0  0  0  0  0  0  0  0
    7.0340  -13.0386   18.8794 C   0  0  0  0  0  0  0  0  0  0  0  0
    7.8699  -12.0632   19.4016 C   0  0  0  0  0  0  0  0  0  0  0  0
    8.4023  -12.2816   20.6440 C   0  0  0  0  0  0  0  0  0  0  0  0
    8.1122  -13.4485   21.3578 C   0  0  0  0  0  0  0  0  0  0  0  0
    8.5593  -17.3382   22.6659 C   0  0  0  0  0  0  0  0  0  0  0  0
    8.4994  -18.6086   22.7520 O   0  0  0  0  0  0  0  0  0  0  0  0
   11.4622  -17.4380   23.4310 C   0  0  0  0  0  0  0  0  0  0  0  0
   10.3434  -17.1900   24.4376 C   0  0  2  0  0  0  0  0  0  0  0  0
    9.1571  -16.7208   23.8072 N   0  0  0  0  0  0  0  0  0  0  0  0
   10.9127  -16.3916   25.5093 C   0  0  0  0  0  0  0  0  0  0  0  0
   11.9580  -16.8861   26.0630 O   0  0  0  0  0  0  0  0  0  0  0  0
    7.2135  -12.6097   26.6510 C   0  0  0  0  0  0  0  0  0  0  0  0
    8.3912  -13.4887   26.4500 C   0  0  0  0  0  0  0  0  0  0  0  0
    9.1569  -13.9001   27.6449 C   0  0  2  0  0  0  0  0  0  0  0  0
    9.4649  -12.7304   28.5445 C   0  0  0  0  0  0  0  0  0  0  0  0
   10.2026  -14.9096   27.4443 C   0  0  2  0  0  0  0  0  0  0  0  0
   10.4763  -15.1553   26.0217 N   0  0  0  0  0  0  0  0  0  0  0  0
   10.1427  -16.1633   28.2021 C   0  0  0  0  0  0  0  0  0  0  0  0
   10.9406  -16.3410   29.3724 O   0  0  0  0  0  0  0  0  0  0  0  0
    9.4469  -17.1692   27.9555 O   0  0  0  0  0  0  0  0  0  0  0  0
  2 10  1  0
  2  1  1  6
  3  2  1  0
  4  3  1  0
  5  4  2  0
  6  5  1  0
  7  6  2  0
  7  8  1  0
  8  9  2  0
  9  4  1  0
 10 11  2  0
 13 12  1  6
 14 13  1  0
 14 10  1  0
 15 22  1  0
 15 13  1  0
 16 15  2  0
 18 17  1  0
 19 18  1  0
 19 20  1  6
 21 19  1  0
 21 22  1  6
 23 21  1  0
 23 24  1  0
 25 23  2  0
M  END
$$$$
