FAI.pdb
     RDKit          3D

 25 25  0  0  1  0  0  0  0  0999 V2000
    5.9252  -17.8397   20.6338 N   0  0  0  0  0  0  0  0  0  0  0  0
    6.8075  -16.7785   21.1432 C   0  0  1  0  0  0  0  0  0  0  0  0
    6.1688  -15.4570   20.9583 C   0  0  0  0  0  0  0  0  0  0  0  0
    7.0932  -14.4169   20.4538 C   0  0  0  0  0  0  0  0  0  0  0  0
    8.2227  -14.7337   19.7013 C   0  0  0  0  0  0  0  0  0  0  0  0
    9.0953  -13.7682   19.2399 C   0  0  0  0  0  0  0  0  0  0  0  0
    8.8791  -12.4258   19.5124 C   0  0  0  0  0  0  0  0  0  0  0  0
    7.7737  -12.0975   20.2504 C   0  0  0  0  0  0  0  0  0  0  0  0
    6.8962  -13.0835   20.7123 C   0  0  0  0  0  0  0  0  0  0  0  0
    7.2939  -17.1489   22.4488 C   0  0  0  0  0  0  0  0  0  0  0  0
    6.4689  -17.1918   23.4196 O   0  0  0  0  0  0  0  0  0  0  0  0
   10.1596  -18.7493   24.2561 C   0  0  0  0  0  0  0  0  0  0  0  0
    9.0495  -17.7070   24.1665 C   0  0  2  0  0  0  0  0  0  0  0  0
    8.6283  -17.4949   22.8239 N   0  0  0  0  0  0  0  0  0  0  0  0
    9.4905  -16.5572   24.9370 C   0  0  0  0  0  0  0  0  0  0  0  0
   10.3865  -15.8334   24.3741 O   0  0  0  0  0  0  0  0  0  0  0  0
    6.7754  -12.6046   26.1177 C   0  0  0  0  0  0  0  0  0  0  0  0
    7.9589  -13.4748   25.9124 C   0  0  0  0  0  0  0  0  0  0  0  0
    8.7270  -13.8872   27.1055 C   0  0  2  0  0  0  0  0  0  0  0  0
    9.1720  -12.7021   27.9240 C   0  0  0  0  0  0  0  0  0  0  0  0
    9.6692  -14.9986   26.9328 C   0  0  2  0  0  0  0  0  0  0  0  0
    9.0718  -16.1306   26.2114 N   0  0  0  0  0  0  0  0  0  0  0  0
   10.4591  -15.4528   28.0815 C   0  0  0  0  0  0  0  0  0  0  0  0
   11.5720  -14.6874   28.5434 O   0  0  0  0  0  0  0  0  0  0  0  0
   10.2887  -16.4845   28.7623 O   0  0  0  0  0  0  0  0  0  0  0  0
  2 10  1  0
  2  1  1  1
  3  2  1  0
  4  3  1  0
  5  4  2  0
  6  5  1  0
  7  6  2  0
  7  8  1  0
  8  9  2  0
  9  4  1  0
 10 11  2  0
 13 12  1  6
 14 13  1  0
 14 10  1  0
 15 22  1  0
 15 13  1  0
 16 15  2  0
 18 17  1  0
 19 18  1  0
 19 20  1  6
 21 19  1  0
 21 22  1  1
 23 21  1  0
 23 24  1  0
 25 23  2  0
M  END
$$$$
