FAI.pdb
     RDKit          3D

 25 25  0  0  1  0  0  0  0  0999 V2000
    5.8020  -18.3593   23.6664 N   0  0  0  0  0  0  0  0  0  0  0  0
    6.4336  -17.0417   23.8363 C   0  0  1  0  0  0  0  0  0  0  0  0
    5.8006  -16.3182   24.9608 C   0  0  0  0  0  0  0  0  0  0  0  0
    6.2230  -14.9037   25.0687 C   0  0  0  0  0  0  0  0  0  0  0  0
    6.0912  -14.1812   26.2532 C   0  0  0  0  0  0  0  0  0  0  0  0
    6.4712  -12.8577   26.3551 C   0  0  0  0  0  0  0  0  0  0  0  0
    7.0054  -12.1855   25.2662 C   0  0  0  0  0  0  0  0  0  0  0  0
    7.1417  -12.8810   24.0948 C   0  0  0  0  0  0  0  0  0  0  0  0
    6.7541  -14.2214   24.0029 C   0  0  0  0  0  0  0  0  0  0  0  0
    7.8670  -17.1938   23.8149 C   0  0  0  0  0  0  0  0  0  0  0  0
    8.3968  -18.1016   24.5361 O   0  0  0  0  0  0  0  0  0  0  0  0
   10.9818  -15.6820   22.2145 C   0  0  0  0  0  0  0  0  0  0  0  0
   10.2276  -16.6308   23.1406 C   0  0  2  0  0  0  0  0  0  0  0  0
    8.8196  -16.4407   23.0621 N   0  0  0  0  0  0  0  0  0  0  0  0
   10.8612  -16.5361   24.4443 C   0  0  0  0  0  0  0  0  0  0  0  0
   12.1192  -16.7826   24.4596 O   0  0  0  0  0  0  0  0  0  0  0  0
    9.0966  -13.8917   29.4461 C   0  0  0  0  0  0  0  0  0  0  0  0
    9.4498  -15.0220   28.5530 C   0  0  0  0  0  0  0  0  0  0  0  0
   10.6458  -14.8772   27.6973 C   0  0  2  0  0  0  0  0  0  0  0  0
   10.6845  -13.5370   27.0086 C   0  0  0  0  0  0  0  0  0  0  0  0
   11.0560  -16.0587   26.9300 C   0  0  2  0  0  0  0  0  0  0  0  0
   10.2864  -16.2131   25.6880 N   0  0  0  0  0  0  0  0  0  0  0  0
   11.2184  -17.3411   27.6219 C   0  0  0  0  0  0  0  0  0  0  0  0
   12.1812  -17.4838   28.6661 O   0  0  0  0  0  0  0  0  0  0  0  0
   10.5938  -18.4014   27.4161 O   0  0  0  0  0  0  0  0  0  0  0  0
  2 10  1  0
  2  1  1  1
  3  2  1  0
  4  3  1  0
  5  4  2  0
  6  5  1  0
  7  6  2  0
  7  8  1  0
  8  9  2  0
  9  4  1  0
 10 11  2  0
 13 12  1  6
 14 13  1  0
 14 10  1  0
 15 22  1  0
 15 13  1  0
 16 15  2  0
 18 17  1  0
 19 18  1  0
 19 20  1  6
 21 19  1  0
 21 22  1  6
 23 21  1  0
 23 24  1  0
 25 23  2  0
M  END
$$$$
