EHG.pdb
     RDKit          3D

 24 24  0  0  1  0  0  0  0  0999 V2000
   17.9328  -10.0244  -15.5715 N   0  0  0  0  0  0  0  0  0  0  0  0
   18.5340   -8.8451  -16.0830 C   0  0  1  0  0  0  0  0  0  0  0  0
   17.5264   -7.7864  -16.3568 C   0  0  0  0  0  0  0  0  0  0  0  0
   16.5134   -8.1226  -17.4181 C   0  0  0  0  0  0  0  0  0  0  0  0
   15.6081   -6.9929  -17.7264 C   0  0  0  0  0  0  0  0  0  0  0  0
   14.4622   -6.8685  -17.1781 O   0  0  0  0  0  0  0  0  0  0  0  0
   19.6123   -8.3077  -15.2115 C   0  0  0  0  0  0  0  0  0  0  0  0
   19.4128   -8.4044  -13.9577 O   0  0  0  0  0  0  0  0  0  0  0  0
   15.9327   -5.9886  -18.6286 O   0  0  0  0  0  0  0  0  0  0  0  0
   20.7928   -7.7222  -15.6914 N   0  0  0  0  0  0  0  0  0  0  0  0
   21.8558   -7.3340  -14.7303 C   0  0  1  0  0  0  0  0  0  0  0  0
   23.1386   -8.0154  -15.1523 C   0  0  0  0  0  0  0  0  0  0  0  0
   23.1566   -9.4698  -15.0181 C   0  0  0  0  0  0  0  0  0  0  0  0
   22.2182  -10.3400  -14.4792 C   0  0  0  0  0  0  0  0  0  0  0  0
   22.7172  -11.5645  -14.5616 N   0  0  0  0  0  0  0  0  0  0  0  0
   23.9275  -11.5184  -15.1265 C   0  0  0  0  0  0  0  0  0  0  0  0
   24.1882  -10.2482  -15.4007 N   0  0  0  0  0  0  0  0  0  0  0  0
   21.9422   -5.8702  -14.7121 C   0  0  0  0  0  0  0  0  0  0  0  0
   22.8052   -5.3143  -13.9740 O   0  0  0  0  0  0  0  0  0  0  0  0
   21.1297   -4.9871  -15.4680 N   0  0  0  0  0  0  0  0  0  0  0  0
   21.3427   -3.5556  -15.4458 C   0  0  0  0  0  0  0  0  0  0  0  0
   20.3156   -2.8517  -14.6461 C   0  0  0  0  0  0  0  0  0  0  0  0
   20.2539   -1.4776  -14.5324 O   0  0  0  0  0  0  0  0  0  0  0  0
   19.4540   -3.5252  -14.0376 O   0  0  0  0  0  0  0  0  0  0  0  0
  2  1  1  1
  3  2  1  0
  4  5  1  0
  4  3  1  0
  5  9  1  0
  6  5  2  0
  7  2  1  0
  7 10  1  0
  8  7  2  0
 11 10  1  0
 11 18  1  0
 12 13  1  0
 11 12  1  6
 13 14  2  0
 14 15  1  0
 16 15  1  0
 17 13  1  0
 17 16  2  0
 18 20  1  0
 18 19  2  0
 20 21  1  0
 22 21  1  0
 22 23  1  0
 24 22  2  0
M  END
$$$$
