EHG.pdb
     RDKit          3D

 24 24  0  0  1  0  0  0  0  0999 V2000
   16.5099  -18.4400    3.1407 N   0  0  0  0  0  0  0  0  0  0  0  0
   16.7582  -18.5756    4.5314 C   0  0  1  0  0  0  0  0  0  0  0  0
   17.0772  -19.9803    4.9002 C   0  0  0  0  0  0  0  0  0  0  0  0
   16.0085  -20.6983    5.6801 C   0  0  0  0  0  0  0  0  0  0  0  0
   15.5879  -21.9670    5.0442 C   0  0  0  0  0  0  0  0  0  0  0  0
   16.3455  -22.9935    5.0044 O   0  0  0  0  0  0  0  0  0  0  0  0
   17.8216  -17.6645    5.0316 C   0  0  0  0  0  0  0  0  0  0  0  0
   18.8199  -17.4990    4.2588 O   0  0  0  0  0  0  0  0  0  0  0  0
   14.3464  -22.1376    4.4463 O   0  0  0  0  0  0  0  0  0  0  0  0
   17.7746  -17.0056    6.2687 N   0  0  0  0  0  0  0  0  0  0  0  0
   18.8796  -16.0894    6.6479 C   0  0  1  0  0  0  0  0  0  0  0  0
   18.3339  -14.6787    6.6586 C   0  0  0  0  0  0  0  0  0  0  0  0
   19.3130  -13.6230    6.9039 C   0  0  0  0  0  0  0  0  0  0  0  0
   20.6888  -13.6889    7.0812 C   0  0  0  0  0  0  0  0  0  0  0  0
   21.1205  -12.4568    7.3071 N   0  0  0  0  0  0  0  0  0  0  0  0
   20.0882  -11.6084    7.2827 C   0  0  0  0  0  0  0  0  0  0  0  0
   18.9969  -12.3197    7.0383 N   0  0  0  0  0  0  0  0  0  0  0  0
   19.4118  -16.5274    7.9423 C   0  0  0  0  0  0  0  0  0  0  0  0
   18.6529  -17.1478    8.7409 O   0  0  0  0  0  0  0  0  0  0  0  0
   20.7378  -16.3208    8.4008 N   0  0  0  0  0  0  0  0  0  0  0  0
   21.1906  -16.8465    9.6711 C   0  0  0  0  0  0  0  0  0  0  0  0
   22.6166  -16.5419    9.9237 C   0  0  0  0  0  0  0  0  0  0  0  0
   23.2603  -16.8528   11.1043 O   0  0  0  0  0  0  0  0  0  0  0  0
   23.2831  -15.9741    9.0295 O   0  0  0  0  0  0  0  0  0  0  0  0
  2  1  1  6
  3  2  1  0
  4  5  1  0
  4  3  1  0
  5  9  1  0
  6  5  2  0
  7  2  1  0
  7 10  1  0
  8  7  2  0
 11 10  1  0
 11 18  1  0
 12 13  1  0
 11 12  1  1
 13 14  2  0
 14 15  1  0
 16 15  1  0
 17 13  1  0
 17 16  2  0
 18 20  1  0
 18 19  2  0
 20 21  1  0
 22 21  1  0
 22 23  1  0
 24 22  2  0
M  END
$$$$
