EHG.pdb
     RDKit          3D

 24 24  0  0  1  0  0  0  0  0999 V2000
   25.4969  -20.6322  -17.1670 N   0  0  0  0  0  0  0  0  0  0  0  0
   25.3555  -21.0579  -15.8206 C   0  0  1  0  0  0  0  0  0  0  0  0
   26.6531  -21.0327  -15.0950 C   0  0  0  0  0  0  0  0  0  0  0  0
   27.6870  -22.0066  -15.5934 C   0  0  0  0  0  0  0  0  0  0  0  0
   28.6742  -21.3813  -16.5018 C   0  0  0  0  0  0  0  0  0  0  0  0
   28.6507  -20.1360  -16.7809 O   0  0  0  0  0  0  0  0  0  0  0  0
   24.3342  -20.2871  -15.0630 C   0  0  0  0  0  0  0  0  0  0  0  0
   24.6161  -19.0666  -14.8348 O   0  0  0  0  0  0  0  0  0  0  0  0
   29.6945  -22.0952  -17.1160 O   0  0  0  0  0  0  0  0  0  0  0  0
   23.1218  -20.8247  -14.6070 N   0  0  0  0  0  0  0  0  0  0  0  0
   22.1471  -19.9415  -13.9185 C   0  0  1  0  0  0  0  0  0  0  0  0
   21.7552  -18.8402  -14.8785 C   0  0  0  0  0  0  0  0  0  0  0  0
   20.7796  -17.8776  -14.3736 C   0  0  0  0  0  0  0  0  0  0  0  0
   20.1376  -17.8007  -13.1446 C   0  0  0  0  0  0  0  0  0  0  0  0
   19.3174  -16.7611  -13.1883 N   0  0  0  0  0  0  0  0  0  0  0  0
   19.4046  -16.1712  -14.3843 C   0  0  0  0  0  0  0  0  0  0  0  0
   20.2910  -16.8511  -15.0974 N   0  0  0  0  0  0  0  0  0  0  0  0
   21.0196  -20.7663  -13.4726 C   0  0  0  0  0  0  0  0  0  0  0  0
   20.4718  -21.5551  -14.2950 O   0  0  0  0  0  0  0  0  0  0  0  0
   20.4667  -20.7700  -12.1666 N   0  0  0  0  0  0  0  0  0  0  0  0
   19.3200  -21.5872  -11.8318 C   0  0  0  0  0  0  0  0  0  0  0  0
   18.0421  -20.8881  -12.0929 C   0  0  0  0  0  0  0  0  0  0  0  0
   16.8796  -21.5416  -12.4484 O   0  0  0  0  0  0  0  0  0  0  0  0
   18.0007  -19.6416  -11.9896 O   0  0  0  0  0  0  0  0  0  0  0  0
  2  1  1  6
  3  2  1  0
  4  5  1  0
  4  3  1  0
  5  9  1  0
  6  5  2  0
  7  2  1  0
  7 10  1  0
  8  7  2  0
 11 10  1  0
 11 18  1  0
 12 13  1  0
 11 12  1  6
 13 14  2  0
 14 15  1  0
 16 15  1  0
 17 13  1  0
 17 16  2  0
 18 20  1  0
 18 19  2  0
 20 21  1  0
 22 21  1  0
 22 23  1  0
 24 22  2  0
M  END
$$$$
