EHG.pdb
     RDKit          3D

 24 24  0  0  1  0  0  0  0  0999 V2000
   26.0460  -34.0493  -10.2168 N   0  0  0  0  0  0  0  0  0  0  0  0
   25.4610  -34.7290   -9.1169 C   0  0  1  0  0  0  0  0  0  0  0  0
   26.3543  -35.7935   -8.5881 C   0  0  0  0  0  0  0  0  0  0  0  0
   26.5154  -36.9974   -9.4771 C   0  0  0  0  0  0  0  0  0  0  0  0
   25.4625  -38.0152   -9.2621 C   0  0  0  0  0  0  0  0  0  0  0  0
   24.5646  -37.8877   -8.3638 O   0  0  0  0  0  0  0  0  0  0  0  0
   25.0459  -33.8199   -8.0158 C   0  0  0  0  0  0  0  0  0  0  0  0
   25.8904  -32.9263   -7.6853 O   0  0  0  0  0  0  0  0  0  0  0  0
   25.3703  -39.1782  -10.0149 O   0  0  0  0  0  0  0  0  0  0  0  0
   23.8133  -33.9009   -7.3517 N   0  0  0  0  0  0  0  0  0  0  0  0
   23.4801  -32.8965   -6.3104 C   0  0  1  0  0  0  0  0  0  0  0  0
   22.2701  -32.1200   -6.7807 C   0  0  0  0  0  0  0  0  0  0  0  0
   22.4813  -31.2619   -7.9436 C   0  0  0  0  0  0  0  0  0  0  0  0
   22.4185  -31.5470   -9.3012 C   0  0  0  0  0  0  0  0  0  0  0  0
   22.7236  -30.4362   -9.9558 N   0  0  0  0  0  0  0  0  0  0  0  0
   22.9778  -29.4568   -9.0828 C   0  0  0  0  0  0  0  0  0  0  0  0
   22.8295  -29.9622   -7.8666 N   0  0  0  0  0  0  0  0  0  0  0  0
   23.2724  -33.6045   -5.0432 C   0  0  0  0  0  0  0  0  0  0  0  0
   22.6476  -34.7037   -5.0482 O   0  0  0  0  0  0  0  0  0  0  0  0
   23.7209  -33.1664   -3.7711 N   0  0  0  0  0  0  0  0  0  0  0  0
   23.4685  -33.9370   -2.5721 C   0  0  0  0  0  0  0  0  0  0  0  0
   24.6524  -34.7198   -2.1533 C   0  0  0  0  0  0  0  0  0  0  0  0
   25.0790  -34.8065   -0.8436 O   0  0  0  0  0  0  0  0  0  0  0  0
   25.3083  -35.3386   -3.0211 O   0  0  0  0  0  0  0  0  0  0  0  0
  2  1  1  6
  3  2  1  0
  4  5  1  0
  4  3  1  0
  5  9  1  0
  6  5  2  0
  7  2  1  0
  7 10  1  0
  8  7  2  0
 11 10  1  0
 11 18  1  0
 12 13  1  0
 11 12  1  6
 13 14  2  0
 14 15  1  0
 16 15  1  0
 17 13  1  0
 17 16  2  0
 18 20  1  0
 18 19  2  0
 20 21  1  0
 22 21  1  0
 22 23  1  0
 24 22  2  0
M  END
$$$$
