EHG.pdb
     RDKit          3D

 24 24  0  0  1  0  0  0  0  0999 V2000
   19.1878  -13.4569  -16.7622 N   0  0  0  0  0  0  0  0  0  0  0  0
   18.8687  -12.0991  -16.5005 C   0  0  1  0  0  0  0  0  0  0  0  0
   17.8654  -11.9684  -15.4110 C   0  0  0  0  0  0  0  0  0  0  0  0
   16.5105  -12.5510  -15.7119 C   0  0  0  0  0  0  0  0  0  0  0  0
   15.5433  -12.3555  -14.6086 C   0  0  0  0  0  0  0  0  0  0  0  0
   15.3394  -11.2139  -14.0753 O   0  0  0  0  0  0  0  0  0  0  0  0
   20.0597  -11.2616  -16.1983 C   0  0  0  0  0  0  0  0  0  0  0  0
   20.8229  -11.6941  -15.2754 O   0  0  0  0  0  0  0  0  0  0  0  0
   14.7888  -13.3904  -14.0725 O   0  0  0  0  0  0  0  0  0  0  0  0
   20.3667  -10.0635  -16.8593 N   0  0  0  0  0  0  0  0  0  0  0  0
   21.6106   -9.3346  -16.5047 C   0  0  1  0  0  0  0  0  0  0  0  0
   22.5048   -9.3155  -17.7246 C   0  0  0  0  0  0  0  0  0  0  0  0
   23.1399  -10.5864  -18.0639 C   0  0  0  0  0  0  0  0  0  0  0  0
   23.1669  -11.7948  -17.3803 C   0  0  0  0  0  0  0  0  0  0  0  0
   23.9059  -12.6362  -18.0883 N   0  0  0  0  0  0  0  0  0  0  0  0
   24.3514  -12.0242  -19.1896 C   0  0  0  0  0  0  0  0  0  0  0  0
   23.8847  -10.7839  -19.1696 N   0  0  0  0  0  0  0  0  0  0  0  0
   21.2366   -8.0003  -16.0248 C   0  0  0  0  0  0  0  0  0  0  0  0
   20.4003   -7.3210  -16.6864 O   0  0  0  0  0  0  0  0  0  0  0  0
   21.7333   -7.3771  -14.8517 N   0  0  0  0  0  0  0  0  0  0  0  0
   21.3341   -6.0367  -14.4789 C   0  0  0  0  0  0  0  0  0  0  0  0
   21.8689   -5.6435  -13.1563 C   0  0  0  0  0  0  0  0  0  0  0  0
   22.4869   -6.5277  -12.2955 O   0  0  0  0  0  0  0  0  0  0  0  0
   21.7614   -4.4522  -12.7885 O   0  0  0  0  0  0  0  0  0  0  0  0
  2  1  1  1
  3  2  1  0
  4  5  1  0
  4  3  1  0
  5  9  1  0
  6  5  2  0
  7  2  1  0
  7 10  1  0
  8  7  2  0
 11 10  1  0
 11 18  1  0
 12 13  1  0
 11 12  1  6
 13 14  2  0
 14 15  1  0
 16 15  1  0
 17 13  1  0
 17 16  2  0
 18 20  1  0
 18 19  2  0
 20 21  1  0
 22 21  1  0
 22 23  1  0
 24 22  2  0
M  END
$$$$
