EHG.pdb
     RDKit          3D

 24 24  0  0  1  0  0  0  0  0999 V2000
   18.1319  -10.3767  -17.6305 N   0  0  0  0  0  0  0  0  0  0  0  0
   18.8152   -9.2055  -18.0489 C   0  0  1  0  0  0  0  0  0  0  0  0
   17.9997   -8.3998  -18.9959 C   0  0  0  0  0  0  0  0  0  0  0  0
   17.6448   -9.0895  -20.2859 C   0  0  0  0  0  0  0  0  0  0  0  0
   17.1767   -8.1501  -21.3295 C   0  0  0  0  0  0  0  0  0  0  0  0
   17.9716   -7.6207  -22.1763 O   0  0  0  0  0  0  0  0  0  0  0  0
   19.2712   -8.3537  -16.9185 C   0  0  0  0  0  0  0  0  0  0  0  0
   18.6248   -8.4838  -15.8293 O   0  0  0  0  0  0  0  0  0  0  0  0
   15.8470   -7.7749  -21.4675 O   0  0  0  0  0  0  0  0  0  0  0  0
   20.3400   -7.4492  -16.9968 N   0  0  0  0  0  0  0  0  0  0  0  0
   20.6911   -6.6325  -15.8077 C   0  0  1  0  0  0  0  0  0  0  0  0
   22.1250   -6.9399  -15.4367 C   0  0  0  0  0  0  0  0  0  0  0  0
   22.3761   -8.2928  -14.9467 C   0  0  0  0  0  0  0  0  0  0  0  0
   21.4966   -9.3285  -14.6599 C   0  0  0  0  0  0  0  0  0  0  0  0
   22.2145  -10.3474  -14.2107 N   0  0  0  0  0  0  0  0  0  0  0  0
   23.5082  -10.0128  -14.1967 C   0  0  0  0  0  0  0  0  0  0  0  0
   23.6000   -8.7683  -14.6432 N   0  0  0  0  0  0  0  0  0  0  0  0
   20.4544   -5.2230  -16.1359 C   0  0  0  0  0  0  0  0  0  0  0  0
   20.6855   -4.3406  -15.2604 O   0  0  0  0  0  0  0  0  0  0  0  0
   19.9801   -4.7349  -17.3801 N   0  0  0  0  0  0  0  0  0  0  0  0
   19.6843   -3.3323  -17.5805 C   0  0  0  0  0  0  0  0  0  0  0  0
   20.8953   -2.5493  -17.9127 C   0  0  0  0  0  0  0  0  0  0  0  0
   20.8692   -1.2008  -18.2052 O   0  0  0  0  0  0  0  0  0  0  0  0
   22.0048   -3.1278  -17.9328 O   0  0  0  0  0  0  0  0  0  0  0  0
  2  1  1  1
  3  2  1  0
  4  5  1  0
  4  3  1  0
  5  9  1  0
  6  5  2  0
  7  2  1  0
  7 10  1  0
  8  7  2  0
 11 10  1  0
 11 18  1  0
 12 13  1  0
 11 12  1  6
 13 14  2  0
 14 15  1  0
 16 15  1  0
 17 13  1  0
 17 16  2  0
 18 20  1  0
 18 19  2  0
 20 21  1  0
 22 21  1  0
 22 23  1  0
 24 22  2  0
M  END
$$$$
