EHG.pdb
     RDKit          3D

 24 24  0  0  1  0  0  0  0  0999 V2000
   17.9037  -10.6888  -17.7019 N   0  0  0  0  0  0  0  0  0  0  0  0
   17.6375  -10.6053  -16.3105 C   0  0  1  0  0  0  0  0  0  0  0  0
   17.8784  -11.9022  -15.6241 C   0  0  0  0  0  0  0  0  0  0  0  0
   16.8034  -12.9387  -15.8131 C   0  0  0  0  0  0  0  0  0  0  0  0
   16.6546  -13.8319  -14.6423 C   0  0  0  0  0  0  0  0  0  0  0  0
   15.8251  -14.8019  -14.6261 O   0  0  0  0  0  0  0  0  0  0  0  0
   18.3942   -9.5213  -15.6297 C   0  0  0  0  0  0  0  0  0  0  0  0
   18.2269   -9.4336  -14.3706 O   0  0  0  0  0  0  0  0  0  0  0  0
   17.4000  -13.6852  -13.4801 O   0  0  0  0  0  0  0  0  0  0  0  0
   19.2503   -8.6268  -16.2881 N   0  0  0  0  0  0  0  0  0  0  0  0
   19.8898   -7.5305  -15.5177 C   0  0  1  0  0  0  0  0  0  0  0  0
   21.3698   -7.5418  -15.8298 C   0  0  0  0  0  0  0  0  0  0  0  0
   22.1087   -8.7076  -15.3517 C   0  0  0  0  0  0  0  0  0  0  0  0
   21.7087   -9.7618  -14.5412 C   0  0  0  0  0  0  0  0  0  0  0  0
   22.7582  -10.5519  -14.3689 N   0  0  0  0  0  0  0  0  0  0  0  0
   23.8077  -10.0537  -15.0295 C   0  0  0  0  0  0  0  0  0  0  0  0
   23.4088   -8.9375  -15.6224 N   0  0  0  0  0  0  0  0  0  0  0  0
   19.2207   -6.2742  -15.8706 C   0  0  0  0  0  0  0  0  0  0  0  0
   18.8287   -6.0993  -17.0598 O   0  0  0  0  0  0  0  0  0  0  0  0
   18.9575   -5.2022  -14.9802 N   0  0  0  0  0  0  0  0  0  0  0  0
   18.2463   -4.0173  -15.4105 C   0  0  0  0  0  0  0  0  0  0  0  0
   16.9442   -3.8684  -14.7230 C   0  0  0  0  0  0  0  0  0  0  0  0
   16.2031   -2.7044  -14.7474 O   0  0  0  0  0  0  0  0  0  0  0  0
   16.4814   -4.8398  -14.0840 O   0  0  0  0  0  0  0  0  0  0  0  0
  2  1  1  6
  3  2  1  0
  4  5  1  0
  4  3  1  0
  5  9  1  0
  6  5  2  0
  7  2  1  0
  7 10  1  0
  8  7  2  0
 11 10  1  0
 11 18  1  0
 12 13  1  0
 11 12  1  6
 13 14  2  0
 14 15  1  0
 16 15  1  0
 17 13  1  0
 17 16  2  0
 18 20  1  0
 18 19  2  0
 20 21  1  0
 22 21  1  0
 22 23  1  0
 24 22  2  0
M  END
$$$$
