EHG.pdb
     RDKit          3D

 24 24  0  0  1  0  0  0  0  0999 V2000
   23.4449  -15.4465  -20.5943 N   0  0  0  0  0  0  0  0  0  0  0  0
   23.1939  -15.6674  -19.2152 C   0  0  1  0  0  0  0  0  0  0  0  0
   21.7426  -15.8350  -18.9385 C   0  0  0  0  0  0  0  0  0  0  0  0
   21.0569  -14.6300  -18.3523 C   0  0  0  0  0  0  0  0  0  0  0  0
   20.4359  -14.9056  -17.0374 C   0  0  0  0  0  0  0  0  0  0  0  0
   20.5605  -16.0305  -16.4471 O   0  0  0  0  0  0  0  0  0  0  0  0
   23.9544  -16.8156  -18.6544 C   0  0  0  0  0  0  0  0  0  0  0  0
   24.1319  -17.8012  -19.4408 O   0  0  0  0  0  0  0  0  0  0  0  0
   19.6757  -13.9694  -16.3493 O   0  0  0  0  0  0  0  0  0  0  0  0
   24.4645  -16.8586  -17.3488 N   0  0  0  0  0  0  0  0  0  0  0  0
   25.1695  -18.0791  -16.8825 C   0  0  1  0  0  0  0  0  0  0  0  0
   26.5610  -17.6769  -16.4464 C   0  0  0  0  0  0  0  0  0  0  0  0
   27.5476  -17.5497  -17.5158 C   0  0  0  0  0  0  0  0  0  0  0  0
   27.4590  -17.8508  -18.8685 C   0  0  0  0  0  0  0  0  0  0  0  0
   28.6383  -17.5891  -19.4127 N   0  0  0  0  0  0  0  0  0  0  0  0
   29.4746  -17.1359  -18.4741 C   0  0  0  0  0  0  0  0  0  0  0  0
   28.8091  -17.1141  -17.3281 N   0  0  0  0  0  0  0  0  0  0  0  0
   24.3689  -18.6893  -15.8161 C   0  0  0  0  0  0  0  0  0  0  0  0
   24.8223  -19.7018  -15.2096 O   0  0  0  0  0  0  0  0  0  0  0  0
   23.0964  -18.2395  -15.3806 N   0  0  0  0  0  0  0  0  0  0  0  0
   22.3834  -18.9041  -14.3106 C   0  0  0  0  0  0  0  0  0  0  0  0
   21.2811  -19.7513  -14.8177 C   0  0  0  0  0  0  0  0  0  0  0  0
   20.3885  -20.4067  -13.9940 O   0  0  0  0  0  0  0  0  0  0  0  0
   21.1408  -19.8883  -16.0537 O   0  0  0  0  0  0  0  0  0  0  0  0
  2  1  1  6
  3  2  1  0
  4  5  1  0
  4  3  1  0
  5  9  1  0
  6  5  2  0
  7  2  1  0
  7 10  1  0
  8  7  2  0
 11 10  1  0
 11 18  1  0
 12 13  1  0
 11 12  1  1
 13 14  2  0
 14 15  1  0
 16 15  1  0
 17 13  1  0
 17 16  2  0
 18 20  1  0
 18 19  2  0
 20 21  1  0
 22 21  1  0
 22 23  1  0
 24 22  2  0
M  END
$$$$
