EHG.pdb
     RDKit          3D

 24 24  0  0  1  0  0  0  0  0999 V2000
   16.3194  -18.9171    3.2745 N   0  0  0  0  0  0  0  0  0  0  0  0
   16.3679  -18.6382    4.6651 C   0  0  1  0  0  0  0  0  0  0  0  0
   16.5233  -19.8780    5.4712 C   0  0  0  0  0  0  0  0  0  0  0  0
   15.4243  -20.8933    5.3066 C   0  0  0  0  0  0  0  0  0  0  0  0
   15.6777  -22.1413    6.0611 C   0  0  0  0  0  0  0  0  0  0  0  0
   16.7442  -22.3237    6.7383 O   0  0  0  0  0  0  0  0  0  0  0  0
   17.4229  -17.6570    5.0328 C   0  0  0  0  0  0  0  0  0  0  0  0
   18.4150  -17.5844    4.2381 O   0  0  0  0  0  0  0  0  0  0  0  0
   14.7822  -23.2019    6.0905 O   0  0  0  0  0  0  0  0  0  0  0  0
   17.3746  -16.8403    6.1718 N   0  0  0  0  0  0  0  0  0  0  0  0
   18.4030  -15.7852    6.3552 C   0  0  1  0  0  0  0  0  0  0  0  0
   17.7169  -14.4411    6.2516 C   0  0  0  0  0  0  0  0  0  0  0  0
   18.5908  -13.2749    6.3507 C   0  0  0  0  0  0  0  0  0  0  0  0
   19.2444  -12.5482    5.3643 C   0  0  0  0  0  0  0  0  0  0  0  0
   19.9447  -11.5989    5.9674 N   0  0  0  0  0  0  0  0  0  0  0  0
   19.7701  -11.6842    7.2896 C   0  0  0  0  0  0  0  0  0  0  0  0
   18.9497  -12.7003    7.5158 N   0  0  0  0  0  0  0  0  0  0  0  0
   19.0659  -16.0130    7.6433 C   0  0  0  0  0  0  0  0  0  0  0  0
   18.4594  -16.6663    8.5399 O   0  0  0  0  0  0  0  0  0  0  0  0
   20.3640  -15.5617    7.9934 N   0  0  0  0  0  0  0  0  0  0  0  0
   20.9195  -15.7994    9.3086 C   0  0  0  0  0  0  0  0  0  0  0  0
   22.3027  -15.2876    9.4302 C   0  0  0  0  0  0  0  0  0  0  0  0
   23.0390  -15.3627   10.5951 O   0  0  0  0  0  0  0  0  0  0  0  0
   22.8429  -14.7576    8.4334 O   0  0  0  0  0  0  0  0  0  0  0  0
  2  1  1  6
  3  2  1  0
  4  5  1  0
  4  3  1  0
  5  9  1  0
  6  5  2  0
  7  2  1  0
  7 10  1  0
  8  7  2  0
 11 10  1  0
 11 18  1  0
 12 13  1  0
 11 12  1  1
 13 14  2  0
 14 15  1  0
 16 15  1  0
 17 13  1  0
 17 16  2  0
 18 20  1  0
 18 19  2  0
 20 21  1  0
 22 21  1  0
 22 23  1  0
 24 22  2  0
M  END
$$$$
