EHG.pdb
     RDKit          3D

 24 24  0  0  1  0  0  0  0  0999 V2000
   19.4016   -8.6463  -13.2698 N   0  0  0  0  0  0  0  0  0  0  0  0
   19.9237   -8.8579  -14.5723 C   0  0  1  0  0  0  0  0  0  0  0  0
   19.4192   -7.8476  -15.5396 C   0  0  0  0  0  0  0  0  0  0  0  0
   17.9800   -8.0123  -15.9487 C   0  0  0  0  0  0  0  0  0  0  0  0
   17.7402   -9.2535  -16.7186 C   0  0  0  0  0  0  0  0  0  0  0  0
   17.7226  -10.4047  -16.1676 O   0  0  0  0  0  0  0  0  0  0  0  0
   21.4095   -8.9020  -14.6115 C   0  0  0  0  0  0  0  0  0  0  0  0
   22.0098   -8.0852  -13.8410 O   0  0  0  0  0  0  0  0  0  0  0  0
   17.5174   -9.2618  -18.0891 O   0  0  0  0  0  0  0  0  0  0  0  0
   22.1492   -9.7697  -15.4280 N   0  0  0  0  0  0  0  0  0  0  0  0
   23.6325   -9.7151  -15.3926 C   0  0  1  0  0  0  0  0  0  0  0  0
   24.1522  -11.1356  -15.3855 C   0  0  0  0  0  0  0  0  0  0  0  0
   25.6056  -11.2779  -15.3566 C   0  0  0  0  0  0  0  0  0  0  0  0
   26.6065  -10.3194  -15.2679 C   0  0  0  0  0  0  0  0  0  0  0  0
   27.7693  -10.9528  -15.3131 N   0  0  0  0  0  0  0  0  0  0  0  0
   27.5595  -12.2677  -15.4263 C   0  0  0  0  0  0  0  0  0  0  0  0
   26.2483  -12.4587  -15.4521 N   0  0  0  0  0  0  0  0  0  0  0  0
   24.0876   -8.9246  -16.5408 C   0  0  0  0  0  0  0  0  0  0  0  0
   23.5592   -9.1232  -17.6722 O   0  0  0  0  0  0  0  0  0  0  0  0
   25.0919   -7.9239  -16.5065 N   0  0  0  0  0  0  0  0  0  0  0  0
   25.3158   -7.0366  -17.6279 C   0  0  0  0  0  0  0  0  0  0  0  0
   26.1381   -7.6691  -18.6833 C   0  0  0  0  0  0  0  0  0  0  0  0
   26.5346   -7.0122  -19.8306 O   0  0  0  0  0  0  0  0  0  0  0  0
   26.4983   -8.8589  -18.5400 O   0  0  0  0  0  0  0  0  0  0  0  0
  2  1  1  1
  3  2  1  0
  4  5  1  0
  4  3  1  0
  5  9  1  0
  6  5  2  0
  7  2  1  0
  7 10  1  0
  8  7  2  0
 11 10  1  0
 11 18  1  0
 12 13  1  0
 11 12  1  6
 13 14  2  0
 14 15  1  0
 16 15  1  0
 17 13  1  0
 17 16  2  0
 18 20  1  0
 18 19  2  0
 20 21  1  0
 22 21  1  0
 22 23  1  0
 24 22  2  0
M  END
$$$$
