EHG.pdb
     RDKit          3D

 24 24  0  0  1  0  0  0  0  0999 V2000
   23.7112  -24.6378  -17.5896 N   0  0  0  0  0  0  0  0  0  0  0  0
   24.1502  -23.3601  -17.1552 C   0  0  1  0  0  0  0  0  0  0  0  0
   23.3542  -22.8668  -16.0002 C   0  0  0  0  0  0  0  0  0  0  0  0
   22.8795  -21.4424  -16.1086 C   0  0  0  0  0  0  0  0  0  0  0  0
   22.1859  -20.9738  -14.8880 C   0  0  0  0  0  0  0  0  0  0  0  0
   21.6729  -19.8083  -14.8004 O   0  0  0  0  0  0  0  0  0  0  0  0
   25.6005  -23.3146  -16.8298 C   0  0  0  0  0  0  0  0  0  0  0  0
   26.0737  -24.3485  -16.2568 O   0  0  0  0  0  0  0  0  0  0  0  0
   22.0405  -21.7594  -13.7524 O   0  0  0  0  0  0  0  0  0  0  0  0
   26.4366  -22.2255  -17.1154 N   0  0  0  0  0  0  0  0  0  0  0  0
   27.9004  -22.3567  -16.9046 C   0  0  1  0  0  0  0  0  0  0  0  0
   28.3966  -23.4950  -17.7683 C   0  0  0  0  0  0  0  0  0  0  0  0
   28.3430  -24.8216  -17.1595 C   0  0  0  0  0  0  0  0  0  0  0  0
   29.0708  -25.3645  -16.1087 C   0  0  0  0  0  0  0  0  0  0  0  0
   28.6740  -26.6193  -15.9562 N   0  0  0  0  0  0  0  0  0  0  0  0
   27.7292  -26.9036  -16.8576 C   0  0  0  0  0  0  0  0  0  0  0  0
   27.5330  -25.8120  -17.5831 N   0  0  0  0  0  0  0  0  0  0  0  0
   28.5234  -21.0655  -17.2129 C   0  0  0  0  0  0  0  0  0  0  0  0
   29.7846  -20.9768  -17.2175 O   0  0  0  0  0  0  0  0  0  0  0  0
   27.8290  -19.8677  -17.5203 N   0  0  0  0  0  0  0  0  0  0  0  0
   27.9814  -19.2112  -18.8012 C   0  0  0  0  0  0  0  0  0  0  0  0
   29.3798  -19.2491  -19.2839 C   0  0  0  0  0  0  0  0  0  0  0  0
   30.1635  -18.1219  -19.4253 O   0  0  0  0  0  0  0  0  0  0  0  0
   29.8887  -20.3528  -19.5821 O   0  0  0  0  0  0  0  0  0  0  0  0
  2  1  1  1
  3  2  1  0
  4  5  1  0
  4  3  1  0
  5  9  1  0
  6  5  2  0
  7  2  1  0
  7 10  1  0
  8  7  2  0
 11 10  1  0
 11 18  1  0
 12 13  1  0
 11 12  1  6
 13 14  2  0
 14 15  1  0
 16 15  1  0
 17 13  1  0
 17 16  2  0
 18 20  1  0
 18 19  2  0
 20 21  1  0
 22 21  1  0
 22 23  1  0
 24 22  2  0
M  END
$$$$
