MLH.pdb
     RDKit          3D

 27 27  0  0  1  0  0  0  0  0999 V2000
    5.3657  -19.4528   20.7238 C   0  0  0  0  0  0  0  0  0  0  0  0
    5.8951  -18.6070   19.2260 S   0  0  0  0  0  0  0  0  0  0  0  0
    6.1991  -16.8511   19.5023 C   0  0  0  0  0  0  0  0  0  0  0  0
    7.0666  -16.6345   20.7443 C   0  0  0  0  0  0  0  0  0  0  0  0
    7.0563  -15.1594   21.0485 C   0  0  2  0  0  0  0  0  0  0  0  0
    7.7302  -14.4731   19.9620 N   0  0  0  0  0  0  0  0  0  0  0  0
    7.8266  -14.8741   22.2898 C   0  0  0  0  0  0  0  0  0  0  0  0
    9.0834  -14.8223   22.3120 O   0  0  0  0  0  0  0  0  0  0  0  0
    7.6808  -11.3129   25.5165 C   0  0  0  0  0  0  0  0  0  0  0  0
    6.6538  -12.3743   25.6080 C   0  0  2  0  0  0  0  0  0  0  0  0
    5.7052  -12.0043   26.7619 C   0  0  0  0  0  0  0  0  0  0  0  0
    7.0905  -13.7514   25.8526 C   0  0  0  0  0  0  0  0  0  0  0  0
    7.8371  -14.4712   24.7835 C   0  0  2  0  0  0  0  0  0  0  0  0
    7.1585  -14.6398   23.5463 N   0  0  0  0  0  0  0  0  0  0  0  0
    8.4521  -15.7362   25.2340 C   0  0  0  0  0  0  0  0  0  0  0  0
    7.7223  -16.7522   25.2572 O   0  0  0  0  0  0  0  0  0  0  0  0
    9.7999  -15.8780   25.6382 N   0  0  0  0  0  0  0  0  0  0  0  0
   10.3986  -17.2183   25.7283 C   0  0  1  0  0  0  0  0  0  0  0  0
   11.7339  -17.0951   25.0139 C   0  0  0  0  0  0  0  0  0  0  0  0
   12.5246  -18.3223   25.2366 C   0  0  0  0  0  0  0  0  0  0  0  0
   12.5302  -19.2013   26.2793 C   0  0  0  0  0  0  0  0  0  0  0  0
   13.4414  -20.1451   26.0026 N   0  0  0  0  0  0  0  0  0  0  0  0
   13.9953  -19.8767   24.8283 C   0  0  0  0  0  0  0  0  0  0  0  0
   13.4440  -18.7672   24.3517 N   0  0  0  0  0  0  0  0  0  0  0  0
   10.5731  -17.5422   27.1444 C   0  0  0  0  0  0  0  0  0  0  0  0
   10.3918  -16.5806   28.1584 O   0  0  0  0  0  0  0  0  0  0  0  0
   10.8936  -18.7006   27.4865 O   0  0  0  0  0  0  0  0  0  0  0  0
  2  1  1  0
  3  2  1  0
  4  3  1  0
  4  5  1  0
  5  7  1  0
  5  6  1  6
  7  8  2  0
 10  9  1  1
 11 10  1  0
 13 12  1  1
 12 10  1  0
 14  7  1  0
 14 13  1  0
 15 16  2  0
 15 13  1  0
 17 15  1  0
 18 25  1  0
 18 17  1  0
 18 19  1  6
 20 19  1  0
 21 20  2  0
 22 21  1  0
 23 22  1  0
 23 24  2  0
 24 20  1  0
 25 26  1  0
 27 25  2  0
M  END
$$$$
