MLH.pdb
     RDKit          3D

 27 27  0  0  1  0  0  0  0  0999 V2000
    7.6782  -20.2098   22.8749 C   0  0  0  0  0  0  0  0  0  0  0  0
    9.0887  -19.8865   21.8048 S   0  0  0  0  0  0  0  0  0  0  0  0
    9.3164  -18.1265   21.4849 C   0  0  0  0  0  0  0  0  0  0  0  0
    7.9754  -17.4423   21.2094 C   0  0  0  0  0  0  0  0  0  0  0  0
    8.2575  -15.9841   20.9593 C   0  0  2  0  0  0  0  0  0  0  0  0
    9.4238  -15.8941   20.1006 N   0  0  0  0  0  0  0  0  0  0  0  0
    8.5969  -15.2894   22.2311 C   0  0  0  0  0  0  0  0  0  0  0  0
    9.7826  -15.0605   22.5841 O   0  0  0  0  0  0  0  0  0  0  0  0
    5.6791  -12.3068   26.9836 C   0  0  0  0  0  0  0  0  0  0  0  0
    6.8752  -12.6706   26.1921 C   0  0  2  0  0  0  0  0  0  0  0  0
    7.6287  -11.3694   25.8645 C   0  0  0  0  0  0  0  0  0  0  0  0
    6.6858  -13.3740   24.9207 C   0  0  0  0  0  0  0  0  0  0  0  0
    7.8257  -14.1400   24.3442 C   0  0  2  0  0  0  0  0  0  0  0  0
    7.5666  -14.8384   23.1339 N   0  0  0  0  0  0  0  0  0  0  0  0
    8.5201  -15.0020   25.3221 C   0  0  0  0  0  0  0  0  0  0  0  0
    8.8254  -14.4903   26.4223 O   0  0  0  0  0  0  0  0  0  0  0  0
    8.8617  -16.3567   25.1027 N   0  0  0  0  0  0  0  0  0  0  0  0
    9.5752  -17.1085   26.1461 C   0  0  1  0  0  0  0  0  0  0  0  0
    8.8063  -18.4123   26.2787 C   0  0  0  0  0  0  0  0  0  0  0  0
    9.0451  -18.9888   27.6171 C   0  0  0  0  0  0  0  0  0  0  0  0
    9.7920  -18.5329   28.6631 C   0  0  0  0  0  0  0  0  0  0  0  0
    9.6908  -19.4341   29.6504 N   0  0  0  0  0  0  0  0  0  0  0  0
    8.9092  -20.4266   29.2481 C   0  0  0  0  0  0  0  0  0  0  0  0
    8.5095  -20.1660   28.0093 N   0  0  0  0  0  0  0  0  0  0  0  0
   10.9449  -17.3354   25.6844 C   0  0  0  0  0  0  0  0  0  0  0  0
   11.2336  -17.7040   24.3553 O   0  0  0  0  0  0  0  0  0  0  0  0
   11.9022  -17.2048   26.4770 O   0  0  0  0  0  0  0  0  0  0  0  0
  2  1  1  0
  3  2  1  0
  4  3  1  0
  4  5  1  0
  5  7  1  0
  5  6  1  6
  7  8  2  0
 10  9  1  6
 11 10  1  0
 13 12  1  1
 12 10  1  0
 14  7  1  0
 14 13  1  0
 15 16  2  0
 15 13  1  0
 17 15  1  0
 18 25  1  0
 18 17  1  0
 18 19  1  6
 20 19  1  0
 21 20  2  0
 22 21  1  0
 23 22  1  0
 23 24  2  0
 24 20  1  0
 25 26  1  0
 27 25  2  0
M  END
$$$$
