MLH.pdb
     RDKit          3D

 27 27  0  0  1  0  0  0  0  0999 V2000
   10.0040  -12.6240   28.0548 C   0  0  0  0  0  0  0  0  0  0  0  0
   10.4835  -14.3542   27.9287 S   0  0  0  0  0  0  0  0  0  0  0  0
    9.2581  -15.3420   27.0488 C   0  0  0  0  0  0  0  0  0  0  0  0
    9.1765  -14.9293   25.5774 C   0  0  0  0  0  0  0  0  0  0  0  0
    8.1016  -15.7659   24.9344 C   0  0  2  0  0  0  0  0  0  0  0  0
    8.0479  -17.0382   25.6302 N   0  0  0  0  0  0  0  0  0  0  0  0
    8.4424  -16.0582   23.5153 C   0  0  0  0  0  0  0  0  0  0  0  0
    8.4666  -17.2268   23.0498 O   0  0  0  0  0  0  0  0  0  0  0  0
    6.4141  -13.7450   20.1779 C   0  0  0  0  0  0  0  0  0  0  0  0
    7.7577  -13.2183   20.5045 C   0  0  2  0  0  0  0  0  0  0  0  0
    7.9886  -11.9665   19.6396 C   0  0  0  0  0  0  0  0  0  0  0  0
    8.9193  -14.0873   20.2985 C   0  0  0  0  0  0  0  0  0  0  0  0
    9.1496  -15.2177   21.2406 C   0  0  2  0  0  0  0  0  0  0  0  0
    8.7663  -14.9992   22.5915 N   0  0  0  0  0  0  0  0  0  0  0  0
   10.5050  -15.7983   21.1553 C   0  0  0  0  0  0  0  0  0  0  0  0
   10.8642  -16.2558   20.0476 O   0  0  0  0  0  0  0  0  0  0  0  0
   11.4192  -15.8723   22.2318 N   0  0  0  0  0  0  0  0  0  0  0  0
   12.7712  -16.4055   22.0068 C   0  0  1  0  0  0  0  0  0  0  0  0
   13.6654  -15.1789   21.9402 C   0  0  0  0  0  0  0  0  0  0  0  0
   13.9911  -14.8850   20.5302 C   0  0  0  0  0  0  0  0  0  0  0  0
   13.6244  -15.5199   19.3803 C   0  0  0  0  0  0  0  0  0  0  0  0
   14.1968  -14.8641   18.3606 N   0  0  0  0  0  0  0  0  0  0  0  0
   14.9016  -13.8501   18.8432 C   0  0  0  0  0  0  0  0  0  0  0  0
   14.7836  -13.8529   20.1654 N   0  0  0  0  0  0  0  0  0  0  0  0
   13.1152  -17.2619   23.1422 C   0  0  0  0  0  0  0  0  0  0  0  0
   14.3708  -17.8928   23.2484 O   0  0  0  0  0  0  0  0  0  0  0  0
   12.2844  -17.4538   24.0557 O   0  0  0  0  0  0  0  0  0  0  0  0
  2  1  1  0
  3  2  1  0
  4  3  1  0
  4  5  1  0
  5  7  1  0
  5  6  1  1
  7  8  2  0
 10  9  1  6
 11 10  1  0
 13 12  1  6
 12 10  1  0
 14  7  1  0
 14 13  1  0
 15 16  2  0
 15 13  1  0
 17 15  1  0
 18 25  1  0
 18 17  1  0
 18 19  1  1
 20 19  1  0
 21 20  2  0
 22 21  1  0
 23 22  1  0
 23 24  2  0
 24 20  1  0
 25 26  1  0
 27 25  2  0
M  END
$$$$
