MLH.pdb
     RDKit          3D

 27 27  0  0  1  0  0  0  0  0999 V2000
    8.7175  -11.5034   19.0612 C   0  0  0  0  0  0  0  0  0  0  0  0
    7.3121  -12.6273   19.0913 S   0  0  0  0  0  0  0  0  0  0  0  0
    7.6827  -14.1640   19.9589 C   0  0  0  0  0  0  0  0  0  0  0  0
    8.9208  -14.0077   20.8448 C   0  0  0  0  0  0  0  0  0  0  0  0
    9.1977  -15.3489   21.4717 C   0  0  2  0  0  0  0  0  0  0  0  0
    8.0353  -16.1912   21.2596 N   0  0  0  0  0  0  0  0  0  0  0  0
    9.3764  -15.2136   22.9432 C   0  0  0  0  0  0  0  0  0  0  0  0
   10.4746  -14.8935   23.4670 O   0  0  0  0  0  0  0  0  0  0  0  0
    7.9384  -12.2676   26.2269 C   0  0  0  0  0  0  0  0  0  0  0  0
    6.9391  -13.2445   25.7404 C   0  0  2  0  0  0  0  0  0  0  0  0
    5.6089  -12.9418   26.4526 C   0  0  0  0  0  0  0  0  0  0  0  0
    7.2024  -14.6723   25.9381 C   0  0  0  0  0  0  0  0  0  0  0  0
    8.3778  -15.2887   25.2622 C   0  0  2  0  0  0  0  0  0  0  0  0
    8.2821  -15.4467   23.8531 N   0  0  0  0  0  0  0  0  0  0  0  0
    8.8557  -16.5274   25.9091 C   0  0  0  0  0  0  0  0  0  0  0  0
    8.2312  -16.9254   26.9175 O   0  0  0  0  0  0  0  0  0  0  0  0
    9.9629  -17.2902   25.4705 N   0  0  0  0  0  0  0  0  0  0  0  0
   10.4540  -18.4055   26.2938 C   0  0  1  0  0  0  0  0  0  0  0  0
   11.4257  -19.1520   25.3954 C   0  0  0  0  0  0  0  0  0  0  0  0
   10.7009  -19.6851   24.2245 C   0  0  0  0  0  0  0  0  0  0  0  0
    9.3821  -19.6130   23.8847 C   0  0  0  0  0  0  0  0  0  0  0  0
    9.2303  -20.2715   22.7267 N   0  0  0  0  0  0  0  0  0  0  0  0
   10.4080  -20.7452   22.3440 C   0  0  0  0  0  0  0  0  0  0  0  0
   11.3125  -20.3937   23.2498 N   0  0  0  0  0  0  0  0  0  0  0  0
   11.1268  -17.8423   27.4647 C   0  0  0  0  0  0  0  0  0  0  0  0
   11.5155  -16.4890   27.5236 O   0  0  0  0  0  0  0  0  0  0  0  0
   11.3747  -18.5663   28.4526 O   0  0  0  0  0  0  0  0  0  0  0  0
  2  1  1  0
  3  2  1  0
  4  3  1  0
  4  5  1  0
  5  7  1  0
  5  6  1  1
  7  8  2  0
 10  9  1  1
 11 10  1  0
 13 12  1  1
 12 10  1  0
 14  7  1  0
 14 13  1  0
 15 16  2  0
 15 13  1  0
 17 15  1  0
 18 25  1  0
 18 17  1  0
 18 19  1  6
 20 19  1  0
 21 20  2  0
 22 21  1  0
 23 22  1  0
 23 24  2  0
 24 20  1  0
 25 26  1  0
 27 25  2  0
M  END
$$$$
