MLH.pdb
     RDKit          3D

 27 27  0  0  1  0  0  0  0  0999 V2000
    8.1131  -11.4118   19.2512 C   0  0  0  0  0  0  0  0  0  0  0  0
    7.2423  -12.9224   18.8049 S   0  0  0  0  0  0  0  0  0  0  0  0
    7.9152  -14.3726   19.6390 C   0  0  0  0  0  0  0  0  0  0  0  0
    8.0103  -14.1408   21.1487 C   0  0  0  0  0  0  0  0  0  0  0  0
    8.5554  -15.4028   21.7642 C   0  0  2  0  0  0  0  0  0  0  0  0
    7.4730  -16.3659   21.8447 N   0  0  0  0  0  0  0  0  0  0  0  0
    9.0196  -15.1501   23.1557 C   0  0  0  0  0  0  0  0  0  0  0  0
   10.2045  -14.8263   23.4277 O   0  0  0  0  0  0  0  0  0  0  0  0
    5.6405  -12.6777   26.1855 C   0  0  0  0  0  0  0  0  0  0  0  0
    7.0291  -13.0680   26.5156 C   0  0  2  0  0  0  0  0  0  0  0  0
    7.9586  -12.3813   25.4993 C   0  0  0  0  0  0  0  0  0  0  0  0
    7.3777  -14.4912   26.5039 C   0  0  0  0  0  0  0  0  0  0  0  0
    8.4792  -14.9560   25.6156 C   0  0  2  0  0  0  0  0  0  0  0  0
    8.1192  -15.2661   24.2762 N   0  0  0  0  0  0  0  0  0  0  0  0
    9.3124  -16.0225   26.2071 C   0  0  0  0  0  0  0  0  0  0  0  0
    9.7347  -15.8412   27.3708 O   0  0  0  0  0  0  0  0  0  0  0  0
    9.6637  -17.2266   25.5538 N   0  0  0  0  0  0  0  0  0  0  0  0
   10.5002  -18.2172   26.2478 C   0  0  1  0  0  0  0  0  0  0  0  0
    9.7835  -19.5412   26.0432 C   0  0  0  0  0  0  0  0  0  0  0  0
    8.5325  -19.5484   26.8278 C   0  0  0  0  0  0  0  0  0  0  0  0
    8.3262  -19.5223   28.1756 C   0  0  0  0  0  0  0  0  0  0  0  0
    7.0015  -19.5573   28.3788 N   0  0  0  0  0  0  0  0  0  0  0  0
    6.3876  -19.6044   27.2046 C   0  0  0  0  0  0  0  0  0  0  0  0
    7.3113  -19.5995   26.2513 N   0  0  0  0  0  0  0  0  0  0  0  0
   11.8206  -18.2164   25.6174 C   0  0  0  0  0  0  0  0  0  0  0  0
   12.8764  -19.0186   26.0943 O   0  0  0  0  0  0  0  0  0  0  0  0
   12.0400  -17.4887   24.6255 O   0  0  0  0  0  0  0  0  0  0  0  0
  2  1  1  0
  3  2  1  0
  4  3  1  0
  4  5  1  0
  5  7  1  0
  5  6  1  1
  7  8  2  0
 10  9  1  6
 11 10  1  0
 13 12  1  1
 12 10  1  0
 14  7  1  0
 14 13  1  0
 15 16  2  0
 15 13  1  0
 17 15  1  0
 18 25  1  0
 18 17  1  0
 18 19  1  6
 20 19  1  0
 21 20  2  0
 22 21  1  0
 23 22  1  0
 23 24  2  0
 24 20  1  0
 25 26  1  0
 27 25  2  0
M  END
$$$$
