MLH.pdb
     RDKit          3D

 27 27  0  0  1  0  0  0  0  0999 V2000
   10.6678  -17.0422   16.9456 C   0  0  0  0  0  0  0  0  0  0  0  0
   10.3534  -15.6984   18.1009 S   0  0  0  0  0  0  0  0  0  0  0  0
    8.7020  -15.7856   18.8198 C   0  0  0  0  0  0  0  0  0  0  0  0
    8.5771  -14.8444   20.0200 C   0  0  0  0  0  0  0  0  0  0  0  0
    7.9323  -15.6227   21.1368 C   0  0  2  0  0  0  0  0  0  0  0  0
    6.5167  -15.3040   21.1459 N   0  0  0  0  0  0  0  0  0  0  0  0
    8.4828  -15.2035   22.4547 C   0  0  0  0  0  0  0  0  0  0  0  0
    9.7094  -14.9964   22.6431 O   0  0  0  0  0  0  0  0  0  0  0  0
    8.1944  -11.6425   25.5897 C   0  0  0  0  0  0  0  0  0  0  0  0
    7.0148  -12.5332   25.5210 C   0  0  2  0  0  0  0  0  0  0  0  0
    5.9858  -12.0210   26.5443 C   0  0  0  0  0  0  0  0  0  0  0  0
    7.1990  -13.9610   25.7940 C   0  0  0  0  0  0  0  0  0  0  0  0
    8.0990  -14.7533   24.9105 C   0  0  2  0  0  0  0  0  0  0  0  0
    7.6230  -15.0117   23.5965 N   0  0  0  0  0  0  0  0  0  0  0  0
    8.6241  -15.9812   25.5413 C   0  0  0  0  0  0  0  0  0  0  0  0
    7.8112  -16.9074   25.7573 O   0  0  0  0  0  0  0  0  0  0  0  0
    9.9731  -16.1815   25.9155 N   0  0  0  0  0  0  0  0  0  0  0  0
   10.3682  -17.4306   26.5838 C   0  0  1  0  0  0  0  0  0  0  0  0
   11.8113  -17.6548   26.1644 C   0  0  0  0  0  0  0  0  0  0  0  0
   11.8526  -18.0574   24.7442 C   0  0  0  0  0  0  0  0  0  0  0  0
   10.9201  -18.6788   23.9670 C   0  0  0  0  0  0  0  0  0  0  0  0
   11.4531  -18.8309   22.7462 N   0  0  0  0  0  0  0  0  0  0  0  0
   12.6789  -18.3256   22.7464 C   0  0  0  0  0  0  0  0  0  0  0  0
   12.9335  -17.8510   23.9597 N   0  0  0  0  0  0  0  0  0  0  0  0
   10.2524  -17.2277   28.0282 C   0  0  0  0  0  0  0  0  0  0  0  0
   10.4277  -18.2819   28.9468 O   0  0  0  0  0  0  0  0  0  0  0  0
    9.9895  -16.0934   28.4817 O   0  0  0  0  0  0  0  0  0  0  0  0
  2  1  1  0
  3  2  1  0
  4  3  1  0
  4  5  1  0
  5  7  1  0
  5  6  1  1
  7  8  2  0
 10  9  1  1
 11 10  1  0
 13 12  1  1
 12 10  1  0
 14  7  1  0
 14 13  1  0
 15 16  2  0
 15 13  1  0
 17 15  1  0
 18 25  1  0
 18 17  1  0
 18 19  1  1
 20 19  1  0
 21 20  2  0
 22 21  1  0
 23 22  1  0
 23 24  2  0
 24 20  1  0
 25 26  1  0
 27 25  2  0
M  END
$$$$
