MLH.pdb
     RDKit          3D

 27 27  0  0  1  0  0  0  0  0999 V2000
    8.6643  -12.6256   17.9260 C   0  0  0  0  0  0  0  0  0  0  0  0
    7.1570  -12.8892   18.8735 S   0  0  0  0  0  0  0  0  0  0  0  0
    7.3278  -14.2229   20.0750 C   0  0  0  0  0  0  0  0  0  0  0  0
    8.7049  -14.8822   19.9689 C   0  0  0  0  0  0  0  0  0  0  0  0
    8.7782  -15.9448   21.0338 C   0  0  2  0  0  0  0  0  0  0  0  0
    7.4893  -16.6087   21.0938 N   0  0  0  0  0  0  0  0  0  0  0  0
    9.0172  -15.3335   22.3697 C   0  0  0  0  0  0  0  0  0  0  0  0
   10.0767  -14.7176   22.6547 O   0  0  0  0  0  0  0  0  0  0  0  0
    5.8144  -12.8466   27.0931 C   0  0  0  0  0  0  0  0  0  0  0  0
    7.0440  -13.4400   26.5225 C   0  0  2  0  0  0  0  0  0  0  0  0
    8.0614  -12.3019   26.3274 C   0  0  0  0  0  0  0  0  0  0  0  0
    6.9522  -14.1416   25.2394 C   0  0  0  0  0  0  0  0  0  0  0  0
    8.1702  -14.7985   24.6886 C   0  0  2  0  0  0  0  0  0  0  0  0
    8.0303  -15.4192   23.4179 N   0  0  0  0  0  0  0  0  0  0  0  0
    8.8524  -15.6901   25.6483 C   0  0  0  0  0  0  0  0  0  0  0  0
    9.3607  -15.1605   26.6614 O   0  0  0  0  0  0  0  0  0  0  0  0
    8.9700  -17.0919   25.5027 N   0  0  0  0  0  0  0  0  0  0  0  0
    9.9593  -17.8292   26.3032 C   0  0  1  0  0  0  0  0  0  0  0  0
   11.3034  -17.2672   25.8717 C   0  0  0  0  0  0  0  0  0  0  0  0
   11.6423  -17.7816   24.5296 C   0  0  0  0  0  0  0  0  0  0  0  0
   10.9222  -18.5482   23.6615 C   0  0  0  0  0  0  0  0  0  0  0  0
   11.6862  -18.7525   22.5789 N   0  0  0  0  0  0  0  0  0  0  0  0
   12.8490  -18.1394   22.7515 C   0  0  0  0  0  0  0  0  0  0  0  0
   12.8337  -17.5438   23.9378 N   0  0  0  0  0  0  0  0  0  0  0  0
    9.6909  -17.5589   27.7160 C   0  0  0  0  0  0  0  0  0  0  0  0
   10.4124  -18.1921   28.7476 O   0  0  0  0  0  0  0  0  0  0  0  0
    8.7983  -16.7463   28.0391 O   0  0  0  0  0  0  0  0  0  0  0  0
  2  1  1  0
  3  2  1  0
  4  3  1  0
  4  5  1  0
  5  7  1  0
  5  6  1  1
  7  8  2  0
 10  9  1  6
 11 10  1  0
 13 12  1  1
 12 10  1  0
 14  7  1  0
 14 13  1  0
 15 16  2  0
 15 13  1  0
 17 15  1  0
 18 25  1  0
 18 17  1  0
 18 19  1  6
 20 19  1  0
 21 20  2  0
 22 21  1  0
 23 22  1  0
 23 24  2  0
 24 20  1  0
 25 26  1  0
 27 25  2  0
M  END
$$$$
