MLH.pdb
     RDKit          3D

 27 27  0  0  1  0  0  0  0  0999 V2000
   10.3769  -20.1649   20.8853 C   0  0  0  0  0  0  0  0  0  0  0  0
    8.6403  -20.2382   20.4180 S   0  0  0  0  0  0  0  0  0  0  0  0
    7.9193  -18.5994   20.2032 C   0  0  0  0  0  0  0  0  0  0  0  0
    8.4362  -17.6299   21.2685 C   0  0  0  0  0  0  0  0  0  0  0  0
    7.7165  -16.3213   21.0732 C   0  0  2  0  0  0  0  0  0  0  0  0
    8.1193  -15.7755   19.7905 N   0  0  0  0  0  0  0  0  0  0  0  0
    8.1237  -15.3379   22.1137 C   0  0  0  0  0  0  0  0  0  0  0  0
    9.2052  -14.6977   22.0563 O   0  0  0  0  0  0  0  0  0  0  0  0
    5.9046  -12.4505   27.2816 C   0  0  0  0  0  0  0  0  0  0  0  0
    6.9557  -12.7980   26.2997 C   0  0  2  0  0  0  0  0  0  0  0  0
    7.4798  -11.4831   25.6957 C   0  0  0  0  0  0  0  0  0  0  0  0
    6.6010  -13.6628   25.1714 C   0  0  0  0  0  0  0  0  0  0  0  0
    7.6914  -14.2814   24.3671 C   0  0  2  0  0  0  0  0  0  0  0  0
    7.2848  -15.0677   23.2552 N   0  0  0  0  0  0  0  0  0  0  0  0
    8.7054  -14.9848   25.1785 C   0  0  0  0  0  0  0  0  0  0  0  0
    9.1851  -14.3690   26.1563 O   0  0  0  0  0  0  0  0  0  0  0  0
    9.1686  -16.2975   24.9288 N   0  0  0  0  0  0  0  0  0  0  0  0
   10.2639  -16.8521   25.7385 C   0  0  1  0  0  0  0  0  0  0  0  0
   10.0203  -18.3518   25.7447 C   0  0  0  0  0  0  0  0  0  0  0  0
    9.1343  -18.7003   26.8736 C   0  0  0  0  0  0  0  0  0  0  0  0
    9.1803  -18.3367   28.1872 C   0  0  0  0  0  0  0  0  0  0  0  0
    8.1505  -18.9335   28.8043 N   0  0  0  0  0  0  0  0  0  0  0  0
    7.4746  -19.6503   27.9170 C   0  0  0  0  0  0  0  0  0  0  0  0
    8.0654  -19.5157   26.7359 N   0  0  0  0  0  0  0  0  0  0  0  0
   11.5277  -16.5144   25.0830 C   0  0  0  0  0  0  0  0  0  0  0  0
   12.7737  -16.7448   25.6995 O   0  0  0  0  0  0  0  0  0  0  0  0
   11.5243  -16.0045   23.9421 O   0  0  0  0  0  0  0  0  0  0  0  0
  2  1  1  0
  3  2  1  0
  4  3  1  0
  4  5  1  0
  5  7  1  0
  5  6  1  6
  7  8  2  0
 10  9  1  1
 11 10  1  0
 13 12  1  1
 12 10  1  0
 14  7  1  0
 14 13  1  0
 15 16  2  0
 15 13  1  0
 17 15  1  0
 18 25  1  0
 18 17  1  0
 18 19  1  6
 20 19  1  0
 21 20  2  0
 22 21  1  0
 23 22  1  0
 23 24  2  0
 24 20  1  0
 25 26  1  0
 27 25  2  0
M  END
$$$$
