MLH.pdb
     RDKit          3D

 27 27  0  0  1  0  0  0  0  0999 V2000
    6.2135  -11.2153   27.2250 C   0  0  0  0  0  0  0  0  0  0  0  0
    6.9228  -12.6657   26.4297 S   0  0  0  0  0  0  0  0  0  0  0  0
    6.5182  -14.1913   27.3018 C   0  0  0  0  0  0  0  0  0  0  0  0
    7.1514  -15.4012   26.6109 C   0  0  0  0  0  0  0  0  0  0  0  0
    6.4577  -15.5765   25.2855 C   0  0  2  0  0  0  0  0  0  0  0  0
    5.5570  -16.7087   25.3975 N   0  0  0  0  0  0  0  0  0  0  0  0
    7.4412  -15.9047   24.2176 C   0  0  0  0  0  0  0  0  0  0  0  0
    7.9175  -17.0591   24.0650 O   0  0  0  0  0  0  0  0  0  0  0  0
    6.8247  -14.4044   19.7209 C   0  0  0  0  0  0  0  0  0  0  0  0
    7.6401  -13.5815   20.6416 C   0  0  2  0  0  0  0  0  0  0  0  0
    8.0121  -12.2854   19.9000 C   0  0  0  0  0  0  0  0  0  0  0  0
    8.8923  -14.1407   21.1574 C   0  0  0  0  0  0  0  0  0  0  0  0
    8.8340  -15.1522   22.2492 C   0  0  2  0  0  0  0  0  0  0  0  0
    7.9025  -14.8993   23.2922 N   0  0  0  0  0  0  0  0  0  0  0  0
   10.1575  -15.5220   22.7907 C   0  0  0  0  0  0  0  0  0  0  0  0
   10.7023  -14.7136   23.5749 O   0  0  0  0  0  0  0  0  0  0  0  0
   10.8470  -16.7187   22.4865 N   0  0  0  0  0  0  0  0  0  0  0  0
   12.1914  -16.9474   23.0370 C   0  0  1  0  0  0  0  0  0  0  0  0
   12.3183  -18.4583   23.1346 C   0  0  0  0  0  0  0  0  0  0  0  0
   11.4356  -18.9566   24.2085 C   0  0  0  0  0  0  0  0  0  0  0  0
   11.1929  -18.4706   25.4594 C   0  0  0  0  0  0  0  0  0  0  0  0
   10.3180  -19.2986   26.0480 N   0  0  0  0  0  0  0  0  0  0  0  0
   10.0154  -20.2751   25.2037 C   0  0  0  0  0  0  0  0  0  0  0  0
   10.6912  -20.0770   24.0785 N   0  0  0  0  0  0  0  0  0  0  0  0
   13.1657  -16.3842   22.1019 C   0  0  0  0  0  0  0  0  0  0  0  0
   14.5420  -16.3299   22.4000 O   0  0  0  0  0  0  0  0  0  0  0  0
   12.7868  -15.9313   21.0006 O   0  0  0  0  0  0  0  0  0  0  0  0
  2  1  1  0
  3  2  1  0
  4  3  1  0
  4  5  1  0
  5  7  1  0
  5  6  1  1
  7  8  2  0
 10  9  1  6
 11 10  1  0
 13 12  1  1
 12 10  1  0
 14  7  1  0
 14 13  1  0
 15 16  2  0
 15 13  1  0
 17 15  1  0
 18 25  1  0
 18 17  1  0
 18 19  1  6
 20 19  1  0
 21 20  2  0
 22 21  1  0
 23 22  1  0
 23 24  2  0
 24 20  1  0
 25 26  1  0
 27 25  2  0
M  END
$$$$
