MLH.pdb
     RDKit          3D

 27 27  0  0  1  0  0  0  0  0999 V2000
    7.0522  -11.7723   27.4297 C   0  0  0  0  0  0  0  0  0  0  0  0
    5.3918  -11.9858   26.7690 S   0  0  0  0  0  0  0  0  0  0  0  0
    5.1389  -13.6289   26.0704 C   0  0  0  0  0  0  0  0  0  0  0  0
    6.4274  -14.1587   25.4370 C   0  0  0  0  0  0  0  0  0  0  0  0
    6.0703  -15.3994   24.6614 C   0  0  2  0  0  0  0  0  0  0  0  0
    5.8446  -16.4725   25.6117 N   0  0  0  0  0  0  0  0  0  0  0  0
    7.2026  -15.8181   23.7906 C   0  0  0  0  0  0  0  0  0  0  0  0
    7.6700  -16.9862   23.7998 O   0  0  0  0  0  0  0  0  0  0  0  0
    7.1692  -13.6086   19.7278 C   0  0  0  0  0  0  0  0  0  0  0  0
    8.2870  -13.2136   20.6133 C   0  0  2  0  0  0  0  0  0  0  0  0
    9.0627  -12.0872   19.9076 C   0  0  0  0  0  0  0  0  0  0  0  0
    9.2750  -14.2285   20.9884 C   0  0  0  0  0  0  0  0  0  0  0  0
    8.9215  -15.2253   22.0372 C   0  0  2  0  0  0  0  0  0  0  0  0
    7.8277  -14.8904   22.8805 N   0  0  0  0  0  0  0  0  0  0  0  0
   10.0786  -15.6995   22.8232 C   0  0  0  0  0  0  0  0  0  0  0  0
   11.1413  -15.9222   22.2017 O   0  0  0  0  0  0  0  0  0  0  0  0
   10.0687  -15.9178   24.2204 N   0  0  0  0  0  0  0  0  0  0  0  0
   11.2965  -16.3581   24.8998 C   0  0  1  0  0  0  0  0  0  0  0  0
   11.0625  -16.0412   26.3672 C   0  0  0  0  0  0  0  0  0  0  0  0
   12.1527  -16.6238   27.1750 C   0  0  0  0  0  0  0  0  0  0  0  0
   13.2190  -17.3918   26.8103 C   0  0  0  0  0  0  0  0  0  0  0  0
   13.9095  -17.6734   27.9245 N   0  0  0  0  0  0  0  0  0  0  0  0
   13.3054  -17.1063   28.9595 C   0  0  0  0  0  0  0  0  0  0  0  0
   12.2327  -16.4634   28.5145 N   0  0  0  0  0  0  0  0  0  0  0  0
   11.4468  -17.7964   24.6766 C   0  0  0  0  0  0  0  0  0  0  0  0
   12.6710  -18.4612   24.8892 O   0  0  0  0  0  0  0  0  0  0  0  0
   10.4728  -18.4740   24.2845 O   0  0  0  0  0  0  0  0  0  0  0  0
  2  1  1  0
  3  2  1  0
  4  3  1  0
  4  5  1  0
  5  7  1  0
  5  6  1  1
  7  8  2  0
 10  9  1  6
 11 10  1  0
 13 12  1  1
 12 10  1  0
 14  7  1  0
 14 13  1  0
 15 16  2  0
 15 13  1  0
 17 15  1  0
 18 25  1  0
 18 17  1  0
 18 19  1  1
 20 19  1  0
 21 20  2  0
 22 21  1  0
 23 22  1  0
 23 24  2  0
 24 20  1  0
 25 26  1  0
 27 25  2  0
M  END
$$$$
