MLH.pdb
     RDKit          3D

 27 27  0  0  1  0  0  0  0  0999 V2000
    6.9835  -11.2831   27.9597 C   0  0  0  0  0  0  0  0  0  0  0  0
    6.7744  -12.1947   26.4220 S   0  0  0  0  0  0  0  0  0  0  0  0
    6.8275  -13.9798   26.6716 C   0  0  0  0  0  0  0  0  0  0  0  0
    6.5665  -14.7240   25.3601 C   0  0  0  0  0  0  0  0  0  0  0  0
    7.8868  -15.2681   24.8811 C   0  0  2  0  0  0  0  0  0  0  0  0
    8.8576  -14.1904   24.9238 N   0  0  0  0  0  0  0  0  0  0  0  0
    7.7887  -15.7116   23.4637 C   0  0  0  0  0  0  0  0  0  0  0  0
    6.9960  -16.6135   23.0880 O   0  0  0  0  0  0  0  0  0  0  0  0
    7.5600  -12.2450   19.3842 C   0  0  0  0  0  0  0  0  0  0  0  0
    7.7913  -13.2652   20.4308 C   0  0  2  0  0  0  0  0  0  0  0  0
    8.7193  -12.6428   21.4890 C   0  0  0  0  0  0  0  0  0  0  0  0
    8.3983  -14.5410   20.0426 C   0  0  0  0  0  0  0  0  0  0  0  0
    8.6415  -15.5716   21.0901 C   0  0  2  0  0  0  0  0  0  0  0  0
    8.6104  -15.1194   22.4371 N   0  0  0  0  0  0  0  0  0  0  0  0
    9.8282  -16.4129   20.8346 C   0  0  0  0  0  0  0  0  0  0  0  0
    9.8634  -17.0415   19.7534 O   0  0  0  0  0  0  0  0  0  0  0  0
   10.9205  -16.5564   21.7214 N   0  0  0  0  0  0  0  0  0  0  0  0
   12.0041  -17.4973   21.3997 C   0  0  1  0  0  0  0  0  0  0  0  0
   13.2694  -16.6566   21.4310 C   0  0  0  0  0  0  0  0  0  0  0  0
   13.3091  -15.7853   20.2394 C   0  0  0  0  0  0  0  0  0  0  0  0
   12.4911  -15.7286   19.1497 C   0  0  0  0  0  0  0  0  0  0  0  0
   12.9660  -14.7698   18.3418 N   0  0  0  0  0  0  0  0  0  0  0  0
   14.0458  -14.2364   18.8962 C   0  0  0  0  0  0  0  0  0  0  0  0
   14.2648  -14.8479   20.0539 N   0  0  0  0  0  0  0  0  0  0  0  0
   12.0223  -18.5365   22.4296 C   0  0  0  0  0  0  0  0  0  0  0  0
   12.9687  -19.5805   22.4205 O   0  0  0  0  0  0  0  0  0  0  0  0
   11.1811  -18.5167   23.3535 O   0  0  0  0  0  0  0  0  0  0  0  0
  2  1  1  0
  3  2  1  0
  4  3  1  0
  4  5  1  0
  5  7  1  0
  5  6  1  6
  7  8  2  0
 10  9  1  6
 11 10  1  0
 13 12  1  6
 12 10  1  0
 14  7  1  0
 14 13  1  0
 15 16  2  0
 15 13  1  0
 17 15  1  0
 18 25  1  0
 18 17  1  0
 18 19  1  1
 20 19  1  0
 21 20  2  0
 22 21  1  0
 23 22  1  0
 23 24  2  0
 24 20  1  0
 25 26  1  0
 27 25  2  0
M  END
$$$$
