MLH.pdb
     RDKit          3D

 27 27  0  0  1  0  0  0  0  0999 V2000
    7.8576  -16.7182   28.3986 C   0  0  0  0  0  0  0  0  0  0  0  0
    7.6979  -18.4862   28.1018 S   0  0  0  0  0  0  0  0  0  0  0  0
    6.6656  -18.8494   26.6685 C   0  0  0  0  0  0  0  0  0  0  0  0
    7.3282  -18.3601   25.3787 C   0  0  0  0  0  0  0  0  0  0  0  0
    6.3541  -18.5973   24.2546 C   0  0  2  0  0  0  0  0  0  0  0  0
    6.3081  -20.0242   23.9951 N   0  0  0  0  0  0  0  0  0  0  0  0
    6.8252  -17.9409   23.0045 C   0  0  0  0  0  0  0  0  0  0  0  0
    7.4010  -18.5729   22.0815 O   0  0  0  0  0  0  0  0  0  0  0  0
    7.3402  -12.1226   20.5193 C   0  0  0  0  0  0  0  0  0  0  0  0
    7.6755  -13.5591   20.6359 C   0  0  2  0  0  0  0  0  0  0  0  0
    7.3844  -14.2159   19.2749 C   0  0  0  0  0  0  0  0  0  0  0  0
    6.9770  -14.3613   21.6437 C   0  0  0  0  0  0  0  0  0  0  0  0
    7.4442  -15.7503   21.9095 C   0  0  2  0  0  0  0  0  0  0  0  0
    6.6414  -16.5270   22.7882 N   0  0  0  0  0  0  0  0  0  0  0  0
    8.8737  -15.8400   22.2698 C   0  0  0  0  0  0  0  0  0  0  0  0
    9.7005  -15.3713   21.4561 O   0  0  0  0  0  0  0  0  0  0  0  0
    9.3697  -16.4149   23.4629 N   0  0  0  0  0  0  0  0  0  0  0  0
   10.7515  -16.1419   23.8860 C   0  0  1  0  0  0  0  0  0  0  0  0
   10.7084  -16.1887   25.4041 C   0  0  0  0  0  0  0  0  0  0  0  0
    9.6625  -15.2683   25.8938 C   0  0  0  0  0  0  0  0  0  0  0  0
    8.8594  -14.3944   25.2222 C   0  0  0  0  0  0  0  0  0  0  0  0
    8.0859  -13.7823   26.1303 N   0  0  0  0  0  0  0  0  0  0  0  0
    8.3856  -14.2488   27.3346 C   0  0  0  0  0  0  0  0  0  0  0  0
    9.3459  -15.1557   27.2028 N   0  0  0  0  0  0  0  0  0  0  0  0
   11.6089  -17.1938   23.3389 C   0  0  0  0  0  0  0  0  0  0  0  0
   11.1006  -18.2196   22.5172 O   0  0  0  0  0  0  0  0  0  0  0  0
   12.8316  -17.2018   23.5967 O   0  0  0  0  0  0  0  0  0  0  0  0
  2  1  1  0
  3  2  1  0
  4  3  1  0
  4  5  1  0
  5  7  1  0
  5  6  1  6
  7  8  2  0
 10  9  1  6
 11 10  1  0
 13 12  1  1
 12 10  1  0
 14  7  1  0
 14 13  1  0
 15 16  2  0
 15 13  1  0
 17 15  1  0
 18 25  1  0
 18 17  1  0
 18 19  1  1
 20 19  1  0
 21 20  2  0
 22 21  1  0
 23 22  1  0
 23 24  2  0
 24 20  1  0
 25 26  1  0
 27 25  2  0
M  END
$$$$
