YPS.pdb
     RDKit          3D

 26 27  0  0  1  0  0  0  0  0999 V2000
    6.4378  -10.6536   27.4158 O   0  0  0  0  0  0  0  0  0  0  0  0
    6.7432  -11.9333   26.9970 C   0  0  0  0  0  0  0  0  0  0  0  0
    5.7414  -12.8989   26.9546 C   0  0  0  0  0  0  0  0  0  0  0  0
    6.0994  -14.1583   26.5297 C   0  0  0  0  0  0  0  0  0  0  0  0
    7.3872  -14.5132   26.1466 C   0  0  0  0  0  0  0  0  0  0  0  0
    7.7290  -15.8694   25.6846 C   0  0  0  0  0  0  0  0  0  0  0  0
    6.8003  -16.3415   24.5785 C   0  0  2  0  0  0  0  0  0  0  0  0
    5.9181  -17.3296   25.1107 N   0  0  0  0  0  0  0  0  0  0  0  0
    7.5369  -16.6976   23.3636 C   0  0  0  0  0  0  0  0  0  0  0  0
    8.1539  -17.8317   23.4751 O   0  0  0  0  0  0  0  0  0  0  0  0
    8.3384  -13.4877   26.2165 C   0  0  0  0  0  0  0  0  0  0  0  0
    8.0305  -12.2323   26.6292 C   0  0  0  0  0  0  0  0  0  0  0  0
    7.6637  -16.0193   22.1548 N   0  0  0  0  0  0  0  0  0  0  0  0
    6.5824  -15.2263   21.4967 C   0  0  0  0  0  0  0  0  0  0  0  0
    7.3256  -13.8955   21.3927 C   0  0  0  0  0  0  0  0  0  0  0  0
    8.8096  -14.2797   21.2623 C   0  0  0  0  0  0  0  0  0  0  0  0
    8.7096  -15.8013   21.1949 C   0  0  1  0  0  0  0  0  0  0  0  0
    9.9656  -16.4770   21.2846 C   0  0  0  0  0  0  0  0  0  0  0  0
   10.8448  -16.2858   22.1507 O   0  0  0  0  0  0  0  0  0  0  0  0
   11.7363  -20.5164   19.8735 O   0  0  0  0  0  0  0  0  0  0  0  0
   11.4837  -19.2946   19.2833 C   0  0  0  0  0  0  0  0  0  0  0  0
   11.5840  -18.1655   20.3117 C   0  0  2  0  0  0  0  0  0  0  0  0
   10.3202  -17.4918   20.3123 N   0  0  0  0  0  0  0  0  0  0  0  0
   12.7244  -17.2953   20.0591 C   0  0  0  0  0  0  0  0  0  0  0  0
   12.6352  -16.3591   19.2380 O   0  0  0  0  0  0  0  0  0  0  0  0
   13.9179  -17.4923   20.7223 O   0  0  0  0  0  0  0  0  0  0  0  0
  1  2  1  0
  2  3  2  0
  3  4  1  0
  5  4  2  0
  5  6  1  0
  7  6  1  0
  7  8  1  1
  9  7  1  0
  9 13  1  0
 10  9  2  0
 11  5  1  0
 12  2  1  0
 12 11  2  0
 13 14  1  0
 14 15  1  0
 16 15  1  0
 17 13  1  0
 17 16  1  0
 17 18  1  1
 19 18  2  0
 20 21  1  0
 22 21  1  6
 22 24  1  0
 22 23  1  0
 23 18  1  0
 24 26  1  0
 25 24  2  0
M  END
$$$$
