YPS.pdb
     RDKit          3D

 26 27  0  0  1  0  0  0  0  0999 V2000
    7.5030  -11.3777   27.2035 O   0  0  0  0  0  0  0  0  0  0  0  0
    7.2254  -12.6995   26.9169 C   0  0  0  0  0  0  0  0  0  0  0  0
    8.2430  -13.6464   26.9918 C   0  0  0  0  0  0  0  0  0  0  0  0
    7.9125  -14.9495   26.6961 C   0  0  0  0  0  0  0  0  0  0  0  0
    6.6375  -15.3653   26.3322 C   0  0  0  0  0  0  0  0  0  0  0  0
    6.3195  -16.7726   26.0357 C   0  0  0  0  0  0  0  0  0  0  0  0
    6.2613  -17.0370   24.5406 C   0  0  2  0  0  0  0  0  0  0  0  0
    5.6466  -18.3069   24.3228 N   0  0  0  0  0  0  0  0  0  0  0  0
    7.5569  -16.8099   23.8963 C   0  0  0  0  0  0  0  0  0  0  0  0
    8.5170  -17.4591   24.4762 O   0  0  0  0  0  0  0  0  0  0  0  0
    5.6689  -14.3552   26.2794 C   0  0  0  0  0  0  0  0  0  0  0  0
    5.9496  -13.0581   26.5625 C   0  0  0  0  0  0  0  0  0  0  0  0
    7.8911  -16.0280   22.7943 N   0  0  0  0  0  0  0  0  0  0  0  0
    6.9140  -15.4403   21.8295 C   0  0  0  0  0  0  0  0  0  0  0  0
    7.3242  -13.9758   21.9743 C   0  0  0  0  0  0  0  0  0  0  0  0
    8.8222  -14.0165   22.3223 C   0  0  0  0  0  0  0  0  0  0  0  0
    9.1024  -15.5134   22.2193 C   0  0  1  0  0  0  0  0  0  0  0  0
   10.3894  -15.9046   22.7017 C   0  0  0  0  0  0  0  0  0  0  0  0
   10.9522  -15.4751   23.7306 O   0  0  0  0  0  0  0  0  0  0  0  0
   13.8951  -19.2414   22.2089 O   0  0  0  0  0  0  0  0  0  0  0  0
   12.6711  -18.7297   21.8279 C   0  0  0  0  0  0  0  0  0  0  0  0
   12.4626  -17.3316   22.4148 C   0  0  2  0  0  0  0  0  0  0  0  0
   11.1725  -16.8875   21.9795 N   0  0  0  0  0  0  0  0  0  0  0  0
   13.5520  -16.4270   22.0733 C   0  0  0  0  0  0  0  0  0  0  0  0
   13.4484  -15.6521   21.1000 O   0  0  0  0  0  0  0  0  0  0  0  0
   14.7125  -16.4131   22.8192 O   0  0  0  0  0  0  0  0  0  0  0  0
  1  2  1  0
  2  3  2  0
  3  4  1  0
  5  4  2  0
  5  6  1  0
  7  6  1  0
  7  8  1  1
  9  7  1  0
  9 13  1  0
 10  9  2  0
 11  5  1  0
 12  2  1  0
 12 11  2  0
 13 14  1  0
 14 15  1  0
 16 15  1  0
 17 13  1  0
 17 16  1  0
 17 18  1  1
 19 18  2  0
 20 21  1  0
 22 21  1  6
 22 24  1  0
 22 23  1  0
 23 18  1  0
 24 26  1  0
 25 24  2  0
M  END
$$$$
