YPS.pdb
     RDKit          3D

 26 27  0  0  1  0  0  0  0  0999 V2000
    9.8325  -13.9520   30.5903 O   0  0  0  0  0  0  0  0  0  0  0  0
    9.6688  -14.3470   29.2775 C   0  0  0  0  0  0  0  0  0  0  0  0
    9.9674  -15.6568   28.9126 C   0  0  0  0  0  0  0  0  0  0  0  0
    9.7866  -15.9983   27.5915 C   0  0  0  0  0  0  0  0  0  0  0  0
    9.3292  -15.1201   26.6165 C   0  0  0  0  0  0  0  0  0  0  0  0
    9.1357  -15.5269   25.2141 C   0  0  0  0  0  0  0  0  0  0  0  0
    7.7307  -16.0489   24.9647 C   0  0  2  0  0  0  0  0  0  0  0  0
    7.4182  -17.0200   25.9633 N   0  0  0  0  0  0  0  0  0  0  0  0
    7.5380  -16.4493   23.5691 C   0  0  0  0  0  0  0  0  0  0  0  0
    7.4247  -17.7333   23.4352 O   0  0  0  0  0  0  0  0  0  0  0  0
    9.0505  -13.8216   27.0613 C   0  0  0  0  0  0  0  0  0  0  0  0
    9.2140  -13.4410   28.3533 C   0  0  0  0  0  0  0  0  0  0  0  0
    7.4620  -15.6788   22.4124 N   0  0  0  0  0  0  0  0  0  0  0  0
    6.4092  -14.6583   22.1272 C   0  0  0  0  0  0  0  0  0  0  0  0
    7.3290  -13.4609   21.8938 C   0  0  0  0  0  0  0  0  0  0  0  0
    8.6290  -14.0632   21.3334 C   0  0  0  0  0  0  0  0  0  0  0  0
    8.2377  -15.5337   21.2125 C   0  0  1  0  0  0  0  0  0  0  0  0
    9.3267  -16.4083   20.9105 C   0  0  0  0  0  0  0  0  0  0  0  0
   10.4948  -16.3060   21.3406 O   0  0  0  0  0  0  0  0  0  0  0  0
   11.1733  -18.2919   17.1527 O   0  0  0  0  0  0  0  0  0  0  0  0
   10.1779  -17.6916   17.8970 C   0  0  0  0  0  0  0  0  0  0  0  0
   10.2058  -18.1933   19.3427 C   0  0  2  0  0  0  0  0  0  0  0  0
    9.1306  -17.5416   20.0284 N   0  0  0  0  0  0  0  0  0  0  0  0
   11.5105  -18.0044   19.9621 C   0  0  0  0  0  0  0  0  0  0  0  0
   11.9363  -16.8554   20.2009 O   0  0  0  0  0  0  0  0  0  0  0  0
   12.2938  -19.0906   20.2936 O   0  0  0  0  0  0  0  0  0  0  0  0
  1  2  1  0
  2  3  2  0
  3  4  1  0
  5  4  2  0
  5  6  1  0
  7  6  1  0
  7  8  1  1
  9  7  1  0
  9 13  1  0
 10  9  2  0
 11  5  1  0
 12  2  1  0
 12 11  2  0
 13 14  1  0
 14 15  1  0
 16 15  1  0
 17 13  1  0
 17 16  1  0
 17 18  1  1
 19 18  2  0
 20 21  1  0
 22 21  1  6
 22 24  1  0
 22 23  1  0
 23 18  1  0
 24 26  1  0
 25 24  2  0
M  END
$$$$
