YPS.pdb
     RDKit          3D

 26 27  0  0  1  0  0  0  0  0999 V2000
    5.8089  -10.7456   28.1692 O   0  0  0  0  0  0  0  0  0  0  0  0
    6.3625  -11.6912   27.3292 C   0  0  0  0  0  0  0  0  0  0  0  0
    5.6200  -12.1740   26.2552 C   0  0  0  0  0  0  0  0  0  0  0  0
    6.2190  -13.1154   25.4492 C   0  0  0  0  0  0  0  0  0  0  0  0
    7.5053  -13.6031   25.6461 C   0  0  0  0  0  0  0  0  0  0  0  0
    8.1174  -14.6019   24.7532 C   0  0  0  0  0  0  0  0  0  0  0  0
    7.0721  -15.4754   24.0799 C   0  0  2  0  0  0  0  0  0  0  0  0
    6.5378  -16.3793   25.0471 N   0  0  0  0  0  0  0  0  0  0  0  0
    7.5714  -16.0596   22.8331 C   0  0  0  0  0  0  0  0  0  0  0  0
    8.0690  -17.2435   23.0074 O   0  0  0  0  0  0  0  0  0  0  0  0
    8.1878  -13.0691   26.7463 C   0  0  0  0  0  0  0  0  0  0  0  0
    7.6368  -12.1399   27.5674 C   0  0  0  0  0  0  0  0  0  0  0  0
    7.5871  -15.5459   21.5396 N   0  0  0  0  0  0  0  0  0  0  0  0
    6.4829  -14.7579   20.9144 C   0  0  0  0  0  0  0  0  0  0  0  0
    7.2880  -13.5112   20.5514 C   0  0  0  0  0  0  0  0  0  0  0  0
    8.7173  -14.0220   20.3000 C   0  0  0  0  0  0  0  0  0  0  0  0
    8.5156  -15.5282   20.4440 C   0  0  1  0  0  0  0  0  0  0  0  0
    9.7286  -16.2830   20.4739 C   0  0  0  0  0  0  0  0  0  0  0  0
   10.7507  -16.0089   21.1371 O   0  0  0  0  0  0  0  0  0  0  0  0
    9.6800  -20.1252   19.0199 O   0  0  0  0  0  0  0  0  0  0  0  0
   10.6686  -19.7188   19.8932 C   0  0  0  0  0  0  0  0  0  0  0  0
   11.0614  -18.2637   19.6269 C   0  0  2  0  0  0  0  0  0  0  0  0
    9.8565  -17.4919   19.6844 N   0  0  0  0  0  0  0  0  0  0  0  0
   11.8059  -18.1169   18.3836 C   0  0  0  0  0  0  0  0  0  0  0  0
   11.3152  -17.4869   17.4239 O   0  0  0  0  0  0  0  0  0  0  0  0
   13.0620  -18.6710   18.2482 O   0  0  0  0  0  0  0  0  0  0  0  0
  1  2  1  0
  2  3  2  0
  3  4  1  0
  5  4  2  0
  5  6  1  0
  7  6  1  0
  7  8  1  1
  9  7  1  0
  9 13  1  0
 10  9  2  0
 11  5  1  0
 12  2  1  0
 12 11  2  0
 13 14  1  0
 14 15  1  0
 16 15  1  0
 17 13  1  0
 17 16  1  0
 17 18  1  1
 19 18  2  0
 20 21  1  0
 22 21  1  6
 22 24  1  0
 22 23  1  0
 23 18  1  0
 24 26  1  0
 25 24  2  0
M  END
$$$$
