YPS.pdb
     RDKit          3D

 26 27  0  0  1  0  0  0  0  0999 V2000
    9.8450  -14.0823   30.5208 O   0  0  0  0  0  0  0  0  0  0  0  0
    9.6889  -14.3815   29.1819 C   0  0  0  0  0  0  0  0  0  0  0  0
    9.8987  -15.6851   28.7410 C   0  0  0  0  0  0  0  0  0  0  0  0
    9.7298  -15.9292   27.3970 C   0  0  0  0  0  0  0  0  0  0  0  0
    9.3668  -14.9599   26.4699 C   0  0  0  0  0  0  0  0  0  0  0  0
    9.1827  -15.2629   25.0402 C   0  0  0  0  0  0  0  0  0  0  0  0
    7.7563  -15.6848   24.7301 C   0  0  2  0  0  0  0  0  0  0  0  0
    7.3097  -16.5774   25.7507 N   0  0  0  0  0  0  0  0  0  0  0  0
    7.6111  -16.1380   23.3449 C   0  0  0  0  0  0  0  0  0  0  0  0
    7.5380  -17.4286   23.2529 O   0  0  0  0  0  0  0  0  0  0  0  0
    9.1737  -13.6740   26.9901 C   0  0  0  0  0  0  0  0  0  0  0  0
    9.3291  -13.3878   28.3073 C   0  0  0  0  0  0  0  0  0  0  0  0
    7.5430  -15.4098   22.1605 N   0  0  0  0  0  0  0  0  0  0  0  0
    6.5881  -14.2931   21.8920 C   0  0  0  0  0  0  0  0  0  0  0  0
    7.6125  -13.2127   21.5493 C   0  0  0  0  0  0  0  0  0  0  0  0
    8.8028  -13.9742   20.9408 C   0  0  0  0  0  0  0  0  0  0  0  0
    8.2511  -15.3971   20.9111 C   0  0  1  0  0  0  0  0  0  0  0  0
    9.2197  -16.3958   20.5853 C   0  0  0  0  0  0  0  0  0  0  0  0
   10.3090  -16.5831   21.1668 O   0  0  0  0  0  0  0  0  0  0  0  0
    8.1684  -19.8463   18.6388 O   0  0  0  0  0  0  0  0  0  0  0  0
    9.2343  -19.1940   18.0526 C   0  0  0  0  0  0  0  0  0  0  0  0
    9.9404  -18.2910   19.0667 C   0  0  2  0  0  0  0  0  0  0  0  0
    8.9829  -17.3128   19.4879 N   0  0  0  0  0  0  0  0  0  0  0  0
   11.1733  -17.7284   18.5327 C   0  0  0  0  0  0  0  0  0  0  0  0
   11.1455  -16.6935   17.8350 O   0  0  0  0  0  0  0  0  0  0  0  0
   12.3880  -18.3297   18.7897 O   0  0  0  0  0  0  0  0  0  0  0  0
  1  2  1  0
  2  3  2  0
  3  4  1  0
  5  4  2  0
  5  6  1  0
  7  6  1  0
  7  8  1  1
  9  7  1  0
  9 13  1  0
 10  9  2  0
 11  5  1  0
 12  2  1  0
 12 11  2  0
 13 14  1  0
 14 15  1  0
 16 15  1  0
 17 13  1  0
 17 16  1  0
 17 18  1  1
 19 18  2  0
 20 21  1  0
 22 21  1  6
 22 24  1  0
 22 23  1  0
 23 18  1  0
 24 26  1  0
 25 24  2  0
M  END
$$$$
