YPS.pdb
     RDKit          3D

 26 27  0  0  1  0  0  0  0  0999 V2000
    5.6268  -10.4532   27.8019 O   0  0  0  0  0  0  0  0  0  0  0  0
    6.2089  -11.5194   27.1455 C   0  0  0  0  0  0  0  0  0  0  0  0
    5.5534  -12.0999   26.0633 C   0  0  0  0  0  0  0  0  0  0  0  0
    6.1773  -13.1595   25.4449 C   0  0  0  0  0  0  0  0  0  0  0  0
    7.4075  -13.6739   25.8359 C   0  0  0  0  0  0  0  0  0  0  0  0
    8.0501  -14.8019   25.1399 C   0  0  0  0  0  0  0  0  0  0  0  0
    7.0284  -15.7454   24.5278 C   0  0  2  0  0  0  0  0  0  0  0  0
    6.5319  -16.6096   25.5498 N   0  0  0  0  0  0  0  0  0  0  0  0
    7.5362  -16.3833   23.3110 C   0  0  0  0  0  0  0  0  0  0  0  0
    7.9574  -17.5900   23.5253 O   0  0  0  0  0  0  0  0  0  0  0  0
    8.0037  -13.0369   26.9314 C   0  0  0  0  0  0  0  0  0  0  0  0
    7.4253  -11.9895   27.5714 C   0  0  0  0  0  0  0  0  0  0  0  0
    7.6272  -15.8982   22.0095 N   0  0  0  0  0  0  0  0  0  0  0  0
    6.5283  -15.2062   21.2714 C   0  0  0  0  0  0  0  0  0  0  0  0
    7.2721  -13.9128   20.9429 C   0  0  0  0  0  0  0  0  0  0  0  0
    8.7501  -14.3240   20.8275 C   0  0  0  0  0  0  0  0  0  0  0  0
    8.6431  -15.8374   20.9962 C   0  0  1  0  0  0  0  0  0  0  0  0
    9.8991  -16.5014   21.1495 C   0  0  0  0  0  0  0  0  0  0  0  0
   10.8492  -16.1241   21.8670 O   0  0  0  0  0  0  0  0  0  0  0  0
   10.7150  -19.7903   18.6893 O   0  0  0  0  0  0  0  0  0  0  0  0
   11.1349  -19.8638   20.0021 C   0  0  0  0  0  0  0  0  0  0  0  0
   11.3903  -18.4648   20.5678 C   0  0  2  0  0  0  0  0  0  0  0  0
   10.1659  -17.7340   20.4349 N   0  0  0  0  0  0  0  0  0  0  0  0
   12.5392  -17.8235   19.9430 C   0  0  0  0  0  0  0  0  0  0  0  0
   12.3761  -16.9150   19.1023 O   0  0  0  0  0  0  0  0  0  0  0  0
   13.8225  -18.2098   20.2703 O   0  0  0  0  0  0  0  0  0  0  0  0
  1  2  1  0
  2  3  2  0
  3  4  1  0
  5  4  2  0
  5  6  1  0
  7  6  1  0
  7  8  1  1
  9  7  1  0
  9 13  1  0
 10  9  2  0
 11  5  1  0
 12  2  1  0
 12 11  2  0
 13 14  1  0
 14 15  1  0
 16 15  1  0
 17 13  1  0
 17 16  1  0
 17 18  1  1
 19 18  2  0
 20 21  1  0
 22 21  1  6
 22 24  1  0
 22 23  1  0
 23 18  1  0
 24 26  1  0
 25 24  2  0
M  END
$$$$
