YPS.pdb
     RDKit          3D

 26 27  0  0  1  0  0  0  0  0999 V2000
    7.3243  -13.8833   13.3443 O   0  0  0  0  0  0  0  0  0  0  0  0
    7.5433  -14.2656   14.6528 C   0  0  0  0  0  0  0  0  0  0  0  0
    7.5196  -13.3063   15.6613 C   0  0  0  0  0  0  0  0  0  0  0  0
    7.7440  -13.7408   16.9479 C   0  0  0  0  0  0  0  0  0  0  0  0
    7.9893  -15.0650   17.2902 C   0  0  0  0  0  0  0  0  0  0  0  0
    8.2120  -15.4937   18.6817 C   0  0  0  0  0  0  0  0  0  0  0  0
    9.6112  -15.1485   19.1633 C   0  0  2  0  0  0  0  0  0  0  0  0
   10.5597  -15.6984   18.2491 N   0  0  0  0  0  0  0  0  0  0  0  0
    9.7945  -15.4705   20.5804 C   0  0  0  0  0  0  0  0  0  0  0  0
   10.4587  -16.5695   20.7548 O   0  0  0  0  0  0  0  0  0  0  0  0
    7.9971  -15.9698   16.2212 C   0  0  0  0  0  0  0  0  0  0  0  0
    7.7810  -15.5863   14.9377 C   0  0  0  0  0  0  0  0  0  0  0  0
    9.3744  -14.7919   21.7208 N   0  0  0  0  0  0  0  0  0  0  0  0
    9.0864  -13.3281   21.7926 C   0  0  0  0  0  0  0  0  0  0  0  0
    7.6482  -13.4172   22.3002 C   0  0  0  0  0  0  0  0  0  0  0  0
    7.5998  -14.7130   23.1281 C   0  0  0  0  0  0  0  0  0  0  0  0
    9.0636  -15.1427   23.0784 C   0  0  1  0  0  0  0  0  0  0  0  0
    9.3086  -16.4537   23.5915 C   0  0  0  0  0  0  0  0  0  0  0  0
    8.6351  -17.4773   23.3494 O   0  0  0  0  0  0  0  0  0  0  0  0
   13.0738  -17.5779   24.9391 O   0  0  0  0  0  0  0  0  0  0  0  0
   12.0699  -18.4130   24.4920 C   0  0  0  0  0  0  0  0  0  0  0  0
   10.7134  -17.9756   25.0499 C   0  0  2  0  0  0  0  0  0  0  0  0
   10.4263  -16.6922   24.4830 N   0  0  0  0  0  0  0  0  0  0  0  0
   10.6857  -18.0050   26.5060 C   0  0  0  0  0  0  0  0  0  0  0  0
   10.4756  -16.9595   27.1552 O   0  0  0  0  0  0  0  0  0  0  0  0
   10.8907  -19.1865   27.1881 O   0  0  0  0  0  0  0  0  0  0  0  0
  1  2  1  0
  2  3  2  0
  3  4  1  0
  5  4  2  0
  5  6  1  0
  7  6  1  0
  7  8  1  6
  9  7  1  0
  9 13  1  0
 10  9  2  0
 11  5  1  0
 12  2  1  0
 12 11  2  0
 13 14  1  0
 14 15  1  0
 16 15  1  0
 17 13  1  0
 17 16  1  0
 17 18  1  6
 19 18  2  0
 20 21  1  0
 22 21  1  1
 22 24  1  0
 22 23  1  0
 23 18  1  0
 24 26  1  0
 25 24  2  0
M  END
$$$$
