YPS.pdb
     RDKit          3D

 26 27  0  0  1  0  0  0  0  0999 V2000
    9.5522  -14.0856   30.2214 O   0  0  0  0  0  0  0  0  0  0  0  0
    9.4517  -14.4212   28.8859 C   0  0  0  0  0  0  0  0  0  0  0  0
    9.9745  -15.6324   28.4414 C   0  0  0  0  0  0  0  0  0  0  0  0
    9.8477  -15.9180   27.1008 C   0  0  0  0  0  0  0  0  0  0  0  0
    9.2354  -15.0758   26.1806 C   0  0  0  0  0  0  0  0  0  0  0  0
    9.1071  -15.4226   24.7548 C   0  0  0  0  0  0  0  0  0  0  0  0
    7.6633  -15.6923   24.3655 C   0  0  2  0  0  0  0  0  0  0  0  0
    7.0964  -16.6025   25.3078 N   0  0  0  0  0  0  0  0  0  0  0  0
    7.5374  -16.0427   22.9489 C   0  0  0  0  0  0  0  0  0  0  0  0
    7.4464  -17.3221   22.7632 O   0  0  0  0  0  0  0  0  0  0  0  0
    8.7347  -13.8772   26.7041 C   0  0  0  0  0  0  0  0  0  0  0  0
    8.8374  -13.5544   28.0180 C   0  0  0  0  0  0  0  0  0  0  0  0
    7.5026  -15.2307   21.8189 N   0  0  0  0  0  0  0  0  0  0  0  0
    6.6240  -14.0351   21.6465 C   0  0  0  0  0  0  0  0  0  0  0  0
    7.7160  -13.0063   21.3587 C   0  0  0  0  0  0  0  0  0  0  0  0
    8.8411  -13.8031   20.6760 C   0  0  0  0  0  0  0  0  0  0  0  0
    8.1911  -15.1793   20.5596 C   0  0  1  0  0  0  0  0  0  0  0  0
    9.0828  -16.2169   20.1470 C   0  0  0  0  0  0  0  0  0  0  0  0
   10.2237  -16.4338   20.6065 O   0  0  0  0  0  0  0  0  0  0  0  0
    8.2665  -18.2661   16.5977 O   0  0  0  0  0  0  0  0  0  0  0  0
    8.7198  -19.0305   17.6538 C   0  0  0  0  0  0  0  0  0  0  0  0
    9.5514  -18.1819   18.6185 C   0  0  2  0  0  0  0  0  0  0  0  0
    8.6932  -17.1420   19.1012 N   0  0  0  0  0  0  0  0  0  0  0  0
   10.7823  -17.7032   18.0041 C   0  0  0  0  0  0  0  0  0  0  0  0
   11.8123  -18.4087   18.0198 O   0  0  0  0  0  0  0  0  0  0  0  0
   10.8282  -16.4654   17.3968 O   0  0  0  0  0  0  0  0  0  0  0  0
  1  2  1  0
  2  3  2  0
  3  4  1  0
  5  4  2  0
  5  6  1  0
  7  6  1  0
  7  8  1  1
  9  7  1  0
  9 13  1  0
 10  9  2  0
 11  5  1  0
 12  2  1  0
 12 11  2  0
 13 14  1  0
 14 15  1  0
 16 15  1  0
 17 13  1  0
 17 16  1  0
 17 18  1  1
 19 18  2  0
 20 21  1  0
 22 21  1  6
 22 24  1  0
 22 23  1  0
 23 18  1  0
 24 26  1  0
 25 24  2  0
M  END
$$$$
