YPS.pdb
     RDKit          3D

 26 27  0  0  1  0  0  0  0  0999 V2000
    6.5914  -10.7791   26.8757 O   0  0  0  0  0  0  0  0  0  0  0  0
    6.7192  -12.1422   26.6973 C   0  0  0  0  0  0  0  0  0  0  0  0
    7.9882  -12.7040   26.5876 C   0  0  0  0  0  0  0  0  0  0  0  0
    8.0592  -14.0672   26.4108 C   0  0  0  0  0  0  0  0  0  0  0  0
    6.9500  -14.9010   26.3369 C   0  0  0  0  0  0  0  0  0  0  0  0
    7.0670  -16.3586   26.1601 C   0  0  0  0  0  0  0  0  0  0  0  0
    6.5514  -16.8075   24.8031 C   0  0  2  0  0  0  0  0  0  0  0  0
    5.7713  -17.9903   24.9772 N   0  0  0  0  0  0  0  0  0  0  0  0
    7.6214  -16.8616   23.8045 C   0  0  0  0  0  0  0  0  0  0  0  0
    8.5178  -17.7531   24.0893 O   0  0  0  0  0  0  0  0  0  0  0  0
    5.7096  -14.2618   26.4559 C   0  0  0  0  0  0  0  0  0  0  0  0
    5.5921  -12.9214   26.6311 C   0  0  0  0  0  0  0  0  0  0  0  0
    7.8057  -16.1222   22.6396 N   0  0  0  0  0  0  0  0  0  0  0  0
    6.7175  -15.4544   21.8644 C   0  0  0  0  0  0  0  0  0  0  0  0
    7.2765  -14.0328   21.8915 C   0  0  0  0  0  0  0  0  0  0  0  0
    8.8038  -14.2087   21.9483 C   0  0  0  0  0  0  0  0  0  0  0  0
    8.9247  -15.7258   21.8314 C   0  0  1  0  0  0  0  0  0  0  0  0
   10.2405  -16.2301   22.0692 C   0  0  0  0  0  0  0  0  0  0  0  0
   11.0460  -15.8117   22.9270 O   0  0  0  0  0  0  0  0  0  0  0  0
   13.4462  -19.6228   20.5724 O   0  0  0  0  0  0  0  0  0  0  0  0
   12.2340  -18.9820   20.4137 C   0  0  0  0  0  0  0  0  0  0  0  0
   12.0730  -17.8647   21.4472 C   0  0  2  0  0  0  0  0  0  0  0  0
   10.7554  -17.3298   21.2776 N   0  0  0  0  0  0  0  0  0  0  0  0
   13.1365  -16.8740   21.3518 C   0  0  0  0  0  0  0  0  0  0  0  0
   13.0556  -15.9372   20.5305 O   0  0  0  0  0  0  0  0  0  0  0  0
   14.2471  -16.9559   22.1661 O   0  0  0  0  0  0  0  0  0  0  0  0
  1  2  1  0
  2  3  2  0
  3  4  1  0
  5  4  2  0
  5  6  1  0
  7  6  1  0
  7  8  1  1
  9  7  1  0
  9 13  1  0
 10  9  2  0
 11  5  1  0
 12  2  1  0
 12 11  2  0
 13 14  1  0
 14 15  1  0
 16 15  1  0
 17 13  1  0
 17 16  1  0
 17 18  1  1
 19 18  2  0
 20 21  1  0
 22 21  1  6
 22 24  1  0
 22 23  1  0
 23 18  1  0
 24 26  1  0
 25 24  2  0
M  END
$$$$
