YPS.pdb
     RDKit          3D

 26 27  0  0  1  0  0  0  0  0999 V2000
    5.9646  -10.3815   27.1962 O   0  0  0  0  0  0  0  0  0  0  0  0
    6.4854  -11.5684   26.7204 C   0  0  0  0  0  0  0  0  0  0  0  0
    6.0763  -12.7729   27.2857 C   0  0  0  0  0  0  0  0  0  0  0  0
    6.6263  -13.9264   26.7743 C   0  0  0  0  0  0  0  0  0  0  0  0
    7.5538  -13.9540   25.7400 C   0  0  0  0  0  0  0  0  0  0  0  0
    8.1103  -15.2108   25.2104 C   0  0  0  0  0  0  0  0  0  0  0  0
    7.1254  -15.9277   24.3022 C   0  0  2  0  0  0  0  0  0  0  0  0
    6.4109  -16.8941   25.0725 N   0  0  0  0  0  0  0  0  0  0  0  0
    7.7642  -16.4026   23.0728 C   0  0  0  0  0  0  0  0  0  0  0  0
    8.5177  -17.4372   23.2759 O   0  0  0  0  0  0  0  0  0  0  0  0
    7.9148  -12.7031   25.2239 C   0  0  0  0  0  0  0  0  0  0  0  0
    7.3985  -11.5408   25.6970 C   0  0  0  0  0  0  0  0  0  0  0  0
    7.6810  -15.9210   21.7694 N   0  0  0  0  0  0  0  0  0  0  0  0
    6.4194  -15.5076   21.0849 C   0  0  0  0  0  0  0  0  0  0  0  0
    6.8287  -14.0804   20.7247 C   0  0  0  0  0  0  0  0  0  0  0  0
    8.3548  -14.1407   20.5396 C   0  0  0  0  0  0  0  0  0  0  0  0
    8.6078  -15.6364   20.7099 C   0  0  1  0  0  0  0  0  0  0  0  0
    9.9889  -15.9915   20.8030 C   0  0  0  0  0  0  0  0  0  0  0  0
   10.8637  -15.3830   21.4543 O   0  0  0  0  0  0  0  0  0  0  0  0
   13.0071  -18.6605   22.2035 O   0  0  0  0  0  0  0  0  0  0  0  0
   11.7964  -18.0961   21.8557 C   0  0  0  0  0  0  0  0  0  0  0  0
   11.7751  -17.7343   20.3687 C   0  0  2  0  0  0  0  0  0  0  0  0
   10.4929  -17.1553   20.1013 N   0  0  0  0  0  0  0  0  0  0  0  0
   12.1035  -18.8743   19.5236 C   0  0  0  0  0  0  0  0  0  0  0  0
   13.2441  -18.9864   19.0288 O   0  0  0  0  0  0  0  0  0  0  0  0
   11.1604  -19.8456   19.2579 O   0  0  0  0  0  0  0  0  0  0  0  0
  1  2  1  0
  2  3  2  0
  3  4  1  0
  5  4  2  0
  5  6  1  0
  7  6  1  0
  7  8  1  1
  9  7  1  0
  9 13  1  0
 10  9  2  0
 11  5  1  0
 12  2  1  0
 12 11  2  0
 13 14  1  0
 14 15  1  0
 16 15  1  0
 17 13  1  0
 17 16  1  0
 17 18  1  1
 19 18  2  0
 20 21  1  0
 22 21  1  1
 22 24  1  0
 22 23  1  0
 23 18  1  0
 24 26  1  0
 25 24  2  0
M  END
$$$$
