RFP.pdb
     RDKit          3D

 30 31  0  0  1  0  0  0  0  0999 V2000
   26.2356  -18.1823  -16.9040 N   0  0  0  0  0  0  0  0  0  0  0  0
   24.8247  -18.2273  -16.7278 C   0  0  0  0  0  0  0  0  0  0  0  0
   24.1013  -18.1486  -17.7920 N   0  0  0  0  0  0  0  0  0  0  0  0
   24.2307  -18.3524  -15.4421 N   0  0  0  0  0  0  0  0  0  0  0  0
   23.5289  -19.5516  -15.0946 C   0  0  0  0  0  0  0  0  0  0  0  0
   24.5178  -20.6155  -14.7732 C   0  0  0  0  0  0  0  0  0  0  0  0
   25.2532  -20.3001  -13.5081 C   0  0  0  0  0  0  0  0  0  0  0  0
   24.3240  -20.3227  -12.3395 C   0  0  2  0  0  0  0  0  0  0  0  0
   23.7440  -19.0179  -12.0833 N   0  0  0  0  0  0  0  0  0  0  0  0
   25.0420  -20.7414  -11.0856 C   0  0  0  0  0  0  0  0  0  0  0  0
   25.5015  -21.8960  -11.0254 O   0  0  0  0  0  0  0  0  0  0  0  0
   23.0683  -18.1889  -17.7528 N   0  0  0  0  0  0  0  0  0  0  0  0
   25.2141  -19.8797   -9.9783 C   0  0  1  0  0  0  0  0  0  0  0  0
   25.8089  -20.3929   -8.6960 C   0  0  0  0  0  0  0  0  0  0  0  0
   26.6834  -19.2587   -8.2818 C   0  0  0  0  0  0  0  0  0  0  0  0
   27.4072  -19.2986   -7.0461 C   0  0  0  0  0  0  0  0  0  0  0  0
   27.4085  -20.4186   -6.2450 C   0  0  0  0  0  0  0  0  0  0  0  0
   28.1018  -20.4351   -5.0284 C   0  0  0  0  0  0  0  0  0  0  0  0
   28.8023  -19.3275   -4.6024 C   0  0  0  0  0  0  0  0  0  0  0  0
   28.8093  -18.2043   -5.3931 C   0  0  0  0  0  0  0  0  0  0  0  0
   28.1285  -18.2093   -6.5721 C   0  0  0  0  0  0  0  0  0  0  0  0
   24.6660  -20.6581   -7.8196 O   0  0  0  0  0  0  0  0  0  0  0  0
   23.6003  -19.9640   -8.0752 N   0  0  0  0  0  0  0  0  0  0  0  0
   24.5868  -21.5702   -6.7528 C   0  0  0  0  0  0  0  0  0  0  0  0
   25.6959  -22.3148   -6.2240 C   0  0  0  0  0  0  0  0  0  0  0  0
   25.0816  -23.6153   -5.8039 C   0  0  0  0  0  0  0  0  0  0  0  0
   23.5833  -23.4049   -5.8053 C   0  0  1  0  0  0  0  0  0  0  0  0
   23.4406  -21.9090   -5.9866 C   0  0  0  0  0  0  0  0  0  0  0  0
   23.5128  -21.2790   -4.6029 O   0  0  0  0  0  0  0  0  0  0  0  0
   22.4292  -21.4051   -3.7513 O   0  0  0  0  0  0  0  0  0  0  0  0
  1  2  1  0
  2  3  2  0
  4  2  1  0
  4  5  1  0
  6  5  1  0
  7  8  1  0
  7  6  1  0
  8  9  1  1
 10  8  1  0
 11 10  2  0
 12 10  1  0
 13 12  1  0
 13 14  1  6
 15 14  1  0
 16 15  2  0
 17 16  1  0
 18 17  2  0
 18 19  1  0
 19 20  2  0
 20 15  1  0
 21 13  1  0
 21 23  1  0
 22 21  2  0
 23 27  1  0
 24 23  1  0
 24 25  1  0
 25 26  1  0
 27 26  1  0
 27 28  1  1
 28 29  1  0
 30 28  2  0
M  END
$$$$
