RFP.pdb
     RDKit          3D

 30 31  0  0  1  0  0  0  0  0999 V2000
   21.0446  -17.8998  -14.0239 N   0  0  0  0  0  0  0  0  0  0  0  0
   21.1990  -19.2450  -14.4602 C   0  0  0  0  0  0  0  0  0  0  0  0
   20.1372  -19.8507  -14.8697 N   0  0  0  0  0  0  0  0  0  0  0  0
   22.4610  -19.8997  -14.4481 N   0  0  0  0  0  0  0  0  0  0  0  0
   22.7072  -20.9563  -13.5130 C   0  0  0  0  0  0  0  0  0  0  0  0
   23.2212  -20.3711  -12.2454 C   0  0  0  0  0  0  0  0  0  0  0  0
   24.2885  -21.2351  -11.6496 C   0  0  0  0  0  0  0  0  0  0  0  0
   25.5762  -20.4862  -11.5479 C   0  0  2  0  0  0  0  0  0  0  0  0
   26.4386  -20.7343  -12.6877 N   0  0  0  0  0  0  0  0  0  0  0  0
   26.3417  -20.8909  -10.3177 C   0  0  0  0  0  0  0  0  0  0  0  0
   26.8525  -22.0248  -10.2862 O   0  0  0  0  0  0  0  0  0  0  0  0
   20.1598  -20.8350  -15.1876 N   0  0  0  0  0  0  0  0  0  0  0  0
   26.5026  -20.0384   -9.2016 C   0  0  1  0  0  0  0  0  0  0  0  0
   27.2218  -20.5182   -7.9712 C   0  0  0  0  0  0  0  0  0  0  0  0
   28.1344  -19.3763   -7.6780 C   0  0  0  0  0  0  0  0  0  0  0  0
   28.8566  -19.3076   -6.4426 C   0  0  0  0  0  0  0  0  0  0  0  0
   28.4947  -18.4342   -5.4414 C   0  0  0  0  0  0  0  0  0  0  0  0
   29.2240  -18.3618   -4.2482 C   0  0  0  0  0  0  0  0  0  0  0  0
   30.3247  -19.1659   -4.0460 C   0  0  0  0  0  0  0  0  0  0  0  0
   30.6953  -20.0420   -5.0370 C   0  0  0  0  0  0  0  0  0  0  0  0
   29.9725  -20.0962   -6.1895 C   0  0  0  0  0  0  0  0  0  0  0  0
   26.1719  -20.7549   -6.9782 O   0  0  0  0  0  0  0  0  0  0  0  0
   25.0338  -20.1856   -7.2303 N   0  0  0  0  0  0  0  0  0  0  0  0
   26.2492  -21.5229   -5.8032 C   0  0  0  0  0  0  0  0  0  0  0  0
   27.4573  -22.0869   -5.2680 C   0  0  0  0  0  0  0  0  0  0  0  0
   27.0031  -23.3721   -4.6457 C   0  0  0  0  0  0  0  0  0  0  0  0
   25.4939  -23.3021   -4.5643 C   0  0  1  0  0  0  0  0  0  0  0  0
   25.1911  -21.8622   -4.9194 C   0  0  0  0  0  0  0  0  0  0  0  0
   25.2832  -21.0526   -3.6339 O   0  0  0  0  0  0  0  0  0  0  0  0
   24.1788  -20.9866   -2.8024 O   0  0  0  0  0  0  0  0  0  0  0  0
  1  2  1  0
  2  3  2  0
  4  2  1  0
  4  5  1  0
  6  5  1  0
  7  8  1  0
  7  6  1  0
  8  9  1  6
 10  8  1  0
 11 10  2  0
 12 10  1  0
 13 12  1  0
 13 14  1  1
 15 14  1  0
 16 15  2  0
 17 16  1  0
 18 17  2  0
 18 19  1  0
 19 20  2  0
 20 15  1  0
 21 13  1  0
 21 23  1  0
 22 21  2  0
 23 27  1  0
 24 23  1  0
 24 25  1  0
 25 26  1  0
 27 26  1  0
 27 28  1  1
 28 29  1  0
 30 28  2  0
M  END
$$$$
