RFP.pdb
     RDKit          3D

 30 31  0  0  1  0  0  0  0  0999 V2000
   19.1067  -22.4154  -13.0969 N   0  0  0  0  0  0  0  0  0  0  0  0
   19.8707  -22.8192  -11.9668 C   0  0  0  0  0  0  0  0  0  0  0  0
   19.3684  -23.7453  -11.2240 N   0  0  0  0  0  0  0  0  0  0  0  0
   21.1302  -22.2340  -11.6623 N   0  0  0  0  0  0  0  0  0  0  0  0
   21.7580  -21.3606  -12.6080 C   0  0  0  0  0  0  0  0  0  0  0  0
   22.9297  -22.0558  -13.2056 C   0  0  0  0  0  0  0  0  0  0  0  0
   24.1733  -21.7855  -12.4175 C   0  0  0  0  0  0  0  0  0  0  0  0
   24.2297  -20.3537  -11.9978 C   0  0  2  0  0  0  0  0  0  0  0  0
   24.2862  -19.4571  -13.1369 N   0  0  0  0  0  0  0  0  0  0  0  0
   25.4502  -20.0830  -11.1610 C   0  0  0  0  0  0  0  0  0  0  0  0
   26.4985  -19.7426  -11.7380 O   0  0  0  0  0  0  0  0  0  0  0  0
   19.8398  -24.0674  -10.3613 N   0  0  0  0  0  0  0  0  0  0  0  0
   25.4534  -20.1996   -9.7522 C   0  0  2  0  0  0  0  0  0  0  0  0
   26.7035  -19.9187   -8.9652 C   0  0  0  0  0  0  0  0  0  0  0  0
   26.1834  -19.8423   -7.5701 C   0  0  0  0  0  0  0  0  0  0  0  0
   27.0649  -19.6033   -6.4663 C   0  0  0  0  0  0  0  0  0  0  0  0
   27.5260  -20.6308   -5.6740 C   0  0  0  0  0  0  0  0  0  0  0  0
   28.3688  -20.3797   -4.5842 C   0  0  0  0  0  0  0  0  0  0  0  0
   28.7589  -19.0940   -4.2777 C   0  0  0  0  0  0  0  0  0  0  0  0
   28.3063  -18.0605   -5.0612 C   0  0  0  0  0  0  0  0  0  0  0  0
   27.4874  -18.3266   -6.1158 C   0  0  0  0  0  0  0  0  0  0  0  0
   27.5957  -21.0463   -9.2426 O   0  0  0  0  0  0  0  0  0  0  0  0
   27.0038  -22.1482   -9.5864 N   0  0  0  0  0  0  0  0  0  0  0  0
   29.0003  -21.0723   -9.1883 C   0  0  0  0  0  0  0  0  0  0  0  0
   29.8255  -19.9866   -8.7362 C   0  0  0  0  0  0  0  0  0  0  0  0
   31.0546  -20.0981   -9.5861 C   0  0  0  0  0  0  0  0  0  0  0  0
   31.0016  -21.4592  -10.2447 C   0  0  1  0  0  0  0  0  0  0  0  0
   29.8601  -22.1494   -9.5294 C   0  0  0  0  0  0  0  0  0  0  0  0
   30.4375  -22.7941   -8.2774 O   0  0  0  0  0  0  0  0  0  0  0  0
   31.1550  -23.9713   -8.3993 O   0  0  0  0  0  0  0  0  0  0  0  0
  1  2  1  0
  2  3  2  0
  4  2  1  0
  4  5  1  0
  6  5  1  0
  7  8  1  0
  7  6  1  0
  8  9  1  6
 10  8  1  0
 11 10  2  0
 12 10  1  0
 13 12  1  0
 13 14  1  6
 15 14  1  0
 16 15  2  0
 17 16  1  0
 18 17  2  0
 18 19  1  0
 19 20  2  0
 20 15  1  0
 21 13  1  0
 21 23  1  0
 22 21  2  0
 23 27  1  0
 24 23  1  0
 24 25  1  0
 25 26  1  0
 27 26  1  0
 27 28  1  1
 28 29  1  0
 30 28  2  0
M  END
$$$$
