RFP.pdb
     RDKit          3D

 30 31  0  0  1  0  0  0  0  0999 V2000
   26.1871  -18.1362  -22.6758 N   0  0  0  0  0  0  0  0  0  0  0  0
   25.0742  -18.5954  -21.9179 C   0  0  0  0  0  0  0  0  0  0  0  0
   24.0726  -19.0659  -22.5792 N   0  0  0  0  0  0  0  0  0  0  0  0
   25.0578  -18.5413  -20.4972 N   0  0  0  0  0  0  0  0  0  0  0  0
   26.1644  -17.9665  -19.7928 C   0  0  0  0  0  0  0  0  0  0  0  0
   27.2238  -18.9984  -19.6305 C   0  0  0  0  0  0  0  0  0  0  0  0
   26.8947  -19.9336  -18.5091 C   0  0  0  0  0  0  0  0  0  0  0  0
   26.5236  -19.1716  -17.2799 C   0  0  2  0  0  0  0  0  0  0  0  0
   27.3652  -18.0052  -17.0909 N   0  0  0  0  0  0  0  0  0  0  0  0
   26.6685  -20.0255  -16.0497 C   0  0  0  0  0  0  0  0  0  0  0  0
   26.6641  -21.2621  -16.1851 O   0  0  0  0  0  0  0  0  0  0  0  0
   23.2131  -19.3939  -22.1060 N   0  0  0  0  0  0  0  0  0  0  0  0
   26.8085  -19.4812  -14.7526 C   0  0  1  0  0  0  0  0  0  0  0  0
   26.7440  -20.3690  -13.5406 C   0  0  0  0  0  0  0  0  0  0  0  0
   27.5980  -19.6304  -12.5671 C   0  0  0  0  0  0  0  0  0  0  0  0
   27.5810  -19.9597  -11.1728 C   0  0  0  0  0  0  0  0  0  0  0  0
   26.7026  -19.3588  -10.2989 C   0  0  0  0  0  0  0  0  0  0  0  0
   26.7130  -19.6738   -8.9345 C   0  0  0  0  0  0  0  0  0  0  0  0
   27.6050  -20.5961   -8.4318 C   0  0  0  0  0  0  0  0  0  0  0  0
   28.4858  -21.2030   -9.2936 C   0  0  0  0  0  0  0  0  0  0  0  0
   28.4590  -20.8821  -10.6165 C   0  0  0  0  0  0  0  0  0  0  0  0
   25.3229  -20.4489  -13.1961 O   0  0  0  0  0  0  0  0  0  0  0  0
   24.6153  -19.4121  -13.5237 N   0  0  0  0  0  0  0  0  0  0  0  0
   24.6429  -21.5065  -12.5672 C   0  0  0  0  0  0  0  0  0  0  0  0
   25.2649  -22.7005  -12.0656 C   0  0  0  0  0  0  0  0  0  0  0  0
   24.2301  -23.7606  -12.2909 C   0  0  0  0  0  0  0  0  0  0  0  0
   22.9354  -23.0409  -12.5993 C   0  0  1  0  0  0  0  0  0  0  0  0
   23.2549  -21.5957  -12.2825 C   0  0  0  0  0  0  0  0  0  0  0  0
   22.9963  -21.3928  -10.7964 O   0  0  0  0  0  0  0  0  0  0  0  0
   21.7063  -21.1292  -10.3701 O   0  0  0  0  0  0  0  0  0  0  0  0
  1  2  1  0
  2  3  2  0
  4  2  1  0
  4  5  1  0
  6  5  1  0
  7  8  1  0
  7  6  1  0
  8  9  1  1
 10  8  1  0
 11 10  2  0
 12 10  1  0
 13 12  1  0
 13 14  1  1
 15 14  1  0
 16 15  2  0
 17 16  1  0
 18 17  2  0
 18 19  1  0
 19 20  2  0
 20 15  1  0
 21 13  1  0
 21 23  1  0
 22 21  2  0
 23 27  1  0
 24 23  1  0
 24 25  1  0
 25 26  1  0
 27 26  1  0
 27 28  1  1
 28 29  1  0
 30 28  2  0
M  END
$$$$
