RFP.pdb
     RDKit          3D

 30 31  0  0  1  0  0  0  0  0999 V2000
   29.0202  -18.1174  -21.7393 N   0  0  0  0  0  0  0  0  0  0  0  0
   28.2094  -17.0104  -21.3638 C   0  0  0  0  0  0  0  0  0  0  0  0
   27.7472  -16.2761  -22.3173 N   0  0  0  0  0  0  0  0  0  0  0  0
   27.9174  -16.7189  -20.0032 N   0  0  0  0  0  0  0  0  0  0  0  0
   28.4802  -17.5281  -18.9641 C   0  0  0  0  0  0  0  0  0  0  0  0
   28.2258  -18.9607  -19.2744 C   0  0  0  0  0  0  0  0  0  0  0  0
   27.4214  -19.6096  -18.1915 C   0  0  0  0  0  0  0  0  0  0  0  0
   28.3119  -20.3331  -17.2360 C   0  0  2  0  0  0  0  0  0  0  0  0
   29.0820  -21.3718  -17.8936 N   0  0  0  0  0  0  0  0  0  0  0  0
   27.5123  -20.9969  -16.1482 C   0  0  0  0  0  0  0  0  0  0  0  0
   26.9100  -22.0516  -16.4176 O   0  0  0  0  0  0  0  0  0  0  0  0
   27.1349  -15.4633  -22.1312 N   0  0  0  0  0  0  0  0  0  0  0  0
   27.4185  -20.4725  -14.8389 C   0  0  2  0  0  0  0  0  0  0  0  0
   26.4776  -21.0827  -13.8371 C   0  0  0  0  0  0  0  0  0  0  0  0
   27.0047  -20.5492  -12.5486 C   0  0  0  0  0  0  0  0  0  0  0  0
   26.2243  -20.6145  -11.3489 C   0  0  0  0  0  0  0  0  0  0  0  0
   25.2078  -19.7201  -11.0983 C   0  0  0  0  0  0  0  0  0  0  0  0
   24.4685  -19.7817   -9.9106 C   0  0  0  0  0  0  0  0  0  0  0  0
   24.7408  -20.7426   -8.9610 C   0  0  0  0  0  0  0  0  0  0  0  0
   25.7520  -21.6412   -9.1998 C   0  0  0  0  0  0  0  0  0  0  0  0
   26.4586  -21.5634  -10.3609 C   0  0  0  0  0  0  0  0  0  0  0  0
   25.1464  -20.6055  -14.2175 O   0  0  0  0  0  0  0  0  0  0  0  0
   25.1159  -19.4297  -14.7647 N   0  0  0  0  0  0  0  0  0  0  0  0
   23.9146  -21.2665  -14.0683 C   0  0  0  0  0  0  0  0  0  0  0  0
   23.7377  -22.5400  -13.4271 C   0  0  0  0  0  0  0  0  0  0  0  0
   22.6169  -23.1710  -14.1957 C   0  0  0  0  0  0  0  0  0  0  0  0
   21.9870  -22.0707  -15.0214 C   0  0  1  0  0  0  0  0  0  0  0  0
   22.6336  -20.8138  -14.4801 C   0  0  0  0  0  0  0  0  0  0  0  0
   21.8105  -20.3647  -13.2812 O   0  0  0  0  0  0  0  0  0  0  0  0
   20.6350  -19.6673  -13.4981 O   0  0  0  0  0  0  0  0  0  0  0  0
  1  2  1  0
  2  3  2  0
  4  2  1  0
  4  5  1  0
  6  5  1  0
  7  8  1  0
  7  6  1  0
  8  9  1  6
 10  8  1  0
 11 10  2  0
 12 10  1  0
 13 12  1  0
 13 14  1  1
 15 14  1  0
 16 15  2  0
 17 16  1  0
 18 17  2  0
 18 19  1  0
 19 20  2  0
 20 15  1  0
 21 13  1  0
 21 23  1  0
 22 21  2  0
 23 27  1  0
 24 23  1  0
 24 25  1  0
 25 26  1  0
 27 26  1  0
 27 28  1  1
 28 29  1  0
 30 28  2  0
M  END
$$$$
