RFP.pdb
     RDKit          3D

 30 31  0  0  1  0  0  0  0  0999 V2000
   24.9576  -19.6294  -11.2351 N   0  0  0  0  0  0  0  0  0  0  0  0
   25.9867  -20.2433  -10.4682 C   0  0  0  0  0  0  0  0  0  0  0  0
   25.6317  -20.8171   -9.3697 N   0  0  0  0  0  0  0  0  0  0  0  0
   27.3459  -20.2293  -10.8851 N   0  0  0  0  0  0  0  0  0  0  0  0
   27.7234  -19.5042  -12.0612 C   0  0  0  0  0  0  0  0  0  0  0  0
   27.8220  -20.4520  -13.2036 C   0  0  0  0  0  0  0  0  0  0  0  0
   26.5457  -20.4851  -13.9851 C   0  0  0  0  0  0  0  0  0  0  0  0
   26.6420  -21.4632  -15.1092 C   0  0  2  0  0  0  0  0  0  0  0  0
   27.6508  -21.0777  -16.0777 N   0  0  0  0  0  0  0  0  0  0  0  0
   25.3360  -21.5677  -15.8486 C   0  0  0  0  0  0  0  0  0  0  0  0
   25.1454  -20.8147  -16.8203 O   0  0  0  0  0  0  0  0  0  0  0  0
   26.3259  -21.2166   -8.7147 N   0  0  0  0  0  0  0  0  0  0  0  0
   24.3218  -22.4828  -15.4848 C   0  0  2  0  0  0  0  0  0  0  0  0
   23.0517  -22.5732  -16.2848 C   0  0  0  0  0  0  0  0  0  0  0  0
   22.7526  -24.0328  -16.2313 C   0  0  0  0  0  0  0  0  0  0  0  0
   23.3935  -24.9504  -17.1256 C   0  0  0  0  0  0  0  0  0  0  0  0
   24.3169  -25.8691  -16.6790 C   0  0  0  0  0  0  0  0  0  0  0  0
   24.9526  -26.7444  -17.5682 C   0  0  0  0  0  0  0  0  0  0  0  0
   24.6680  -26.7078  -18.9161 C   0  0  0  0  0  0  0  0  0  0  0  0
   23.7479  -25.7963  -19.3738 C   0  0  0  0  0  0  0  0  0  0  0  0
   23.1417  -24.9543  -18.4922 C   0  0  0  0  0  0  0  0  0  0  0  0
   22.0953  -21.7095  -15.5892 O   0  0  0  0  0  0  0  0  0  0  0  0
   22.2881  -21.5869  -14.3122 N   0  0  0  0  0  0  0  0  0  0  0  0
   21.0116  -21.0010  -16.1369 C   0  0  0  0  0  0  0  0  0  0  0  0
   20.5937  -21.0706  -17.5097 C   0  0  0  0  0  0  0  0  0  0  0  0
   20.0890  -19.6893  -17.7970 C   0  0  0  0  0  0  0  0  0  0  0  0
   19.9322  -19.0005  -16.4590 C   0  0  1  0  0  0  0  0  0  0  0  0
   20.1209  -20.1245  -15.4630 C   0  0  0  0  0  0  0  0  0  0  0  0
   18.7635  -20.7839  -15.2658 O   0  0  0  0  0  0  0  0  0  0  0  0
   17.8494  -20.1943  -14.4102 O   0  0  0  0  0  0  0  0  0  0  0  0
  1  2  1  0
  2  3  2  0
  4  2  1  0
  4  5  1  0
  6  5  1  0
  7  8  1  0
  7  6  1  0
  8  9  1  6
 10  8  1  0
 11 10  2  0
 12 10  1  0
 13 12  1  0
 13 14  1  6
 15 14  1  0
 16 15  2  0
 17 16  1  0
 18 17  2  0
 18 19  1  0
 19 20  2  0
 20 15  1  0
 21 13  1  0
 21 23  1  0
 22 21  2  0
 23 27  1  0
 24 23  1  0
 24 25  1  0
 25 26  1  0
 27 26  1  0
 27 28  1  1
 28 29  1  0
 30 28  2  0
M  END
$$$$
