RFP.pdb
     RDKit          3D

 30 31  0  0  1  0  0  0  0  0999 V2000
   27.7199  -27.8014  -16.6243 N   0  0  0  0  0  0  0  0  0  0  0  0
   28.6272  -27.5930  -17.7001 C   0  0  0  0  0  0  0  0  0  0  0  0
   29.5765  -28.4544  -17.8374 N   0  0  0  0  0  0  0  0  0  0  0  0
   28.5017  -26.4889  -18.5870 N   0  0  0  0  0  0  0  0  0  0  0  0
   27.4405  -25.5446  -18.4042 C   0  0  0  0  0  0  0  0  0  0  0  0
   27.6710  -24.7958  -17.1396 C   0  0  0  0  0  0  0  0  0  0  0  0
   26.4399  -24.7887  -16.2881 C   0  0  0  0  0  0  0  0  0  0  0  0
   25.9231  -23.3978  -16.1215 C   0  0  2  0  0  0  0  0  0  0  0  0
   26.9502  -22.4046  -16.3726 N   0  0  0  0  0  0  0  0  0  0  0  0
   25.4216  -23.1711  -14.7214 C   0  0  0  0  0  0  0  0  0  0  0  0
   24.5535  -23.9411  -14.2729 O   0  0  0  0  0  0  0  0  0  0  0  0
   30.2816  -28.3727  -18.5900 N   0  0  0  0  0  0  0  0  0  0  0  0
   25.8949  -22.1230  -13.8994 C   0  0  1  0  0  0  0  0  0  0  0  0
   25.2987  -21.8907  -12.5385 C   0  0  0  0  0  0  0  0  0  0  0  0
   26.4424  -21.2891  -11.7953 C   0  0  0  0  0  0  0  0  0  0  0  0
   26.2515  -20.6864  -10.5096 C   0  0  0  0  0  0  0  0  0  0  0  0
   25.8150  -19.3870  -10.3781 C   0  0  0  0  0  0  0  0  0  0  0  0
   25.6549  -18.8037   -9.1152 C   0  0  0  0  0  0  0  0  0  0  0  0
   25.9306  -19.5184   -7.9696 C   0  0  0  0  0  0  0  0  0  0  0  0
   26.3659  -20.8159   -8.0877 C   0  0  0  0  0  0  0  0  0  0  0  0
   26.5150  -21.3637   -9.3251 C   0  0  0  0  0  0  0  0  0  0  0  0
   24.1576  -21.0009  -12.7640 O   0  0  0  0  0  0  0  0  0  0  0  0
   24.3467  -20.0730  -13.6506 N   0  0  0  0  0  0  0  0  0  0  0  0
   22.8955  -21.0384  -12.1460 C   0  0  0  0  0  0  0  0  0  0  0  0
   22.5187  -21.9498  -11.1012 C   0  0  0  0  0  0  0  0  0  0  0  0
   21.0655  -22.2060  -11.3615 C   0  0  0  0  0  0  0  0  0  0  0  0
   20.6111  -21.1511  -12.3463 C   0  0  1  0  0  0  0  0  0  0  0  0
   21.7825  -20.1938  -12.3983 C   0  0  0  0  0  0  0  0  0  0  0  0
   21.5977  -19.1945  -11.2653 O   0  0  0  0  0  0  0  0  0  0  0  0
   20.7357  -18.1270  -11.4466 O   0  0  0  0  0  0  0  0  0  0  0  0
  1  2  1  0
  2  3  2  0
  4  2  1  0
  4  5  1  0
  6  5  1  0
  7  8  1  0
  7  6  1  0
  8  9  1  1
 10  8  1  0
 11 10  2  0
 12 10  1  0
 13 12  1  0
 13 14  1  1
 15 14  1  0
 16 15  2  0
 17 16  1  0
 18 17  2  0
 18 19  1  0
 19 20  2  0
 20 15  1  0
 21 13  1  0
 21 23  1  0
 22 21  2  0
 23 27  1  0
 24 23  1  0
 24 25  1  0
 25 26  1  0
 27 26  1  0
 27 28  1  1
 28 29  1  0
 30 28  2  0
M  END
$$$$
