RFP.pdb
     RDKit          3D

 30 31  0  0  1  0  0  0  0  0999 V2000
   22.7976  -27.3409  -17.3775 N   0  0  0  0  0  0  0  0  0  0  0  0
   23.1105  -27.7408  -16.0486 C   0  0  0  0  0  0  0  0  0  0  0  0
   22.7010  -28.9058  -15.6785 N   0  0  0  0  0  0  0  0  0  0  0  0
   23.8396  -26.9015  -15.1623 N   0  0  0  0  0  0  0  0  0  0  0  0
   24.6581  -25.8501  -15.6877 C   0  0  0  0  0  0  0  0  0  0  0  0
   25.4125  -26.3646  -16.8622 C   0  0  0  0  0  0  0  0  0  0  0  0
   26.8397  -25.9149  -16.8221 C   0  0  0  0  0  0  0  0  0  0  0  0
   27.0245  -24.6765  -17.6356 C   0  0  2  0  0  0  0  0  0  0  0  0
   28.1526  -24.7864  -18.5409 N   0  0  0  0  0  0  0  0  0  0  0  0
   27.2787  -23.4837  -16.7549 C   0  0  0  0  0  0  0  0  0  0  0  0
   28.3492  -23.4333  -16.1230 O   0  0  0  0  0  0  0  0  0  0  0  0
   22.8411  -29.2514  -14.7135 N   0  0  0  0  0  0  0  0  0  0  0  0
   26.3542  -22.4232  -16.6172 C   0  0  2  0  0  0  0  0  0  0  0  0
   26.6358  -21.2809  -15.6807 C   0  0  0  0  0  0  0  0  0  0  0  0
   26.2576  -20.0992  -16.5073 C   0  0  0  0  0  0  0  0  0  0  0  0
   26.2631  -18.7785  -15.9521 C   0  0  0  0  0  0  0  0  0  0  0  0
   27.3191  -17.9167  -16.1478 C   0  0  0  0  0  0  0  0  0  0  0  0
   27.3211  -16.6367  -15.5797 C   0  0  0  0  0  0  0  0  0  0  0  0
   26.2625  -16.2070  -14.8091 C   0  0  0  0  0  0  0  0  0  0  0  0
   25.2027  -17.0573  -14.6073 C   0  0  0  0  0  0  0  0  0  0  0  0
   25.2211  -18.2976  -15.1685 C   0  0  0  0  0  0  0  0  0  0  0  0
   25.7914  -21.5250  -14.5094 O   0  0  0  0  0  0  0  0  0  0  0  0
   24.8007  -22.3401  -14.7021 N   0  0  0  0  0  0  0  0  0  0  0  0
   25.9310  -20.9928  -13.2157 C   0  0  0  0  0  0  0  0  0  0  0  0
   26.8664  -19.9670  -12.8456 C   0  0  0  0  0  0  0  0  0  0  0  0
   27.2431  -20.3217  -11.4393 C   0  0  0  0  0  0  0  0  0  0  0  0
   26.2332  -21.3447  -10.9672 C   0  0  1  0  0  0  0  0  0  0  0  0
   25.1825  -21.3270  -12.0565 C   0  0  0  0  0  0  0  0  0  0  0  0
   24.1975  -20.2185  -11.7139 O   0  0  0  0  0  0  0  0  0  0  0  0
   23.2088  -20.4656  -10.7775 O   0  0  0  0  0  0  0  0  0  0  0  0
  1  2  1  0
  2  3  2  0
  4  2  1  0
  4  5  1  0
  6  5  1  0
  7  8  1  0
  7  6  1  0
  8  9  1  6
 10  8  1  0
 11 10  2  0
 12 10  1  0
 13 12  1  0
 13 14  1  6
 15 14  1  0
 16 15  2  0
 17 16  1  0
 18 17  2  0
 18 19  1  0
 19 20  2  0
 20 15  1  0
 21 13  1  0
 21 23  1  0
 22 21  2  0
 23 27  1  0
 24 23  1  0
 24 25  1  0
 25 26  1  0
 27 26  1  0
 27 28  1  1
 28 29  1  0
 30 28  2  0
M  END
$$$$
