RFP.pdb
     RDKit          3D

 30 31  0  0  1  0  0  0  0  0999 V2000
   20.3768  -23.3176  -12.7400 N   0  0  0  0  0  0  0  0  0  0  0  0
   20.5061  -22.0382  -13.3485 C   0  0  0  0  0  0  0  0  0  0  0  0
   19.4705  -21.5773  -13.9626 N   0  0  0  0  0  0  0  0  0  0  0  0
   21.7169  -21.2954  -13.2883 N   0  0  0  0  0  0  0  0  0  0  0  0
   22.9191  -21.9272  -12.8337 C   0  0  0  0  0  0  0  0  0  0  0  0
   23.3582  -21.2791  -11.5686 C   0  0  0  0  0  0  0  0  0  0  0  0
   24.1027  -20.0104  -11.8460 C   0  0  0  0  0  0  0  0  0  0  0  0
   25.5755  -20.2556  -11.8555 C   0  0  2  0  0  0  0  0  0  0  0  0
   25.9518  -21.2556  -12.8366 N   0  0  0  0  0  0  0  0  0  0  0  0
   26.0503  -20.7494  -10.5161 C   0  0  0  0  0  0  0  0  0  0  0  0
   26.1085  -21.9775  -10.3260 O   0  0  0  0  0  0  0  0  0  0  0  0
   19.4876  -20.6652  -14.4505 N   0  0  0  0  0  0  0  0  0  0  0  0
   26.4307  -19.8779   -9.4702 C   0  0  2  0  0  0  0  0  0  0  0  0
   27.0153  -20.4228   -8.1963 C   0  0  0  0  0  0  0  0  0  0  0  0
   27.9417  -19.3294   -7.7854 C   0  0  0  0  0  0  0  0  0  0  0  0
   28.6374  -19.3833   -6.5341 C   0  0  0  0  0  0  0  0  0  0  0  0
   29.5955  -20.3393   -6.2806 C   0  0  0  0  0  0  0  0  0  0  0  0
   30.2511  -20.3941   -5.0443 C   0  0  0  0  0  0  0  0  0  0  0  0
   29.9526  -19.4894   -4.0486 C   0  0  0  0  0  0  0  0  0  0  0  0
   28.9991  -18.5304   -4.2897 C   0  0  0  0  0  0  0  0  0  0  0  0
   28.3736  -18.4950   -5.4985 C   0  0  0  0  0  0  0  0  0  0  0  0
   25.8707  -20.6434   -7.3099 O   0  0  0  0  0  0  0  0  0  0  0  0
   24.7868  -20.0108   -7.6385 N   0  0  0  0  0  0  0  0  0  0  0  0
   25.8072  -21.4555   -6.1641 C   0  0  0  0  0  0  0  0  0  0  0  0
   26.9269  -22.1391   -5.5782 C   0  0  0  0  0  0  0  0  0  0  0  0
   26.3277  -23.4015   -5.0373 C   0  0  0  0  0  0  0  0  0  0  0  0
   24.8275  -23.2055   -5.0467 C   0  0  1  0  0  0  0  0  0  0  0  0
   24.6693  -21.7336   -5.3619 C   0  0  0  0  0  0  0  0  0  0  0  0
   24.7445  -20.9799   -4.0418 O   0  0  0  0  0  0  0  0  0  0  0  0
   23.6506  -21.0011   -3.1943 O   0  0  0  0  0  0  0  0  0  0  0  0
  1  2  1  0
  2  3  2  0
  4  2  1  0
  4  5  1  0
  6  5  1  0
  7  8  1  0
  7  6  1  0
  8  9  1  6
 10  8  1  0
 11 10  2  0
 12 10  1  0
 13 12  1  0
 13 14  1  6
 15 14  1  0
 16 15  2  0
 17 16  1  0
 18 17  2  0
 18 19  1  0
 19 20  2  0
 20 15  1  0
 21 13  1  0
 21 23  1  0
 22 21  2  0
 23 27  1  0
 24 23  1  0
 24 25  1  0
 25 26  1  0
 27 26  1  0
 27 28  1  1
 28 29  1  0
 30 28  2  0
M  END
$$$$
