RFP.pdb
     RDKit          3D

 30 31  0  0  1  0  0  0  0  0999 V2000
   28.9236  -26.7648  -19.1382 N   0  0  0  0  0  0  0  0  0  0  0  0
   28.1014  -26.4663  -18.0163 C   0  0  0  0  0  0  0  0  0  0  0  0
   28.0970  -27.3224  -17.0524 N   0  0  0  0  0  0  0  0  0  0  0  0
   27.3171  -25.2821  -17.9522 N   0  0  0  0  0  0  0  0  0  0  0  0
   27.2313  -24.4212  -19.0936 C   0  0  0  0  0  0  0  0  0  0  0  0
   28.3774  -23.4729  -19.0722 C   0  0  0  0  0  0  0  0  0  0  0  0
   28.0534  -22.2580  -18.2600 C   0  0  0  0  0  0  0  0  0  0  0  0
   28.7681  -22.2949  -16.9496 C   0  0  2  0  0  0  0  0  0  0  0  0
   29.6303  -23.4559  -16.8353 N   0  0  0  0  0  0  0  0  0  0  0  0
   27.7947  -22.3524  -15.8040 C   0  0  0  0  0  0  0  0  0  0  0  0
   27.1451  -23.3995  -15.6327 O   0  0  0  0  0  0  0  0  0  0  0  0
   27.5014  -27.1975  -16.2157 N   0  0  0  0  0  0  0  0  0  0  0  0
   27.5896  -21.2693  -14.9190 C   0  0  1  0  0  0  0  0  0  0  0  0
   26.6404  -21.3990  -13.7600 C   0  0  0  0  0  0  0  0  0  0  0  0
   27.3473  -20.6373  -12.6910 C   0  0  0  0  0  0  0  0  0  0  0  0
   26.7044  -20.3472  -11.4439 C   0  0  0  0  0  0  0  0  0  0  0  0
   26.1277  -19.1216  -11.1960 C   0  0  0  0  0  0  0  0  0  0  0  0
   25.5230  -18.8444   -9.9637 C   0  0  0  0  0  0  0  0  0  0  0  0
   25.4899  -19.7948   -8.9663 C   0  0  0  0  0  0  0  0  0  0  0  0
   26.0611  -21.0216   -9.2018 C   0  0  0  0  0  0  0  0  0  0  0  0
   26.6440  -21.2703  -10.4068 C   0  0  0  0  0  0  0  0  0  0  0  0
   25.3822  -20.8107  -14.2240 O   0  0  0  0  0  0  0  0  0  0  0  0
   25.5048  -19.8699  -15.1088 N   0  0  0  0  0  0  0  0  0  0  0  0
   24.0740  -21.1465  -13.8340 C   0  0  0  0  0  0  0  0  0  0  0  0
   23.7389  -22.1352  -12.8468 C   0  0  0  0  0  0  0  0  0  0  0  0
   22.4516  -22.7150  -13.3488 C   0  0  0  0  0  0  0  0  0  0  0  0
   21.9475  -21.7787  -14.4251 C   0  0  1  0  0  0  0  0  0  0  0  0
   22.8590  -20.5770  -14.2980 C   0  0  0  0  0  0  0  0  0  0  0  0
   22.2548  -19.6635  -13.2412 O   0  0  0  0  0  0  0  0  0  0  0  0
   21.2649  -18.7707  -13.6131 O   0  0  0  0  0  0  0  0  0  0  0  0
  1  2  1  0
  2  3  2  0
  4  2  1  0
  4  5  1  0
  6  5  1  0
  7  8  1  0
  7  6  1  0
  8  9  1  6
 10  8  1  0
 11 10  2  0
 12 10  1  0
 13 12  1  0
 13 14  1  6
 15 14  1  0
 16 15  2  0
 17 16  1  0
 18 17  2  0
 18 19  1  0
 19 20  2  0
 20 15  1  0
 21 13  1  0
 21 23  1  0
 22 21  2  0
 23 27  1  0
 24 23  1  0
 24 25  1  0
 25 26  1  0
 27 26  1  0
 27 28  1  1
 28 29  1  0
 30 28  2  0
M  END
$$$$
