RFP.pdb
     RDKit          3D

 30 31  0  0  1  0  0  0  0  0999 V2000
   20.3534  -20.1530  -13.8990 N   0  0  0  0  0  0  0  0  0  0  0  0
   21.1771  -19.6490  -14.9436 C   0  0  0  0  0  0  0  0  0  0  0  0
   20.5774  -19.1361  -15.9631 N   0  0  0  0  0  0  0  0  0  0  0  0
   22.5962  -19.7044  -14.8760 N   0  0  0  0  0  0  0  0  0  0  0  0
   23.2474  -20.9421  -14.5674 C   0  0  0  0  0  0  0  0  0  0  0  0
   23.0791  -21.2297  -13.1175 C   0  0  0  0  0  0  0  0  0  0  0  0
   24.4003  -21.4963  -12.4664 C   0  0  0  0  0  0  0  0  0  0  0  0
   24.8238  -20.3288  -11.6376 C   0  0  2  0  0  0  0  0  0  0  0  0
   25.5609  -19.3511  -12.4156 N   0  0  0  0  0  0  0  0  0  0  0  0
   25.7197  -20.7628  -10.5096 C   0  0  0  0  0  0  0  0  0  0  0  0
   26.2485  -21.8870  -10.5741 O   0  0  0  0  0  0  0  0  0  0  0  0
   21.1025  -18.7254  -16.7543 N   0  0  0  0  0  0  0  0  0  0  0  0
   25.9828  -19.9481   -9.3847 C   0  0  1  0  0  0  0  0  0  0  0  0
   26.8380  -20.4561   -8.2569 C   0  0  0  0  0  0  0  0  0  0  0  0
   27.7097  -19.2806   -7.9724 C   0  0  0  0  0  0  0  0  0  0  0  0
   28.5473  -19.2474   -6.8105 C   0  0  0  0  0  0  0  0  0  0  0  0
   28.2439  -18.4591   -5.7231 C   0  0  0  0  0  0  0  0  0  0  0  0
   29.0841  -18.4191   -4.6035 C   0  0  0  0  0  0  0  0  0  0  0  0
   30.2385  -19.1707   -4.5626 C   0  0  0  0  0  0  0  0  0  0  0  0
   30.5517  -19.9619   -5.6410 C   0  0  0  0  0  0  0  0  0  0  0  0
   29.7211  -19.9858   -6.7195 C   0  0  0  0  0  0  0  0  0  0  0  0
   25.8990  -20.8148   -7.1919 O   0  0  0  0  0  0  0  0  0  0  0  0
   24.6824  -20.3987   -7.3641 N   0  0  0  0  0  0  0  0  0  0  0  0
   26.1561  -21.5539   -6.0240 C   0  0  0  0  0  0  0  0  0  0  0  0
   27.4626  -21.9347   -5.5633 C   0  0  0  0  0  0  0  0  0  0  0  0
   27.2356  -23.2664   -4.9150 C   0  0  0  0  0  0  0  0  0  0  0  0
   25.7396  -23.4124   -4.7421 C   0  0  1  0  0  0  0  0  0  0  0  0
   25.2127  -22.0337   -5.0778 C   0  0  0  0  0  0  0  0  0  0  0  0
   25.2648  -21.2085   -3.8000 O   0  0  0  0  0  0  0  0  0  0  0  0
   26.3408  -20.3637   -3.5906 O   0  0  0  0  0  0  0  0  0  0  0  0
  1  2  1  0
  2  3  2  0
  4  2  1  0
  4  5  1  0
  6  5  1  0
  7  8  1  0
  7  6  1  0
  8  9  1  6
 10  8  1  0
 11 10  2  0
 12 10  1  0
 13 12  1  0
 13 14  1  6
 15 14  1  0
 16 15  2  0
 17 16  1  0
 18 17  2  0
 18 19  1  0
 19 20  2  0
 20 15  1  0
 21 13  1  0
 21 23  1  0
 22 21  2  0
 23 27  1  0
 24 23  1  0
 24 25  1  0
 25 26  1  0
 27 26  1  0
 27 28  1  1
 28 29  1  0
 30 28  2  0
M  END
$$$$
