RFP.pdb
     RDKit          3D

 30 31  0  0  1  0  0  0  0  0999 V2000
   14.8471  -23.6178   -2.7859 N   0  0  0  0  0  0  0  0  0  0  0  0
   14.2947  -24.6202   -1.9410 C   0  0  0  0  0  0  0  0  0  0  0  0
   14.4229  -25.8436   -2.3268 N   0  0  0  0  0  0  0  0  0  0  0  0
   13.6299  -24.2977   -0.7264 N   0  0  0  0  0  0  0  0  0  0  0  0
   14.1157  -23.2254    0.0894 C   0  0  0  0  0  0  0  0  0  0  0  0
   15.4069  -23.6327    0.7061 C   0  0  0  0  0  0  0  0  0  0  0  0
   15.8659  -22.6200    1.7083 C   0  0  0  0  0  0  0  0  0  0  0  0
   15.7022  -21.2364    1.1714 C   0  0  2  0  0  0  0  0  0  0  0  0
   15.8860  -21.1881   -0.2668 N   0  0  0  0  0  0  0  0  0  0  0  0
   16.7099  -20.2981    1.7777 C   0  0  0  0  0  0  0  0  0  0  0  0
   17.9184  -20.5328    1.5983 O   0  0  0  0  0  0  0  0  0  0  0  0
   14.0513  -26.6322   -1.7698 N   0  0  0  0  0  0  0  0  0  0  0  0
   16.3400  -19.1663    2.5396 C   0  0  1  0  0  0  0  0  0  0  0  0
   17.3895  -18.2500    3.1053 C   0  0  0  0  0  0  0  0  0  0  0  0
   16.8518  -16.9048    2.7535 C   0  0  0  0  0  0  0  0  0  0  0  0
   17.5232  -15.7099    3.1705 C   0  0  0  0  0  0  0  0  0  0  0  0
   18.6657  -15.2662    2.5428 C   0  0  0  0  0  0  0  0  0  0  0  0
   19.3244  -14.1088    2.9761 C   0  0  0  0  0  0  0  0  0  0  0  0
   18.8431  -13.3832    4.0443 C   0  0  0  0  0  0  0  0  0  0  0  0
   17.7036  -13.8151    4.6782 C   0  0  0  0  0  0  0  0  0  0  0  0
   17.0789  -14.9431    4.2410 C   0  0  0  0  0  0  0  0  0  0  0  0
   17.4358  -18.5537    4.5372 O   0  0  0  0  0  0  0  0  0  0  0  0
   16.3291  -19.0034    5.0431 N   0  0  0  0  0  0  0  0  0  0  0  0
   18.5264  -18.4241    5.4147 C   0  0  0  0  0  0  0  0  0  0  0  0
   19.8486  -18.0165    5.0277 C   0  0  0  0  0  0  0  0  0  0  0  0
   20.7418  -18.7894    5.9497 C   0  0  0  0  0  0  0  0  0  0  0  0
   19.8567  -19.3405    7.0461 C   0  0  1  0  0  0  0  0  0  0  0  0
   18.5377  -18.6337    6.8188 C   0  0  0  0  0  0  0  0  0  0  0  0
   18.6045  -17.3064    7.5605 O   0  0  0  0  0  0  0  0  0  0  0  0
   18.3516  -17.2849    8.9210 O   0  0  0  0  0  0  0  0  0  0  0  0
  1  2  1  0
  2  3  2  0
  4  2  1  0
  4  5  1  0
  6  5  1  0
  7  8  1  0
  7  6  1  0
  8  9  1  6
 10  8  1  0
 11 10  2  0
 12 10  1  0
 13 12  1  0
 13 14  1  6
 15 14  1  0
 16 15  2  0
 17 16  1  0
 18 17  2  0
 18 19  1  0
 19 20  2  0
 20 15  1  0
 21 13  1  0
 21 23  1  0
 22 21  2  0
 23 27  1  0
 24 23  1  0
 24 25  1  0
 25 26  1  0
 27 26  1  0
 27 28  1  1
 28 29  1  0
 30 28  2  0
M  END
$$$$
