RFP.pdb
     RDKit          3D

 30 31  0  0  1  0  0  0  0  0999 V2000
   20.7954  -18.2326  -14.6508 N   0  0  0  0  0  0  0  0  0  0  0  0
   20.8129  -19.6541  -14.5969 C   0  0  0  0  0  0  0  0  0  0  0  0
   20.4877  -20.2825  -15.6746 N   0  0  0  0  0  0  0  0  0  0  0  0
   21.1701  -20.3579  -13.4143 N   0  0  0  0  0  0  0  0  0  0  0  0
   22.2382  -19.8740  -12.5918 C   0  0  0  0  0  0  0  0  0  0  0  0
   23.5353  -20.3014  -13.1816 C   0  0  0  0  0  0  0  0  0  0  0  0
   24.6871  -19.7064  -12.4331 C   0  0  0  0  0  0  0  0  0  0  0  0
   25.1952  -20.6610  -11.4036 C   0  0  2  0  0  0  0  0  0  0  0  0
   24.1339  -21.1406  -10.5387 N   0  0  0  0  0  0  0  0  0  0  0  0
   26.2237  -20.0079  -10.5211 C   0  0  0  0  0  0  0  0  0  0  0  0
   27.1011  -19.3064  -11.0557 O   0  0  0  0  0  0  0  0  0  0  0  0
   20.3766  -21.3110  -15.6931 N   0  0  0  0  0  0  0  0  0  0  0  0
   26.2331  -20.1591   -9.1156 C   0  0  1  0  0  0  0  0  0  0  0  0
   27.4687  -19.8381   -8.3209 C   0  0  0  0  0  0  0  0  0  0  0  0
   26.9013  -19.5037   -6.9835 C   0  0  0  0  0  0  0  0  0  0  0  0
   27.7547  -19.2890   -5.8529 C   0  0  0  0  0  0  0  0  0  0  0  0
   28.0843  -20.3117   -4.9917 C   0  0  0  0  0  0  0  0  0  0  0  0
   28.9010  -20.0822   -3.8775 C   0  0  0  0  0  0  0  0  0  0  0  0
   29.3967  -18.8233   -3.6155 C   0  0  0  0  0  0  0  0  0  0  0  0
   29.0757  -17.7950   -4.4678 C   0  0  0  0  0  0  0  0  0  0  0  0
   28.2800  -18.0398   -5.5450 C   0  0  0  0  0  0  0  0  0  0  0  0
   28.2861  -21.0521   -8.3714 O   0  0  0  0  0  0  0  0  0  0  0  0
   27.6304  -22.1521   -8.5787 N   0  0  0  0  0  0  0  0  0  0  0  0
   29.6805  -21.1631   -8.2310 C   0  0  0  0  0  0  0  0  0  0  0  0
   30.5578  -20.0862   -7.8637 C   0  0  0  0  0  0  0  0  0  0  0  0
   31.8174  -20.3818   -8.6196 C   0  0  0  0  0  0  0  0  0  0  0  0
   31.7000  -21.8074   -9.1127 C   0  0  1  0  0  0  0  0  0  0  0  0
   30.4767  -22.3279   -8.3891 C   0  0  0  0  0  0  0  0  0  0  0  0
   30.9415  -22.8496   -7.0370 O   0  0  0  0  0  0  0  0  0  0  0  0
   31.5765  -24.0777   -6.9743 O   0  0  0  0  0  0  0  0  0  0  0  0
  1  2  1  0
  2  3  2  0
  4  2  1  0
  4  5  1  0
  6  5  1  0
  7  8  1  0
  7  6  1  0
  8  9  1  1
 10  8  1  0
 11 10  2  0
 12 10  1  0
 13 12  1  0
 13 14  1  6
 15 14  1  0
 16 15  2  0
 17 16  1  0
 18 17  2  0
 18 19  1  0
 19 20  2  0
 20 15  1  0
 21 13  1  0
 21 23  1  0
 22 21  2  0
 23 27  1  0
 24 23  1  0
 24 25  1  0
 25 26  1  0
 27 26  1  0
 27 28  1  1
 28 29  1  0
 30 28  2  0
M  END
$$$$
