RFP.pdb
     RDKit          3D

 30 31  0  0  1  0  0  0  0  0999 V2000
   21.3211  -20.3773  -15.2751 N   0  0  0  0  0  0  0  0  0  0  0  0
   21.8112  -19.0422  -15.3089 C   0  0  0  0  0  0  0  0  0  0  0  0
   20.9937  -18.1310  -15.7132 N   0  0  0  0  0  0  0  0  0  0  0  0
   23.1392  -18.7181  -14.9178 N   0  0  0  0  0  0  0  0  0  0  0  0
   23.9483  -19.6999  -14.2599 C   0  0  0  0  0  0  0  0  0  0  0  0
   23.4819  -19.8495  -12.8551 C   0  0  0  0  0  0  0  0  0  0  0  0
   24.1203  -21.0350  -12.2012 C   0  0  0  0  0  0  0  0  0  0  0  0
   25.5964  -20.8415  -12.0868 C   0  0  2  0  0  0  0  0  0  0  0  0
   26.3255  -21.6626  -13.0349 N   0  0  0  0  0  0  0  0  0  0  0  0
   26.0857  -21.2119  -10.7132 C   0  0  0  0  0  0  0  0  0  0  0  0
   26.1417  -22.4174  -10.4111 O   0  0  0  0  0  0  0  0  0  0  0  0
   21.2767  -17.1386  -15.7860 N   0  0  0  0  0  0  0  0  0  0  0  0
   26.4821  -20.2493   -9.7568 C   0  0  2  0  0  0  0  0  0  0  0  0
   26.8756  -20.6697   -8.3676 C   0  0  0  0  0  0  0  0  0  0  0  0
   27.8917  -19.6405   -8.0062 C   0  0  0  0  0  0  0  0  0  0  0  0
   28.3941  -19.5378   -6.6684 C   0  0  0  0  0  0  0  0  0  0  0  0
   28.0259  -18.5050   -5.8354 C   0  0  0  0  0  0  0  0  0  0  0  0
   28.5430  -18.4048   -4.5378 C   0  0  0  0  0  0  0  0  0  0  0  0
   29.4352  -19.3409   -4.0614 C   0  0  0  0  0  0  0  0  0  0  0  0
   29.8096  -20.3764   -4.8827 C   0  0  0  0  0  0  0  0  0  0  0  0
   29.2951  -20.4549   -6.1407 C   0  0  0  0  0  0  0  0  0  0  0  0
   25.6368  -20.6313   -7.5875 O   0  0  0  0  0  0  0  0  0  0  0  0
   24.7272  -19.8212   -8.0338 N   0  0  0  0  0  0  0  0  0  0  0  0
   25.3189  -21.3653   -6.4314 C   0  0  0  0  0  0  0  0  0  0  0  0
   26.2393  -22.1978   -5.7075 C   0  0  0  0  0  0  0  0  0  0  0  0
   25.3806  -23.3146   -5.1969 C   0  0  0  0  0  0  0  0  0  0  0  0
   23.9451  -22.8707   -5.3744 C   0  0  1  0  0  0  0  0  0  0  0  0
   24.0747  -21.4099   -5.7490 C   0  0  0  0  0  0  0  0  0  0  0  0
   24.1438  -20.6169   -4.4517 O   0  0  0  0  0  0  0  0  0  0  0  0
   22.9729  -20.3575   -3.7611 O   0  0  0  0  0  0  0  0  0  0  0  0
  1  2  1  0
  2  3  2  0
  4  2  1  0
  4  5  1  0
  6  5  1  0
  7  8  1  0
  7  6  1  0
  8  9  1  6
 10  8  1  0
 11 10  2  0
 12 10  1  0
 13 12  1  0
 13 14  1  6
 15 14  1  0
 16 15  2  0
 17 16  1  0
 18 17  2  0
 18 19  1  0
 19 20  2  0
 20 15  1  0
 21 13  1  0
 21 23  1  0
 22 21  2  0
 23 27  1  0
 24 23  1  0
 24 25  1  0
 25 26  1  0
 27 26  1  0
 27 28  1  1
 28 29  1  0
 30 28  2  0
M  END
$$$$
