PRA.pdb
     RDKit          3D

 24 24  0  0  1  0  0  0  0  0999 V2000
    7.8269  -15.1745   18.7334 N   0  0  0  0  0  0  0  0  0  0  0  0
    7.1617  -14.3597   17.7284 C   0  0  0  0  0  0  0  0  0  0  0  0
    7.2737  -12.9301   18.1838 C   0  0  0  0  0  0  0  0  0  0  0  0
    7.3246  -13.0989   19.7109 C   0  0  0  0  0  0  0  0  0  0  0  0
    8.3009  -14.2870   19.7431 C   0  0  1  0  0  0  0  0  0  0  0  0
    8.4454  -14.8147   21.0892 C   0  0  0  0  0  0  0  0  0  0  0  0
    8.9900  -14.0999   21.9816 O   0  0  0  0  0  0  0  0  0  0  0  0
    5.3710  -21.9275   25.6835 N   0  0  0  0  0  0  0  0  0  0  0  0
    6.0089  -21.0631   26.6147 C   0  0  0  0  0  0  0  0  0  0  0  0
    6.0604  -21.3710   27.8747 N   0  0  0  0  0  0  0  0  0  0  0  0
    6.6165  -19.8400   26.2384 N   0  0  0  0  0  0  0  0  0  0  0  0
    6.5764  -19.3342   24.9149 C   0  0  0  0  0  0  0  0  0  0  0  0
    7.3156  -18.0440   24.6875 C   0  0  0  0  0  0  0  0  0  0  0  0
    7.1210  -17.6393   23.2232 C   0  0  0  0  0  0  0  0  0  0  0  0
    8.0916  -16.5376   22.8939 C   0  0  2  0  0  0  0  0  0  0  0  0
    8.0273  -16.0952   21.5322 N   0  0  0  0  0  0  0  0  0  0  0  0
    9.4781  -16.9229   23.2137 C   0  0  0  0  0  0  0  0  0  0  0  0
   10.1282  -17.6259   22.4133 O   0  0  0  0  0  0  0  0  0  0  0  0
    6.5745  -20.7295   28.5096 C   0  0  0  0  0  0  0  0  0  0  0  0
   12.2079  -15.6135   25.0779 C   0  0  1  0  0  0  0  0  0  0  0  0
   11.4422  -16.8835   24.7308 N   0  0  0  0  0  0  0  0  0  0  0  0
   10.0896  -16.5074   24.4190 C   0  0  0  0  0  0  0  0  0  0  0  0
   11.4353  -17.8022   25.8864 O   0  0  0  0  0  0  0  0  0  0  0  0
   10.3663  -18.0070   26.5491 O   0  0  0  0  0  0  0  0  0  0  0  0
  1  2  1  0
  3  2  1  0
  4  3  1  0
  4  5  1  0
  5  1  1  0
  5  6  1  1
  6  7  2  0
  8  9  1  0
  9 11  1  0
  9 10  2  0
 11 12  1  0
 12 13  1  0
 14 13  1  0
 15 14  1  6
 16  6  1  0
 16 15  1  0
 17 18  2  0
 17 15  1  0
 20 19  1  6
 20 21  1  0
 21 17  1  0
 22 20  1  0
 22 24  1  0
 23 22  2  0
M  END
$$$$
