PRA.pdb
     RDKit          3D

 24 24  0  0  1  0  0  0  0  0999 V2000
    8.9097  -14.8151   19.6821 N   0  0  0  0  0  0  0  0  0  0  0  0
    8.7282  -14.4494   18.2859 C   0  0  0  0  0  0  0  0  0  0  0  0
    8.0905  -13.0866   18.2726 C   0  0  0  0  0  0  0  0  0  0  0  0
    7.3020  -13.1055   19.5923 C   0  0  0  0  0  0  0  0  0  0  0  0
    8.3983  -13.7395   20.4651 C   0  0  1  0  0  0  0  0  0  0  0  0
    7.8998  -14.0517   21.7938 C   0  0  0  0  0  0  0  0  0  0  0  0
    7.3672  -13.1365   22.4886 O   0  0  0  0  0  0  0  0  0  0  0  0
    6.0109  -19.9421   20.9081 N   0  0  0  0  0  0  0  0  0  0  0  0
    7.4024  -20.2121   21.0182 C   0  0  0  0  0  0  0  0  0  0  0  0
    8.1157  -20.4489   19.9599 N   0  0  0  0  0  0  0  0  0  0  0  0
    8.0857  -20.2385   22.2589 N   0  0  0  0  0  0  0  0  0  0  0  0
    7.8267  -19.3140   23.3016 C   0  0  0  0  0  0  0  0  0  0  0  0
    7.7463  -17.8701   22.8874 C   0  0  0  0  0  0  0  0  0  0  0  0
    7.5193  -17.0288   24.1469 C   0  0  0  0  0  0  0  0  0  0  0  0
    7.4823  -15.5760   23.7567 C   0  0  2  0  0  0  0  0  0  0  0  0
    7.9465  -15.3207   22.4249 N   0  0  0  0  0  0  0  0  0  0  0  0
    8.2427  -14.7406   24.7038 C   0  0  0  0  0  0  0  0  0  0  0  0
    9.4842  -14.6617   24.6050 O   0  0  0  0  0  0  0  0  0  0  0  0
    9.1302  -20.6301   20.0900 C   0  0  0  0  0  0  0  0  0  0  0  0
    7.3503  -12.1912   27.2506 C   0  0  2  0  0  0  0  0  0  0  0  0
    8.3259  -13.1875   26.6382 N   0  0  0  0  0  0  0  0  0  0  0  0
    7.5865  -14.0215   25.7294 C   0  0  0  0  0  0  0  0  0  0  0  0
    8.9190  -14.0302   27.6954 O   0  0  0  0  0  0  0  0  0  0  0  0
    8.5894  -15.2556   27.8130 O   0  0  0  0  0  0  0  0  0  0  0  0
  1  2  1  0
  3  2  1  0
  4  3  1  0
  4  5  1  0
  5  1  1  0
  5  6  1  1
  6  7  2  0
  8  9  1  0
  9 11  1  0
  9 10  2  0
 11 12  1  0
 12 13  1  0
 14 13  1  0
 15 14  1  1
 16  6  1  0
 16 15  1  0
 17 18  2  0
 17 15  1  0
 20 19  1  6
 20 21  1  0
 21 17  1  0
 22 20  1  0
 22 24  1  0
 23 22  2  0
M  END
$$$$
