PRA.pdb
     RDKit          3D

 24 24  0  0  1  0  0  0  0  0999 V2000
    7.8210  -14.9224   19.6271 N   0  0  0  0  0  0  0  0  0  0  0  0
    7.5700  -13.9799   18.5478 C   0  0  0  0  0  0  0  0  0  0  0  0
    8.2061  -12.6774   18.9512 C   0  0  0  0  0  0  0  0  0  0  0  0
    8.1180  -12.7561   20.4840 C   0  0  0  0  0  0  0  0  0  0  0  0
    8.5552  -14.2235   20.6291 C   0  0  1  0  0  0  0  0  0  0  0  0
    8.4225  -14.6801   22.0021 C   0  0  0  0  0  0  0  0  0  0  0  0
    9.1701  -14.1851   22.8966 O   0  0  0  0  0  0  0  0  0  0  0  0
    7.9700  -20.3735   27.9116 N   0  0  0  0  0  0  0  0  0  0  0  0
    7.4781  -20.9245   26.6969 C   0  0  0  0  0  0  0  0  0  0  0  0
    7.6523  -22.1812   26.4225 N   0  0  0  0  0  0  0  0  0  0  0  0
    6.7816  -20.1580   25.7302 N   0  0  0  0  0  0  0  0  0  0  0  0
    6.5333  -18.7705   25.8795 C   0  0  0  0  0  0  0  0  0  0  0  0
    7.6795  -17.8618   25.5284 C   0  0  0  0  0  0  0  0  0  0  0  0
    7.6059  -17.5660   24.0275 C   0  0  0  0  0  0  0  0  0  0  0  0
    7.4163  -16.0856   23.8360 C   0  0  2  0  0  0  0  0  0  0  0  0
    7.5110  -15.6602   22.4706 N   0  0  0  0  0  0  0  0  0  0  0  0
    8.3644  -15.3072   24.6534 C   0  0  0  0  0  0  0  0  0  0  0  0
    9.5888  -15.3794   24.4229 O   0  0  0  0  0  0  0  0  0  0  0  0
    7.2579  -22.5419   25.5319 C   0  0  0  0  0  0  0  0  0  0  0  0
    8.1674  -12.3951   26.8551 C   0  0  1  0  0  0  0  0  0  0  0  0
    8.8344  -13.7177   26.5009 N   0  0  0  0  0  0  0  0  0  0  0  0
    7.9089  -14.4740   25.7011 C   0  0  0  0  0  0  0  0  0  0  0  0
    9.1426  -14.4744   27.7305 O   0  0  0  0  0  0  0  0  0  0  0  0
    8.5188  -15.5509   28.0063 O   0  0  0  0  0  0  0  0  0  0  0  0
  1  2  1  0
  3  2  1  0
  4  3  1  0
  4  5  1  0
  5  1  1  0
  5  6  1  1
  6  7  2  0
  8  9  1  0
  9 11  1  0
  9 10  2  0
 11 12  1  0
 12 13  1  0
 14 13  1  0
 15 14  1  6
 16  6  1  0
 16 15  1  0
 17 18  2  0
 17 15  1  0
 20 19  1  6
 20 21  1  0
 21 17  1  0
 22 20  1  0
 22 24  1  0
 23 22  2  0
M  END
$$$$
