PRA.pdb
     RDKit          3D

 24 24  0  0  1  0  0  0  0  0999 V2000
    9.0912  -14.4264   19.1779 N   0  0  0  0  0  0  0  0  0  0  0  0
    8.7764  -14.1523   17.7844 C   0  0  0  0  0  0  0  0  0  0  0  0
    7.6391  -13.1671   17.7811 C   0  0  0  0  0  0  0  0  0  0  0  0
    6.9267  -13.5185   19.0973 C   0  0  0  0  0  0  0  0  0  0  0  0
    8.1862  -13.6600   19.9687 C   0  0  1  0  0  0  0  0  0  0  0  0
    7.8582  -14.1614   21.2924 C   0  0  0  0  0  0  0  0  0  0  0  0
    6.9647  -13.5776   21.9743 O   0  0  0  0  0  0  0  0  0  0  0  0
   10.5378  -20.9130   26.6796 N   0  0  0  0  0  0  0  0  0  0  0  0
    9.6721  -20.0728   27.4318 C   0  0  0  0  0  0  0  0  0  0  0  0
    9.4267  -20.3253   28.6811 N   0  0  0  0  0  0  0  0  0  0  0  0
    9.0370  -18.9321   26.8818 N   0  0  0  0  0  0  0  0  0  0  0  0
    9.1487  -18.5710   25.5157 C   0  0  0  0  0  0  0  0  0  0  0  0
    8.4265  -17.3147   25.1124 C   0  0  0  0  0  0  0  0  0  0  0  0
    8.8294  -16.9787   23.6734 C   0  0  0  0  0  0  0  0  0  0  0  0
    8.1423  -15.7039   23.2649 C   0  0  2  0  0  0  0  0  0  0  0  0
    8.4534  -15.2782   21.9322 N   0  0  0  0  0  0  0  0  0  0  0  0
    8.4325  -14.6061   24.2049 C   0  0  0  0  0  0  0  0  0  0  0  0
    9.5875  -14.1390   24.2776 O   0  0  0  0  0  0  0  0  0  0  0  0
    8.8312  -19.6533   29.2034 C   0  0  0  0  0  0  0  0  0  0  0  0
    6.3816  -12.3195   26.2905 C   0  0  1  0  0  0  0  0  0  0  0  0
    7.7021  -12.9963   25.9473 N   0  0  0  0  0  0  0  0  0  0  0  0
    7.4191  -14.0685   25.0316 C   0  0  0  0  0  0  0  0  0  0  0  0
    8.3184  -13.5521   27.1682 O   0  0  0  0  0  0  0  0  0  0  0  0
    8.3106  -14.8073   27.3882 O   0  0  0  0  0  0  0  0  0  0  0  0
  1  2  1  0
  3  2  1  0
  4  3  1  0
  4  5  1  0
  5  1  1  0
  5  6  1  1
  6  7  2  0
  8  9  1  0
  9 11  1  0
  9 10  2  0
 11 12  1  0
 12 13  1  0
 14 13  1  0
 15 14  1  1
 16  6  1  0
 16 15  1  0
 17 18  2  0
 17 15  1  0
 20 19  1  6
 20 21  1  0
 21 17  1  0
 22 20  1  0
 22 24  1  0
 23 22  2  0
M  END
$$$$
