PRA.pdb
     RDKit          3D

 24 24  0  0  1  0  0  0  0  0999 V2000
    8.6373  -14.9518   19.6669 N   0  0  0  0  0  0  0  0  0  0  0  0
    8.2584  -14.4309   18.3625 C   0  0  0  0  0  0  0  0  0  0  0  0
    7.8489  -12.9978   18.5687 C   0  0  0  0  0  0  0  0  0  0  0  0
    7.3263  -13.0343   20.0140 C   0  0  0  0  0  0  0  0  0  0  0  0
    8.4537  -13.8963   20.6071 C   0  0  1  0  0  0  0  0  0  0  0  0
    8.1685  -14.2633   21.9837 C   0  0  0  0  0  0  0  0  0  0  0  0
    8.0042  -13.3525   22.8484 O   0  0  0  0  0  0  0  0  0  0  0  0
    8.9226  -20.5799   26.7237 N   0  0  0  0  0  0  0  0  0  0  0  0
    7.7980  -20.2322   27.5209 C   0  0  0  0  0  0  0  0  0  0  0  0
    7.7474  -20.5658   28.7743 N   0  0  0  0  0  0  0  0  0  0  0  0
    6.6865  -19.5153   27.0132 N   0  0  0  0  0  0  0  0  0  0  0  0
    6.6208  -19.0376   25.6803 C   0  0  0  0  0  0  0  0  0  0  0  0
    6.9374  -17.5789   25.4944 C   0  0  0  0  0  0  0  0  0  0  0  0
    7.3628  -17.3691   24.0381 C   0  0  0  0  0  0  0  0  0  0  0  0
    7.6220  -15.9034   23.8173 C   0  0  2  0  0  0  0  0  0  0  0  0
    8.0497  -15.5835   22.4873 N   0  0  0  0  0  0  0  0  0  0  0  0
    8.6029  -15.3748   24.7825 C   0  0  0  0  0  0  0  0  0  0  0  0
    9.8194  -15.5995   24.6186 O   0  0  0  0  0  0  0  0  0  0  0  0
    6.9427  -20.2234   29.3348 C   0  0  0  0  0  0  0  0  0  0  0  0
    8.5107  -12.8139   27.4421 C   0  0  1  0  0  0  0  0  0  0  0  0
    9.1486  -14.0403   26.8030 N   0  0  0  0  0  0  0  0  0  0  0  0
    8.1878  -14.6120   25.8985 C   0  0  0  0  0  0  0  0  0  0  0  0
    9.4873  -15.0338   27.8412 O   0  0  0  0  0  0  0  0  0  0  0  0
    8.8860  -16.1564   27.8890 O   0  0  0  0  0  0  0  0  0  0  0  0
  1  2  1  0
  3  2  1  0
  4  3  1  0
  4  5  1  0
  5  1  1  0
  5  6  1  1
  6  7  2  0
  8  9  1  0
  9 11  1  0
  9 10  2  0
 11 12  1  0
 12 13  1  0
 14 13  1  0
 15 14  1  6
 16  6  1  0
 16 15  1  0
 17 18  2  0
 17 15  1  0
 20 19  1  6
 20 21  1  0
 21 17  1  0
 22 20  1  0
 22 24  1  0
 23 22  2  0
M  END
$$$$
