PRA.pdb
     RDKit          3D

 24 24  0  0  1  0  0  0  0  0999 V2000
    5.9554  -21.7956   21.7119 N   0  0  0  0  0  0  0  0  0  0  0  0
    5.2377  -22.9743   22.1721 C   0  0  0  0  0  0  0  0  0  0  0  0
    4.2335  -22.5029   23.1885 C   0  0  0  0  0  0  0  0  0  0  0  0
    4.9366  -21.2606   23.7593 C   0  0  0  0  0  0  0  0  0  0  0  0
    5.4226  -20.6795   22.4206 C   0  0  1  0  0  0  0  0  0  0  0  0
    6.2939  -19.5353   22.6275 C   0  0  0  0  0  0  0  0  0  0  0  0
    7.4892  -19.7241   23.0014 O   0  0  0  0  0  0  0  0  0  0  0  0
    7.9923  -11.6834   20.4357 N   0  0  0  0  0  0  0  0  0  0  0  0
    8.4778  -12.8014   19.7039 C   0  0  0  0  0  0  0  0  0  0  0  0
    9.2462  -12.6326   18.6714 N   0  0  0  0  0  0  0  0  0  0  0  0
    8.1643  -14.1401   20.0454 N   0  0  0  0  0  0  0  0  0  0  0  0
    8.5251  -14.7242   21.2854 C   0  0  0  0  0  0  0  0  0  0  0  0
    7.4568  -14.7177   22.3443 C   0  0  0  0  0  0  0  0  0  0  0  0
    6.4373  -15.8058   21.9943 C   0  0  0  0  0  0  0  0  0  0  0  0
    6.8154  -17.0713   22.7151 C   0  0  2  0  0  0  0  0  0  0  0  0
    5.9387  -18.1740   22.4505 N   0  0  0  0  0  0  0  0  0  0  0  0
    6.9035  -16.8604   24.1713 C   0  0  0  0  0  0  0  0  0  0  0  0
    5.8667  -16.6473   24.8324 O   0  0  0  0  0  0  0  0  0  0  0  0
    9.6095  -13.4806   18.1940 C   0  0  0  0  0  0  0  0  0  0  0  0
    7.4640  -18.0675   26.8068 C   0  0  2  0  0  0  0  0  0  0  0  0
    8.2229  -16.8594   26.2738 N   0  0  0  0  0  0  0  0  0  0  0  0
    8.1500  -16.8956   24.8380 C   0  0  0  0  0  0  0  0  0  0  0  0
    9.6380  -16.9271   26.6888 O   0  0  0  0  0  0  0  0  0  0  0  0
    9.9525  -16.9954   27.9218 O   0  0  0  0  0  0  0  0  0  0  0  0
  1  2  1  0
  3  2  1  0
  4  3  1  0
  4  5  1  0
  5  1  1  0
  5  6  1  1
  6  7  2  0
  8  9  1  0
  9 11  1  0
  9 10  2  0
 11 12  1  0
 12 13  1  0
 14 13  1  0
 15 14  1  6
 16  6  1  0
 16 15  1  0
 17 18  2  0
 17 15  1  0
 20 19  1  1
 20 21  1  0
 21 17  1  0
 22 20  1  0
 22 24  1  0
 23 22  2  0
M  END
$$$$
