PRA.pdb
     RDKit          3D

 24 24  0  0  1  0  0  0  0  0999 V2000
    7.8214  -15.0044   18.7281 N   0  0  0  0  0  0  0  0  0  0  0  0
    7.8987  -14.0209   17.6590 C   0  0  0  0  0  0  0  0  0  0  0  0
    8.4363  -12.7555   18.2702 C   0  0  0  0  0  0  0  0  0  0  0  0
    7.9329  -12.8774   19.7177 C   0  0  0  0  0  0  0  0  0  0  0  0
    8.2743  -14.3637   19.9181 C   0  0  1  0  0  0  0  0  0  0  0  0
    7.7611  -14.8566   21.1850 C   0  0  0  0  0  0  0  0  0  0  0  0
    6.5238  -15.1005   21.3016 O   0  0  0  0  0  0  0  0  0  0  0  0
   13.6699  -19.2092   23.5918 N   0  0  0  0  0  0  0  0  0  0  0  0
   12.3743  -19.2478   24.1757 C   0  0  0  0  0  0  0  0  0  0  0  0
   12.2312  -19.2985   25.4649 N   0  0  0  0  0  0  0  0  0  0  0  0
   11.1833  -19.2326   23.4086 N   0  0  0  0  0  0  0  0  0  0  0  0
    9.9627  -18.6971   23.8905 C   0  0  0  0  0  0  0  0  0  0  0  0
    9.6704  -17.2771   23.4894 C   0  0  0  0  0  0  0  0  0  0  0  0
    8.2701  -16.9208   23.9974 C   0  0  0  0  0  0  0  0  0  0  0  0
    7.9648  -15.4984   23.6134 C   0  0  2  0  0  0  0  0  0  0  0  0
    8.5244  -15.1042   22.3542 N   0  0  0  0  0  0  0  0  0  0  0  0
    8.3993  -14.5503   24.6552 C   0  0  0  0  0  0  0  0  0  0  0  0
    9.5802  -14.1472   24.6754 O   0  0  0  0  0  0  0  0  0  0  0  0
   11.2647  -19.3087   25.8451 C   0  0  0  0  0  0  0  0  0  0  0  0
    6.7187  -12.3011   27.0288 C   0  0  1  0  0  0  0  0  0  0  0  0
    7.9199  -13.1592   26.6542 N   0  0  0  0  0  0  0  0  0  0  0  0
    7.4962  -14.0855   25.6391 C   0  0  0  0  0  0  0  0  0  0  0  0
    8.3900  -13.9139   27.8328 O   0  0  0  0  0  0  0  0  0  0  0  0
    8.8619  -13.3068   28.8490 O   0  0  0  0  0  0  0  0  0  0  0  0
  1  2  1  0
  3  2  1  0
  4  3  1  0
  4  5  1  0
  5  1  1  0
  5  6  1  1
  6  7  2  0
  8  9  1  0
  9 11  1  0
  9 10  2  0
 11 12  1  0
 12 13  1  0
 14 13  1  0
 15 14  1  1
 16  6  1  0
 16 15  1  0
 17 18  2  0
 17 15  1  0
 20 19  1  6
 20 21  1  0
 21 17  1  0
 22 20  1  0
 22 24  1  0
 23 22  2  0
M  END
$$$$
