PRA.pdb
     RDKit          3D

 24 24  0  0  1  0  0  0  0  0999 V2000
    8.9885  -14.5639   19.4300 N   0  0  0  0  0  0  0  0  0  0  0  0
    8.8608  -14.2111   18.0245 C   0  0  0  0  0  0  0  0  0  0  0  0
    8.0542  -12.9423   17.9661 C   0  0  0  0  0  0  0  0  0  0  0  0
    7.1830  -13.0759   19.2257 C   0  0  0  0  0  0  0  0  0  0  0  0
    8.2873  -13.5711   20.1748 C   0  0  1  0  0  0  0  0  0  0  0  0
    7.7404  -13.9582   21.4640 C   0  0  0  0  0  0  0  0  0  0  0  0
    7.0969  -13.1074   22.1468 O   0  0  0  0  0  0  0  0  0  0  0  0
    7.4404  -21.4575   26.4844 N   0  0  0  0  0  0  0  0  0  0  0  0
    6.8768  -20.4037   27.2545 C   0  0  0  0  0  0  0  0  0  0  0  0
    6.5212  -20.6025   28.4869 N   0  0  0  0  0  0  0  0  0  0  0  0
    6.6724  -19.0992   26.7411 N   0  0  0  0  0  0  0  0  0  0  0  0
    7.0601  -18.7161   25.4326 C   0  0  0  0  0  0  0  0  0  0  0  0
    6.8885  -17.2586   25.1025 C   0  0  0  0  0  0  0  0  0  0  0  0
    7.3233  -17.0485   23.6491 C   0  0  0  0  0  0  0  0  0  0  0  0
    7.3028  -15.5746   23.3473 C   0  0  2  0  0  0  0  0  0  0  0  0
    7.8530  -15.2363   22.0678 N   0  0  0  0  0  0  0  0  0  0  0  0
    7.9927  -14.7973   24.3927 C   0  0  0  0  0  0  0  0  0  0  0  0
    9.2320  -14.8805   24.5132 O   0  0  0  0  0  0  0  0  0  0  0  0
    6.1042  -19.8050   29.0055 C   0  0  0  0  0  0  0  0  0  0  0  0
    6.9433  -12.0556   26.6866 C   0  0  1  0  0  0  0  0  0  0  0  0
    7.9535  -13.0777   26.1822 N   0  0  0  0  0  0  0  0  0  0  0  0
    7.2710  -13.9529   25.2677 C   0  0  0  0  0  0  0  0  0  0  0  0
    8.4780  -13.8709   27.3115 O   0  0  0  0  0  0  0  0  0  0  0  0
    9.1872  -13.3236   28.2179 O   0  0  0  0  0  0  0  0  0  0  0  0
  1  2  1  0
  3  2  1  0
  4  3  1  0
  4  5  1  0
  5  1  1  0
  5  6  1  1
  6  7  2  0
  8  9  1  0
  9 11  1  0
  9 10  2  0
 11 12  1  0
 12 13  1  0
 14 13  1  0
 15 14  1  1
 16  6  1  0
 16 15  1  0
 17 18  2  0
 17 15  1  0
 20 19  1  6
 20 21  1  0
 21 17  1  0
 22 20  1  0
 22 24  1  0
 23 22  2  0
M  END
$$$$
