PRA.pdb
     RDKit          3D

 24 24  0  0  1  0  0  0  0  0999 V2000
    3.8089  -19.3633   22.8265 N   0  0  0  0  0  0  0  0  0  0  0  0
    2.4135  -19.6744   22.5578 C   0  0  0  0  0  0  0  0  0  0  0  0
    2.2917  -19.8788   21.0721 C   0  0  0  0  0  0  0  0  0  0  0  0
    3.4130  -18.9683   20.5455 C   0  0  0  0  0  0  0  0  0  0  0  0
    4.4863  -19.3673   21.5724 C   0  0  1  0  0  0  0  0  0  0  0  0
    5.6722  -18.5374   21.4453 C   0  0  0  0  0  0  0  0  0  0  0  0
    6.4329  -18.6897   20.4443 O   0  0  0  0  0  0  0  0  0  0  0  0
    8.4856  -14.4903   18.2543 N   0  0  0  0  0  0  0  0  0  0  0  0
    8.6542  -13.1142   18.5692 C   0  0  0  0  0  0  0  0  0  0  0  0
    9.4830  -12.3781   17.8938 N   0  0  0  0  0  0  0  0  0  0  0  0
    7.9457  -12.4711   19.6139 N   0  0  0  0  0  0  0  0  0  0  0  0
    7.2499  -13.1808   20.6244 C   0  0  0  0  0  0  0  0  0  0  0  0
    7.6729  -14.6101   20.8261 C   0  0  0  0  0  0  0  0  0  0  0  0
    6.7914  -15.2140   21.9233 C   0  0  0  0  0  0  0  0  0  0  0  0
    7.1937  -16.6490   22.1307 C   0  0  2  0  0  0  0  0  0  0  0  0
    6.0897  -17.5345   22.3568 N   0  0  0  0  0  0  0  0  0  0  0  0
    8.1602  -16.7870   23.2351 C   0  0  0  0  0  0  0  0  0  0  0  0
    7.8519  -16.4047   24.3823 O   0  0  0  0  0  0  0  0  0  0  0  0
    9.5460  -11.3705   18.1380 C   0  0  0  0  0  0  0  0  0  0  0  0
   11.2147  -18.7535   23.7890 C   0  0  1  0  0  0  0  0  0  0  0  0
   10.3629  -17.5310   24.1044 N   0  0  0  0  0  0  0  0  0  0  0  0
    9.4394  -17.3490   23.0172 C   0  0  0  0  0  0  0  0  0  0  0  0
   11.2188  -16.3335   24.2184 O   0  0  0  0  0  0  0  0  0  0  0  0
   11.3109  -15.5048   23.2547 O   0  0  0  0  0  0  0  0  0  0  0  0
  1  2  1  0
  3  2  1  0
  4  3  1  0
  4  5  1  0
  5  1  1  0
  5  6  1  1
  6  7  2  0
  8  9  1  0
  9 11  1  0
  9 10  2  0
 11 12  1  0
 12 13  1  0
 14 13  1  0
 15 14  1  1
 16  6  1  0
 16 15  1  0
 17 18  2  0
 17 15  1  0
 20 19  1  1
 20 21  1  0
 21 17  1  0
 22 20  1  0
 22 24  1  0
 23 22  2  0
M  END
$$$$
