PRA.pdb
     RDKit          3D

 24 24  0  0  1  0  0  0  0  0999 V2000
    9.0713  -14.5327   19.5610 N   0  0  0  0  0  0  0  0  0  0  0  0
    8.7274  -14.3447   18.1600 C   0  0  0  0  0  0  0  0  0  0  0  0
    7.5696  -13.3845   18.1215 C   0  0  0  0  0  0  0  0  0  0  0  0
    6.8871  -13.6747   19.4681 C   0  0  0  0  0  0  0  0  0  0  0  0
    8.1638  -13.7410   20.3233 C   0  0  1  0  0  0  0  0  0  0  0  0
    7.8688  -14.1728   21.6790 C   0  0  0  0  0  0  0  0  0  0  0  0
    6.9676  -13.5759   22.3390 O   0  0  0  0  0  0  0  0  0  0  0  0
   13.1338  -18.9455   22.0842 N   0  0  0  0  0  0  0  0  0  0  0  0
   13.2584  -18.1489   23.2551 C   0  0  0  0  0  0  0  0  0  0  0  0
   14.2705  -17.3505   23.4070 N   0  0  0  0  0  0  0  0  0  0  0  0
   12.3094  -18.1722   24.3067 N   0  0  0  0  0  0  0  0  0  0  0  0
   10.9099  -18.1492   24.0828 C   0  0  0  0  0  0  0  0  0  0  0  0
   10.2483  -16.8063   24.2304 C   0  0  0  0  0  0  0  0  0  0  0  0
    8.7379  -17.0031   24.0695 C   0  0  0  0  0  0  0  0  0  0  0  0
    8.1192  -15.6891   23.6762 C   0  0  2  0  0  0  0  0  0  0  0  0
    8.5055  -15.2324   22.3737 N   0  0  0  0  0  0  0  0  0  0  0  0
    8.4093  -14.6354   24.6654 C   0  0  0  0  0  0  0  0  0  0  0  0
    9.5291  -14.0847   24.6767 O   0  0  0  0  0  0  0  0  0  0  0  0
   14.3529  -16.8384   24.3070 C   0  0  0  0  0  0  0  0  0  0  0  0
    6.3990  -12.4069   26.7522 C   0  0  2  0  0  0  0  0  0  0  0  0
    7.6997  -13.1698   26.5388 N   0  0  0  0  0  0  0  0  0  0  0  0
    7.4350  -14.2340   25.6084 C   0  0  0  0  0  0  0  0  0  0  0  0
    8.1632  -13.7473   27.8160 O   0  0  0  0  0  0  0  0  0  0  0  0
    8.0886  -15.0015   28.0287 O   0  0  0  0  0  0  0  0  0  0  0  0
  1  2  1  0
  3  2  1  0
  4  3  1  0
  4  5  1  0
  5  1  1  0
  5  6  1  1
  6  7  2  0
  8  9  1  0
  9 11  1  0
  9 10  2  0
 11 12  1  0
 12 13  1  0
 14 13  1  0
 15 14  1  1
 16  6  1  0
 16 15  1  0
 17 18  2  0
 17 15  1  0
 20 19  1  6
 20 21  1  0
 21 17  1  0
 22 20  1  0
 22 24  1  0
 23 22  2  0
M  END
$$$$
