PRA.pdb
     RDKit          3D

 24 24  0  0  1  0  0  0  0  0999 V2000
    7.5153  -15.1284   19.2046 N   0  0  0  0  0  0  0  0  0  0  0  0
    7.5822  -14.1534   18.1270 C   0  0  0  0  0  0  0  0  0  0  0  0
    8.2547  -12.9301   18.6884 C   0  0  0  0  0  0  0  0  0  0  0  0
    7.8549  -13.0147   20.1705 C   0  0  0  0  0  0  0  0  0  0  0  0
    8.1022  -14.5217   20.3532 C   0  0  1  0  0  0  0  0  0  0  0  0
    7.6524  -14.9757   21.6581 C   0  0  0  0  0  0  0  0  0  0  0  0
    6.4129  -14.9888   21.9182 O   0  0  0  0  0  0  0  0  0  0  0  0
    5.5518  -21.4414   25.0667 N   0  0  0  0  0  0  0  0  0  0  0  0
    6.0614  -20.9552   23.8318 C   0  0  0  0  0  0  0  0  0  0  0  0
    5.2725  -20.7709   22.8176 N   0  0  0  0  0  0  0  0  0  0  0  0
    7.4294  -20.6460   23.6317 N   0  0  0  0  0  0  0  0  0  0  0  0
    8.0669  -19.5379   24.2438 C   0  0  0  0  0  0  0  0  0  0  0  0
    7.5675  -18.1834   23.8213 C   0  0  0  0  0  0  0  0  0  0  0  0
    8.4430  -17.1243   24.4977 C   0  0  0  0  0  0  0  0  0  0  0  0
    8.0066  -15.7639   24.0254 C   0  0  2  0  0  0  0  0  0  0  0  0
    8.4825  -15.4235   22.7170 N   0  0  0  0  0  0  0  0  0  0  0  0
    8.4015  -14.7078   24.9750 C   0  0  0  0  0  0  0  0  0  0  0  0
    9.6076  -14.4227   25.1213 O   0  0  0  0  0  0  0  0  0  0  0  0
    5.7013  -20.4851   21.9158 C   0  0  0  0  0  0  0  0  0  0  0  0
    6.6172  -12.2005   27.0680 C   0  0  1  0  0  0  0  0  0  0  0  0
    7.8217  -13.0786   26.7556 N   0  0  0  0  0  0  0  0  0  0  0  0
    7.4319  -14.0066   25.7284 C   0  0  0  0  0  0  0  0  0  0  0  0
    8.2257  -13.8309   27.9599 O   0  0  0  0  0  0  0  0  0  0  0  0
    7.9803  -15.0772   28.0620 O   0  0  0  0  0  0  0  0  0  0  0  0
  1  2  1  0
  3  2  1  0
  4  3  1  0
  4  5  1  0
  5  1  1  0
  5  6  1  1
  6  7  2  0
  8  9  1  0
  9 11  1  0
  9 10  2  0
 11 12  1  0
 12 13  1  0
 14 13  1  0
 15 14  1  1
 16  6  1  0
 16 15  1  0
 17 18  2  0
 17 15  1  0
 20 19  1  6
 20 21  1  0
 21 17  1  0
 22 20  1  0
 22 24  1  0
 23 22  2  0
M  END
$$$$
