PRA.pdb
     RDKit          3D

 24 24  0  0  1  0  0  0  0  0999 V2000
    8.6506  -15.1343   20.3564 N   0  0  0  0  0  0  0  0  0  0  0  0
    8.4003  -14.7859   18.9664 C   0  0  0  0  0  0  0  0  0  0  0  0
    8.1688  -13.2998   18.9254 C   0  0  0  0  0  0  0  0  0  0  0  0
    7.5817  -13.0433   20.3229 C   0  0  0  0  0  0  0  0  0  0  0  0
    8.5618  -13.9285   21.1113 C   0  0  1  0  0  0  0  0  0  0  0  0
    8.1707  -14.0352   22.5066 C   0  0  0  0  0  0  0  0  0  0  0  0
    8.1062  -12.9878   23.2157 O   0  0  0  0  0  0  0  0  0  0  0  0
    5.6175  -22.2793   24.0540 N   0  0  0  0  0  0  0  0  0  0  0  0
    6.3202  -21.1271   23.6069 C   0  0  0  0  0  0  0  0  0  0  0  0
    6.4426  -20.8780   22.3389 N   0  0  0  0  0  0  0  0  0  0  0  0
    6.9173  -20.1973   24.4934 N   0  0  0  0  0  0  0  0  0  0  0  0
    6.3670  -18.9172   24.7534 C   0  0  0  0  0  0  0  0  0  0  0  0
    7.2610  -17.7481   24.4423 C   0  0  0  0  0  0  0  0  0  0  0  0
    6.5353  -16.4700   24.8732 C   0  0  0  0  0  0  0  0  0  0  0  0
    7.4109  -15.2879   24.5571 C   0  0  2  0  0  0  0  0  0  0  0  0
    7.8404  -15.2325   23.1908 N   0  0  0  0  0  0  0  0  0  0  0  0
    8.5910  -15.2359   25.4389 C   0  0  0  0  0  0  0  0  0  0  0  0
    9.6907  -15.6626   25.0315 O   0  0  0  0  0  0  0  0  0  0  0  0
    6.9690  -20.0268   22.0609 C   0  0  0  0  0  0  0  0  0  0  0  0
    9.3498  -13.5125   28.6365 C   0  0  1  0  0  0  0  0  0  0  0  0
    9.6724  -14.5435   27.5631 N   0  0  0  0  0  0  0  0  0  0  0  0
    8.4995  -14.7072   26.7472 C   0  0  0  0  0  0  0  0  0  0  0  0
   10.0112  -15.8369   28.1891 O   0  0  0  0  0  0  0  0  0  0  0  0
    9.1992  -16.8177   28.1381 O   0  0  0  0  0  0  0  0  0  0  0  0
  1  2  1  0
  3  2  1  0
  4  3  1  0
  4  5  1  0
  5  1  1  0
  5  6  1  1
  6  7  2  0
  8  9  1  0
  9 11  1  0
  9 10  2  0
 11 12  1  0
 12 13  1  0
 14 13  1  0
 15 14  1  6
 16  6  1  0
 16 15  1  0
 17 18  2  0
 17 15  1  0
 20 19  1  6
 20 21  1  0
 21 17  1  0
 22 20  1  0
 22 24  1  0
 23 22  2  0
M  END
$$$$
