PRA.pdb
     RDKit          3D

 24 24  0  0  1  0  0  0  0  0999 V2000
    7.8061  -14.8509   18.8897 N   0  0  0  0  0  0  0  0  0  0  0  0
    7.6531  -13.8193   17.8755 C   0  0  0  0  0  0  0  0  0  0  0  0
    8.1153  -12.5284   18.4951 C   0  0  0  0  0  0  0  0  0  0  0  0
    7.7964  -12.7705   19.9794 C   0  0  0  0  0  0  0  0  0  0  0  0
    8.3188  -14.2150   20.0577 C   0  0  1  0  0  0  0  0  0  0  0  0
    8.0104  -14.8185   21.3430 C   0  0  0  0  0  0  0  0  0  0  0  0
    6.8004  -15.0052   21.6674 O   0  0  0  0  0  0  0  0  0  0  0  0
   10.1213  -19.4510   20.4870 N   0  0  0  0  0  0  0  0  0  0  0  0
    9.4770  -20.5059   21.1893 C   0  0  0  0  0  0  0  0  0  0  0  0
    8.9976  -21.5293   20.5507 N   0  0  0  0  0  0  0  0  0  0  0  0
    9.3206  -20.5106   22.5973 N   0  0  0  0  0  0  0  0  0  0  0  0
    9.5934  -19.3798   23.4071 C   0  0  0  0  0  0  0  0  0  0  0  0
    8.8417  -18.1265   23.0510 C   0  0  0  0  0  0  0  0  0  0  0  0
    9.3132  -17.0100   23.9873 C   0  0  0  0  0  0  0  0  0  0  0  0
    8.6060  -15.7356   23.6135 C   0  0  2  0  0  0  0  0  0  0  0  0
    8.9537  -15.2382   22.3150 N   0  0  0  0  0  0  0  0  0  0  0  0
    8.8307  -14.6770   24.6144 C   0  0  0  0  0  0  0  0  0  0  0  0
    9.9822  -14.2349   24.8038 O   0  0  0  0  0  0  0  0  0  0  0  0
    8.5118  -22.2618   21.1042 C   0  0  0  0  0  0  0  0  0  0  0  0
    6.6445  -12.4164   26.5850 C   0  0  1  0  0  0  0  0  0  0  0  0
    7.9766  -13.1138   26.3430 N   0  0  0  0  0  0  0  0  0  0  0  0
    7.7577  -14.1491   25.3692 C   0  0  0  0  0  0  0  0  0  0  0  0
    8.4640  -13.7230   27.5963 O   0  0  0  0  0  0  0  0  0  0  0  0
    8.7779  -12.9960   28.5947 O   0  0  0  0  0  0  0  0  0  0  0  0
  1  2  1  0
  3  2  1  0
  4  3  1  0
  4  5  1  0
  5  1  1  0
  5  6  1  1
  6  7  2  0
  8  9  1  0
  9 11  1  0
  9 10  2  0
 11 12  1  0
 12 13  1  0
 14 13  1  0
 15 14  1  1
 16  6  1  0
 16 15  1  0
 17 18  2  0
 17 15  1  0
 20 19  1  6
 20 21  1  0
 21 17  1  0
 22 20  1  0
 22 24  1  0
 23 22  2  0
M  END
$$$$
