PRA.pdb
     RDKit          3D

 24 24  0  0  1  0  0  0  0  0999 V2000
    6.2283  -20.8839   19.7132 N   0  0  0  0  0  0  0  0  0  0  0  0
    5.3253  -21.4881   18.7458 C   0  0  0  0  0  0  0  0  0  0  0  0
    5.8126  -21.0798   17.3820 C   0  0  0  0  0  0  0  0  0  0  0  0
    6.4694  -19.7234   17.6857 C   0  0  0  0  0  0  0  0  0  0  0  0
    7.1964  -20.1432   18.9745 C   0  0  1  0  0  0  0  0  0  0  0  0
    7.8125  -19.0013   19.6284 C   0  0  0  0  0  0  0  0  0  0  0  0
    8.8462  -18.4763   19.1184 O   0  0  0  0  0  0  0  0  0  0  0  0
    9.2144  -12.4330   18.7096 N   0  0  0  0  0  0  0  0  0  0  0  0
    9.0099  -11.9992   20.0479 C   0  0  0  0  0  0  0  0  0  0  0  0
    9.1031  -10.7419   20.3570 N   0  0  0  0  0  0  0  0  0  0  0  0
    8.6972  -12.8878   21.1060 N   0  0  0  0  0  0  0  0  0  0  0  0
    7.9416  -14.0726   20.9200 C   0  0  0  0  0  0  0  0  0  0  0  0
    7.6631  -14.8702   22.1645 C   0  0  0  0  0  0  0  0  0  0  0  0
    6.9237  -16.1466   21.7527 C   0  0  0  0  0  0  0  0  0  0  0  0
    7.9384  -17.1931   21.3792 C   0  0  2  0  0  0  0  0  0  0  0  0
    7.3663  -18.3845   20.8247 N   0  0  0  0  0  0  0  0  0  0  0  0
    8.7928  -17.5533   22.5252 C   0  0  0  0  0  0  0  0  0  0  0  0
    8.2925  -18.1140   23.5215 O   0  0  0  0  0  0  0  0  0  0  0  0
    8.9996  -10.4798   21.3568 C   0  0  0  0  0  0  0  0  0  0  0  0
   12.4682  -17.4737   23.1785 C   0  0  1  0  0  0  0  0  0  0  0  0
   11.0215  -17.6720   23.6113 N   0  0  0  0  0  0  0  0  0  0  0  0
   10.1789  -17.2736   22.5161 C   0  0  0  0  0  0  0  0  0  0  0  0
   10.7236  -16.8264   24.7842 O   0  0  0  0  0  0  0  0  0  0  0  0
    9.9673  -15.8064   24.6763 O   0  0  0  0  0  0  0  0  0  0  0  0
  1  2  1  0
  3  2  1  0
  4  3  1  0
  4  5  1  0
  5  1  1  0
  5  6  1  1
  6  7  2  0
  8  9  1  0
  9 11  1  0
  9 10  2  0
 11 12  1  0
 12 13  1  0
 14 13  1  0
 15 14  1  1
 16  6  1  0
 16 15  1  0
 17 18  2  0
 17 15  1  0
 20 19  1  6
 20 21  1  0
 21 17  1  0
 22 20  1  0
 22 24  1  0
 23 22  2  0
M  END
$$$$
