PRA.pdb
     RDKit          3D

 24 24  0  0  1  0  0  0  0  0999 V2000
   10.9877  -18.5845   21.5288 N   0  0  0  0  0  0  0  0  0  0  0  0
   11.2800  -19.0406   20.1787 C   0  0  0  0  0  0  0  0  0  0  0  0
   12.3598  -18.1418   19.6402 C   0  0  0  0  0  0  0  0  0  0  0  0
   12.0790  -16.8365   20.4023 C   0  0  0  0  0  0  0  0  0  0  0  0
   11.8342  -17.4664   21.7839 C   0  0  1  0  0  0  0  0  0  0  0  0
   11.3707  -16.4758   22.7406 C   0  0  0  0  0  0  0  0  0  0  0  0
   12.1391  -15.5253   23.0724 O   0  0  0  0  0  0  0  0  0  0  0  0
    7.7913  -12.2413   19.7194 N   0  0  0  0  0  0  0  0  0  0  0  0
    7.7830  -13.6385   19.9815 C   0  0  0  0  0  0  0  0  0  0  0  0
    8.6702  -14.4177   19.4423 N   0  0  0  0  0  0  0  0  0  0  0  0
    6.8308  -14.2573   20.8284 N   0  0  0  0  0  0  0  0  0  0  0  0
    7.1919  -15.0139   21.9713 C   0  0  0  0  0  0  0  0  0  0  0  0
    7.7803  -14.2302   23.1125 C   0  0  0  0  0  0  0  0  0  0  0  0
    8.1497  -15.2177   24.2235 C   0  0  0  0  0  0  0  0  0  0  0  0
    9.6431  -15.4022   24.2283 C   0  0  2  0  0  0  0  0  0  0  0  0
   10.1005  -16.4555   23.3707 N   0  0  0  0  0  0  0  0  0  0  0  0
   10.1571  -15.6287   25.5912 C   0  0  0  0  0  0  0  0  0  0  0  0
   10.6226  -16.7440   25.9026 O   0  0  0  0  0  0  0  0  0  0  0  0
    8.6507  -15.4242   19.6981 C   0  0  0  0  0  0  0  0  0  0  0  0
   10.4974  -13.5152   28.6601 C   0  0  2  0  0  0  0  0  0  0  0  0
   10.5949  -14.8318   27.9007 N   0  0  0  0  0  0  0  0  0  0  0  0
   10.1325  -14.5983   26.5592 C   0  0  0  0  0  0  0  0  0  0  0  0
    9.7360  -15.8489   28.5389 O   0  0  0  0  0  0  0  0  0  0  0  0
    8.5737  -16.1001   28.0808 O   0  0  0  0  0  0  0  0  0  0  0  0
  1  2  1  0
  3  2  1  0
  4  3  1  0
  4  5  1  0
  5  1  1  0
  5  6  1  1
  6  7  2  0
  8  9  1  0
  9 11  1  0
  9 10  2  0
 11 12  1  0
 12 13  1  0
 14 13  1  0
 15 14  1  1
 16  6  1  0
 16 15  1  0
 17 18  2  0
 17 15  1  0
 20 19  1  6
 20 21  1  0
 21 17  1  0
 22 20  1  0
 22 24  1  0
 23 22  2  0
M  END
$$$$
