PRA.pdb
     RDKit          3D

 24 24  0  0  1  0  0  0  0  0999 V2000
   11.2254  -19.5699   17.8505 N   0  0  0  0  0  0  0  0  0  0  0  0
   10.4272  -20.3884   16.9509 C   0  0  0  0  0  0  0  0  0  0  0  0
    9.2964  -19.5234   16.4639 C   0  0  0  0  0  0  0  0  0  0  0  0
    9.1125  -18.5641   17.6511 C   0  0  0  0  0  0  0  0  0  0  0  0
   10.6031  -18.2890   17.9120 C   0  0  1  0  0  0  0  0  0  0  0  0
   10.7912  -17.5068   19.1219 C   0  0  0  0  0  0  0  0  0  0  0  0
   11.8916  -16.9087   19.3104 O   0  0  0  0  0  0  0  0  0  0  0  0
    7.6901  -13.3761   17.2245 N   0  0  0  0  0  0  0  0  0  0  0  0
    7.9905  -12.6986   18.4377 C   0  0  0  0  0  0  0  0  0  0  0  0
    8.9395  -11.8141   18.4837 N   0  0  0  0  0  0  0  0  0  0  0  0
    7.2906  -12.9368   19.6462 N   0  0  0  0  0  0  0  0  0  0  0  0
    7.4629  -14.1133   20.4178 C   0  0  0  0  0  0  0  0  0  0  0  0
    8.8665  -14.3868   20.8847 C   0  0  0  0  0  0  0  0  0  0  0  0
    8.8499  -15.6844   21.6980 C   0  0  0  0  0  0  0  0  0  0  0  0
   10.0477  -16.5102   21.3139 C   0  0  2  0  0  0  0  0  0  0  0  0
    9.8395  -17.3324   20.1586 N   0  0  0  0  0  0  0  0  0  0  0  0
   10.5066  -17.3532   22.4328 C   0  0  0  0  0  0  0  0  0  0  0  0
    9.7709  -18.2620   22.8688 O   0  0  0  0  0  0  0  0  0  0  0  0
    9.2079  -11.4394   19.4145 C   0  0  0  0  0  0  0  0  0  0  0  0
   13.7306  -17.7327   24.2715 C   0  0  1  0  0  0  0  0  0  0  0  0
   12.2450  -18.0076   24.0792 N   0  0  0  0  0  0  0  0  0  0  0  0
   11.7744  -17.1498   23.0252 C   0  0  0  0  0  0  0  0  0  0  0  0
   11.5082  -17.6985   25.3206 O   0  0  0  0  0  0  0  0  0  0  0  0
   10.8110  -16.6361   25.4167 O   0  0  0  0  0  0  0  0  0  0  0  0
  1  2  1  0
  3  2  1  0
  4  3  1  0
  4  5  1  0
  5  1  1  0
  5  6  1  1
  6  7  2  0
  8  9  1  0
  9 11  1  0
  9 10  2  0
 11 12  1  0
 12 13  1  0
 14 13  1  0
 15 14  1  1
 16  6  1  0
 16 15  1  0
 17 18  2  0
 17 15  1  0
 20 19  1  6
 20 21  1  0
 21 17  1  0
 22 20  1  0
 22 24  1  0
 23 22  2  0
M  END
$$$$
