PRA.pdb
     RDKit          3D

 24 24  0  0  1  0  0  0  0  0999 V2000
    7.9354  -14.9205   18.6287 N   0  0  0  0  0  0  0  0  0  0  0  0
    7.6330  -13.9358   17.6016 C   0  0  0  0  0  0  0  0  0  0  0  0
    7.9789  -12.5886   18.1753 C   0  0  0  0  0  0  0  0  0  0  0  0
    7.7468  -12.8270   19.6762 C   0  0  0  0  0  0  0  0  0  0  0  0
    8.4233  -14.2057   19.7613 C   0  0  1  0  0  0  0  0  0  0  0  0
    8.2323  -14.8070   21.0702 C   0  0  0  0  0  0  0  0  0  0  0  0
    7.1586  -15.4323   21.3160 O   0  0  0  0  0  0  0  0  0  0  0  0
   13.6402  -16.1406   20.7817 N   0  0  0  0  0  0  0  0  0  0  0  0
   14.0349  -15.8417   22.1144 C   0  0  0  0  0  0  0  0  0  0  0  0
   14.7189  -14.7702   22.3769 N   0  0  0  0  0  0  0  0  0  0  0  0
   13.7145  -16.6719   23.2167 N   0  0  0  0  0  0  0  0  0  0  0  0
   12.3819  -16.9853   23.5842 C   0  0  0  0  0  0  0  0  0  0  0  0
   11.3550  -15.9311   23.2733 C   0  0  0  0  0  0  0  0  0  0  0  0
    9.9917  -16.4451   23.7454 C   0  0  0  0  0  0  0  0  0  0  0  0
    8.9454  -15.4174   23.4089 C   0  0  2  0  0  0  0  0  0  0  0  0
    9.1532  -14.7689   22.1478 N   0  0  0  0  0  0  0  0  0  0  0  0
    8.8284  -14.3965   24.4658 C   0  0  0  0  0  0  0  0  0  0  0  0
    9.7727  -13.6080   24.6756 O   0  0  0  0  0  0  0  0  0  0  0  0
   15.0360  -14.6254   23.3553 C   0  0  0  0  0  0  0  0  0  0  0  0
    6.0613  -12.9235   26.3903 C   0  0  2  0  0  0  0  0  0  0  0  0
    7.5359  -13.2845   26.2697 N   0  0  0  0  0  0  0  0  0  0  0  0
    7.6575  -14.2931   25.2518 C   0  0  0  0  0  0  0  0  0  0  0  0
    8.0306  -13.8270   27.5505 O   0  0  0  0  0  0  0  0  0  0  0  0
    8.1381  -13.0788   28.5764 O   0  0  0  0  0  0  0  0  0  0  0  0
  1  2  1  0
  3  2  1  0
  4  3  1  0
  4  5  1  0
  5  1  1  0
  5  6  1  1
  6  7  2  0
  8  9  1  0
  9 11  1  0
  9 10  2  0
 11 12  1  0
 12 13  1  0
 14 13  1  0
 15 14  1  1
 16  6  1  0
 16 15  1  0
 17 18  2  0
 17 15  1  0
 20 19  1  6
 20 21  1  0
 21 17  1  0
 22 20  1  0
 22 24  1  0
 23 22  2  0
M  END
$$$$
