PRA.pdb
     RDKit          3D

 24 24  0  0  1  0  0  0  0  0999 V2000
    8.7293  -14.7815   20.0990 N   0  0  0  0  0  0  0  0  0  0  0  0
    8.3849  -14.2919   18.7732 C   0  0  0  0  0  0  0  0  0  0  0  0
    7.9971  -12.8466   18.9305 C   0  0  0  0  0  0  0  0  0  0  0  0
    7.4464  -12.8325   20.3657 C   0  0  0  0  0  0  0  0  0  0  0  0
    8.5467  -13.6964   21.0051 C   0  0  1  0  0  0  0  0  0  0  0  0
    8.2288  -14.0186   22.3857 C   0  0  0  0  0  0  0  0  0  0  0  0
    7.9707  -13.0824   23.1988 O   0  0  0  0  0  0  0  0  0  0  0  0
    9.8534  -20.1349   21.5288 N   0  0  0  0  0  0  0  0  0  0  0  0
    8.8820  -20.7585   22.3587 C   0  0  0  0  0  0  0  0  0  0  0  0
    8.1101  -21.6899   21.8880 N   0  0  0  0  0  0  0  0  0  0  0  0
    8.6977  -20.4142   23.7205 N   0  0  0  0  0  0  0  0  0  0  0  0
    7.8298  -19.3762   24.1427 C   0  0  0  0  0  0  0  0  0  0  0  0
    8.3625  -17.9780   23.9882 C   0  0  0  0  0  0  0  0  0  0  0  0
    7.3018  -17.0068   24.5148 C   0  0  0  0  0  0  0  0  0  0  0  0
    7.7864  -15.5988   24.2983 C   0  0  2  0  0  0  0  0  0  0  0  0
    8.1740  -15.3197   22.9470 N   0  0  0  0  0  0  0  0  0  0  0  0
    8.9021  -15.2644   25.2018 C   0  0  0  0  0  0  0  0  0  0  0  0
   10.0782  -15.4762   24.8420 O   0  0  0  0  0  0  0  0  0  0  0  0
    7.3381  -22.0312   22.4934 C   0  0  0  0  0  0  0  0  0  0  0  0
    9.2652  -13.1585   28.2009 C   0  0  1  0  0  0  0  0  0  0  0  0
    9.7525  -14.3078   27.3285 N   0  0  0  0  0  0  0  0  0  0  0  0
    8.6628  -14.7038   26.4777 C   0  0  0  0  0  0  0  0  0  0  0  0
   10.1480  -15.4521   28.1733 O   0  0  0  0  0  0  0  0  0  0  0  0
    9.4726  -16.5327   28.1637 O   0  0  0  0  0  0  0  0  0  0  0  0
  1  2  1  0
  3  2  1  0
  4  3  1  0
  4  5  1  0
  5  1  1  0
  5  6  1  1
  6  7  2  0
  8  9  1  0
  9 11  1  0
  9 10  2  0
 11 12  1  0
 12 13  1  0
 14 13  1  0
 15 14  1  6
 16  6  1  0
 16 15  1  0
 17 18  2  0
 17 15  1  0
 20 19  1  6
 20 21  1  0
 21 17  1  0
 22 20  1  0
 22 24  1  0
 23 22  2  0
M  END
$$$$
