EWK.pdb
     RDKit          3D

 33 34  0  0  1  0  0  0  0  0999 V2000
    7.5929  -17.4819   20.4144 N   0  0  0  0  0  0  0  0  0  0  0  0
    9.0066  -17.0707   20.3894 C   0  0  1  0  0  0  0  0  0  0  0  0
    9.0270  -15.8018   19.5782 C   0  0  0  0  0  0  0  0  0  0  0  0
    8.5346  -15.9356   18.1711 C   0  0  0  0  0  0  0  0  0  0  0  0
    9.5813  -16.5890   17.3521 C   0  0  0  0  0  0  0  0  0  0  0  0
   10.3653  -15.8705   16.6685 O   0  0  0  0  0  0  0  0  0  0  0  0
    9.4484  -16.7308   21.7760 C   0  0  0  0  0  0  0  0  0  0  0  0
   10.5262  -16.1283   21.9788 O   0  0  0  0  0  0  0  0  0  0  0  0
    9.7766  -17.9547   17.2699 O   0  0  0  0  0  0  0  0  0  0  0  0
    8.6797  -17.0688   22.9205 N   0  0  0  0  0  0  0  0  0  0  0  0
    9.1596  -16.8163   24.2646 C   0  0  1  0  0  0  0  0  0  0  0  0
    8.0041  -16.6826   25.2275 C   0  0  0  0  0  0  0  0  0  0  0  0
    7.2168  -15.4649   25.0082 C   0  0  0  0  0  0  0  0  0  0  0  0
    6.0908  -15.3294   24.2025 C   0  0  0  0  0  0  0  0  0  0  0  0
    5.6534  -14.0603   24.2645 N   0  0  0  0  0  0  0  0  0  0  0  0
    6.4768  -13.3905   25.0907 C   0  0  0  0  0  0  0  0  0  0  0  0
    6.5207  -12.0769   25.5288 C   0  0  0  0  0  0  0  0  0  0  0  0
    7.5064  -11.6638   26.3980 C   0  0  0  0  0  0  0  0  0  0  0  0
    8.4791  -12.5098   26.8693 C   0  0  0  0  0  0  0  0  0  0  0  0
    8.4461  -13.8177   26.4412 C   0  0  0  0  0  0  0  0  0  0  0  0
    7.4639  -14.2410   25.5715 C   0  0  0  0  0  0  0  0  0  0  0  0
   10.0193  -17.9244   24.7397 C   0  0  0  0  0  0  0  0  0  0  0  0
    9.8097  -19.0850   24.3261 O   0  0  0  0  0  0  0  0  0  0  0  0
   11.0924  -17.7604   25.6552 N   0  0  0  0  0  0  0  0  0  0  0  0
   11.9307  -18.8297   26.0498 C   0  0  1  0  0  0  0  0  0  0  0  0
   13.1379  -18.8788   25.1123 C   0  0  0  0  0  0  0  0  0  0  0  0
   13.9936  -20.0282   25.5200 C   0  0  0  0  0  0  0  0  0  0  0  0
   15.2571  -20.1812   24.7018 C   0  0  0  0  0  0  0  0  0  0  0  0
   15.9006  -21.4964   24.9855 C   0  0  0  0  0  0  0  0  0  0  0  0
   17.1701  -21.5761   24.2567 N   0  0  0  0  0  0  0  0  0  0  0  0
   12.4144  -18.8131   27.4186 C   0  0  0  0  0  0  0  0  0  0  0  0
   12.2724  -17.8803   28.2513 O   0  0  0  0  0  0  0  0  0  0  0  0
   13.1065  -19.9294   27.8763 O   0  0  0  0  0  0  0  0  0  0  0  0
  2  1  1  1
  2  3  1  0
  3  4  1  0
  4  5  1  0
  5  6  2  0
  7  2  1  0
  7  8  2  0
  9  5  1  0
 10  7  1  0
 11 12  1  1
 11 10  1  0
 12 13  1  0
 13 14  2  0
 13 21  1  0
 14 15  1  0
 15 16  1  0
 16 17  2  0
 18 17  1  0
 19 18  2  0
 20 19  1  0
 21 20  2  0
 21 16  1  0
 22 11  1  0
 23 22  2  0
 24 22  1  0
 25 24  1  0
 25 26  1  6
 26 27  1  0
 27 28  1  0
 28 29  1  0
 30 29  1  0
 31 33  1  0
 31 25  1  0
 32 31  2  0
M  END
$$$$
