EWK.pdb
     RDKit          3D

 33 34  0  0  1  0  0  0  0  0999 V2000
    6.7962  -16.6105   20.6154 N   0  0  0  0  0  0  0  0  0  0  0  0
    8.0544  -17.2424   20.1844 C   0  0  1  0  0  0  0  0  0  0  0  0
    8.4209  -16.5417   18.9025 C   0  0  0  0  0  0  0  0  0  0  0  0
    8.3579  -17.3897   17.6708 C   0  0  0  0  0  0  0  0  0  0  0  0
    8.7435  -16.5704   16.4989 C   0  0  0  0  0  0  0  0  0  0  0  0
    9.9608  -16.5119   16.1629 O   0  0  0  0  0  0  0  0  0  0  0  0
    9.1247  -16.9484   21.1851 C   0  0  0  0  0  0  0  0  0  0  0  0
   10.2910  -17.3720   21.0236 O   0  0  0  0  0  0  0  0  0  0  0  0
    7.8602  -15.8445   15.7225 O   0  0  0  0  0  0  0  0  0  0  0  0
    8.8784  -16.1839   22.3555 N   0  0  0  0  0  0  0  0  0  0  0  0
    9.9307  -15.8807   23.3050 C   0  0  1  0  0  0  0  0  0  0  0  0
    9.6243  -14.6043   24.0515 C   0  0  0  0  0  0  0  0  0  0  0  0
    8.2446  -14.5499   24.5459 C   0  0  0  0  0  0  0  0  0  0  0  0
    7.3279  -15.5955   24.5870 C   0  0  0  0  0  0  0  0  0  0  0  0
    6.1727  -15.1499   25.1093 N   0  0  0  0  0  0  0  0  0  0  0  0
    6.3380  -13.8469   25.3993 C   0  0  0  0  0  0  0  0  0  0  0  0
    5.5074  -12.8826   25.9467 C   0  0  0  0  0  0  0  0  0  0  0  0
    5.9606  -11.5949   26.1320 C   0  0  0  0  0  0  0  0  0  0  0  0
    7.2314  -11.2021   25.7930 C   0  0  0  0  0  0  0  0  0  0  0  0
    8.0662  -12.1513   25.2482 C   0  0  0  0  0  0  0  0  0  0  0  0
    7.6223  -13.4426   25.0587 C   0  0  0  0  0  0  0  0  0  0  0  0
   10.0761  -16.9652   24.3027 C   0  0  0  0  0  0  0  0  0  0  0  0
    9.0881  -17.6770   24.5846 O   0  0  0  0  0  0  0  0  0  0  0  0
   11.2877  -17.2631   24.9807 N   0  0  0  0  0  0  0  0  0  0  0  0
   11.4203  -18.3623   25.8618 C   0  0  1  0  0  0  0  0  0  0  0  0
   12.7595  -19.0493   25.5915 C   0  0  0  0  0  0  0  0  0  0  0  0
   12.5289  -20.1388   24.6018 C   0  0  0  0  0  0  0  0  0  0  0  0
   13.7861  -20.8638   24.1739 C   0  0  0  0  0  0  0  0  0  0  0  0
   13.4964  -21.7645   23.0211 C   0  0  0  0  0  0  0  0  0  0  0  0
   14.7602  -22.2785   22.4849 N   0  0  0  0  0  0  0  0  0  0  0  0
   11.3299  -18.0783   27.2828 C   0  0  0  0  0  0  0  0  0  0  0  0
   11.3975  -18.9161   28.2193 O   0  0  0  0  0  0  0  0  0  0  0  0
   11.1504  -16.7545   27.6702 O   0  0  0  0  0  0  0  0  0  0  0  0
  2  1  1  1
  2  3  1  0
  3  4  1  0
  4  5  1  0
  5  6  2  0
  7  2  1  0
  7  8  2  0
  9  5  1  0
 10  7  1  0
 11 12  1  1
 11 10  1  0
 12 13  1  0
 13 14  2  0
 13 21  1  0
 14 15  1  0
 15 16  1  0
 16 17  2  0
 18 17  1  0
 19 18  2  0
 20 19  1  0
 21 20  2  0
 21 16  1  0
 22 11  1  0
 23 22  2  0
 24 22  1  0
 25 24  1  0
 25 26  1  1
 26 27  1  0
 27 28  1  0
 28 29  1  0
 30 29  1  0
 31 33  1  0
 31 25  1  0
 32 31  2  0
M  END
$$$$
