EWK.pdb
     RDKit          3D

 33 34  0  0  1  0  0  0  0  0999 V2000
    8.3398  -18.7817   19.9475 N   0  0  0  0  0  0  0  0  0  0  0  0
    9.7223  -18.6503   20.4371 C   0  0  1  0  0  0  0  0  0  0  0  0
   10.5161  -18.1972   19.2400 C   0  0  0  0  0  0  0  0  0  0  0  0
    9.7028  -17.7957   18.0493 C   0  0  0  0  0  0  0  0  0  0  0  0
   10.2270  -18.4877   16.8496 C   0  0  0  0  0  0  0  0  0  0  0  0
    9.4584  -19.2456   16.1915 O   0  0  0  0  0  0  0  0  0  0  0  0
    9.7841  -17.5638   21.4612 C   0  0  0  0  0  0  0  0  0  0  0  0
   10.8807  -17.1739   21.9208 O   0  0  0  0  0  0  0  0  0  0  0  0
   11.5209  -18.3718   16.3778 O   0  0  0  0  0  0  0  0  0  0  0  0
    8.6185  -16.9253   21.9599 N   0  0  0  0  0  0  0  0  0  0  0  0
    8.6887  -15.8889   22.9707 C   0  0  1  0  0  0  0  0  0  0  0  0
    7.5811  -14.8805   22.7788 C   0  0  0  0  0  0  0  0  0  0  0  0
    7.7363  -13.6945   23.6274 C   0  0  0  0  0  0  0  0  0  0  0  0
    8.4888  -12.5580   23.3487 C   0  0  0  0  0  0  0  0  0  0  0  0
    8.3769  -11.6926   24.3707 N   0  0  0  0  0  0  0  0  0  0  0  0
    7.5711  -12.2558   25.2888 C   0  0  0  0  0  0  0  0  0  0  0  0
    7.1036  -11.8404   26.5250 C   0  0  0  0  0  0  0  0  0  0  0  0
    6.2682  -12.6500   27.2630 C   0  0  0  0  0  0  0  0  0  0  0  0
    5.8604  -13.8858   26.8265 C   0  0  0  0  0  0  0  0  0  0  0  0
    6.3183  -14.3096   25.5995 C   0  0  0  0  0  0  0  0  0  0  0  0
    7.1546  -13.5070   24.8533 C   0  0  0  0  0  0  0  0  0  0  0  0
    8.5504  -16.4605   24.3297 C   0  0  0  0  0  0  0  0  0  0  0  0
    7.6153  -17.2543   24.5699 O   0  0  0  0  0  0  0  0  0  0  0  0
    9.4253  -16.1647   25.4083 N   0  0  0  0  0  0  0  0  0  0  0  0
    9.8406  -17.1403   26.3453 C   0  0  1  0  0  0  0  0  0  0  0  0
   10.4756  -18.3081   25.5893 C   0  0  0  0  0  0  0  0  0  0  0  0
   10.7859  -19.3823   26.5739 C   0  0  0  0  0  0  0  0  0  0  0  0
   11.5116  -20.5722   25.9849 C   0  0  0  0  0  0  0  0  0  0  0  0
   11.8260  -21.5659   27.0516 C   0  0  0  0  0  0  0  0  0  0  0  0
   12.4869  -22.7259   26.4464 N   0  0  0  0  0  0  0  0  0  0  0  0
   10.7647  -16.7064   27.3777 C   0  0  0  0  0  0  0  0  0  0  0  0
   10.6993  -16.9808   28.6041 O   0  0  0  0  0  0  0  0  0  0  0  0
   11.8366  -15.9069   26.9953 O   0  0  0  0  0  0  0  0  0  0  0  0
  2  1  1  6
  2  3  1  0
  3  4  1  0
  4  5  1  0
  5  6  2  0
  7  2  1  0
  7  8  2  0
  9  5  1  0
 10  7  1  0
 11 12  1  6
 11 10  1  0
 12 13  1  0
 13 14  2  0
 13 21  1  0
 14 15  1  0
 15 16  1  0
 16 17  2  0
 18 17  1  0
 19 18  2  0
 20 19  1  0
 21 20  2  0
 21 16  1  0
 22 11  1  0
 23 22  2  0
 24 22  1  0
 25 24  1  0
 25 26  1  6
 26 27  1  0
 27 28  1  0
 28 29  1  0
 30 29  1  0
 31 33  1  0
 31 25  1  0
 32 31  2  0
M  END
$$$$
