EWK.pdb
     RDKit          3D

 33 34  0  0  1  0  0  0  0  0999 V2000
    9.2721  -18.6817   21.6150 N   0  0  0  0  0  0  0  0  0  0  0  0
   10.6009  -18.1519   21.9643 C   0  0  1  0  0  0  0  0  0  0  0  0
   10.8726  -17.0811   20.9405 C   0  0  0  0  0  0  0  0  0  0  0  0
   10.6872  -17.4987   19.5152 C   0  0  0  0  0  0  0  0  0  0  0  0
   10.9484  -16.3382   18.6330 C   0  0  0  0  0  0  0  0  0  0  0  0
   11.3982  -15.2702   19.1383 O   0  0  0  0  0  0  0  0  0  0  0  0
   10.5354  -17.4936   23.3042 C   0  0  0  0  0  0  0  0  0  0  0  0
   11.4684  -16.7650   23.7099 O   0  0  0  0  0  0  0  0  0  0  0  0
   10.7345  -16.3249   17.2677 O   0  0  0  0  0  0  0  0  0  0  0  0
    9.4269  -17.6574   24.1757 N   0  0  0  0  0  0  0  0  0  0  0  0
    9.3995  -17.0618   25.4967 C   0  0  1  0  0  0  0  0  0  0  0  0
    7.9916  -16.6681   25.8755 C   0  0  0  0  0  0  0  0  0  0  0  0
    7.4955  -15.5191   25.1109 C   0  0  0  0  0  0  0  0  0  0  0  0
    6.9835  -15.5319   23.8175 C   0  0  0  0  0  0  0  0  0  0  0  0
    6.6337  -14.2823   23.4685 N   0  0  0  0  0  0  0  0  0  0  0  0
    6.9127  -13.4799   24.5114 C   0  0  0  0  0  0  0  0  0  0  0  0
    6.7690  -12.1191   24.7283 C   0  0  0  0  0  0  0  0  0  0  0  0
    7.1513  -11.5595   25.9277 C   0  0  0  0  0  0  0  0  0  0  0  0
    7.6841  -12.3003   26.9531 C   0  0  0  0  0  0  0  0  0  0  0  0
    7.8318  -13.6537   26.7496 C   0  0  0  0  0  0  0  0  0  0  0  0
    7.4523  -14.2233   25.5530 C   0  0  0  0  0  0  0  0  0  0  0  0
    9.8948  -18.0115   26.5192 C   0  0  0  0  0  0  0  0  0  0  0  0
    9.1622  -18.9548   26.8874 O   0  0  0  0  0  0  0  0  0  0  0  0
   11.1748  -17.9264   27.1281 N   0  0  0  0  0  0  0  0  0  0  0  0
   11.5827  -18.7878   28.1739 C   0  0  1  0  0  0  0  0  0  0  0  0
   13.1091  -18.7619   28.2640 C   0  0  0  0  0  0  0  0  0  0  0  0
   13.5995  -20.1676   28.2070 C   0  0  0  0  0  0  0  0  0  0  0  0
   14.6524  -20.4143   27.1487 C   0  0  0  0  0  0  0  0  0  0  0  0
   15.1289  -21.8260   27.2127 C   0  0  0  0  0  0  0  0  0  0  0  0
   16.0358  -22.0773   26.0887 N   0  0  0  0  0  0  0  0  0  0  0  0
   11.0414  -18.5187   29.4939 C   0  0  0  0  0  0  0  0  0  0  0  0
   10.3665  -17.5129   29.8353 O   0  0  0  0  0  0  0  0  0  0  0  0
   11.2807  -19.4525   30.4965 O   0  0  0  0  0  0  0  0  0  0  0  0
  2  1  1  6
  2  3  1  0
  3  4  1  0
  4  5  1  0
  5  6  2  0
  7  2  1  0
  7  8  2  0
  9  5  1  0
 10  7  1  0
 11 12  1  1
 11 10  1  0
 12 13  1  0
 13 14  2  0
 13 21  1  0
 14 15  1  0
 15 16  1  0
 16 17  2  0
 18 17  1  0
 19 18  2  0
 20 19  1  0
 21 20  2  0
 21 16  1  0
 22 11  1  0
 23 22  2  0
 24 22  1  0
 25 24  1  0
 25 26  1  1
 26 27  1  0
 27 28  1  0
 28 29  1  0
 30 29  1  0
 31 33  1  0
 31 25  1  0
 32 31  2  0
M  END
$$$$
