EWK.pdb
     RDKit          3D

 33 34  0  0  1  0  0  0  0  0999 V2000
    9.0408  -18.5520   20.8288 N   0  0  0  0  0  0  0  0  0  0  0  0
   10.4228  -18.2535   21.2401 C   0  0  1  0  0  0  0  0  0  0  0  0
   10.9217  -17.2561   20.2277 C   0  0  0  0  0  0  0  0  0  0  0  0
   11.3485  -17.8369   18.9160 C   0  0  0  0  0  0  0  0  0  0  0  0
   11.8863  -16.7548   18.0597 C   0  0  0  0  0  0  0  0  0  0  0  0
   13.0651  -16.3428   18.2566 O   0  0  0  0  0  0  0  0  0  0  0  0
   10.4082  -17.5791   22.5736 C   0  0  0  0  0  0  0  0  0  0  0  0
   11.4298  -17.0094   23.0182 O   0  0  0  0  0  0  0  0  0  0  0  0
   11.1878  -16.1411   17.0371 O   0  0  0  0  0  0  0  0  0  0  0  0
    9.2510  -17.5494   23.3951 N   0  0  0  0  0  0  0  0  0  0  0  0
    9.2555  -16.9145   24.6980 C   0  0  1  0  0  0  0  0  0  0  0  0
    7.8624  -16.4773   25.0835 C   0  0  0  0  0  0  0  0  0  0  0  0
    7.4973  -15.1735   24.5199 C   0  0  0  0  0  0  0  0  0  0  0  0
    7.3110  -14.8643   23.1764 C   0  0  0  0  0  0  0  0  0  0  0  0
    6.9826  -13.5663   23.0633 N   0  0  0  0  0  0  0  0  0  0  0  0
    6.9569  -13.0477   24.3042 C   0  0  0  0  0  0  0  0  0  0  0  0
    6.6865  -11.7826   24.7997 C   0  0  0  0  0  0  0  0  0  0  0  0
    6.7376  -11.5383   26.1546 C   0  0  0  0  0  0  0  0  0  0  0  0
    7.0521  -12.5113   27.0703 C   0  0  0  0  0  0  0  0  0  0  0  0
    7.3228  -13.7726   26.5900 C   0  0  0  0  0  0  0  0  0  0  0  0
    7.2743  -14.0273   25.2361 C   0  0  0  0  0  0  0  0  0  0  0  0
    9.7433  -17.8447   25.7417 C   0  0  0  0  0  0  0  0  0  0  0  0
    9.2196  -18.9743   25.8511 O   0  0  0  0  0  0  0  0  0  0  0  0
   10.7900  -17.5391   26.6514 N   0  0  0  0  0  0  0  0  0  0  0  0
   11.2666  -18.4665   27.6079 C   0  0  1  0  0  0  0  0  0  0  0  0
   12.7023  -18.8500   27.2467 C   0  0  0  0  0  0  0  0  0  0  0  0
   13.1259  -19.9577   28.1486 C   0  0  0  0  0  0  0  0  0  0  0  0
   14.5655  -20.3872   27.9689 C   0  0  0  0  0  0  0  0  0  0  0  0
   14.8926  -21.5026   28.9032 C   0  0  0  0  0  0  0  0  0  0  0  0
   16.2266  -22.0199   28.5838 N   0  0  0  0  0  0  0  0  0  0  0  0
   11.2404  -18.0472   28.9976 C   0  0  0  0  0  0  0  0  0  0  0  0
   11.3308  -16.8671   29.4252 O   0  0  0  0  0  0  0  0  0  0  0  0
   11.1025  -19.0318   29.9703 O   0  0  0  0  0  0  0  0  0  0  0  0
  2  1  1  6
  2  3  1  0
  3  4  1  0
  4  5  1  0
  5  6  2  0
  7  2  1  0
  7  8  2  0
  9  5  1  0
 10  7  1  0
 11 12  1  1
 11 10  1  0
 12 13  1  0
 13 14  2  0
 13 21  1  0
 14 15  1  0
 15 16  1  0
 16 17  2  0
 18 17  1  0
 19 18  2  0
 20 19  1  0
 21 20  2  0
 21 16  1  0
 22 11  1  0
 23 22  2  0
 24 22  1  0
 25 24  1  0
 25 26  1  6
 26 27  1  0
 27 28  1  0
 28 29  1  0
 30 29  1  0
 31 33  1  0
 31 25  1  0
 32 31  2  0
M  END
$$$$
