EWK.pdb
     RDKit          3D

 33 34  0  0  1  0  0  0  0  0999 V2000
   10.0639  -17.5809   18.9537 N   0  0  0  0  0  0  0  0  0  0  0  0
    8.9761  -17.6287   19.9449 C   0  0  1  0  0  0  0  0  0  0  0  0
    8.7154  -19.0959   20.1639 C   0  0  0  0  0  0  0  0  0  0  0  0
    8.5217  -19.9028   18.9183 C   0  0  0  0  0  0  0  0  0  0  0  0
    7.4572  -20.9056   19.1518 C   0  0  0  0  0  0  0  0  0  0  0  0
    7.6473  -21.8167   20.0074 O   0  0  0  0  0  0  0  0  0  0  0  0
    9.4581  -17.0548   21.2378 C   0  0  0  0  0  0  0  0  0  0  0  0
   10.5443  -17.4213   21.7396 O   0  0  0  0  0  0  0  0  0  0  0  0
    6.2420  -20.9296   18.4941 O   0  0  0  0  0  0  0  0  0  0  0  0
    8.7199  -16.0773   21.9550 N   0  0  0  0  0  0  0  0  0  0  0  0
    9.1998  -15.5237   23.2056 C   0  0  1  0  0  0  0  0  0  0  0  0
    8.3455  -14.3545   23.6343 C   0  0  0  0  0  0  0  0  0  0  0  0
    8.6052  -13.9344   25.0152 C   0  0  0  0  0  0  0  0  0  0  0  0
    9.8075  -14.0320   25.7082 C   0  0  0  0  0  0  0  0  0  0  0  0
    9.6443  -13.5389   26.9476 N   0  0  0  0  0  0  0  0  0  0  0  0
    8.3666  -13.1318   27.0540 C   0  0  0  0  0  0  0  0  0  0  0  0
    7.6364  -12.5523   28.0788 C   0  0  0  0  0  0  0  0  0  0  0  0
    6.3084  -12.2347   27.8961 C   0  0  0  0  0  0  0  0  0  0  0  0
    5.6474  -12.4687   26.7161 C   0  0  0  0  0  0  0  0  0  0  0  0
    6.3624  -13.0442   25.6902 C   0  0  0  0  0  0  0  0  0  0  0  0
    7.6918  -13.3657   25.8629 C   0  0  0  0  0  0  0  0  0  0  0  0
    9.1582  -16.5352   24.2862 C   0  0  0  0  0  0  0  0  0  0  0  0
    8.1237  -17.2173   24.4496 O   0  0  0  0  0  0  0  0  0  0  0  0
   10.2360  -16.7935   25.1739 N   0  0  0  0  0  0  0  0  0  0  0  0
   10.2245  -17.8638   26.0994 C   0  0  1  0  0  0  0  0  0  0  0  0
   11.3600  -18.8268   25.7503 C   0  0  0  0  0  0  0  0  0  0  0  0
   11.4495  -19.8475   26.8319 C   0  0  0  0  0  0  0  0  0  0  0  0
   12.4906  -20.9183   26.5890 C   0  0  0  0  0  0  0  0  0  0  0  0
   12.4773  -21.9137   27.6994 C   0  0  0  0  0  0  0  0  0  0  0  0
   13.5598  -22.8798   27.4902 N   0  0  0  0  0  0  0  0  0  0  0  0
   10.3343  -17.5166   27.5049 C   0  0  0  0  0  0  0  0  0  0  0  0
   10.9970  -16.5636   27.9909 O   0  0  0  0  0  0  0  0  0  0  0  0
    9.6464  -18.3026   28.4234 O   0  0  0  0  0  0  0  0  0  0  0  0
  2  1  1  6
  2  3  1  0
  3  4  1  0
  4  5  1  0
  5  6  2  0
  7  2  1  0
  7  8  2  0
  9  5  1  0
 10  7  1  0
 11 12  1  1
 11 10  1  0
 12 13  1  0
 13 14  2  0
 13 21  1  0
 14 15  1  0
 15 16  1  0
 16 17  2  0
 18 17  1  0
 19 18  2  0
 20 19  1  0
 21 20  2  0
 21 16  1  0
 22 11  1  0
 23 22  2  0
 24 22  1  0
 25 24  1  0
 25 26  1  6
 26 27  1  0
 27 28  1  0
 28 29  1  0
 30 29  1  0
 31 33  1  0
 31 25  1  0
 32 31  2  0
M  END
$$$$
