EWK.pdb
     RDKit          3D

 33 34  0  0  1  0  0  0  0  0999 V2000
   10.8188  -18.3777   20.5093 N   0  0  0  0  0  0  0  0  0  0  0  0
   11.9019  -17.6821   21.2243 C   0  0  1  0  0  0  0  0  0  0  0  0
   12.5971  -16.8608   20.1704 C   0  0  0  0  0  0  0  0  0  0  0  0
   12.5801  -17.4441   18.7921 C   0  0  0  0  0  0  0  0  0  0  0  0
   13.3305  -16.5514   17.8795 C   0  0  0  0  0  0  0  0  0  0  0  0
   13.9892  -15.5878   18.3653 O   0  0  0  0  0  0  0  0  0  0  0  0
   11.3113  -16.7375   22.2204 C   0  0  0  0  0  0  0  0  0  0  0  0
   12.0411  -15.9961   22.9159 O   0  0  0  0  0  0  0  0  0  0  0  0
   13.3708  -16.6868   16.5046 O   0  0  0  0  0  0  0  0  0  0  0  0
    9.9109  -16.6327   22.4276 N   0  0  0  0  0  0  0  0  0  0  0  0
    9.3548  -15.8131   23.4858 C   0  0  1  0  0  0  0  0  0  0  0  0
    7.8778  -15.5880   23.2662 C   0  0  0  0  0  0  0  0  0  0  0  0
    7.2239  -14.9390   24.4072 C   0  0  0  0  0  0  0  0  0  0  0  0
    6.3874  -15.5368   25.3444 C   0  0  0  0  0  0  0  0  0  0  0  0
    5.9900  -14.6125   26.2351 N   0  0  0  0  0  0  0  0  0  0  0  0
    6.5560  -13.4442   25.8827 C   0  0  0  0  0  0  0  0  0  0  0  0
    6.5101  -12.1669   26.4172 C   0  0  0  0  0  0  0  0  0  0  0  0
    7.2107  -11.1379   25.8271 C   0  0  0  0  0  0  0  0  0  0  0  0
    7.9767  -11.3146   24.7019 C   0  0  0  0  0  0  0  0  0  0  0  0
    8.0303  -12.5794   24.1614 C   0  0  0  0  0  0  0  0  0  0  0  0
    7.3329  -13.6158   24.7444 C   0  0  0  0  0  0  0  0  0  0  0  0
    9.5226  -16.4626   24.8060 C   0  0  0  0  0  0  0  0  0  0  0  0
    9.1120  -15.8809   25.8332 O   0  0  0  0  0  0  0  0  0  0  0  0
   10.1322  -17.7311   24.9950 N   0  0  0  0  0  0  0  0  0  0  0  0
   10.2853  -18.3230   26.2711 C   0  0  1  0  0  0  0  0  0  0  0  0
    9.6558  -19.7164   26.2445 C   0  0  0  0  0  0  0  0  0  0  0  0
    9.8304  -20.3285   27.5916 C   0  0  0  0  0  0  0  0  0  0  0  0
    9.3068  -21.7437   27.7020 C   0  0  0  0  0  0  0  0  0  0  0  0
    8.6121  -21.9376   29.0073 C   0  0  0  0  0  0  0  0  0  0  0  0
    7.1663  -22.0060   28.7756 N   0  0  0  0  0  0  0  0  0  0  0  0
   11.6397  -18.4421   26.7804 C   0  0  0  0  0  0  0  0  0  0  0  0
   12.6477  -18.8399   26.1407 O   0  0  0  0  0  0  0  0  0  0  0  0
   11.8686  -18.0863   28.1054 O   0  0  0  0  0  0  0  0  0  0  0  0
  2  1  1  6
  2  3  1  0
  3  4  1  0
  4  5  1  0
  5  6  2  0
  7  2  1  0
  7  8  2  0
  9  5  1  0
 10  7  1  0
 11 12  1  6
 11 10  1  0
 12 13  1  0
 13 14  2  0
 13 21  1  0
 14 15  1  0
 15 16  1  0
 16 17  2  0
 18 17  1  0
 19 18  2  0
 20 19  1  0
 21 20  2  0
 21 16  1  0
 22 11  1  0
 23 22  2  0
 24 22  1  0
 25 24  1  0
 25 26  1  6
 26 27  1  0
 27 28  1  0
 28 29  1  0
 30 29  1  0
 31 33  1  0
 31 25  1  0
 32 31  2  0
M  END
$$$$
