EWK.pdb
     RDKit          3D

 33 34  0  0  1  0  0  0  0  0999 V2000
    9.1434  -18.5538   21.6190 N   0  0  0  0  0  0  0  0  0  0  0  0
   10.4370  -17.9133   21.9097 C   0  0  1  0  0  0  0  0  0  0  0  0
   10.5606  -16.8097   20.8922 C   0  0  0  0  0  0  0  0  0  0  0  0
   10.7467  -17.2632   19.4780 C   0  0  0  0  0  0  0  0  0  0  0  0
   10.9213  -16.0772   18.6084 C   0  0  0  0  0  0  0  0  0  0  0  0
    9.9110  -15.5844   18.0299 O   0  0  0  0  0  0  0  0  0  0  0  0
   10.3836  -17.2803   23.2624 C   0  0  0  0  0  0  0  0  0  0  0  0
   11.2986  -16.5225   23.6552 O   0  0  0  0  0  0  0  0  0  0  0  0
   12.1287  -15.4487   18.3696 O   0  0  0  0  0  0  0  0  0  0  0  0
    9.3072  -17.5021   24.1609 N   0  0  0  0  0  0  0  0  0  0  0  0
    9.3193  -16.9766   25.5116 C   0  0  1  0  0  0  0  0  0  0  0  0
    7.9285  -16.5727   25.9395 C   0  0  0  0  0  0  0  0  0  0  0  0
    7.3954  -15.4505   25.1601 C   0  0  0  0  0  0  0  0  0  0  0  0
    6.8005  -15.5110   23.9040 C   0  0  0  0  0  0  0  0  0  0  0  0
    6.4414  -14.2727   23.5253 N   0  0  0  0  0  0  0  0  0  0  0  0
    6.7955  -13.4309   24.5129 C   0  0  0  0  0  0  0  0  0  0  0  0
    6.6798  -12.0605   24.6803 C   0  0  0  0  0  0  0  0  0  0  0  0
    7.1447  -11.4560   25.8276 C   0  0  0  0  0  0  0  0  0  0  0  0
    7.7354  -12.1599   26.8472 C   0  0  0  0  0  0  0  0  0  0  0  0
    7.8560  -13.5224   26.6926 C   0  0  0  0  0  0  0  0  0  0  0  0
    7.3940  -14.1368   25.5483 C   0  0  0  0  0  0  0  0  0  0  0  0
    9.8124  -17.9896   26.4725 C   0  0  0  0  0  0  0  0  0  0  0  0
    8.9928  -18.6230   27.1719 O   0  0  0  0  0  0  0  0  0  0  0  0
   11.1846  -18.3020   26.6624 N   0  0  0  0  0  0  0  0  0  0  0  0
   11.6324  -19.2067   27.6540 C   0  0  1  0  0  0  0  0  0  0  0  0
   13.1502  -19.3523   27.5361 C   0  0  0  0  0  0  0  0  0  0  0  0
   13.5884  -20.4113   28.4880 C   0  0  0  0  0  0  0  0  0  0  0  0
   14.7611  -21.2347   28.0021 C   0  0  0  0  0  0  0  0  0  0  0  0
   15.1764  -22.2115   29.0498 C   0  0  0  0  0  0  0  0  0  0  0  0
   16.2272  -23.0780   28.5079 N   0  0  0  0  0  0  0  0  0  0  0  0
   11.3092  -18.8822   29.0317 C   0  0  0  0  0  0  0  0  0  0  0  0
   10.8189  -19.6621   29.8891 O   0  0  0  0  0  0  0  0  0  0  0  0
   11.5581  -17.5855   29.4690 O   0  0  0  0  0  0  0  0  0  0  0  0
  2  1  1  6
  2  3  1  0
  3  4  1  0
  4  5  1  0
  5  6  2  0
  7  2  1  0
  7  8  2  0
  9  5  1  0
 10  7  1  0
 11 12  1  1
 11 10  1  0
 12 13  1  0
 13 14  2  0
 13 21  1  0
 14 15  1  0
 15 16  1  0
 16 17  2  0
 18 17  1  0
 19 18  2  0
 20 19  1  0
 21 20  2  0
 21 16  1  0
 22 11  1  0
 23 22  2  0
 24 22  1  0
 25 24  1  0
 25 26  1  1
 26 27  1  0
 27 28  1  0
 28 29  1  0
 30 29  1  0
 31 33  1  0
 31 25  1  0
 32 31  2  0
M  END
$$$$
