EWK.pdb
     RDKit          3D

 33 34  0  0  1  0  0  0  0  0999 V2000
    7.7700  -18.4150   19.9755 N   0  0  0  0  0  0  0  0  0  0  0  0
    9.2280  -18.4727   20.1738 C   0  0  1  0  0  0  0  0  0  0  0  0
    9.8117  -17.8114   18.9530 C   0  0  0  0  0  0  0  0  0  0  0  0
    9.5242  -18.4992   17.6552 C   0  0  0  0  0  0  0  0  0  0  0  0
   10.2374  -17.7944   16.5654 C   0  0  0  0  0  0  0  0  0  0  0  0
    9.6828  -17.6896   15.4342 O   0  0  0  0  0  0  0  0  0  0  0  0
    9.5997  -17.6446   21.3610 C   0  0  0  0  0  0  0  0  0  0  0  0
   10.7976  -17.4897   21.6883 O   0  0  0  0  0  0  0  0  0  0  0  0
   11.4924  -17.2279   16.6850 O   0  0  0  0  0  0  0  0  0  0  0  0
    8.6275  -16.9988   22.1689 N   0  0  0  0  0  0  0  0  0  0  0  0
    8.9962  -16.2385   23.3466 C   0  0  1  0  0  0  0  0  0  0  0  0
    7.8814  -15.3022   23.7478 C   0  0  0  0  0  0  0  0  0  0  0  0
    8.1395  -14.6204   25.0203 C   0  0  0  0  0  0  0  0  0  0  0  0
    9.1312  -14.9245   25.9473 C   0  0  0  0  0  0  0  0  0  0  0  0
    9.0449  -14.0719   26.9823 N   0  0  0  0  0  0  0  0  0  0  0  0
    8.0216  -13.2358   26.7310 C   0  0  0  0  0  0  0  0  0  0  0  0
    7.4718  -12.1713   27.4266 C   0  0  0  0  0  0  0  0  0  0  0  0
    6.3974  -11.4806   26.9102 C   0  0  0  0  0  0  0  0  0  0  0  0
    5.8233  -11.7997   25.7049 C   0  0  0  0  0  0  0  0  0  0  0  0
    6.3609  -12.8556   25.0043 C   0  0  0  0  0  0  0  0  0  0  0  0
    7.4359  -13.5531   25.5125 C   0  0  0  0  0  0  0  0  0  0  0  0
    9.2706  -17.1338   24.4937 C   0  0  0  0  0  0  0  0  0  0  0  0
    8.3674  -17.8892   24.9130 O   0  0  0  0  0  0  0  0  0  0  0  0
   10.5175  -17.1982   25.1701 N   0  0  0  0  0  0  0  0  0  0  0  0
   10.8595  -18.2574   26.0436 C   0  0  1  0  0  0  0  0  0  0  0  0
   12.2276  -18.8066   25.6371 C   0  0  0  0  0  0  0  0  0  0  0  0
   12.1364  -20.2932   25.5989 C   0  0  0  0  0  0  0  0  0  0  0  0
   13.3917  -20.9787   25.1051 C   0  0  0  0  0  0  0  0  0  0  0  0
   13.2762  -22.4555   25.2777 C   0  0  0  0  0  0  0  0  0  0  0  0
   14.5048  -23.0922   24.7939 N   0  0  0  0  0  0  0  0  0  0  0  0
   10.8916  -17.9527   27.4628 C   0  0  0  0  0  0  0  0  0  0  0  0
   11.0516  -18.7753   28.4015 O   0  0  0  0  0  0  0  0  0  0  0  0
   10.7316  -16.6251   27.8455 O   0  0  0  0  0  0  0  0  0  0  0  0
  2  1  1  6
  2  3  1  0
  3  4  1  0
  4  5  1  0
  5  6  2  0
  7  2  1  0
  7  8  2  0
  9  5  1  0
 10  7  1  0
 11 12  1  1
 11 10  1  0
 12 13  1  0
 13 14  2  0
 13 21  1  0
 14 15  1  0
 15 16  1  0
 16 17  2  0
 18 17  1  0
 19 18  2  0
 20 19  1  0
 21 20  2  0
 21 16  1  0
 22 11  1  0
 23 22  2  0
 24 22  1  0
 25 24  1  0
 25 26  1  6
 26 27  1  0
 27 28  1  0
 28 29  1  0
 30 29  1  0
 31 33  1  0
 31 25  1  0
 32 31  2  0
M  END
$$$$
