EWK.pdb
     RDKit          3D

 33 34  0  0  1  0  0  0  0  0999 V2000
    8.8671  -15.6237   17.7384 N   0  0  0  0  0  0  0  0  0  0  0  0
    8.8997  -16.7296   18.7100 C   0  0  1  0  0  0  0  0  0  0  0  0
   10.1713  -17.4768   18.4043 C   0  0  0  0  0  0  0  0  0  0  0  0
   10.4529  -18.6480   19.2927 C   0  0  0  0  0  0  0  0  0  0  0  0
   11.7312  -19.2718   18.8804 C   0  0  0  0  0  0  0  0  0  0  0  0
   12.7607  -19.0933   19.5922 O   0  0  0  0  0  0  0  0  0  0  0  0
    9.0208  -16.1723   20.0912 C   0  0  0  0  0  0  0  0  0  0  0  0
   10.0472  -15.5512   20.4472 O   0  0  0  0  0  0  0  0  0  0  0  0
   11.8970  -20.0523   17.7519 O   0  0  0  0  0  0  0  0  0  0  0  0
    7.9925  -16.3159   21.0592 N   0  0  0  0  0  0  0  0  0  0  0  0
    8.1279  -15.7862   22.4015 C   0  0  1  0  0  0  0  0  0  0  0  0
    6.7753  -15.6427   23.0576 C   0  0  0  0  0  0  0  0  0  0  0  0
    6.8626  -15.2047   24.4545 C   0  0  0  0  0  0  0  0  0  0  0  0
    6.8158  -16.0088   25.5888 C   0  0  0  0  0  0  0  0  0  0  0  0
    6.9296  -15.2366   26.6826 N   0  0  0  0  0  0  0  0  0  0  0  0
    7.0471  -13.9630   26.2661 C   0  0  0  0  0  0  0  0  0  0  0  0
    7.1920  -12.7558   26.9301 C   0  0  0  0  0  0  0  0  0  0  0  0
    7.2906  -11.5778   26.2227 C   0  0  0  0  0  0  0  0  0  0  0  0
    7.2519  -11.5331   24.8514 C   0  0  0  0  0  0  0  0  0  0  0  0
    7.1083  -12.7263   24.1802 C   0  0  0  0  0  0  0  0  0  0  0  0
    7.0088  -13.9105   24.8788 C   0  0  0  0  0  0  0  0  0  0  0  0
    8.9486  -16.6828   23.2473 C   0  0  0  0  0  0  0  0  0  0  0  0
    8.8032  -17.9204   23.1518 O   0  0  0  0  0  0  0  0  0  0  0  0
    9.9140  -16.2271   24.1837 N   0  0  0  0  0  0  0  0  0  0  0  0
   10.7218  -17.1094   24.9395 C   0  0  1  0  0  0  0  0  0  0  0  0
   12.1846  -16.8900   24.5511 C   0  0  0  0  0  0  0  0  0  0  0  0
   12.9980  -17.9639   25.1873 C   0  0  0  0  0  0  0  0  0  0  0  0
   14.4531  -17.9672   24.7728 C   0  0  0  0  0  0  0  0  0  0  0  0
   15.2097  -18.9909   25.5497 C   0  0  0  0  0  0  0  0  0  0  0  0
   15.8979  -19.8885   24.6172 N   0  0  0  0  0  0  0  0  0  0  0  0
   10.6137  -17.0221   26.3847 C   0  0  0  0  0  0  0  0  0  0  0  0
   10.3719  -15.9854   27.0559 O   0  0  0  0  0  0  0  0  0  0  0  0
   10.7917  -18.1887   27.1207 O   0  0  0  0  0  0  0  0  0  0  0  0
  2  1  1  6
  2  3  1  0
  3  4  1  0
  4  5  1  0
  5  6  2  0
  7  2  1  0
  7  8  2  0
  9  5  1  0
 10  7  1  0
 11 12  1  1
 11 10  1  0
 12 13  1  0
 13 14  2  0
 13 21  1  0
 14 15  1  0
 15 16  1  0
 16 17  2  0
 18 17  1  0
 19 18  2  0
 20 19  1  0
 21 20  2  0
 21 16  1  0
 22 11  1  0
 23 22  2  0
 24 22  1  0
 25 24  1  0
 25 26  1  1
 26 27  1  0
 27 28  1  0
 28 29  1  0
 30 29  1  0
 31 33  1  0
 31 25  1  0
 32 31  2  0
M  END
$$$$
