EWK.pdb
     RDKit          3D

 33 34  0  0  1  0  0  0  0  0999 V2000
    7.6640  -17.6115   21.9142 N   0  0  0  0  0  0  0  0  0  0  0  0
    8.9910  -16.9865   21.7838 C   0  0  1  0  0  0  0  0  0  0  0  0
    8.7497  -15.7250   20.9972 C   0  0  0  0  0  0  0  0  0  0  0  0
    8.1233  -15.9213   19.6520 C   0  0  0  0  0  0  0  0  0  0  0  0
    7.9709  -14.6042   18.9923 C   0  0  0  0  0  0  0  0  0  0  0  0
    8.4417  -13.5754   19.5563 O   0  0  0  0  0  0  0  0  0  0  0  0
    9.4874  -16.5908   23.1366 C   0  0  0  0  0  0  0  0  0  0  0  0
   10.5189  -15.8942   23.2654 O   0  0  0  0  0  0  0  0  0  0  0  0
    7.3391  -14.4007   17.7801 O   0  0  0  0  0  0  0  0  0  0  0  0
    8.8245  -16.9786   24.3304 N   0  0  0  0  0  0  0  0  0  0  0  0
    9.3693  -16.6763   25.6391 C   0  0  1  0  0  0  0  0  0  0  0  0
    8.2743  -16.2495   26.5873 C   0  0  0  0  0  0  0  0  0  0  0  0
    7.3554  -15.2723   25.9945 C   0  0  0  0  0  0  0  0  0  0  0  0
    6.1551  -15.5390   25.3436 C   0  0  0  0  0  0  0  0  0  0  0  0
    5.6027  -14.3811   24.9438 N   0  0  0  0  0  0  0  0  0  0  0  0
    6.4259  -13.3887   25.3268 C   0  0  0  0  0  0  0  0  0  0  0  0
    6.3792  -12.0106   25.1929 C   0  0  0  0  0  0  0  0  0  0  0  0
    7.3922  -11.2257   25.6984 C   0  0  0  0  0  0  0  0  0  0  0  0
    8.4808  -11.7512   26.3488 C   0  0  0  0  0  0  0  0  0  0  0  0
    8.5385  -13.1195   26.4882 C   0  0  0  0  0  0  0  0  0  0  0  0
    7.5299  -13.9137   25.9859 C   0  0  0  0  0  0  0  0  0  0  0  0
   10.0383  -17.8610   26.2236 C   0  0  0  0  0  0  0  0  0  0  0  0
    9.3570  -18.8641   26.5263 O   0  0  0  0  0  0  0  0  0  0  0  0
   11.4341  -17.9425   26.4722 N   0  0  0  0  0  0  0  0  0  0  0  0
   12.0198  -19.0041   27.2016 C   0  0  1  0  0  0  0  0  0  0  0  0
   13.4878  -19.1298   26.7919 C   0  0  0  0  0  0  0  0  0  0  0  0
   13.5483  -19.2034   25.3051 C   0  0  0  0  0  0  0  0  0  0  0  0
   14.9525  -19.2317   24.7425 C   0  0  0  0  0  0  0  0  0  0  0  0
   14.9123  -19.3799   23.2591 C   0  0  0  0  0  0  0  0  0  0  0  0
   16.2840  -19.4469   22.7465 N   0  0  0  0  0  0  0  0  0  0  0  0
   11.9541  -18.9196   28.6495 C   0  0  0  0  0  0  0  0  0  0  0  0
   11.4520  -17.9823   29.3225 O   0  0  0  0  0  0  0  0  0  0  0  0
   12.4941  -19.9685   29.3863 O   0  0  0  0  0  0  0  0  0  0  0  0
  2  1  1  1
  2  3  1  0
  3  4  1  0
  4  5  1  0
  5  6  2  0
  7  2  1  0
  7  8  2  0
  9  5  1  0
 10  7  1  0
 11 12  1  1
 11 10  1  0
 12 13  1  0
 13 14  2  0
 13 21  1  0
 14 15  1  0
 15 16  1  0
 16 17  2  0
 18 17  1  0
 19 18  2  0
 20 19  1  0
 21 20  2  0
 21 16  1  0
 22 11  1  0
 23 22  2  0
 24 22  1  0
 25 24  1  0
 25 26  1  1
 26 27  1  0
 27 28  1  0
 28 29  1  0
 30 29  1  0
 31 33  1  0
 31 25  1  0
 32 31  2  0
M  END
$$$$
