QHL.pdb
     RDKit          3D

 28 28  0  0  1  0  0  0  0  0999 V2000
   15.5880  -14.5599  -14.5486 N   0  0  0  0  0  0  0  0  0  0  0  0
   15.4938  -15.0720  -15.8607 C   0  0  0  0  0  0  0  0  0  0  0  0
   14.5750  -15.8795  -16.1047 O   0  0  0  0  0  0  0  0  0  0  0  0
   16.4591  -14.6594  -16.9099 C   0  0  0  0  0  0  0  0  0  0  0  0
   17.4574  -13.6488  -16.4458 C   0  0  0  0  0  0  0  0  0  0  0  0
   18.8916  -13.9649  -16.7805 C   0  0  2  0  0  0  0  0  0  0  0  0
   19.1610  -15.2175  -16.0215 N   0  0  0  0  0  0  0  0  0  0  0  0
   19.8617  -12.9609  -16.2774 C   0  0  0  0  0  0  0  0  0  0  0  0
   19.8169  -12.5786  -15.0512 O   0  0  0  0  0  0  0  0  0  0  0  0
   20.8858  -12.3540  -17.0482 N   0  0  0  0  0  0  0  0  0  0  0  0
   21.8245  -11.4133  -16.4197 C   0  0  1  0  0  0  0  0  0  0  0  0
   23.1776  -11.5818  -17.0221 C   0  0  0  0  0  0  0  0  0  0  0  0
   24.2355  -10.6906  -16.5154 C   0  0  0  0  0  0  0  0  0  0  0  0
   25.0087  -10.9275  -15.3601 C   0  0  0  0  0  0  0  0  0  0  0  0
   25.8684   -9.9281  -15.1903 N   0  0  0  0  0  0  0  0  0  0  0  0
   25.6985   -9.0511  -16.1726 C   0  0  0  0  0  0  0  0  0  0  0  0
   24.7249   -9.5189  -16.9510 N   0  0  0  0  0  0  0  0  0  0  0  0
   21.3584  -10.0279  -16.6064 C   0  0  0  0  0  0  0  0  0  0  0  0
   20.8925   -9.7030  -17.7187 O   0  0  0  0  0  0  0  0  0  0  0  0
   19.2018   -5.6823  -17.3187 C   0  0  0  0  0  0  0  0  0  0  0  0
   19.4353   -5.8240  -15.8294 C   0  0  1  0  0  0  0  0  0  0  0  0
   18.1014   -5.3935  -15.1723 C   0  0  0  0  0  0  0  0  0  0  0  0
   19.7631   -7.2338  -15.4394 C   0  0  0  0  0  0  0  0  0  0  0  0
   21.0888   -7.6459  -15.9777 C   0  0  2  0  0  0  0  0  0  0  0  0
   21.4040   -9.0323  -15.5941 N   0  0  0  0  0  0  0  0  0  0  0  0
   22.1637   -6.7971  -15.4327 C   0  0  0  0  0  0  0  0  0  0  0  0
   22.8634   -7.0988  -14.4285 O   0  0  0  0  0  0  0  0  0  0  0  0
   22.4333   -5.5689  -16.0681 O   0  0  0  0  0  0  0  0  0  0  0  0
  1  2  1  0
  2  4  1  0
  2  3  2  0
  4  5  1  0
  5  6  1  0
  6  8  1  0
  6  7  1  1
  8 10  1  0
  8  9  2  0
 10 11  1  0
 11 12  1  6
 11 18  1  0
 13 12  1  0
 13 14  2  0
 15 14  1  0
 16 15  1  0
 17 16  2  0
 17 13  1  0
 18 19  2  0
 21 20  1  6
 21 23  1  0
 21 22  1  0
 24 23  1  1
 24 26  1  0
 25 24  1  0
 25 18  1  0
 26 28  1  0
 27 26  2  0
M  END
$$$$
