QHL.pdb
     RDKit          3D

 28 28  0  0  1  0  0  0  0  0999 V2000
   22.1331  -33.8843  -16.8263 N   0  0  0  0  0  0  0  0  0  0  0  0
   23.2873  -34.2147  -17.5690 C   0  0  0  0  0  0  0  0  0  0  0  0
   23.2684  -35.2704  -18.2330 O   0  0  0  0  0  0  0  0  0  0  0  0
   24.4798  -33.3313  -17.5554 C   0  0  0  0  0  0  0  0  0  0  0  0
   24.3320  -32.1338  -16.6736 C   0  0  0  0  0  0  0  0  0  0  0  0
   23.5392  -30.9975  -17.2647 C   0  0  2  0  0  0  0  0  0  0  0  0
   24.5720  -30.1622  -17.9380 N   0  0  0  0  0  0  0  0  0  0  0  0
   22.8966  -30.1226  -16.2527 C   0  0  0  0  0  0  0  0  0  0  0  0
   23.5957  -29.2536  -15.6140 O   0  0  0  0  0  0  0  0  0  0  0  0
   21.5219  -30.1459  -15.9048 N   0  0  0  0  0  0  0  0  0  0  0  0
   20.9995  -29.2144  -14.8947 C   0  0  1  0  0  0  0  0  0  0  0  0
   19.5732  -28.9019  -15.1948 C   0  0  0  0  0  0  0  0  0  0  0  0
   18.8730  -28.0423  -14.2248 C   0  0  0  0  0  0  0  0  0  0  0  0
   19.1468  -26.6759  -14.0091 C   0  0  0  0  0  0  0  0  0  0  0  0
   18.3352  -26.2051  -13.0675 N   0  0  0  0  0  0  0  0  0  0  0  0
   17.5461  -27.1906  -12.6564 C   0  0  0  0  0  0  0  0  0  0  0  0
   17.8784  -28.2751  -13.3537 N   0  0  0  0  0  0  0  0  0  0  0  0
   21.1141  -29.8052  -13.5496 C   0  0  0  0  0  0  0  0  0  0  0  0
   20.9230  -31.0329  -13.4222 O   0  0  0  0  0  0  0  0  0  0  0  0
   21.5618  -30.9415   -8.6181 C   0  0  0  0  0  0  0  0  0  0  0  0
   22.6767  -29.9784   -8.9679 C   0  0  1  0  0  0  0  0  0  0  0  0
   23.8682  -30.8774   -9.3782 C   0  0  0  0  0  0  0  0  0  0  0  0
   22.3071  -29.0732  -10.1041 C   0  0  0  0  0  0  0  0  0  0  0  0
   21.4455  -29.7770  -11.0938 C   0  0  2  0  0  0  0  0  0  0  0  0
   21.4321  -29.0624  -12.3812 N   0  0  0  0  0  0  0  0  0  0  0  0
   20.0495  -29.8384  -10.6246 C   0  0  0  0  0  0  0  0  0  0  0  0
   19.4696  -30.8983  -10.2651 O   0  0  0  0  0  0  0  0  0  0  0  0
   19.3085  -28.6412  -10.5713 O   0  0  0  0  0  0  0  0  0  0  0  0
  1  2  1  0
  2  4  1  0
  2  3  2  0
  4  5  1  0
  5  6  1  0
  6  8  1  0
  6  7  1  1
  8 10  1  0
  8  9  2  0
 10 11  1  0
 11 12  1  6
 11 18  1  0
 13 12  1  0
 13 14  2  0
 15 14  1  0
 16 15  1  0
 17 16  2  0
 17 13  1  0
 18 19  2  0
 21 20  1  6
 21 23  1  0
 21 22  1  0
 24 23  1  1
 24 26  1  0
 25 24  1  0
 25 18  1  0
 26 28  1  0
 27 26  2  0
M  END
$$$$
