QHL.pdb
     RDKit          3D

 28 28  0  0  1  0  0  0  0  0999 V2000
   30.1753  -28.0036  -19.6568 N   0  0  0  0  0  0  0  0  0  0  0  0
   29.9480  -28.0311  -21.0498 C   0  0  0  0  0  0  0  0  0  0  0  0
   30.7260  -27.3832  -21.7784 O   0  0  0  0  0  0  0  0  0  0  0  0
   28.8192  -28.8068  -21.6215 C   0  0  0  0  0  0  0  0  0  0  0  0
   28.0398  -29.5748  -20.6037 C   0  0  0  0  0  0  0  0  0  0  0  0
   26.6391  -29.0770  -20.3607 C   0  0  2  0  0  0  0  0  0  0  0  0
   26.8428  -27.8168  -19.5938 N   0  0  0  0  0  0  0  0  0  0  0  0
   25.8286  -29.9637  -19.4894 C   0  0  0  0  0  0  0  0  0  0  0  0
   25.5614  -31.1646  -19.8614 O   0  0  0  0  0  0  0  0  0  0  0  0
   25.2967  -29.6052  -18.2246 N   0  0  0  0  0  0  0  0  0  0  0  0
   24.5263  -30.5830  -17.4429 C   0  0  1  0  0  0  0  0  0  0  0  0
   25.0740  -30.6576  -16.0585 C   0  0  0  0  0  0  0  0  0  0  0  0
   26.2718  -31.4947  -15.8724 C   0  0  0  0  0  0  0  0  0  0  0  0
   26.7976  -32.3804  -16.8356 C   0  0  0  0  0  0  0  0  0  0  0  0
   27.8792  -32.9770  -16.3445 N   0  0  0  0  0  0  0  0  0  0  0  0
   28.0883  -32.5285  -15.1124 C   0  0  0  0  0  0  0  0  0  0  0  0
   27.1247  -31.6488  -14.8472 N   0  0  0  0  0  0  0  0  0  0  0  0
   23.1049  -30.1962  -17.4027 C   0  0  0  0  0  0  0  0  0  0  0  0
   22.8153  -29.0359  -17.0424 O   0  0  0  0  0  0  0  0  0  0  0  0
   18.2935  -29.3772  -19.4101 C   0  0  0  0  0  0  0  0  0  0  0  0
   18.3860  -30.6566  -18.6055 C   0  0  1  0  0  0  0  0  0  0  0  0
   17.3922  -31.6296  -19.2851 C   0  0  0  0  0  0  0  0  0  0  0  0
   19.7663  -31.2409  -18.6278 C   0  0  0  0  0  0  0  0  0  0  0  0
   20.6647  -30.5338  -17.6740 C   0  0  2  0  0  0  0  0  0  0  0  0
   22.0361  -31.0645  -17.7517 N   0  0  0  0  0  0  0  0  0  0  0  0
   20.2107  -30.7253  -16.2847 C   0  0  0  0  0  0  0  0  0  0  0  0
   19.1955  -30.1667  -15.7886 O   0  0  0  0  0  0  0  0  0  0  0  0
   20.9523  -31.5857  -15.4513 O   0  0  0  0  0  0  0  0  0  0  0  0
  1  2  1  0
  2  4  1  0
  2  3  2  0
  4  5  1  0
  5  6  1  0
  6  8  1  0
  6  7  1  1
  8 10  1  0
  8  9  2  0
 10 11  1  0
 11 12  1  1
 11 18  1  0
 13 12  1  0
 13 14  2  0
 15 14  1  0
 16 15  1  0
 17 16  2  0
 17 13  1  0
 18 19  2  0
 21 20  1  6
 21 23  1  0
 21 22  1  0
 24 23  1  6
 24 26  1  0
 25 24  1  0
 25 18  1  0
 26 28  1  0
 27 26  2  0
M  END
$$$$
