QHL.pdb
     RDKit          3D

 28 28  0  0  1  0  0  0  0  0999 V2000
   20.4249  -27.2969  -19.7916 N   0  0  0  0  0  0  0  0  0  0  0  0
   20.8956  -26.1339  -20.4386 C   0  0  0  0  0  0  0  0  0  0  0  0
   20.3535  -25.8071  -21.5134 O   0  0  0  0  0  0  0  0  0  0  0  0
   21.9991  -25.3316  -19.8542 C   0  0  0  0  0  0  0  0  0  0  0  0
   22.6776  -25.9928  -18.6984 C   0  0  0  0  0  0  0  0  0  0  0  0
   22.2085  -25.5448  -17.3390 C   0  0  2  0  0  0  0  0  0  0  0  0
   20.7425  -25.3544  -17.5189 N   0  0  0  0  0  0  0  0  0  0  0  0
   22.7474  -24.2267  -16.9214 C   0  0  0  0  0  0  0  0  0  0  0  0
   24.0169  -24.0487  -16.8291 O   0  0  0  0  0  0  0  0  0  0  0  0
   21.9666  -23.0865  -16.6024 N   0  0  0  0  0  0  0  0  0  0  0  0
   22.6204  -21.8235  -16.2308 C   0  0  1  0  0  0  0  0  0  0  0  0
   21.8496  -20.6785  -16.7936 C   0  0  0  0  0  0  0  0  0  0  0  0
   22.4368  -19.3400  -16.6092 C   0  0  0  0  0  0  0  0  0  0  0  0
   23.6747  -19.0783  -15.9865 C   0  0  0  0  0  0  0  0  0  0  0  0
   23.9020  -17.7686  -15.9866 N   0  0  0  0  0  0  0  0  0  0  0  0
   22.8792  -17.1608  -16.5759 C   0  0  0  0  0  0  0  0  0  0  0  0
   22.0175  -18.1084  -16.9399 N   0  0  0  0  0  0  0  0  0  0  0  0
   22.7017  -21.7045  -14.7643 C   0  0  0  0  0  0  0  0  0  0  0  0
   21.7077  -22.0379  -14.0856 O   0  0  0  0  0  0  0  0  0  0  0  0
   24.8566  -21.7406   -9.8034 C   0  0  0  0  0  0  0  0  0  0  0  0
   24.9414  -20.4275  -10.5525 C   0  0  1  0  0  0  0  0  0  0  0  0
   26.2243  -19.7447  -10.0195 C   0  0  0  0  0  0  0  0  0  0  0  0
   25.0490  -20.6269  -12.0343 C   0  0  0  0  0  0  0  0  0  0  0  0
   23.7738  -21.1470  -12.6006 C   0  0  2  0  0  0  0  0  0  0  0  0
   23.8473  -21.2332  -14.0688 N   0  0  0  0  0  0  0  0  0  0  0  0
   22.6515  -20.2462  -12.2812 C   0  0  0  0  0  0  0  0  0  0  0  0
   22.4115  -19.1703  -12.8928 O   0  0  0  0  0  0  0  0  0  0  0  0
   21.7871  -20.6023  -11.2273 O   0  0  0  0  0  0  0  0  0  0  0  0
  1  2  1  0
  2  4  1  0
  2  3  2  0
  4  5  1  0
  5  6  1  0
  6  8  1  0
  6  7  1  6
  8 10  1  0
  8  9  2  0
 10 11  1  0
 11 12  1  1
 11 18  1  0
 13 12  1  0
 13 14  2  0
 15 14  1  0
 16 15  1  0
 17 16  2  0
 17 13  1  0
 18 19  2  0
 21 20  1  1
 21 23  1  0
 21 22  1  0
 24 23  1  6
 24 26  1  0
 25 24  1  0
 25 18  1  0
 26 28  1  0
 27 26  2  0
M  END
$$$$
