QHL.pdb
     RDKit          3D

 28 28  0  0  1  0  0  0  0  0999 V2000
   11.6146  -12.2905  -10.2232 N   0  0  0  0  0  0  0  0  0  0  0  0
   11.4225  -12.7965  -11.5270 C   0  0  0  0  0  0  0  0  0  0  0  0
   10.4655  -13.5746  -11.7131 O   0  0  0  0  0  0  0  0  0  0  0  0
   12.3326  -12.4118  -12.6344 C   0  0  0  0  0  0  0  0  0  0  0  0
   13.3477  -11.3846  -12.2503 C   0  0  0  0  0  0  0  0  0  0  0  0
   14.7775  -11.7559  -12.5453 C   0  0  2  0  0  0  0  0  0  0  0  0
   14.9800  -13.0128  -11.7727 N   0  0  0  0  0  0  0  0  0  0  0  0
   15.7707  -10.7854  -12.0219 C   0  0  0  0  0  0  0  0  0  0  0  0
   16.0738  -10.7827  -10.7730 O   0  0  0  0  0  0  0  0  0  0  0  0
   16.4562   -9.8163  -12.7981 N   0  0  0  0  0  0  0  0  0  0  0  0
   17.4758   -8.9587  -12.1770 C   0  0  1  0  0  0  0  0  0  0  0  0
   18.5501   -8.6638  -13.1674 C   0  0  0  0  0  0  0  0  0  0  0  0
   19.6300   -7.7696  -12.7153 C   0  0  0  0  0  0  0  0  0  0  0  0
   19.9190   -6.5054  -13.2693 C   0  0  0  0  0  0  0  0  0  0  0  0
   20.9520   -5.9672  -12.6290 N   0  0  0  0  0  0  0  0  0  0  0  0
   21.3534   -6.8118  -11.6864 C   0  0  0  0  0  0  0  0  0  0  0  0
   20.5577   -7.8774  -11.7509 N   0  0  0  0  0  0  0  0  0  0  0  0
   16.8661   -7.7027  -11.7054 C   0  0  0  0  0  0  0  0  0  0  0  0
   16.0603   -7.1150  -12.4573 O   0  0  0  0  0  0  0  0  0  0  0  0
   14.7890   -6.9198   -6.7135 C   0  0  0  0  0  0  0  0  0  0  0  0
   15.0992   -6.9507   -8.1952 C   0  0  1  0  0  0  0  0  0  0  0  0
   13.7487   -6.6582   -8.8931 C   0  0  0  0  0  0  0  0  0  0  0  0
   16.1084   -5.9127   -8.5841 C   0  0  0  0  0  0  0  0  0  0  0  0
   16.3569   -5.9282  -10.0521 C   0  0  2  0  0  0  0  0  0  0  0  0
   17.1370   -7.1151  -10.4408 N   0  0  0  0  0  0  0  0  0  0  0  0
   17.1393   -4.7489  -10.4646 C   0  0  0  0  0  0  0  0  0  0  0  0
   16.7177   -3.5626  -10.4018 O   0  0  0  0  0  0  0  0  0  0  0  0
   18.4420   -4.9510  -10.9615 O   0  0  0  0  0  0  0  0  0  0  0  0
  1  2  1  0
  2  4  1  0
  2  3  2  0
  4  5  1  0
  5  6  1  0
  6  8  1  0
  6  7  1  1
  8 10  1  0
  8  9  2  0
 10 11  1  0
 11 12  1  6
 11 18  1  0
 13 12  1  0
 13 14  2  0
 15 14  1  0
 16 15  1  0
 17 16  2  0
 17 13  1  0
 18 19  2  0
 21 20  1  1
 21 23  1  0
 21 22  1  0
 24 23  1  1
 24 26  1  0
 25 24  1  0
 25 18  1  0
 26 28  1  0
 27 26  2  0
M  END
$$$$
