QHL.pdb
     RDKit          3D

 28 28  0  0  1  0  0  0  0  0999 V2000
   16.0589  -12.7929  -14.8862 N   0  0  0  0  0  0  0  0  0  0  0  0
   16.1414  -14.1541  -15.2507 C   0  0  0  0  0  0  0  0  0  0  0  0
   15.0991  -14.8365  -15.1886 O   0  0  0  0  0  0  0  0  0  0  0  0
   17.4284  -14.7473  -15.6919 C   0  0  0  0  0  0  0  0  0  0  0  0
   18.5476  -13.7608  -15.7788 C   0  0  0  0  0  0  0  0  0  0  0  0
   19.2779  -13.7354  -17.0960 C   0  0  2  0  0  0  0  0  0  0  0  0
   20.1365  -14.9510  -17.0445 N   0  0  0  0  0  0  0  0  0  0  0  0
   20.2016  -12.5840  -17.2491 C   0  0  0  0  0  0  0  0  0  0  0  0
   21.4077  -12.6621  -16.8121 O   0  0  0  0  0  0  0  0  0  0  0  0
   19.8745  -11.3477  -17.8622 N   0  0  0  0  0  0  0  0  0  0  0  0
   20.9023  -10.3099  -18.0270 C   0  0  1  0  0  0  0  0  0  0  0  0
   20.9434   -9.8703  -19.4508 C   0  0  0  0  0  0  0  0  0  0  0  0
   21.4796  -10.8409  -20.4206 C   0  0  0  0  0  0  0  0  0  0  0  0
   22.8325  -11.2276  -20.5148 C   0  0  0  0  0  0  0  0  0  0  0  0
   22.9717  -12.1160  -21.4937 N   0  0  0  0  0  0  0  0  0  0  0  0
   21.7826  -12.3306  -22.0439 C   0  0  0  0  0  0  0  0  0  0  0  0
   20.9071  -11.5655  -21.3950 N   0  0  0  0  0  0  0  0  0  0  0  0
   20.6099   -9.1603  -17.1526 C   0  0  0  0  0  0  0  0  0  0  0  0
   19.4151   -8.8777  -16.9232 O   0  0  0  0  0  0  0  0  0  0  0  0
   21.6459   -5.7225  -12.7333 C   0  0  0  0  0  0  0  0  0  0  0  0
   21.8898   -5.4173  -14.1962 C   0  0  1  0  0  0  0  0  0  0  0  0
   23.0287   -4.3689  -14.2018 C   0  0  0  0  0  0  0  0  0  0  0  0
   22.3128   -6.6325  -14.9652 C   0  0  0  0  0  0  0  0  0  0  0  0
   21.1636   -7.2312  -15.6987 C   0  0  2  0  0  0  0  0  0  0  0  0
   21.6073   -8.3491  -16.5484 N   0  0  0  0  0  0  0  0  0  0  0  0
   20.5361   -6.2396  -16.5908 C   0  0  0  0  0  0  0  0  0  0  0  0
   19.4923   -5.5926  -16.3067 O   0  0  0  0  0  0  0  0  0  0  0  0
   21.1341   -5.9927  -17.8423 O   0  0  0  0  0  0  0  0  0  0  0  0
  1  2  1  0
  2  4  1  0
  2  3  2  0
  4  5  1  0
  5  6  1  0
  6  8  1  0
  6  7  1  1
  8 10  1  0
  8  9  2  0
 10 11  1  0
 11 12  1  6
 11 18  1  0
 13 12  1  0
 13 14  2  0
 15 14  1  0
 16 15  1  0
 17 16  2  0
 17 13  1  0
 18 19  2  0
 21 20  1  1
 21 23  1  0
 21 22  1  0
 24 23  1  6
 24 26  1  0
 25 24  1  0
 25 18  1  0
 26 28  1  0
 27 26  2  0
M  END
$$$$
