QHL.pdb
     RDKit          3D

 28 28  0  0  1  0  0  0  0  0999 V2000
   19.3684  -19.6310  -17.8299 N   0  0  0  0  0  0  0  0  0  0  0  0
   19.8095  -18.4811  -18.5198 C   0  0  0  0  0  0  0  0  0  0  0  0
   19.0396  -17.9780  -19.3624 O   0  0  0  0  0  0  0  0  0  0  0  0
   21.1458  -17.8958  -18.2472 C   0  0  0  0  0  0  0  0  0  0  0  0
   21.8946  -18.5876  -17.1544 C   0  0  0  0  0  0  0  0  0  0  0  0
   23.2905  -19.0259  -17.5129 C   0  0  2  0  0  0  0  0  0  0  0  0
   23.0917  -19.8799  -18.7166 N   0  0  0  0  0  0  0  0  0  0  0  0
   23.9287  -19.8937  -16.4922 C   0  0  0  0  0  0  0  0  0  0  0  0
   23.2630  -20.8512  -15.9521 O   0  0  0  0  0  0  0  0  0  0  0  0
   25.2649  -19.7709  -16.0328 N   0  0  0  0  0  0  0  0  0  0  0  0
   25.7990  -20.7247  -15.0500 C   0  0  1  0  0  0  0  0  0  0  0  0
   27.2673  -20.8808  -15.2535 C   0  0  0  0  0  0  0  0  0  0  0  0
   27.6919  -21.9686  -16.1517 C   0  0  0  0  0  0  0  0  0  0  0  0
   26.8237  -22.8877  -16.7762 C   0  0  0  0  0  0  0  0  0  0  0  0
   27.5331  -23.7343  -17.5158 N   0  0  0  0  0  0  0  0  0  0  0  0
   28.8180  -23.4175  -17.4080 C   0  0  0  0  0  0  0  0  0  0  0  0
   28.8952  -22.3666  -16.5942 N   0  0  0  0  0  0  0  0  0  0  0  0
   25.5271  -20.2512  -13.6812 C   0  0  0  0  0  0  0  0  0  0  0  0
   25.6274  -19.0288  -13.4450 O   0  0  0  0  0  0  0  0  0  0  0  0
   23.1051  -19.3700   -9.0186 C   0  0  0  0  0  0  0  0  0  0  0  0
   23.9030  -20.6555   -9.0779 C   0  0  1  0  0  0  0  0  0  0  0  0
   23.1388  -21.6434   -8.1633 C   0  0  0  0  0  0  0  0  0  0  0  0
   23.9837  -21.2082  -10.4689 C   0  0  0  0  0  0  0  0  0  0  0  0
   25.0239  -20.5033  -11.2677 C   0  0  2  0  0  0  0  0  0  0  0  0
   25.1538  -21.1021  -12.6068 N   0  0  0  0  0  0  0  0  0  0  0  0
   26.3445  -20.6110  -10.6217 C   0  0  0  0  0  0  0  0  0  0  0  0
   27.2115  -21.4749  -10.9232 O   0  0  0  0  0  0  0  0  0  0  0  0
   26.6669  -19.6943   -9.6016 O   0  0  0  0  0  0  0  0  0  0  0  0
  1  2  1  0
  2  4  1  0
  2  3  2  0
  4  5  1  0
  5  6  1  0
  6  8  1  0
  6  7  1  6
  8 10  1  0
  8  9  2  0
 10 11  1  0
 11 12  1  1
 11 18  1  0
 13 12  1  0
 13 14  2  0
 15 14  1  0
 16 15  1  0
 17 16  2  0
 17 13  1  0
 18 19  2  0
 21 20  1  6
 21 23  1  0
 21 22  1  0
 24 23  1  1
 24 26  1  0
 25 24  1  0
 25 18  1  0
 26 28  1  0
 27 26  2  0
M  END
$$$$
