QHL.pdb
     RDKit          3D

 28 28  0  0  1  0  0  0  0  0999 V2000
   29.8717  -18.8704  -17.2203 N   0  0  0  0  0  0  0  0  0  0  0  0
   28.6768  -18.6540  -17.9402 C   0  0  0  0  0  0  0  0  0  0  0  0
   28.7565  -18.5499  -19.1806 O   0  0  0  0  0  0  0  0  0  0  0  0
   27.3729  -18.5542  -17.2384 C   0  0  0  0  0  0  0  0  0  0  0  0
   27.4896  -18.1416  -15.8068 C   0  0  0  0  0  0  0  0  0  0  0  0
   27.7421  -19.2647  -14.8353 C   0  0  2  0  0  0  0  0  0  0  0  0
   27.3703  -20.4843  -15.6048 N   0  0  0  0  0  0  0  0  0  0  0  0
   26.8553  -19.2412  -13.6456 C   0  0  0  0  0  0  0  0  0  0  0  0
   26.6264  -18.1346  -13.0334 O   0  0  0  0  0  0  0  0  0  0  0  0
   26.1991  -20.3696  -13.0911 N   0  0  0  0  0  0  0  0  0  0  0  0
   25.2645  -20.2032  -11.9688 C   0  0  1  0  0  0  0  0  0  0  0  0
   24.0214  -20.9814  -12.2355 C   0  0  0  0  0  0  0  0  0  0  0  0
   23.0952  -20.4150  -13.2313 C   0  0  0  0  0  0  0  0  0  0  0  0
   23.0871  -20.7372  -14.6042 C   0  0  0  0  0  0  0  0  0  0  0  0
   22.1279  -20.0487  -15.2148 N   0  0  0  0  0  0  0  0  0  0  0  0
   21.5089  -19.2941  -14.3145 C   0  0  0  0  0  0  0  0  0  0  0  0
   22.0956  -19.5234  -13.1415 N   0  0  0  0  0  0  0  0  0  0  0  0
   25.8876  -20.6625  -10.7149 C   0  0  0  0  0  0  0  0  0  0  0  0
   26.4336  -21.7857  -10.6999 O   0  0  0  0  0  0  0  0  0  0  0  0
   29.0640  -20.8172   -6.4138 C   0  0  0  0  0  0  0  0  0  0  0  0
   27.7595  -20.0691   -6.2366 C   0  0  1  0  0  0  0  0  0  0  0  0
   28.0835  -18.9302   -5.2395 C   0  0  0  0  0  0  0  0  0  0  0  0
   27.2592  -19.4902   -7.5256 C   0  0  0  0  0  0  0  0  0  0  0  0
   26.5286  -20.5116   -8.3257 C   0  0  2  0  0  0  0  0  0  0  0  0
   25.9085  -19.9029   -9.5146 N   0  0  0  0  0  0  0  0  0  0  0  0
   25.4390  -21.1151   -7.5373 C   0  0  0  0  0  0  0  0  0  0  0  0
   24.2178  -20.8463   -7.6961 O   0  0  0  0  0  0  0  0  0  0  0  0
   25.7745  -22.0531   -6.5411 O   0  0  0  0  0  0  0  0  0  0  0  0
  1  2  1  0
  2  4  1  0
  2  3  2  0
  4  5  1  0
  5  6  1  0
  6  8  1  0
  6  7  1  6
  8 10  1  0
  8  9  2  0
 10 11  1  0
 11 12  1  6
 11 18  1  0
 13 12  1  0
 13 14  2  0
 15 14  1  0
 16 15  1  0
 17 16  2  0
 17 13  1  0
 18 19  2  0
 21 20  1  6
 21 23  1  0
 21 22  1  0
 24 23  1  1
 24 26  1  0
 25 24  1  0
 25 18  1  0
 26 28  1  0
 27 26  2  0
M  END
$$$$
