QHL.pdb
     RDKit          3D

 28 28  0  0  1  0  0  0  0  0999 V2000
   23.5601  -25.2097  -19.6481 N   0  0  0  0  0  0  0  0  0  0  0  0
   22.8826  -24.2792  -18.8308 C   0  0  0  0  0  0  0  0  0  0  0  0
   22.0481  -23.5280  -19.3740 O   0  0  0  0  0  0  0  0  0  0  0  0
   23.1591  -24.2024  -17.3746 C   0  0  0  0  0  0  0  0  0  0  0  0
   24.1958  -25.1717  -16.9066 C   0  0  0  0  0  0  0  0  0  0  0  0
   25.5982  -24.6261  -16.8389 C   0  0  2  0  0  0  0  0  0  0  0  0
   26.3757  -25.7336  -16.2169 N   0  0  0  0  0  0  0  0  0  0  0  0
   25.7462  -23.4593  -15.9340 C   0  0  0  0  0  0  0  0  0  0  0  0
   26.8274  -23.3007  -15.2574 O   0  0  0  0  0  0  0  0  0  0  0  0
   24.7706  -22.4497  -15.7333 N   0  0  0  0  0  0  0  0  0  0  0  0
   25.0811  -21.2764  -14.9041 C   0  0  1  0  0  0  0  0  0  0  0  0
   24.8287  -20.0324  -15.6856 C   0  0  0  0  0  0  0  0  0  0  0  0
   25.9673  -19.4989  -16.4530 C   0  0  0  0  0  0  0  0  0  0  0  0
   27.2899  -19.9827  -16.3805 C   0  0  0  0  0  0  0  0  0  0  0  0
   28.0644  -19.2785  -17.1997 N   0  0  0  0  0  0  0  0  0  0  0  0
   27.3189  -18.3607  -17.8035 C   0  0  0  0  0  0  0  0  0  0  0  0
   26.0758  -18.5050  -17.3490 N   0  0  0  0  0  0  0  0  0  0  0  0
   24.2545  -21.2819  -13.6841 C   0  0  0  0  0  0  0  0  0  0  0  0
   23.2048  -21.9588  -13.6813 O   0  0  0  0  0  0  0  0  0  0  0  0
   26.0877  -20.0690   -8.5164 C   0  0  0  0  0  0  0  0  0  0  0  0
   25.4167  -20.7412   -9.6956 C   0  0  1  0  0  0  0  0  0  0  0  0
   25.0020  -22.1394   -9.1765 C   0  0  0  0  0  0  0  0  0  0  0  0
   24.2051  -19.9911  -10.1608 C   0  0  0  0  0  0  0  0  0  0  0  0
   23.6242  -20.6131  -11.3825 C   0  0  2  0  0  0  0  0  0  0  0  0
   24.5789  -20.5631  -12.5026 N   0  0  0  0  0  0  0  0  0  0  0  0
   22.4169  -19.8878  -11.8176 C   0  0  0  0  0  0  0  0  0  0  0  0
   22.3726  -19.1244  -12.8197 O   0  0  0  0  0  0  0  0  0  0  0  0
   21.2327  -20.0523  -11.0723 O   0  0  0  0  0  0  0  0  0  0  0  0
  1  2  1  0
  2  4  1  0
  2  3  2  0
  4  5  1  0
  5  6  1  0
  6  8  1  0
  6  7  1  1
  8 10  1  0
  8  9  2  0
 10 11  1  0
 11 12  1  6
 11 18  1  0
 13 12  1  0
 13 14  2  0
 15 14  1  0
 16 15  1  0
 17 16  2  0
 17 13  1  0
 18 19  2  0
 21 20  1  1
 21 23  1  0
 21 22  1  0
 24 23  1  1
 24 26  1  0
 25 24  1  0
 25 18  1  0
 26 28  1  0
 27 26  2  0
M  END
$$$$
