QHL.pdb
     RDKit          3D

 28 28  0  0  1  0  0  0  0  0999 V2000
   28.5387  -20.7373  -20.3662 N   0  0  0  0  0  0  0  0  0  0  0  0
   27.8137  -19.5615  -20.0757 C   0  0  0  0  0  0  0  0  0  0  0  0
   27.9814  -18.5761  -20.8218 O   0  0  0  0  0  0  0  0  0  0  0  0
   26.8849  -19.5063  -18.9194 C   0  0  0  0  0  0  0  0  0  0  0  0
   26.7838  -20.7931  -18.1662 C   0  0  0  0  0  0  0  0  0  0  0  0
   27.2503  -20.7357  -16.7351 C   0  0  2  0  0  0  0  0  0  0  0  0
   28.2304  -21.8530  -16.6407 N   0  0  0  0  0  0  0  0  0  0  0  0
   26.1872  -21.0347  -15.7439 C   0  0  0  0  0  0  0  0  0  0  0  0
   25.2902  -21.9170  -16.0063 O   0  0  0  0  0  0  0  0  0  0  0  0
   26.0562  -20.4192  -14.4729 N   0  0  0  0  0  0  0  0  0  0  0  0
   25.0156  -20.8698  -13.5374 C   0  0  1  0  0  0  0  0  0  0  0  0
   25.3219  -20.3636  -12.1693 C   0  0  0  0  0  0  0  0  0  0  0  0
   24.3596  -20.7147  -11.1105 C   0  0  0  0  0  0  0  0  0  0  0  0
   23.1979  -21.4918  -11.2981 C   0  0  0  0  0  0  0  0  0  0  0  0
   22.5567  -21.6159  -10.1404 N   0  0  0  0  0  0  0  0  0  0  0  0
   23.2371  -20.9618   -9.2066 C   0  0  0  0  0  0  0  0  0  0  0  0
   24.3053  -20.4321   -9.7992 N   0  0  0  0  0  0  0  0  0  0  0  0
   23.6947  -20.3818  -13.9717 C   0  0  0  0  0  0  0  0  0  0  0  0
   23.6345  -19.2917  -14.5782 O   0  0  0  0  0  0  0  0  0  0  0  0
   18.8067  -21.3704  -16.3410 C   0  0  0  0  0  0  0  0  0  0  0  0
   20.0636  -20.5654  -16.5952 C   0  0  1  0  0  0  0  0  0  0  0  0
   19.7344  -19.1393  -16.0910 C   0  0  0  0  0  0  0  0  0  0  0  0
   21.2447  -21.1090  -15.8492 C   0  0  0  0  0  0  0  0  0  0  0  0
   21.2730  -20.6064  -14.4478 C   0  0  2  0  0  0  0  0  0  0  0  0
   22.4776  -21.0782  -13.7444 N   0  0  0  0  0  0  0  0  0  0  0  0
   20.1121  -21.1042  -13.6880 C   0  0  0  0  0  0  0  0  0  0  0  0
   19.1203  -20.3958  -13.3662 O   0  0  0  0  0  0  0  0  0  0  0  0
   20.1016  -22.4563  -13.2922 O   0  0  0  0  0  0  0  0  0  0  0  0
  1  2  1  0
  2  4  1  0
  2  3  2  0
  4  5  1  0
  5  6  1  0
  6  8  1  0
  6  7  1  6
  8 10  1  0
  8  9  2  0
 10 11  1  0
 11 12  1  1
 11 18  1  0
 13 12  1  0
 13 14  2  0
 15 14  1  0
 16 15  1  0
 17 16  2  0
 17 13  1  0
 18 19  2  0
 21 20  1  1
 21 23  1  0
 21 22  1  0
 24 23  1  6
 24 26  1  0
 25 24  1  0
 25 18  1  0
 26 28  1  0
 27 26  2  0
M  END
$$$$
