QHL.pdb
     RDKit          3D

 28 28  0  0  1  0  0  0  0  0999 V2000
   29.4124  -20.2823  -17.9729 N   0  0  0  0  0  0  0  0  0  0  0  0
   29.7726  -19.1097  -18.6714 C   0  0  0  0  0  0  0  0  0  0  0  0
   30.6682  -19.1997  -19.5350 O   0  0  0  0  0  0  0  0  0  0  0  0
   29.1044  -17.8163  -18.3829 C   0  0  0  0  0  0  0  0  0  0  0  0
   28.1559  -17.8727  -17.2294 C   0  0  0  0  0  0  0  0  0  0  0  0
   27.0200  -18.8501  -17.3818 C   0  0  2  0  0  0  0  0  0  0  0  0
   26.5632  -18.6412  -18.7837 N   0  0  0  0  0  0  0  0  0  0  0  0
   25.8505  -18.5520  -16.5181 C   0  0  0  0  0  0  0  0  0  0  0  0
   25.9964  -17.8408  -15.4576 O   0  0  0  0  0  0  0  0  0  0  0  0
   24.5230  -18.9896  -16.7578 N   0  0  0  0  0  0  0  0  0  0  0  0
   23.4365  -18.5824  -15.8552 C   0  0  1  0  0  0  0  0  0  0  0  0
   22.2225  -18.2507  -16.6539 C   0  0  0  0  0  0  0  0  0  0  0  0
   21.0422  -17.8015  -15.8954 C   0  0  0  0  0  0  0  0  0  0  0  0
   20.6064  -16.4642  -15.7938 C   0  0  0  0  0  0  0  0  0  0  0  0
   19.5152  -16.4106  -15.0367 N   0  0  0  0  0  0  0  0  0  0  0  0
   19.2146  -17.6410  -14.6383 C   0  0  0  0  0  0  0  0  0  0  0  0
   20.1314  -18.4554  -15.1570 N   0  0  0  0  0  0  0  0  0  0  0  0
   23.1332  -19.6652  -14.9027 C   0  0  0  0  0  0  0  0  0  0  0  0
   22.9830  -20.8226  -15.3477 O   0  0  0  0  0  0  0  0  0  0  0  0
   25.5570  -20.4305  -10.1596 C   0  0  0  0  0  0  0  0  0  0  0  0
   24.8507  -20.6124  -11.4866 C   0  0  1  0  0  0  0  0  0  0  0  0
   25.2839  -22.0137  -11.9818 C   0  0  0  0  0  0  0  0  0  0  0  0
   23.3593  -20.5608  -11.3459 C   0  0  0  0  0  0  0  0  0  0  0  0
   22.6907  -20.6528  -12.6732 C   0  0  2  0  0  0  0  0  0  0  0  0
   23.0016  -19.4753  -13.5011 N   0  0  0  0  0  0  0  0  0  0  0  0
   21.2251  -20.6931  -12.5212 C   0  0  0  0  0  0  0  0  0  0  0  0
   20.4663  -19.7050  -12.7131 O   0  0  0  0  0  0  0  0  0  0  0  0
   20.6256  -21.9089  -12.1375 O   0  0  0  0  0  0  0  0  0  0  0  0
  1  2  1  0
  2  4  1  0
  2  3  2  0
  4  5  1  0
  5  6  1  0
  6  8  1  0
  6  7  1  6
  8 10  1  0
  8  9  2  0
 10 11  1  0
 11 12  1  6
 11 18  1  0
 13 12  1  0
 13 14  2  0
 15 14  1  0
 16 15  1  0
 17 16  2  0
 17 13  1  0
 18 19  2  0
 21 20  1  1
 21 23  1  0
 21 22  1  0
 24 23  1  1
 24 26  1  0
 25 24  1  0
 25 18  1  0
 26 28  1  0
 27 26  2  0
M  END
$$$$
