QQA.pdb
     RDKit          3D

 24 23  0  0  1  0  0  0  0  0999 V2000
   27.3826  -11.3072  -15.5701 N   0  0  0  0  0  0  0  0  0  0  0  0
   28.3361  -11.4326  -16.6005 C   0  0  0  0  0  0  0  0  0  0  0  0
   29.3230  -12.2007  -16.3626 O   0  0  0  0  0  0  0  0  0  0  0  0
   28.1992  -10.7043  -17.9047 C   0  0  0  0  0  0  0  0  0  0  0  0
   27.0120   -9.8111  -17.7927 C   0  0  0  0  0  0  0  0  0  0  0  0
   25.7027  -10.4254  -18.1561 C   0  0  2  0  0  0  0  0  0  0  0  0
   25.7833  -10.8342  -19.5466 N   0  0  0  0  0  0  0  0  0  0  0  0
   24.5321   -9.5455  -17.9161 C   0  0  0  0  0  0  0  0  0  0  0  0
   24.1899   -8.6917  -18.7720 O   0  0  0  0  0  0  0  0  0  0  0  0
   19.1661  -10.9437  -15.1841 N   0  0  0  0  0  0  0  0  0  0  0  0
   18.9754   -9.5542  -15.4078 C   0  0  0  0  0  0  0  0  0  0  0  0
   17.8239   -9.1153  -15.1891 O   0  0  0  0  0  0  0  0  0  0  0  0
   20.1257   -8.7500  -15.8667 C   0  0  0  0  0  0  0  0  0  0  0  0
   21.3852   -9.4883  -16.0313 C   0  0  0  0  0  0  0  0  0  0  0  0
   22.5892   -8.7886  -16.5329 C   0  0  2  0  0  0  0  0  0  0  0  0
   23.7478   -9.6130  -16.7353 N   0  0  0  0  0  0  0  0  0  0  0  0
   22.9453   -7.5845  -15.7187 C   0  0  0  0  0  0  0  0  0  0  0  0
   23.6861   -7.6665  -14.7142 O   0  0  0  0  0  0  0  0  0  0  0  0
   22.4125   -3.8651  -16.0033 C   0  0  0  0  0  0  0  0  0  0  0  0
   22.9480   -5.1367  -15.3790 C   0  0  2  0  0  0  0  0  0  0  0  0
   22.4456   -6.3085  -16.0710 N   0  0  0  0  0  0  0  0  0  0  0  0
   22.4101   -5.1901  -13.9907 C   0  0  0  0  0  0  0  0  0  0  0  0
   21.4315   -5.9448  -13.6884 O   0  0  0  0  0  0  0  0  0  0  0  0
   22.9360   -4.4288  -12.9502 O   0  0  0  0  0  0  0  0  0  0  0  0
  1  2  1  0
  2  4  1  0
  2  3  2  0
  4  5  1  0
  6  8  1  0
  6  5  1  0
  6  7  1  6
  8 16  1  0
  9  8  2  0
 11 10  1  0
 11 13  1  0
 12 11  2  0
 14 13  1  0
 15 14  1  1
 15 17  1  0
 16 15  1  0
 17 18  2  0
 20 19  1  6
 20 22  1  0
 21 20  1  0
 21 17  1  0
 22 23  2  0
 22 24  1  0
M  END
$$$$
