QQA.pdb
     RDKit          3D

 24 23  0  0  1  0  0  0  0  0999 V2000
   25.8754  -16.5080  -16.8637 N   0  0  0  0  0  0  0  0  0  0  0  0
   26.4971  -17.7606  -17.0400 C   0  0  0  0  0  0  0  0  0  0  0  0
   27.6521  -17.7446  -17.5750 O   0  0  0  0  0  0  0  0  0  0  0  0
   25.8385  -19.0420  -16.6223 C   0  0  0  0  0  0  0  0  0  0  0  0
   25.6150  -18.9680  -15.1511 C   0  0  0  0  0  0  0  0  0  0  0  0
   25.0290  -20.1870  -14.5229 C   0  0  2  0  0  0  0  0  0  0  0  0
   25.0804  -21.2528  -15.5070 N   0  0  0  0  0  0  0  0  0  0  0  0
   23.6535  -19.9981  -13.9989 C   0  0  0  0  0  0  0  0  0  0  0  0
   23.3959  -19.0558  -13.2087 O   0  0  0  0  0  0  0  0  0  0  0  0
   19.9651  -17.1137  -13.3669 N   0  0  0  0  0  0  0  0  0  0  0  0
   18.8773  -18.0268  -13.3727 C   0  0  0  0  0  0  0  0  0  0  0  0
   17.8187  -17.6240  -12.8401 O   0  0  0  0  0  0  0  0  0  0  0  0
   19.0720  -19.3508  -13.9970 C   0  0  0  0  0  0  0  0  0  0  0  0
   20.4322  -19.6264  -14.4787 C   0  0  0  0  0  0  0  0  0  0  0  0
   21.2498  -20.6698  -13.8200 C   0  0  2  0  0  0  0  0  0  0  0  0
   22.5729  -20.8486  -14.3495 N   0  0  0  0  0  0  0  0  0  0  0  0
   20.5469  -21.9874  -13.7245 C   0  0  0  0  0  0  0  0  0  0  0  0
   20.5488  -22.8031  -14.6727 O   0  0  0  0  0  0  0  0  0  0  0  0
   18.7769  -23.9481  -11.0447 C   0  0  0  0  0  0  0  0  0  0  0  0
   19.2302  -23.6525  -12.4592 C   0  0  2  0  0  0  0  0  0  0  0  0
   19.8546  -22.3458  -12.5437 N   0  0  0  0  0  0  0  0  0  0  0  0
   18.0010  -23.6000  -13.2993 C   0  0  0  0  0  0  0  0  0  0  0  0
   17.5645  -22.4999  -13.7659 O   0  0  0  0  0  0  0  0  0  0  0  0
   17.2618  -24.7347  -13.6229 O   0  0  0  0  0  0  0  0  0  0  0  0
  1  2  1  0
  2  4  1  0
  2  3  2  0
  4  5  1  0
  6  8  1  0
  6  5  1  0
  6  7  1  6
  8 16  1  0
  9  8  2  0
 11 10  1  0
 11 13  1  0
 12 11  2  0
 14 13  1  0
 15 14  1  6
 15 17  1  0
 16 15  1  0
 17 18  2  0
 20 19  1  1
 20 22  1  0
 21 20  1  0
 21 17  1  0
 22 23  2  0
 22 24  1  0
M  END
$$$$
