QQA.pdb
     RDKit          3D

 24 23  0  0  1  0  0  0  0  0999 V2000
   11.7070  -12.8403   -9.7316 N   0  0  0  0  0  0  0  0  0  0  0  0
   11.4355  -12.8458  -11.1146 C   0  0  0  0  0  0  0  0  0  0  0  0
   10.4998  -13.6179  -11.5007 O   0  0  0  0  0  0  0  0  0  0  0  0
   12.2032  -11.9922  -12.0800 C   0  0  0  0  0  0  0  0  0  0  0  0
   13.1905  -11.2047  -11.2895 C   0  0  0  0  0  0  0  0  0  0  0  0
   14.6235  -11.4261  -11.6379 C   0  0  2  0  0  0  0  0  0  0  0  0
   14.9504  -12.7970  -11.2900 N   0  0  0  0  0  0  0  0  0  0  0  0
   15.5584  -10.4666  -10.9996 C   0  0  0  0  0  0  0  0  0  0  0  0
   16.0654  -10.7202   -9.8783 O   0  0  0  0  0  0  0  0  0  0  0  0
   20.1902   -7.2364  -13.3162 N   0  0  0  0  0  0  0  0  0  0  0  0
   20.1235   -6.6427  -12.0277 C   0  0  0  0  0  0  0  0  0  0  0  0
   21.0354   -5.8323  -11.7481 O   0  0  0  0  0  0  0  0  0  0  0  0
   19.0057   -7.0147  -11.1374 C   0  0  0  0  0  0  0  0  0  0  0  0
   18.0557   -7.9886  -11.6919 C   0  0  0  0  0  0  0  0  0  0  0  0
   16.8070   -8.2986  -10.9602 C   0  0  2  0  0  0  0  0  0  0  0  0
   15.9273   -9.2355  -11.6015 N   0  0  0  0  0  0  0  0  0  0  0  0
   16.0511   -7.0733  -10.5519 C   0  0  0  0  0  0  0  0  0  0  0  0
   15.4373   -6.3717  -11.3860 O   0  0  0  0  0  0  0  0  0  0  0  0
   15.0223   -5.4452   -7.3283 C   0  0  0  0  0  0  0  0  0  0  0  0
   15.2482   -5.4984   -8.8249 C   0  0  2  0  0  0  0  0  0  0  0  0
   16.0125   -6.6746   -9.1949 N   0  0  0  0  0  0  0  0  0  0  0  0
   16.0813   -4.3135   -9.1733 C   0  0  0  0  0  0  0  0  0  0  0  0
   17.2669   -4.4449   -9.6158 O   0  0  0  0  0  0  0  0  0  0  0  0
   15.6228   -3.0057   -9.0391 O   0  0  0  0  0  0  0  0  0  0  0  0
  1  2  1  0
  2  4  1  0
  2  3  2  0
  4  5  1  0
  6  8  1  0
  6  5  1  0
  6  7  1  1
  8 16  1  0
  9  8  2  0
 11 10  1  0
 11 13  1  0
 12 11  2  0
 14 13  1  0
 15 14  1  6
 15 17  1  0
 16 15  1  0
 17 18  2  0
 20 19  1  1
 20 22  1  0
 21 20  1  0
 21 17  1  0
 22 23  2  0
 22 24  1  0
M  END
$$$$
