QQA.pdb
     RDKit          3D

 24 23  0  0  1  0  0  0  0  0999 V2000
   17.3496  -14.7147  -14.5907 N   0  0  0  0  0  0  0  0  0  0  0  0
   16.4217  -13.7442  -15.0194 C   0  0  0  0  0  0  0  0  0  0  0  0
   15.4858  -13.4624  -14.2038 O   0  0  0  0  0  0  0  0  0  0  0  0
   16.5276  -13.0789  -16.3596 C   0  0  0  0  0  0  0  0  0  0  0  0
   17.7745  -12.2635  -16.3540 C   0  0  0  0  0  0  0  0  0  0  0  0
   18.0903  -11.5542  -17.6272 C   0  0  2  0  0  0  0  0  0  0  0  0
   18.6027  -12.5406  -18.5609 N   0  0  0  0  0  0  0  0  0  0  0  0
   19.0294  -10.4158  -17.4708 C   0  0  0  0  0  0  0  0  0  0  0  0
   20.0877  -10.5487  -16.8068 O   0  0  0  0  0  0  0  0  0  0  0  0
   19.3496   -5.0195  -20.8598 N   0  0  0  0  0  0  0  0  0  0  0  0
   20.2456   -4.7366  -19.7947 C   0  0  0  0  0  0  0  0  0  0  0  0
   20.8214   -3.6264  -19.8411 O   0  0  0  0  0  0  0  0  0  0  0  0
   20.4221   -5.7494  -18.7347 C   0  0  0  0  0  0  0  0  0  0  0  0
   19.6023   -6.9601  -18.8770 C   0  0  0  0  0  0  0  0  0  0  0  0
   19.6963   -8.0366  -17.8655 C   0  0  2  0  0  0  0  0  0  0  0  0
   18.7952   -9.1403  -18.0472 N   0  0  0  0  0  0  0  0  0  0  0  0
   19.6144   -7.5260  -16.4612 C   0  0  0  0  0  0  0  0  0  0  0  0
   18.5163   -7.3620  -15.8850 O   0  0  0  0  0  0  0  0  0  0  0  0
   21.8397   -7.0843  -13.5381 C   0  0  0  0  0  0  0  0  0  0  0  0
   20.6801   -6.6508  -14.4105 C   0  0  2  0  0  0  0  0  0  0  0  0
   20.7926   -7.2125  -15.7433 N   0  0  0  0  0  0  0  0  0  0  0  0
   20.7836   -5.1715  -14.5541 C   0  0  0  0  0  0  0  0  0  0  0  0
   21.1184   -4.6353  -15.6582 O   0  0  0  0  0  0  0  0  0  0  0  0
   20.5244   -4.2937  -13.5048 O   0  0  0  0  0  0  0  0  0  0  0  0
  1  2  1  0
  2  4  1  0
  2  3  2  0
  4  5  1  0
  6  8  1  0
  6  5  1  0
  6  7  1  6
  8 16  1  0
  9  8  2  0
 11 10  1  0
 11 13  1  0
 12 11  2  0
 14 13  1  0
 15 14  1  6
 15 17  1  0
 16 15  1  0
 17 18  2  0
 20 19  1  1
 20 22  1  0
 21 20  1  0
 21 17  1  0
 22 23  2  0
 22 24  1  0
M  END
$$$$
