QQA.pdb
     RDKit          3D

 24 23  0  0  1  0  0  0  0  0999 V2000
   21.9993  -12.2978  -21.8729 N   0  0  0  0  0  0  0  0  0  0  0  0
   22.5724  -11.3248  -21.0294 C   0  0  0  0  0  0  0  0  0  0  0  0
   23.2108  -10.3865  -21.6063 O   0  0  0  0  0  0  0  0  0  0  0  0
   22.4400  -11.3877  -19.5366 C   0  0  0  0  0  0  0  0  0  0  0  0
   21.5043  -10.3030  -19.1271 C   0  0  0  0  0  0  0  0  0  0  0  0
   21.6352   -9.8323  -17.7181 C   0  0  2  0  0  0  0  0  0  0  0  0
   21.4881  -10.9905  -16.8556 N   0  0  0  0  0  0  0  0  0  0  0  0
   20.6842   -8.7552  -17.3473 C   0  0  0  0  0  0  0  0  0  0  0  0
   20.6670   -7.6723  -17.9842 O   0  0  0  0  0  0  0  0  0  0  0  0
   14.9572   -9.5872  -15.0078 N   0  0  0  0  0  0  0  0  0  0  0  0
   15.0432   -8.1712  -14.9409 C   0  0  0  0  0  0  0  0  0  0  0  0
   13.9983   -7.5727  -14.5996 O   0  0  0  0  0  0  0  0  0  0  0  0
   16.3313   -7.5272  -15.2671 C   0  0  0  0  0  0  0  0  0  0  0  0
   17.4039   -8.4398  -15.6858 C   0  0  0  0  0  0  0  0  0  0  0  0
   18.7400   -7.9002  -16.0244 C   0  0  2  0  0  0  0  0  0  0  0  0
   19.7595   -8.8796  -16.2779 N   0  0  0  0  0  0  0  0  0  0  0  0
   19.2275   -6.8879  -15.0360 C   0  0  0  0  0  0  0  0  0  0  0  0
   18.5727   -5.8539  -14.7775 O   0  0  0  0  0  0  0  0  0  0  0  0
   21.6435   -6.7454  -12.2510 C   0  0  0  0  0  0  0  0  0  0  0  0
   20.8928   -6.0921  -13.3926 C   0  0  2  0  0  0  0  0  0  0  0  0
   20.4567   -7.0794  -14.3619 N   0  0  0  0  0  0  0  0  0  0  0  0
   21.8642   -5.2021  -14.0884 C   0  0  0  0  0  0  0  0  0  0  0  0
   22.2748   -5.4614  -15.2643 O   0  0  0  0  0  0  0  0  0  0  0  0
   22.3773   -4.0467  -13.5050 O   0  0  0  0  0  0  0  0  0  0  0  0
  1  2  1  0
  2  4  1  0
  2  3  2  0
  4  5  1  0
  6  8  1  0
  6  5  1  0
  6  7  1  1
  8 16  1  0
  9  8  2  0
 11 10  1  0
 11 13  1  0
 12 11  2  0
 14 13  1  0
 15 14  1  1
 15 17  1  0
 16 15  1  0
 17 18  2  0
 20 19  1  1
 20 22  1  0
 21 20  1  0
 21 17  1  0
 22 23  2  0
 22 24  1  0
M  END
$$$$
