QQA.pdb
     RDKit          3D

 24 23  0  0  1  0  0  0  0  0999 V2000
   12.6560  -12.3030   -9.5339 N   0  0  0  0  0  0  0  0  0  0  0  0
   12.7437  -12.3156  -10.9405 C   0  0  0  0  0  0  0  0  0  0  0  0
   11.8280  -12.9516  -11.5551 O   0  0  0  0  0  0  0  0  0  0  0  0
   13.8513  -11.6205  -11.6754 C   0  0  0  0  0  0  0  0  0  0  0  0
   14.7090  -10.9514  -10.6573 C   0  0  0  0  0  0  0  0  0  0  0  0
   16.1624  -10.8771  -10.9827 C   0  0  2  0  0  0  0  0  0  0  0  0
   16.7442  -12.1721  -10.6800 N   0  0  0  0  0  0  0  0  0  0  0  0
   16.8844   -9.7821  -10.2884 C   0  0  0  0  0  0  0  0  0  0  0  0
   17.1834   -9.8859   -9.0725 O   0  0  0  0  0  0  0  0  0  0  0  0
   21.3477   -5.5279  -11.5758 N   0  0  0  0  0  0  0  0  0  0  0  0
   20.7338   -6.3567  -12.5522 C   0  0  0  0  0  0  0  0  0  0  0  0
   21.1838   -6.2607  -13.7161 O   0  0  0  0  0  0  0  0  0  0  0  0
   19.6389   -7.2523  -12.1284 C   0  0  0  0  0  0  0  0  0  0  0  0
   19.3119   -7.2141  -10.6966 C   0  0  0  0  0  0  0  0  0  0  0  0
   17.9329   -7.5106  -10.2477 C   0  0  2  0  0  0  0  0  0  0  0  0
   17.2713   -8.5817  -10.9390 N   0  0  0  0  0  0  0  0  0  0  0  0
   17.0577   -6.2973  -10.2124 C   0  0  0  0  0  0  0  0  0  0  0  0
   16.4543   -5.8928  -11.2307 O   0  0  0  0  0  0  0  0  0  0  0  0
   15.4532   -4.2681   -7.5216 C   0  0  0  0  0  0  0  0  0  0  0  0
   15.8850   -4.5255   -8.9502 C   0  0  2  0  0  0  0  0  0  0  0  0
   16.8902   -5.5698   -9.0105 N   0  0  0  0  0  0  0  0  0  0  0  0
   16.5322   -3.2734   -9.4328 C   0  0  0  0  0  0  0  0  0  0  0  0
   17.7876   -3.2101   -9.6289 O   0  0  0  0  0  0  0  0  0  0  0  0
   15.8153   -2.1092   -9.6963 O   0  0  0  0  0  0  0  0  0  0  0  0
  1  2  1  0
  2  4  1  0
  2  3  2  0
  4  5  1  0
  6  8  1  0
  6  5  1  0
  6  7  1  1
  8 16  1  0
  9  8  2  0
 11 10  1  0
 11 13  1  0
 12 11  2  0
 14 13  1  0
 15 14  1  6
 15 17  1  0
 16 15  1  0
 17 18  2  0
 20 19  1  1
 20 22  1  0
 21 20  1  0
 21 17  1  0
 22 23  2  0
 22 24  1  0
M  END
$$$$
