QQA.pdb
     RDKit          3D

 24 23  0  0  1  0  0  0  0  0999 V2000
   23.3761  -11.9194  -16.0072 N   0  0  0  0  0  0  0  0  0  0  0  0
   22.1093  -12.3224  -16.4755 C   0  0  0  0  0  0  0  0  0  0  0  0
   22.0142  -13.5284  -16.8721 O   0  0  0  0  0  0  0  0  0  0  0  0
   20.9373  -11.3867  -16.5065 C   0  0  0  0  0  0  0  0  0  0  0  0
   20.4768  -11.2042  -15.1013 C   0  0  0  0  0  0  0  0  0  0  0  0
   19.0227  -10.9226  -14.9276 C   0  0  2  0  0  0  0  0  0  0  0  0
   18.3578  -11.2805  -16.1673 N   0  0  0  0  0  0  0  0  0  0  0  0
   18.7183   -9.5250  -14.5325 C   0  0  0  0  0  0  0  0  0  0  0  0
   18.3581   -8.6830  -15.3927 O   0  0  0  0  0  0  0  0  0  0  0  0
   16.1674   -7.3630   -9.2856 N   0  0  0  0  0  0  0  0  0  0  0  0
   16.5774   -6.1396   -9.8790 C   0  0  0  0  0  0  0  0  0  0  0  0
   16.1741   -5.0951   -9.3197 O   0  0  0  0  0  0  0  0  0  0  0  0
   17.4333   -6.1917  -11.0812 C   0  0  0  0  0  0  0  0  0  0  0  0
   17.7747   -7.5402  -11.5539 C   0  0  0  0  0  0  0  0  0  0  0  0
   18.5195   -7.7099  -12.8216 C   0  0  2  0  0  0  0  0  0  0  0  0
   18.8131   -9.0660  -13.1929 N   0  0  0  0  0  0  0  0  0  0  0  0
   19.7595   -6.8746  -12.8856 C   0  0  0  0  0  0  0  0  0  0  0  0
   20.7326   -7.0843  -12.1280 O   0  0  0  0  0  0  0  0  0  0  0  0
   21.2288   -4.3466  -15.2140 C   0  0  0  0  0  0  0  0  0  0  0  0
   21.0867   -5.0397  -13.8750 C   0  0  2  0  0  0  0  0  0  0  0  0
   19.8614   -5.8142  -13.8167 N   0  0  0  0  0  0  0  0  0  0  0  0
   20.9693   -3.9659  -12.8488 C   0  0  0  0  0  0  0  0  0  0  0  0
   19.8720   -3.7457  -12.2437 O   0  0  0  0  0  0  0  0  0  0  0  0
   22.0369   -3.1467  -12.4915 O   0  0  0  0  0  0  0  0  0  0  0  0
  1  2  1  0
  2  4  1  0
  2  3  2  0
  4  5  1  0
  6  8  1  0
  6  5  1  0
  6  7  1  6
  8 16  1  0
  9  8  2  0
 11 10  1  0
 11 13  1  0
 12 11  2  0
 14 13  1  0
 15 14  1  1
 15 17  1  0
 16 15  1  0
 17 18  2  0
 20 19  1  6
 20 22  1  0
 21 20  1  0
 21 17  1  0
 22 23  2  0
 22 24  1  0
M  END
$$$$
