QQA.pdb
     RDKit          3D

 24 23  0  0  1  0  0  0  0  0999 V2000
   26.4577  -12.0026  -16.5164 N   0  0  0  0  0  0  0  0  0  0  0  0
   25.3983  -12.9318  -16.4864 C   0  0  0  0  0  0  0  0  0  0  0  0
   25.7000  -14.1170  -16.1328 O   0  0  0  0  0  0  0  0  0  0  0  0
   23.9940  -12.5499  -16.8496 C   0  0  0  0  0  0  0  0  0  0  0  0
   24.0547  -11.2240  -17.5264 C   0  0  0  0  0  0  0  0  0  0  0  0
   23.8441  -10.0378  -16.6474 C   0  0  2  0  0  0  0  0  0  0  0  0
   24.1277  -10.4489  -15.2844 N   0  0  0  0  0  0  0  0  0  0  0  0
   22.4952   -9.4299  -16.7614 C   0  0  0  0  0  0  0  0  0  0  0  0
   22.0212   -9.1359  -17.8872 O   0  0  0  0  0  0  0  0  0  0  0  0
   17.6143   -9.7797  -12.7568 N   0  0  0  0  0  0  0  0  0  0  0  0
   17.0864   -8.9530  -13.7839 C   0  0  0  0  0  0  0  0  0  0  0  0
   15.8757   -8.6530  -13.6802 O   0  0  0  0  0  0  0  0  0  0  0  0
   17.9871   -8.5160  -14.8694 C   0  0  0  0  0  0  0  0  0  0  0  0
   19.3655   -9.0174  -14.7848 C   0  0  0  0  0  0  0  0  0  0  0  0
   20.3807   -8.5488  -15.7547 C   0  0  2  0  0  0  0  0  0  0  0  0
   21.6792   -9.1507  -15.6343 N   0  0  0  0  0  0  0  0  0  0  0  0
   20.5020   -7.0579  -15.7971 C   0  0  0  0  0  0  0  0  0  0  0  0
   21.1756   -6.4293  -14.9510 O   0  0  0  0  0  0  0  0  0  0  0  0
   19.3466   -4.2849  -18.0750 C   0  0  0  0  0  0  0  0  0  0  0  0
   20.0468   -4.8789  -16.8706 C   0  0  2  0  0  0  0  0  0  0  0  0
   19.8489   -6.3147  -16.8086 N   0  0  0  0  0  0  0  0  0  0  0  0
   19.3899   -4.2990  -15.6657 C   0  0  0  0  0  0  0  0  0  0  0  0
   18.4303   -4.8970  -15.0825 O   0  0  0  0  0  0  0  0  0  0  0  0
   19.7782   -3.0834  -15.1088 O   0  0  0  0  0  0  0  0  0  0  0  0
  1  2  1  0
  2  4  1  0
  2  3  2  0
  4  5  1  0
  6  8  1  0
  6  5  1  0
  6  7  1  1
  8 16  1  0
  9  8  2  0
 11 10  1  0
 11 13  1  0
 12 11  2  0
 14 13  1  0
 15 14  1  1
 15 17  1  0
 16 15  1  0
 17 18  2  0
 20 19  1  6
 20 22  1  0
 21 20  1  0
 21 17  1  0
 22 23  2  0
 22 24  1  0
M  END
$$$$
