QQA.pdb
     RDKit          3D

 24 23  0  0  1  0  0  0  0  0999 V2000
   23.8461  -14.3995  -18.5346 N   0  0  0  0  0  0  0  0  0  0  0  0
   25.0376  -14.0897  -17.8483 C   0  0  0  0  0  0  0  0  0  0  0  0
   25.9204  -15.0062  -17.8131 O   0  0  0  0  0  0  0  0  0  0  0  0
   25.2568  -12.7572  -17.1953 C   0  0  0  0  0  0  0  0  0  0  0  0
   24.0565  -11.9209  -17.4776 C   0  0  0  0  0  0  0  0  0  0  0  0
   24.0567  -10.5605  -16.8667 C   0  0  2  0  0  0  0  0  0  0  0  0
   24.2727  -10.7227  -15.4404 N   0  0  0  0  0  0  0  0  0  0  0  0
   22.8312   -9.7708  -17.1436 C   0  0  0  0  0  0  0  0  0  0  0  0
   22.5091   -9.4863  -18.3243 O   0  0  0  0  0  0  0  0  0  0  0  0
   17.3764   -9.9800  -14.2176 N   0  0  0  0  0  0  0  0  0  0  0  0
   17.1350   -8.9062  -15.1154 C   0  0  0  0  0  0  0  0  0  0  0  0
   15.9518   -8.5042  -15.1858 O   0  0  0  0  0  0  0  0  0  0  0  0
   18.2736   -8.3549  -15.8769 C   0  0  0  0  0  0  0  0  0  0  0  0
   19.5454   -9.0728  -15.7171 C   0  0  0  0  0  0  0  0  0  0  0  0
   20.7620   -8.5771  -16.3989 C   0  0  2  0  0  0  0  0  0  0  0  0
   21.9703   -9.3009  -16.1179 N   0  0  0  0  0  0  0  0  0  0  0  0
   20.9804   -7.1090  -16.2075 C   0  0  0  0  0  0  0  0  0  0  0  0
   21.5552   -6.6573  -15.1925 O   0  0  0  0  0  0  0  0  0  0  0  0
   20.5817   -3.9845  -18.2456 C   0  0  0  0  0  0  0  0  0  0  0  0
   20.7393   -4.7670  -16.9585 C   0  0  2  0  0  0  0  0  0  0  0  0
   20.5359   -6.1857  -17.1831 N   0  0  0  0  0  0  0  0  0  0  0  0
   19.6520   -4.3128  -16.0469 C   0  0  0  0  0  0  0  0  0  0  0  0
   18.6133   -5.0208  -15.8510 O   0  0  0  0  0  0  0  0  0  0  0  0
   19.7020   -3.1022  -15.3609 O   0  0  0  0  0  0  0  0  0  0  0  0
  1  2  1  0
  2  4  1  0
  2  3  2  0
  4  5  1  0
  6  8  1  0
  6  5  1  0
  6  7  1  1
  8 16  1  0
  9  8  2  0
 11 10  1  0
 11 13  1  0
 12 11  2  0
 14 13  1  0
 15 14  1  1
 15 17  1  0
 16 15  1  0
 17 18  2  0
 20 19  1  6
 20 22  1  0
 21 20  1  0
 21 17  1  0
 22 23  2  0
 22 24  1  0
M  END
$$$$
