DPE.pdb
     RDKit          3D

 25 25  0  0  1  0  0  0  0  0999 V2000
   27.4556  -21.5776  -16.3527 N   0  0  0  0  0  0  0  0  0  0  0  0
   26.8857  -20.7505  -15.3378 C   0  0  1  0  0  0  0  0  0  0  0  0
   26.5159  -19.3887  -15.8259 C   0  0  0  0  0  0  0  0  0  0  0  0
   27.5114  -18.7240  -16.6752 C   0  0  0  0  0  0  0  0  0  0  0  0
   27.1724  -18.3193  -17.8181 O   0  0  0  0  0  0  0  0  0  0  0  0
   25.8330  -21.4000  -14.5357 C   0  0  0  0  0  0  0  0  0  0  0  0
   25.1303  -22.2632  -15.1692 O   0  0  0  0  0  0  0  0  0  0  0  0
   28.8284  -18.4982  -16.3164 O   0  0  0  0  0  0  0  0  0  0  0  0
   25.5466  -21.1585  -13.1838 N   0  0  0  0  0  0  0  0  0  0  0  0
   26.2891  -20.1730  -12.3791 C   0  0  0  0  0  0  0  0  0  0  0  0
   25.8370  -20.3930  -10.9475 C   0  0  0  0  0  0  0  0  0  0  0  0
   25.2730  -21.7841  -11.0097 C   0  0  0  0  0  0  0  0  0  0  0  0
   24.5478  -21.7650  -12.3394 C   0  0  1  0  0  0  0  0  0  0  0  0
   23.2918  -20.9842  -12.2697 C   0  0  0  0  0  0  0  0  0  0  0  0
   23.3912  -19.7327  -12.2116 O   0  0  0  0  0  0  0  0  0  0  0  0
   22.0115  -21.5562  -12.2648 N   0  0  0  0  0  0  0  0  0  0  0  0
   20.8310  -20.9652  -12.9163 C   0  0  1  0  0  0  0  0  0  0  0  0
   20.2172  -21.9214  -13.8673 C   0  0  0  0  0  0  0  0  0  0  0  0
   18.9692  -21.3949  -14.4896 C   0  0  0  0  0  0  0  0  0  0  0  0
   18.3813  -22.3467  -15.4539 C   0  0  0  0  0  0  0  0  0  0  0  0
   18.6466  -23.5646  -15.4961 O   0  0  0  0  0  0  0  0  0  0  0  0
   19.9542  -20.4680  -11.8435 C   0  0  0  0  0  0  0  0  0  0  0  0
   19.9488  -21.1166  -10.7404 O   0  0  0  0  0  0  0  0  0  0  0  0
   17.4507  -21.8945  -16.4124 O   0  0  0  0  0  0  0  0  0  0  0  0
   19.1449  -19.3638  -11.9337 O   0  0  0  0  0  0  0  0  0  0  0  0
  2  1  1  6
  2  3  1  0
  3  4  1  0
  4  5  2  0
  4  8  1  0
  6  2  1  0
  6  9  1  0
  7  6  2  0
  9 13  1  0
 10  9  1  0
 10 11  1  0
 11 12  1  0
 13 12  1  0
 14 16  1  0
 13 14  1  1
 15 14  2  0
 17 18  1  1
 17 22  1  0
 17 16  1  0
 19 20  1  0
 19 18  1  0
 20 24  1  0
 21 20  2  0
 22 25  1  0
 23 22  2  0
M  END
$$$$
