DPE.pdb
     RDKit          3D

 25 25  0  0  1  0  0  0  0  0999 V2000
   19.4857  -15.3163  -15.3740 N   0  0  0  0  0  0  0  0  0  0  0  0
   20.1900  -14.4023  -16.2151 C   0  0  1  0  0  0  0  0  0  0  0  0
   19.3670  -13.8937  -17.3525 C   0  0  0  0  0  0  0  0  0  0  0  0
   18.6159  -14.9094  -18.0998 C   0  0  0  0  0  0  0  0  0  0  0  0
   17.3774  -14.7584  -18.2676 O   0  0  0  0  0  0  0  0  0  0  0  0
   20.9245  -13.3463  -15.4949 C   0  0  0  0  0  0  0  0  0  0  0  0
   20.2724  -12.7922  -14.5421 O   0  0  0  0  0  0  0  0  0  0  0  0
   19.1691  -16.0515  -18.6510 O   0  0  0  0  0  0  0  0  0  0  0  0
   22.2324  -12.9126  -15.7582 N   0  0  0  0  0  0  0  0  0  0  0  0
   23.0509  -13.4749  -16.8464 C   0  0  0  0  0  0  0  0  0  0  0  0
   24.4459  -12.9157  -16.6370 C   0  0  0  0  0  0  0  0  0  0  0  0
   24.4016  -12.5018  -15.1935 C   0  0  0  0  0  0  0  0  0  0  0  0
   23.0135  -11.9052  -15.0849 C   0  0  1  0  0  0  0  0  0  0  0  0
   22.9336  -10.5764  -15.7331 C   0  0  0  0  0  0  0  0  0  0  0  0
   22.6887  -10.5478  -16.9655 O   0  0  0  0  0  0  0  0  0  0  0  0
   23.1142   -9.3613  -15.0568 N   0  0  0  0  0  0  0  0  0  0  0  0
   22.5403   -8.0750  -15.4849 C   0  0  1  0  0  0  0  0  0  0  0  0
   22.4549   -7.1290  -14.3476 C   0  0  0  0  0  0  0  0  0  0  0  0
   21.8708   -5.8132  -14.7345 C   0  0  0  0  0  0  0  0  0  0  0  0
   21.7995   -4.8768  -13.5946 C   0  0  0  0  0  0  0  0  0  0  0  0
   22.1092   -5.1663  -12.4216 O   0  0  0  0  0  0  0  0  0  0  0  0
   23.3246   -7.6214  -16.6451 C   0  0  0  0  0  0  0  0  0  0  0  0
   24.5826   -7.8555  -16.6323 O   0  0  0  0  0  0  0  0  0  0  0  0
   21.3568   -3.5530  -13.7966 O   0  0  0  0  0  0  0  0  0  0  0  0
   22.8120   -6.9699  -17.7383 O   0  0  0  0  0  0  0  0  0  0  0  0
  2  1  1  1
  2  3  1  0
  3  4  1  0
  4  5  2  0
  4  8  1  0
  6  2  1  0
  6  9  1  0
  7  6  2  0
  9 13  1  0
 10  9  1  0
 10 11  1  0
 11 12  1  0
 13 12  1  0
 14 16  1  0
 13 14  1  6
 15 14  2  0
 17 18  1  1
 17 22  1  0
 17 16  1  0
 19 20  1  0
 19 18  1  0
 20 24  1  0
 21 20  2  0
 22 25  1  0
 23 22  2  0
M  END
$$$$
