DPE.pdb
     RDKit          3D

 25 25  0  0  1  0  0  0  0  0999 V2000
   17.3146  -12.1931  -15.3757 N   0  0  0  0  0  0  0  0  0  0  0  0
   18.4406  -11.5532  -15.9769 C   0  0  1  0  0  0  0  0  0  0  0  0
   18.2050  -11.1580  -17.3974 C   0  0  0  0  0  0  0  0  0  0  0  0
   17.6688  -12.2087  -18.2707 C   0  0  0  0  0  0  0  0  0  0  0  0
   16.5391  -12.0488  -18.8027 O   0  0  0  0  0  0  0  0  0  0  0  0
   19.0522  -10.4905  -15.1585 C   0  0  0  0  0  0  0  0  0  0  0  0
   18.2345   -9.8537  -14.4061 O   0  0  0  0  0  0  0  0  0  0  0  0
   18.3179  -13.3940  -18.5673 O   0  0  0  0  0  0  0  0  0  0  0  0
   20.4080  -10.1307  -15.1372 N   0  0  0  0  0  0  0  0  0  0  0  0
   21.4328  -10.8528  -15.9109 C   0  0  0  0  0  0  0  0  0  0  0  0
   22.7648  -10.3092  -15.4286 C   0  0  0  0  0  0  0  0  0  0  0  0
   22.3940   -9.7087  -14.1024 C   0  0  0  0  0  0  0  0  0  0  0  0
   21.0590   -9.0655  -14.4162 C   0  0  1  0  0  0  0  0  0  0  0  0
   21.2181   -7.8314  -15.2186 C   0  0  0  0  0  0  0  0  0  0  0  0
   21.5401   -7.9641  -16.4262 O   0  0  0  0  0  0  0  0  0  0  0  0
   21.0320   -6.5369  -14.7125 N   0  0  0  0  0  0  0  0  0  0  0  0
   20.6962   -5.3610  -15.5321 C   0  0  1  0  0  0  0  0  0  0  0  0
   19.3065   -4.9159  -15.2747 C   0  0  0  0  0  0  0  0  0  0  0  0
   18.9640   -3.6527  -15.9883 C   0  0  0  0  0  0  0  0  0  0  0  0
   17.5712   -3.2298  -15.7380 C   0  0  0  0  0  0  0  0  0  0  0  0
   16.7596   -3.8551  -15.0268 O   0  0  0  0  0  0  0  0  0  0  0  0
   21.7494   -4.3599  -15.2960 C   0  0  0  0  0  0  0  0  0  0  0  0
   22.3457   -4.3895  -14.1642 O   0  0  0  0  0  0  0  0  0  0  0  0
   17.0790   -2.0439  -16.3217 O   0  0  0  0  0  0  0  0  0  0  0  0
   22.1421   -3.4004  -16.1947 O   0  0  0  0  0  0  0  0  0  0  0  0
  2  1  1  1
  2  3  1  0
  3  4  1  0
  4  5  2  0
  4  8  1  0
  6  2  1  0
  6  9  1  0
  7  6  2  0
  9 13  1  0
 10  9  1  0
 10 11  1  0
 11 12  1  0
 13 12  1  0
 14 16  1  0
 13 14  1  6
 15 14  2  0
 17 18  1  1
 17 22  1  0
 17 16  1  0
 19 20  1  0
 19 18  1  0
 20 24  1  0
 21 20  2  0
 22 25  1  0
 23 22  2  0
M  END
$$$$
