DPE.pdb
     RDKit          3D

 25 25  0  0  1  0  0  0  0  0999 V2000
   18.2653  -12.6496  -16.2324 N   0  0  0  0  0  0  0  0  0  0  0  0
   19.2990  -11.7553  -16.6456 C   0  0  1  0  0  0  0  0  0  0  0  0
   19.0555  -11.1541  -17.9906 C   0  0  0  0  0  0  0  0  0  0  0  0
   18.7362  -12.1025  -19.0642 C   0  0  0  0  0  0  0  0  0  0  0  0
   19.5634  -13.0069  -19.3518 O   0  0  0  0  0  0  0  0  0  0  0  0
   19.7088  -10.7760  -15.6227 C   0  0  0  0  0  0  0  0  0  0  0  0
   18.7481  -10.2878  -14.9306 O   0  0  0  0  0  0  0  0  0  0  0  0
   17.5700  -12.0865  -19.8086 O   0  0  0  0  0  0  0  0  0  0  0  0
   21.0178  -10.3486  -15.3549 N   0  0  0  0  0  0  0  0  0  0  0  0
   22.1789  -10.8118  -16.1344 C   0  0  0  0  0  0  0  0  0  0  0  0
   23.3989  -10.3120  -15.3831 C   0  0  0  0  0  0  0  0  0  0  0  0
   22.8367  -10.0527  -14.0143 C   0  0  0  0  0  0  0  0  0  0  0  0
   21.4921   -9.4376  -14.3432 C   0  0  1  0  0  0  0  0  0  0  0  0
   21.6282   -8.0460  -14.8300 C   0  0  0  0  0  0  0  0  0  0  0  0
   22.1133   -7.8794  -15.9774 O   0  0  0  0  0  0  0  0  0  0  0  0
   21.2508   -6.9157  -14.0909 N   0  0  0  0  0  0  0  0  0  0  0  0
   21.2312   -5.5417  -14.6192 C   0  0  1  0  0  0  0  0  0  0  0  0
   19.8889   -4.9339  -14.4633 C   0  0  0  0  0  0  0  0  0  0  0  0
   18.8679   -5.5540  -15.3550 C   0  0  0  0  0  0  0  0  0  0  0  0
   17.5225   -4.9815  -15.1466 C   0  0  0  0  0  0  0  0  0  0  0  0
   17.2374   -3.7758  -15.2898 O   0  0  0  0  0  0  0  0  0  0  0  0
   22.3447   -4.8216  -13.9801 C   0  0  0  0  0  0  0  0  0  0  0  0
   22.7963   -5.2941  -12.8800 O   0  0  0  0  0  0  0  0  0  0  0  0
   16.4539   -5.8161  -14.7582 O   0  0  0  0  0  0  0  0  0  0  0  0
   22.9365   -3.6859  -14.4727 O   0  0  0  0  0  0  0  0  0  0  0  0
  2  1  1  1
  2  3  1  0
  3  4  1  0
  4  5  2  0
  4  8  1  0
  6  2  1  0
  6  9  1  0
  7  6  2  0
  9 13  1  0
 10  9  1  0
 10 11  1  0
 11 12  1  0
 13 12  1  0
 14 16  1  0
 13 14  1  6
 15 14  2  0
 17 18  1  1
 17 22  1  0
 17 16  1  0
 19 20  1  0
 19 18  1  0
 20 24  1  0
 21 20  2  0
 22 25  1  0
 23 22  2  0
M  END
$$$$
