DPE.pdb
     RDKit          3D

 25 25  0  0  1  0  0  0  0  0999 V2000
   16.1219  -28.0590    3.2930 N   0  0  0  0  0  0  0  0  0  0  0  0
   16.5209  -26.6904    3.2115 C   0  0  1  0  0  0  0  0  0  0  0  0
   15.3702  -25.7390    3.2278 C   0  0  0  0  0  0  0  0  0  0  0  0
   14.3326  -25.9763    2.2172 C   0  0  0  0  0  0  0  0  0  0  0  0
   14.6722  -26.1598    1.0189 O   0  0  0  0  0  0  0  0  0  0  0  0
   17.6152  -26.3145    4.1249 C   0  0  0  0  0  0  0  0  0  0  0  0
   17.5390  -26.8287    5.2954 O   0  0  0  0  0  0  0  0  0  0  0  0
   12.9743  -26.0163    2.4769 O   0  0  0  0  0  0  0  0  0  0  0  0
   18.6948  -25.4689    3.8290 N   0  0  0  0  0  0  0  0  0  0  0  0
   18.8378  -24.7898    2.5295 C   0  0  0  0  0  0  0  0  0  0  0  0
   20.2286  -24.1832    2.5383 C   0  0  0  0  0  0  0  0  0  0  0  0
   20.9108  -24.9847    3.6104 C   0  0  0  0  0  0  0  0  0  0  0  0
   19.8184  -25.0998    4.6533 C   0  0  1  0  0  0  0  0  0  0  0  0
   19.6145  -23.8255    5.3792 C   0  0  0  0  0  0  0  0  0  0  0  0
   19.0500  -22.8900    4.7582 O   0  0  0  0  0  0  0  0  0  0  0  0
   20.0117  -23.6060    6.7061 N   0  0  0  0  0  0  0  0  0  0  0  0
   19.7474  -22.3711    7.4627 C   0  0  1  0  0  0  0  0  0  0  0  0
   19.7004  -22.6424    8.9186 C   0  0  0  0  0  0  0  0  0  0  0  0
   18.6538  -23.6382    9.2861 C   0  0  0  0  0  0  0  0  0  0  0  0
   18.6260  -23.9095   10.7377 C   0  0  0  0  0  0  0  0  0  0  0  0
   19.4170  -23.4136   11.5647 O   0  0  0  0  0  0  0  0  0  0  0  0
   20.7412  -21.3785    7.0222 C   0  0  0  0  0  0  0  0  0  0  0  0
   21.8292  -21.8209    6.5142 O   0  0  0  0  0  0  0  0  0  0  0  0
   17.6564  -24.7827   11.2730 O   0  0  0  0  0  0  0  0  0  0  0  0
   20.5909  -20.0176    7.1119 O   0  0  0  0  0  0  0  0  0  0  0  0
  2  1  1  1
  2  3  1  0
  3  4  1  0
  4  5  2  0
  4  8  1  0
  6  2  1  0
  6  9  1  0
  7  6  2  0
  9 13  1  0
 10  9  1  0
 10 11  1  0
 11 12  1  0
 13 12  1  0
 14 16  1  0
 13 14  1  6
 15 14  2  0
 17 18  1  1
 17 22  1  0
 17 16  1  0
 19 20  1  0
 19 18  1  0
 20 24  1  0
 21 20  2  0
 22 25  1  0
 23 22  2  0
M  END
$$$$
