DPE.pdb
     RDKit          3D

 25 25  0  0  1  0  0  0  0  0999 V2000
   28.4563  -20.7568  -17.0788 N   0  0  0  0  0  0  0  0  0  0  0  0
   27.9098  -20.1590  -15.9029 C   0  0  1  0  0  0  0  0  0  0  0  0
   27.5817  -18.7125  -16.0749 C   0  0  0  0  0  0  0  0  0  0  0  0
   26.4410  -18.4175  -16.9500 C   0  0  0  0  0  0  0  0  0  0  0  0
   25.3222  -18.1572  -16.4348 O   0  0  0  0  0  0  0  0  0  0  0  0
   26.8368  -20.9388  -15.2596 C   0  0  0  0  0  0  0  0  0  0  0  0
   26.1783  -21.7012  -16.0504 O   0  0  0  0  0  0  0  0  0  0  0  0
   26.4921  -18.4009  -18.3325 O   0  0  0  0  0  0  0  0  0  0  0  0
   26.4887  -20.9150  -13.9008 N   0  0  0  0  0  0  0  0  0  0  0  0
   27.1790  -20.0598  -12.9197 C   0  0  0  0  0  0  0  0  0  0  0  0
   26.6701  -20.5060  -11.5617 C   0  0  0  0  0  0  0  0  0  0  0  0
   26.1335  -21.8761  -11.8653 C   0  0  0  0  0  0  0  0  0  0  0  0
   25.4656  -21.6566  -13.2070 C   0  0  1  0  0  0  0  0  0  0  0  0
   24.1943  -20.9095  -13.0728 C   0  0  0  0  0  0  0  0  0  0  0  0
   24.2676  -19.6614  -12.9451 O   0  0  0  0  0  0  0  0  0  0  0  0
   22.9269  -21.5097  -13.0800 N   0  0  0  0  0  0  0  0  0  0  0  0
   21.7302  -20.9245  -13.7067 C   0  0  1  0  0  0  0  0  0  0  0  0
   21.4075  -21.6145  -14.9777 C   0  0  0  0  0  0  0  0  0  0  0  0
   20.1356  -21.1333  -15.5883 C   0  0  0  0  0  0  0  0  0  0  0  0
   20.2215  -21.0432  -17.0600 C   0  0  0  0  0  0  0  0  0  0  0  0
   19.8644  -21.9440  -17.8453 O   0  0  0  0  0  0  0  0  0  0  0  0
   20.6700  -20.9223  -12.6855 C   0  0  0  0  0  0  0  0  0  0  0  0
   20.7741  -21.7647  -11.7279 O   0  0  0  0  0  0  0  0  0  0  0  0
   20.7358  -19.8781  -17.6659 O   0  0  0  0  0  0  0  0  0  0  0  0
   19.5816  -20.0870  -12.6796 O   0  0  0  0  0  0  0  0  0  0  0  0
  2  1  1  6
  2  3  1  0
  3  4  1  0
  4  5  2  0
  4  8  1  0
  6  2  1  0
  6  9  1  0
  7  6  2  0
  9 13  1  0
 10  9  1  0
 10 11  1  0
 11 12  1  0
 13 12  1  0
 14 16  1  0
 13 14  1  1
 15 14  2  0
 17 18  1  6
 17 22  1  0
 17 16  1  0
 19 20  1  0
 19 18  1  0
 20 24  1  0
 21 20  2  0
 22 25  1  0
 23 22  2  0
M  END
$$$$
