DPE.pdb
     RDKit          3D

 25 25  0  0  1  0  0  0  0  0999 V2000
   20.5644  -15.2680  -17.8032 N   0  0  0  0  0  0  0  0  0  0  0  0
   21.4452  -14.1547  -17.9573 C   0  0  1  0  0  0  0  0  0  0  0  0
   21.3457  -13.5055  -19.2983 C   0  0  0  0  0  0  0  0  0  0  0  0
   21.5242  -14.3952  -20.4519 C   0  0  0  0  0  0  0  0  0  0  0  0
   20.6610  -14.3944  -21.3682 O   0  0  0  0  0  0  0  0  0  0  0  0
   21.4317  -13.2009  -16.8333 C   0  0  0  0  0  0  0  0  0  0  0  0
   20.2815  -13.0115  -16.3029 O   0  0  0  0  0  0  0  0  0  0  0  0
   22.5908  -15.2598  -20.6225 O   0  0  0  0  0  0  0  0  0  0  0  0
   22.5355  -12.5070  -16.3155 N   0  0  0  0  0  0  0  0  0  0  0  0
   23.8869  -12.6236  -16.8903 C   0  0  0  0  0  0  0  0  0  0  0  0
   24.8078  -11.9202  -15.9106 C   0  0  0  0  0  0  0  0  0  0  0  0
   23.9804  -11.9122  -14.6567 C   0  0  0  0  0  0  0  0  0  0  0  0
   22.6009  -11.5985  -15.1980 C   0  0  1  0  0  0  0  0  0  0  0  0
   22.4756  -10.1775  -15.5944 C   0  0  0  0  0  0  0  0  0  0  0  0
   22.9455   -9.8451  -16.7117 O   0  0  0  0  0  0  0  0  0  0  0  0
   21.8690   -9.1923  -14.8020 N   0  0  0  0  0  0  0  0  0  0  0  0
   21.0729   -8.0715  -15.3285 C   0  0  1  0  0  0  0  0  0  0  0  0
   19.6695   -8.4842  -15.5648 C   0  0  0  0  0  0  0  0  0  0  0  0
   18.8277   -7.3808  -16.1089 C   0  0  0  0  0  0  0  0  0  0  0  0
   17.4511   -7.8241  -16.4083 C   0  0  0  0  0  0  0  0  0  0  0  0
   17.1462   -8.9688  -16.7985 O   0  0  0  0  0  0  0  0  0  0  0  0
   21.2671   -6.9391  -14.4082 C   0  0  0  0  0  0  0  0  0  0  0  0
   21.1028   -5.7617  -14.8815 O   0  0  0  0  0  0  0  0  0  0  0  0
   16.3733   -6.9270  -16.2575 O   0  0  0  0  0  0  0  0  0  0  0  0
   21.6082   -7.0481  -13.0837 O   0  0  0  0  0  0  0  0  0  0  0  0
  2  1  1  1
  2  3  1  0
  3  4  1  0
  4  5  2  0
  4  8  1  0
  6  2  1  0
  6  9  1  0
  7  6  2  0
  9 13  1  0
 10  9  1  0
 10 11  1  0
 11 12  1  0
 13 12  1  0
 14 16  1  0
 13 14  1  6
 15 14  2  0
 17 18  1  1
 17 22  1  0
 17 16  1  0
 19 20  1  0
 19 18  1  0
 20 24  1  0
 21 20  2  0
 22 25  1  0
 23 22  2  0
M  END
$$$$
