DPE.pdb
     RDKit          3D

 25 25  0  0  1  0  0  0  0  0999 V2000
   21.7565  -19.3084  -16.7248 N   0  0  0  0  0  0  0  0  0  0  0  0
   22.8921  -19.0843  -15.8888 C   0  0  1  0  0  0  0  0  0  0  0  0
   22.7548  -19.6931  -14.5323 C   0  0  0  0  0  0  0  0  0  0  0  0
   21.4623  -19.4854  -13.8685 C   0  0  0  0  0  0  0  0  0  0  0  0
   20.9726  -18.3265  -13.8253 O   0  0  0  0  0  0  0  0  0  0  0  0
   24.1909  -19.3542  -16.5321 C   0  0  0  0  0  0  0  0  0  0  0  0
   24.1288  -20.0829  -17.5834 O   0  0  0  0  0  0  0  0  0  0  0  0
   20.7152  -20.4836  -13.2688 O   0  0  0  0  0  0  0  0  0  0  0  0
   25.4452  -18.8961  -16.1023 N   0  0  0  0  0  0  0  0  0  0  0  0
   25.6098  -18.0104  -14.9366 C   0  0  0  0  0  0  0  0  0  0  0  0
   27.0614  -17.5692  -14.9626 C   0  0  0  0  0  0  0  0  0  0  0  0
   27.4428  -17.8378  -16.3907 C   0  0  0  0  0  0  0  0  0  0  0  0
   26.7514  -19.1600  -16.6522 C   0  0  1  0  0  0  0  0  0  0  0  0
   27.4469  -20.2853  -15.9873 C   0  0  0  0  0  0  0  0  0  0  0  0
   26.9859  -20.6813  -14.8872 O   0  0  0  0  0  0  0  0  0  0  0  0
   28.5789  -20.9271  -16.5101 N   0  0  0  0  0  0  0  0  0  0  0  0
   28.7556  -22.3873  -16.5730 C   0  0  1  0  0  0  0  0  0  0  0  0
   27.5428  -23.0441  -17.1147 C   0  0  0  0  0  0  0  0  0  0  0  0
   27.6976  -24.5208  -17.2480 C   0  0  0  0  0  0  0  0  0  0  0  0
   26.8480  -25.2599  -16.2923 C   0  0  0  0  0  0  0  0  0  0  0  0
   26.8940  -26.4934  -16.1130 O   0  0  0  0  0  0  0  0  0  0  0  0
   30.0073  -22.6356  -17.3068 C   0  0  0  0  0  0  0  0  0  0  0  0
   30.2778  -21.8597  -18.2878 O   0  0  0  0  0  0  0  0  0  0  0  0
   25.9046  -24.5669  -15.5057 O   0  0  0  0  0  0  0  0  0  0  0  0
   30.9061  -23.6317  -17.0198 O   0  0  0  0  0  0  0  0  0  0  0  0
  2  1  1  6
  2  3  1  0
  3  4  1  0
  4  5  2  0
  4  8  1  0
  6  2  1  0
  6  9  1  0
  7  6  2  0
  9 13  1  0
 10  9  1  0
 10 11  1  0
 11 12  1  0
 13 12  1  0
 14 16  1  0
 13 14  1  1
 15 14  2  0
 17 18  1  6
 17 22  1  0
 17 16  1  0
 19 20  1  0
 19 18  1  0
 20 24  1  0
 21 20  2  0
 22 25  1  0
 23 22  2  0
M  END
$$$$
