DPE.pdb
     RDKit          3D

 25 25  0  0  1  0  0  0  0  0999 V2000
   22.7301  -13.3644  -18.7173 N   0  0  0  0  0  0  0  0  0  0  0  0
   23.4877  -12.1576  -18.6243 C   0  0  1  0  0  0  0  0  0  0  0  0
   23.3160  -11.2612  -19.8060 C   0  0  0  0  0  0  0  0  0  0  0  0
   23.3571  -11.9200  -21.1169 C   0  0  0  0  0  0  0  0  0  0  0  0
   24.2964  -12.7175  -21.3750 O   0  0  0  0  0  0  0  0  0  0  0  0
   23.3767  -11.4613  -17.3296 C   0  0  0  0  0  0  0  0  0  0  0  0
   22.2308  -11.5550  -16.7654 O   0  0  0  0  0  0  0  0  0  0  0  0
   22.4248  -11.7334  -22.1221 O   0  0  0  0  0  0  0  0  0  0  0  0
   24.3866  -10.7294  -16.6875 N   0  0  0  0  0  0  0  0  0  0  0  0
   25.7360  -10.5707  -17.2569 C   0  0  0  0  0  0  0  0  0  0  0  0
   26.5678   -9.9319  -16.1603 C   0  0  0  0  0  0  0  0  0  0  0  0
   25.7588  -10.2449  -14.9337 C   0  0  0  0  0  0  0  0  0  0  0  0
   24.3450  -10.0242  -15.4308 C   0  0  1  0  0  0  0  0  0  0  0  0
   24.0332   -8.5846  -15.5806 C   0  0  0  0  0  0  0  0  0  0  0  0
   24.4691   -8.0019  -16.6054 O   0  0  0  0  0  0  0  0  0  0  0  0
   23.2871   -7.8426  -14.6536 N   0  0  0  0  0  0  0  0  0  0  0  0
   22.4322   -6.6947  -14.9983 C   0  0  1  0  0  0  0  0  0  0  0  0
   21.1095   -7.1483  -15.4884 C   0  0  0  0  0  0  0  0  0  0  0  0
   20.2034   -6.0163  -15.8343 C   0  0  0  0  0  0  0  0  0  0  0  0
   18.8785   -6.4811  -16.2923 C   0  0  0  0  0  0  0  0  0  0  0  0
   18.5397   -7.6785  -16.3764 O   0  0  0  0  0  0  0  0  0  0  0  0
   22.4165   -5.8054  -13.8254 C   0  0  0  0  0  0  0  0  0  0  0  0
   22.4696   -6.3542  -12.6706 O   0  0  0  0  0  0  0  0  0  0  0  0
   17.8951   -5.5439  -16.6713 O   0  0  0  0  0  0  0  0  0  0  0  0
   22.3513   -4.4358  -13.8741 O   0  0  0  0  0  0  0  0  0  0  0  0
  2  1  1  1
  2  3  1  0
  3  4  1  0
  4  5  2  0
  4  8  1  0
  6  2  1  0
  6  9  1  0
  7  6  2  0
  9 13  1  0
 10  9  1  0
 10 11  1  0
 11 12  1  0
 13 12  1  0
 14 16  1  0
 13 14  1  6
 15 14  2  0
 17 18  1  1
 17 22  1  0
 17 16  1  0
 19 20  1  0
 19 18  1  0
 20 24  1  0
 21 20  2  0
 22 25  1  0
 23 22  2  0
M  END
$$$$
