DPE.pdb
     RDKit          3D

 25 25  0  0  1  0  0  0  0  0999 V2000
   29.5353  -22.9588  -16.6770 N   0  0  0  0  0  0  0  0  0  0  0  0
   28.6423  -21.9814  -17.2119 C   0  0  1  0  0  0  0  0  0  0  0  0
   27.9766  -22.4195  -18.4746 C   0  0  0  0  0  0  0  0  0  0  0  0
   27.1560  -21.4055  -19.1473 C   0  0  0  0  0  0  0  0  0  0  0  0
   25.9240  -21.3454  -18.8951 O   0  0  0  0  0  0  0  0  0  0  0  0
   27.7179  -21.3903  -16.2274 C   0  0  0  0  0  0  0  0  0  0  0  0
   27.2721  -22.2093  -15.3494 O   0  0  0  0  0  0  0  0  0  0  0  0
   27.6348  -20.4839  -20.0614 O   0  0  0  0  0  0  0  0  0  0  0  0
   27.2998  -20.0522  -16.1750 N   0  0  0  0  0  0  0  0  0  0  0  0
   27.6862  -19.0598  -17.1928 C   0  0  0  0  0  0  0  0  0  0  0  0
   27.2360  -17.7184  -16.6447 C   0  0  0  0  0  0  0  0  0  0  0  0
   27.0942  -18.0132  -15.1784 C   0  0  0  0  0  0  0  0  0  0  0  0
   26.4687  -19.3926  -15.1991 C   0  0  1  0  0  0  0  0  0  0  0  0
   25.0409  -19.3433  -15.5878 C   0  0  0  0  0  0  0  0  0  0  0  0
   24.7766  -19.3110  -16.8161 O   0  0  0  0  0  0  0  0  0  0  0  0
   23.9784  -19.3306  -14.6727 N   0  0  0  0  0  0  0  0  0  0  0  0
   22.5805  -19.6425  -15.0129 C   0  0  1  0  0  0  0  0  0  0  0  0
   21.8840  -20.2700  -13.8654 C   0  0  0  0  0  0  0  0  0  0  0  0
   20.4768  -20.6473  -14.1812 C   0  0  0  0  0  0  0  0  0  0  0  0
   19.7926  -21.2672  -13.0284 C   0  0  0  0  0  0  0  0  0  0  0  0
   18.5743  -21.5312  -12.9878 O   0  0  0  0  0  0  0  0  0  0  0  0
   21.9802  -18.4035  -15.5340 C   0  0  0  0  0  0  0  0  0  0  0  0
   21.1632  -18.5123  -16.5129 O   0  0  0  0  0  0  0  0  0  0  0  0
   20.5252  -21.6020  -11.8706 O   0  0  0  0  0  0  0  0  0  0  0  0
   22.2268  -17.1432  -15.0511 O   0  0  0  0  0  0  0  0  0  0  0  0
  2  1  1  1
  2  3  1  0
  3  4  1  0
  4  5  2  0
  4  8  1  0
  6  2  1  0
  6  9  1  0
  7  6  2  0
  9 13  1  0
 10  9  1  0
 10 11  1  0
 11 12  1  0
 13 12  1  0
 14 16  1  0
 13 14  1  6
 15 14  2  0
 17 18  1  1
 17 22  1  0
 17 16  1  0
 19 20  1  0
 19 18  1  0
 20 24  1  0
 21 20  2  0
 22 25  1  0
 23 22  2  0
M  END
$$$$
