DPE.pdb
     RDKit          3D

 25 25  0  0  1  0  0  0  0  0999 V2000
   18.3709  -12.4341  -16.5125 N   0  0  0  0  0  0  0  0  0  0  0  0
   19.5578  -11.6684  -16.7221 C   0  0  1  0  0  0  0  0  0  0  0  0
   19.6312  -11.0550  -18.0814 C   0  0  0  0  0  0  0  0  0  0  0  0
   19.3760  -11.9638  -19.2053 C   0  0  0  0  0  0  0  0  0  0  0  0
   20.0535  -13.0200  -19.3079 O   0  0  0  0  0  0  0  0  0  0  0  0
   19.8863  -10.7339  -15.6303 C   0  0  0  0  0  0  0  0  0  0  0  0
   18.8738  -10.2604  -15.0052 O   0  0  0  0  0  0  0  0  0  0  0  0
   18.4274  -11.7522  -20.1900 O   0  0  0  0  0  0  0  0  0  0  0  0
   21.1711  -10.3334  -15.2340 N   0  0  0  0  0  0  0  0  0  0  0  0
   22.3943  -10.8338  -15.8849 C   0  0  0  0  0  0  0  0  0  0  0  0
   23.5427  -10.3525  -15.0177 C   0  0  0  0  0  0  0  0  0  0  0  0
   22.8496  -10.0619  -13.7168 C   0  0  0  0  0  0  0  0  0  0  0  0
   21.5613   -9.4203  -14.1889 C   0  0  1  0  0  0  0  0  0  0  0  0
   21.7806   -8.0388  -14.6743 C   0  0  0  0  0  0  0  0  0  0  0  0
   22.4000   -7.8983  -15.7588 O   0  0  0  0  0  0  0  0  0  0  0  0
   21.3410   -6.8909  -13.9994 N   0  0  0  0  0  0  0  0  0  0  0  0
   21.2304   -5.5555  -14.6093 C   0  0  1  0  0  0  0  0  0  0  0  0
   19.8525   -5.0266  -14.4785 C   0  0  0  0  0  0  0  0  0  0  0  0
   19.7444   -3.5942  -14.8771 C   0  0  0  0  0  0  0  0  0  0  0  0
   18.9294   -3.4134  -16.0955 C   0  0  0  0  0  0  0  0  0  0  0  0
   18.3957   -4.3430  -16.7333 O   0  0  0  0  0  0  0  0  0  0  0  0
   22.2983   -4.7282  -14.0243 C   0  0  0  0  0  0  0  0  0  0  0  0
   22.6584   -4.9941  -12.8256 O   0  0  0  0  0  0  0  0  0  0  0  0
   18.7113   -2.1192  -16.6119 O   0  0  0  0  0  0  0  0  0  0  0  0
   22.9379   -3.6968  -14.6644 O   0  0  0  0  0  0  0  0  0  0  0  0
  2  1  1  1
  2  3  1  0
  3  4  1  0
  4  5  2  0
  4  8  1  0
  6  2  1  0
  6  9  1  0
  7  6  2  0
  9 13  1  0
 10  9  1  0
 10 11  1  0
 11 12  1  0
 13 12  1  0
 14 16  1  0
 13 14  1  6
 15 14  2  0
 17 18  1  1
 17 22  1  0
 17 16  1  0
 19 20  1  0
 19 18  1  0
 20 24  1  0
 21 20  2  0
 22 25  1  0
 23 22  2  0
M  END
$$$$
