DPE.pdb
     RDKit          3D

 25 25  0  0  1  0  0  0  0  0999 V2000
   24.7659  -15.5717  -17.1883 N   0  0  0  0  0  0  0  0  0  0  0  0
   25.0080  -14.2186  -17.5749 C   0  0  1  0  0  0  0  0  0  0  0  0
   24.4930  -13.8940  -18.9383 C   0  0  0  0  0  0  0  0  0  0  0  0
   24.7886  -14.8816  -19.9831 C   0  0  0  0  0  0  0  0  0  0  0  0
   25.9684  -15.3000  -20.1173 O   0  0  0  0  0  0  0  0  0  0  0  0
   24.6565  -13.2159  -16.5530 C   0  0  0  0  0  0  0  0  0  0  0  0
   23.6784  -13.5425  -15.7935 O   0  0  0  0  0  0  0  0  0  0  0  0
   23.8543  -15.4067  -20.8581 O   0  0  0  0  0  0  0  0  0  0  0  0
   25.2819  -11.9764  -16.3515 N   0  0  0  0  0  0  0  0  0  0  0  0
   26.4362  -11.5308  -17.1511 C   0  0  0  0  0  0  0  0  0  0  0  0
   26.9447  -10.2755  -16.4669 C   0  0  0  0  0  0  0  0  0  0  0  0
   26.3556  -10.4104  -15.0915 C   0  0  0  0  0  0  0  0  0  0  0  0
   24.9703  -10.9404  -15.3987 C   0  0  1  0  0  0  0  0  0  0  0  0
   24.0884   -9.8872  -15.9509 C   0  0  0  0  0  0  0  0  0  0  0  0
   24.3430   -9.4675  -17.1079 O   0  0  0  0  0  0  0  0  0  0  0  0
   22.9970   -9.3373  -15.2631 N   0  0  0  0  0  0  0  0  0  0  0  0
   21.8356   -8.7053  -15.9103 C   0  0  1  0  0  0  0  0  0  0  0  0
   20.5691   -9.2980  -15.4200 C   0  0  0  0  0  0  0  0  0  0  0  0
   19.3656   -8.7069  -16.0715 C   0  0  0  0  0  0  0  0  0  0  0  0
   18.1079   -9.2369  -15.5070 C   0  0  0  0  0  0  0  0  0  0  0  0
   16.9674   -8.8748  -15.8587 O   0  0  0  0  0  0  0  0  0  0  0  0
   21.9822   -7.2520  -15.7275 C   0  0  0  0  0  0  0  0  0  0  0  0
   22.7039   -6.8521  -14.7494 O   0  0  0  0  0  0  0  0  0  0  0  0
   18.1480  -10.2220  -14.4984 O   0  0  0  0  0  0  0  0  0  0  0  0
   21.4075   -6.2943  -16.5244 O   0  0  0  0  0  0  0  0  0  0  0  0
  2  1  1  1
  2  3  1  0
  3  4  1  0
  4  5  2  0
  4  8  1  0
  6  2  1  0
  6  9  1  0
  7  6  2  0
  9 13  1  0
 10  9  1  0
 10 11  1  0
 11 12  1  0
 13 12  1  0
 14 16  1  0
 13 14  1  6
 15 14  2  0
 17 18  1  1
 17 22  1  0
 17 16  1  0
 19 20  1  0
 19 18  1  0
 20 24  1  0
 21 20  2  0
 22 25  1  0
 23 22  2  0
M  END
$$$$
