DPE.pdb
     RDKit          3D

 25 25  0  0  1  0  0  0  0  0999 V2000
   17.9593  -13.6493  -16.8975 N   0  0  0  0  0  0  0  0  0  0  0  0
   17.1648  -12.5218  -16.5282 C   0  0  1  0  0  0  0  0  0  0  0  0
   16.6225  -12.6121  -15.1399 C   0  0  0  0  0  0  0  0  0  0  0  0
   15.9365  -13.8655  -14.8040 C   0  0  0  0  0  0  0  0  0  0  0  0
   16.3005  -14.5119  -13.7869 O   0  0  0  0  0  0  0  0  0  0  0  0
   17.7683  -11.2149  -16.8462 C   0  0  0  0  0  0  0  0  0  0  0  0
   19.0486  -11.2076  -16.8783 O   0  0  0  0  0  0  0  0  0  0  0  0
   14.8943  -14.4126  -15.5310 O   0  0  0  0  0  0  0  0  0  0  0  0
   17.0805  -10.0202  -17.1061 N   0  0  0  0  0  0  0  0  0  0  0  0
   15.6113   -9.9238  -17.0579 C   0  0  0  0  0  0  0  0  0  0  0  0
   15.2744   -8.5572  -17.6248 C   0  0  0  0  0  0  0  0  0  0  0  0
   16.5237   -8.2205  -18.3884 C   0  0  0  0  0  0  0  0  0  0  0  0
   17.6035   -8.7220  -17.4520 C   0  0  1  0  0  0  0  0  0  0  0  0
   17.7733   -7.8317  -16.2812 C   0  0  0  0  0  0  0  0  0  0  0  0
   16.9931   -7.9981  -15.3100 O   0  0  0  0  0  0  0  0  0  0  0  0
   18.7448   -6.8240  -16.1961 N   0  0  0  0  0  0  0  0  0  0  0  0
   19.1222   -6.1320  -14.9527 C   0  0  1  0  0  0  0  0  0  0  0  0
   20.5557   -5.7570  -14.9700 C   0  0  0  0  0  0  0  0  0  0  0  0
   20.9836   -5.0566  -13.7257 C   0  0  0  0  0  0  0  0  0  0  0  0
   22.3872   -4.6024  -13.7949 C   0  0  0  0  0  0  0  0  0  0  0  0
   23.3692   -5.3593  -13.9304 O   0  0  0  0  0  0  0  0  0  0  0  0
   18.1673   -5.0264  -14.7715 C   0  0  0  0  0  0  0  0  0  0  0  0
   17.6332   -4.5322  -15.8241 O   0  0  0  0  0  0  0  0  0  0  0  0
   22.6882   -3.2273  -13.7065 O   0  0  0  0  0  0  0  0  0  0  0  0
   17.8046   -4.4868  -13.5633 O   0  0  0  0  0  0  0  0  0  0  0  0
  2  1  1  1
  2  3  1  0
  3  4  1  0
  4  5  2  0
  4  8  1  0
  6  2  1  0
  6  9  1  0
  7  6  2  0
  9 13  1  0
 10  9  1  0
 10 11  1  0
 11 12  1  0
 13 12  1  0
 14 16  1  0
 13 14  1  1
 15 14  2  0
 17 18  1  6
 17 22  1  0
 17 16  1  0
 19 20  1  0
 19 18  1  0
 20 24  1  0
 21 20  2  0
 22 25  1  0
 23 22  2  0
M  END
$$$$
