DPE.pdb
     RDKit          3D

 25 25  0  0  1  0  0  0  0  0999 V2000
   19.3017  -13.0677  -16.9689 N   0  0  0  0  0  0  0  0  0  0  0  0
   20.3281  -12.1496  -17.3463 C   0  0  1  0  0  0  0  0  0  0  0  0
   20.0468  -11.4476  -18.6338 C   0  0  0  0  0  0  0  0  0  0  0  0
   19.6429  -12.3067  -19.7531 C   0  0  0  0  0  0  0  0  0  0  0  0
   20.4195  -13.2194  -20.1389 O   0  0  0  0  0  0  0  0  0  0  0  0
   20.7765  -11.2520  -16.2662 C   0  0  0  0  0  0  0  0  0  0  0  0
   19.8390  -10.7962  -15.5222 O   0  0  0  0  0  0  0  0  0  0  0  0
   18.4471  -12.1955  -20.4402 O   0  0  0  0  0  0  0  0  0  0  0  0
   22.0986  -10.8683  -15.9961 N   0  0  0  0  0  0  0  0  0  0  0  0
   23.2455  -11.3738  -16.7703 C   0  0  0  0  0  0  0  0  0  0  0  0
   24.4796  -10.9128  -16.0173 C   0  0  0  0  0  0  0  0  0  0  0  0
   23.9226  -10.6293  -14.6511 C   0  0  0  0  0  0  0  0  0  0  0  0
   22.6007   -9.9702  -14.9864 C   0  0  1  0  0  0  0  0  0  0  0  0
   22.7854   -8.5858  -15.4780 C   0  0  0  0  0  0  0  0  0  0  0  0
   22.9594   -8.4289  -16.7128 O   0  0  0  0  0  0  0  0  0  0  0  0
   22.7775   -7.4523  -14.6525 N   0  0  0  0  0  0  0  0  0  0  0  0
   22.0412   -6.2117  -14.9458 C   0  0  1  0  0  0  0  0  0  0  0  0
   20.6255   -6.5016  -15.2738 C   0  0  0  0  0  0  0  0  0  0  0  0
   19.8322   -5.2688  -15.5444 C   0  0  0  0  0  0  0  0  0  0  0  0
   18.6778   -5.5302  -16.4277 C   0  0  0  0  0  0  0  0  0  0  0  0
   18.0615   -4.6522  -17.0640 O   0  0  0  0  0  0  0  0  0  0  0  0
   22.2682   -5.3010  -13.8118 C   0  0  0  0  0  0  0  0  0  0  0  0
   22.2732   -4.0453  -14.0578 O   0  0  0  0  0  0  0  0  0  0  0  0
   18.2026   -6.8476  -16.5953 O   0  0  0  0  0  0  0  0  0  0  0  0
   22.4728   -5.6934  -12.5130 O   0  0  0  0  0  0  0  0  0  0  0  0
  2  1  1  1
  2  3  1  0
  3  4  1  0
  4  5  2  0
  4  8  1  0
  6  2  1  0
  6  9  1  0
  7  6  2  0
  9 13  1  0
 10  9  1  0
 10 11  1  0
 11 12  1  0
 13 12  1  0
 14 16  1  0
 13 14  1  6
 15 14  2  0
 17 18  1  1
 17 22  1  0
 17 16  1  0
 19 20  1  0
 19 18  1  0
 20 24  1  0
 21 20  2  0
 22 25  1  0
 23 22  2  0
M  END
$$$$
