EEF.pdb
     RDKit          3D

 30 30  0  0  1  0  0  0  0  0999 V2000
    6.2332  -15.6461   19.8377 N   0  0  0  0  0  0  0  0  0  0  0  0
    7.5807  -15.2528   20.2234 C   0  0  1  0  0  0  0  0  0  0  0  0
    7.5856  -13.7607   20.3256 C   0  0  0  0  0  0  0  0  0  0  0  0
    7.3706  -13.0212   19.0540 C   0  0  0  0  0  0  0  0  0  0  0  0
    8.5347  -13.0871   18.1739 C   0  0  0  0  0  0  0  0  0  0  0  0
    9.7041  -12.9913   18.5842 O   0  0  0  0  0  0  0  0  0  0  0  0
    7.9672  -15.9380   21.4944 C   0  0  0  0  0  0  0  0  0  0  0  0
    7.1257  -16.3128   22.3167 O   0  0  0  0  0  0  0  0  0  0  0  0
    8.3283  -13.2642   16.8174 O   0  0  0  0  0  0  0  0  0  0  0  0
    9.3277  -16.1709   21.7797 N   0  0  0  0  0  0  0  0  0  0  0  0
    9.7906  -16.9824   22.8915 C   0  0  1  0  0  0  0  0  0  0  0  0
   11.0964  -17.5647   22.4898 C   0  0  0  0  0  0  0  0  0  0  0  0
   11.7102  -18.4883   23.5021 C   0  0  0  0  0  0  0  0  0  0  0  0
   12.9545  -19.1226   23.0689 C   0  0  0  0  0  0  0  0  0  0  0  0
   14.0515  -18.7369   23.4830 O   0  0  0  0  0  0  0  0  0  0  0  0
    9.7954  -16.2262   24.1597 C   0  0  0  0  0  0  0  0  0  0  0  0
   10.3825  -15.1241   24.2623 O   0  0  0  0  0  0  0  0  0  0  0  0
   12.9602  -20.1977   22.1641 O   0  0  0  0  0  0  0  0  0  0  0  0
    9.1176  -16.7666   25.2846 N   0  0  0  0  0  0  0  0  0  0  0  0
    9.1169  -16.1138   26.6100 C   0  0  1  0  0  0  0  0  0  0  0  0
    7.7298  -15.7692   27.0261 C   0  0  0  0  0  0  0  0  0  0  0  0
    7.4041  -14.3902   26.6677 C   0  0  0  0  0  0  0  0  0  0  0  0
    8.3118  -13.3873   26.8633 C   0  0  0  0  0  0  0  0  0  0  0  0
    8.0192  -12.0771   26.5293 C   0  0  0  0  0  0  0  0  0  0  0  0
    6.7925  -11.7466   25.9851 C   0  0  0  0  0  0  0  0  0  0  0  0
    5.8848  -12.7434   25.7885 C   0  0  0  0  0  0  0  0  0  0  0  0
    6.1763  -14.0664   26.1242 C   0  0  0  0  0  0  0  0  0  0  0  0
    9.8969  -16.9032   27.5750 C   0  0  0  0  0  0  0  0  0  0  0  0
   10.0493  -16.4308   28.7537 O   0  0  0  0  0  0  0  0  0  0  0  0
   10.4855  -18.1226   27.3208 O   0  0  0  0  0  0  0  0  0  0  0  0
  2  1  1  1
  2  3  1  0
  3  4  1  0
  4  5  1  0
  5  6  2  0
  5  9  1  0
  7  8  2  0
  7  2  1  0
 10  7  1  0
 11 10  1  0
 11 12  1  6
 13 14  1  0
 13 12  1  0
 14 15  2  0
 16 11  1  0
 16 19  1  0
 17 16  2  0
 18 14  1  0
 20 19  1  0
 20 28  1  0
 20 21  1  1
 22 21  1  0
 23 22  2  0
 24 23  1  0
 25 26  1  0
 25 24  2  0
 26 27  2  0
 27 22  1  0
 28 29  2  0
 28 30  1  0
M  END
$$$$
