EEF.pdb
     RDKit          3D

 30 30  0  0  1  0  0  0  0  0999 V2000
    9.3454  -14.0154   18.3765 N   0  0  0  0  0  0  0  0  0  0  0  0
   10.2630  -14.8567   19.1312 C   0  0  1  0  0  0  0  0  0  0  0  0
   11.5224  -14.0711   19.3141 C   0  0  0  0  0  0  0  0  0  0  0  0
   12.4791  -14.1023   18.1767 C   0  0  0  0  0  0  0  0  0  0  0  0
   13.8434  -14.3925   18.6111 C   0  0  0  0  0  0  0  0  0  0  0  0
   14.4553  -13.6984   19.4411 O   0  0  0  0  0  0  0  0  0  0  0  0
    9.6291  -15.2741   20.4190 C   0  0  0  0  0  0  0  0  0  0  0  0
    9.0075  -14.4782   21.1295 O   0  0  0  0  0  0  0  0  0  0  0  0
   14.4881  -15.4923   18.0739 O   0  0  0  0  0  0  0  0  0  0  0  0
    9.7347  -16.6115   20.8512 N   0  0  0  0  0  0  0  0  0  0  0  0
    9.1647  -17.1047   22.0925 C   0  0  1  0  0  0  0  0  0  0  0  0
    9.0278  -18.5768   21.9525 C   0  0  0  0  0  0  0  0  0  0  0  0
    8.4928  -19.2762   23.1687 C   0  0  0  0  0  0  0  0  0  0  0  0
    7.0338  -19.3473   23.2352 C   0  0  0  0  0  0  0  0  0  0  0  0
    6.3410  -19.3194   22.2140 O   0  0  0  0  0  0  0  0  0  0  0  0
    9.9299  -16.6467   23.2693 C   0  0  0  0  0  0  0  0  0  0  0  0
   11.1790  -16.7357   23.3127 O   0  0  0  0  0  0  0  0  0  0  0  0
    6.3537  -19.4506   24.4605 O   0  0  0  0  0  0  0  0  0  0  0  0
    9.2279  -16.0944   24.3732 N   0  0  0  0  0  0  0  0  0  0  0  0
    9.9031  -15.6361   25.6048 C   0  0  1  0  0  0  0  0  0  0  0  0
    9.9580  -14.1493   25.6527 C   0  0  0  0  0  0  0  0  0  0  0  0
    8.6288  -13.5842   25.8764 C   0  0  0  0  0  0  0  0  0  0  0  0
    7.7472  -13.4479   24.8409 C   0  0  0  0  0  0  0  0  0  0  0  0
    6.4855  -12.9151   25.0358 C   0  0  0  0  0  0  0  0  0  0  0  0
    6.0813  -12.5044   26.2920 C   0  0  0  0  0  0  0  0  0  0  0  0
    6.9570  -12.6386   27.3270 C   0  0  0  0  0  0  0  0  0  0  0  0
    8.2309  -13.1755   27.1343 C   0  0  0  0  0  0  0  0  0  0  0  0
    9.3245  -16.2935   26.7863 C   0  0  0  0  0  0  0  0  0  0  0  0
    8.2264  -16.9327   26.6405 O   0  0  0  0  0  0  0  0  0  0  0  0
    9.8663  -16.2836   28.0528 O   0  0  0  0  0  0  0  0  0  0  0  0
  2  1  1  1
  2  3  1  0
  3  4  1  0
  4  5  1  0
  5  6  2  0
  5  9  1  0
  7  8  2  0
  7  2  1  0
 10  7  1  0
 11 10  1  0
 11 12  1  6
 13 14  1  0
 13 12  1  0
 14 15  2  0
 16 11  1  0
 16 19  1  0
 17 16  2  0
 18 14  1  0
 20 19  1  0
 20 28  1  0
 20 21  1  1
 22 21  1  0
 23 22  2  0
 24 23  1  0
 25 26  1  0
 25 24  2  0
 26 27  2  0
 27 22  1  0
 28 29  2  0
 28 30  1  0
M  END
$$$$
