EEF.pdb
     RDKit          3D

 30 30  0  0  1  0  0  0  0  0999 V2000
   10.5567  -17.8347   16.1992 N   0  0  0  0  0  0  0  0  0  0  0  0
    9.6666  -17.0559   17.0480 C   0  0  1  0  0  0  0  0  0  0  0  0
    8.2852  -17.2254   16.5004 C   0  0  0  0  0  0  0  0  0  0  0  0
    8.1575  -17.1444   15.0216 C   0  0  0  0  0  0  0  0  0  0  0  0
    6.7829  -17.3552   14.5742 C   0  0  0  0  0  0  0  0  0  0  0  0
    6.4294  -17.2460   13.3875 O   0  0  0  0  0  0  0  0  0  0  0  0
    9.8022  -17.4981   18.4694 C   0  0  0  0  0  0  0  0  0  0  0  0
    8.9963  -18.2740   18.9921 O   0  0  0  0  0  0  0  0  0  0  0  0
    5.8262  -17.6923   15.5149 O   0  0  0  0  0  0  0  0  0  0  0  0
   10.8751  -17.0250   19.2516 N   0  0  0  0  0  0  0  0  0  0  0  0
   11.0868  -17.3976   20.6391 C   0  0  1  0  0  0  0  0  0  0  0  0
   12.5142  -17.7855   20.7715 C   0  0  0  0  0  0  0  0  0  0  0  0
   12.8736  -19.0896   20.1199 C   0  0  0  0  0  0  0  0  0  0  0  0
   14.2811  -19.4648   20.2490 C   0  0  0  0  0  0  0  0  0  0  0  0
   15.0667  -19.3512   19.3038 O   0  0  0  0  0  0  0  0  0  0  0  0
   10.6253  -16.3462   21.5674 C   0  0  0  0  0  0  0  0  0  0  0  0
   11.1161  -15.1936   21.5467 O   0  0  0  0  0  0  0  0  0  0  0  0
   14.8041  -19.9705   21.4512 O   0  0  0  0  0  0  0  0  0  0  0  0
    9.6022  -16.6556   22.5023 N   0  0  0  0  0  0  0  0  0  0  0  0
    9.0775  -15.6717   23.4717 C   0  0  1  0  0  0  0  0  0  0  0  0
    7.6394  -15.3904   23.2098 C   0  0  0  0  0  0  0  0  0  0  0  0
    7.4657  -14.7033   21.9316 C   0  0  0  0  0  0  0  0  0  0  0  0
    6.9043  -15.3484   20.8653 C   0  0  0  0  0  0  0  0  0  0  0  0
    6.7327  -14.7123   19.6489 C   0  0  0  0  0  0  0  0  0  0  0  0
    7.1274  -13.3986   19.4796 C   0  0  0  0  0  0  0  0  0  0  0  0
    7.6874  -12.7520   20.5400 C   0  0  0  0  0  0  0  0  0  0  0  0
    7.8622  -13.3903   21.7689 C   0  0  0  0  0  0  0  0  0  0  0  0
    9.4109  -16.0730   24.8467 C   0  0  0  0  0  0  0  0  0  0  0  0
    9.8946  -17.2426   25.0305 O   0  0  0  0  0  0  0  0  0  0  0  0
    9.2481  -15.2918   25.9696 O   0  0  0  0  0  0  0  0  0  0  0  0
  2  1  1  6
  2  3  1  0
  3  4  1  0
  4  5  1  0
  5  6  2  0
  5  9  1  0
  7  8  2  0
  7  2  1  0
 10  7  1  0
 11 10  1  0
 11 12  1  6
 13 14  1  0
 13 12  1  0
 14 15  2  0
 16 11  1  0
 16 19  1  0
 17 16  2  0
 18 14  1  0
 20 19  1  0
 20 28  1  0
 20 21  1  1
 22 21  1  0
 23 22  2  0
 24 23  1  0
 25 26  1  0
 25 24  2  0
 26 27  2  0
 27 22  1  0
 28 29  2  0
 28 30  1  0
M  END
$$$$
