EEF.pdb
     RDKit          3D

 30 30  0  0  1  0  0  0  0  0999 V2000
   12.3329  -16.2400   20.6592 N   0  0  0  0  0  0  0  0  0  0  0  0
   12.8766  -17.0011   21.7747 C   0  0  1  0  0  0  0  0  0  0  0  0
   14.1140  -16.2909   22.2234 C   0  0  0  0  0  0  0  0  0  0  0  0
   15.1943  -16.1638   21.2103 C   0  0  0  0  0  0  0  0  0  0  0  0
   16.3880  -15.5209   21.7543 C   0  0  0  0  0  0  0  0  0  0  0  0
   17.5151  -15.6345   21.2425 O   0  0  0  0  0  0  0  0  0  0  0  0
   11.8457  -17.1376   22.8485 C   0  0  0  0  0  0  0  0  0  0  0  0
   11.2340  -16.1623   23.2949 O   0  0  0  0  0  0  0  0  0  0  0  0
   16.2607  -14.7480   22.8946 O   0  0  0  0  0  0  0  0  0  0  0  0
   11.5508  -18.4095   23.3797 N   0  0  0  0  0  0  0  0  0  0  0  0
   10.5517  -18.6418   24.4075 C   0  0  1  0  0  0  0  0  0  0  0  0
   10.2142  -20.0874   24.3661 C   0  0  0  0  0  0  0  0  0  0  0  0
    8.7613  -20.3868   24.1339 C   0  0  0  0  0  0  0  0  0  0  0  0
    8.4351  -21.8115   24.0880 C   0  0  0  0  0  0  0  0  0  0  0  0
    7.2723  -22.2012   23.9479 O   0  0  0  0  0  0  0  0  0  0  0  0
   10.9853  -18.1280   25.7221 C   0  0  0  0  0  0  0  0  0  0  0  0
   11.8556  -17.2318   25.8198 O   0  0  0  0  0  0  0  0  0  0  0  0
    9.4265  -22.8009   24.2006 O   0  0  0  0  0  0  0  0  0  0  0  0
   10.3989  -18.6665   26.8980 N   0  0  0  0  0  0  0  0  0  0  0  0
   10.5404  -18.0350   28.2262 C   0  0  1  0  0  0  0  0  0  0  0  0
    9.3111  -17.2742   28.5809 C   0  0  0  0  0  0  0  0  0  0  0  0
    9.4725  -15.8524   28.2832 C   0  0  0  0  0  0  0  0  0  0  0  0
    8.7537  -15.2655   27.2796 C   0  0  0  0  0  0  0  0  0  0  0  0
    8.8947  -13.9211   26.9853 C   0  0  0  0  0  0  0  0  0  0  0  0
    9.7722  -13.1315   27.7040 C   0  0  0  0  0  0  0  0  0  0  0  0
   10.4905  -13.7126   28.7052 C   0  0  0  0  0  0  0  0  0  0  0  0
   10.3512  -15.0686   29.0051 C   0  0  0  0  0  0  0  0  0  0  0  0
   10.9928  -19.0196   29.2206 C   0  0  0  0  0  0  0  0  0  0  0  0
   11.3125  -18.5949   30.3839 O   0  0  0  0  0  0  0  0  0  0  0  0
   11.1040  -20.3764   29.0097 O   0  0  0  0  0  0  0  0  0  0  0  0
  2  1  1  6
  2  3  1  0
  3  4  1  0
  4  5  1  0
  5  6  2  0
  5  9  1  0
  7  8  2  0
  7  2  1  0
 10  7  1  0
 11 10  1  0
 11 12  1  1
 13 14  1  0
 13 12  1  0
 14 15  2  0
 16 11  1  0
 16 19  1  0
 17 16  2  0
 18 14  1  0
 20 19  1  0
 20 28  1  0
 20 21  1  1
 22 21  1  0
 23 22  2  0
 24 23  1  0
 25 26  1  0
 25 24  2  0
 26 27  2  0
 27 22  1  0
 28 29  2  0
 28 30  1  0
M  END
$$$$
