EEF.pdb
     RDKit          3D

 30 30  0  0  1  0  0  0  0  0999 V2000
    4.8400  -17.2253   20.6350 N   0  0  0  0  0  0  0  0  0  0  0  0
    6.0678  -17.7819   21.1843 C   0  0  1  0  0  0  0  0  0  0  0  0
    7.2015  -17.1586   20.4339 C   0  0  0  0  0  0  0  0  0  0  0  0
    7.1235  -15.6864   20.2431 C   0  0  0  0  0  0  0  0  0  0  0  0
    8.2559  -15.1683   19.4793 C   0  0  0  0  0  0  0  0  0  0  0  0
    8.3494  -13.9816   19.1215 O   0  0  0  0  0  0  0  0  0  0  0  0
    6.1232  -17.5374   22.6580 C   0  0  0  0  0  0  0  0  0  0  0  0
    5.5304  -16.5917   23.1861 O   0  0  0  0  0  0  0  0  0  0  0  0
    9.2750  -16.0387   19.1359 O   0  0  0  0  0  0  0  0  0  0  0  0
    6.8700  -18.4011   23.4844 N   0  0  0  0  0  0  0  0  0  0  0  0
    6.9590  -18.2592   24.9269 C   0  0  1  0  0  0  0  0  0  0  0  0
    6.9961  -19.6302   25.4965 C   0  0  0  0  0  0  0  0  0  0  0  0
    7.0895  -19.6857   26.9941 C   0  0  0  0  0  0  0  0  0  0  0  0
    7.2090  -21.0350   27.5450 C   0  0  0  0  0  0  0  0  0  0  0  0
    8.0450  -21.3043   28.4122 O   0  0  0  0  0  0  0  0  0  0  0  0
    8.0730  -17.3755   25.3247 C   0  0  0  0  0  0  0  0  0  0  0  0
    9.1455  -17.3428   24.6778 O   0  0  0  0  0  0  0  0  0  0  0  0
    6.3804  -22.0852   27.1149 O   0  0  0  0  0  0  0  0  0  0  0  0
    7.9185  -16.5472   26.4678 N   0  0  0  0  0  0  0  0  0  0  0  0
    8.9816  -15.6427   26.9522 C   0  0  1  0  0  0  0  0  0  0  0  0
    8.3986  -14.5109   27.7236 C   0  0  0  0  0  0  0  0  0  0  0  0
    7.6823  -13.5915   26.8418 C   0  0  0  0  0  0  0  0  0  0  0  0
    8.1612  -13.3097   25.5930 C   0  0  0  0  0  0  0  0  0  0  0  0
    7.4953  -12.4419   24.7461 C   0  0  0  0  0  0  0  0  0  0  0  0
    6.3200  -11.8334   25.1442 C   0  0  0  0  0  0  0  0  0  0  0  0
    5.8392  -12.1115   26.3882 C   0  0  0  0  0  0  0  0  0  0  0  0
    6.5082  -12.9865   27.2455 C   0  0  0  0  0  0  0  0  0  0  0  0
   10.0376  -16.4055   27.6347 C   0  0  0  0  0  0  0  0  0  0  0  0
    9.7989  -17.6258   27.9342 O   0  0  0  0  0  0  0  0  0  0  0  0
   11.2777  -15.9182   27.9843 O   0  0  0  0  0  0  0  0  0  0  0  0
  2  1  1  6
  2  3  1  0
  3  4  1  0
  4  5  1  0
  5  6  2  0
  5  9  1  0
  7  8  2  0
  7  2  1  0
 10  7  1  0
 11 10  1  0
 11 12  1  1
 13 14  1  0
 13 12  1  0
 14 15  2  0
 16 11  1  0
 16 19  1  0
 17 16  2  0
 18 14  1  0
 20 19  1  0
 20 28  1  0
 20 21  1  1
 22 21  1  0
 23 22  2  0
 24 23  1  0
 25 26  1  0
 25 24  2  0
 26 27  2  0
 27 22  1  0
 28 29  2  0
 28 30  1  0
M  END
$$$$
