EEF.pdb
     RDKit          3D

 30 30  0  0  1  0  0  0  0  0999 V2000
    8.0624  -18.0319   17.7665 N   0  0  0  0  0  0  0  0  0  0  0  0
    9.1794  -17.7879   18.6675 C   0  0  1  0  0  0  0  0  0  0  0  0
   10.0790  -16.8049   17.9883 C   0  0  0  0  0  0  0  0  0  0  0  0
    9.4591  -15.9965   16.9057 C   0  0  0  0  0  0  0  0  0  0  0  0
    9.8366  -16.4720   15.5769 C   0  0  0  0  0  0  0  0  0  0  0  0
   10.4885  -17.5131   15.3867 O   0  0  0  0  0  0  0  0  0  0  0  0
    8.6719  -17.3148   19.9915 C   0  0  0  0  0  0  0  0  0  0  0  0
    8.1437  -16.2075   20.1310 O   0  0  0  0  0  0  0  0  0  0  0  0
    9.4513  -15.7293   14.4752 O   0  0  0  0  0  0  0  0  0  0  0  0
    8.7921  -18.1435   21.1253 N   0  0  0  0  0  0  0  0  0  0  0  0
    8.2310  -17.8181   22.4245 C   0  0  1  0  0  0  0  0  0  0  0  0
    7.5522  -19.0414   22.9229 C   0  0  0  0  0  0  0  0  0  0  0  0
    6.8991  -18.8939   24.2669 C   0  0  0  0  0  0  0  0  0  0  0  0
    6.4053  -20.1444   24.8421 C   0  0  0  0  0  0  0  0  0  0  0  0
    5.7995  -20.1631   25.9173 O   0  0  0  0  0  0  0  0  0  0  0  0
    9.2424  -17.2388   23.3309 C   0  0  0  0  0  0  0  0  0  0  0  0
   10.4526  -17.5526   23.2471 O   0  0  0  0  0  0  0  0  0  0  0  0
    6.5962  -21.3796   24.2000 O   0  0  0  0  0  0  0  0  0  0  0  0
    8.8270  -16.3059   24.3177 N   0  0  0  0  0  0  0  0  0  0  0  0
    9.7664  -15.6642   25.2605 C   0  0  1  0  0  0  0  0  0  0  0  0
    9.7745  -14.1876   25.0722 C   0  0  0  0  0  0  0  0  0  0  0  0
    8.5078  -13.5990   25.5024 C   0  0  0  0  0  0  0  0  0  0  0  0
    8.3862  -13.0393   26.7434 C   0  0  0  0  0  0  0  0  0  0  0  0
    7.1945  -12.4780   27.1657 C   0  0  0  0  0  0  0  0  0  0  0  0
    6.0883  -12.4687   26.3372 C   0  0  0  0  0  0  0  0  0  0  0  0
    6.2053  -13.0255   25.0993 C   0  0  0  0  0  0  0  0  0  0  0  0
    7.4059  -13.5929   24.6696 C   0  0  0  0  0  0  0  0  0  0  0  0
    9.5217  -16.1330   26.6328 C   0  0  0  0  0  0  0  0  0  0  0  0
    8.4512  -16.7952   26.8594 O   0  0  0  0  0  0  0  0  0  0  0  0
   10.3531  -15.9213   27.7106 O   0  0  0  0  0  0  0  0  0  0  0  0
  2  1  1  6
  2  3  1  0
  3  4  1  0
  4  5  1  0
  5  6  2  0
  5  9  1  0
  7  8  2  0
  7  2  1  0
 10  7  1  0
 11 10  1  0
 11 12  1  1
 13 14  1  0
 13 12  1  0
 14 15  2  0
 16 11  1  0
 16 19  1  0
 17 16  2  0
 18 14  1  0
 20 19  1  0
 20 28  1  0
 20 21  1  1
 22 21  1  0
 23 22  2  0
 24 23  1  0
 25 26  1  0
 25 24  2  0
 26 27  2  0
 27 22  1  0
 28 29  2  0
 28 30  1  0
M  END
$$$$
