EEF.pdb
     RDKit          3D

 30 30  0  0  1  0  0  0  0  0999 V2000
    6.6355  -13.8856   18.4750 N   0  0  0  0  0  0  0  0  0  0  0  0
    7.7591  -14.5055   19.1623 C   0  0  1  0  0  0  0  0  0  0  0  0
    8.8999  -13.5411   19.0878 C   0  0  0  0  0  0  0  0  0  0  0  0
    9.5242  -13.3747   17.7490 C   0  0  0  0  0  0  0  0  0  0  0  0
   10.2095  -14.5863   17.3055 C   0  0  0  0  0  0  0  0  0  0  0  0
   10.8568  -15.3209   18.0713 O   0  0  0  0  0  0  0  0  0  0  0  0
    7.3683  -14.8587   20.5613 C   0  0  0  0  0  0  0  0  0  0  0  0
    6.8454  -14.0375   21.3207 O   0  0  0  0  0  0  0  0  0  0  0  0
   10.1367  -14.9349   15.9687 O   0  0  0  0  0  0  0  0  0  0  0  0
    7.5968  -16.1627   21.0449 N   0  0  0  0  0  0  0  0  0  0  0  0
    7.3410  -16.5705   22.4150 C   0  0  1  0  0  0  0  0  0  0  0  0
    6.9433  -18.0008   22.3752 C   0  0  0  0  0  0  0  0  0  0  0  0
    6.7729  -18.6430   23.7217 C   0  0  0  0  0  0  0  0  0  0  0  0
    6.3395  -20.0389   23.6777 C   0  0  0  0  0  0  0  0  0  0  0  0
    6.2294  -20.6452   22.6082 O   0  0  0  0  0  0  0  0  0  0  0  0
    8.4751  -16.2509   23.3048 C   0  0  0  0  0  0  0  0  0  0  0  0
    9.6062  -15.9666   22.8469 O   0  0  0  0  0  0  0  0  0  0  0  0
    6.0291  -20.7538   24.8470 O   0  0  0  0  0  0  0  0  0  0  0  0
    8.2721  -16.2684   24.7102 N   0  0  0  0  0  0  0  0  0  0  0  0
    9.2907  -15.8015   25.6734 C   0  0  1  0  0  0  0  0  0  0  0  0
    9.5842  -14.3564   25.4698 C   0  0  0  0  0  0  0  0  0  0  0  0
    8.4795  -13.5266   25.9463 C   0  0  0  0  0  0  0  0  0  0  0  0
    8.4248  -13.1227   27.2509 C   0  0  0  0  0  0  0  0  0  0  0  0
    7.3862  -12.3371   27.7176 C   0  0  0  0  0  0  0  0  0  0  0  0
    6.3701  -11.9375   26.8702 C   0  0  0  0  0  0  0  0  0  0  0  0
    6.4209  -12.3380   25.5690 C   0  0  0  0  0  0  0  0  0  0  0  0
    7.4670  -13.1307   25.0943 C   0  0  0  0  0  0  0  0  0  0  0  0
    8.9246  -16.1934   27.0427 C   0  0  0  0  0  0  0  0  0  0  0  0
    7.7432  -16.6400   27.2442 O   0  0  0  0  0  0  0  0  0  0  0  0
    9.7508  -16.1230   28.1428 O   0  0  0  0  0  0  0  0  0  0  0  0
  2  1  1  1
  2  3  1  0
  3  4  1  0
  4  5  1  0
  5  6  2  0
  5  9  1  0
  7  8  2  0
  7  2  1  0
 10  7  1  0
 11 10  1  0
 11 12  1  6
 13 14  1  0
 13 12  1  0
 14 15  2  0
 16 11  1  0
 16 19  1  0
 17 16  2  0
 18 14  1  0
 20 19  1  0
 20 28  1  0
 20 21  1  1
 22 21  1  0
 23 22  2  0
 24 23  1  0
 25 26  1  0
 25 24  2  0
 26 27  2  0
 27 22  1  0
 28 29  2  0
 28 30  1  0
M  END
$$$$
