EEF.pdb
     RDKit          3D

 30 30  0  0  1  0  0  0  0  0999 V2000
    6.0310  -16.5016   19.7959 N   0  0  0  0  0  0  0  0  0  0  0  0
    7.1312  -15.6835   20.2852 C   0  0  1  0  0  0  0  0  0  0  0  0
    6.7124  -14.2558   20.1332 C   0  0  0  0  0  0  0  0  0  0  0  0
    7.7370  -13.2370   20.4824 C   0  0  0  0  0  0  0  0  0  0  0  0
    8.6492  -12.9691   19.3732 C   0  0  0  0  0  0  0  0  0  0  0  0
    9.8865  -12.9919   19.4891 O   0  0  0  0  0  0  0  0  0  0  0  0
    7.4593  -16.0611   21.6939 C   0  0  0  0  0  0  0  0  0  0  0  0
    6.5889  -16.1560   22.5645 O   0  0  0  0  0  0  0  0  0  0  0  0
    8.1122  -12.6750   18.1325 O   0  0  0  0  0  0  0  0  0  0  0  0
    8.7964  -16.3192   22.0572 N   0  0  0  0  0  0  0  0  0  0  0  0
    9.1791  -17.1060   23.2162 C   0  0  1  0  0  0  0  0  0  0  0  0
   10.1766  -18.1042   22.7532 C   0  0  0  0  0  0  0  0  0  0  0  0
   11.5363  -17.5414   22.4549 C   0  0  0  0  0  0  0  0  0  0  0  0
   12.5215  -18.5318   22.0227 C   0  0  0  0  0  0  0  0  0  0  0  0
   13.5700  -18.1956   21.4650 O   0  0  0  0  0  0  0  0  0  0  0  0
    9.6092  -16.2532   24.3422 C   0  0  0  0  0  0  0  0  0  0  0  0
   10.4226  -15.3143   24.1784 O   0  0  0  0  0  0  0  0  0  0  0  0
   12.3219  -19.9085   22.2215 O   0  0  0  0  0  0  0  0  0  0  0  0
    9.0855  -16.5089   25.6371 N   0  0  0  0  0  0  0  0  0  0  0  0
    9.4990  -15.7477   26.8340 C   0  0  1  0  0  0  0  0  0  0  0  0
    8.3125  -15.1886   27.5380 C   0  0  0  0  0  0  0  0  0  0  0  0
    7.8961  -13.9234   26.9362 C   0  0  0  0  0  0  0  0  0  0  0  0
    6.7841  -13.8623   26.1438 C   0  0  0  0  0  0  0  0  0  0  0  0
    6.3765  -12.6728   25.5669 C   0  0  0  0  0  0  0  0  0  0  0  0
    7.0885  -11.5073   25.7791 C   0  0  0  0  0  0  0  0  0  0  0  0
    8.1975  -11.5640   26.5684 C   0  0  0  0  0  0  0  0  0  0  0  0
    8.6120  -12.7621   27.1521 C   0  0  0  0  0  0  0  0  0  0  0  0
   10.4171  -16.5448   27.6614 C   0  0  0  0  0  0  0  0  0  0  0  0
   10.8956  -16.0054   28.7177 O   0  0  0  0  0  0  0  0  0  0  0  0
   10.8129  -17.8378   27.3984 O   0  0  0  0  0  0  0  0  0  0  0  0
  2  1  1  1
  2  3  1  0
  3  4  1  0
  4  5  1  0
  5  6  2  0
  5  9  1  0
  7  8  2  0
  7  2  1  0
 10  7  1  0
 11 10  1  0
 11 12  1  6
 13 14  1  0
 13 12  1  0
 14 15  2  0
 16 11  1  0
 16 19  1  0
 17 16  2  0
 18 14  1  0
 20 19  1  0
 20 28  1  0
 20 21  1  1
 22 21  1  0
 23 22  2  0
 24 23  1  0
 25 26  1  0
 25 24  2  0
 26 27  2  0
 27 22  1  0
 28 29  2  0
 28 30  1  0
M  END
$$$$
