EEF.pdb
     RDKit          3D

 30 30  0  0  1  0  0  0  0  0999 V2000
    5.5371  -15.6256   19.9720 N   0  0  0  0  0  0  0  0  0  0  0  0
    6.9318  -15.7626   20.3658 C   0  0  1  0  0  0  0  0  0  0  0  0
    7.6744  -14.6260   19.7384 C   0  0  0  0  0  0  0  0  0  0  0  0
    9.1469  -14.6204   19.9417 C   0  0  0  0  0  0  0  0  0  0  0  0
    9.7792  -13.4374   19.3628 C   0  0  0  0  0  0  0  0  0  0  0  0
    9.1369  -12.4611   18.9393 O   0  0  0  0  0  0  0  0  0  0  0  0
    7.0395  -15.7938   21.8564 C   0  0  0  0  0  0  0  0  0  0  0  0
    6.4984  -14.9424   22.5686 O   0  0  0  0  0  0  0  0  0  0  0  0
   11.1597  -13.3995   19.2806 O   0  0  0  0  0  0  0  0  0  0  0  0
    7.7770  -16.8174   22.4848 N   0  0  0  0  0  0  0  0  0  0  0  0
    7.8481  -16.9920   23.9247 C   0  0  1  0  0  0  0  0  0  0  0  0
    7.9574  -18.4509   24.1802 C   0  0  0  0  0  0  0  0  0  0  0  0
    6.7326  -19.2440   23.8260 C   0  0  0  0  0  0  0  0  0  0  0  0
    6.8243  -20.6710   24.1319 C   0  0  0  0  0  0  0  0  0  0  0  0
    6.1650  -21.1772   25.0443 O   0  0  0  0  0  0  0  0  0  0  0  0
    8.9084  -16.1601   24.5279 C   0  0  0  0  0  0  0  0  0  0  0  0
    9.4360  -15.2143   23.8978 O   0  0  0  0  0  0  0  0  0  0  0  0
    7.6643  -21.5306   23.4039 O   0  0  0  0  0  0  0  0  0  0  0  0
    9.3352  -16.4444   25.8521 N   0  0  0  0  0  0  0  0  0  0  0  0
    9.0282  -15.5657   26.9996 C   0  0  1  0  0  0  0  0  0  0  0  0
    7.6059  -15.1279   26.9615 C   0  0  0  0  0  0  0  0  0  0  0  0
    7.5088  -13.6857   26.7452 C   0  0  0  0  0  0  0  0  0  0  0  0
    8.6172  -12.8916   26.8391 C   0  0  0  0  0  0  0  0  0  0  0  0
    8.5423  -11.5251   26.6372 C   0  0  0  0  0  0  0  0  0  0  0  0
    7.3357  -10.9237   26.3327 C   0  0  0  0  0  0  0  0  0  0  0  0
    6.2284  -11.7118   26.2381 C   0  0  0  0  0  0  0  0  0  0  0  0
    6.2999  -13.0908   26.4412 C   0  0  0  0  0  0  0  0  0  0  0  0
    9.4739  -16.1840   28.2574 C   0  0  0  0  0  0  0  0  0  0  0  0
    9.0211  -17.3438   28.5500 O   0  0  0  0  0  0  0  0  0  0  0  0
   10.3477  -15.6196   29.1605 O   0  0  0  0  0  0  0  0  0  0  0  0
  2  1  1  1
  2  3  1  0
  3  4  1  0
  4  5  1  0
  5  6  2  0
  5  9  1  0
  7  8  2  0
  7  2  1  0
 10  7  1  0
 11 10  1  0
 11 12  1  6
 13 14  1  0
 13 12  1  0
 14 15  2  0
 16 11  1  0
 16 19  1  0
 17 16  2  0
 18 14  1  0
 20 19  1  0
 20 28  1  0
 20 21  1  1
 22 21  1  0
 23 22  2  0
 24 23  1  0
 25 26  1  0
 25 24  2  0
 26 27  2  0
 27 22  1  0
 28 29  2  0
 28 30  1  0
M  END
$$$$
