EEF.pdb
     RDKit          3D

 30 30  0  0  1  0  0  0  0  0999 V2000
    8.1175  -12.6952   18.7653 N   0  0  0  0  0  0  0  0  0  0  0  0
    8.4128  -14.1101   18.9383 C   0  0  1  0  0  0  0  0  0  0  0  0
    9.8083  -14.3264   18.4459 C   0  0  0  0  0  0  0  0  0  0  0  0
   10.8953  -13.9719   19.3960 C   0  0  0  0  0  0  0  0  0  0  0  0
   12.2195  -14.2685   18.8548 C   0  0  0  0  0  0  0  0  0  0  0  0
   13.2351  -14.3777   19.5632 O   0  0  0  0  0  0  0  0  0  0  0  0
    8.2188  -14.4996   20.3684 C   0  0  0  0  0  0  0  0  0  0  0  0
    8.3694  -13.6934   21.2914 O   0  0  0  0  0  0  0  0  0  0  0  0
   12.3524  -14.4360   17.4880 O   0  0  0  0  0  0  0  0  0  0  0  0
    7.8540  -15.8221   20.6916 N   0  0  0  0  0  0  0  0  0  0  0  0
    7.5186  -16.2604   22.0348 C   0  0  1  0  0  0  0  0  0  0  0  0
    6.9924  -17.6445   21.9211 C   0  0  0  0  0  0  0  0  0  0  0  0
    6.7111  -18.3191   23.2327 C   0  0  0  0  0  0  0  0  0  0  0  0
    6.3126  -19.7216   23.1205 C   0  0  0  0  0  0  0  0  0  0  0  0
    5.5367  -20.2369   23.9304 O   0  0  0  0  0  0  0  0  0  0  0  0
    8.6486  -16.0849   22.9688 C   0  0  0  0  0  0  0  0  0  0  0  0
    9.7894  -15.7632   22.5626 O   0  0  0  0  0  0  0  0  0  0  0  0
    6.7923  -20.5462   22.0888 O   0  0  0  0  0  0  0  0  0  0  0  0
    8.4305  -16.2875   24.3573 N   0  0  0  0  0  0  0  0  0  0  0  0
    9.3547  -15.7869   25.3956 C   0  0  1  0  0  0  0  0  0  0  0  0
    9.4895  -14.3069   25.3110 C   0  0  0  0  0  0  0  0  0  0  0  0
    8.2896  -13.6431   25.8167 C   0  0  0  0  0  0  0  0  0  0  0  0
    7.3047  -13.2381   24.9599 C   0  0  0  0  0  0  0  0  0  0  0  0
    6.1629  -12.6087   25.4224 C   0  0  0  0  0  0  0  0  0  0  0  0
    5.9877  -12.3718   26.7727 C   0  0  0  0  0  0  0  0  0  0  0  0
    6.9671  -12.7739   27.6302 C   0  0  0  0  0  0  0  0  0  0  0  0
    8.1205  -13.4092   27.1674 C   0  0  0  0  0  0  0  0  0  0  0  0
    8.9871  -16.3215   26.7154 C   0  0  0  0  0  0  0  0  0  0  0  0
    7.8432  -16.8799   26.8400 O   0  0  0  0  0  0  0  0  0  0  0  0
    9.7748  -16.2755   27.8447 O   0  0  0  0  0  0  0  0  0  0  0  0
  2  1  1  1
  2  3  1  0
  3  4  1  0
  4  5  1  0
  5  6  2  0
  5  9  1  0
  7  8  2  0
  7  2  1  0
 10  7  1  0
 11 10  1  0
 11 12  1  6
 13 14  1  0
 13 12  1  0
 14 15  2  0
 16 11  1  0
 16 19  1  0
 17 16  2  0
 18 14  1  0
 20 19  1  0
 20 28  1  0
 20 21  1  1
 22 21  1  0
 23 22  2  0
 24 23  1  0
 25 26  1  0
 25 24  2  0
 26 27  2  0
 27 22  1  0
 28 29  2  0
 28 30  1  0
M  END
$$$$
