EEF.pdb
     RDKit          3D

 30 30  0  0  1  0  0  0  0  0999 V2000
    6.6859  -16.3363   20.7623 N   0  0  0  0  0  0  0  0  0  0  0  0
    8.1397  -16.3262   20.8368 C   0  0  1  0  0  0  0  0  0  0  0  0
    8.5881  -14.9685   20.3982 C   0  0  0  0  0  0  0  0  0  0  0  0
    7.7607  -14.3183   19.3482 C   0  0  0  0  0  0  0  0  0  0  0  0
    8.3011  -13.0227   18.9436 C   0  0  0  0  0  0  0  0  0  0  0  0
    7.6183  -12.1434   18.3907 O   0  0  0  0  0  0  0  0  0  0  0  0
    8.5813  -16.6811   22.2201 C   0  0  0  0  0  0  0  0  0  0  0  0
    7.7937  -16.7077   23.1708 O   0  0  0  0  0  0  0  0  0  0  0  0
    9.6375  -12.7593   19.1859 O   0  0  0  0  0  0  0  0  0  0  0  0
    9.9328  -16.9969   22.4653 N   0  0  0  0  0  0  0  0  0  0  0  0
   10.4385  -17.4274   23.7567 C   0  0  1  0  0  0  0  0  0  0  0  0
   11.6341  -18.2689   23.4963 C   0  0  0  0  0  0  0  0  0  0  0  0
   12.3111  -18.7967   24.7282 C   0  0  0  0  0  0  0  0  0  0  0  0
   13.5059  -19.5985   24.4677 C   0  0  0  0  0  0  0  0  0  0  0  0
   13.5382  -20.4270   23.5534 O   0  0  0  0  0  0  0  0  0  0  0  0
   10.6505  -16.2881   24.6718 C   0  0  0  0  0  0  0  0  0  0  0  0
   11.2272  -15.2425   24.2923 O   0  0  0  0  0  0  0  0  0  0  0  0
   14.6701  -19.4638   25.2431 O   0  0  0  0  0  0  0  0  0  0  0  0
   10.1881  -16.3869   26.0108 N   0  0  0  0  0  0  0  0  0  0  0  0
   10.6565  -15.4918   27.0890 C   0  0  1  0  0  0  0  0  0  0  0  0
   10.4487  -14.0656   26.7165 C   0  0  0  0  0  0  0  0  0  0  0  0
    9.0242  -13.7495   26.6329 C   0  0  0  0  0  0  0  0  0  0  0  0
    8.1646  -14.5804   25.9704 C   0  0  0  0  0  0  0  0  0  0  0  0
    6.8138  -14.2957   25.8822 C   0  0  0  0  0  0  0  0  0  0  0  0
    6.2951  -13.1556   26.4663 C   0  0  0  0  0  0  0  0  0  0  0  0
    7.1486  -12.3247   27.1277 C   0  0  0  0  0  0  0  0  0  0  0  0
    8.5121  -12.6084   27.2187 C   0  0  0  0  0  0  0  0  0  0  0  0
   10.0931  -15.9036   28.3835 C   0  0  0  0  0  0  0  0  0  0  0  0
   10.3656  -15.1923   29.4108 O   0  0  0  0  0  0  0  0  0  0  0  0
    9.2866  -17.0008   28.5921 O   0  0  0  0  0  0  0  0  0  0  0  0
  2  1  1  1
  2  3  1  0
  3  4  1  0
  4  5  1  0
  5  6  2  0
  5  9  1  0
  7  8  2  0
  7  2  1  0
 10  7  1  0
 11 10  1  0
 11 12  1  6
 13 14  1  0
 13 12  1  0
 14 15  2  0
 16 11  1  0
 16 19  1  0
 17 16  2  0
 18 14  1  0
 20 19  1  0
 20 28  1  0
 20 21  1  6
 22 21  1  0
 23 22  2  0
 24 23  1  0
 25 26  1  0
 25 24  2  0
 26 27  2  0
 27 22  1  0
 28 29  2  0
 28 30  1  0
M  END
$$$$
