EEF.pdb
     RDKit          3D

 30 30  0  0  1  0  0  0  0  0999 V2000
    5.3343  -16.4142   20.8244 N   0  0  0  0  0  0  0  0  0  0  0  0
    6.6351  -16.9083   21.2523 C   0  0  1  0  0  0  0  0  0  0  0  0
    7.6622  -16.1966   20.4305 C   0  0  0  0  0  0  0  0  0  0  0  0
    7.6491  -14.7126   20.5163 C   0  0  0  0  0  0  0  0  0  0  0  0
    8.6418  -14.1003   19.6364 C   0  0  0  0  0  0  0  0  0  0  0  0
    8.3455  -13.5085   18.5843 O   0  0  0  0  0  0  0  0  0  0  0  0
    6.8004  -16.7000   22.7232 C   0  0  0  0  0  0  0  0  0  0  0  0
    6.2045  -15.8029   23.3271 O   0  0  0  0  0  0  0  0  0  0  0  0
    9.9771  -14.1822   19.9888 O   0  0  0  0  0  0  0  0  0  0  0  0
    7.6583  -17.5426   23.4586 N   0  0  0  0  0  0  0  0  0  0  0  0
    7.7365  -17.5457   24.9086 C   0  0  1  0  0  0  0  0  0  0  0  0
    7.9617  -18.9523   25.3283 C   0  0  0  0  0  0  0  0  0  0  0  0
    6.9018  -19.9180   24.8826 C   0  0  0  0  0  0  0  0  0  0  0  0
    6.4781  -20.8699   25.9086 C   0  0  0  0  0  0  0  0  0  0  0  0
    5.3696  -21.4110   25.8660 O   0  0  0  0  0  0  0  0  0  0  0  0
    8.7236  -16.5678   25.4082 C   0  0  0  0  0  0  0  0  0  0  0  0
    9.7262  -16.2450   24.7295 O   0  0  0  0  0  0  0  0  0  0  0  0
    7.3102  -21.2128   26.9878 O   0  0  0  0  0  0  0  0  0  0  0  0
    8.5261  -15.9844   26.6877 N   0  0  0  0  0  0  0  0  0  0  0  0
    9.5136  -15.0857   27.3203 C   0  0  1  0  0  0  0  0  0  0  0  0
    8.8304  -14.0395   28.1296 C   0  0  0  0  0  0  0  0  0  0  0  0
    7.7599  -13.4033   27.3646 C   0  0  0  0  0  0  0  0  0  0  0  0
    8.0501  -12.5115   26.3703 C   0  0  0  0  0  0  0  0  0  0  0  0
    7.0487  -11.9008   25.6369 C   0  0  0  0  0  0  0  0  0  0  0  0
    5.7193  -12.1791   25.8928 C   0  0  0  0  0  0  0  0  0  0  0  0
    5.4257  -13.0675   26.8831 C   0  0  0  0  0  0  0  0  0  0  0  0
    6.4332  -13.6856   27.6253 C   0  0  0  0  0  0  0  0  0  0  0  0
   10.5459  -15.8641   28.0211 C   0  0  0  0  0  0  0  0  0  0  0  0
   11.5104  -15.2270   28.5685 O   0  0  0  0  0  0  0  0  0  0  0  0
   10.5678  -17.2361   28.1435 O   0  0  0  0  0  0  0  0  0  0  0  0
  2  1  1  6
  2  3  1  0
  3  4  1  0
  4  5  1  0
  5  6  2  0
  5  9  1  0
  7  8  2  0
  7  2  1  0
 10  7  1  0
 11 10  1  0
 11 12  1  6
 13 14  1  0
 13 12  1  0
 14 15  2  0
 16 11  1  0
 16 19  1  0
 17 16  2  0
 18 14  1  0
 20 19  1  0
 20 28  1  0
 20 21  1  1
 22 21  1  0
 23 22  2  0
 24 23  1  0
 25 26  1  0
 25 24  2  0
 26 27  2  0
 27 22  1  0
 28 29  2  0
 28 30  1  0
M  END
$$$$
