EEF.pdb
     RDKit          3D

 30 30  0  0  1  0  0  0  0  0999 V2000
    9.1695  -15.7284   18.6471 N   0  0  0  0  0  0  0  0  0  0  0  0
    8.0060  -16.1091   19.4347 C   0  0  1  0  0  0  0  0  0  0  0  0
    7.1568  -16.9788   18.5633 C   0  0  0  0  0  0  0  0  0  0  0  0
    7.8534  -18.1119   17.8995 C   0  0  0  0  0  0  0  0  0  0  0  0
    6.9456  -18.9173   17.0862 C   0  0  0  0  0  0  0  0  0  0  0  0
    6.5416  -20.0419   17.4286 O   0  0  0  0  0  0  0  0  0  0  0  0
    8.4429  -16.7776   20.6983 C   0  0  0  0  0  0  0  0  0  0  0  0
    7.6320  -17.1997   21.5283 O   0  0  0  0  0  0  0  0  0  0  0  0
    6.5135  -18.4061   15.8755 O   0  0  0  0  0  0  0  0  0  0  0  0
    9.8170  -16.9388   20.9673 N   0  0  0  0  0  0  0  0  0  0  0  0
   10.3347  -17.5647   22.1711 C   0  0  1  0  0  0  0  0  0  0  0  0
   11.5681  -18.2958   21.7843 C   0  0  0  0  0  0  0  0  0  0  0  0
   12.3468  -18.8662   22.9345 C   0  0  0  0  0  0  0  0  0  0  0  0
   13.5601  -19.5853   22.5485 C   0  0  0  0  0  0  0  0  0  0  0  0
   14.5024  -19.7252   23.3333 O   0  0  0  0  0  0  0  0  0  0  0  0
   10.4906  -16.5935   23.2724 C   0  0  0  0  0  0  0  0  0  0  0  0
   11.2697  -15.6168   23.1781 O   0  0  0  0  0  0  0  0  0  0  0  0
   13.7102  -20.1494   21.2702 O   0  0  0  0  0  0  0  0  0  0  0  0
    9.7379  -16.7772   24.4624 N   0  0  0  0  0  0  0  0  0  0  0  0
    9.2625  -15.6511   25.2924 C   0  0  1  0  0  0  0  0  0  0  0  0
    8.3476  -14.7726   24.5132 C   0  0  0  0  0  0  0  0  0  0  0  0
    7.8064  -13.7059   25.3530 C   0  0  0  0  0  0  0  0  0  0  0  0
    8.6398  -12.8946   26.0710 C   0  0  0  0  0  0  0  0  0  0  0  0
    8.1436  -11.8805   26.8704 C   0  0  0  0  0  0  0  0  0  0  0  0
    6.7824  -11.6601   26.9639 C   0  0  0  0  0  0  0  0  0  0  0  0
    5.9483  -12.4665   26.2498 C   0  0  0  0  0  0  0  0  0  0  0  0
    6.4450  -13.4907   25.4422 C   0  0  0  0  0  0  0  0  0  0  0  0
    8.7396  -16.1408   26.5767 C   0  0  0  0  0  0  0  0  0  0  0  0
    7.9247  -17.1263   26.5570 O   0  0  0  0  0  0  0  0  0  0  0  0
    9.0532  -15.6275   27.8161 O   0  0  0  0  0  0  0  0  0  0  0  0
  2  1  1  6
  2  3  1  0
  3  4  1  0
  4  5  1  0
  5  6  2  0
  5  9  1  0
  7  8  2  0
  7  2  1  0
 10  7  1  0
 11 10  1  0
 11 12  1  6
 13 14  1  0
 13 12  1  0
 14 15  2  0
 16 11  1  0
 16 19  1  0
 17 16  2  0
 18 14  1  0
 20 19  1  0
 20 28  1  0
 20 21  1  6
 22 21  1  0
 23 22  2  0
 24 23  1  0
 25 26  1  0
 25 24  2  0
 26 27  2  0
 27 22  1  0
 28 29  2  0
 28 30  1  0
M  END
$$$$
