EEF.pdb
     RDKit          3D

 30 30  0  0  1  0  0  0  0  0999 V2000
    6.3379  -15.8952   21.2738 N   0  0  0  0  0  0  0  0  0  0  0  0
    7.7621  -15.6460   21.4433 C   0  0  1  0  0  0  0  0  0  0  0  0
    7.9341  -14.1644   21.5530 C   0  0  0  0  0  0  0  0  0  0  0  0
    7.5516  -13.3748   20.3530 C   0  0  0  0  0  0  0  0  0  0  0  0
    8.5160  -13.5216   19.2655 C   0  0  0  0  0  0  0  0  0  0  0  0
    9.5123  -14.2617   19.3350 O   0  0  0  0  0  0  0  0  0  0  0  0
    8.2721  -16.3945   22.6325 C   0  0  0  0  0  0  0  0  0  0  0  0
    7.5375  -16.6993   23.5770 O   0  0  0  0  0  0  0  0  0  0  0  0
    8.3133  -12.8027   18.1010 O   0  0  0  0  0  0  0  0  0  0  0  0
    9.6290  -16.7707   22.6950 N   0  0  0  0  0  0  0  0  0  0  0  0
   10.1442  -17.7811   23.6019 C   0  0  1  0  0  0  0  0  0  0  0  0
   11.1271  -18.5903   22.8372 C   0  0  0  0  0  0  0  0  0  0  0  0
   12.3525  -17.8410   22.3998 C   0  0  0  0  0  0  0  0  0  0  0  0
   12.8484  -18.2097   21.0745 C   0  0  0  0  0  0  0  0  0  0  0  0
   12.5677  -19.2970   20.5620 O   0  0  0  0  0  0  0  0  0  0  0  0
   10.6485  -17.1882   24.8566 C   0  0  0  0  0  0  0  0  0  0  0  0
   11.5244  -17.7611   25.5454 O   0  0  0  0  0  0  0  0  0  0  0  0
   13.6649  -17.3467   20.3241 O   0  0  0  0  0  0  0  0  0  0  0  0
   10.1240  -15.9405   25.2865 N   0  0  0  0  0  0  0  0  0  0  0  0
   10.5788  -15.2606   26.5169 C   0  0  1  0  0  0  0  0  0  0  0  0
   10.4634  -13.7833   26.3752 C   0  0  0  0  0  0  0  0  0  0  0  0
    9.0621  -13.3695   26.3401 C   0  0  0  0  0  0  0  0  0  0  0  0
    8.4438  -12.9093   27.4688 C   0  0  0  0  0  0  0  0  0  0  0  0
    7.1183  -12.5137   27.4524 C   0  0  0  0  0  0  0  0  0  0  0  0
    6.3802  -12.5741   26.2854 C   0  0  0  0  0  0  0  0  0  0  0  0
    6.9928  -13.0322   25.1581 C   0  0  0  0  0  0  0  0  0  0  0  0
    8.3299  -13.4323   25.1707 C   0  0  0  0  0  0  0  0  0  0  0  0
    9.9270  -15.8428   27.6997 C   0  0  0  0  0  0  0  0  0  0  0  0
    8.9230  -16.6131   27.5142 O   0  0  0  0  0  0  0  0  0  0  0  0
   10.3060  -15.6313   29.0072 O   0  0  0  0  0  0  0  0  0  0  0  0
  2  1  1  1
  2  3  1  0
  3  4  1  0
  4  5  1  0
  5  6  2  0
  5  9  1  0
  7  8  2  0
  7  2  1  0
 10  7  1  0
 11 10  1  0
 11 12  1  6
 13 14  1  0
 13 12  1  0
 14 15  2  0
 16 11  1  0
 16 19  1  0
 17 16  2  0
 18 14  1  0
 20 19  1  0
 20 28  1  0
 20 21  1  6
 22 21  1  0
 23 22  2  0
 24 23  1  0
 25 26  1  0
 25 24  2  0
 26 27  2  0
 27 22  1  0
 28 29  2  0
 28 30  1  0
M  END
$$$$
