EES.pdb
     RDKit          3D

 25 24  0  0  1  0  0  0  0  0999 V2000
   18.4476  -11.3492  -18.1173 N   0  0  0  0  0  0  0  0  0  0  0  0
   17.9973  -10.8938  -16.8290 C   0  0  1  0  0  0  0  0  0  0  0  0
   18.7311  -11.6344  -15.7611 C   0  0  0  0  0  0  0  0  0  0  0  0
   18.3229  -13.0676  -15.5723 C   0  0  0  0  0  0  0  0  0  0  0  0
   17.0477  -13.2334  -14.8873 C   0  0  0  0  0  0  0  0  0  0  0  0
   16.4686  -14.3424  -14.8644 O   0  0  0  0  0  0  0  0  0  0  0  0
   18.4439   -9.4523  -16.6804 C   0  0  0  0  0  0  0  0  0  0  0  0
   19.4955   -9.1204  -17.2814 O   0  0  0  0  0  0  0  0  0  0  0  0
   16.4440  -12.1636  -14.2465 O   0  0  0  0  0  0  0  0  0  0  0  0
   17.7002   -8.5541  -15.9039 N   0  0  0  0  0  0  0  0  0  0  0  0
   18.0724   -7.1542  -15.8257 C   0  0  1  0  0  0  0  0  0  0  0  0
   16.8103   -6.4271  -15.4549 C   0  0  0  0  0  0  0  0  0  0  0  0
   15.6721   -6.5779  -16.4265 C   0  0  0  0  0  0  0  0  0  0  0  0
   14.3991   -6.4350  -15.6315 C   0  0  0  0  0  0  0  0  0  0  0  0
   14.0637   -5.3231  -15.1796 O   0  0  0  0  0  0  0  0  0  0  0  0
   19.1955   -6.9801  -14.8928 C   0  0  0  0  0  0  0  0  0  0  0  0
   19.6180   -7.9227  -14.1386 O   0  0  0  0  0  0  0  0  0  0  0  0
   13.5996   -7.5314  -15.3993 O   0  0  0  0  0  0  0  0  0  0  0  0
   23.4154   -6.4794  -14.0070 O   0  0  0  0  0  0  0  0  0  0  0  0
   22.1911   -6.5988  -14.6875 C   0  0  0  0  0  0  0  0  0  0  0  0
   21.1705   -5.6944  -14.0195 C   0  0  2  0  0  0  0  0  0  0  0  0
   19.9063   -5.7509  -14.7581 N   0  0  0  0  0  0  0  0  0  0  0  0
   21.6724   -4.3114  -14.0374 C   0  0  0  0  0  0  0  0  0  0  0  0
   21.3426   -3.3872  -15.0063 O   0  0  0  0  0  0  0  0  0  0  0  0
   22.4502   -3.9159  -13.1301 O   0  0  0  0  0  0  0  0  0  0  0  0
  2  1  1  6
  3  2  1  0
  4  5  1  0
  4  3  1  0
  5  6  2  0
  7  2  1  0
  7 10  1  0
  8  7  2  0
  9  5  1  0
 10 11  1  0
 11 12  1  1
 13 14  1  0
 13 12  1  0
 14 15  2  0
 16 22  1  0
 16 11  1  0
 17 16  2  0
 18 14  1  0
 19 20  1  0
 21 20  1  6
 21 22  1  0
 23 21  1  0
 23 24  1  0
 25 23  2  0
M  END
$$$$
