EES.pdb
     RDKit          3D

 25 24  0  0  1  0  0  0  0  0999 V2000
   17.2758  -12.0797  -13.3443 N   0  0  0  0  0  0  0  0  0  0  0  0
   16.8048  -10.7221  -13.4136 C   0  0  1  0  0  0  0  0  0  0  0  0
   15.3127  -10.7196  -13.4435 C   0  0  0  0  0  0  0  0  0  0  0  0
   14.6846  -11.6884  -14.4044 C   0  0  0  0  0  0  0  0  0  0  0  0
   13.2313  -11.6031  -14.4640 C   0  0  0  0  0  0  0  0  0  0  0  0
   12.5196  -12.6199  -14.3049 O   0  0  0  0  0  0  0  0  0  0  0  0
   17.1693  -10.0523  -12.1030 C   0  0  0  0  0  0  0  0  0  0  0  0
   16.9562  -10.7081  -11.0534 O   0  0  0  0  0  0  0  0  0  0  0  0
   12.6025  -10.3916  -14.7020 O   0  0  0  0  0  0  0  0  0  0  0  0
   17.7162   -8.7625  -12.0917 N   0  0  0  0  0  0  0  0  0  0  0  0
   18.0278   -8.0982  -10.8403 C   0  0  1  0  0  0  0  0  0  0  0  0
   19.3634   -7.4444  -11.0588 C   0  0  0  0  0  0  0  0  0  0  0  0
   19.4094   -6.4310  -12.1693 C   0  0  0  0  0  0  0  0  0  0  0  0
   20.7899   -5.8253  -12.1492 C   0  0  0  0  0  0  0  0  0  0  0  0
   21.6373   -6.2236  -11.3268 O   0  0  0  0  0  0  0  0  0  0  0  0
   16.9361   -7.1878  -10.4646 C   0  0  0  0  0  0  0  0  0  0  0  0
   16.2126   -6.5845  -11.3299 O   0  0  0  0  0  0  0  0  0  0  0  0
   21.1229   -4.8285  -13.0383 O   0  0  0  0  0  0  0  0  0  0  0  0
   13.8185   -5.5707   -7.1273 O   0  0  0  0  0  0  0  0  0  0  0  0
   14.8913   -6.4273   -7.4302 C   0  0  0  0  0  0  0  0  0  0  0  0
   15.4543   -6.0443   -8.7874 C   0  0  2  0  0  0  0  0  0  0  0  0
   16.5927   -6.9090   -9.1087 N   0  0  0  0  0  0  0  0  0  0  0  0
   15.9148   -4.6478   -8.7375 C   0  0  0  0  0  0  0  0  0  0  0  0
   15.0690   -3.5589   -8.7613 O   0  0  0  0  0  0  0  0  0  0  0  0
   17.1465   -4.3967   -8.6686 O   0  0  0  0  0  0  0  0  0  0  0  0
  2  1  1  1
  3  2  1  0
  4  5  1  0
  4  3  1  0
  5  6  2  0
  7  2  1  0
  7 10  1  0
  8  7  2  0
  9  5  1  0
 10 11  1  0
 11 12  1  6
 13 14  1  0
 13 12  1  0
 14 15  2  0
 16 22  1  0
 16 11  1  0
 17 16  2  0
 18 14  1  0
 19 20  1  0
 21 20  1  1
 21 22  1  0
 23 21  1  0
 23 24  1  0
 25 23  2  0
M  END
$$$$
