EES.pdb
     RDKit          3D

 25 24  0  0  1  0  0  0  0  0999 V2000
   13.7167  -10.4498  -10.9216 N   0  0  0  0  0  0  0  0  0  0  0  0
   15.1447  -10.4783  -10.7485 C   0  0  1  0  0  0  0  0  0  0  0  0
   15.7529  -11.3272  -11.8146 C   0  0  0  0  0  0  0  0  0  0  0  0
   15.5038  -12.8028  -11.6856 C   0  0  0  0  0  0  0  0  0  0  0  0
   16.2837  -13.6166  -12.6089 C   0  0  0  0  0  0  0  0  0  0  0  0
   16.2609  -14.8660  -12.5430 O   0  0  0  0  0  0  0  0  0  0  0  0
   15.6590   -9.0787  -11.0242 C   0  0  0  0  0  0  0  0  0  0  0  0
   15.0910   -8.4373  -11.9424 O   0  0  0  0  0  0  0  0  0  0  0  0
   17.0728  -13.0242  -13.5816 O   0  0  0  0  0  0  0  0  0  0  0  0
   16.7188   -8.5505  -10.2754 N   0  0  0  0  0  0  0  0  0  0  0  0
   17.2114   -7.2096  -10.5280 C   0  0  1  0  0  0  0  0  0  0  0  0
   16.8345   -6.4116   -9.3114 C   0  0  0  0  0  0  0  0  0  0  0  0
   15.3827   -6.0299   -9.2170 C   0  0  0  0  0  0  0  0  0  0  0  0
   15.2326   -5.1931   -7.9718 C   0  0  0  0  0  0  0  0  0  0  0  0
   16.2255   -4.9413   -7.2622 O   0  0  0  0  0  0  0  0  0  0  0  0
   18.6489   -7.2476  -10.8344 C   0  0  0  0  0  0  0  0  0  0  0  0
   19.4298   -8.1474  -10.3691 O   0  0  0  0  0  0  0  0  0  0  0  0
   13.9980   -4.7024   -7.6108 O   0  0  0  0  0  0  0  0  0  0  0  0
   19.8938   -7.5908  -14.0876 O   0  0  0  0  0  0  0  0  0  0  0  0
   20.7483   -7.7414  -12.9816 C   0  0  0  0  0  0  0  0  0  0  0  0
   20.6666   -6.4890  -12.1267 C   0  0  2  0  0  0  0  0  0  0  0  0
   19.2860   -6.2900  -11.6778 N   0  0  0  0  0  0  0  0  0  0  0  0
   21.0774   -5.3304  -12.9352 C   0  0  0  0  0  0  0  0  0  0  0  0
   22.3785   -5.0859  -13.3213 O   0  0  0  0  0  0  0  0  0  0  0  0
   20.2161   -4.4939  -13.3134 O   0  0  0  0  0  0  0  0  0  0  0  0
  2  1  1  6
  3  2  1  0
  4  5  1  0
  4  3  1  0
  5  6  2  0
  7  2  1  0
  7 10  1  0
  8  7  2  0
  9  5  1  0
 10 11  1  0
 11 12  1  1
 13 14  1  0
 13 12  1  0
 14 15  2  0
 16 22  1  0
 16 11  1  0
 17 16  2  0
 18 14  1  0
 19 20  1  0
 21 20  1  6
 21 22  1  0
 23 21  1  0
 23 24  1  0
 25 23  2  0
M  END
$$$$
