EES.pdb
     RDKit          3D

 25 24  0  0  1  0  0  0  0  0999 V2000
   19.5603  -13.9548  -17.3164 N   0  0  0  0  0  0  0  0  0  0  0  0
   19.0532  -12.7096  -17.8285 C   0  0  1  0  0  0  0  0  0  0  0  0
   17.7300  -12.4218  -17.2013 C   0  0  0  0  0  0  0  0  0  0  0  0
   17.6627  -12.6237  -15.7143 C   0  0  0  0  0  0  0  0  0  0  0  0
   16.3220  -12.4895  -15.1599 C   0  0  0  0  0  0  0  0  0  0  0  0
   15.4036  -13.2682  -15.5003 O   0  0  0  0  0  0  0  0  0  0  0  0
   19.9695  -11.6106  -17.3266 C   0  0  0  0  0  0  0  0  0  0  0  0
   20.3476  -11.6902  -16.1316 O   0  0  0  0  0  0  0  0  0  0  0  0
   16.0317  -11.4920  -14.2430 O   0  0  0  0  0  0  0  0  0  0  0  0
   20.3604  -10.5676  -18.1763 N   0  0  0  0  0  0  0  0  0  0  0  0
   21.2814   -9.5434  -17.7209 C   0  0  1  0  0  0  0  0  0  0  0  0
   21.8049   -8.8946  -18.9715 C   0  0  0  0  0  0  0  0  0  0  0  0
   22.8173   -7.8036  -18.7547 C   0  0  0  0  0  0  0  0  0  0  0  0
   23.1606   -7.2515  -20.1150 C   0  0  0  0  0  0  0  0  0  0  0  0
   23.0709   -6.0284  -20.3360 O   0  0  0  0  0  0  0  0  0  0  0  0
   20.6069   -8.6387  -16.7783 C   0  0  0  0  0  0  0  0  0  0  0  0
   19.3875   -8.2795  -16.9198 O   0  0  0  0  0  0  0  0  0  0  0  0
   23.5747   -8.0947  -21.1214 O   0  0  0  0  0  0  0  0  0  0  0  0
   20.0968   -8.7955  -13.0047 O   0  0  0  0  0  0  0  0  0  0  0  0
   20.8094   -7.6156  -13.2811 C   0  0  0  0  0  0  0  0  0  0  0  0
   20.5344   -7.2035  -14.7165 C   0  0  2  0  0  0  0  0  0  0  0  0
   21.2545   -8.0946  -15.6299 N   0  0  0  0  0  0  0  0  0  0  0  0
   21.0112   -5.8263  -14.9185 C   0  0  0  0  0  0  0  0  0  0  0  0
   20.5174   -4.7347  -14.2357 O   0  0  0  0  0  0  0  0  0  0  0  0
   21.9223   -5.5957  -15.7559 O   0  0  0  0  0  0  0  0  0  0  0  0
  2  1  1  1
  3  2  1  0
  4  5  1  0
  4  3  1  0
  5  6  2  0
  7  2  1  0
  7 10  1  0
  8  7  2  0
  9  5  1  0
 10 11  1  0
 11 12  1  6
 13 14  1  0
 13 12  1  0
 14 15  2  0
 16 22  1  0
 16 11  1  0
 17 16  2  0
 18 14  1  0
 19 20  1  0
 21 20  1  1
 21 22  1  0
 23 21  1  0
 23 24  1  0
 25 23  2  0
M  END
$$$$
