EES.pdb
     RDKit          3D

 25 24  0  0  1  0  0  0  0  0999 V2000
   21.9979  -12.5493  -18.6029 N   0  0  0  0  0  0  0  0  0  0  0  0
   22.8377  -11.4210  -18.3005 C   0  0  1  0  0  0  0  0  0  0  0  0
   23.5007  -10.9513  -19.5523 C   0  0  0  0  0  0  0  0  0  0  0  0
   24.6142  -11.8228  -20.0592 C   0  0  0  0  0  0  0  0  0  0  0  0
   24.1604  -13.0633  -20.6743 C   0  0  0  0  0  0  0  0  0  0  0  0
   24.8798  -14.0870  -20.6656 O   0  0  0  0  0  0  0  0  0  0  0  0
   21.9272  -10.2800  -17.8902 C   0  0  0  0  0  0  0  0  0  0  0  0
   21.1671   -9.8155  -18.7756 O   0  0  0  0  0  0  0  0  0  0  0  0
   22.9200  -13.1370  -21.2872 O   0  0  0  0  0  0  0  0  0  0  0  0
   21.9526   -9.7862  -16.5794 N   0  0  0  0  0  0  0  0  0  0  0  0
   21.0791   -8.7001  -16.1772 C   0  0  1  0  0  0  0  0  0  0  0  0
   20.0290   -9.3348  -15.3091 C   0  0  0  0  0  0  0  0  0  0  0  0
   18.9529  -10.0845  -16.0454 C   0  0  0  0  0  0  0  0  0  0  0  0
   17.9242  -10.4889  -15.0199 C   0  0  0  0  0  0  0  0  0  0  0  0
   18.0769  -10.1785  -13.8228 O   0  0  0  0  0  0  0  0  0  0  0  0
   21.8610   -7.6314  -15.5383 C   0  0  0  0  0  0  0  0  0  0  0  0
   22.9138   -7.8642  -14.8502 O   0  0  0  0  0  0  0  0  0  0  0  0
   16.8106  -11.2038  -15.3992 O   0  0  0  0  0  0  0  0  0  0  0  0
   20.6234   -3.6861  -15.6048 O   0  0  0  0  0  0  0  0  0  0  0  0
   22.0174   -3.8671  -15.5884 C   0  0  0  0  0  0  0  0  0  0  0  0
   22.3269   -5.2250  -14.9832 C   0  0  2  0  0  0  0  0  0  0  0  0
   21.5130   -6.2519  -15.6388 N   0  0  0  0  0  0  0  0  0  0  0  0
   21.9957   -5.1966  -13.5499 C   0  0  0  0  0  0  0  0  0  0  0  0
   22.6137   -4.3702  -12.6351 O   0  0  0  0  0  0  0  0  0  0  0  0
   21.1007   -5.9582  -13.0989 O   0  0  0  0  0  0  0  0  0  0  0  0
  2  1  1  6
  3  2  1  0
  4  5  1  0
  4  3  1  0
  5  6  2  0
  7  2  1  0
  7 10  1  0
  8  7  2  0
  9  5  1  0
 10 11  1  0
 11 12  1  1
 13 14  1  0
 13 12  1  0
 14 15  2  0
 16 22  1  0
 16 11  1  0
 17 16  2  0
 18 14  1  0
 19 20  1  0
 21 20  1  6
 21 22  1  0
 23 21  1  0
 23 24  1  0
 25 23  2  0
M  END
$$$$
