EES.pdb
     RDKit          3D

 25 24  0  0  1  0  0  0  0  0999 V2000
   16.0497  -11.4762  -17.0155 N   0  0  0  0  0  0  0  0  0  0  0  0
   16.6565  -11.1173  -15.7613 C   0  0  1  0  0  0  0  0  0  0  0  0
   17.7997  -12.0366  -15.4868 C   0  0  0  0  0  0  0  0  0  0  0  0
   18.2308  -12.8937  -16.6425 C   0  0  0  0  0  0  0  0  0  0  0  0
   19.3695  -13.7538  -16.3477 C   0  0  0  0  0  0  0  0  0  0  0  0
   19.8684  -13.7910  -15.2008 O   0  0  0  0  0  0  0  0  0  0  0  0
   17.2898   -9.7515  -15.9428 C   0  0  0  0  0  0  0  0  0  0  0  0
   17.9515   -9.5693  -16.9945 O   0  0  0  0  0  0  0  0  0  0  0  0
   19.9293  -14.5498  -17.3340 O   0  0  0  0  0  0  0  0  0  0  0  0
   17.1289   -8.7581  -14.9681 N   0  0  0  0  0  0  0  0  0  0  0  0
   17.7379   -7.4516  -15.1309 C   0  0  1  0  0  0  0  0  0  0  0  0
   16.6395   -6.4635  -14.8550 C   0  0  0  0  0  0  0  0  0  0  0  0
   17.0556   -5.0182  -14.8704 C   0  0  0  0  0  0  0  0  0  0  0  0
   15.8211   -4.2063  -14.5707 C   0  0  0  0  0  0  0  0  0  0  0  0
   15.8501   -2.9640  -14.6635 O   0  0  0  0  0  0  0  0  0  0  0  0
   18.9216   -7.3334  -14.2667 C   0  0  0  0  0  0  0  0  0  0  0  0
   19.1515   -8.1368  -13.2983 O   0  0  0  0  0  0  0  0  0  0  0  0
   14.6546   -4.8319  -14.1923 O   0  0  0  0  0  0  0  0  0  0  0  0
   22.4272   -7.3641  -15.2675 O   0  0  0  0  0  0  0  0  0  0  0  0
   21.9917   -7.4826  -13.9361 C   0  0  0  0  0  0  0  0  0  0  0  0
   21.1103   -6.2920  -13.6025 C   0  0  2  0  0  0  0  0  0  0  0  0
   19.9093   -6.3195  -14.4414 N   0  0  0  0  0  0  0  0  0  0  0  0
   21.8557   -5.0533  -13.8764 C   0  0  0  0  0  0  0  0  0  0  0  0
   22.9105   -4.6061  -13.1089 O   0  0  0  0  0  0  0  0  0  0  0  0
   21.5381   -4.3363  -14.8611 O   0  0  0  0  0  0  0  0  0  0  0  0
  2  1  1  6
  3  2  1  0
  4  5  1  0
  4  3  1  0
  5  6  2  0
  7  2  1  0
  7 10  1  0
  8  7  2  0
  9  5  1  0
 10 11  1  0
 11 12  1  1
 13 14  1  0
 13 12  1  0
 14 15  2  0
 16 22  1  0
 16 11  1  0
 17 16  2  0
 18 14  1  0
 19 20  1  0
 21 20  1  6
 21 22  1  0
 23 21  1  0
 23 24  1  0
 25 23  2  0
M  END
$$$$
