EES.pdb
     RDKit          3D

 25 24  0  0  1  0  0  0  0  0999 V2000
   18.1956  -11.9332  -15.4954 N   0  0  0  0  0  0  0  0  0  0  0  0
   18.3272  -10.7769  -16.3413 C   0  0  1  0  0  0  0  0  0  0  0  0
   17.1404  -10.6881  -17.2417 C   0  0  0  0  0  0  0  0  0  0  0  0
   17.0942  -11.7002  -18.3507 C   0  0  0  0  0  0  0  0  0  0  0  0
   15.9330  -11.5701  -19.2213 C   0  0  0  0  0  0  0  0  0  0  0  0
   15.7361  -12.3775  -20.1568 O   0  0  0  0  0  0  0  0  0  0  0  0
   18.2319   -9.5543  -15.4494 C   0  0  0  0  0  0  0  0  0  0  0  0
   17.3809   -9.5915  -14.5266 O   0  0  0  0  0  0  0  0  0  0  0  0
   15.0197  -10.5451  -19.0347 O   0  0  0  0  0  0  0  0  0  0  0  0
   19.0653   -8.4493  -15.6665 N   0  0  0  0  0  0  0  0  0  0  0  0
   18.9903   -7.2819  -14.8085 C   0  0  1  0  0  0  0  0  0  0  0  0
   20.4163   -6.9328  -14.4863 C   0  0  0  0  0  0  0  0  0  0  0  0
   20.6013   -5.7106  -13.6295 C   0  0  0  0  0  0  0  0  0  0  0  0
   22.0855   -5.4595  -13.5438 C   0  0  0  0  0  0  0  0  0  0  0  0
   22.5496   -4.3398  -13.8332 O   0  0  0  0  0  0  0  0  0  0  0  0
   18.2161   -6.2189  -15.4662 C   0  0  0  0  0  0  0  0  0  0  0  0
   18.4200   -5.8668  -16.6789 O   0  0  0  0  0  0  0  0  0  0  0  0
   22.9372   -6.4653  -13.1460 O   0  0  0  0  0  0  0  0  0  0  0  0
   14.7182   -4.8905  -13.9058 O   0  0  0  0  0  0  0  0  0  0  0  0
   14.9295   -4.6725  -15.2784 C   0  0  0  0  0  0  0  0  0  0  0  0
   16.4150   -4.4670  -15.5176 C   0  0  2  0  0  0  0  0  0  0  0  0
   17.1742   -5.5005  -14.8087 N   0  0  0  0  0  0  0  0  0  0  0  0
   16.8051   -3.1470  -14.9977 C   0  0  0  0  0  0  0  0  0  0  0  0
   17.7638   -2.9576  -14.0247 O   0  0  0  0  0  0  0  0  0  0  0  0
   16.2513   -2.1091  -15.4455 O   0  0  0  0  0  0  0  0  0  0  0  0
  2  1  1  1
  3  2  1  0
  4  5  1  0
  4  3  1  0
  5  6  2  0
  7  2  1  0
  7 10  1  0
  8  7  2  0
  9  5  1  0
 10 11  1  0
 11 12  1  6
 13 14  1  0
 13 12  1  0
 14 15  2  0
 16 22  1  0
 16 11  1  0
 17 16  2  0
 18 14  1  0
 19 20  1  0
 21 20  1  1
 21 22  1  0
 23 21  1  0
 23 24  1  0
 25 23  2  0
M  END
$$$$
