EES.pdb
     RDKit          3D

 25 24  0  0  1  0  0  0  0  0999 V2000
   14.1582  -11.6635  -16.4827 N   0  0  0  0  0  0  0  0  0  0  0  0
   15.0571  -11.4047  -15.3895 C   0  0  1  0  0  0  0  0  0  0  0  0
   15.8639  -12.6298  -15.1152 C   0  0  0  0  0  0  0  0  0  0  0  0
   15.1172  -13.7644  -14.4737 C   0  0  0  0  0  0  0  0  0  0  0  0
   15.9601  -14.8963  -14.1112 C   0  0  0  0  0  0  0  0  0  0  0  0
   16.4983  -15.6058  -14.9902 O   0  0  0  0  0  0  0  0  0  0  0  0
   16.0623  -10.3753  -15.8682 C   0  0  0  0  0  0  0  0  0  0  0  0
   16.4351  -10.4613  -17.0644 O   0  0  0  0  0  0  0  0  0  0  0  0
   16.1829  -15.2158  -12.7815 O   0  0  0  0  0  0  0  0  0  0  0  0
   16.5366   -9.3860  -14.9968 N   0  0  0  0  0  0  0  0  0  0  0  0
   17.3681   -8.3022  -15.4849 C   0  0  1  0  0  0  0  0  0  0  0  0
   16.5577   -7.0538  -15.2755 C   0  0  0  0  0  0  0  0  0  0  0  0
   17.2611   -5.7669  -15.6093 C   0  0  0  0  0  0  0  0  0  0  0  0
   16.3212   -4.6479  -15.2382 C   0  0  0  0  0  0  0  0  0  0  0  0
   15.9266   -3.8465  -16.1070 O   0  0  0  0  0  0  0  0  0  0  0  0
   18.6749   -8.3237  -14.8115 C   0  0  0  0  0  0  0  0  0  0  0  0
   18.7943   -8.3534  -13.5383 O   0  0  0  0  0  0  0  0  0  0  0  0
   15.8936   -4.5040  -13.9375 O   0  0  0  0  0  0  0  0  0  0  0  0
   22.3542   -9.9352  -16.0189 O   0  0  0  0  0  0  0  0  0  0  0  0
   22.3266   -8.5533  -15.7622 C   0  0  0  0  0  0  0  0  0  0  0  0
   21.1872   -8.2570  -14.8032 C   0  0  2  0  0  0  0  0  0  0  0  0
   19.9118   -8.3190  -15.5217 N   0  0  0  0  0  0  0  0  0  0  0  0
   21.3619   -6.9021  -14.2568 C   0  0  0  0  0  0  0  0  0  0  0  0
   22.0545   -6.6252  -13.0969 O   0  0  0  0  0  0  0  0  0  0  0  0
   20.8630   -5.9153  -14.8584 O   0  0  0  0  0  0  0  0  0  0  0  0
  2  1  1  6
  3  2  1  0
  4  5  1  0
  4  3  1  0
  5  6  2  0
  7  2  1  0
  7 10  1  0
  8  7  2  0
  9  5  1  0
 10 11  1  0
 11 12  1  1
 13 14  1  0
 13 12  1  0
 14 15  2  0
 16 22  1  0
 16 11  1  0
 17 16  2  0
 18 14  1  0
 19 20  1  0
 21 20  1  6
 21 22  1  0
 23 21  1  0
 23 24  1  0
 25 23  2  0
M  END
$$$$
