EES.pdb
     RDKit          3D

 25 24  0  0  1  0  0  0  0  0999 V2000
   20.2779  -12.2783  -16.6307 N   0  0  0  0  0  0  0  0  0  0  0  0
   19.5422  -11.0420  -16.6383 C   0  0  1  0  0  0  0  0  0  0  0  0
   18.2397  -11.2400  -15.9373 C   0  0  0  0  0  0  0  0  0  0  0  0
   17.2301  -12.0732  -16.6740 C   0  0  0  0  0  0  0  0  0  0  0  0
   15.9631  -12.2252  -15.9706 C   0  0  0  0  0  0  0  0  0  0  0  0
   14.9521  -11.5746  -16.3174 O   0  0  0  0  0  0  0  0  0  0  0  0
   20.3055  -10.0592  -15.7717 C   0  0  0  0  0  0  0  0  0  0  0  0
   20.4410  -10.3594  -14.5597 O   0  0  0  0  0  0  0  0  0  0  0  0
   15.8493  -13.0934  -14.8968 O   0  0  0  0  0  0  0  0  0  0  0  0
   20.8244   -8.8800  -16.3220 N   0  0  0  0  0  0  0  0  0  0  0  0
   21.5484   -7.9309  -15.4978 C   0  0  1  0  0  0  0  0  0  0  0  0
   23.0000   -8.1512  -15.8191 C   0  0  0  0  0  0  0  0  0  0  0  0
   23.6609   -7.0476  -16.5985 C   0  0  0  0  0  0  0  0  0  0  0  0
   25.0833   -7.4813  -16.8469 C   0  0  0  0  0  0  0  0  0  0  0  0
   25.9659   -7.2522  -15.9975 O   0  0  0  0  0  0  0  0  0  0  0  0
   21.0510   -6.5684  -15.7384 C   0  0  0  0  0  0  0  0  0  0  0  0
   20.7233   -6.1493  -16.9016 O   0  0  0  0  0  0  0  0  0  0  0  0
   25.4163   -8.1323  -18.0133 O   0  0  0  0  0  0  0  0  0  0  0  0
   18.9155   -3.1181  -13.5808 O   0  0  0  0  0  0  0  0  0  0  0  0
   19.0013   -4.0670  -14.6144 C   0  0  0  0  0  0  0  0  0  0  0  0
   20.4601   -4.2403  -14.9989 C   0  0  2  0  0  0  0  0  0  0  0  0
   20.8886   -5.6084  -14.6962 N   0  0  0  0  0  0  0  0  0  0  0  0
   21.2763   -3.3000  -14.2151 C   0  0  0  0  0  0  0  0  0  0  0  0
   21.1799   -1.9282  -14.3186 O   0  0  0  0  0  0  0  0  0  0  0  0
   22.1217   -3.7398  -13.3926 O   0  0  0  0  0  0  0  0  0  0  0  0
  2  1  1  1
  3  2  1  0
  4  5  1  0
  4  3  1  0
  5  6  2  0
  7  2  1  0
  7 10  1  0
  8  7  2  0
  9  5  1  0
 10 11  1  0
 11 12  1  6
 13 14  1  0
 13 12  1  0
 14 15  2  0
 16 22  1  0
 16 11  1  0
 17 16  2  0
 18 14  1  0
 19 20  1  0
 21 20  1  1
 21 22  1  0
 23 21  1  0
 23 24  1  0
 25 23  2  0
M  END
$$$$
