EES.pdb
     RDKit          3D

 25 24  0  0  1  0  0  0  0  0999 V2000
   15.8730   -9.7764  -17.9152 N   0  0  0  0  0  0  0  0  0  0  0  0
   15.9597   -9.3060  -16.5583 C   0  0  1  0  0  0  0  0  0  0  0  0
   16.5376  -10.3817  -15.7004 C   0  0  0  0  0  0  0  0  0  0  0  0
   15.6192  -11.5321  -15.4011 C   0  0  0  0  0  0  0  0  0  0  0  0
   16.1338  -12.4528  -14.3958 C   0  0  0  0  0  0  0  0  0  0  0  0
   16.5668  -13.5816  -14.7181 O   0  0  0  0  0  0  0  0  0  0  0  0
   16.9889   -8.1927  -16.5333 C   0  0  0  0  0  0  0  0  0  0  0  0
   18.0145   -8.3536  -17.2401 O   0  0  0  0  0  0  0  0  0  0  0  0
   16.1524  -12.0998  -13.0561 O   0  0  0  0  0  0  0  0  0  0  0  0
   16.7810   -7.0498  -15.7503 N   0  0  0  0  0  0  0  0  0  0  0  0
   17.6824   -5.9164  -15.8356 C   0  0  1  0  0  0  0  0  0  0  0  0
   16.8711   -4.7290  -15.3985 C   0  0  0  0  0  0  0  0  0  0  0  0
   17.6453   -3.4523  -15.2180 C   0  0  0  0  0  0  0  0  0  0  0  0
   16.6471   -2.3873  -14.8403 C   0  0  0  0  0  0  0  0  0  0  0  0
   15.6476   -2.1830  -15.5559 O   0  0  0  0  0  0  0  0  0  0  0  0
   18.8957   -6.1737  -15.0460 C   0  0  0  0  0  0  0  0  0  0  0  0
   18.8593   -6.6694  -13.8674 O   0  0  0  0  0  0  0  0  0  0  0  0
   16.8337   -1.6337  -13.7034 O   0  0  0  0  0  0  0  0  0  0  0  0
   23.6313   -7.0676  -14.9609 O   0  0  0  0  0  0  0  0  0  0  0  0
   22.4942   -6.7255  -15.7133 C   0  0  0  0  0  0  0  0  0  0  0  0
   21.3899   -6.2975  -14.7630 C   0  0  2  0  0  0  0  0  0  0  0  0
   20.2081   -5.8977  -15.5314 N   0  0  0  0  0  0  0  0  0  0  0  0
   21.8574   -5.1473  -13.9734 C   0  0  0  0  0  0  0  0  0  0  0  0
   22.4780   -5.2591  -12.7470 O   0  0  0  0  0  0  0  0  0  0  0  0
   21.6973   -3.9790  -14.4138 O   0  0  0  0  0  0  0  0  0  0  0  0
  2  1  1  6
  3  2  1  0
  4  5  1  0
  4  3  1  0
  5  6  2  0
  7  2  1  0
  7 10  1  0
  8  7  2  0
  9  5  1  0
 10 11  1  0
 11 12  1  1
 13 14  1  0
 13 12  1  0
 14 15  2  0
 16 22  1  0
 16 11  1  0
 17 16  2  0
 18 14  1  0
 19 20  1  0
 21 20  1  6
 21 22  1  0
 23 21  1  0
 23 24  1  0
 25 23  2  0
M  END
$$$$
