FMV.pdb
     RDKit          3D

 27 27  0  0  1  0  0  0  0  0999 V2000
   28.4349  -21.3167  -16.7458 N   0  0  0  0  0  0  0  0  0  0  0  0
   27.8512  -20.3201  -15.8887 C   0  0  1  0  0  0  0  0  0  0  0  0
   27.0945  -19.3401  -16.7595 C   0  0  0  0  0  0  0  0  0  0  0  0
   27.9950  -18.4168  -17.4697 C   0  0  0  0  0  0  0  0  0  0  0  0
   28.2703  -18.6342  -18.7894 C   0  0  0  0  0  0  0  0  0  0  0  0
   29.1253  -17.7507  -19.4459 C   0  0  0  0  0  0  0  0  0  0  0  0
   29.7035  -16.6685  -18.8193 C   0  0  0  0  0  0  0  0  0  0  0  0
   29.3965  -16.4873  -17.4829 C   0  0  0  0  0  0  0  0  0  0  0  0
   28.5467  -17.3562  -16.8103 C   0  0  0  0  0  0  0  0  0  0  0  0
   26.8642  -20.9265  -14.9536 C   0  0  0  0  0  0  0  0  0  0  0  0
   26.2640  -21.9911  -15.3299 O   0  0  0  0  0  0  0  0  0  0  0  0
   24.5887  -21.3628   -7.4195 C   0  0  0  0  0  0  0  0  0  0  0  0
   25.6804  -20.5587   -8.6394 S   0  0  0  0  0  0  0  0  0  0  0  0
   25.0862  -21.0658  -10.2989 C   0  0  0  0  0  0  0  0  0  0  0  0
   26.0255  -20.5600  -11.3528 C   0  0  0  0  0  0  0  0  0  0  0  0
   25.6605  -20.9258  -12.7627 C   0  0  2  0  0  0  0  0  0  0  0  0
   26.6103  -20.3367  -13.7002 N   0  0  0  0  0  0  0  0  0  0  0  0
   24.2876  -20.5096  -13.0607 C   0  0  0  0  0  0  0  0  0  0  0  0
   24.0408  -19.2981  -13.2670 O   0  0  0  0  0  0  0  0  0  0  0  0
   19.9897  -21.3724  -15.0299 C   0  0  0  0  0  0  0  0  0  0  0  0
   21.3578  -21.8766  -14.6450 C   0  0  1  0  0  0  0  0  0  0  0  0
   22.2737  -21.6650  -15.8482 C   0  0  0  0  0  0  0  0  0  0  0  0
   21.9257  -21.0358  -13.5146 C   0  0  2  0  0  0  0  0  0  0  0  0
   23.2308  -21.4879  -13.1157 N   0  0  0  0  0  0  0  0  0  0  0  0
   21.0420  -21.0900  -12.3154 C   0  0  0  0  0  0  0  0  0  0  0  0
   20.2551  -19.9969  -12.0109 O   0  0  0  0  0  0  0  0  0  0  0  0
   20.9914  -22.1047  -11.5701 O   0  0  0  0  0  0  0  0  0  0  0  0
  2  1  1  6
  2  3  1  0
  4  3  1  0
  5  4  2  0
  6  5  1  0
  7  6  2  0
  7  8  1  0
  8  9  2  0
  9  4  1  0
 10 17  1  0
 10  2  1  0
 11 10  2  0
 13 12  1  0
 14 13  1  0
 15 14  1  0
 16 15  1  1
 16 17  1  0
 18 19  2  0
 18 16  1  0
 21 20  1  6
 21 22  1  0
 23 21  1  0
 23 24  1  1
 24 18  1  0
 25 23  1  0
 26 25  1  0
 27 25  2  0
M  END
$$$$
