FMV.pdb
     RDKit          3D

 27 27  0  0  1  0  0  0  0  0999 V2000
   27.3833  -22.2543  -10.5128 N   0  0  0  0  0  0  0  0  0  0  0  0
   26.4708  -21.2828   -9.9722 C   0  0  1  0  0  0  0  0  0  0  0  0
   27.2143  -19.9720   -9.8296 C   0  0  0  0  0  0  0  0  0  0  0  0
   27.8288  -19.8229   -8.4999 C   0  0  0  0  0  0  0  0  0  0  0  0
   28.9479  -20.5438   -8.1959 C   0  0  0  0  0  0  0  0  0  0  0  0
   29.5159  -20.3909   -6.9323 C   0  0  0  0  0  0  0  0  0  0  0  0
   28.9957  -19.5435   -5.9786 C   0  0  0  0  0  0  0  0  0  0  0  0
   27.8620  -18.8336   -6.3303 C   0  0  0  0  0  0  0  0  0  0  0  0
   27.2804  -18.9716   -7.5842 C   0  0  0  0  0  0  0  0  0  0  0  0
   25.3318  -21.0406  -10.8998 C   0  0  0  0  0  0  0  0  0  0  0  0
   25.5249  -21.2491  -12.1465 O   0  0  0  0  0  0  0  0  0  0  0  0
   19.0095  -22.2774   -9.0965 C   0  0  0  0  0  0  0  0  0  0  0  0
   20.4153  -22.2325   -7.9353 S   0  0  0  0  0  0  0  0  0  0  0  0
   21.9369  -22.0886   -8.9492 C   0  0  0  0  0  0  0  0  0  0  0  0
   21.7361  -21.0656  -10.0270 C   0  0  0  0  0  0  0  0  0  0  0  0
   22.8368  -20.9858  -11.0452 C   0  0  2  0  0  0  0  0  0  0  0  0
   24.0895  -20.5970  -10.4066 N   0  0  0  0  0  0  0  0  0  0  0  0
   22.4743  -20.0579  -12.1196 C   0  0  0  0  0  0  0  0  0  0  0  0
   22.5620  -18.8228  -11.9244 O   0  0  0  0  0  0  0  0  0  0  0  0
   22.0599  -19.0376  -16.8329 C   0  0  0  0  0  0  0  0  0  0  0  0
   22.3436  -20.0652  -15.7664 C   0  0  1  0  0  0  0  0  0  0  0  0
   23.8588  -20.1279  -15.5892 C   0  0  0  0  0  0  0  0  0  0  0  0
   21.7699  -19.6095  -14.4357 C   0  0  2  0  0  0  0  0  0  0  0  0
   22.0206  -20.5640  -13.3904 N   0  0  0  0  0  0  0  0  0  0  0  0
   20.2946  -19.4186  -14.5298 C   0  0  0  0  0  0  0  0  0  0  0  0
   19.7942  -18.1513  -14.7545 O   0  0  0  0  0  0  0  0  0  0  0  0
   19.4892  -20.3802  -14.4102 O   0  0  0  0  0  0  0  0  0  0  0  0
  2  1  1  6
  2  3  1  0
  4  3  1  0
  5  4  2  0
  6  5  1  0
  7  6  2  0
  7  8  1  0
  8  9  2  0
  9  4  1  0
 10 17  1  0
 10  2  1  0
 11 10  2  0
 13 12  1  0
 14 13  1  0
 15 14  1  0
 16 15  1  1
 16 17  1  0
 18 19  2  0
 18 16  1  0
 21 20  1  6
 21 22  1  0
 23 21  1  0
 23 24  1  1
 24 18  1  0
 25 23  1  0
 26 25  1  0
 27 25  2  0
M  END
$$$$
