FMV.pdb
     RDKit          3D

 27 27  0  0  1  0  0  0  0  0999 V2000
   25.4006  -19.0508  -18.2334 N   0  0  0  0  0  0  0  0  0  0  0  0
   26.0473  -19.3940  -16.9954 C   0  0  1  0  0  0  0  0  0  0  0  0
   26.4484  -18.1077  -16.3056 C   0  0  0  0  0  0  0  0  0  0  0  0
   27.5161  -17.3979  -17.0295 C   0  0  0  0  0  0  0  0  0  0  0  0
   28.7662  -17.9446  -17.0817 C   0  0  0  0  0  0  0  0  0  0  0  0
   29.7650  -17.2588  -17.7707 C   0  0  0  0  0  0  0  0  0  0  0  0
   29.5435  -16.0536  -18.4005 C   0  0  0  0  0  0  0  0  0  0  0  0
   28.2626  -15.5377  -18.3216 C   0  0  0  0  0  0  0  0  0  0  0  0
   27.2531  -16.2053  -17.6399 C   0  0  0  0  0  0  0  0  0  0  0  0
   25.1140  -20.1077  -16.0811 C   0  0  0  0  0  0  0  0  0  0  0  0
   23.9144  -20.2948  -16.4826 O   0  0  0  0  0  0  0  0  0  0  0  0
   24.0750  -24.8748  -16.5817 C   0  0  0  0  0  0  0  0  0  0  0  0
   23.2693  -25.1622  -14.9708 S   0  0  0  0  0  0  0  0  0  0  0  0
   23.4984  -23.6342  -13.9826 C   0  0  0  0  0  0  0  0  0  0  0  0
   24.4944  -22.7372  -14.6550 C   0  0  0  0  0  0  0  0  0  0  0  0
   24.7137  -21.4110  -13.9858 C   0  0  2  0  0  0  0  0  0  0  0  0
   25.5514  -20.5559  -14.8197 N   0  0  0  0  0  0  0  0  0  0  0  0
   25.2991  -21.5990  -12.6559 C   0  0  0  0  0  0  0  0  0  0  0  0
   26.5217  -21.8548  -12.5501 O   0  0  0  0  0  0  0  0  0  0  0  0
   27.0094  -20.3520  -11.2939 C   0  0  0  0  0  0  0  0  0  0  0  0
   26.1629  -20.4425  -10.0492 C   0  0  1  0  0  0  0  0  0  0  0  0
   25.3907  -19.1307   -9.9300 C   0  0  0  0  0  0  0  0  0  0  0  0
   25.1270  -21.5432  -10.2005 C   0  0  2  0  0  0  0  0  0  0  0  0
   24.4734  -21.4901  -11.4798 N   0  0  0  0  0  0  0  0  0  0  0  0
   24.0753  -21.4321   -9.1501 C   0  0  0  0  0  0  0  0  0  0  0  0
   24.4272  -21.6065   -7.8262 O   0  0  0  0  0  0  0  0  0  0  0  0
   22.8732  -21.1835   -9.4343 O   0  0  0  0  0  0  0  0  0  0  0  0
  2  1  1  6
  2  3  1  0
  4  3  1  0
  5  4  2  0
  6  5  1  0
  7  6  2  0
  7  8  1  0
  8  9  2  0
  9  4  1  0
 10 17  1  0
 10  2  1  0
 11 10  2  0
 13 12  1  0
 14 13  1  0
 15 14  1  0
 16 15  1  6
 16 17  1  0
 18 19  2  0
 18 16  1  0
 21 20  1  6
 21 22  1  0
 23 21  1  0
 23 24  1  6
 24 18  1  0
 25 23  1  0
 26 25  1  0
 27 25  2  0
M  END
$$$$
