FMV.pdb
     RDKit          3D

 27 27  0  0  1  0  0  0  0  0999 V2000
   27.3213  -20.2847  -10.8273 N   0  0  0  0  0  0  0  0  0  0  0  0
   26.0840  -20.7786  -10.2852 C   0  0  1  0  0  0  0  0  0  0  0  0
   25.8622  -20.1120   -8.9444 C   0  0  0  0  0  0  0  0  0  0  0  0
   27.0594  -20.1705   -8.0894 C   0  0  0  0  0  0  0  0  0  0  0  0
   27.4355  -19.0605   -7.3887 C   0  0  0  0  0  0  0  0  0  0  0  0
   28.5718  -19.1335   -6.5848 C   0  0  0  0  0  0  0  0  0  0  0  0
   29.3302  -20.2778   -6.4679 C   0  0  0  0  0  0  0  0  0  0  0  0
   28.9118  -21.3773   -7.1954 C   0  0  0  0  0  0  0  0  0  0  0  0
   27.7824  -21.3254   -8.0024 C   0  0  0  0  0  0  0  0  0  0  0  0
   24.9318  -20.4097  -11.1527 C   0  0  0  0  0  0  0  0  0  0  0  0
   24.7044  -19.1658  -11.3432 O   0  0  0  0  0  0  0  0  0  0  0  0
   24.8186  -20.5528  -16.5422 C   0  0  0  0  0  0  0  0  0  0  0  0
   23.0013  -20.5864  -16.6952 S   0  0  0  0  0  0  0  0  0  0  0  0
   22.3260  -20.6373  -14.9907 C   0  0  0  0  0  0  0  0  0  0  0  0
   23.4143  -20.9917  -14.0218 C   0  0  0  0  0  0  0  0  0  0  0  0
   22.9898  -21.0663  -12.5835 C   0  0  2  0  0  0  0  0  0  0  0  0
   24.1281  -21.4076  -11.7371 N   0  0  0  0  0  0  0  0  0  0  0  0
   21.8962  -22.0278  -12.4214 C   0  0  0  0  0  0  0  0  0  0  0  0
   22.1368  -23.2555  -12.5007 O   0  0  0  0  0  0  0  0  0  0  0  0
   18.7978  -21.4364   -9.8666 C   0  0  0  0  0  0  0  0  0  0  0  0
   18.3491  -21.9871  -11.1967 C   0  0  1  0  0  0  0  0  0  0  0  0
   17.8267  -20.8125  -12.0205 C   0  0  0  0  0  0  0  0  0  0  0  0
   19.5368  -22.5544  -11.9551 C   0  0  2  0  0  0  0  0  0  0  0  0
   20.5550  -21.5630  -12.1728 N   0  0  0  0  0  0  0  0  0  0  0  0
   19.1182  -23.0734  -13.2882 C   0  0  0  0  0  0  0  0  0  0  0  0
   19.1919  -22.2400  -14.3868 O   0  0  0  0  0  0  0  0  0  0  0  0
   18.6985  -24.2513  -13.4429 O   0  0  0  0  0  0  0  0  0  0  0  0
  2  1  1  6
  2  3  1  0
  4  3  1  0
  5  4  2  0
  6  5  1  0
  7  6  2  0
  7  8  1  0
  8  9  2  0
  9  4  1  0
 10 17  1  0
 10  2  1  0
 11 10  2  0
 13 12  1  0
 14 13  1  0
 15 14  1  0
 16 15  1  6
 16 17  1  0
 18 19  2  0
 18 16  1  0
 21 20  1  1
 21 22  1  0
 23 21  1  0
 23 24  1  6
 24 18  1  0
 25 23  1  0
 26 25  1  0
 27 25  2  0
M  END
$$$$
