FMV.pdb
     RDKit          3D

 27 27  0  0  1  0  0  0  0  0999 V2000
   14.0695  -16.4196    5.0491 N   0  0  0  0  0  0  0  0  0  0  0  0
   15.4687  -16.0886    5.0133 C   0  0  1  0  0  0  0  0  0  0  0  0
   15.6992  -15.1593    3.8410 C   0  0  0  0  0  0  0  0  0  0  0  0
   16.7881  -15.6261    2.9668 C   0  0  0  0  0  0  0  0  0  0  0  0
   16.6802  -16.8423    2.3556 C   0  0  0  0  0  0  0  0  0  0  0  0
   17.7207  -17.2688    1.5321 C   0  0  0  0  0  0  0  0  0  0  0  0
   18.8522  -16.5149    1.3095 C   0  0  0  0  0  0  0  0  0  0  0  0
   18.9184  -15.2902    1.9488 C   0  0  0  0  0  0  0  0  0  0  0  0
   17.8924  -14.8468    2.7736 C   0  0  0  0  0  0  0  0  0  0  0  0
   15.8788  -15.3535    6.2411 C   0  0  0  0  0  0  0  0  0  0  0  0
   15.0357  -14.5438    6.7596 O   0  0  0  0  0  0  0  0  0  0  0  0
   16.3878  -18.2901   10.7815 C   0  0  0  0  0  0  0  0  0  0  0  0
   16.3717  -16.5751   11.4022 S   0  0  0  0  0  0  0  0  0  0  0  0
   16.2923  -15.4797    9.9333 C   0  0  0  0  0  0  0  0  0  0  0  0
   17.5943  -15.5279    9.1909 C   0  0  0  0  0  0  0  0  0  0  0  0
   17.6314  -14.7383    7.9143 C   0  0  2  0  0  0  0  0  0  0  0  0
   17.1553  -15.5530    6.8016 N   0  0  0  0  0  0  0  0  0  0  0  0
   18.9832  -14.2310    7.6649 C   0  0  0  0  0  0  0  0  0  0  0  0
   19.6898  -14.7665    6.7788 O   0  0  0  0  0  0  0  0  0  0  0  0
   19.8847  -11.7460    5.9122 C   0  0  0  0  0  0  0  0  0  0  0  0
   20.6515  -11.3830    7.1589 C   0  0  1  0  0  0  0  0  0  0  0  0
   19.8181  -10.3548    7.9202 C   0  0  0  0  0  0  0  0  0  0  0  0
   20.7789  -12.5950    8.0656 C   0  0  2  0  0  0  0  0  0  0  0  0
   19.4941  -13.1245    8.4340 N   0  0  0  0  0  0  0  0  0  0  0  0
   21.5015  -12.2461    9.3218 C   0  0  0  0  0  0  0  0  0  0  0  0
   22.8522  -11.9648    9.2637 O   0  0  0  0  0  0  0  0  0  0  0  0
   20.9160  -12.2000   10.4366 O   0  0  0  0  0  0  0  0  0  0  0  0
  2  1  1  1
  2  3  1  0
  4  3  1  0
  5  4  2  0
  6  5  1  0
  7  6  2  0
  7  8  1  0
  8  9  2  0
  9  4  1  0
 10 17  1  0
 10  2  1  0
 11 10  2  0
 13 12  1  0
 14 13  1  0
 15 14  1  0
 16 15  1  1
 16 17  1  0
 18 19  2  0
 18 16  1  0
 21 20  1  6
 21 22  1  0
 23 21  1  0
 23 24  1  1
 24 18  1  0
 25 23  1  0
 26 25  1  0
 27 25  2  0
M  END
$$$$
