FMV.pdb
     RDKit          3D

 27 27  0  0  1  0  0  0  0  0999 V2000
   24.2004  -19.7371   -8.1190 N   0  0  0  0  0  0  0  0  0  0  0  0
   25.6337  -19.8382   -8.1838 C   0  0  1  0  0  0  0  0  0  0  0  0
   26.0769  -20.8591   -7.1580 C   0  0  0  0  0  0  0  0  0  0  0  0
   27.0185  -20.2911   -6.1789 C   0  0  0  0  0  0  0  0  0  0  0  0
   28.3086  -20.0484   -6.5549 C   0  0  0  0  0  0  0  0  0  0  0  0
   29.1865  -19.5111   -5.6151 C   0  0  0  0  0  0  0  0  0  0  0  0
   28.8071  -19.2152   -4.3241 C   0  0  0  0  0  0  0  0  0  0  0  0
   27.4914  -19.4773   -3.9877 C   0  0  0  0  0  0  0  0  0  0  0  0
   26.6006  -20.0125   -4.9093 C   0  0  0  0  0  0  0  0  0  0  0  0
   26.0779  -20.3349   -9.5151 C   0  0  0  0  0  0  0  0  0  0  0  0
   25.2359  -20.2946  -10.4766 O   0  0  0  0  0  0  0  0  0  0  0  0
   31.9087  -22.6716  -10.1958 C   0  0  0  0  0  0  0  0  0  0  0  0
   31.9859  -21.7981  -11.7951 S   0  0  0  0  0  0  0  0  0  0  0  0
   30.3267  -21.0718  -12.0838 C   0  0  0  0  0  0  0  0  0  0  0  0
   29.4919  -21.1998  -10.8447 C   0  0  0  0  0  0  0  0  0  0  0  0
   28.1093  -20.6224  -10.9434 C   0  0  2  0  0  0  0  0  0  0  0  0
   27.3841  -20.8296   -9.6945 N   0  0  0  0  0  0  0  0  0  0  0  0
   27.3915  -21.2037  -12.0807 C   0  0  0  0  0  0  0  0  0  0  0  0
   27.0415  -22.4067  -12.0403 O   0  0  0  0  0  0  0  0  0  0  0  0
   24.3741  -20.7894  -15.8072 C   0  0  0  0  0  0  0  0  0  0  0  0
   25.0481  -20.2359  -14.5770 C   0  0  1  0  0  0  0  0  0  0  0  0
   24.1147  -20.4905  -13.3958 C   0  0  0  0  0  0  0  0  0  0  0  0
   26.3275  -21.0035  -14.2920 C   0  0  2  0  0  0  0  0  0  0  0  0
   27.0912  -20.3963  -13.2361 N   0  0  0  0  0  0  0  0  0  0  0  0
   27.1950  -21.0601  -15.5028 C   0  0  0  0  0  0  0  0  0  0  0  0
   27.3005  -22.2482  -16.1986 O   0  0  0  0  0  0  0  0  0  0  0  0
   27.8358  -20.0549  -15.9111 O   0  0  0  0  0  0  0  0  0  0  0  0
  2  1  1  6
  2  3  1  0
  4  3  1  0
  5  4  2  0
  6  5  1  0
  7  6  2  0
  7  8  1  0
  8  9  2  0
  9  4  1  0
 10 17  1  0
 10  2  1  0
 11 10  2  0
 13 12  1  0
 14 13  1  0
 15 14  1  0
 16 15  1  1
 16 17  1  0
 18 19  2  0
 18 16  1  0
 21 20  1  6
 21 22  1  0
 23 21  1  0
 23 24  1  1
 24 18  1  0
 25 23  1  0
 26 25  1  0
 27 25  2  0
M  END
$$$$
