FMV.pdb
     RDKit          3D

 27 27  0  0  1  0  0  0  0  0999 V2000
   28.6159  -20.1904  -15.3733 N   0  0  0  0  0  0  0  0  0  0  0  0
   27.8302  -19.4298  -14.4389 C   0  0  1  0  0  0  0  0  0  0  0  0
   26.8288  -18.6127  -15.2268 C   0  0  0  0  0  0  0  0  0  0  0  0
   27.4396  -17.4175  -15.8321 C   0  0  0  0  0  0  0  0  0  0  0  0
   27.4991  -16.2592  -15.1115 C   0  0  0  0  0  0  0  0  0  0  0  0
   28.0800  -15.1374  -15.7003 C   0  0  0  0  0  0  0  0  0  0  0  0
   28.5961  -15.1487  -16.9777 C   0  0  0  0  0  0  0  0  0  0  0  0
   28.5142  -16.3432  -17.6701 C   0  0  0  0  0  0  0  0  0  0  0  0
   27.9392  -17.4726  -17.1015 C   0  0  0  0  0  0  0  0  0  0  0  0
   27.0525  -20.3238  -13.5377 C   0  0  0  0  0  0  0  0  0  0  0  0
   26.6327  -21.4326  -14.0166 O   0  0  0  0  0  0  0  0  0  0  0  0
   27.3185  -20.5934   -7.0832 C   0  0  0  0  0  0  0  0  0  0  0  0
   25.5040  -20.5266   -7.2557 S   0  0  0  0  0  0  0  0  0  0  0  0
   25.1154  -21.0309   -8.9758 C   0  0  0  0  0  0  0  0  0  0  0  0
   26.0014  -20.2940   -9.9352 C   0  0  0  0  0  0  0  0  0  0  0  0
   25.8513  -20.6893  -11.3760 C   0  0  2  0  0  0  0  0  0  0  0  0
   26.7954  -19.9478  -12.2051 N   0  0  0  0  0  0  0  0  0  0  0  0
   24.4713  -20.4828  -11.8227 C   0  0  0  0  0  0  0  0  0  0  0  0
   24.0948  -19.3336  -12.1529 O   0  0  0  0  0  0  0  0  0  0  0  0
   20.6729  -22.1043  -14.2480 C   0  0  0  0  0  0  0  0  0  0  0  0
   22.0582  -22.3007  -13.6856 C   0  0  1  0  0  0  0  0  0  0  0  0
   23.0501  -21.8749  -14.7655 C   0  0  0  0  0  0  0  0  0  0  0  0
   22.2789  -21.3724  -12.5037 C   0  0  2  0  0  0  0  0  0  0  0  0
   23.5556  -21.5941  -11.8810 N   0  0  0  0  0  0  0  0  0  0  0  0
   21.2283  -21.5735  -11.4657 C   0  0  0  0  0  0  0  0  0  0  0  0
   20.1732  -20.6853  -11.3969 O   0  0  0  0  0  0  0  0  0  0  0  0
   21.2740  -22.5311  -10.6480 O   0  0  0  0  0  0  0  0  0  0  0  0
  2  1  1  6
  2  3  1  0
  4  3  1  0
  5  4  2  0
  6  5  1  0
  7  6  2  0
  7  8  1  0
  8  9  2  0
  9  4  1  0
 10 17  1  0
 10  2  1  0
 11 10  2  0
 13 12  1  0
 14 13  1  0
 15 14  1  0
 16 15  1  1
 16 17  1  0
 18 19  2  0
 18 16  1  0
 21 20  1  6
 21 22  1  0
 23 21  1  0
 23 24  1  1
 24 18  1  0
 25 23  1  0
 26 25  1  0
 27 25  2  0
M  END
$$$$
