FMV.pdb
     RDKit          3D

 27 27  0  0  1  0  0  0  0  0999 V2000
   28.5935  -21.8837  -11.4890 N   0  0  0  0  0  0  0  0  0  0  0  0
   27.3045  -21.4210  -11.0495 C   0  0  1  0  0  0  0  0  0  0  0  0
   27.4964  -20.0855  -10.3634 C   0  0  0  0  0  0  0  0  0  0  0  0
   27.7055  -20.2302   -8.9132 C   0  0  0  0  0  0  0  0  0  0  0  0
   26.6222  -20.2843   -8.0836 C   0  0  0  0  0  0  0  0  0  0  0  0
   26.8386  -20.4207   -6.7134 C   0  0  0  0  0  0  0  0  0  0  0  0
   28.0985  -20.5031   -6.1621 C   0  0  0  0  0  0  0  0  0  0  0  0
   29.1658  -20.4440   -7.0399 C   0  0  0  0  0  0  0  0  0  0  0  0
   28.9717  -20.3083   -8.4087 C   0  0  0  0  0  0  0  0  0  0  0  0
   26.3930  -21.1924  -12.2041 C   0  0  0  0  0  0  0  0  0  0  0  0
   26.8213  -20.4667  -13.1659 O   0  0  0  0  0  0  0  0  0  0  0  0
   25.7409  -26.2565  -16.0426 C   0  0  0  0  0  0  0  0  0  0  0  0
   24.3462  -25.4132  -15.2239 S   0  0  0  0  0  0  0  0  0  0  0  0
   24.9924  -23.8224  -14.5792 C   0  0  0  0  0  0  0  0  0  0  0  0
   23.8999  -23.0780  -13.8714 C   0  0  0  0  0  0  0  0  0  0  0  0
   24.2628  -21.6953  -13.4118 C   0  0  2  0  0  0  0  0  0  0  0  0
   25.1053  -21.7623  -12.2227 N   0  0  0  0  0  0  0  0  0  0  0  0
   23.0546  -20.9035  -13.1667 C   0  0  0  0  0  0  0  0  0  0  0  0
   22.5996  -20.8159  -12.0020 O   0  0  0  0  0  0  0  0  0  0  0  0
   21.0072  -18.7189  -16.3161 C   0  0  0  0  0  0  0  0  0  0  0  0
   21.1594  -18.2178  -14.9020 C   0  0  1  0  0  0  0  0  0  0  0  0
   19.8705  -17.4833  -14.5404 C   0  0  0  0  0  0  0  0  0  0  0  0
   21.2747  -19.3894  -13.9420 C   0  0  2  0  0  0  0  0  0  0  0  0
   22.3962  -20.2314  -14.2583 N   0  0  0  0  0  0  0  0  0  0  0  0
   20.0479  -20.2348  -13.9845 C   0  0  0  0  0  0  0  0  0  0  0  0
   19.0148  -19.9641  -13.1091 O   0  0  0  0  0  0  0  0  0  0  0  0
   19.9250  -21.1906  -14.7963 O   0  0  0  0  0  0  0  0  0  0  0  0
  2  1  1  6
  2  3  1  0
  4  3  1  0
  5  4  2  0
  6  5  1  0
  7  6  2  0
  7  8  1  0
  8  9  2  0
  9  4  1  0
 10 17  1  0
 10  2  1  0
 11 10  2  0
 13 12  1  0
 14 13  1  0
 15 14  1  0
 16 15  1  1
 16 17  1  0
 18 19  2  0
 18 16  1  0
 21 20  1  6
 21 22  1  0
 23 21  1  0
 23 24  1  6
 24 18  1  0
 25 23  1  0
 26 25  1  0
 27 25  2  0
M  END
$$$$
