FMV.pdb
     RDKit          3D

 27 27  0  0  1  0  0  0  0  0999 V2000
   28.2579  -19.8892  -15.8960 N   0  0  0  0  0  0  0  0  0  0  0  0
   27.4556  -19.2233  -14.9052 C   0  0  1  0  0  0  0  0  0  0  0  0
   26.5947  -18.1988  -15.6126 C   0  0  0  0  0  0  0  0  0  0  0  0
   27.3436  -16.9741  -15.9403 C   0  0  0  0  0  0  0  0  0  0  0  0
   27.7592  -16.7681  -17.2246 C   0  0  0  0  0  0  0  0  0  0  0  0
   28.4674  -15.6038  -17.5169 C   0  0  0  0  0  0  0  0  0  0  0  0
   28.7652  -14.6534  -16.5650 C   0  0  0  0  0  0  0  0  0  0  0  0
   28.3246  -14.9038  -15.2780 C   0  0  0  0  0  0  0  0  0  0  0  0
   27.6173  -16.0579  -14.9659 C   0  0  0  0  0  0  0  0  0  0  0  0
   26.5337  -20.1775  -14.2300 C   0  0  0  0  0  0  0  0  0  0  0  0
   26.2327  -21.2543  -14.8505 O   0  0  0  0  0  0  0  0  0  0  0  0
   25.2030  -20.7146   -7.8465 C   0  0  0  0  0  0  0  0  0  0  0  0
   26.8944  -20.8050   -8.5233 S   0  0  0  0  0  0  0  0  0  0  0  0
   26.7299  -21.1221  -10.3223 C   0  0  0  0  0  0  0  0  0  0  0  0
   25.3504  -20.7537  -10.7805 C   0  0  0  0  0  0  0  0  0  0  0  0
   25.1304  -20.8225  -12.2643 C   0  0  2  0  0  0  0  0  0  0  0  0
   26.0184  -19.8908  -12.9511 N   0  0  0  0  0  0  0  0  0  0  0  0
   23.7258  -20.5579  -12.5866 C   0  0  0  0  0  0  0  0  0  0  0  0
   23.3016  -19.3783  -12.5762 O   0  0  0  0  0  0  0  0  0  0  0  0
   21.9900  -21.3287  -15.6907 C   0  0  0  0  0  0  0  0  0  0  0  0
   21.0964  -21.8919  -14.6145 C   0  0  1  0  0  0  0  0  0  0  0  0
   21.3607  -23.3941  -14.5463 C   0  0  0  0  0  0  0  0  0  0  0  0
   21.4845  -21.3214  -13.2613 C   0  0  2  0  0  0  0  0  0  0  0  0
   22.8406  -21.6473  -12.9127 N   0  0  0  0  0  0  0  0  0  0  0  0
   20.6004  -21.8542  -12.1859 C   0  0  0  0  0  0  0  0  0  0  0  0
   19.3294  -21.3341  -12.0421 O   0  0  0  0  0  0  0  0  0  0  0  0
   20.9787  -22.7663  -11.4031 O   0  0  0  0  0  0  0  0  0  0  0  0
  2  1  1  6
  2  3  1  0
  4  3  1  0
  5  4  2  0
  6  5  1  0
  7  6  2  0
  7  8  1  0
  8  9  2  0
  9  4  1  0
 10 17  1  0
 10  2  1  0
 11 10  2  0
 13 12  1  0
 14 13  1  0
 15 14  1  0
 16 15  1  1
 16 17  1  0
 18 19  2  0
 18 16  1  0
 21 20  1  6
 21 22  1  0
 23 21  1  0
 23 24  1  1
 24 18  1  0
 25 23  1  0
 26 25  1  0
 27 25  2  0
M  END
$$$$
