FMV.pdb
     RDKit          3D

 27 27  0  0  1  0  0  0  0  0999 V2000
   24.4009  -20.2528  -15.2303 N   0  0  0  0  0  0  0  0  0  0  0  0
   23.6683  -19.7083  -14.1187 C   0  0  1  0  0  0  0  0  0  0  0  0
   22.1935  -19.9300  -14.3774 C   0  0  0  0  0  0  0  0  0  0  0  0
   21.6855  -19.0778  -15.4654 C   0  0  0  0  0  0  0  0  0  0  0  0
   21.3228  -19.6514  -16.6503 C   0  0  0  0  0  0  0  0  0  0  0  0
   20.8447  -18.8296  -17.6695 C   0  0  0  0  0  0  0  0  0  0  0  0
   20.7230  -17.4642  -17.5311 C   0  0  0  0  0  0  0  0  0  0  0  0
   21.1020  -16.9269  -16.3142 C   0  0  0  0  0  0  0  0  0  0  0  0
   21.5809  -17.7284  -15.2858 C   0  0  0  0  0  0  0  0  0  0  0  0
   24.0022  -20.4201  -12.8545 C   0  0  0  0  0  0  0  0  0  0  0  0
   23.9727  -21.6985  -12.8656 O   0  0  0  0  0  0  0  0  0  0  0  0
   27.5978  -19.8920   -5.8679 C   0  0  0  0  0  0  0  0  0  0  0  0
   27.1992  -19.0860   -7.4549 S   0  0  0  0  0  0  0  0  0  0  0  0
   25.9220  -20.1202   -8.2693 C   0  0  0  0  0  0  0  0  0  0  0  0
   25.6185  -19.5751   -9.6329 C   0  0  0  0  0  0  0  0  0  0  0  0
   24.6339  -20.3750  -10.4362 C   0  0  2  0  0  0  0  0  0  0  0  0
   24.3371  -19.6970  -11.6934 N   0  0  0  0  0  0  0  0  0  0  0  0
   23.4156  -20.6170   -9.6591 C   0  0  0  0  0  0  0  0  0  0  0  0
   22.5686  -19.7010   -9.5379 O   0  0  0  0  0  0  0  0  0  0  0  0
   19.8053  -23.2820   -8.1599 C   0  0  0  0  0  0  0  0  0  0  0  0
   21.0370  -23.0569   -9.0002 C   0  0  1  0  0  0  0  0  0  0  0  0
   20.5862  -22.3816  -10.2932 C   0  0  0  0  0  0  0  0  0  0  0  0
   21.9728  -22.0826   -8.3056 C   0  0  2  0  0  0  0  0  0  0  0  0
   23.1951  -21.8995   -9.0399 N   0  0  0  0  0  0  0  0  0  0  0  0
   22.3320  -22.5693   -6.9433 C   0  0  0  0  0  0  0  0  0  0  0  0
   21.6926  -22.0270   -5.8460 O   0  0  0  0  0  0  0  0  0  0  0  0
   23.2027  -23.4619   -6.7626 O   0  0  0  0  0  0  0  0  0  0  0  0
  2  1  1  6
  2  3  1  0
  4  3  1  0
  5  4  2  0
  6  5  1  0
  7  6  2  0
  7  8  1  0
  8  9  2  0
  9  4  1  0
 10 17  1  0
 10  2  1  0
 11 10  2  0
 13 12  1  0
 14 13  1  0
 15 14  1  0
 16 15  1  1
 16 17  1  0
 18 19  2  0
 18 16  1  0
 21 20  1  1
 21 22  1  0
 23 21  1  0
 23 24  1  6
 24 18  1  0
 25 23  1  0
 26 25  1  0
 27 25  2  0
M  END
$$$$
