FMV.pdb
     RDKit          3D

 27 27  0  0  1  0  0  0  0  0999 V2000
   28.3882  -20.2602  -15.5686 N   0  0  0  0  0  0  0  0  0  0  0  0
   27.7195  -19.5123  -14.5380 C   0  0  1  0  0  0  0  0  0  0  0  0
   26.6756  -18.6373  -15.1983 C   0  0  0  0  0  0  0  0  0  0  0  0
   27.2687  -17.4535  -15.8422 C   0  0  0  0  0  0  0  0  0  0  0  0
   27.5242  -17.4793  -17.1833 C   0  0  0  0  0  0  0  0  0  0  0  0
   28.0865  -16.3501  -17.7762 C   0  0  0  0  0  0  0  0  0  0  0  0
   28.3948  -15.2104  -17.0661 C   0  0  0  0  0  0  0  0  0  0  0  0
   28.1190  -15.2293  -15.7109 C   0  0  0  0  0  0  0  0  0  0  0  0
   27.5588  -16.3444  -15.1007 C   0  0  0  0  0  0  0  0  0  0  0  0
   27.0012  -20.4161  -13.5980 C   0  0  0  0  0  0  0  0  0  0  0  0
   26.5595  -21.5243  -14.0583 O   0  0  0  0  0  0  0  0  0  0  0  0
   27.3665  -19.9460   -7.3041 C   0  0  0  0  0  0  0  0  0  0  0  0
   25.6286  -20.4978   -7.2608 S   0  0  0  0  0  0  0  0  0  0  0  0
   25.1997  -21.0348   -8.9613 C   0  0  0  0  0  0  0  0  0  0  0  0
   26.1485  -20.4178   -9.9449 C   0  0  0  0  0  0  0  0  0  0  0  0
   25.9022  -20.7771  -11.3819 C   0  0  2  0  0  0  0  0  0  0  0  0
   26.8217  -20.0497  -12.2501 N   0  0  0  0  0  0  0  0  0  0  0  0
   24.5065  -20.5156  -11.7432 C   0  0  0  0  0  0  0  0  0  0  0  0
   24.1202  -19.3333  -11.8986 O   0  0  0  0  0  0  0  0  0  0  0  0
   22.3778  -23.5133  -13.7922 C   0  0  0  0  0  0  0  0  0  0  0  0
   22.2883  -22.0168  -13.9545 C   0  0  1  0  0  0  0  0  0  0  0  0
   20.9110  -21.7057  -14.5357 C   0  0  0  0  0  0  0  0  0  0  0  0
   22.3489  -21.3392  -12.5964 C   0  0  2  0  0  0  0  0  0  0  0  0
   23.5869  -21.6113  -11.9180 N   0  0  0  0  0  0  0  0  0  0  0  0
   21.2393  -21.8075  -11.7181 C   0  0  0  0  0  0  0  0  0  0  0  0
   20.0438  -21.1164  -11.7201 O   0  0  0  0  0  0  0  0  0  0  0  0
   21.3597  -22.8163  -10.9729 O   0  0  0  0  0  0  0  0  0  0  0  0
  2  1  1  6
  2  3  1  0
  4  3  1  0
  5  4  2  0
  6  5  1  0
  7  6  2  0
  7  8  1  0
  8  9  2  0
  9  4  1  0
 10 17  1  0
 10  2  1  0
 11 10  2  0
 13 12  1  0
 14 13  1  0
 15 14  1  0
 16 15  1  1
 16 17  1  0
 18 19  2  0
 18 16  1  0
 21 20  1  1
 21 22  1  0
 23 21  1  0
 23 24  1  1
 24 18  1  0
 25 23  1  0
 26 25  1  0
 27 25  2  0
M  END
$$$$
