FMV.pdb
     RDKit          3D

 27 27  0  0  1  0  0  0  0  0999 V2000
   26.4505  -19.0317  -10.4960 N   0  0  0  0  0  0  0  0  0  0  0  0
   25.8150  -20.3170  -10.3813 C   0  0  1  0  0  0  0  0  0  0  0  0
   25.5867  -20.5958   -8.9112 C   0  0  0  0  0  0  0  0  0  0  0  0
   26.8125  -20.4198   -8.1148 C   0  0  0  0  0  0  0  0  0  0  0  0
   27.8675  -21.2631   -8.3161 C   0  0  0  0  0  0  0  0  0  0  0  0
   29.0197  -21.0825   -7.5530 C   0  0  0  0  0  0  0  0  0  0  0  0
   29.1383  -20.0897   -6.6051 C   0  0  0  0  0  0  0  0  0  0  0  0
   28.0452  -19.2594   -6.4352 C   0  0  0  0  0  0  0  0  0  0  0  0
   26.8876  -19.4224   -7.1855 C   0  0  0  0  0  0  0  0  0  0  0  0
   24.4794  -20.3168  -11.0388 C   0  0  0  0  0  0  0  0  0  0  0  0
   23.5727  -19.5629  -10.5444 O   0  0  0  0  0  0  0  0  0  0  0  0
   23.1017  -18.1974  -15.8415 C   0  0  0  0  0  0  0  0  0  0  0  0
   22.3930  -19.6896  -16.6149 S   0  0  0  0  0  0  0  0  0  0  0  0
   22.0482  -20.8768  -15.2602 C   0  0  0  0  0  0  0  0  0  0  0  0
   23.2597  -21.0207  -14.3882 C   0  0  0  0  0  0  0  0  0  0  0  0
   22.9864  -21.0327  -12.9118 C   0  0  2  0  0  0  0  0  0  0  0  0
   24.2372  -21.1249  -12.1665 N   0  0  0  0  0  0  0  0  0  0  0  0
   22.0775  -22.1292  -12.5680 C   0  0  0  0  0  0  0  0  0  0  0  0
   22.5117  -23.3048  -12.5387 O   0  0  0  0  0  0  0  0  0  0  0  0
   19.4026  -21.8911   -9.6788 C   0  0  0  0  0  0  0  0  0  0  0  0
   18.7846  -22.5365  -10.8934 C   0  0  1  0  0  0  0  0  0  0  0  0
   17.9571  -21.4674  -11.6030 C   0  0  0  0  0  0  0  0  0  0  0  0
   19.8693  -22.9628  -11.8676 C   0  0  2  0  0  0  0  0  0  0  0  0
   20.6952  -21.8557  -12.2662 N   0  0  0  0  0  0  0  0  0  0  0  0
   19.2750  -23.5512  -13.1015 C   0  0  0  0  0  0  0  0  0  0  0  0
   18.7065  -24.8081  -13.0398 O   0  0  0  0  0  0  0  0  0  0  0  0
   19.2757  -22.9352  -14.2006 O   0  0  0  0  0  0  0  0  0  0  0  0
  2  1  1  1
  2  3  1  0
  4  3  1  0
  5  4  2  0
  6  5  1  0
  7  6  2  0
  7  8  1  0
  8  9  2  0
  9  4  1  0
 10 17  1  0
 10  2  1  0
 11 10  2  0
 13 12  1  0
 14 13  1  0
 15 14  1  0
 16 15  1  6
 16 17  1  0
 18 19  2  0
 18 16  1  0
 21 20  1  1
 21 22  1  0
 23 21  1  0
 23 24  1  6
 24 18  1  0
 25 23  1  0
 26 25  1  0
 27 25  2  0
M  END
$$$$
