CNG.pdb
     RDKit          3D

 19 18  0  0  1  0  0  0  0  0999 V2000
    7.7702  -13.3236   18.3185 N   0  0  0  0  0  0  0  0  0  0  0  0
    8.9117  -13.2919   19.1784 C   0  0  1  0  0  0  0  0  0  0  0  0
    8.4738  -13.5441   20.6037 C   0  0  0  0  0  0  0  0  0  0  0  0
    7.4363  -12.1395   21.1336 S   0  0  0  0  0  0  0  0  0  0  0  0
    9.9391  -14.3002   18.7770 C   0  0  0  0  0  0  0  0  0  0  0  0
    9.6509  -15.2051   17.9321 O   0  0  0  0  0  0  0  0  0  0  0  0
   14.6604  -15.5800   16.8978 N   0  0  0  0  0  0  0  0  0  0  0  0
   14.6005  -14.6089   17.9548 C   0  0  0  0  0  0  0  0  0  0  0  0
   15.6767  -14.2397   18.4219 O   0  0  0  0  0  0  0  0  0  0  0  0
   13.3080  -14.1651   18.3631 C   0  0  0  0  0  0  0  0  0  0  0  0
   12.3075  -15.1405   18.9195 C   0  0  2  0  0  0  0  0  0  0  0  0
   11.2112  -14.2212   19.3502 N   0  0  0  0  0  0  0  0  0  0  0  0
   12.6866  -15.8228   20.1542 C   0  0  0  0  0  0  0  0  0  0  0  0
   13.2968  -16.9587   20.0988 O   0  0  0  0  0  0  0  0  0  0  0  0
   12.4603  -15.3672   21.4730 N   0  0  0  0  0  0  0  0  0  0  0  0
   12.9467  -16.1221   22.6451 C   0  0  0  0  0  0  0  0  0  0  0  0
   14.3660  -15.7701   22.8373 C   0  0  0  0  0  0  0  0  0  0  0  0
   14.9856  -15.0316   22.0265 O   0  0  0  0  0  0  0  0  0  0  0  0
   15.0493  -16.2524   23.9276 O   0  0  0  0  0  0  0  0  0  0  0  0
  2  1  1  6
  3  2  1  0
  3  4  1  0
  5  6  2  0
  5  2  1  0
  7  8  1  0
  8  9  2  0
 10  8  1  0
 11 10  1  1
 11 12  1  0
 12  5  1  0
 13 15  1  0
 13 11  1  0
 14 13  2  0
 16 17  1  0
 16 15  1  0
 17 19  1  0
 18 17  2  0
M  END
$$$$
