CNG.pdb
     RDKit          3D

 19 18  0  0  1  0  0  0  0  0999 V2000
    5.7940  -14.2057   25.8393 N   0  0  0  0  0  0  0  0  0  0  0  0
    7.1206  -13.9364   25.3799 C   0  0  1  0  0  0  0  0  0  0  0  0
    7.8906  -13.2155   26.4634 C   0  0  0  0  0  0  0  0  0  0  0  0
    6.9419  -11.7310   26.9394 S   0  0  0  0  0  0  0  0  0  0  0  0
    7.8402  -15.1876   24.9925 C   0  0  0  0  0  0  0  0  0  0  0  0
    7.3734  -16.3225   25.3244 O   0  0  0  0  0  0  0  0  0  0  0  0
    8.9216  -16.5318   20.8689 N   0  0  0  0  0  0  0  0  0  0  0  0
    9.7856  -15.4932   21.3576 C   0  0  0  0  0  0  0  0  0  0  0  0
    9.8565  -14.4726   20.6750 O   0  0  0  0  0  0  0  0  0  0  0  0
   10.4773  -15.7389   22.5804 C   0  0  0  0  0  0  0  0  0  0  0  0
    9.7454  -16.2911   23.7727 C   0  0  2  0  0  0  0  0  0  0  0  0
    9.0271  -15.0762   24.2633 N   0  0  0  0  0  0  0  0  0  0  0  0
   10.5698  -16.6847   24.9127 C   0  0  0  0  0  0  0  0  0  0  0  0
   11.4167  -17.6508   24.7894 O   0  0  0  0  0  0  0  0  0  0  0  0
   10.5581  -16.1051   26.2017 N   0  0  0  0  0  0  0  0  0  0  0  0
   11.3770  -16.6520   27.3020 C   0  0  0  0  0  0  0  0  0  0  0  0
   10.5711  -17.6854   27.9788 C   0  0  0  0  0  0  0  0  0  0  0  0
    9.5059  -18.1343   27.4781 O   0  0  0  0  0  0  0  0  0  0  0  0
   10.9785  -18.1855   29.1921 O   0  0  0  0  0  0  0  0  0  0  0  0
  2  1  1  1
  3  2  1  0
  3  4  1  0
  5  6  2  0
  5  2  1  0
  7  8  1  0
  8  9  2  0
 10  8  1  0
 11 10  1  6
 11 12  1  0
 12  5  1  0
 13 15  1  0
 13 11  1  0
 14 13  2  0
 16 17  1  0
 16 15  1  0
 17 19  1  0
 18 17  2  0
M  END
$$$$
