CNG.pdb
     RDKit          3D

 19 18  0  0  1  0  0  0  0  0999 V2000
    6.0096  -14.6377   26.1190 N   0  0  0  0  0  0  0  0  0  0  0  0
    6.9350  -13.9201   25.2992 C   0  0  1  0  0  0  0  0  0  0  0  0
    8.0326  -13.3450   26.1659 C   0  0  0  0  0  0  0  0  0  0  0  0
    7.2809  -12.1236   27.2943 S   0  0  0  0  0  0  0  0  0  0  0  0
    7.5287  -14.7891   24.2382 C   0  0  0  0  0  0  0  0  0  0  0  0
    7.4120  -16.0530   24.3076 O   0  0  0  0  0  0  0  0  0  0  0  0
    6.9984  -12.4348   20.0150 N   0  0  0  0  0  0  0  0  0  0  0  0
    7.3769  -13.7966   20.2724 C   0  0  0  0  0  0  0  0  0  0  0  0
    6.5781  -14.6634   19.9214 O   0  0  0  0  0  0  0  0  0  0  0  0
    8.6350  -14.0173   20.9069 C   0  0  0  0  0  0  0  0  0  0  0  0
    8.7532  -14.9896   22.0483 C   0  0  2  0  0  0  0  0  0  0  0  0
    8.2081  -14.1801   23.1797 N   0  0  0  0  0  0  0  0  0  0  0  0
   10.1092  -15.3154   22.4830 C   0  0  0  0  0  0  0  0  0  0  0  0
   10.9437  -15.8359   21.6472 O   0  0  0  0  0  0  0  0  0  0  0  0
   10.6517  -15.1167   23.7729 N   0  0  0  0  0  0  0  0  0  0  0  0
   12.0597  -15.4413   24.0771 C   0  0  0  0  0  0  0  0  0  0  0  0
   12.0924  -16.8259   24.5843 C   0  0  0  0  0  0  0  0  0  0  0  0
   11.0671  -17.5576   24.5923 O   0  0  0  0  0  0  0  0  0  0  0  0
   13.2674  -17.3508   25.0660 O   0  0  0  0  0  0  0  0  0  0  0  0
  2  1  1  1
  3  2  1  0
  3  4  1  0
  5  6  2  0
  5  2  1  0
  7  8  1  0
  8  9  2  0
 10  8  1  0
 11 10  1  6
 11 12  1  0
 12  5  1  0
 13 15  1  0
 13 11  1  0
 14 13  2  0
 16 17  1  0
 16 15  1  0
 17 19  1  0
 18 17  2  0
M  END
$$$$
