CNG.pdb
     RDKit          3D

 19 18  0  0  1  0  0  0  0  0999 V2000
    6.8410  -19.1987   24.8306 N   0  0  0  0  0  0  0  0  0  0  0  0
    7.8500  -18.2123   25.0596 C   0  0  1  0  0  0  0  0  0  0  0  0
    8.5445  -18.4997   26.3718 C   0  0  0  0  0  0  0  0  0  0  0  0
    9.3489  -16.9615   26.9349 S   0  0  0  0  0  0  0  0  0  0  0  0
    8.8528  -18.1742   23.9521 C   0  0  0  0  0  0  0  0  0  0  0  0
    9.3397  -19.2551   23.4932 O   0  0  0  0  0  0  0  0  0  0  0  0
    9.3370  -17.0901   19.1410 N   0  0  0  0  0  0  0  0  0  0  0  0
    8.7511  -16.6972   20.3925 C   0  0  0  0  0  0  0  0  0  0  0  0
    7.5607  -16.9644   20.5486 O   0  0  0  0  0  0  0  0  0  0  0  0
    9.5970  -16.0379   21.3326 C   0  0  0  0  0  0  0  0  0  0  0  0
   10.3047  -16.8226   22.4029 C   0  0  2  0  0  0  0  0  0  0  0  0
    9.2357  -16.9312   23.4411 N   0  0  0  0  0  0  0  0  0  0  0  0
   11.3892  -16.1349   23.0993 C   0  0  0  0  0  0  0  0  0  0  0  0
   11.1428  -15.0577   23.7661 O   0  0  0  0  0  0  0  0  0  0  0  0
   12.7469  -16.5260   23.1398 N   0  0  0  0  0  0  0  0  0  0  0  0
   13.7708  -15.6942   23.8031 C   0  0  0  0  0  0  0  0  0  0  0  0
   14.9698  -15.7040   22.9442 C   0  0  0  0  0  0  0  0  0  0  0  0
   14.9980  -16.3194   21.8455 O   0  0  0  0  0  0  0  0  0  0  0  0
   16.0991  -15.0271   23.3376 O   0  0  0  0  0  0  0  0  0  0  0  0
  2  1  1  6
  3  2  1  0
  3  4  1  0
  5  6  2  0
  5  2  1  0
  7  8  1  0
  8  9  2  0
 10  8  1  0
 11 10  1  6
 11 12  1  0
 12  5  1  0
 13 15  1  0
 13 11  1  0
 14 13  2  0
 16 17  1  0
 16 15  1  0
 17 19  1  0
 18 17  2  0
M  END
$$$$
