CNG.pdb
     RDKit          3D

 19 18  0  0  1  0  0  0  0  0999 V2000
    7.1540  -15.0588   19.1829 N   0  0  0  0  0  0  0  0  0  0  0  0
    8.2386  -14.6012   19.9939 C   0  0  1  0  0  0  0  0  0  0  0  0
    7.9804  -13.1730   20.4186 C   0  0  0  0  0  0  0  0  0  0  0  0
    8.1010  -12.1121   18.9387 S   0  0  0  0  0  0  0  0  0  0  0  0
    8.4338  -15.4621   21.1998 C   0  0  0  0  0  0  0  0  0  0  0  0
    7.4283  -15.9346   21.8175 O   0  0  0  0  0  0  0  0  0  0  0  0
    9.6387  -19.1162   20.1400 N   0  0  0  0  0  0  0  0  0  0  0  0
    9.4752  -18.7720   21.5252 C   0  0  0  0  0  0  0  0  0  0  0  0
    8.5120  -19.2716   22.1043 O   0  0  0  0  0  0  0  0  0  0  0  0
   10.4374  -17.8888   22.0979 C   0  0  0  0  0  0  0  0  0  0  0  0
    9.9982  -16.6278   22.7901 C   0  0  2  0  0  0  0  0  0  0  0  0
    9.7379  -15.7299   21.6245 N   0  0  0  0  0  0  0  0  0  0  0  0
   11.0234  -15.9153   23.5485 C   0  0  0  0  0  0  0  0  0  0  0  0
   10.6871  -14.9378   24.3214 O   0  0  0  0  0  0  0  0  0  0  0  0
   12.4118  -16.1803   23.5448 N   0  0  0  0  0  0  0  0  0  0  0  0
   13.4065  -15.0891   23.5543 C   0  0  0  0  0  0  0  0  0  0  0  0
   14.7419  -15.7115   23.6235 C   0  0  0  0  0  0  0  0  0  0  0  0
   14.9034  -16.9566   23.5215 O   0  0  0  0  0  0  0  0  0  0  0  0
   15.8547  -14.9258   23.8038 O   0  0  0  0  0  0  0  0  0  0  0  0
  2  1  1  1
  3  2  1  0
  3  4  1  0
  5  6  2  0
  5  2  1  0
  7  8  1  0
  8  9  2  0
 10  8  1  0
 11 10  1  6
 11 12  1  0
 12  5  1  0
 13 15  1  0
 13 11  1  0
 14 13  2  0
 16 17  1  0
 16 15  1  0
 17 19  1  0
 18 17  2  0
M  END
$$$$
