CNG.pdb
     RDKit          3D

 19 18  0  0  1  0  0  0  0  0999 V2000
    5.6295  -17.8177   23.3079 N   0  0  0  0  0  0  0  0  0  0  0  0
    6.4278  -16.6447   23.4819 C   0  0  1  0  0  0  0  0  0  0  0  0
    6.9773  -16.6157   24.8904 C   0  0  0  0  0  0  0  0  0  0  0  0
    6.6952  -14.9473   25.5736 S   0  0  0  0  0  0  0  0  0  0  0  0
    7.5506  -16.5844   22.4975 C   0  0  0  0  0  0  0  0  0  0  0  0
    8.0177  -17.6542   21.9942 O   0  0  0  0  0  0  0  0  0  0  0  0
    7.0456  -12.5313   19.4612 N   0  0  0  0  0  0  0  0  0  0  0  0
    7.8596  -13.7150   19.4727 C   0  0  0  0  0  0  0  0  0  0  0  0
    7.6697  -14.5199   18.5623 O   0  0  0  0  0  0  0  0  0  0  0  0
    8.8064  -13.8477   20.5310 C   0  0  0  0  0  0  0  0  0  0  0  0
    9.1253  -15.2015   21.1035 C   0  0  2  0  0  0  0  0  0  0  0  0
    8.0667  -15.3332   22.1498 N   0  0  0  0  0  0  0  0  0  0  0  0
   10.3699  -15.3069   21.8610 C   0  0  0  0  0  0  0  0  0  0  0  0
   11.5000  -15.1090   21.2698 O   0  0  0  0  0  0  0  0  0  0  0  0
   10.4971  -15.6103   23.2356 N   0  0  0  0  0  0  0  0  0  0  0  0
   11.8124  -15.6166   23.9066 C   0  0  0  0  0  0  0  0  0  0  0  0
   12.3441  -16.9897   23.8198 C   0  0  0  0  0  0  0  0  0  0  0  0
   13.2553  -17.4016   24.5858 O   0  0  0  0  0  0  0  0  0  0  0  0
   11.8427  -17.8598   22.8819 O   0  0  0  0  0  0  0  0  0  0  0  0
  2  1  1  6
  3  2  1  0
  3  4  1  0
  5  6  2  0
  5  2  1  0
  7  8  1  0
  8  9  2  0
 10  8  1  0
 11 10  1  1
 11 12  1  0
 12  5  1  0
 13 15  1  0
 13 11  1  0
 14 13  2  0
 16 17  1  0
 16 15  1  0
 17 19  1  0
 18 17  2  0
M  END
$$$$
