CNG.pdb
     RDKit          3D

 19 18  0  0  1  0  0  0  0  0999 V2000
    8.5207  -13.5471   20.8886 N   0  0  0  0  0  0  0  0  0  0  0  0
    8.3190  -14.2608   19.6665 C   0  0  1  0  0  0  0  0  0  0  0  0
    8.2070  -13.2773   18.5233 C   0  0  0  0  0  0  0  0  0  0  0  0
    7.5584  -11.7070   19.1894 S   0  0  0  0  0  0  0  0  0  0  0  0
    9.4261  -15.2280   19.3975 C   0  0  0  0  0  0  0  0  0  0  0  0
    9.4995  -15.8195   18.2747 O   0  0  0  0  0  0  0  0  0  0  0  0
   14.0064  -14.6837   17.5753 N   0  0  0  0  0  0  0  0  0  0  0  0
   13.5624  -14.4273   18.9173 C   0  0  0  0  0  0  0  0  0  0  0  0
   14.4130  -14.0232   19.7085 O   0  0  0  0  0  0  0  0  0  0  0  0
   12.1861  -14.6633   19.2075 C   0  0  0  0  0  0  0  0  0  0  0  0
   11.7770  -15.8268   20.0683 C   0  0  2  0  0  0  0  0  0  0  0  0
   10.3675  -15.4612   20.4035 N   0  0  0  0  0  0  0  0  0  0  0  0
   12.4246  -15.9251   21.3740 C   0  0  0  0  0  0  0  0  0  0  0  0
   13.6383  -16.3560   21.4579 O   0  0  0  0  0  0  0  0  0  0  0  0
   11.8588  -15.5842   22.6236 N   0  0  0  0  0  0  0  0  0  0  0  0
   11.5137  -16.6156   23.6223 C   0  0  0  0  0  0  0  0  0  0  0  0
   12.7260  -16.8787   24.4201 C   0  0  0  0  0  0  0  0  0  0  0  0
   13.8451  -16.3880   24.1143 O   0  0  0  0  0  0  0  0  0  0  0  0
   12.6519  -17.6804   25.5338 O   0  0  0  0  0  0  0  0  0  0  0  0
  2  1  1  1
  3  2  1  0
  3  4  1  0
  5  6  2  0
  5  2  1  0
  7  8  1  0
  8  9  2  0
 10  8  1  0
 11 10  1  6
 11 12  1  0
 12  5  1  0
 13 15  1  0
 13 11  1  0
 14 13  2  0
 16 17  1  0
 16 15  1  0
 17 19  1  0
 18 17  2  0
M  END
$$$$
