CNG.pdb
     RDKit          3D

 19 18  0  0  1  0  0  0  0  0999 V2000
    8.3934  -14.0976   17.7894 N   0  0  0  0  0  0  0  0  0  0  0  0
    9.3973  -13.7102   18.7304 C   0  0  1  0  0  0  0  0  0  0  0  0
    8.7558  -13.4695   20.0784 C   0  0  0  0  0  0  0  0  0  0  0  0
    7.6793  -12.0026   19.9388 S   0  0  0  0  0  0  0  0  0  0  0  0
   10.4705  -14.7426   18.8560 C   0  0  0  0  0  0  0  0  0  0  0  0
   10.2355  -15.9509   18.5388 O   0  0  0  0  0  0  0  0  0  0  0  0
   13.3783  -15.8626   16.7210 N   0  0  0  0  0  0  0  0  0  0  0  0
   14.2020  -14.8785   17.3668 C   0  0  0  0  0  0  0  0  0  0  0  0
   15.0585  -14.3372   16.6695 O   0  0  0  0  0  0  0  0  0  0  0  0
   13.9533  -14.6212   18.7474 C   0  0  0  0  0  0  0  0  0  0  0  0
   12.8401  -15.3318   19.4670 C   0  0  2  0  0  0  0  0  0  0  0  0
   11.7254  -14.3467   19.3265 N   0  0  0  0  0  0  0  0  0  0  0  0
   12.9911  -15.4735   20.9131 C   0  0  0  0  0  0  0  0  0  0  0  0
   13.4904  -14.5048   21.6045 O   0  0  0  0  0  0  0  0  0  0  0  0
   12.6348  -16.5980   21.6918 N   0  0  0  0  0  0  0  0  0  0  0  0
   12.6998  -16.5681   23.1666 C   0  0  0  0  0  0  0  0  0  0  0  0
   14.0670  -16.9623   23.5550 C   0  0  0  0  0  0  0  0  0  0  0  0
   14.9525  -17.2290   22.6997 O   0  0  0  0  0  0  0  0  0  0  0  0
   14.4035  -17.0465   24.8846 O   0  0  0  0  0  0  0  0  0  0  0  0
  2  1  1  6
  3  2  1  0
  3  4  1  0
  5  6  2  0
  5  2  1  0
  7  8  1  0
  8  9  2  0
 10  8  1  0
 11 10  1  1
 11 12  1  0
 12  5  1  0
 13 15  1  0
 13 11  1  0
 14 13  2  0
 16 17  1  0
 16 15  1  0
 17 19  1  0
 18 17  2  0
M  END
$$$$
