CNG.pdb
     RDKit          3D

 19 18  0  0  1  0  0  0  0  0999 V2000
    9.6224  -12.4659   19.4881 N   0  0  0  0  0  0  0  0  0  0  0  0
    9.1887  -13.8091   19.2616 C   0  0  1  0  0  0  0  0  0  0  0  0
    8.5641  -13.9102   17.8881 C   0  0  0  0  0  0  0  0  0  0  0  0
    7.0502  -12.8913   17.8787 S   0  0  0  0  0  0  0  0  0  0  0  0
   10.3142  -14.7850   19.3806 C   0  0  0  0  0  0  0  0  0  0  0  0
   10.1165  -16.0199   19.1525 O   0  0  0  0  0  0  0  0  0  0  0  0
   14.0668  -16.1038   17.2987 N   0  0  0  0  0  0  0  0  0  0  0  0
   14.0695  -14.7210   17.6886 C   0  0  0  0  0  0  0  0  0  0  0  0
   14.3187  -13.9026   16.8049 O   0  0  0  0  0  0  0  0  0  0  0  0
   13.7855  -14.4258   19.0547 C   0  0  0  0  0  0  0  0  0  0  0  0
   12.7558  -15.2217   19.8086 C   0  0  2  0  0  0  0  0  0  0  0  0
   11.5758  -14.3074   19.7456 N   0  0  0  0  0  0  0  0  0  0  0  0
   12.9860  -15.3847   21.2419 C   0  0  0  0  0  0  0  0  0  0  0  0
   14.1421  -15.7704   21.6667 O   0  0  0  0  0  0  0  0  0  0  0  0
   12.0516  -15.1557   22.2774 N   0  0  0  0  0  0  0  0  0  0  0  0
   12.4215  -15.3065   23.6989 C   0  0  0  0  0  0  0  0  0  0  0  0
   12.1324  -16.7008   24.0833 C   0  0  0  0  0  0  0  0  0  0  0  0
   11.7345  -17.5544   23.2468 O   0  0  0  0  0  0  0  0  0  0  0  0
   12.2966  -17.0991   25.3882 O   0  0  0  0  0  0  0  0  0  0  0  0
  2  1  1  6
  3  2  1  0
  3  4  1  0
  5  6  2  0
  5  2  1  0
  7  8  1  0
  8  9  2  0
 10  8  1  0
 11 10  1  6
 11 12  1  0
 12  5  1  0
 13 15  1  0
 13 11  1  0
 14 13  2  0
 16 17  1  0
 16 15  1  0
 17 19  1  0
 18 17  2  0
M  END
$$$$
