CNG.pdb
     RDKit          3D

 19 18  0  0  1  0  0  0  0  0999 V2000
    5.4447  -13.5718   26.1324 N   0  0  0  0  0  0  0  0  0  0  0  0
    6.7220  -13.3087   25.5471 C   0  0  1  0  0  0  0  0  0  0  0  0
    7.6453  -12.7300   26.5956 C   0  0  0  0  0  0  0  0  0  0  0  0
    6.7516  -11.3955   27.4619 S   0  0  0  0  0  0  0  0  0  0  0  0
    7.3298  -14.5412   24.9599 C   0  0  0  0  0  0  0  0  0  0  0  0
    6.9047  -15.6892   25.3026 O   0  0  0  0  0  0  0  0  0  0  0  0
    6.9839  -15.0386   21.1592 N   0  0  0  0  0  0  0  0  0  0  0  0
    8.3146  -14.5215   20.9983 C   0  0  0  0  0  0  0  0  0  0  0  0
    8.5040  -13.7862   20.0308 O   0  0  0  0  0  0  0  0  0  0  0  0
    9.2874  -14.9055   21.9680 C   0  0  0  0  0  0  0  0  0  0  0  0
    8.8654  -15.5683   23.2504 C   0  0  2  0  0  0  0  0  0  0  0  0
    8.3667  -14.3980   24.0342 N   0  0  0  0  0  0  0  0  0  0  0  0
    9.9375  -16.1065   24.0840 C   0  0  0  0  0  0  0  0  0  0  0  0
   10.6376  -17.1059   23.6636 O   0  0  0  0  0  0  0  0  0  0  0  0
   10.3277  -15.6408   25.3603 N   0  0  0  0  0  0  0  0  0  0  0  0
   11.4855  -16.2178   26.0722 C   0  0  0  0  0  0  0  0  0  0  0  0
   10.9844  -17.3352   26.8944 C   0  0  0  0  0  0  0  0  0  0  0  0
   10.2097  -18.2117   26.4272 O   0  0  0  0  0  0  0  0  0  0  0  0
   11.3633  -17.4397   28.2111 O   0  0  0  0  0  0  0  0  0  0  0  0
  2  1  1  1
  3  2  1  0
  3  4  1  0
  5  6  2  0
  5  2  1  0
  7  8  1  0
  8  9  2  0
 10  8  1  0
 11 10  1  6
 11 12  1  0
 12  5  1  0
 13 15  1  0
 13 11  1  0
 14 13  2  0
 16 17  1  0
 16 15  1  0
 17 19  1  0
 18 17  2  0
M  END
$$$$
