QMV.pdb
     RDKit          3D

 25 24  0  0  1  0  0  0  0  0999 V2000
   15.0918  -14.6999  -14.8722 N   0  0  0  0  0  0  0  0  0  0  0  0
   14.0769  -13.7221  -15.0914 C   0  0  0  0  0  0  0  0  0  0  0  0
   13.0091  -14.1261  -15.6277 O   0  0  0  0  0  0  0  0  0  0  0  0
   14.2955  -12.3152  -14.6938 C   0  0  0  0  0  0  0  0  0  0  0  0
   15.4998  -12.0518  -13.8913 C   0  0  0  0  0  0  0  0  0  0  0  0
   16.3244  -10.8565  -14.1607 C   0  0  2  0  0  0  0  0  0  0  0  0
   17.5939  -11.4320  -14.7320 N   0  0  0  0  0  0  0  0  0  0  0  0
   16.7781  -10.0276  -13.0511 C   0  0  0  0  0  0  0  0  0  0  0  0
   17.0619  -10.5606  -11.9272 O   0  0  0  0  0  0  0  0  0  0  0  0
   21.4979   -5.3337  -12.0116 C   0  0  0  0  0  0  0  0  0  0  0  0
   21.2364   -6.7763  -13.0649 S   0  0  0  0  0  0  0  0  0  0  0  0
   19.8506   -7.7733  -12.5121 C   0  0  0  0  0  0  0  0  0  0  0  0
   18.5675   -6.9714  -12.4307 C   0  0  0  0  0  0  0  0  0  0  0  0
   17.4215   -7.8677  -11.9279 C   0  0  2  0  0  0  0  0  0  0  0  0
   16.9593   -8.6033  -13.0855 N   0  0  0  0  0  0  0  0  0  0  0  0
   16.3684   -6.9500  -11.4674 C   0  0  0  0  0  0  0  0  0  0  0  0
   15.6917   -6.3186  -12.3091 O   0  0  0  0  0  0  0  0  0  0  0  0
   15.2719   -6.4303   -7.3338 C   0  0  0  0  0  0  0  0  0  0  0  0
   14.2873   -6.3056   -8.4759 C   0  0  2  0  0  0  0  0  0  0  0  0
   13.6645   -7.6639   -8.6828 C   0  0  0  0  0  0  0  0  0  0  0  0
   15.0625   -5.8374   -9.6915 C   0  0  2  0  0  0  0  0  0  0  0  0
   16.0919   -6.7561  -10.0706 N   0  0  0  0  0  0  0  0  0  0  0  0
   15.6111   -4.4526   -9.4949 C   0  0  0  0  0  0  0  0  0  0  0  0
   16.8360   -4.2516   -9.3135 O   0  0  0  0  0  0  0  0  0  0  0  0
   14.7841   -3.3293   -9.5052 O   0  0  0  0  0  0  0  0  0  0  0  0
  1  2  1  0
  2  4  1  0
  3  2  2  0
  4  5  1  0
  6  8  1  0
  6  7  1  1
  6  5  1  0
  8  9  2  0
 11 10  1  0
 12 11  1  0
 12 13  1  0
 14 13  1  6
 14 16  1  0
 15 14  1  0
 15  8  1  0
 16 17  2  0
 16 22  1  0
 19 18  1  1
 19 21  1  0
 20 19  1  0
 21 23  1  0
 21 22  1  1
 23 24  2  0
 23 25  1  0
M  END
$$$$
