QMV.pdb
     RDKit          3D

 25 24  0  0  1  0  0  0  0  0999 V2000
   23.8155  -22.9312  -12.8435 N   0  0  0  0  0  0  0  0  0  0  0  0
   23.1917  -21.8391  -12.1711 C   0  0  0  0  0  0  0  0  0  0  0  0
   21.9358  -21.7628  -12.2611 O   0  0  0  0  0  0  0  0  0  0  0  0
   24.0047  -20.8658  -11.4114 C   0  0  0  0  0  0  0  0  0  0  0  0
   25.4632  -21.0295  -11.5084 C   0  0  0  0  0  0  0  0  0  0  0  0
   26.1278  -20.9955  -12.8271 C   0  0  2  0  0  0  0  0  0  0  0  0
   27.4649  -21.6351  -12.5585 N   0  0  0  0  0  0  0  0  0  0  0  0
   26.4628  -19.7133  -13.4335 C   0  0  0  0  0  0  0  0  0  0  0  0
   27.0750  -18.8234  -12.7543 O   0  0  0  0  0  0  0  0  0  0  0  0
   29.6769  -18.9144  -18.5539 C   0  0  0  0  0  0  0  0  0  0  0  0
   29.0566  -17.2211  -18.4708 S   0  0  0  0  0  0  0  0  0  0  0  0
   27.9508  -16.9750  -17.0790 C   0  0  0  0  0  0  0  0  0  0  0  0
   27.5450  -18.2849  -16.4344 C   0  0  0  0  0  0  0  0  0  0  0  0
   26.5450  -18.0192  -15.2946 C   0  0  2  0  0  0  0  0  0  0  0  0
   26.1732  -19.3215  -14.7846 N   0  0  0  0  0  0  0  0  0  0  0  0
   25.3802  -17.3798  -15.9253 C   0  0  0  0  0  0  0  0  0  0  0  0
   24.5769  -18.0775  -16.5833 O   0  0  0  0  0  0  0  0  0  0  0  0
   24.1676  -13.5127  -14.9107 C   0  0  0  0  0  0  0  0  0  0  0  0
   23.1909  -14.5130  -15.4892 C   0  0  2  0  0  0  0  0  0  0  0  0
   22.5875  -15.2720  -14.3334 C   0  0  0  0  0  0  0  0  0  0  0  0
   23.9699  -15.4156  -16.4253 C   0  0  2  0  0  0  0  0  0  0  0  0
   25.1359  -15.9686  -15.8072 N   0  0  0  0  0  0  0  0  0  0  0  0
   24.3126  -14.7133  -17.7086 C   0  0  0  0  0  0  0  0  0  0  0  0
   25.4334  -14.1782  -17.8848 O   0  0  0  0  0  0  0  0  0  0  0  0
   23.4009  -14.6249  -18.7607 O   0  0  0  0  0  0  0  0  0  0  0  0
  1  2  1  0
  2  4  1  0
  3  2  2  0
  4  5  1  0
  6  8  1  0
  6  7  1  1
  6  5  1  0
  8  9  2  0
 11 10  1  0
 12 11  1  0
 12 13  1  0
 14 13  1  6
 14 16  1  0
 15 14  1  0
 15  8  1  0
 16 17  2  0
 16 22  1  0
 19 18  1  1
 19 21  1  0
 20 19  1  0
 21 23  1  0
 21 22  1  1
 23 24  2  0
 23 25  1  0
M  END
$$$$
