QMV.pdb
     RDKit          3D

 25 24  0  0  1  0  0  0  0  0999 V2000
   28.2528  -17.6715  -15.5474 N   0  0  0  0  0  0  0  0  0  0  0  0
   28.3749  -18.2459  -16.8471 C   0  0  0  0  0  0  0  0  0  0  0  0
   29.2218  -17.7203  -17.6201 O   0  0  0  0  0  0  0  0  0  0  0  0
   27.5391  -19.4018  -17.2354 C   0  0  0  0  0  0  0  0  0  0  0  0
   26.7360  -20.0062  -16.1616 C   0  0  0  0  0  0  0  0  0  0  0  0
   27.3949  -20.7658  -15.0797 C   0  0  2  0  0  0  0  0  0  0  0  0
   27.7424  -22.0758  -15.7372 N   0  0  0  0  0  0  0  0  0  0  0  0
   26.6308  -21.1520  -13.9003 C   0  0  0  0  0  0  0  0  0  0  0  0
   25.7859  -22.1057  -13.9679 O   0  0  0  0  0  0  0  0  0  0  0  0
   25.3818  -20.5181   -6.0763 C   0  0  0  0  0  0  0  0  0  0  0  0
   26.1841  -19.8471   -7.5476 S   0  0  0  0  0  0  0  0  0  0  0  0
   25.5609  -20.5935   -9.0559 C   0  0  0  0  0  0  0  0  0  0  0  0
   26.3920  -20.2152  -10.2651 C   0  0  0  0  0  0  0  0  0  0  0  0
   25.8520  -20.9317  -11.5158 C   0  0  2  0  0  0  0  0  0  0  0  0
   26.7340  -20.5531  -12.5989 N   0  0  0  0  0  0  0  0  0  0  0  0
   24.5105  -20.3752  -11.7479 C   0  0  0  0  0  0  0  0  0  0  0  0
   24.3922  -19.1778  -12.0905 O   0  0  0  0  0  0  0  0  0  0  0  0
   22.3641  -21.2953  -14.3141 C   0  0  0  0  0  0  0  0  0  0  0  0
   21.4285  -21.3891  -13.1287 C   0  0  2  0  0  0  0  0  0  0  0  0
   20.1069  -20.7970  -13.5512 C   0  0  0  0  0  0  0  0  0  0  0  0
   22.0651  -20.6189  -11.9887 C   0  0  2  0  0  0  0  0  0  0  0  0
   23.3241  -21.1710  -11.5918 N   0  0  0  0  0  0  0  0  0  0  0  0
   21.1303  -20.4936  -10.8192 C   0  0  0  0  0  0  0  0  0  0  0  0
   21.0391  -21.3957   -9.9523 O   0  0  0  0  0  0  0  0  0  0  0  0
   20.3225  -19.3697  -10.6450 O   0  0  0  0  0  0  0  0  0  0  0  0
  1  2  1  0
  2  4  1  0
  3  2  2  0
  4  5  1  0
  6  8  1  0
  6  7  1  6
  6  5  1  0
  8  9  2  0
 11 10  1  0
 12 11  1  0
 12 13  1  0
 14 13  1  1
 14 16  1  0
 15 14  1  0
 15  8  1  0
 16 17  2  0
 16 22  1  0
 19 18  1  6
 19 21  1  0
 20 19  1  0
 21 23  1  0
 21 22  1  1
 23 24  2  0
 23 25  1  0
M  END
$$$$
