QMV.pdb
     RDKit          3D

 25 24  0  0  1  0  0  0  0  0999 V2000
   18.6651  -21.3003  -11.9514 N   0  0  0  0  0  0  0  0  0  0  0  0
   18.7109  -22.2206  -13.0399 C   0  0  0  0  0  0  0  0  0  0  0  0
   17.7501  -23.0323  -13.1347 O   0  0  0  0  0  0  0  0  0  0  0  0
   19.8397  -22.1947  -13.9941 C   0  0  0  0  0  0  0  0  0  0  0  0
   20.8252  -21.1206  -13.7977 C   0  0  0  0  0  0  0  0  0  0  0  0
   21.6138  -21.0558  -12.5505 C   0  0  2  0  0  0  0  0  0  0  0  0
   20.9935  -19.9017  -11.8072 N   0  0  0  0  0  0  0  0  0  0  0  0
   23.0307  -20.7201  -12.6091 C   0  0  0  0  0  0  0  0  0  0  0  0
   23.3994  -19.5607  -12.9934 O   0  0  0  0  0  0  0  0  0  0  0  0
   30.0795  -20.1716  -11.2848 C   0  0  0  0  0  0  0  0  0  0  0  0
   28.3546  -20.5938  -10.9604 S   0  0  0  0  0  0  0  0  0  0  0  0
   27.8109  -22.0028  -11.9297 C   0  0  0  0  0  0  0  0  0  0  0  0
   26.3353  -22.2902  -11.7401 C   0  0  0  0  0  0  0  0  0  0  0  0
   25.4971  -21.1885  -12.4134 C   0  0  2  0  0  0  0  0  0  0  0  0
   24.1162  -21.5918  -12.2558 N   0  0  0  0  0  0  0  0  0  0  0  0
   25.8659  -21.2189  -13.8369 C   0  0  0  0  0  0  0  0  0  0  0  0
   25.4694  -22.1635  -14.5548 O   0  0  0  0  0  0  0  0  0  0  0  0
   26.0453  -17.9675  -16.2476 C   0  0  0  0  0  0  0  0  0  0  0  0
   27.2612  -18.8549  -16.4001 C   0  0  2  0  0  0  0  0  0  0  0  0
   27.5975  -18.9079  -17.8697 C   0  0  0  0  0  0  0  0  0  0  0  0
   26.8986  -20.2176  -15.8439 C   0  0  2  0  0  0  0  0  0  0  0  0
   26.6731  -20.1892  -14.4311 N   0  0  0  0  0  0  0  0  0  0  0  0
   27.9225  -21.2532  -16.2131 C   0  0  0  0  0  0  0  0  0  0  0  0
   27.7274  -22.0641  -17.1501 O   0  0  0  0  0  0  0  0  0  0  0  0
   29.1349  -21.3595  -15.5314 O   0  0  0  0  0  0  0  0  0  0  0  0
  1  2  1  0
  2  4  1  0
  3  2  2  0
  4  5  1  0
  6  8  1  0
  6  7  1  1
  6  5  1  0
  8  9  2  0
 11 10  1  0
 12 11  1  0
 12 13  1  0
 14 13  1  1
 14 16  1  0
 15 14  1  0
 15  8  1  0
 16 17  2  0
 16 22  1  0
 19 18  1  6
 19 21  1  0
 20 19  1  0
 21 23  1  0
 21 22  1  1
 23 24  2  0
 23 25  1  0
M  END
$$$$
