QMV.pdb
     RDKit          3D

 25 24  0  0  1  0  0  0  0  0999 V2000
   28.5845  -19.0684  -18.5019 N   0  0  0  0  0  0  0  0  0  0  0  0
   28.8733  -17.8493  -17.8205 C   0  0  0  0  0  0  0  0  0  0  0  0
   29.5772  -17.0072  -18.4421 O   0  0  0  0  0  0  0  0  0  0  0  0
   28.3543  -17.6139  -16.4564 C   0  0  0  0  0  0  0  0  0  0  0  0
   27.4748  -18.6597  -15.9121 C   0  0  0  0  0  0  0  0  0  0  0  0
   27.9858  -19.6070  -14.9006 C   0  0  2  0  0  0  0  0  0  0  0  0
   28.6537  -20.6729  -15.7295 N   0  0  0  0  0  0  0  0  0  0  0  0
   27.0480  -20.3439  -14.0631 C   0  0  0  0  0  0  0  0  0  0  0  0
   26.3912  -21.3251  -14.5465 O   0  0  0  0  0  0  0  0  0  0  0  0
   26.8085  -20.0024   -7.5311 C   0  0  0  0  0  0  0  0  0  0  0  0
   25.2955  -20.9361   -7.8436 S   0  0  0  0  0  0  0  0  0  0  0  0
   25.0719  -21.2949   -9.5876 C   0  0  0  0  0  0  0  0  0  0  0  0
   25.9712  -20.4470  -10.4642 C   0  0  0  0  0  0  0  0  0  0  0  0
   25.7917  -20.8474  -11.9397 C   0  0  2  0  0  0  0  0  0  0  0  0
   26.7719  -20.0806  -12.6784 N   0  0  0  0  0  0  0  0  0  0  0  0
   24.4364  -20.4124  -12.3103 C   0  0  0  0  0  0  0  0  0  0  0  0
   24.1696  -19.1907  -12.3414 O   0  0  0  0  0  0  0  0  0  0  0  0
   21.8816  -22.5406  -14.7957 C   0  0  0  0  0  0  0  0  0  0  0  0
   21.8644  -21.0525  -14.5222 C   0  0  2  0  0  0  0  0  0  0  0  0
   22.9408  -20.4265  -15.3739 C   0  0  0  0  0  0  0  0  0  0  0  0
   22.1210  -20.8626  -13.0403 C   0  0  2  0  0  0  0  0  0  0  0  0
   23.4032  -21.3553  -12.6398 N   0  0  0  0  0  0  0  0  0  0  0  0
   21.0215  -21.4619  -12.2100 C   0  0  0  0  0  0  0  0  0  0  0  0
   19.8649  -20.9765  -12.2037 O   0  0  0  0  0  0  0  0  0  0  0  0
   21.2373  -22.5839  -11.4097 O   0  0  0  0  0  0  0  0  0  0  0  0
  1  2  1  0
  2  4  1  0
  3  2  2  0
  4  5  1  0
  6  8  1  0
  6  7  1  6
  6  5  1  0
  8  9  2  0
 11 10  1  0
 12 11  1  0
 12 13  1  0
 14 13  1  1
 14 16  1  0
 15 14  1  0
 15  8  1  0
 16 17  2  0
 16 22  1  0
 19 18  1  1
 19 21  1  0
 20 19  1  0
 21 23  1  0
 21 22  1  1
 23 24  2  0
 23 25  1  0
M  END
$$$$
