QMV.pdb
     RDKit          3D

 25 24  0  0  1  0  0  0  0  0999 V2000
   17.3053  -22.1285  -12.7720 N   0  0  0  0  0  0  0  0  0  0  0  0
   17.1075  -22.0415  -14.1817 C   0  0  0  0  0  0  0  0  0  0  0  0
   16.0840  -22.6144  -14.6454 O   0  0  0  0  0  0  0  0  0  0  0  0
   18.0703  -21.3048  -15.0278 C   0  0  0  0  0  0  0  0  0  0  0  0
   19.2338  -20.7334  -14.3326 C   0  0  0  0  0  0  0  0  0  0  0  0
   20.5981  -21.1831  -14.6760 C   0  0  2  0  0  0  0  0  0  0  0  0
   20.7857  -22.4081  -13.8196 N   0  0  0  0  0  0  0  0  0  0  0  0
   21.7403  -20.3404  -14.3456 C   0  0  0  0  0  0  0  0  0  0  0  0
   21.5800  -19.0889  -14.1560 O   0  0  0  0  0  0  0  0  0  0  0  0
   26.7232  -22.3052  -10.7537 C   0  0  0  0  0  0  0  0  0  0  0  0
   26.9091  -20.5122  -10.8504 S   0  0  0  0  0  0  0  0  0  0  0  0
   26.2068  -19.8412  -12.3593 C   0  0  0  0  0  0  0  0  0  0  0  0
   25.1107  -20.7244  -12.9202 C   0  0  0  0  0  0  0  0  0  0  0  0
   24.1519  -19.8840  -13.7828 C   0  0  2  0  0  0  0  0  0  0  0  0
   23.0972  -20.7861  -14.1930 N   0  0  0  0  0  0  0  0  0  0  0  0
   24.9331  -19.4642  -14.9561 C   0  0  0  0  0  0  0  0  0  0  0  0
   25.2385  -20.3096  -15.8262 O   0  0  0  0  0  0  0  0  0  0  0  0
   27.2531  -15.8629  -15.2832 C   0  0  0  0  0  0  0  0  0  0  0  0
   26.3460  -16.2691  -16.4239 C   0  0  2  0  0  0  0  0  0  0  0  0
   25.0706  -15.4746  -16.2887 C   0  0  0  0  0  0  0  0  0  0  0  0
   26.1090  -17.7615  -16.3033 C   0  0  2  0  0  0  0  0  0  0  0  0
   25.3587  -18.1032  -15.1338 N   0  0  0  0  0  0  0  0  0  0  0  0
   27.3979  -18.5306  -16.3698 C   0  0  0  0  0  0  0  0  0  0  0  0
   28.0322  -18.8393  -15.3326 O   0  0  0  0  0  0  0  0  0  0  0  0
   27.9466  -18.9357  -17.5867 O   0  0  0  0  0  0  0  0  0  0  0  0
  1  2  1  0
  2  4  1  0
  3  2  2  0
  4  5  1  0
  6  8  1  0
  6  7  1  1
  6  5  1  0
  8  9  2  0
 11 10  1  0
 12 11  1  0
 12 13  1  0
 14 13  1  1
 14 16  1  0
 15 14  1  0
 15  8  1  0
 16 17  2  0
 16 22  1  0
 19 18  1  1
 19 21  1  0
 20 19  1  0
 21 23  1  0
 21 22  1  1
 23 24  2  0
 23 25  1  0
M  END
$$$$
