QMV.pdb
     RDKit          3D

 25 24  0  0  1  0  0  0  0  0999 V2000
   27.6515  -16.6275  -15.3353 N   0  0  0  0  0  0  0  0  0  0  0  0
   28.4346  -17.3213  -16.3044 C   0  0  0  0  0  0  0  0  0  0  0  0
   29.5657  -16.8317  -16.5728 O   0  0  0  0  0  0  0  0  0  0  0  0
   27.9192  -18.5525  -16.9401 C   0  0  0  0  0  0  0  0  0  0  0  0
   27.1856  -19.4741  -16.0592 C   0  0  0  0  0  0  0  0  0  0  0  0
   27.8652  -20.0963  -14.9049 C   0  0  2  0  0  0  0  0  0  0  0  0
   28.6499  -21.2208  -15.5288 N   0  0  0  0  0  0  0  0  0  0  0  0
   27.0755  -20.7473  -13.8674 C   0  0  0  0  0  0  0  0  0  0  0  0
   26.3095  -21.7239  -14.1629 O   0  0  0  0  0  0  0  0  0  0  0  0
   27.5495  -20.2321   -7.0819 C   0  0  0  0  0  0  0  0  0  0  0  0
   25.7957  -20.2064   -7.5088 S   0  0  0  0  0  0  0  0  0  0  0  0
   25.4864  -20.9018   -9.1340 C   0  0  0  0  0  0  0  0  0  0  0  0
   26.3843  -20.2962  -10.1938 C   0  0  0  0  0  0  0  0  0  0  0  0
   26.0733  -20.9247  -11.5641 C   0  0  2  0  0  0  0  0  0  0  0  0
   27.0689  -20.3996  -12.4739 N   0  0  0  0  0  0  0  0  0  0  0  0
   24.7419  -20.4255  -11.9403 C   0  0  0  0  0  0  0  0  0  0  0  0
   24.5823  -19.2043  -12.1593 O   0  0  0  0  0  0  0  0  0  0  0  0
   21.7670  -22.8424  -13.6850 C   0  0  0  0  0  0  0  0  0  0  0  0
   21.9708  -21.3563  -13.8830 C   0  0  2  0  0  0  0  0  0  0  0  0
   23.0463  -21.1853  -14.9270 C   0  0  0  0  0  0  0  0  0  0  0  0
   22.3727  -20.7729  -12.5428 C   0  0  2  0  0  0  0  0  0  0  0  0
   23.6120  -21.3047  -12.0646 N   0  0  0  0  0  0  0  0  0  0  0  0
   21.2803  -20.9314  -11.5236 C   0  0  0  0  0  0  0  0  0  0  0  0
   21.4168  -21.6801  -10.5264 O   0  0  0  0  0  0  0  0  0  0  0  0
   20.0665  -20.2539  -11.6400 O   0  0  0  0  0  0  0  0  0  0  0  0
  1  2  1  0
  2  4  1  0
  3  2  2  0
  4  5  1  0
  6  8  1  0
  6  7  1  6
  6  5  1  0
  8  9  2  0
 11 10  1  0
 12 11  1  0
 12 13  1  0
 14 13  1  1
 14 16  1  0
 15 14  1  0
 15  8  1  0
 16 17  2  0
 16 22  1  0
 19 18  1  1
 19 21  1  0
 20 19  1  0
 21 23  1  0
 21 22  1  1
 23 24  2  0
 23 25  1  0
M  END
$$$$
