QMV.pdb
     RDKit          3D

 25 24  0  0  1  0  0  0  0  0999 V2000
   26.3926  -18.5292  -18.0717 N   0  0  0  0  0  0  0  0  0  0  0  0
   27.7958  -18.7815  -18.1070 C   0  0  0  0  0  0  0  0  0  0  0  0
   28.3689  -18.6336  -19.2209 O   0  0  0  0  0  0  0  0  0  0  0  0
   28.5134  -19.1898  -16.8807 C   0  0  0  0  0  0  0  0  0  0  0  0
   27.7037  -19.2654  -15.6551 C   0  0  0  0  0  0  0  0  0  0  0  0
   27.9408  -20.3439  -14.6743 C   0  0  2  0  0  0  0  0  0  0  0  0
   28.4743  -21.4708  -15.5197 N   0  0  0  0  0  0  0  0  0  0  0  0
   26.8132  -20.9351  -13.9650 C   0  0  0  0  0  0  0  0  0  0  0  0
   26.0838  -21.8113  -14.5379 O   0  0  0  0  0  0  0  0  0  0  0  0
   26.0759  -19.5439   -7.7482 C   0  0  0  0  0  0  0  0  0  0  0  0
   26.6608  -21.2146   -8.1021 S   0  0  0  0  0  0  0  0  0  0  0  0
   26.5157  -21.6260   -9.8428 C   0  0  0  0  0  0  0  0  0  0  0  0
   25.3546  -20.9106  -10.5031 C   0  0  0  0  0  0  0  0  0  0  0  0
   25.2868  -21.2887  -11.9937 C   0  0  2  0  0  0  0  0  0  0  0  0
   26.4149  -20.6320  -12.6188 N   0  0  0  0  0  0  0  0  0  0  0  0
   24.0318  -20.7097  -12.4967 C   0  0  0  0  0  0  0  0  0  0  0  0
   23.9141  -19.4665  -12.5705 O   0  0  0  0  0  0  0  0  0  0  0  0
   20.5744  -20.6056  -15.6577 C   0  0  0  0  0  0  0  0  0  0  0  0
   21.7948  -21.2744  -15.0640 C   0  0  2  0  0  0  0  0  0  0  0  0
   21.6533  -22.7579  -15.2989 C   0  0  0  0  0  0  0  0  0  0  0  0
   21.8279  -20.9267  -13.5889 C   0  0  2  0  0  0  0  0  0  0  0  0
   22.9297  -21.5351  -12.9083 N   0  0  0  0  0  0  0  0  0  0  0  0
   20.5238  -21.2517  -12.9172 C   0  0  0  0  0  0  0  0  0  0  0  0
   20.4239  -22.2000  -12.1021 O   0  0  0  0  0  0  0  0  0  0  0  0
   19.3668  -20.5145  -13.1696 O   0  0  0  0  0  0  0  0  0  0  0  0
  1  2  1  0
  2  4  1  0
  3  2  2  0
  4  5  1  0
  6  8  1  0
  6  7  1  6
  6  5  1  0
  8  9  2  0
 11 10  1  0
 12 11  1  0
 12 13  1  0
 14 13  1  1
 14 16  1  0
 15 14  1  0
 15  8  1  0
 16 17  2  0
 16 22  1  0
 19 18  1  6
 19 21  1  0
 20 19  1  0
 21 23  1  0
 21 22  1  1
 23 24  2  0
 23 25  1  0
M  END
$$$$
