QMV.pdb
     RDKit          3D

 25 24  0  0  1  0  0  0  0  0999 V2000
   27.9394  -17.4640  -15.7717 N   0  0  0  0  0  0  0  0  0  0  0  0
   28.5598  -17.9655  -16.9539 C   0  0  0  0  0  0  0  0  0  0  0  0
   29.4606  -17.2476  -17.4677 O   0  0  0  0  0  0  0  0  0  0  0  0
   28.1476  -19.2675  -17.5200 C   0  0  0  0  0  0  0  0  0  0  0  0
   27.1822  -20.0401  -16.7235 C   0  0  0  0  0  0  0  0  0  0  0  0
   27.6415  -20.8319  -15.5643 C   0  0  2  0  0  0  0  0  0  0  0  0
   28.0892  -22.1292  -16.1855 N   0  0  0  0  0  0  0  0  0  0  0  0
   26.6844  -21.2387  -14.5434 C   0  0  0  0  0  0  0  0  0  0  0  0
   25.8293  -22.1520  -14.7939 O   0  0  0  0  0  0  0  0  0  0  0  0
   27.1808  -20.4488   -7.9742 C   0  0  0  0  0  0  0  0  0  0  0  0
   25.3974  -20.3659   -8.2412 S   0  0  0  0  0  0  0  0  0  0  0  0
   24.9332  -20.9309   -9.8800 C   0  0  0  0  0  0  0  0  0  0  0  0
   25.9224  -20.4860  -10.9380 C   0  0  0  0  0  0  0  0  0  0  0  0
   25.5629  -21.1247  -12.2917 C   0  0  2  0  0  0  0  0  0  0  0  0
   26.5967  -20.7043  -13.2131 N   0  0  0  0  0  0  0  0  0  0  0  0
   24.2749  -20.5327  -12.6839 C   0  0  0  0  0  0  0  0  0  0  0  0
   24.1947  -19.2970  -12.8616 O   0  0  0  0  0  0  0  0  0  0  0  0
   21.2249  -22.6475  -14.5936 C   0  0  0  0  0  0  0  0  0  0  0  0
   21.4299  -21.1497  -14.6546 C   0  0  2  0  0  0  0  0  0  0  0  0
   22.4669  -20.8808  -15.7167 C   0  0  0  0  0  0  0  0  0  0  0  0
   21.8846  -20.6997  -13.2803 C   0  0  2  0  0  0  0  0  0  0  0  0
   23.0985  -21.3367  -12.8702 N   0  0  0  0  0  0  0  0  0  0  0  0
   20.8004  -20.8786  -12.2557 C   0  0  0  0  0  0  0  0  0  0  0  0
   20.8750  -21.7625  -11.3687 O   0  0  0  0  0  0  0  0  0  0  0  0
   19.6632  -20.0708  -12.2447 O   0  0  0  0  0  0  0  0  0  0  0  0
  1  2  1  0
  2  4  1  0
  3  2  2  0
  4  5  1  0
  6  8  1  0
  6  7  1  6
  6  5  1  0
  8  9  2  0
 11 10  1  0
 12 11  1  0
 12 13  1  0
 14 13  1  1
 14 16  1  0
 15 14  1  0
 15  8  1  0
 16 17  2  0
 16 22  1  0
 19 18  1  1
 19 21  1  0
 20 19  1  0
 21 23  1  0
 21 22  1  1
 23 24  2  0
 23 25  1  0
M  END
$$$$
