QMV.pdb
     RDKit          3D

 25 24  0  0  1  0  0  0  0  0999 V2000
   22.7570  -21.4847  -16.9981 N   0  0  0  0  0  0  0  0  0  0  0  0
   21.5640  -21.8724  -17.6766 C   0  0  0  0  0  0  0  0  0  0  0  0
   21.6059  -22.9575  -18.3184 O   0  0  0  0  0  0  0  0  0  0  0  0
   20.3549  -21.0248  -17.6069 C   0  0  0  0  0  0  0  0  0  0  0  0
   20.4546  -19.8282  -16.7573 C   0  0  0  0  0  0  0  0  0  0  0  0
   21.7080  -19.5344  -16.0333 C   0  0  2  0  0  0  0  0  0  0  0  0
   21.4768  -20.1463  -14.6764 N   0  0  0  0  0  0  0  0  0  0  0  0
   22.0668  -18.1520  -15.7431 C   0  0  0  0  0  0  0  0  0  0  0  0
   21.2952  -17.4251  -15.0330 O   0  0  0  0  0  0  0  0  0  0  0  0
   28.0661  -15.5000  -16.5819 C   0  0  0  0  0  0  0  0  0  0  0  0
   27.2647  -14.3821  -15.4128 S   0  0  0  0  0  0  0  0  0  0  0  0
   25.4840  -14.6020  -15.3810 C   0  0  0  0  0  0  0  0  0  0  0  0
   25.0657  -15.9494  -15.9339 C   0  0  0  0  0  0  0  0  0  0  0  0
   23.5392  -16.1107  -15.8192 C   0  0  2  0  0  0  0  0  0  0  0  0
   23.2592  -17.4832  -16.1831 N   0  0  0  0  0  0  0  0  0  0  0  0
   22.9643  -15.2019  -16.8226 C   0  0  0  0  0  0  0  0  0  0  0  0
   23.0905  -15.4689  -18.0382 O   0  0  0  0  0  0  0  0  0  0  0  0
   19.5261  -14.0670  -17.5345 C   0  0  0  0  0  0  0  0  0  0  0  0
   20.3125  -12.7943  -17.3088 C   0  0  2  0  0  0  0  0  0  0  0  0
   19.8411  -11.7877  -18.3288 C   0  0  0  0  0  0  0  0  0  0  0  0
   21.7804  -13.1350  -17.4734 C   0  0  2  0  0  0  0  0  0  0  0  0
   22.2575  -14.0088  -16.4457 N   0  0  0  0  0  0  0  0  0  0  0  0
   22.6252  -11.8966  -17.5735 C   0  0  0  0  0  0  0  0  0  0  0  0
   22.6897  -11.2302  -18.6343 O   0  0  0  0  0  0  0  0  0  0  0  0
   23.3749  -11.4326  -16.4925 O   0  0  0  0  0  0  0  0  0  0  0  0
  1  2  1  0
  2  4  1  0
  3  2  2  0
  4  5  1  0
  6  8  1  0
  6  7  1  1
  6  5  1  0
  8  9  2  0
 11 10  1  0
 12 11  1  0
 12 13  1  0
 14 13  1  6
 14 16  1  0
 15 14  1  0
 15  8  1  0
 16 17  2  0
 16 22  1  0
 19 18  1  6
 19 21  1  0
 20 19  1  0
 21 23  1  0
 21 22  1  1
 23 24  2  0
 23 25  1  0
M  END
$$$$
