QMV.pdb
     RDKit          3D

 25 24  0  0  1  0  0  0  0  0999 V2000
   30.0379  -19.3952  -18.3726 N   0  0  0  0  0  0  0  0  0  0  0  0
   28.7108  -19.1599  -17.9066 C   0  0  0  0  0  0  0  0  0  0  0  0
   27.7720  -19.5154  -18.6704 O   0  0  0  0  0  0  0  0  0  0  0  0
   28.4815  -18.5333  -16.5874 C   0  0  0  0  0  0  0  0  0  0  0  0
   27.5512  -19.2379  -15.6921 C   0  0  0  0  0  0  0  0  0  0  0  0
   28.0623  -20.2208  -14.7152 C   0  0  2  0  0  0  0  0  0  0  0  0
   28.4653  -21.3890  -15.5766 N   0  0  0  0  0  0  0  0  0  0  0  0
   27.1554  -20.8002  -13.7325 C   0  0  0  0  0  0  0  0  0  0  0  0
   26.3855  -21.7634  -14.0604 O   0  0  0  0  0  0  0  0  0  0  0  0
   27.4374  -20.1792   -7.0834 C   0  0  0  0  0  0  0  0  0  0  0  0
   25.6756  -20.3945   -7.4125 S   0  0  0  0  0  0  0  0  0  0  0  0
   25.3682  -20.9973   -9.0746 C   0  0  0  0  0  0  0  0  0  0  0  0
   26.3271  -20.3999  -10.0844 C   0  0  0  0  0  0  0  0  0  0  0  0
   26.0343  -20.9696  -11.4841 C   0  0  2  0  0  0  0  0  0  0  0  0
   27.0306  -20.3925  -12.3610 N   0  0  0  0  0  0  0  0  0  0  0  0
   24.7000  -20.4696  -11.8485 C   0  0  0  0  0  0  0  0  0  0  0  0
   24.5344  -19.2452  -12.0444 O   0  0  0  0  0  0  0  0  0  0  0  0
   21.8622  -22.7423  -13.8558 C   0  0  0  0  0  0  0  0  0  0  0  0
   21.9895  -21.2347  -13.8524 C   0  0  2  0  0  0  0  0  0  0  0  0
   23.0791  -20.8733  -14.8312 C   0  0  0  0  0  0  0  0  0  0  0  0
   22.3263  -20.8130  -12.4358 C   0  0  2  0  0  0  0  0  0  0  0  0
   23.5738  -21.3514  -11.9871 N   0  0  0  0  0  0  0  0  0  0  0  0
   21.2133  -21.1455  -11.4830 C   0  0  0  0  0  0  0  0  0  0  0  0
   21.3606  -21.9961  -10.5729 O   0  0  0  0  0  0  0  0  0  0  0  0
   19.9672  -20.5240  -11.5675 O   0  0  0  0  0  0  0  0  0  0  0  0
  1  2  1  0
  2  4  1  0
  3  2  2  0
  4  5  1  0
  6  8  1  0
  6  7  1  6
  6  5  1  0
  8  9  2  0
 11 10  1  0
 12 11  1  0
 12 13  1  0
 14 13  1  1
 14 16  1  0
 15 14  1  0
 15  8  1  0
 16 17  2  0
 16 22  1  0
 19 18  1  1
 19 21  1  0
 20 19  1  0
 21 23  1  0
 21 22  1  1
 23 24  2  0
 23 25  1  0
M  END
$$$$
