QSI.pdb
     RDKit          3D

 24 23  0  0  1  0  0  0  0  0999 V2000
    8.2136  -12.4123   16.9985 N   0  0  0  0  0  0  0  0  0  0  0  0
    8.2849  -13.7609   16.4886 C   0  0  0  0  0  0  0  0  0  0  0  0
    7.7632  -13.9617   15.3745 O   0  0  0  0  0  0  0  0  0  0  0  0
    8.9387  -14.8062   17.2697 C   0  0  0  0  0  0  0  0  0  0  0  0
    8.3708  -15.0465   18.6341 C   0  0  0  0  0  0  0  0  0  0  0  0
    8.9779  -16.2259   19.3108 C   0  0  2  0  0  0  0  0  0  0  0  0
    8.9551  -17.4597   18.5795 N   0  0  0  0  0  0  0  0  0  0  0  0
    8.2698  -16.4619   20.6102 C   0  0  0  0  0  0  0  0  0  0  0  0
    7.0388  -16.6585   20.6018 O   0  0  0  0  0  0  0  0  0  0  0  0
   10.3578  -18.1067   23.3359 O   0  0  0  0  0  0  0  0  0  0  0  0
    8.9828  -18.0935   23.5416 C   0  0  0  0  0  0  0  0  0  0  0  0
    8.3864  -16.7477   23.1101 C   0  0  2  0  0  0  0  0  0  0  0  0
    8.9866  -16.4602   21.8108 N   0  0  0  0  0  0  0  0  0  0  0  0
    8.9003  -15.7462   24.0694 C   0  0  0  0  0  0  0  0  0  0  0  0
   10.0210  -15.1889   23.8783 O   0  0  0  0  0  0  0  0  0  0  0  0
    5.6805  -12.1229   26.2031 C   0  0  0  0  0  0  0  0  0  0  0  0
    6.8821  -12.8521   25.6367 C   0  0  0  0  0  0  0  0  0  0  0  0
    7.6303  -13.5228   26.7636 C   0  0  2  0  0  0  0  0  0  0  0  0
    8.1352  -12.5265   27.7764 C   0  0  0  0  0  0  0  0  0  0  0  0
    8.7523  -14.3647   26.1931 C   0  0  2  0  0  0  0  0  0  0  0  0
    8.2162  -15.3407   25.2324 N   0  0  0  0  0  0  0  0  0  0  0  0
    9.4707  -15.1505   27.2247 C   0  0  0  0  0  0  0  0  0  0  0  0
    9.2186  -16.4838   27.4985 O   0  0  0  0  0  0  0  0  0  0  0  0
   10.3891  -14.6326   27.9427 O   0  0  0  0  0  0  0  0  0  0  0  0
  1  2  1  0
  2  4  1  0
  2  3  2  0
  4  5  1  0
  6  5  1  0
  6  7  1  6
  8  9  2  0
  8  6  1  0
 10 11  1  0
 12 11  1  1
 12 13  1  0
 13  8  1  0
 14 12  1  0
 14 21  1  0
 15 14  2  0
 17 16  1  0
 18 17  1  0
 18 19  1  1
 20 21  1  6
 20 18  1  0
 22 20  1  0
 23 22  1  0
 24 22  2  0
M  END
$$$$
