QSI.pdb
     RDKit          3D

 24 23  0  0  1  0  0  0  0  0999 V2000
    7.0582  -15.4741   16.1779 N   0  0  0  0  0  0  0  0  0  0  0  0
    7.8363  -14.3001   15.8614 C   0  0  0  0  0  0  0  0  0  0  0  0
    8.2671  -14.2173   14.6946 O   0  0  0  0  0  0  0  0  0  0  0  0
    8.0860  -13.2887   16.8836 C   0  0  0  0  0  0  0  0  0  0  0  0
    7.5380  -13.5928   18.2434 C   0  0  0  0  0  0  0  0  0  0  0  0
    8.5891  -14.0309   19.2030 C   0  0  2  0  0  0  0  0  0  0  0  0
    9.3293  -15.2055   18.8423 N   0  0  0  0  0  0  0  0  0  0  0  0
    7.9560  -14.2917   20.5358 C   0  0  0  0  0  0  0  0  0  0  0  0
    7.3137  -13.3783   21.0902 O   0  0  0  0  0  0  0  0  0  0  0  0
    8.8339  -17.8352   22.6841 O   0  0  0  0  0  0  0  0  0  0  0  0
    7.5188  -17.4435   22.4593 C   0  0  0  0  0  0  0  0  0  0  0  0
    7.4172  -15.9147   22.3853 C   0  0  2  0  0  0  0  0  0  0  0  0
    8.0880  -15.5446   21.1428 N   0  0  0  0  0  0  0  0  0  0  0  0
    8.2340  -15.3959   23.5039 C   0  0  0  0  0  0  0  0  0  0  0  0
    9.4910  -15.2962   23.3898 O   0  0  0  0  0  0  0  0  0  0  0  0
    6.0360  -11.9467   27.3123 C   0  0  0  0  0  0  0  0  0  0  0  0
    6.5663  -13.2752   26.8122 C   0  0  0  0  0  0  0  0  0  0  0  0
    7.9562  -13.0759   26.2571 C   0  0  2  0  0  0  0  0  0  0  0  0
    7.9759  -12.0688   25.1352 C   0  0  0  0  0  0  0  0  0  0  0  0
    8.5232  -14.4121   25.8254 C   0  0  2  0  0  0  0  0  0  0  0  0
    7.7069  -14.9840   24.7439 N   0  0  0  0  0  0  0  0  0  0  0  0
    8.5319  -15.4181   26.9141 C   0  0  0  0  0  0  0  0  0  0  0  0
    9.3714  -15.3633   28.0134 O   0  0  0  0  0  0  0  0  0  0  0  0
    7.7459  -16.4227   26.9047 O   0  0  0  0  0  0  0  0  0  0  0  0
  1  2  1  0
  2  4  1  0
  2  3  2  0
  4  5  1  0
  6  5  1  0
  6  7  1  6
  8  9  2  0
  8  6  1  0
 10 11  1  0
 12 11  1  1
 12 13  1  0
 13  8  1  0
 14 12  1  0
 14 21  1  0
 15 14  2  0
 17 16  1  0
 18 17  1  0
 18 19  1  6
 20 21  1  6
 20 18  1  0
 22 20  1  0
 23 22  1  0
 24 22  2  0
M  END
$$$$
