QSI.pdb
     RDKit          3D

 24 23  0  0  1  0  0  0  0  0999 V2000
   14.1628  -13.5428   18.1934 N   0  0  0  0  0  0  0  0  0  0  0  0
   14.1441  -14.9282   17.7880 C   0  0  0  0  0  0  0  0  0  0  0  0
   14.9688  -15.2625   16.9151 O   0  0  0  0  0  0  0  0  0  0  0  0
   13.1913  -15.8553   18.3902 C   0  0  0  0  0  0  0  0  0  0  0  0
   12.3388  -15.2892   19.4831 C   0  0  0  0  0  0  0  0  0  0  0  0
   11.3276  -16.2600   19.9859 C   0  0  2  0  0  0  0  0  0  0  0  0
   10.6867  -17.0790   18.9979 N   0  0  0  0  0  0  0  0  0  0  0  0
   10.2524  -15.5124   20.7143 C   0  0  0  0  0  0  0  0  0  0  0  0
   10.4168  -14.3012   20.9593 O   0  0  0  0  0  0  0  0  0  0  0  0
    7.0477  -17.7114   22.0540 O   0  0  0  0  0  0  0  0  0  0  0  0
    6.7662  -16.4350   21.5798 C   0  0  0  0  0  0  0  0  0  0  0  0
    7.9710  -15.5072   21.7819 C   0  0  2  0  0  0  0  0  0  0  0  0
    9.0841  -16.1710   21.1102 N   0  0  0  0  0  0  0  0  0  0  0  0
    8.2564  -15.5179   23.2331 C   0  0  0  0  0  0  0  0  0  0  0  0
    9.1617  -16.2668   23.7047 O   0  0  0  0  0  0  0  0  0  0  0  0
    5.6024  -11.8951   26.7359 C   0  0  0  0  0  0  0  0  0  0  0  0
    6.0037  -13.2064   26.0910 C   0  0  0  0  0  0  0  0  0  0  0  0
    7.4964  -13.3881   26.2267 C   0  0  2  0  0  0  0  0  0  0  0  0
    8.2612  -12.2349   25.6280 C   0  0  0  0  0  0  0  0  0  0  0  0
    7.9010  -14.7122   25.6132 C   0  0  2  0  0  0  0  0  0  0  0  0
    7.5741  -14.7280   24.1794 N   0  0  0  0  0  0  0  0  0  0  0  0
    7.1943  -15.8695   26.2121 C   0  0  0  0  0  0  0  0  0  0  0  0
    7.5323  -16.4401   27.4271 O   0  0  0  0  0  0  0  0  0  0  0  0
    6.2053  -16.4257   25.6291 O   0  0  0  0  0  0  0  0  0  0  0  0
  1  2  1  0
  2  4  1  0
  2  3  2  0
  4  5  1  0
  6  5  1  0
  6  7  1  6
  8  9  2  0
  8  6  1  0
 10 11  1  0
 12 11  1  1
 12 13  1  0
 13  8  1  0
 14 12  1  0
 14 21  1  0
 15 14  2  0
 17 16  1  0
 18 17  1  0
 18 19  1  6
 20 21  1  6
 20 18  1  0
 22 20  1  0
 23 22  1  0
 24 22  2  0
M  END
$$$$
