QSI.pdb
     RDKit          3D

 24 23  0  0  1  0  0  0  0  0999 V2000
   13.2548  -19.9580   21.6888 N   0  0  0  0  0  0  0  0  0  0  0  0
   13.8680  -19.2255   20.6065 C   0  0  0  0  0  0  0  0  0  0  0  0
   14.7928  -19.8009   20.0003 O   0  0  0  0  0  0  0  0  0  0  0  0
   13.4029  -17.8826   20.2743 C   0  0  0  0  0  0  0  0  0  0  0  0
   12.2097  -17.4021   21.0405 C   0  0  0  0  0  0  0  0  0  0  0  0
   10.9214  -17.8175   20.4199 C   0  0  2  0  0  0  0  0  0  0  0  0
   10.7951  -17.5952   19.0084 N   0  0  0  0  0  0  0  0  0  0  0  0
    9.7979  -17.0877   21.0909 C   0  0  0  0  0  0  0  0  0  0  0  0
    9.4390  -15.9824   20.6398 O   0  0  0  0  0  0  0  0  0  0  0  0
    8.2289  -18.8654   24.4198 O   0  0  0  0  0  0  0  0  0  0  0  0
    7.3222  -18.1919   23.6088 C   0  0  0  0  0  0  0  0  0  0  0  0
    8.0139  -17.0401   22.8686 C   0  0  2  0  0  0  0  0  0  0  0  0
    9.1657  -17.6451   22.2068 N   0  0  0  0  0  0  0  0  0  0  0  0
    8.5286  -16.1315   23.9159 C   0  0  0  0  0  0  0  0  0  0  0  0
    9.7285  -16.2196   24.3105 O   0  0  0  0  0  0  0  0  0  0  0  0
    6.9236  -10.9897   27.0143 C   0  0  0  0  0  0  0  0  0  0  0  0
    7.8485  -12.1842   26.8957 C   0  0  0  0  0  0  0  0  0  0  0  0
    7.2506  -13.1791   25.9302 C   0  0  2  0  0  0  0  0  0  0  0  0
    6.0007  -13.8177   26.4811 C   0  0  0  0  0  0  0  0  0  0  0  0
    8.2945  -14.2114   25.5588 C   0  0  2  0  0  0  0  0  0  0  0  0
    7.7608  -15.1291   24.5411 N   0  0  0  0  0  0  0  0  0  0  0  0
    8.7073  -15.0575   26.7039 C   0  0  0  0  0  0  0  0  0  0  0  0
    9.7587  -14.7547   27.5520 O   0  0  0  0  0  0  0  0  0  0  0  0
    8.1035  -16.1452   26.9855 O   0  0  0  0  0  0  0  0  0  0  0  0
  1  2  1  0
  2  4  1  0
  2  3  2  0
  4  5  1  0
  6  5  1  0
  6  7  1  6
  8  9  2  0
  8  6  1  0
 10 11  1  0
 12 11  1  1
 12 13  1  0
 13  8  1  0
 14 12  1  0
 14 21  1  0
 15 14  2  0
 17 16  1  0
 18 17  1  0
 18 19  1  1
 20 21  1  6
 20 18  1  0
 22 20  1  0
 23 22  1  0
 24 22  2  0
M  END
$$$$
