QSI.pdb
     RDKit          3D

 24 23  0  0  1  0  0  0  0  0999 V2000
   11.0963  -13.3302   16.7666 N   0  0  0  0  0  0  0  0  0  0  0  0
   10.6210  -13.0140   18.0925 C   0  0  0  0  0  0  0  0  0  0  0  0
   11.4489  -13.1175   19.0186 O   0  0  0  0  0  0  0  0  0  0  0  0
    9.2355  -12.6025   18.2958 C   0  0  0  0  0  0  0  0  0  0  0  0
    8.4920  -13.3377   19.3675 C   0  0  0  0  0  0  0  0  0  0  0  0
    8.5263  -14.8149   19.1823 C   0  0  2  0  0  0  0  0  0  0  0  0
    7.8083  -15.3306   18.0526 N   0  0  0  0  0  0  0  0  0  0  0  0
    7.9684  -15.4740   20.4069 C   0  0  0  0  0  0  0  0  0  0  0  0
    6.7318  -15.5281   20.5553 O   0  0  0  0  0  0  0  0  0  0  0  0
   10.5682  -17.5628   22.5238 O   0  0  0  0  0  0  0  0  0  0  0  0
    9.2439  -17.8281   22.8540 C   0  0  0  0  0  0  0  0  0  0  0  0
    8.3736  -16.5847   22.6311 C   0  0  2  0  0  0  0  0  0  0  0  0
    8.8291  -16.0186   21.3651 N   0  0  0  0  0  0  0  0  0  0  0  0
    8.7393  -15.6322   23.7019 C   0  0  0  0  0  0  0  0  0  0  0  0
    9.8399  -15.0080   23.6588 O   0  0  0  0  0  0  0  0  0  0  0  0
    6.4453  -11.2265   27.0385 C   0  0  0  0  0  0  0  0  0  0  0  0
    7.4755  -12.3377   27.0476 C   0  0  0  0  0  0  0  0  0  0  0  0
    7.1362  -13.3358   25.9668 C   0  0  2  0  0  0  0  0  0  0  0  0
    5.8133  -14.0132   26.2204 C   0  0  0  0  0  0  0  0  0  0  0  0
    8.2651  -14.3362   25.8317 C   0  0  2  0  0  0  0  0  0  0  0  0
    7.9284  -15.3474   24.8184 N   0  0  0  0  0  0  0  0  0  0  0  0
    8.5348  -15.0798   27.0854 C   0  0  0  0  0  0  0  0  0  0  0  0
    9.2180  -14.5526   28.1677 O   0  0  0  0  0  0  0  0  0  0  0  0
    8.1438  -16.2831   27.2482 O   0  0  0  0  0  0  0  0  0  0  0  0
  1  2  1  0
  2  4  1  0
  2  3  2  0
  4  5  1  0
  6  5  1  0
  6  7  1  6
  8  9  2  0
  8  6  1  0
 10 11  1  0
 12 11  1  1
 12 13  1  0
 13  8  1  0
 14 12  1  0
 14 21  1  0
 15 14  2  0
 17 16  1  0
 18 17  1  0
 18 19  1  1
 20 21  1  6
 20 18  1  0
 22 20  1  0
 23 22  1  0
 24 22  2  0
M  END
$$$$
