AFE.pdb
     RDKit          3D

 26 26  0  0  1  0  0  0  0  0999 V2000
    7.7751  -16.4675   19.4049 C   0  0  0  0  0  0  0  0  0  0  0  0
    7.1672  -15.1214   19.7857 C   0  0  2  0  0  0  0  0  0  0  0  0
    7.4871  -14.1953   18.7196 N   0  0  0  0  0  0  0  0  0  0  0  0
    7.7311  -14.6633   21.0671 C   0  0  0  0  0  0  0  0  0  0  0  0
    8.8132  -14.0267   21.1231 O   0  0  0  0  0  0  0  0  0  0  0  0
    7.0611  -14.9310   22.2854 N   0  0  0  0  0  0  0  0  0  0  0  0
    7.6452  -14.4909   23.5366 C   0  0  1  0  0  0  0  0  0  0  0  0
    6.6089  -14.4110   24.6318 C   0  0  0  0  0  0  0  0  0  0  0  0
    7.0948  -13.7770   25.8582 C   0  0  0  0  0  0  0  0  0  0  0  0
    7.6101  -14.5169   26.8984 C   0  0  0  0  0  0  0  0  0  0  0  0
    8.0813  -13.9793   28.0729 C   0  0  0  0  0  0  0  0  0  0  0  0
    8.0325  -12.5950   28.2158 C   0  0  0  0  0  0  0  0  0  0  0  0
    7.5223  -11.8264   27.1925 C   0  0  0  0  0  0  0  0  0  0  0  0
    7.0555  -12.4011   26.0214 C   0  0  0  0  0  0  0  0  0  0  0  0
    8.6183  -15.5464   23.9512 C   0  0  0  0  0  0  0  0  0  0  0  0
    8.3124  -16.7672   23.9586 O   0  0  0  0  0  0  0  0  0  0  0  0
    9.9258  -15.2271   24.3542 N   0  0  0  0  0  0  0  0  0  0  0  0
   10.9758  -16.2335   24.5801 C   0  0  1  0  0  0  0  0  0  0  0  0
   12.2963  -15.7261   24.1390 C   0  0  0  0  0  0  0  0  0  0  0  0
   13.3783  -16.7433   24.2945 C   0  0  0  0  0  0  0  0  0  0  0  0
   14.7153  -16.2997   23.8858 C   0  0  0  0  0  0  0  0  0  0  0  0
   15.7190  -16.5657   24.5659 O   0  0  0  0  0  0  0  0  0  0  0  0
   10.9840  -16.5873   26.0165 C   0  0  0  0  0  0  0  0  0  0  0  0
   11.4244  -17.7812   26.5414 O   0  0  0  0  0  0  0  0  0  0  0  0
   14.8553  -15.5707   22.7186 O   0  0  0  0  0  0  0  0  0  0  0  0
   10.5524  -15.7446   26.8786 O   0  0  0  0  0  0  0  0  0  0  0  0
  2  4  1  0
  2  1  1  6
  3  2  1  0
  4  5  2  0
  6  7  1  0
  6  4  1  0
  7  8  1  1
  8  9  1  0
  9 14  2  0
 10 11  2  0
 10  9  1  0
 11 12  1  0
 12 13  2  0
 14 13  1  0
 15 16  2  0
 15  7  1  0
 17 15  1  0
 18 23  1  0
 18 17  1  0
 18 19  1  1
 20 19  1  0
 20 21  1  0
 21 25  1  0
 22 21  2  0
 23 24  1  0
 26 23  2  0
M  END
$$$$
