AFE.pdb
     RDKit          3D

 26 26  0  0  1  0  0  0  0  0999 V2000
    7.9676  -18.1535   19.8507 C   0  0  0  0  0  0  0  0  0  0  0  0
    8.0449  -16.6451   19.6377 C   0  0  2  0  0  0  0  0  0  0  0  0
    9.0490  -16.4117   18.6209 N   0  0  0  0  0  0  0  0  0  0  0  0
    8.4108  -15.9805   20.9003 C   0  0  0  0  0  0  0  0  0  0  0  0
    9.6088  -15.8571   21.2593 O   0  0  0  0  0  0  0  0  0  0  0  0
    7.4103  -15.4564   21.7543 N   0  0  0  0  0  0  0  0  0  0  0  0
    7.7949  -14.7503   22.9602 C   0  0  1  0  0  0  0  0  0  0  0  0
    6.6283  -13.9995   23.5561 C   0  0  0  0  0  0  0  0  0  0  0  0
    6.9414  -13.3302   24.8195 C   0  0  0  0  0  0  0  0  0  0  0  0
    6.4019  -13.7525   26.0135 C   0  0  0  0  0  0  0  0  0  0  0  0
    6.6581  -13.1655   27.2303 C   0  0  0  0  0  0  0  0  0  0  0  0
    7.5203  -12.0724   27.2520 C   0  0  0  0  0  0  0  0  0  0  0  0
    8.0767  -11.6254   26.0735 C   0  0  0  0  0  0  0  0  0  0  0  0
    7.7969  -12.2406   24.8640 C   0  0  0  0  0  0  0  0  0  0  0  0
    8.1848  -15.7894   23.9607 C   0  0  0  0  0  0  0  0  0  0  0  0
    7.5739  -16.8858   24.0535 O   0  0  0  0  0  0  0  0  0  0  0  0
    9.2553  -15.5930   24.8492 N   0  0  0  0  0  0  0  0  0  0  0  0
    9.9764  -16.6932   25.5095 C   0  0  1  0  0  0  0  0  0  0  0  0
   11.3113  -16.8912   24.8974 C   0  0  0  0  0  0  0  0  0  0  0  0
   12.0757  -17.9991   25.5439 C   0  0  0  0  0  0  0  0  0  0  0  0
   13.3625  -18.3182   24.9167 C   0  0  0  0  0  0  0  0  0  0  0  0
   14.2587  -17.4655   24.8136 O   0  0  0  0  0  0  0  0  0  0  0  0
   10.0827  -16.3840   26.9522 C   0  0  0  0  0  0  0  0  0  0  0  0
   10.1443  -17.3143   27.9650 O   0  0  0  0  0  0  0  0  0  0  0  0
   13.5771  -19.5958   24.4322 O   0  0  0  0  0  0  0  0  0  0  0  0
   10.1212  -15.1634   27.3370 O   0  0  0  0  0  0  0  0  0  0  0  0
  2  4  1  0
  2  1  1  1
  3  2  1  0
  4  5  2  0
  6  7  1  0
  6  4  1  0
  7  8  1  1
  8  9  1  0
  9 14  2  0
 10 11  2  0
 10  9  1  0
 11 12  1  0
 12 13  2  0
 14 13  1  0
 15 16  2  0
 15  7  1  0
 17 15  1  0
 18 23  1  0
 18 17  1  0
 18 19  1  6
 20 19  1  0
 20 21  1  0
 21 25  1  0
 22 21  2  0
 23 24  1  0
 26 23  2  0
M  END
$$$$
