AFE.pdb
     RDKit          3D

 26 26  0  0  1  0  0  0  0  0999 V2000
    9.6588  -18.8823   21.1259 C   0  0  0  0  0  0  0  0  0  0  0  0
    9.2644  -17.4647   20.7241 C   0  0  2  0  0  0  0  0  0  0  0  0
   10.1432  -17.0708   19.6427 N   0  0  0  0  0  0  0  0  0  0  0  0
    9.4113  -16.5597   21.8770 C   0  0  0  0  0  0  0  0  0  0  0  0
   10.5232  -16.0663   22.1926 O   0  0  0  0  0  0  0  0  0  0  0  0
    8.2899  -16.2170   22.6708 N   0  0  0  0  0  0  0  0  0  0  0  0
    8.4255  -15.2144   23.7085 C   0  0  1  0  0  0  0  0  0  0  0  0
    7.1018  -14.5568   24.0171 C   0  0  0  0  0  0  0  0  0  0  0  0
    7.1596  -13.6102   25.1320 C   0  0  0  0  0  0  0  0  0  0  0  0
    6.4658  -13.8280   26.3008 C   0  0  0  0  0  0  0  0  0  0  0  0
    6.4808  -12.9771   27.3809 C   0  0  0  0  0  0  0  0  0  0  0  0
    7.2494  -11.8203   27.2819 C   0  0  0  0  0  0  0  0  0  0  0  0
    7.9556  -11.5735   26.1250 C   0  0  0  0  0  0  0  0  0  0  0  0
    7.9182  -12.4527   25.0548 C   0  0  0  0  0  0  0  0  0  0  0  0
    8.8397  -15.9348   24.9504 C   0  0  0  0  0  0  0  0  0  0  0  0
    8.2186  -16.9451   25.3718 O   0  0  0  0  0  0  0  0  0  0  0  0
    9.9455  -15.5188   25.7106 N   0  0  0  0  0  0  0  0  0  0  0  0
   10.4697  -16.2704   26.8624 C   0  0  1  0  0  0  0  0  0  0  0  0
   11.9350  -16.4583   26.7469 C   0  0  0  0  0  0  0  0  0  0  0  0
   12.3238  -17.1358   25.4744 C   0  0  0  0  0  0  0  0  0  0  0  0
   13.7646  -17.3413   25.2919 C   0  0  0  0  0  0  0  0  0  0  0  0
   14.5967  -16.6314   25.8787 O   0  0  0  0  0  0  0  0  0  0  0  0
   10.1132  -15.5408   28.0990 C   0  0  0  0  0  0  0  0  0  0  0  0
   10.2792  -16.0146   29.3807 O   0  0  0  0  0  0  0  0  0  0  0  0
   14.1997  -18.3474   24.4482 O   0  0  0  0  0  0  0  0  0  0  0  0
    9.6027  -14.3693   28.0181 O   0  0  0  0  0  0  0  0  0  0  0  0
  2  4  1  0
  2  1  1  1
  3  2  1  0
  4  5  2  0
  6  7  1  0
  6  4  1  0
  7  8  1  1
  8  9  1  0
  9 14  2  0
 10 11  2  0
 10  9  1  0
 11 12  1  0
 12 13  2  0
 14 13  1  0
 15 16  2  0
 15  7  1  0
 17 15  1  0
 18 23  1  0
 18 17  1  0
 18 19  1  6
 20 19  1  0
 20 21  1  0
 21 25  1  0
 22 21  2  0
 23 24  1  0
 26 23  2  0
M  END
$$$$
