AFE.pdb
     RDKit          3D

 26 26  0  0  1  0  0  0  0  0999 V2000
    8.9258  -18.8302   20.5454 C   0  0  0  0  0  0  0  0  0  0  0  0
    8.5561  -17.3986   20.1706 C   0  0  2  0  0  0  0  0  0  0  0  0
    9.3709  -17.0354   19.0300 N   0  0  0  0  0  0  0  0  0  0  0  0
    8.8158  -16.5012   21.3094 C   0  0  0  0  0  0  0  0  0  0  0  0
    9.9284  -15.9387   21.4673 O   0  0  0  0  0  0  0  0  0  0  0  0
    7.8065  -16.2449   22.2689 N   0  0  0  0  0  0  0  0  0  0  0  0
    8.0442  -15.2729   23.3173 C   0  0  1  0  0  0  0  0  0  0  0  0
    6.7495  -14.7875   23.9240 C   0  0  0  0  0  0  0  0  0  0  0  0
    6.9324  -13.8271   25.0133 C   0  0  0  0  0  0  0  0  0  0  0  0
    6.4710  -14.0812   26.2851 C   0  0  0  0  0  0  0  0  0  0  0  0
    6.6127  -13.2197   27.3474 C   0  0  0  0  0  0  0  0  0  0  0  0
    7.2666  -12.0120   27.1175 C   0  0  0  0  0  0  0  0  0  0  0  0
    7.7402  -11.7280   25.8553 C   0  0  0  0  0  0  0  0  0  0  0  0
    7.5802  -12.6193   24.8067 C   0  0  0  0  0  0  0  0  0  0  0  0
    8.7802  -15.9855   24.4051 C   0  0  0  0  0  0  0  0  0  0  0  0
    8.4048  -17.1058   24.8388 O   0  0  0  0  0  0  0  0  0  0  0  0
    9.9302  -15.4387   24.9986 N   0  0  0  0  0  0  0  0  0  0  0  0
   10.8782  -16.2215   25.8080 C   0  0  1  0  0  0  0  0  0  0  0  0
   12.2714  -15.7816   25.5609 C   0  0  0  0  0  0  0  0  0  0  0  0
   13.1897  -16.9262   25.2846 C   0  0  0  0  0  0  0  0  0  0  0  0
   14.5657  -16.5532   24.9402 C   0  0  0  0  0  0  0  0  0  0  0  0
   14.8333  -15.4336   24.4756 O   0  0  0  0  0  0  0  0  0  0  0  0
   10.5090  -16.0754   27.2331 C   0  0  0  0  0  0  0  0  0  0  0  0
   10.7980  -16.9809   28.2288 O   0  0  0  0  0  0  0  0  0  0  0  0
   15.5818  -17.4703   25.1390 O   0  0  0  0  0  0  0  0  0  0  0  0
    9.8643  -15.0379   27.6170 O   0  0  0  0  0  0  0  0  0  0  0  0
  2  4  1  0
  2  1  1  1
  3  2  1  0
  4  5  2  0
  6  7  1  0
  6  4  1  0
  7  8  1  1
  8  9  1  0
  9 14  2  0
 10 11  2  0
 10  9  1  0
 11 12  1  0
 12 13  2  0
 14 13  1  0
 15 16  2  0
 15  7  1  0
 17 15  1  0
 18 23  1  0
 18 17  1  0
 18 19  1  1
 20 19  1  0
 20 21  1  0
 21 25  1  0
 22 21  2  0
 23 24  1  0
 26 23  2  0
M  END
$$$$
