AFE.pdb
     RDKit          3D

 26 26  0  0  1  0  0  0  0  0999 V2000
    7.1245  -20.1267   21.6902 C   0  0  0  0  0  0  0  0  0  0  0  0
    6.2051  -18.9126   21.6055 C   0  0  2  0  0  0  0  0  0  0  0  0
    5.9777  -18.6506   20.1996 N   0  0  0  0  0  0  0  0  0  0  0  0
    6.8426  -17.7567   22.2593 C   0  0  0  0  0  0  0  0  0  0  0  0
    7.7434  -17.0897   21.6909 O   0  0  0  0  0  0  0  0  0  0  0  0
    6.4531  -17.3611   23.5618 N   0  0  0  0  0  0  0  0  0  0  0  0
    7.0945  -16.2217   24.1869 C   0  0  1  0  0  0  0  0  0  0  0  0
    6.2479  -15.6541   25.3009 C   0  0  0  0  0  0  0  0  0  0  0  0
    6.7937  -14.4313   25.8918 C   0  0  0  0  0  0  0  0  0  0  0  0
    7.6936  -14.4715   26.9327 C   0  0  0  0  0  0  0  0  0  0  0  0
    8.2403  -13.3591   27.5279 C   0  0  0  0  0  0  0  0  0  0  0  0
    7.8559  -12.1117   27.0430 C   0  0  0  0  0  0  0  0  0  0  0  0
    6.9567  -12.0377   26.0018 C   0  0  0  0  0  0  0  0  0  0  0  0
    6.4248  -13.1795   25.4247 C   0  0  0  0  0  0  0  0  0  0  0  0
    8.3469  -16.7297   24.8242 C   0  0  0  0  0  0  0  0  0  0  0  0
    8.3579  -17.7694   25.5334 O   0  0  0  0  0  0  0  0  0  0  0  0
    9.5769  -16.0701   24.6625 N   0  0  0  0  0  0  0  0  0  0  0  0
   10.8817  -16.7307   24.8276 C   0  0  1  0  0  0  0  0  0  0  0  0
   11.9192  -16.0613   24.0084 C   0  0  0  0  0  0  0  0  0  0  0  0
   13.2625  -16.6951   24.1614 C   0  0  0  0  0  0  0  0  0  0  0  0
   14.3245  -16.1142   23.3330 C   0  0  0  0  0  0  0  0  0  0  0  0
   15.2759  -15.5000   23.8415 O   0  0  0  0  0  0  0  0  0  0  0  0
   11.2345  -16.7178   26.2642 C   0  0  0  0  0  0  0  0  0  0  0  0
   12.0601  -17.6236   26.8911 O   0  0  0  0  0  0  0  0  0  0  0  0
   14.2602  -16.2563   21.9587 O   0  0  0  0  0  0  0  0  0  0  0  0
   10.7531  -15.8085   27.0264 O   0  0  0  0  0  0  0  0  0  0  0  0
  2  4  1  0
  2  1  1  6
  3  2  1  0
  4  5  2  0
  6  7  1  0
  6  4  1  0
  7  8  1  1
  8  9  1  0
  9 14  2  0
 10 11  2  0
 10  9  1  0
 11 12  1  0
 12 13  2  0
 14 13  1  0
 15 16  2  0
 15  7  1  0
 17 15  1  0
 18 23  1  0
 18 17  1  0
 18 19  1  6
 20 19  1  0
 20 21  1  0
 21 25  1  0
 22 21  2  0
 23 24  1  0
 26 23  2  0
M  END
$$$$
