AFE.pdb
     RDKit          3D

 26 26  0  0  1  0  0  0  0  0999 V2000
    9.4824  -16.0999   18.8084 C   0  0  0  0  0  0  0  0  0  0  0  0
    9.5268  -16.9435   20.0784 C   0  0  2  0  0  0  0  0  0  0  0  0
    8.3320  -17.7614   20.0858 N   0  0  0  0  0  0  0  0  0  0  0  0
    9.5701  -16.0652   21.2602 C   0  0  0  0  0  0  0  0  0  0  0  0
   10.5356  -15.2893   21.4720 O   0  0  0  0  0  0  0  0  0  0  0  0
    8.5120  -16.0716   22.2011 N   0  0  0  0  0  0  0  0  0  0  0  0
    8.5734  -15.1968   23.3550 C   0  0  1  0  0  0  0  0  0  0  0  0
    7.1931  -14.8025   23.8229 C   0  0  0  0  0  0  0  0  0  0  0  0
    7.1950  -13.9495   25.0123 C   0  0  0  0  0  0  0  0  0  0  0  0
    6.9894  -14.4660   26.2717 C   0  0  0  0  0  0  0  0  0  0  0  0
    6.9802  -13.7166   27.4245 C   0  0  0  0  0  0  0  0  0  0  0  0
    7.1933  -12.3457   27.3062 C   0  0  0  0  0  0  0  0  0  0  0  0
    7.4022  -11.7981   26.0594 C   0  0  0  0  0  0  0  0  0  0  0  0
    7.4051  -12.5828   24.9174 C   0  0  0  0  0  0  0  0  0  0  0  0
    9.1853  -15.9903   24.4636 C   0  0  0  0  0  0  0  0  0  0  0  0
    8.7359  -17.1159   24.8026 O   0  0  0  0  0  0  0  0  0  0  0  0
   10.2951  -15.5175   25.1838 N   0  0  0  0  0  0  0  0  0  0  0  0
   11.1018  -16.3608   26.0806 C   0  0  1  0  0  0  0  0  0  0  0  0
   12.5486  -16.1742   25.8203 C   0  0  0  0  0  0  0  0  0  0  0  0
   12.9227  -16.5122   24.4148 C   0  0  0  0  0  0  0  0  0  0  0  0
   14.3510  -16.3929   24.1034 C   0  0  0  0  0  0  0  0  0  0  0  0
   15.1708  -16.0341   24.9636 O   0  0  0  0  0  0  0  0  0  0  0  0
   10.7552  -16.0228   27.4785 C   0  0  0  0  0  0  0  0  0  0  0  0
   11.0396  -16.7973   28.5805 O   0  0  0  0  0  0  0  0  0  0  0  0
   14.7882  -16.6871   22.8245 O   0  0  0  0  0  0  0  0  0  0  0  0
   10.1369  -14.9304   27.7312 O   0  0  0  0  0  0  0  0  0  0  0  0
  2  4  1  0
  2  1  1  6
  3  2  1  0
  4  5  2  0
  6  7  1  0
  6  4  1  0
  7  8  1  1
  8  9  1  0
  9 14  2  0
 10 11  2  0
 10  9  1  0
 11 12  1  0
 12 13  2  0
 14 13  1  0
 15 16  2  0
 15  7  1  0
 17 15  1  0
 18 23  1  0
 18 17  1  0
 18 19  1  1
 20 19  1  0
 20 21  1  0
 21 25  1  0
 22 21  2  0
 23 24  1  0
 26 23  2  0
M  END
$$$$
