AFE.pdb
     RDKit          3D

 26 26  0  0  1  0  0  0  0  0999 V2000
    8.9672  -18.3539   20.6723 C   0  0  0  0  0  0  0  0  0  0  0  0
    9.2190  -16.8609   20.4874 C   0  0  2  0  0  0  0  0  0  0  0  0
   10.4321  -16.7292   19.7079 N   0  0  0  0  0  0  0  0  0  0  0  0
    9.3657  -16.2127   21.8020 C   0  0  0  0  0  0  0  0  0  0  0  0
   10.4902  -16.0607   22.3422 O   0  0  0  0  0  0  0  0  0  0  0  0
    8.2299  -15.7374   22.5011 N   0  0  0  0  0  0  0  0  0  0  0  0
    8.4017  -15.0528   23.7670 C   0  0  1  0  0  0  0  0  0  0  0  0
    7.1249  -14.3780   24.2074 C   0  0  0  0  0  0  0  0  0  0  0  0
    7.2701  -13.5789   25.4251 C   0  0  0  0  0  0  0  0  0  0  0  0
    6.2123  -12.8787   25.9598 C   0  0  0  0  0  0  0  0  0  0  0  0
    6.2870  -12.1124   27.0990 C   0  0  0  0  0  0  0  0  0  0  0  0
    7.5149  -12.0425   27.7518 C   0  0  0  0  0  0  0  0  0  0  0  0
    8.5931  -12.7320   27.2418 C   0  0  0  0  0  0  0  0  0  0  0  0
    8.4830  -13.4954   26.0908 C   0  0  0  0  0  0  0  0  0  0  0  0
    8.6984  -16.1037   24.7870 C   0  0  0  0  0  0  0  0  0  0  0  0
    7.8528  -16.9802   25.1043 O   0  0  0  0  0  0  0  0  0  0  0  0
    9.9391  -16.1652   25.4435 N   0  0  0  0  0  0  0  0  0  0  0  0
   10.3108  -17.2372   26.3810 C   0  0  1  0  0  0  0  0  0  0  0  0
   11.6764  -17.7370   26.0961 C   0  0  0  0  0  0  0  0  0  0  0  0
   11.8177  -18.2430   24.6984 C   0  0  0  0  0  0  0  0  0  0  0  0
   13.1705  -18.6663   24.3218 C   0  0  0  0  0  0  0  0  0  0  0  0
   14.1730  -18.0535   24.7224 O   0  0  0  0  0  0  0  0  0  0  0  0
   10.2032  -16.7117   27.7596 C   0  0  0  0  0  0  0  0  0  0  0  0
    9.8729  -15.4186   28.0968 O   0  0  0  0  0  0  0  0  0  0  0  0
   13.3274  -19.7708   23.5041 O   0  0  0  0  0  0  0  0  0  0  0  0
   10.4300  -17.4876   28.7526 O   0  0  0  0  0  0  0  0  0  0  0  0
  2  4  1  0
  2  1  1  1
  3  2  1  0
  4  5  2  0
  6  7  1  0
  6  4  1  0
  7  8  1  1
  8  9  1  0
  9 14  2  0
 10 11  2  0
 10  9  1  0
 11 12  1  0
 12 13  2  0
 14 13  1  0
 15 16  2  0
 15  7  1  0
 17 15  1  0
 18 23  1  0
 18 17  1  0
 18 19  1  6
 20 19  1  0
 20 21  1  0
 21 25  1  0
 22 21  2  0
 23 24  1  0
 26 23  2  0
M  END
$$$$
