AFE.pdb
     RDKit          3D

 26 26  0  0  1  0  0  0  0  0999 V2000
   10.3062  -15.9523   19.0155 C   0  0  0  0  0  0  0  0  0  0  0  0
    9.6789  -16.7432   20.1590 C   0  0  2  0  0  0  0  0  0  0  0  0
    8.3291  -17.0756   19.7537 N   0  0  0  0  0  0  0  0  0  0  0  0
    9.6738  -15.9283   21.3861 C   0  0  0  0  0  0  0  0  0  0  0  0
   10.7388  -15.6104   21.9728 O   0  0  0  0  0  0  0  0  0  0  0  0
    8.4540  -15.4756   21.9448 N   0  0  0  0  0  0  0  0  0  0  0  0
    8.4624  -14.7790   23.2156 C   0  0  1  0  0  0  0  0  0  0  0  0
    7.1804  -14.0114   23.4328 C   0  0  0  0  0  0  0  0  0  0  0  0
    7.0645  -13.4230   24.7679 C   0  0  0  0  0  0  0  0  0  0  0  0
    7.7815  -12.3048   25.1290 C   0  0  0  0  0  0  0  0  0  0  0  0
    7.7148  -11.7073   26.3656 C   0  0  0  0  0  0  0  0  0  0  0  0
    6.8650  -12.2736   27.3122 C   0  0  0  0  0  0  0  0  0  0  0  0
    6.1336  -13.3933   26.9816 C   0  0  0  0  0  0  0  0  0  0  0  0
    6.2248  -13.9703   25.7252 C   0  0  0  0  0  0  0  0  0  0  0  0
    8.5135  -15.8268   24.2797 C   0  0  0  0  0  0  0  0  0  0  0  0
    7.6592  -16.7485   24.3472 O   0  0  0  0  0  0  0  0  0  0  0  0
    9.5203  -15.8346   25.2596 N   0  0  0  0  0  0  0  0  0  0  0  0
    9.8193  -16.9987   26.1092 C   0  0  1  0  0  0  0  0  0  0  0  0
   10.8389  -17.8667   25.4747 C   0  0  0  0  0  0  0  0  0  0  0  0
   12.1958  -17.2435   25.4724 C   0  0  0  0  0  0  0  0  0  0  0  0
   13.2080  -17.9553   24.6850 C   0  0  0  0  0  0  0  0  0  0  0  0
   14.4051  -17.9452   25.0134 O   0  0  0  0  0  0  0  0  0  0  0  0
   10.2705  -16.5103   27.4307 C   0  0  0  0  0  0  0  0  0  0  0  0
   10.6179  -15.2112   27.7249 O   0  0  0  0  0  0  0  0  0  0  0  0
   12.8161  -18.6501   23.5550 O   0  0  0  0  0  0  0  0  0  0  0  0
   10.3630  -17.3293   28.4106 O   0  0  0  0  0  0  0  0  0  0  0  0
  2  4  1  0
  2  1  1  6
  3  2  1  0
  4  5  2  0
  6  7  1  0
  6  4  1  0
  7  8  1  1
  8  9  1  0
  9 14  2  0
 10 11  2  0
 10  9  1  0
 11 12  1  0
 12 13  2  0
 14 13  1  0
 15 16  2  0
 15  7  1  0
 17 15  1  0
 18 23  1  0
 18 17  1  0
 18 19  1  6
 20 19  1  0
 20 21  1  0
 21 25  1  0
 22 21  2  0
 23 24  1  0
 26 23  2  0
M  END
$$$$
