AFE.pdb
     RDKit          3D

 26 26  0  0  1  0  0  0  0  0999 V2000
    9.6875  -15.8542   18.7421 C   0  0  0  0  0  0  0  0  0  0  0  0
    9.4649  -16.7063   19.9874 C   0  0  2  0  0  0  0  0  0  0  0  0
    8.1647  -17.3281   19.8485 N   0  0  0  0  0  0  0  0  0  0  0  0
    9.5156  -15.8565   21.1896 C   0  0  0  0  0  0  0  0  0  0  0  0
   10.5638  -15.2511   21.5273 O   0  0  0  0  0  0  0  0  0  0  0  0
    8.3708  -15.6970   22.0073 N   0  0  0  0  0  0  0  0  0  0  0  0
    8.4448  -14.8618   23.1895 C   0  0  1  0  0  0  0  0  0  0  0  0
    7.0893  -14.3107   23.5619 C   0  0  0  0  0  0  0  0  0  0  0  0
    7.0849  -13.5522   24.8137 C   0  0  0  0  0  0  0  0  0  0  0  0
    7.7973  -12.3824   24.9517 C   0  0  0  0  0  0  0  0  0  0  0  0
    7.8319  -11.6271   26.1002 C   0  0  0  0  0  0  0  0  0  0  0  0
    7.0967  -12.0784   27.1932 C   0  0  0  0  0  0  0  0  0  0  0  0
    6.3730  -13.2460   27.0869 C   0  0  0  0  0  0  0  0  0  0  0  0
    6.3602  -13.9832   25.9138 C   0  0  0  0  0  0  0  0  0  0  0  0
    8.8651  -15.7485   24.3164 C   0  0  0  0  0  0  0  0  0  0  0  0
    8.2901  -16.8431   24.5516 O   0  0  0  0  0  0  0  0  0  0  0  0
    9.9256  -15.4032   25.1708 N   0  0  0  0  0  0  0  0  0  0  0  0
   10.8597  -16.3849   25.7455 C   0  0  1  0  0  0  0  0  0  0  0  0
   12.2150  -16.2239   25.1684 C   0  0  0  0  0  0  0  0  0  0  0  0
   13.2005  -17.1812   25.7531 C   0  0  0  0  0  0  0  0  0  0  0  0
   14.5724  -17.0485   25.2516 C   0  0  0  0  0  0  0  0  0  0  0  0
   14.8149  -17.0284   24.0343 O   0  0  0  0  0  0  0  0  0  0  0  0
   10.8730  -16.2140   27.2148 C   0  0  0  0  0  0  0  0  0  0  0  0
   11.2808  -17.1633   28.1246 O   0  0  0  0  0  0  0  0  0  0  0  0
   15.6131  -16.9441   26.1566 O   0  0  0  0  0  0  0  0  0  0  0  0
   10.4788  -15.1089   27.7274 O   0  0  0  0  0  0  0  0  0  0  0  0
  2  4  1  0
  2  1  1  6
  3  2  1  0
  4  5  2  0
  6  7  1  0
  6  4  1  0
  7  8  1  1
  8  9  1  0
  9 14  2  0
 10 11  2  0
 10  9  1  0
 11 12  1  0
 12 13  2  0
 14 13  1  0
 15 16  2  0
 15  7  1  0
 17 15  1  0
 18 23  1  0
 18 17  1  0
 18 19  1  6
 20 19  1  0
 20 21  1  0
 21 25  1  0
 22 21  2  0
 23 24  1  0
 26 23  2  0
M  END
$$$$
