AFE.pdb
     RDKit          3D

 26 26  0  0  1  0  0  0  0  0999 V2000
   10.2904  -16.2091   19.2325 C   0  0  0  0  0  0  0  0  0  0  0  0
   10.0470  -16.9807   20.5255 C   0  0  2  0  0  0  0  0  0  0  0  0
    8.8085  -17.7116   20.3559 N   0  0  0  0  0  0  0  0  0  0  0  0
    9.9529  -16.0423   21.6570 C   0  0  0  0  0  0  0  0  0  0  0  0
   10.9316  -15.3410   22.0171 O   0  0  0  0  0  0  0  0  0  0  0  0
    8.7425  -15.9033   22.3785 N   0  0  0  0  0  0  0  0  0  0  0  0
    8.6818  -14.9991   23.5095 C   0  0  1  0  0  0  0  0  0  0  0  0
    7.2710  -14.5235   23.7609 C   0  0  0  0  0  0  0  0  0  0  0  0
    7.1385  -13.6696   24.9423 C   0  0  0  0  0  0  0  0  0  0  0  0
    6.3865  -14.0529   26.0297 C   0  0  0  0  0  0  0  0  0  0  0  0
    6.2249  -13.2955   27.1659 C   0  0  0  0  0  0  0  0  0  0  0  0
    6.8655  -12.0602   27.2160 C   0  0  0  0  0  0  0  0  0  0  0  0
    7.6257  -11.6477   26.1435 C   0  0  0  0  0  0  0  0  0  0  0  0
    7.7675  -12.4364   25.0132 C   0  0  0  0  0  0  0  0  0  0  0  0
    9.0827  -15.7890   24.7130 C   0  0  0  0  0  0  0  0  0  0  0  0
    8.5678  -16.9067   24.9769 O   0  0  0  0  0  0  0  0  0  0  0  0
   10.0566  -15.3216   25.6113 N   0  0  0  0  0  0  0  0  0  0  0  0
   10.6758  -16.1618   26.6491 C   0  0  1  0  0  0  0  0  0  0  0  0
   12.1536  -16.1202   26.5490 C   0  0  0  0  0  0  0  0  0  0  0  0
   12.6427  -16.4823   25.1854 C   0  0  0  0  0  0  0  0  0  0  0  0
   14.0887  -16.3427   24.9837 C   0  0  0  0  0  0  0  0  0  0  0  0
   14.8225  -15.8824   25.8728 O   0  0  0  0  0  0  0  0  0  0  0  0
   10.2092  -15.6919   27.9719 C   0  0  0  0  0  0  0  0  0  0  0  0
   10.3801  -16.3619   29.1622 O   0  0  0  0  0  0  0  0  0  0  0  0
   14.6411  -16.7332   23.7772 O   0  0  0  0  0  0  0  0  0  0  0  0
    9.5880  -14.5761   28.0645 O   0  0  0  0  0  0  0  0  0  0  0  0
  2  4  1  0
  2  1  1  6
  3  2  1  0
  4  5  2  0
  6  7  1  0
  6  4  1  0
  7  8  1  1
  8  9  1  0
  9 14  2  0
 10 11  2  0
 10  9  1  0
 11 12  1  0
 12 13  2  0
 14 13  1  0
 15 16  2  0
 15  7  1  0
 17 15  1  0
 18 23  1  0
 18 17  1  0
 18 19  1  1
 20 19  1  0
 20 21  1  0
 21 25  1  0
 22 21  2  0
 23 24  1  0
 26 23  2  0
M  END
$$$$
