AFE.pdb
     RDKit          3D

 26 26  0  0  1  0  0  0  0  0999 V2000
    8.7522  -18.2779   19.8604 C   0  0  0  0  0  0  0  0  0  0  0  0
    8.5523  -16.7814   19.6438 C   0  0  2  0  0  0  0  0  0  0  0  0
    9.5031  -16.3689   18.6326 N   0  0  0  0  0  0  0  0  0  0  0  0
    8.7814  -16.0589   20.9069 C   0  0  0  0  0  0  0  0  0  0  0  0
    9.9394  -15.7852   21.3111 O   0  0  0  0  0  0  0  0  0  0  0  0
    7.6897  -15.6482   21.7097 N   0  0  0  0  0  0  0  0  0  0  0  0
    7.9366  -14.9121   22.9335 C   0  0  1  0  0  0  0  0  0  0  0  0
    6.6627  -14.3225   23.4897 C   0  0  0  0  0  0  0  0  0  0  0  0
    6.8574  -13.5506   24.7179 C   0  0  0  0  0  0  0  0  0  0  0  0
    7.4216  -12.2951   24.6999 C   0  0  0  0  0  0  0  0  0  0  0  0
    7.6296  -11.5229   25.8185 C   0  0  0  0  0  0  0  0  0  0  0  0
    7.2428  -12.0491   27.0483 C   0  0  0  0  0  0  0  0  0  0  0  0
    6.6751  -13.3033   27.0998 C   0  0  0  0  0  0  0  0  0  0  0  0
    6.4798  -14.0551   25.9524 C   0  0  0  0  0  0  0  0  0  0  0  0
    8.4192  -15.9039   23.9415 C   0  0  0  0  0  0  0  0  0  0  0  0
    7.8919  -17.0403   24.0618 O   0  0  0  0  0  0  0  0  0  0  0  0
    9.4880  -15.6159   24.8068 N   0  0  0  0  0  0  0  0  0  0  0  0
   10.2278  -16.6445   25.5558 C   0  0  1  0  0  0  0  0  0  0  0  0
   11.6501  -16.6777   25.1415 C   0  0  0  0  0  0  0  0  0  0  0  0
   12.4369  -17.7043   25.8877 C   0  0  0  0  0  0  0  0  0  0  0  0
   13.2272  -18.6139   25.0515 C   0  0  0  0  0  0  0  0  0  0  0  0
   13.3339  -18.4361   23.8276 O   0  0  0  0  0  0  0  0  0  0  0  0
   10.0913  -16.3602   27.0011 C   0  0  0  0  0  0  0  0  0  0  0  0
   10.3602  -17.2486   28.0177 O   0  0  0  0  0  0  0  0  0  0  0  0
   13.8645  -19.6897   25.6430 O   0  0  0  0  0  0  0  0  0  0  0  0
    9.6905  -15.2061   27.3844 O   0  0  0  0  0  0  0  0  0  0  0  0
  2  4  1  0
  2  1  1  1
  3  2  1  0
  4  5  2  0
  6  7  1  0
  6  4  1  0
  7  8  1  1
  8  9  1  0
  9 14  2  0
 10 11  2  0
 10  9  1  0
 11 12  1  0
 12 13  2  0
 14 13  1  0
 15 16  2  0
 15  7  1  0
 17 15  1  0
 18 23  1  0
 18 17  1  0
 18 19  1  6
 20 19  1  0
 20 21  1  0
 21 25  1  0
 22 21  2  0
 23 24  1  0
 26 23  2  0
M  END
$$$$
