AFE.pdb
     RDKit          3D

 26 26  0  0  1  0  0  0  0  0999 V2000
    8.3220  -19.1329   20.6975 C   0  0  0  0  0  0  0  0  0  0  0  0
    7.6798  -17.7849   20.3857 C   0  0  2  0  0  0  0  0  0  0  0  0
    8.1322  -17.3951   19.0666 N   0  0  0  0  0  0  0  0  0  0  0  0
    8.0863  -16.7926   21.3956 C   0  0  0  0  0  0  0  0  0  0  0  0
    9.1671  -16.1584   21.3014 O   0  0  0  0  0  0  0  0  0  0  0  0
    7.2601  -16.5231   22.5135 N   0  0  0  0  0  0  0  0  0  0  0  0
    7.7121  -15.5966   23.5323 C   0  0  1  0  0  0  0  0  0  0  0  0
    6.5613  -15.0922   24.3694 C   0  0  0  0  0  0  0  0  0  0  0  0
    6.9588  -14.1336   25.4016 C   0  0  0  0  0  0  0  0  0  0  0  0
    7.0336  -12.7836   25.1431 C   0  0  0  0  0  0  0  0  0  0  0  0
    7.3998  -11.8362   26.0699 C   0  0  0  0  0  0  0  0  0  0  0  0
    7.7150  -12.2752   27.3532 C   0  0  0  0  0  0  0  0  0  0  0  0
    7.6498  -13.6203   27.6438 C   0  0  0  0  0  0  0  0  0  0  0  0
    7.2767  -14.5487   26.6853 C   0  0  0  0  0  0  0  0  0  0  0  0
    8.5984  -16.3701   24.4537 C   0  0  0  0  0  0  0  0  0  0  0  0
    8.3644  -17.5708   24.7496 O   0  0  0  0  0  0  0  0  0  0  0  0
    9.7395  -15.7936   25.0364 N   0  0  0  0  0  0  0  0  0  0  0  0
   10.8619  -16.5783   25.5755 C   0  0  1  0  0  0  0  0  0  0  0  0
   12.1195  -16.2610   24.8589 C   0  0  0  0  0  0  0  0  0  0  0  0
   13.2937  -16.9959   25.4163 C   0  0  0  0  0  0  0  0  0  0  0  0
   14.5745  -16.7163   24.7585 C   0  0  0  0  0  0  0  0  0  0  0  0
   14.9737  -15.5527   24.5925 O   0  0  0  0  0  0  0  0  0  0  0  0
   10.9777  -16.2964   27.0231 C   0  0  0  0  0  0  0  0  0  0  0  0
   11.5328  -17.1403   27.9583 O   0  0  0  0  0  0  0  0  0  0  0  0
   15.3492  -17.7733   24.3161 O   0  0  0  0  0  0  0  0  0  0  0  0
   10.5360  -15.1888   27.4898 O   0  0  0  0  0  0  0  0  0  0  0  0
  2  4  1  0
  2  1  1  1
  3  2  1  0
  4  5  2  0
  6  7  1  0
  6  4  1  0
  7  8  1  1
  8  9  1  0
  9 14  2  0
 10 11  2  0
 10  9  1  0
 11 12  1  0
 12 13  2  0
 14 13  1  0
 15 16  2  0
 15  7  1  0
 17 15  1  0
 18 23  1  0
 18 17  1  0
 18 19  1  6
 20 19  1  0
 20 21  1  0
 21 25  1  0
 22 21  2  0
 23 24  1  0
 26 23  2  0
M  END
$$$$
