AFE.pdb
     RDKit          3D

 26 26  0  0  1  0  0  0  0  0999 V2000
    8.4671  -18.7729   20.2982 C   0  0  0  0  0  0  0  0  0  0  0  0
    7.7811  -17.4270   20.0869 C   0  0  2  0  0  0  0  0  0  0  0  0
    8.2090  -16.9315   18.7953 N   0  0  0  0  0  0  0  0  0  0  0  0
    8.1664  -16.4959   21.1613 C   0  0  0  0  0  0  0  0  0  0  0  0
    9.2540  -15.8669   21.1323 O   0  0  0  0  0  0  0  0  0  0  0  0
    7.3113  -16.2817   22.2694 N   0  0  0  0  0  0  0  0  0  0  0  0
    7.7175  -15.3736   23.3234 C   0  0  1  0  0  0  0  0  0  0  0  0
    6.5392  -14.9370   24.1604 C   0  0  0  0  0  0  0  0  0  0  0  0
    6.8950  -14.0269   25.2501 C   0  0  0  0  0  0  0  0  0  0  0  0
    7.1702  -12.6979   25.0203 C   0  0  0  0  0  0  0  0  0  0  0  0
    7.5093  -11.7958   26.0011 C   0  0  0  0  0  0  0  0  0  0  0  0
    7.5778  -12.2611   27.3117 C   0  0  0  0  0  0  0  0  0  0  0  0
    7.3079  -13.5863   27.5747 C   0  0  0  0  0  0  0  0  0  0  0  0
    6.9690  -14.4689   26.5618 C   0  0  0  0  0  0  0  0  0  0  0  0
    8.6189  -16.1452   24.2317 C   0  0  0  0  0  0  0  0  0  0  0  0
    8.3377  -17.3106   24.6149 O   0  0  0  0  0  0  0  0  0  0  0  0
    9.8276  -15.6065   24.7036 N   0  0  0  0  0  0  0  0  0  0  0  0
   10.9288  -16.4241   25.2376 C   0  0  1  0  0  0  0  0  0  0  0  0
   12.2261  -16.0058   24.6564 C   0  0  0  0  0  0  0  0  0  0  0  0
   13.3715  -16.8036   25.1867 C   0  0  0  0  0  0  0  0  0  0  0  0
   14.6754  -16.4966   24.5894 C   0  0  0  0  0  0  0  0  0  0  0  0
   14.8388  -15.4918   23.8790 O   0  0  0  0  0  0  0  0  0  0  0  0
   10.9311  -16.3009   26.7118 C   0  0  0  0  0  0  0  0  0  0  0  0
   11.4652  -17.2185   27.5881 O   0  0  0  0  0  0  0  0  0  0  0  0
   15.7410  -17.3463   24.8252 O   0  0  0  0  0  0  0  0  0  0  0  0
   10.4010  -15.2735   27.2622 O   0  0  0  0  0  0  0  0  0  0  0  0
  2  4  1  0
  2  1  1  1
  3  2  1  0
  4  5  2  0
  6  7  1  0
  6  4  1  0
  7  8  1  1
  8  9  1  0
  9 14  2  0
 10 11  2  0
 10  9  1  0
 11 12  1  0
 12 13  2  0
 14 13  1  0
 15 16  2  0
 15  7  1  0
 17 15  1  0
 18 23  1  0
 18 17  1  0
 18 19  1  6
 20 19  1  0
 20 21  1  0
 21 25  1  0
 22 21  2  0
 23 24  1  0
 26 23  2  0
M  END
$$$$
