AFE.pdb
     RDKit          3D

 26 26  0  0  1  0  0  0  0  0999 V2000
    8.2656  -18.9010   20.1363 C   0  0  0  0  0  0  0  0  0  0  0  0
    7.7921  -17.4611   19.9656 C   0  0  2  0  0  0  0  0  0  0  0  0
    8.3405  -16.9802   18.7148 N   0  0  0  0  0  0  0  0  0  0  0  0
    8.2641  -16.6428   21.0958 C   0  0  0  0  0  0  0  0  0  0  0  0
    9.4139  -16.1359   21.1100 O   0  0  0  0  0  0  0  0  0  0  0  0
    7.4248  -16.4024   22.2106 N   0  0  0  0  0  0  0  0  0  0  0  0
    7.8609  -15.4959   23.2540 C   0  0  1  0  0  0  0  0  0  0  0  0
    6.7117  -15.0822   24.1417 C   0  0  0  0  0  0  0  0  0  0  0  0
    7.0914  -14.1435   25.1986 C   0  0  0  0  0  0  0  0  0  0  0  0
    7.1799  -12.7899   24.9646 C   0  0  0  0  0  0  0  0  0  0  0  0
    7.5306  -11.8605   25.9154 C   0  0  0  0  0  0  0  0  0  0  0  0
    7.8141  -12.3229   27.1979 C   0  0  0  0  0  0  0  0  0  0  0  0
    7.7344  -13.6722   27.4641 C   0  0  0  0  0  0  0  0  0  0  0  0
    7.3777  -14.5821   26.4819 C   0  0  0  0  0  0  0  0  0  0  0  0
    8.8093  -16.2609   24.1190 C   0  0  0  0  0  0  0  0  0  0  0  0
    8.5591  -17.4317   24.5071 O   0  0  0  0  0  0  0  0  0  0  0  0
   10.0302  -15.7094   24.5424 N   0  0  0  0  0  0  0  0  0  0  0  0
   11.1491  -16.5129   25.0610 C   0  0  1  0  0  0  0  0  0  0  0  0
   12.4407  -16.0312   24.5174 C   0  0  0  0  0  0  0  0  0  0  0  0
   13.6060  -16.7904   25.0607 C   0  0  0  0  0  0  0  0  0  0  0  0
   14.8802  -16.5533   24.3740 C   0  0  0  0  0  0  0  0  0  0  0  0
   15.6098  -15.5970   24.6804 O   0  0  0  0  0  0  0  0  0  0  0  0
   11.1260  -16.4490   26.5387 C   0  0  0  0  0  0  0  0  0  0  0  0
   11.5371  -17.4521   27.3871 O   0  0  0  0  0  0  0  0  0  0  0  0
   15.2723  -17.4152   23.3657 O   0  0  0  0  0  0  0  0  0  0  0  0
   10.6933  -15.3935   27.1202 O   0  0  0  0  0  0  0  0  0  0  0  0
  2  4  1  0
  2  1  1  1
  3  2  1  0
  4  5  2  0
  6  7  1  0
  6  4  1  0
  7  8  1  1
  8  9  1  0
  9 14  2  0
 10 11  2  0
 10  9  1  0
 11 12  1  0
 12 13  2  0
 14 13  1  0
 15 16  2  0
 15  7  1  0
 17 15  1  0
 18 23  1  0
 18 17  1  0
 18 19  1  6
 20 19  1  0
 20 21  1  0
 21 25  1  0
 22 21  2  0
 23 24  1  0
 26 23  2  0
M  END
$$$$
