IKY.pdb
     RDKit          3D

 30 30  0  0  1  0  0  0  0  0999 V2000
   24.5363  -14.5682  -21.3549 C   0  0  0  0  0  0  0  0  0  0  0  0
   24.5462  -14.7610  -19.8845 C   0  0  0  0  0  0  0  0  0  0  0  0
   24.0793  -16.0561  -19.3481 C   0  0  2  0  0  0  0  0  0  0  0  0
   22.7579  -16.4337  -20.0304 C   0  0  0  0  0  0  0  0  0  0  0  0
   24.0438  -16.2868  -17.8980 C   0  0  2  0  0  0  0  0  0  0  0  0
   25.3621  -15.8603  -17.3802 N   0  0  0  0  0  0  0  0  0  0  0  0
   23.6600  -17.5800  -17.3666 C   0  0  0  0  0  0  0  0  0  0  0  0
   22.4581  -18.0134  -17.4514 O   0  0  0  0  0  0  0  0  0  0  0  0
   24.5294  -18.4897  -16.7135 N   0  0  0  0  0  0  0  0  0  0  0  0
   24.0854  -19.7691  -16.1307 C   0  0  1  0  0  0  0  0  0  0  0  0
   25.3457  -20.3825  -15.6279 C   0  0  0  0  0  0  0  0  0  0  0  0
   25.2656  -21.7062  -14.9728 C   0  0  0  0  0  0  0  0  0  0  0  0
   25.4576  -22.7294  -16.1110 C   0  0  0  0  0  0  0  0  0  0  0  0
   25.3804  -24.1372  -15.5807 C   0  0  0  0  0  0  0  0  0  0  0  0
   25.4223  -25.0415  -16.7185 N   0  0  0  0  0  0  0  0  0  0  0  0
   23.0143  -19.5704  -15.1700 C   0  0  0  0  0  0  0  0  0  0  0  0
   23.1604  -18.8128  -14.1686 O   0  0  0  0  0  0  0  0  0  0  0  0
   16.6157  -18.8512  -18.9635 O   0  0  0  0  0  0  0  0  0  0  0  0
   17.4650  -18.8156  -17.8662 C   0  0  0  0  0  0  0  0  0  0  0  0
   17.1737  -19.6455  -16.8101 C   0  0  0  0  0  0  0  0  0  0  0  0
   18.0065  -19.6227  -15.7129 C   0  0  0  0  0  0  0  0  0  0  0  0
   19.1122  -18.8011  -15.6422 C   0  0  0  0  0  0  0  0  0  0  0  0
   19.9546  -18.8179  -14.4297 C   0  0  0  0  0  0  0  0  0  0  0  0
   20.7284  -20.1210  -14.2843 C   0  0  2  0  0  0  0  0  0  0  0  0
   21.7593  -20.2094  -15.3099 N   0  0  0  0  0  0  0  0  0  0  0  0
   19.8886  -21.3131  -14.2786 C   0  0  0  0  0  0  0  0  0  0  0  0
   18.9356  -21.4870  -13.2953 O   0  0  0  0  0  0  0  0  0  0  0  0
   19.3619  -17.9933  -16.7165 C   0  0  0  0  0  0  0  0  0  0  0  0
   18.5486  -17.9820  -17.8468 C   0  0  0  0  0  0  0  0  0  0  0  0
   20.0354  -22.1833  -15.1728 O   0  0  0  0  0  0  0  0  0  0  0  0
  2  1  1  0
  3  2  1  0
  3  5  1  0
  3  4  1  1
  5  6  1  6
  7  5  1  0
  8  7  2  0
  9  7  1  0
 10 16  1  0
 10  9  1  0
 10 11  1  1
 12 11  1  0
 13 12  1  0
 13 14  1  0
 14 15  1  0
 16 17  2  0
 18 19  1  0
 19 20  2  0
 19 29  1  0
 20 21  1  0
 21 22  2  0
 22 23  1  0
 24 23  1  6
 25 16  1  0
 25 24  1  0
 26 27  1  0
 26 24  1  0
 28 22  1  0
 29 28  2  0
 30 26  2  0
M  END
$$$$
