IKY.pdb
     RDKit          3D

 30 30  0  0  1  0  0  0  0  0999 V2000
   13.9437  -18.3303  -14.4925 C   0  0  0  0  0  0  0  0  0  0  0  0
   15.0383  -17.3991  -14.8586 C   0  0  0  0  0  0  0  0  0  0  0  0
   15.0630  -16.0671  -14.2198 C   0  0  2  0  0  0  0  0  0  0  0  0
   13.6830  -15.4136  -14.3706 C   0  0  0  0  0  0  0  0  0  0  0  0
   16.1577  -15.1301  -14.5047 C   0  0  2  0  0  0  0  0  0  0  0  0
   17.4118  -15.8676  -14.2376 N   0  0  0  0  0  0  0  0  0  0  0  0
   16.1784  -13.8140  -13.8967 C   0  0  0  0  0  0  0  0  0  0  0  0
   16.3379  -13.6568  -12.6360 O   0  0  0  0  0  0  0  0  0  0  0  0
   16.0309  -12.5868  -14.5911 N   0  0  0  0  0  0  0  0  0  0  0  0
   16.0525  -11.2678  -13.9329 C   0  0  1  0  0  0  0  0  0  0  0  0
   16.3688  -10.3263  -15.0425 C   0  0  0  0  0  0  0  0  0  0  0  0
   16.3680   -8.8764  -14.7502 C   0  0  0  0  0  0  0  0  0  0  0  0
   17.7905   -8.3954  -15.1024 C   0  0  0  0  0  0  0  0  0  0  0  0
   17.9655   -6.9424  -14.7456 C   0  0  0  0  0  0  0  0  0  0  0  0
   19.2994   -6.5417  -15.1630 N   0  0  0  0  0  0  0  0  0  0  0  0
   14.8298  -11.0277  -13.1867 C   0  0  0  0  0  0  0  0  0  0  0  0
   13.6997  -11.3477  -13.6541 O   0  0  0  0  0  0  0  0  0  0  0  0
   15.6379   -5.0758   -8.0103 O   0  0  0  0  0  0  0  0  0  0  0  0
   15.1827   -6.3297   -8.3937 C   0  0  0  0  0  0  0  0  0  0  0  0
   16.0648   -7.1515   -9.0536 C   0  0  0  0  0  0  0  0  0  0  0  0
   15.6292   -8.3997   -9.4412 C   0  0  0  0  0  0  0  0  0  0  0  0
   14.3483   -8.8455   -9.1901 C   0  0  0  0  0  0  0  0  0  0  0  0
   13.9438  -10.1905   -9.6456 C   0  0  0  0  0  0  0  0  0  0  0  0
   13.6251  -10.2226  -11.1340 C   0  0  2  0  0  0  0  0  0  0  0  0
   14.8444  -10.4303  -11.9038 N   0  0  0  0  0  0  0  0  0  0  0  0
   12.8950   -9.0536  -11.6105 C   0  0  0  0  0  0  0  0  0  0  0  0
   13.5108   -8.1422  -12.4443 O   0  0  0  0  0  0  0  0  0  0  0  0
   13.5065   -7.9934   -8.5311 C   0  0  0  0  0  0  0  0  0  0  0  0
   13.9021   -6.7231   -8.1201 C   0  0  0  0  0  0  0  0  0  0  0  0
   11.7017   -8.8781  -11.2590 O   0  0  0  0  0  0  0  0  0  0  0  0
  2  1  1  0
  3  2  1  0
  3  5  1  0
  3  4  1  6
  5  6  1  1
  7  5  1  0
  8  7  2  0
  9  7  1  0
 10 16  1  0
 10  9  1  0
 10 11  1  6
 12 11  1  0
 13 12  1  0
 13 14  1  0
 14 15  1  0
 16 17  2  0
 18 19  1  0
 19 20  2  0
 19 29  1  0
 20 21  1  0
 21 22  2  0
 22 23  1  0
 24 23  1  1
 25 16  1  0
 25 24  1  0
 26 27  1  0
 26 24  1  0
 28 22  1  0
 29 28  2  0
 30 26  2  0
M  END
$$$$
