IKY.pdb
     RDKit          3D

 30 30  0  0  1  0  0  0  0  0999 V2000
   24.2181  -14.8968  -20.7746 C   0  0  0  0  0  0  0  0  0  0  0  0
   25.1580  -14.7893  -19.6325 C   0  0  0  0  0  0  0  0  0  0  0  0
   26.5981  -14.6391  -19.9268 C   0  0  2  0  0  0  0  0  0  0  0  0
   27.0670  -15.8393  -20.7597 C   0  0  0  0  0  0  0  0  0  0  0  0
   27.5417  -14.3033  -18.8524 C   0  0  2  0  0  0  0  0  0  0  0  0
   27.3716  -15.3431  -17.8142 N   0  0  0  0  0  0  0  0  0  0  0  0
   27.5560  -12.9744  -18.2726 C   0  0  0  0  0  0  0  0  0  0  0  0
   26.8486  -12.6794  -17.2469 O   0  0  0  0  0  0  0  0  0  0  0  0
   28.3219  -11.8800  -18.7475 N   0  0  0  0  0  0  0  0  0  0  0  0
   28.3671  -10.5648  -18.0830 C   0  0  1  0  0  0  0  0  0  0  0  0
   29.6447   -9.9709  -18.5652 C   0  0  0  0  0  0  0  0  0  0  0  0
   29.9555   -8.5765  -18.1823 C   0  0  0  0  0  0  0  0  0  0  0  0
   31.3378   -8.2885  -18.8031 C   0  0  0  0  0  0  0  0  0  0  0  0
   31.8383   -6.9311  -18.3833 C   0  0  0  0  0  0  0  0  0  0  0  0
   33.0227   -6.6328  -19.1721 N   0  0  0  0  0  0  0  0  0  0  0  0
   27.1509   -9.8078  -18.3226 C   0  0  0  0  0  0  0  0  0  0  0  0
   26.5574   -9.8514  -19.4379 O   0  0  0  0  0  0  0  0  0  0  0  0
   19.1741   -6.8990  -18.2839 O   0  0  0  0  0  0  0  0  0  0  0  0
   20.3980   -7.5460  -18.1832 C   0  0  0  0  0  0  0  0  0  0  0  0
   21.4719   -6.8093  -17.7439 C   0  0  0  0  0  0  0  0  0  0  0  0
   22.6941   -7.4361  -17.6380 C   0  0  0  0  0  0  0  0  0  0  0  0
   22.8715   -8.7665  -17.9562 C   0  0  0  0  0  0  0  0  0  0  0  0
   24.2128   -9.3715  -17.8321 C   0  0  0  0  0  0  0  0  0  0  0  0
   25.2828   -8.3380  -17.5085 C   0  0  2  0  0  0  0  0  0  0  0  0
   26.5715   -8.9914  -17.3223 N   0  0  0  0  0  0  0  0  0  0  0  0
   24.9581   -7.4822  -16.3733 C   0  0  0  0  0  0  0  0  0  0  0  0
   24.3175   -6.2760  -16.5733 O   0  0  0  0  0  0  0  0  0  0  0  0
   21.7749   -9.4587  -18.3888 C   0  0  0  0  0  0  0  0  0  0  0  0
   20.5200   -8.8677  -18.5115 C   0  0  0  0  0  0  0  0  0  0  0  0
   25.2640   -7.8464  -15.2105 O   0  0  0  0  0  0  0  0  0  0  0  0
  2  1  1  0
  3  2  1  0
  3  5  1  0
  3  4  1  1
  5  6  1  1
  7  5  1  0
  8  7  2  0
  9  7  1  0
 10 16  1  0
 10  9  1  0
 10 11  1  6
 12 11  1  0
 13 12  1  0
 13 14  1  0
 14 15  1  0
 16 17  2  0
 18 19  1  0
 19 20  2  0
 19 29  1  0
 20 21  1  0
 21 22  2  0
 22 23  1  0
 24 23  1  1
 25 16  1  0
 25 24  1  0
 26 27  1  0
 26 24  1  0
 28 22  1  0
 29 28  2  0
 30 26  2  0
M  END
$$$$
