IKY.pdb
     RDKit          3D

 30 30  0  0  1  0  0  0  0  0999 V2000
   17.3871  -20.5716  -14.7796 C   0  0  0  0  0  0  0  0  0  0  0  0
   18.6095  -19.8006  -14.4469 C   0  0  0  0  0  0  0  0  0  0  0  0
   19.7372  -20.5191  -13.8182 C   0  0  2  0  0  0  0  0  0  0  0  0
   19.1984  -21.4053  -12.6874 C   0  0  0  0  0  0  0  0  0  0  0  0
   20.9514  -19.7916  -13.4260 C   0  0  2  0  0  0  0  0  0  0  0  0
   21.2745  -18.8903  -14.5535 N   0  0  0  0  0  0  0  0  0  0  0  0
   22.1256  -20.5093  -12.9694 C   0  0  0  0  0  0  0  0  0  0  0  0
   22.0859  -21.2894  -11.9548 O   0  0  0  0  0  0  0  0  0  0  0  0
   23.4113  -20.4413  -13.5628 N   0  0  0  0  0  0  0  0  0  0  0  0
   24.5776  -21.1996  -13.0748 C   0  0  1  0  0  0  0  0  0  0  0  0
   25.4052  -21.3969  -14.2970 C   0  0  0  0  0  0  0  0  0  0  0  0
   25.0745  -22.5291  -15.1894 C   0  0  0  0  0  0  0  0  0  0  0  0
   24.9192  -23.7454  -14.2537 C   0  0  0  0  0  0  0  0  0  0  0  0
   24.7304  -25.0100  -15.0502 C   0  0  0  0  0  0  0  0  0  0  0  0
   25.8752  -25.1505  -15.9355 N   0  0  0  0  0  0  0  0  0  0  0  0
   25.2072  -20.5358  -11.9467 C   0  0  0  0  0  0  0  0  0  0  0  0
   25.1896  -19.2772  -11.8299 O   0  0  0  0  0  0  0  0  0  0  0  0
   29.2481  -18.5226   -4.5137 O   0  0  0  0  0  0  0  0  0  0  0  0
   28.4559  -19.1422   -5.4704 C   0  0  0  0  0  0  0  0  0  0  0  0
   28.6725  -18.8104   -6.7864 C   0  0  0  0  0  0  0  0  0  0  0  0
   27.8950  -19.4162   -7.7489 C   0  0  0  0  0  0  0  0  0  0  0  0
   26.9159  -20.3359   -7.4357 C   0  0  0  0  0  0  0  0  0  0  0  0
   26.1099  -20.9370   -8.5171 C   0  0  0  0  0  0  0  0  0  0  0  0
   26.6594  -20.6048   -9.8974 C   0  0  2  0  0  0  0  0  0  0  0  0
   25.8644  -21.2629  -10.9257 N   0  0  0  0  0  0  0  0  0  0  0  0
   28.0780  -20.9013  -10.0593 C   0  0  0  0  0  0  0  0  0  0  0  0
   28.5029  -22.2067  -10.2029 O   0  0  0  0  0  0  0  0  0  0  0  0
   26.7367  -20.6344   -6.1137 C   0  0  0  0  0  0  0  0  0  0  0  0
   27.4983  -20.0477   -5.1063 C   0  0  0  0  0  0  0  0  0  0  0  0
   28.9139  -19.9635  -10.0674 O   0  0  0  0  0  0  0  0  0  0  0  0
  2  1  1  0
  3  2  1  0
  3  5  1  0
  3  4  1  1
  5  6  1  6
  7  5  1  0
  8  7  2  0
  9  7  1  0
 10 16  1  0
 10  9  1  0
 10 11  1  6
 12 11  1  0
 13 12  1  0
 13 14  1  0
 14 15  1  0
 16 17  2  0
 18 19  1  0
 19 20  2  0
 19 29  1  0
 20 21  1  0
 21 22  2  0
 22 23  1  0
 24 23  1  1
 25 16  1  0
 25 24  1  0
 26 27  1  0
 26 24  1  0
 28 22  1  0
 29 28  2  0
 30 26  2  0
M  END
$$$$
