IKY.pdb
     RDKit          3D

 30 30  0  0  1  0  0  0  0  0999 V2000
   17.3753  -17.5618  -15.4265 C   0  0  0  0  0  0  0  0  0  0  0  0
   17.1841  -16.1060  -15.6355 C   0  0  0  0  0  0  0  0  0  0  0  0
   18.2556  -15.3536  -16.3202 C   0  0  2  0  0  0  0  0  0  0  0  0
   19.5966  -15.6620  -15.6416 C   0  0  0  0  0  0  0  0  0  0  0  0
   18.0898  -13.9217  -16.6025 C   0  0  2  0  0  0  0  0  0  0  0  0
   16.8577  -13.8008  -17.4119 N   0  0  0  0  0  0  0  0  0  0  0  0
   19.1771  -13.1529  -17.1761 C   0  0  0  0  0  0  0  0  0  0  0  0
   20.2782  -12.9713  -16.5483 O   0  0  0  0  0  0  0  0  0  0  0  0
   19.1597  -12.5313  -18.4502 N   0  0  0  0  0  0  0  0  0  0  0  0
   20.1935  -11.5876  -18.9131 C   0  0  1  0  0  0  0  0  0  0  0  0
   19.9229  -11.4574  -20.3716 C   0  0  0  0  0  0  0  0  0  0  0  0
   20.6657  -10.4281  -21.1309 C   0  0  0  0  0  0  0  0  0  0  0  0
   21.4839  -11.2133  -22.1764 C   0  0  0  0  0  0  0  0  0  0  0  0
   22.2919  -10.2755  -23.0348 C   0  0  0  0  0  0  0  0  0  0  0  0
   23.0493  -11.0813  -23.9788 N   0  0  0  0  0  0  0  0  0  0  0  0
   20.1883  -10.3673  -18.1253 C   0  0  0  0  0  0  0  0  0  0  0  0
   19.1099   -9.8626  -17.7006 O   0  0  0  0  0  0  0  0  0  0  0  0
   22.5480   -3.4169  -13.3180 O   0  0  0  0  0  0  0  0  0  0  0  0
   22.4927   -4.6372  -13.9771 C   0  0  0  0  0  0  0  0  0  0  0  0
   21.5958   -5.5697  -13.5134 C   0  0  0  0  0  0  0  0  0  0  0  0
   21.5279   -6.7863  -14.1562 C   0  0  0  0  0  0  0  0  0  0  0  0
   22.3242   -7.0943  -15.2395 C   0  0  0  0  0  0  0  0  0  0  0  0
   22.2086   -8.4231  -15.8729 C   0  0  0  0  0  0  0  0  0  0  0  0
   21.3800   -8.3823  -17.1494 C   0  0  2  0  0  0  0  0  0  0  0  0
   21.3852   -9.6894  -17.7929 N   0  0  0  0  0  0  0  0  0  0  0  0
   21.7780   -7.3350  -18.0828 C   0  0  0  0  0  0  0  0  0  0  0  0
   21.1367   -6.1128  -18.0703 O   0  0  0  0  0  0  0  0  0  0  0  0
   23.2010   -6.1356  -15.6650 C   0  0  0  0  0  0  0  0  0  0  0  0
   23.3049   -4.8921  -15.0471 C   0  0  0  0  0  0  0  0  0  0  0  0
   22.7080   -7.5487  -18.8999 O   0  0  0  0  0  0  0  0  0  0  0  0
  2  1  1  0
  3  2  1  0
  3  5  1  0
  3  4  1  1
  5  6  1  6
  7  5  1  0
  8  7  2  0
  9  7  1  0
 10 16  1  0
 10  9  1  0
 10 11  1  6
 12 11  1  0
 13 12  1  0
 13 14  1  0
 14 15  1  0
 16 17  2  0
 18 19  1  0
 19 20  2  0
 19 29  1  0
 20 21  1  0
 21 22  2  0
 22 23  1  0
 24 23  1  1
 25 16  1  0
 25 24  1  0
 26 27  1  0
 26 24  1  0
 28 22  1  0
 29 28  2  0
 30 26  2  0
M  END
$$$$
