IKY.pdb
     RDKit          3D

 30 30  0  0  1  0  0  0  0  0999 V2000
   20.5845  -14.7687  -21.0980 C   0  0  0  0  0  0  0  0  0  0  0  0
   21.3253  -15.1187  -19.8618 C   0  0  0  0  0  0  0  0  0  0  0  0
   21.6121  -16.5445  -19.6012 C   0  0  2  0  0  0  0  0  0  0  0  0
   20.3156  -17.3516  -19.7499 C   0  0  0  0  0  0  0  0  0  0  0  0
   22.3815  -16.9394  -18.4140 C   0  0  2  0  0  0  0  0  0  0  0  0
   23.5707  -16.0604  -18.3822 N   0  0  0  0  0  0  0  0  0  0  0  0
   22.7434  -18.3268  -18.1982 C   0  0  0  0  0  0  0  0  0  0  0  0
   21.8581  -19.2319  -18.0067 O   0  0  0  0  0  0  0  0  0  0  0  0
   24.0665  -18.8353  -18.1727 N   0  0  0  0  0  0  0  0  0  0  0  0
   24.3915  -20.2568  -17.9553 C   0  0  1  0  0  0  0  0  0  0  0  0
   25.4566  -20.5315  -18.9591 C   0  0  0  0  0  0  0  0  0  0  0  0
   25.0628  -20.6563  -20.3793 C   0  0  0  0  0  0  0  0  0  0  0  0
   26.3446  -21.0998  -21.1136 C   0  0  0  0  0  0  0  0  0  0  0  0
   26.0829  -21.2702  -22.5872 C   0  0  0  0  0  0  0  0  0  0  0  0
   27.3181  -21.7226  -23.2067 N   0  0  0  0  0  0  0  0  0  0  0  0
   24.7076  -20.5213  -16.5625 C   0  0  0  0  0  0  0  0  0  0  0  0
   25.7781  -20.0994  -16.0389 O   0  0  0  0  0  0  0  0  0  0  0  0
   25.5520  -21.2451   -8.1297 O   0  0  0  0  0  0  0  0  0  0  0  0
   25.2602  -21.0140   -9.4669 C   0  0  0  0  0  0  0  0  0  0  0  0
   26.3107  -20.9986  -10.3530 C   0  0  0  0  0  0  0  0  0  0  0  0
   26.0386  -20.7707  -11.6842 C   0  0  0  0  0  0  0  0  0  0  0  0
   24.7577  -20.5596  -12.1503 C   0  0  0  0  0  0  0  0  0  0  0  0
   24.5393  -20.3079  -13.5888 C   0  0  0  0  0  0  0  0  0  0  0  0
   24.1728  -21.5768  -14.3460 C   0  0  2  0  0  0  0  0  0  0  0  0
   23.8345  -21.2572  -15.7265 N   0  0  0  0  0  0  0  0  0  0  0  0
   23.1188  -22.3621  -13.7144 C   0  0  0  0  0  0  0  0  0  0  0  0
   23.4389  -23.3551  -12.8108 O   0  0  0  0  0  0  0  0  0  0  0  0
   23.7451  -20.5839  -11.2321 C   0  0  0  0  0  0  0  0  0  0  0  0
   23.9718  -20.8104   -9.8770 C   0  0  0  0  0  0  0  0  0  0  0  0
   21.9163  -22.1319  -13.9959 O   0  0  0  0  0  0  0  0  0  0  0  0
  2  1  1  0
  3  2  1  0
  3  5  1  0
  3  4  1  1
  5  6  1  6
  7  5  1  0
  8  7  2  0
  9  7  1  0
 10 16  1  0
 10  9  1  0
 10 11  1  6
 12 11  1  0
 13 12  1  0
 13 14  1  0
 14 15  1  0
 16 17  2  0
 18 19  1  0
 19 20  2  0
 19 29  1  0
 20 21  1  0
 21 22  2  0
 22 23  1  0
 24 23  1  1
 25 16  1  0
 25 24  1  0
 26 27  1  0
 26 24  1  0
 28 22  1  0
 29 28  2  0
 30 26  2  0
M  END
$$$$
