IKY.pdb
     RDKit          3D

 30 30  0  0  1  0  0  0  0  0999 V2000
   22.8578  -12.8088  -20.0346 C   0  0  0  0  0  0  0  0  0  0  0  0
   24.2022  -13.4290  -19.9488 C   0  0  0  0  0  0  0  0  0  0  0  0
   24.2902  -14.8504  -19.5550 C   0  0  2  0  0  0  0  0  0  0  0  0
   23.5703  -15.0441  -18.2140 C   0  0  0  0  0  0  0  0  0  0  0  0
   25.5794  -15.5527  -19.6022 C   0  0  2  0  0  0  0  0  0  0  0  0
   26.0745  -15.4131  -20.9891 N   0  0  0  0  0  0  0  0  0  0  0  0
   25.6908  -16.9211  -19.1361 C   0  0  0  0  0  0  0  0  0  0  0  0
   25.0543  -17.8785  -19.6996 O   0  0  0  0  0  0  0  0  0  0  0  0
   26.4845  -17.3540  -18.0440 N   0  0  0  0  0  0  0  0  0  0  0  0
   26.5255  -18.7479  -17.5656 C   0  0  1  0  0  0  0  0  0  0  0  0
   27.8712  -18.8650  -16.9388 C   0  0  0  0  0  0  0  0  0  0  0  0
   28.2047  -20.1191  -16.2292 C   0  0  0  0  0  0  0  0  0  0  0  0
   28.8886  -21.0091  -17.2873 C   0  0  0  0  0  0  0  0  0  0  0  0
   29.2528  -22.3485  -16.7022 C   0  0  0  0  0  0  0  0  0  0  0  0
   29.7813  -23.1722  -17.7776 N   0  0  0  0  0  0  0  0  0  0  0  0
   25.3762  -19.0565  -16.7330 C   0  0  0  0  0  0  0  0  0  0  0  0
   25.0522  -18.3192  -15.7585 O   0  0  0  0  0  0  0  0  0  0  0  0
   17.9924  -20.9131  -12.8670 O   0  0  0  0  0  0  0  0  0  0  0  0
   19.0910  -20.5639  -13.6401 C   0  0  0  0  0  0  0  0  0  0  0  0
   20.1825  -20.0373  -12.9918 C   0  0  0  0  0  0  0  0  0  0  0  0
   21.2817  -19.6854  -13.7442 C   0  0  0  0  0  0  0  0  0  0  0  0
   21.3200  -19.8435  -15.1139 C   0  0  0  0  0  0  0  0  0  0  0  0
   22.5261  -19.4326  -15.8601 C   0  0  0  0  0  0  0  0  0  0  0  0
   23.4991  -20.5859  -16.0616 C   0  0  2  0  0  0  0  0  0  0  0  0
   24.5641  -20.1904  -16.9736 N   0  0  0  0  0  0  0  0  0  0  0  0
   22.8681  -21.8266  -16.4964 C   0  0  0  0  0  0  0  0  0  0  0  0
   22.8265  -22.1521  -17.8372 O   0  0  0  0  0  0  0  0  0  0  0  0
   20.2112  -20.3711  -15.7148 C   0  0  0  0  0  0  0  0  0  0  0  0
   19.0776  -20.7413  -14.9957 C   0  0  0  0  0  0  0  0  0  0  0  0
   22.3612  -22.5996  -15.6457 O   0  0  0  0  0  0  0  0  0  0  0  0
  2  1  1  0
  3  2  1  0
  3  5  1  0
  3  4  1  1
  5  6  1  6
  7  5  1  0
  8  7  2  0
  9  7  1  0
 10 16  1  0
 10  9  1  0
 10 11  1  1
 12 11  1  0
 13 12  1  0
 13 14  1  0
 14 15  1  0
 16 17  2  0
 18 19  1  0
 19 20  2  0
 19 29  1  0
 20 21  1  0
 21 22  2  0
 22 23  1  0
 24 23  1  6
 25 16  1  0
 25 24  1  0
 26 27  1  0
 26 24  1  0
 28 22  1  0
 29 28  2  0
 30 26  2  0
M  END
$$$$
