IKY.pdb
     RDKit          3D

 30 30  0  0  1  0  0  0  0  0999 V2000
   32.3068  -22.1180   -9.2675 C   0  0  0  0  0  0  0  0  0  0  0  0
   32.4447  -21.3982  -10.5567 C   0  0  0  0  0  0  0  0  0  0  0  0
   31.2663  -20.6789  -11.0829 C   0  0  2  0  0  0  0  0  0  0  0  0
   30.8483  -19.5985  -10.0768 C   0  0  0  0  0  0  0  0  0  0  0  0
   30.1163  -21.4271  -11.6074 C   0  0  2  0  0  0  0  0  0  0  0  0
   30.6768  -22.5672  -12.3650 N   0  0  0  0  0  0  0  0  0  0  0  0
   29.0784  -20.7507  -12.3608 C   0  0  0  0  0  0  0  0  0  0  0  0
   28.0551  -20.2377  -11.7868 O   0  0  0  0  0  0  0  0  0  0  0  0
   29.0653  -20.5788  -13.7679 N   0  0  0  0  0  0  0  0  0  0  0  0
   28.0131  -19.8419  -14.4914 C   0  0  1  0  0  0  0  0  0  0  0  0
   28.6983  -19.3742  -15.7280 C   0  0  0  0  0  0  0  0  0  0  0  0
   28.3120  -18.0602  -16.2864 C   0  0  0  0  0  0  0  0  0  0  0  0
   27.4024  -18.3868  -17.4885 C   0  0  0  0  0  0  0  0  0  0  0  0
   27.0300  -17.1308  -18.2320 C   0  0  0  0  0  0  0  0  0  0  0  0
   26.0816  -17.4965  -19.2716 N   0  0  0  0  0  0  0  0  0  0  0  0
   26.8191  -20.6517  -14.6597 C   0  0  0  0  0  0  0  0  0  0  0  0
   26.8734  -21.9146  -14.6497 O   0  0  0  0  0  0  0  0  0  0  0  0
   20.5062  -20.9446   -8.9947 O   0  0  0  0  0  0  0  0  0  0  0  0
   21.5922  -20.7697   -9.8412 C   0  0  0  0  0  0  0  0  0  0  0  0
   21.5721  -19.6847  -10.6846 C   0  0  0  0  0  0  0  0  0  0  0  0
   22.6423  -19.4961  -11.5314 C   0  0  0  0  0  0  0  0  0  0  0  0
   23.7221  -20.3540  -11.5588 C   0  0  0  0  0  0  0  0  0  0  0  0
   24.8297  -20.0993  -12.5015 C   0  0  0  0  0  0  0  0  0  0  0  0
   24.4275  -20.3609  -13.9463 C   0  0  2  0  0  0  0  0  0  0  0  0
   25.5419  -20.0687  -14.8381 N   0  0  0  0  0  0  0  0  0  0  0  0
   23.2210  -19.6564  -14.3640 C   0  0  0  0  0  0  0  0  0  0  0  0
   21.9947  -20.2877  -14.3121 O   0  0  0  0  0  0  0  0  0  0  0  0
   23.6977  -21.4191  -10.7021 C   0  0  0  0  0  0  0  0  0  0  0  0
   22.6382  -21.6502   -9.8286 C   0  0  0  0  0  0  0  0  0  0  0  0
   23.3011  -18.4710  -14.7722 O   0  0  0  0  0  0  0  0  0  0  0  0
  2  1  1  0
  3  2  1  0
  3  5  1  0
  3  4  1  1
  5  6  1  6
  7  5  1  0
  8  7  2  0
  9  7  1  0
 10 16  1  0
 10  9  1  0
 10 11  1  6
 12 11  1  0
 13 12  1  0
 13 14  1  0
 14 15  1  0
 16 17  2  0
 18 19  1  0
 19 20  2  0
 19 29  1  0
 20 21  1  0
 21 22  2  0
 22 23  1  0
 24 23  1  1
 25 16  1  0
 25 24  1  0
 26 27  1  0
 26 24  1  0
 28 22  1  0
 29 28  2  0
 30 26  2  0
M  END
$$$$
