RAV.pdb
     RDKit          3D

 24 23  0  0  1  0  0  0  0  0999 V2000
   28.6627  -22.1624  -18.3990 N   0  0  0  0  0  0  0  0  0  0  0  0
   29.3009  -21.1158  -19.1417 C   0  0  0  0  0  0  0  0  0  0  0  0
   29.7420  -21.3375  -20.3394 N   0  0  0  0  0  0  0  0  0  0  0  0
   29.4836  -19.8120  -18.6075 N   0  0  0  0  0  0  0  0  0  0  0  0
   29.0536  -19.4257  -17.2826 C   0  0  0  0  0  0  0  0  0  0  0  0
   27.5586  -19.3789  -17.1658 C   0  0  0  0  0  0  0  0  0  0  0  0
   27.0623  -18.9656  -15.8308 C   0  0  0  0  0  0  0  0  0  0  0  0
   26.8360  -20.0452  -14.8320 C   0  0  2  0  0  0  0  0  0  0  0  0
   26.3853  -21.3021  -15.3529 N   0  0  0  0  0  0  0  0  0  0  0  0
   26.0015  -19.6704  -13.6729 C   0  0  0  0  0  0  0  0  0  0  0  0
   25.7593  -18.4413  -13.4869 O   0  0  0  0  0  0  0  0  0  0  0  0
   30.1942  -20.5956  -20.8926 C   0  0  0  0  0  0  0  0  0  0  0  0
   23.2471  -20.7144  -11.7241 C   0  0  2  0  0  0  0  0  0  0  0  0
   24.6689  -20.3068  -11.6509 N   0  0  0  0  0  0  0  0  0  0  0  0
   25.4803  -20.6484  -12.7854 C   0  0  0  0  0  0  0  0  0  0  0  0
   25.2978  -20.7846  -10.3715 O   0  0  0  0  0  0  0  0  0  0  0  0
   25.5905  -22.0050  -10.1952 C   0  0  0  0  0  0  0  0  0  0  0  0
   27.1164  -19.7818   -5.8582 C   0  0  2  0  0  0  0  0  0  0  0  0
   26.6850  -19.2925   -7.2093 C   0  0  0  0  0  0  0  0  0  0  0  0
   27.8684  -18.8240   -8.0082 C   0  0  1  0  0  0  0  0  0  0  0  0
   25.9558  -20.4029   -7.9587 N   0  0  0  0  0  0  0  0  0  0  0  0
   25.6051  -19.9152   -9.2916 C   0  0  0  0  0  0  0  0  0  0  0  0
   24.8384  -20.9627   -7.2142 O   0  0  0  0  0  0  0  0  0  0  0  0
   24.9086  -22.1782   -6.5392 O   0  0  0  0  0  0  0  0  0  0  0  0
  2  1  1  0
  2  3  2  0
  4  2  1  0
  5  4  1  0
  6  5  1  0
  7  6  1  0
  8 10  1  0
  8  7  1  0
  8  9  1  6
 10 11  2  0
 13 12  1  6
 14 10  1  0
 14 13  1  0
 15 21  1  0
 15 13  1  0
 16 15  2  0
 18 20  1  0
 18 17  1  1
 19 18  1  0
 20 22  1  0
 20 21  1  1
 22 23  1  0
 24 22  2  0
M  END
$$$$
