RAV.pdb
     RDKit          3D

 24 23  0  0  1  0  0  0  0  0999 V2000
   21.9179  -27.5597  -15.2999 N   0  0  0  0  0  0  0  0  0  0  0  0
   21.0178  -27.7150  -14.1953 C   0  0  0  0  0  0  0  0  0  0  0  0
   20.5102  -28.8750  -13.9219 N   0  0  0  0  0  0  0  0  0  0  0  0
   20.6404  -26.6235  -13.3677 N   0  0  0  0  0  0  0  0  0  0  0  0
   21.0017  -25.2514  -13.6436 C   0  0  0  0  0  0  0  0  0  0  0  0
   20.0742  -24.6121  -14.6347 C   0  0  0  0  0  0  0  0  0  0  0  0
   20.4312  -23.2185  -14.9952 C   0  0  0  0  0  0  0  0  0  0  0  0
   20.5499  -22.2427  -13.8781 C   0  0  2  0  0  0  0  0  0  0  0  0
   19.3557  -21.9989  -13.1238 N   0  0  0  0  0  0  0  0  0  0  0  0
   21.1771  -20.9526  -14.2284 C   0  0  0  0  0  0  0  0  0  0  0  0
   20.4222  -20.0042  -14.5947 O   0  0  0  0  0  0  0  0  0  0  0  0
   19.8998  -29.0166  -13.1044 C   0  0  0  0  0  0  0  0  0  0  0  0
   24.5996  -19.3435  -14.0088 C   0  0  1  0  0  0  0  0  0  0  0  0
   23.2152  -19.5241  -14.5022 N   0  0  0  0  0  0  0  0  0  0  0  0
   22.5832  -20.7678  -14.1615 C   0  0  0  0  0  0  0  0  0  0  0  0
   23.1352  -19.2631  -15.9808 O   0  0  0  0  0  0  0  0  0  0  0  0
   23.3308  -20.1870  -16.8260 C   0  0  0  0  0  0  0  0  0  0  0  0
   20.2321  -18.0873  -17.7948 C   0  0  2  0  0  0  0  0  0  0  0  0
   21.3119  -17.1305  -18.2067 C   0  0  0  0  0  0  0  0  0  0  0  0
   21.1900  -15.8351  -17.4547 C   0  0  2  0  0  0  0  0  0  0  0  0
   22.6826  -17.7513  -17.9582 N   0  0  0  0  0  0  0  0  0  0  0  0
   22.8368  -17.9851  -16.5232 C   0  0  0  0  0  0  0  0  0  0  0  0
   23.7729  -17.0007  -18.5617 O   0  0  0  0  0  0  0  0  0  0  0  0
   24.1094  -17.1011  -19.9089 O   0  0  0  0  0  0  0  0  0  0  0  0
  2  1  1  0
  2  3  2  0
  4  2  1  0
  5  4  1  0
  6  5  1  0
  7  6  1  0
  8 10  1  0
  8  7  1  0
  8  9  1  6
 10 11  2  0
 13 12  1  1
 14 10  1  0
 14 13  1  0
 15 21  1  0
 15 13  1  0
 16 15  2  0
 18 20  1  0
 18 17  1  6
 19 18  1  0
 20 22  1  0
 20 21  1  6
 22 23  1  0
 24 22  2  0
M  END
$$$$
