RAV.pdb
     RDKit          3D

 24 23  0  0  1  0  0  0  0  0999 V2000
   19.0297  -15.6568  -16.9365 N   0  0  0  0  0  0  0  0  0  0  0  0
   18.1125  -14.5798  -17.1671 C   0  0  0  0  0  0  0  0  0  0  0  0
   16.8682  -14.6946  -16.8255 N   0  0  0  0  0  0  0  0  0  0  0  0
   18.5145  -13.3610  -17.7764 N   0  0  0  0  0  0  0  0  0  0  0  0
   19.8553  -13.1137  -18.2564 C   0  0  0  0  0  0  0  0  0  0  0  0
   19.8598  -12.3809  -19.5656 C   0  0  0  0  0  0  0  0  0  0  0  0
   19.9463  -10.9058  -19.4402 C   0  0  0  0  0  0  0  0  0  0  0  0
   21.1859  -10.3528  -18.8303 C   0  0  2  0  0  0  0  0  0  0  0  0
   22.2908  -11.2585  -18.7155 N   0  0  0  0  0  0  0  0  0  0  0  0
   20.9993   -9.6463  -17.5471 C   0  0  0  0  0  0  0  0  0  0  0  0
   20.0476   -8.8156  -17.4584 O   0  0  0  0  0  0  0  0  0  0  0  0
   16.1757  -13.9697  -17.0620 C   0  0  0  0  0  0  0  0  0  0  0  0
   22.2397   -9.9031  -13.9952 C   0  0  2  0  0  0  0  0  0  0  0  0
   21.6914   -9.2065  -15.1813 N   0  0  0  0  0  0  0  0  0  0  0  0
   21.8542   -9.8816  -16.4383 C   0  0  0  0  0  0  0  0  0  0  0  0
   22.2001   -7.7936  -15.2554 O   0  0  0  0  0  0  0  0  0  0  0  0
   23.2675   -7.5078  -15.8760 C   0  0  0  0  0  0  0  0  0  0  0  0
   21.2510   -4.8000  -16.8033 C   0  0  2  0  0  0  0  0  0  0  0  0
   21.2635   -4.3943  -15.3589 C   0  0  0  0  0  0  0  0  0  0  0  0
   19.8670   -4.3556  -14.8052 C   0  0  2  0  0  0  0  0  0  0  0  0
   22.1186   -5.3651  -14.5510 N   0  0  0  0  0  0  0  0  0  0  0  0
   21.5291   -6.6995  -14.6479 C   0  0  0  0  0  0  0  0  0  0  0  0
   22.3657   -4.9187  -13.1887 O   0  0  0  0  0  0  0  0  0  0  0  0
   23.2116   -3.8571  -12.8793 O   0  0  0  0  0  0  0  0  0  0  0  0
  2  1  1  0
  2  3  2  0
  4  2  1  0
  5  4  1  0
  6  5  1  0
  7  6  1  0
  8 10  1  0
  8  7  1  0
  8  9  1  1
 10 11  2  0
 13 12  1  1
 14 10  1  0
 14 13  1  0
 15 21  1  0
 15 13  1  0
 16 15  2  0
 18 20  1  0
 18 17  1  6
 19 18  1  0
 20 22  1  0
 20 21  1  1
 22 23  1  0
 24 22  2  0
M  END
$$$$
