RAV.pdb
     RDKit          3D

 24 23  0  0  1  0  0  0  0  0999 V2000
   23.0298  -22.3622  -16.4163 N   0  0  0  0  0  0  0  0  0  0  0  0
   24.2068  -23.1032  -16.7625 C   0  0  0  0  0  0  0  0  0  0  0  0
   24.2529  -23.7821  -17.8648 N   0  0  0  0  0  0  0  0  0  0  0  0
   25.3546  -23.1342  -15.9258 N   0  0  0  0  0  0  0  0  0  0  0  0
   25.3132  -22.8703  -14.5052 C   0  0  0  0  0  0  0  0  0  0  0  0
   25.3443  -21.4011  -14.2031 C   0  0  0  0  0  0  0  0  0  0  0  0
   26.3772  -21.0015  -13.2168 C   0  0  0  0  0  0  0  0  0  0  0  0
   26.2692  -21.5874  -11.8531 C   0  0  2  0  0  0  0  0  0  0  0  0
   25.0742  -22.3294  -11.5781 N   0  0  0  0  0  0  0  0  0  0  0  0
   26.5297  -20.6525  -10.7401 C   0  0  0  0  0  0  0  0  0  0  0  0
   27.4670  -19.8119  -10.8763 O   0  0  0  0  0  0  0  0  0  0  0  0
   25.0858  -24.3288  -18.1261 C   0  0  0  0  0  0  0  0  0  0  0  0
   24.7610  -19.0577   -7.9750 C   0  0  2  0  0  0  0  0  0  0  0  0
   25.9680  -19.7585   -8.4698 N   0  0  0  0  0  0  0  0  0  0  0  0
   25.7602  -20.6847   -9.5474 C   0  0  0  0  0  0  0  0  0  0  0  0
   26.7143  -20.4052   -7.3360 O   0  0  0  0  0  0  0  0  0  0  0  0
   26.3662  -21.5331   -6.8745 C   0  0  0  0  0  0  0  0  0  0  0  0
   30.5899  -20.4759   -6.7230 C   0  0  2  0  0  0  0  0  0  0  0  0
   29.9246  -19.9690   -5.4774 C   0  0  0  0  0  0  0  0  0  0  0  0
   30.0867  -18.4800   -5.3560 C   0  0  2  0  0  0  0  0  0  0  0  0
   28.4437  -20.3336   -5.4909 N   0  0  0  0  0  0  0  0  0  0  0  0
   27.8440  -19.8083   -6.7164 C   0  0  0  0  0  0  0  0  0  0  0  0
   27.7454  -19.9519   -4.2730 O   0  0  0  0  0  0  0  0  0  0  0  0
   27.8736  -20.6483   -3.0744 O   0  0  0  0  0  0  0  0  0  0  0  0
  2  1  1  0
  2  3  2  0
  4  2  1  0
  5  4  1  0
  6  5  1  0
  7  6  1  0
  8 10  1  0
  8  7  1  0
  8  9  1  1
 10 11  2  0
 13 12  1  6
 14 10  1  0
 14 13  1  0
 15 21  1  0
 15 13  1  0
 16 15  2  0
 18 20  1  0
 18 17  1  1
 19 18  1  0
 20 22  1  0
 20 21  1  1
 22 23  1  0
 24 22  2  0
M  END
$$$$
