RAV.pdb
     RDKit          3D

 24 23  0  0  1  0  0  0  0  0999 V2000
   27.2797  -20.0660  -18.9688 N   0  0  0  0  0  0  0  0  0  0  0  0
   28.6133  -19.5434  -18.9162 C   0  0  0  0  0  0  0  0  0  0  0  0
   29.2982  -19.3850  -20.0043 N   0  0  0  0  0  0  0  0  0  0  0  0
   29.2388  -19.1879  -17.6911 N   0  0  0  0  0  0  0  0  0  0  0  0
   28.6754  -19.4829  -16.3930 C   0  0  0  0  0  0  0  0  0  0  0  0
   27.5616  -18.5437  -16.0347 C   0  0  0  0  0  0  0  0  0  0  0  0
   27.2774  -18.4586  -14.5816 C   0  0  0  0  0  0  0  0  0  0  0  0
   26.9704  -19.7341  -13.8792 C   0  0  2  0  0  0  0  0  0  0  0  0
   26.1272  -20.6548  -14.5830 N   0  0  0  0  0  0  0  0  0  0  0  0
   26.4855  -19.5917  -12.4917 C   0  0  0  0  0  0  0  0  0  0  0  0
   27.0904  -18.7803  -11.7305 O   0  0  0  0  0  0  0  0  0  0  0  0
   30.2792  -19.0718  -19.9823 C   0  0  0  0  0  0  0  0  0  0  0  0
   23.4340  -20.5306  -10.4927 C   0  0  2  0  0  0  0  0  0  0  0  0
   24.8614  -20.1840  -10.6804 N   0  0  0  0  0  0  0  0  0  0  0  0
   25.3758  -20.3365  -12.0125 C   0  0  0  0  0  0  0  0  0  0  0  0
   25.7233  -20.9045   -9.6811 O   0  0  0  0  0  0  0  0  0  0  0  0
   26.0632  -22.1134   -9.8523 C   0  0  0  0  0  0  0  0  0  0  0  0
   28.8790  -19.7610   -7.6619 C   0  0  2  0  0  0  0  0  0  0  0  0
   27.8218  -20.1856   -6.6856 C   0  0  0  0  0  0  0  0  0  0  0  0
   27.1608  -18.9881   -6.0631 C   0  0  2  0  0  0  0  0  0  0  0  0
   26.7802  -21.0510   -7.3872 N   0  0  0  0  0  0  0  0  0  0  0  0
   26.2107  -20.2894   -8.4977 C   0  0  0  0  0  0  0  0  0  0  0  0
   25.7920  -21.6127   -6.4792 O   0  0  0  0  0  0  0  0  0  0  0  0
   26.1057  -22.5568   -5.5054 O   0  0  0  0  0  0  0  0  0  0  0  0
  2  1  1  0
  2  3  2  0
  4  2  1  0
  5  4  1  0
  6  5  1  0
  7  6  1  0
  8 10  1  0
  8  7  1  0
  8  9  1  6
 10 11  2  0
 13 12  1  6
 14 10  1  0
 14 13  1  0
 15 21  1  0
 15 13  1  0
 16 15  2  0
 18 20  1  0
 18 17  1  1
 19 18  1  0
 20 22  1  0
 20 21  1  1
 22 23  1  0
 24 22  2  0
M  END
$$$$
