RAV.pdb
     RDKit          3D

 24 23  0  0  1  0  0  0  0  0999 V2000
   29.4050  -26.8300  -18.6491 N   0  0  0  0  0  0  0  0  0  0  0  0
   28.7639  -27.4551  -17.5299 C   0  0  0  0  0  0  0  0  0  0  0  0
   29.2529  -28.5393  -17.0165 N   0  0  0  0  0  0  0  0  0  0  0  0
   27.5801  -26.9300  -16.9458 N   0  0  0  0  0  0  0  0  0  0  0  0
   27.0594  -25.6149  -17.2438 C   0  0  0  0  0  0  0  0  0  0  0  0
   28.1148  -24.5535  -17.1408 C   0  0  0  0  0  0  0  0  0  0  0  0
   27.9121  -23.5959  -16.0267 C   0  0  0  0  0  0  0  0  0  0  0  0
   26.5058  -23.2696  -15.6660 C   0  0  2  0  0  0  0  0  0  0  0  0
   25.6129  -23.0303  -16.7613 N   0  0  0  0  0  0  0  0  0  0  0  0
   26.3420  -22.2003  -14.6608 C   0  0  0  0  0  0  0  0  0  0  0  0
   27.3575  -21.8571  -13.9866 O   0  0  0  0  0  0  0  0  0  0  0  0
   28.8089  -29.0010  -16.2099 C   0  0  0  0  0  0  0  0  0  0  0  0
   23.6357  -19.7958  -13.5163 C   0  0  1  0  0  0  0  0  0  0  0  0
   24.8883  -20.5801  -13.4235 N   0  0  0  0  0  0  0  0  0  0  0  0
   25.0890  -21.5680  -14.4463 C   0  0  0  0  0  0  0  0  0  0  0  0
   25.0447  -21.1794  -12.0534 O   0  0  0  0  0  0  0  0  0  0  0  0
   24.5900  -22.3305  -11.7804 C   0  0  0  0  0  0  0  0  0  0  0  0
   28.0954  -20.4968   -9.6176 C   0  0  2  0  0  0  0  0  0  0  0  0
   26.8204  -20.3537   -8.8398 C   0  0  0  0  0  0  0  0  0  0  0  0
   26.5232  -18.9061   -8.5672 C   0  0  2  0  0  0  0  0  0  0  0  0
   25.6657  -20.9879   -9.6084 N   0  0  0  0  0  0  0  0  0  0  0  0
   25.7045  -20.5094  -10.9894 C   0  0  0  0  0  0  0  0  0  0  0  0
   24.3772  -20.8202   -8.9541 O   0  0  0  0  0  0  0  0  0  0  0  0
   23.9780  -21.5794   -7.8575 O   0  0  0  0  0  0  0  0  0  0  0  0
  2  1  1  0
  2  3  2  0
  4  2  1  0
  5  4  1  0
  6  5  1  0
  7  6  1  0
  8 10  1  0
  8  7  1  0
  8  9  1  6
 10 11  2  0
 13 12  1  6
 14 10  1  0
 14 13  1  0
 15 21  1  0
 15 13  1  0
 16 15  2  0
 18 20  1  0
 18 17  1  1
 19 18  1  0
 20 22  1  0
 20 21  1  1
 22 23  1  0
 24 22  2  0
M  END
$$$$
