RAV.pdb
     RDKit          3D

 24 23  0  0  1  0  0  0  0  0999 V2000
   19.0010  -22.7060  -12.2615 N   0  0  0  0  0  0  0  0  0  0  0  0
   18.4903  -23.5699  -13.2848 C   0  0  0  0  0  0  0  0  0  0  0  0
   17.4722  -24.3352  -13.0481 N   0  0  0  0  0  0  0  0  0  0  0  0
   19.0695  -23.6327  -14.5806 N   0  0  0  0  0  0  0  0  0  0  0  0
   20.3118  -22.9821  -14.9311 C   0  0  0  0  0  0  0  0  0  0  0  0
   20.1596  -21.4930  -15.0331 C   0  0  0  0  0  0  0  0  0  0  0  0
   21.3622  -20.7890  -15.5406 C   0  0  0  0  0  0  0  0  0  0  0  0
   22.4442  -20.5094  -14.5581 C   0  0  2  0  0  0  0  0  0  0  0  0
   22.1353  -20.7809  -13.1851 N   0  0  0  0  0  0  0  0  0  0  0  0
   23.0650  -19.1737  -14.6632 C   0  0  0  0  0  0  0  0  0  0  0  0
   22.3007  -18.1659  -14.7268 O   0  0  0  0  0  0  0  0  0  0  0  0
   17.1441  -25.0243  -13.7399 C   0  0  0  0  0  0  0  0  0  0  0  0
   26.5044  -17.6373  -14.3550 C   0  0  2  0  0  0  0  0  0  0  0  0
   25.1000  -17.7230  -14.8166 N   0  0  0  0  0  0  0  0  0  0  0  0
   24.4750  -19.0100  -14.6936 C   0  0  0  0  0  0  0  0  0  0  0  0
   24.9616  -17.1848  -16.2137 O   0  0  0  0  0  0  0  0  0  0  0  0
   25.1687  -17.9173  -17.2270 C   0  0  0  0  0  0  0  0  0  0  0  0
   21.9594  -15.6128  -17.6240 C   0  0  2  0  0  0  0  0  0  0  0  0
   23.0576  -14.6388  -17.9345 C   0  0  0  0  0  0  0  0  0  0  0  0
   23.0175  -13.4725  -16.9878 C   0  0  2  0  0  0  0  0  0  0  0  0
   24.4122  -15.3343  -17.8490 N   0  0  0  0  0  0  0  0  0  0  0  0
   24.5923  -15.8418  -16.4897 C   0  0  0  0  0  0  0  0  0  0  0  0
   25.5125  -14.5136  -18.3308 O   0  0  0  0  0  0  0  0  0  0  0  0
   25.7844  -14.3263  -19.6833 O   0  0  0  0  0  0  0  0  0  0  0  0
  2  1  1  0
  2  3  2  0
  4  2  1  0
  5  4  1  0
  6  5  1  0
  7  6  1  0
  8 10  1  0
  8  7  1  0
  8  9  1  1
 10 11  2  0
 13 12  1  1
 14 10  1  0
 14 13  1  0
 15 21  1  0
 15 13  1  0
 16 15  2  0
 18 20  1  0
 18 17  1  6
 19 18  1  0
 20 22  1  0
 20 21  1  6
 22 23  1  0
 24 22  2  0
M  END
$$$$
