RAV.pdb
     RDKit          3D

 24 23  0  0  1  0  0  0  0  0999 V2000
   22.2593  -21.9448   -8.5113 N   0  0  0  0  0  0  0  0  0  0  0  0
   23.2517  -21.3484   -7.6665 C   0  0  0  0  0  0  0  0  0  0  0  0
   23.2614  -21.5923   -6.3942 N   0  0  0  0  0  0  0  0  0  0  0  0
   24.2488  -20.4721   -8.1728 N   0  0  0  0  0  0  0  0  0  0  0  0
   24.5440  -20.3285   -9.5805 C   0  0  0  0  0  0  0  0  0  0  0  0
   25.5626  -21.3259  -10.0480 C   0  0  0  0  0  0  0  0  0  0  0  0
   26.0050  -21.1362  -11.4507 C   0  0  0  0  0  0  0  0  0  0  0  0
   25.2308  -21.8479  -12.5036 C   0  0  2  0  0  0  0  0  0  0  0  0
   25.7234  -23.1386  -12.8851 N   0  0  0  0  0  0  0  0  0  0  0  0
   24.9397  -21.0588  -13.7174 C   0  0  0  0  0  0  0  0  0  0  0  0
   25.8961  -20.8117  -14.5098 O   0  0  0  0  0  0  0  0  0  0  0  0
   23.9286  -21.1276   -5.7619 C   0  0  0  0  0  0  0  0  0  0  0  0
   21.8574  -19.7512  -15.5080 C   0  0  1  0  0  0  0  0  0  0  0  0
   23.3019  -19.9111  -15.2240 N   0  0  0  0  0  0  0  0  0  0  0  0
   23.6313  -20.5851  -13.9994 C   0  0  0  0  0  0  0  0  0  0  0  0
   24.0169  -18.5924  -15.3259 O   0  0  0  0  0  0  0  0  0  0  0  0
   23.9710  -17.7421  -14.3872 C   0  0  0  0  0  0  0  0  0  0  0  0
   27.5345  -15.8042  -17.2948 C   0  0  2  0  0  0  0  0  0  0  0  0
   26.8653  -17.1278  -17.0687 C   0  0  0  0  0  0  0  0  0  0  0  0
   27.6344  -17.9496  -16.0730 C   0  0  1  0  0  0  0  0  0  0  0  0
   25.4374  -16.9140  -16.5771 N   0  0  0  0  0  0  0  0  0  0  0  0
   24.7830  -18.2163  -16.4608 C   0  0  0  0  0  0  0  0  0  0  0  0
   24.6964  -15.9414  -17.3654 O   0  0  0  0  0  0  0  0  0  0  0  0
   24.6231  -14.5917  -17.0323 O   0  0  0  0  0  0  0  0  0  0  0  0
  2  1  1  0
  2  3  2  0
  4  2  1  0
  5  4  1  0
  6  5  1  0
  7  6  1  0
  8 10  1  0
  8  7  1  0
  8  9  1  6
 10 11  2  0
 13 12  1  6
 14 10  1  0
 14 13  1  0
 15 21  1  0
 15 13  1  0
 16 15  2  0
 18 20  1  0
 18 17  1  6
 19 18  1  0
 20 22  1  0
 20 21  1  6
 22 23  1  0
 24 22  2  0
M  END
$$$$
