RAV.pdb
     RDKit          3D

 24 23  0  0  1  0  0  0  0  0999 V2000
   29.8771  -23.3432  -16.8188 N   0  0  0  0  0  0  0  0  0  0  0  0
   30.3447  -23.7634  -15.5307 C   0  0  0  0  0  0  0  0  0  0  0  0
   30.5982  -25.0130  -15.3015 N   0  0  0  0  0  0  0  0  0  0  0  0
   30.5416  -22.8485  -14.4618 N   0  0  0  0  0  0  0  0  0  0  0  0
   30.3245  -21.4244  -14.5809 C   0  0  0  0  0  0  0  0  0  0  0  0
   28.8700  -21.0662  -14.4956 C   0  0  0  0  0  0  0  0  0  0  0  0
   28.3534  -20.9332  -13.1118 C   0  0  0  0  0  0  0  0  0  0  0  0
   26.9128  -20.5924  -12.9602 C   0  0  2  0  0  0  0  0  0  0  0  0
   26.3454  -19.7768  -13.9931 N   0  0  0  0  0  0  0  0  0  0  0  0
   26.5262  -20.0495  -11.6425 C   0  0  0  0  0  0  0  0  0  0  0  0
   26.7598  -18.8265  -11.4113 O   0  0  0  0  0  0  0  0  0  0  0  0
   30.5104  -25.7247  -16.0409 C   0  0  0  0  0  0  0  0  0  0  0  0
   24.1314  -20.6679   -8.9483 C   0  0  1  0  0  0  0  0  0  0  0  0
   25.5150  -20.3539   -9.3722 N   0  0  0  0  0  0  0  0  0  0  0  0
   25.9107  -20.8633  -10.6553 C   0  0  0  0  0  0  0  0  0  0  0  0
   26.5026  -20.7422   -8.3071 O   0  0  0  0  0  0  0  0  0  0  0  0
   26.9376  -21.9287   -8.2109 C   0  0  0  0  0  0  0  0  0  0  0  0
   29.8258  -19.4221   -7.0730 C   0  0  2  0  0  0  0  0  0  0  0  0
   28.8935  -19.3391   -5.9003 C   0  0  0  0  0  0  0  0  0  0  0  0
   28.4414  -17.9231   -5.6794 C   0  0  2  0  0  0  0  0  0  0  0  0
   27.6863  -20.2431   -6.1277 N   0  0  0  0  0  0  0  0  0  0  0  0
   27.0102  -19.8208   -7.3533 C   0  0  0  0  0  0  0  0  0  0  0  0
   26.8139  -20.3415   -4.9677 O   0  0  0  0  0  0  0  0  0  0  0  0
   25.4807  -19.9405   -4.9842 O   0  0  0  0  0  0  0  0  0  0  0  0
  2  1  1  0
  2  3  2  0
  4  2  1  0
  5  4  1  0
  6  5  1  0
  7  6  1  0
  8 10  1  0
  8  7  1  0
  8  9  1  6
 10 11  2  0
 13 12  1  6
 14 10  1  0
 14 13  1  0
 15 21  1  0
 15 13  1  0
 16 15  2  0
 18 20  1  0
 18 17  1  1
 19 18  1  0
 20 22  1  0
 20 21  1  1
 22 23  1  0
 24 22  2  0
M  END
$$$$
