RAV.pdb
     RDKit          3D

 24 23  0  0  1  0  0  0  0  0999 V2000
   28.7574  -22.0367  -11.7073 N   0  0  0  0  0  0  0  0  0  0  0  0
   29.2707  -21.5545  -10.4589 C   0  0  0  0  0  0  0  0  0  0  0  0
   30.5114  -21.1968  -10.3550 N   0  0  0  0  0  0  0  0  0  0  0  0
   28.4608  -21.4545   -9.2959 N   0  0  0  0  0  0  0  0  0  0  0  0
   27.0210  -21.3318   -9.3349 C   0  0  0  0  0  0  0  0  0  0  0  0
   26.5799  -20.0885  -10.0495 C   0  0  0  0  0  0  0  0  0  0  0  0
   25.1645  -20.1072  -10.4917 C   0  0  0  0  0  0  0  0  0  0  0  0
   24.8775  -20.7426  -11.8064 C   0  0  2  0  0  0  0  0  0  0  0  0
   25.9581  -20.7605  -12.7477 N   0  0  0  0  0  0  0  0  0  0  0  0
   23.6506  -20.2740  -12.4814 C   0  0  0  0  0  0  0  0  0  0  0  0
   22.7317  -19.7755  -11.7666 O   0  0  0  0  0  0  0  0  0  0  0  0
   30.8983  -20.8466   -9.4670 C   0  0  0  0  0  0  0  0  0  0  0  0
   22.3216  -20.0231  -16.0390 C   0  0  2  0  0  0  0  0  0  0  0  0
   22.2834  -19.9860  -14.5592 N   0  0  0  0  0  0  0  0  0  0  0  0
   23.4926  -20.3741  -13.8889 C   0  0  0  0  0  0  0  0  0  0  0  0
   21.1025  -20.7549  -14.0345 O   0  0  0  0  0  0  0  0  0  0  0  0
   21.1149  -22.0204  -13.9690 C   0  0  0  0  0  0  0  0  0  0  0  0
   19.3719  -20.4097  -10.7542 C   0  0  2  0  0  0  0  0  0  0  0  0
   18.2886  -20.2792  -11.7840 C   0  0  0  0  0  0  0  0  0  0  0  0
   17.9085  -18.8381  -11.9765 C   0  0  2  0  0  0  0  0  0  0  0  0
   18.7517  -20.8782  -13.1080 N   0  0  0  0  0  0  0  0  0  0  0  0
   19.9129  -20.1262  -13.5808 C   0  0  0  0  0  0  0  0  0  0  0  0
   17.6835  -21.0058  -14.0874 O   0  0  0  0  0  0  0  0  0  0  0  0
   17.6586  -20.2900  -15.2812 O   0  0  0  0  0  0  0  0  0  0  0  0
  2  1  1  0
  2  3  2  0
  4  2  1  0
  5  4  1  0
  6  5  1  0
  7  6  1  0
  8 10  1  0
  8  7  1  0
  8  9  1  6
 10 11  2  0
 13 12  1  6
 14 10  1  0
 14 13  1  0
 15 21  1  0
 15 13  1  0
 16 15  2  0
 18 20  1  0
 18 17  1  1
 19 18  1  0
 20 22  1  0
 20 21  1  6
 22 23  1  0
 24 22  2  0
M  END
$$$$
