SER.pdb
     RDKit          3D

 27 26  0  0  1  0  0  0  0  0999 V2000
   22.7132  -12.7890  -17.6684 O   0  0  0  0  0  0  0  0  0  0  0  0
   21.9799  -11.8861  -16.9073 C   0  0  0  0  0  0  0  0  0  0  0  0
   22.8987  -10.8886  -16.2299 C   0  0  2  0  0  0  0  0  0  0  0  0
   23.7469  -11.6037  -15.3033 N   0  0  0  0  0  0  0  0  0  0  0  0
   22.1310   -9.8536  -15.4736 C   0  0  0  0  0  0  0  0  0  0  0  0
   21.6136  -10.1016  -14.3533 O   0  0  0  0  0  0  0  0  0  0  0  0
   21.9449   -8.5381  -15.9780 N   0  0  0  0  0  0  0  0  0  0  0  0
   21.2303   -7.5150  -15.2123 C   0  0  1  0  0  0  0  0  0  0  0  0
   21.8409   -6.1977  -15.5780 C   0  0  0  0  0  0  0  0  0  0  0  0
   23.1849   -5.9618  -15.0016 C   0  0  0  0  0  0  0  0  0  0  0  0
   23.7180   -4.6246  -15.2137 C   0  0  0  0  0  0  0  0  0  0  0  0
   24.2106   -4.0176  -14.2090 O   0  0  0  0  0  0  0  0  0  0  0  0
   19.7756   -7.5643  -15.4975 C   0  0  0  0  0  0  0  0  0  0  0  0
   19.4328   -7.8311  -16.6783 O   0  0  0  0  0  0  0  0  0  0  0  0
   23.7309   -3.9654  -16.4207 O   0  0  0  0  0  0  0  0  0  0  0  0
   13.4047  -12.1684  -12.4971 N   0  0  0  0  0  0  0  0  0  0  0  0
   13.7968  -11.9551  -13.8629 C   0  0  0  0  0  0  0  0  0  0  0  0
   13.6462  -12.8863  -14.7362 N   0  0  0  0  0  0  0  0  0  0  0  0
   14.3562  -10.7239  -14.2870 N   0  0  0  0  0  0  0  0  0  0  0  0
   14.5952   -9.6047  -13.4021 C   0  0  0  0  0  0  0  0  0  0  0  0
   15.1922   -8.4840  -14.2491 C   0  0  0  0  0  0  0  0  0  0  0  0
   16.6769   -8.4201  -14.1182 C   0  0  0  0  0  0  0  0  0  0  0  0
   17.3367   -7.3055  -14.8736 C   0  0  2  0  0  0  0  0  0  0  0  0
   18.7712   -7.3361  -14.5512 N   0  0  0  0  0  0  0  0  0  0  0  0
   16.7654   -5.9759  -14.6434 C   0  0  0  0  0  0  0  0  0  0  0  0
   15.5239   -5.6050  -15.1503 O   0  0  0  0  0  0  0  0  0  0  0  0
   17.3771   -5.1092  -13.9739 O   0  0  0  0  0  0  0  0  0  0  0  0
  2  1  1  0
  3  2  1  0
  3  4  1  1
  5  3  1  0
  5  6  2  0
  7  5  1  0
  8  7  1  0
  8  9  1  6
 10  9  1  0
 11 10  1  0
 12 11  2  0
 13  8  1  0
 14 13  2  0
 15 11  1  0
 16 17  1  0
 17 19  1  0
 17 18  2  0
 19 20  1  0
 20 21  1  0
 21 22  1  0
 23 24  1  0
 23 22  1  1
 24 13  1  0
 25 23  1  0
 26 25  1  0
 27 25  2  0
M  END
$$$$
