SER.pdb
     RDKit          3D

 27 26  0  0  1  0  0  0  0  0999 V2000
   15.3341  -10.9273  -16.1532 O   0  0  0  0  0  0  0  0  0  0  0  0
   15.8756  -10.3831  -14.9945 C   0  0  0  0  0  0  0  0  0  0  0  0
   17.3245  -10.7997  -14.8350 C   0  0  2  0  0  0  0  0  0  0  0  0
   17.3671  -12.2247  -14.5955 N   0  0  0  0  0  0  0  0  0  0  0  0
   17.9779  -10.1025  -13.6864 C   0  0  0  0  0  0  0  0  0  0  0  0
   17.8136  -10.4873  -12.4993 O   0  0  0  0  0  0  0  0  0  0  0  0
   18.8172   -8.9709  -13.8731 N   0  0  0  0  0  0  0  0  0  0  0  0
   19.2990   -8.1760  -12.7419 C   0  0  1  0  0  0  0  0  0  0  0  0
   20.4026   -7.3087  -13.2632 C   0  0  0  0  0  0  0  0  0  0  0  0
   21.0302   -6.4341  -12.2458 C   0  0  0  0  0  0  0  0  0  0  0  0
   22.0739   -5.5551  -12.7511 C   0  0  0  0  0  0  0  0  0  0  0  0
   22.5043   -4.6411  -11.9766 O   0  0  0  0  0  0  0  0  0  0  0  0
   18.1939   -7.3886  -12.1432 C   0  0  0  0  0  0  0  0  0  0  0  0
   17.4578   -6.7430  -12.9334 O   0  0  0  0  0  0  0  0  0  0  0  0
   22.6328   -5.6377  -14.0050 O   0  0  0  0  0  0  0  0  0  0  0  0
   11.7476   -9.4565   -6.8668 N   0  0  0  0  0  0  0  0  0  0  0  0
   11.5322   -8.3296   -7.7317 C   0  0  0  0  0  0  0  0  0  0  0  0
   10.3413   -7.9986   -8.0849 N   0  0  0  0  0  0  0  0  0  0  0  0
   12.6144   -7.5544   -8.2182 N   0  0  0  0  0  0  0  0  0  0  0  0
   13.9992   -7.8177   -7.8930 C   0  0  0  0  0  0  0  0  0  0  0  0
   14.8400   -6.7987   -8.6575 C   0  0  0  0  0  0  0  0  0  0  0  0
   16.0128   -7.4354   -9.3244 C   0  0  0  0  0  0  0  0  0  0  0  0
   16.8200   -6.5255  -10.2010 C   0  0  2  0  0  0  0  0  0  0  0  0
   17.9192   -7.3171  -10.7735 N   0  0  0  0  0  0  0  0  0  0  0  0
   17.3192   -5.3135   -9.5456 C   0  0  0  0  0  0  0  0  0  0  0  0
   18.6654   -5.1360   -9.2425 O   0  0  0  0  0  0  0  0  0  0  0  0
   16.5467   -4.3776   -9.2278 O   0  0  0  0  0  0  0  0  0  0  0  0
  2  1  1  0
  3  2  1  0
  3  4  1  1
  5  3  1  0
  5  6  2  0
  7  5  1  0
  8  7  1  0
  8  9  1  6
 10  9  1  0
 11 10  1  0
 12 11  2  0
 13  8  1  0
 14 13  2  0
 15 11  1  0
 16 17  1  0
 17 19  1  0
 17 18  2  0
 19 20  1  0
 20 21  1  0
 21 22  1  0
 23 24  1  0
 23 22  1  1
 24 13  1  0
 25 23  1  0
 26 25  1  0
 27 25  2  0
M  END
$$$$
