SER.pdb
     RDKit          3D

 27 26  0  0  1  0  0  0  0  0999 V2000
   15.7933  -11.3737  -16.8827 O   0  0  0  0  0  0  0  0  0  0  0  0
   16.2047  -10.9399  -15.6279 C   0  0  0  0  0  0  0  0  0  0  0  0
   17.7176  -10.9410  -15.5317 C   0  0  2  0  0  0  0  0  0  0  0  0
   18.1721  -12.3125  -15.4871 N   0  0  0  0  0  0  0  0  0  0  0  0
   18.1948  -10.2393  -14.3019 C   0  0  0  0  0  0  0  0  0  0  0  0
   18.0400  -10.7355  -13.1555 O   0  0  0  0  0  0  0  0  0  0  0  0
   18.8468   -8.9781  -14.3615 N   0  0  0  0  0  0  0  0  0  0  0  0
   19.3167   -8.2976  -13.1532 C   0  0  1  0  0  0  0  0  0  0  0  0
   20.3470   -7.3032  -13.5913 C   0  0  0  0  0  0  0  0  0  0  0  0
   20.9088   -6.4775  -12.4974 C   0  0  0  0  0  0  0  0  0  0  0  0
   21.9529   -5.5487  -12.9032 C   0  0  0  0  0  0  0  0  0  0  0  0
   22.1142   -5.3476  -14.1497 O   0  0  0  0  0  0  0  0  0  0  0  0
   18.1861   -7.6627  -12.4332 C   0  0  0  0  0  0  0  0  0  0  0  0
   17.3714   -6.9958  -13.1220 O   0  0  0  0  0  0  0  0  0  0  0  0
   22.7800   -4.8692  -12.0397 O   0  0  0  0  0  0  0  0  0  0  0  0
   11.3157   -9.9281   -7.7499 N   0  0  0  0  0  0  0  0  0  0  0  0
   11.4610   -8.5036   -7.6301 C   0  0  0  0  0  0  0  0  0  0  0  0
   10.5427   -7.8008   -7.0687 N   0  0  0  0  0  0  0  0  0  0  0  0
   12.6095   -7.8344   -8.1217 N   0  0  0  0  0  0  0  0  0  0  0  0
   13.7188   -8.5090   -8.7598 C   0  0  0  0  0  0  0  0  0  0  0  0
   14.7432   -7.4382   -9.1257 C   0  0  0  0  0  0  0  0  0  0  0  0
   15.9239   -8.0171   -9.8302 C   0  0  0  0  0  0  0  0  0  0  0  0
   16.9156   -7.0160  -10.3423 C   0  0  2  0  0  0  0  0  0  0  0  0
   17.9686   -7.7552  -11.0546 N   0  0  0  0  0  0  0  0  0  0  0  0
   17.4819   -6.1264   -9.3247 C   0  0  0  0  0  0  0  0  0  0  0  0
   18.8377   -6.1263   -9.0125 O   0  0  0  0  0  0  0  0  0  0  0  0
   16.7617   -5.3210   -8.6874 O   0  0  0  0  0  0  0  0  0  0  0  0
  2  1  1  0
  3  2  1  0
  3  4  1  1
  5  3  1  0
  5  6  2  0
  7  5  1  0
  8  7  1  0
  8  9  1  6
 10  9  1  0
 11 10  1  0
 12 11  2  0
 13  8  1  0
 14 13  2  0
 15 11  1  0
 16 17  1  0
 17 19  1  0
 17 18  2  0
 19 20  1  0
 20 21  1  0
 21 22  1  0
 23 24  1  0
 23 22  1  1
 24 13  1  0
 25 23  1  0
 26 25  1  0
 27 25  2  0
M  END
$$$$
