SER.pdb
     RDKit          3D

 27 26  0  0  1  0  0  0  0  0999 V2000
   16.2026  -26.9096   -5.7528 O   0  0  0  0  0  0  0  0  0  0  0  0
   17.4410  -27.3016   -6.2475 C   0  0  0  0  0  0  0  0  0  0  0  0
   18.4572  -26.1882   -6.0872 C   0  0  2  0  0  0  0  0  0  0  0  0
   18.3660  -25.6762   -4.7385 N   0  0  0  0  0  0  0  0  0  0  0  0
   18.2054  -25.0669   -7.0420 C   0  0  0  0  0  0  0  0  0  0  0  0
   17.7713  -23.9516   -6.6522 O   0  0  0  0  0  0  0  0  0  0  0  0
   18.4419  -25.2001   -8.4369 N   0  0  0  0  0  0  0  0  0  0  0  0
   18.1198  -24.1252   -9.3775 C   0  0  1  0  0  0  0  0  0  0  0  0
   18.8647  -24.4213  -10.6422 C   0  0  0  0  0  0  0  0  0  0  0  0
   18.6860  -23.4121  -11.7117 C   0  0  0  0  0  0  0  0  0  0  0  0
   19.4077  -23.6893  -12.9444 C   0  0  0  0  0  0  0  0  0  0  0  0
   18.8323  -23.4051  -14.0437 O   0  0  0  0  0  0  0  0  0  0  0  0
   16.6548  -24.0337   -9.5906 C   0  0  0  0  0  0  0  0  0  0  0  0
   16.0036  -25.1097   -9.5581 O   0  0  0  0  0  0  0  0  0  0  0  0
   20.6680  -24.2356  -13.0120 O   0  0  0  0  0  0  0  0  0  0  0  0
   11.3763  -19.2596   -5.2297 N   0  0  0  0  0  0  0  0  0  0  0  0
   11.3253  -18.9390   -6.6294 C   0  0  0  0  0  0  0  0  0  0  0  0
   10.8350  -17.8178   -7.0228 N   0  0  0  0  0  0  0  0  0  0  0  0
   11.8092  -19.8393   -7.6113 N   0  0  0  0  0  0  0  0  0  0  0  0
   12.0479  -21.2443   -7.3628 C   0  0  0  0  0  0  0  0  0  0  0  0
   12.4982  -21.8623   -8.6838 C   0  0  0  0  0  0  0  0  0  0  0  0
   13.9809  -22.0146   -8.7484 C   0  0  0  0  0  0  0  0  0  0  0  0
   14.4940  -22.7640   -9.9414 C   0  0  2  0  0  0  0  0  0  0  0  0
   15.9576  -22.8436   -9.8227 N   0  0  0  0  0  0  0  0  0  0  0  0
   14.0920  -22.2154  -11.2395 C   0  0  0  0  0  0  0  0  0  0  0  0
   12.7696  -22.2275  -11.6715 O   0  0  0  0  0  0  0  0  0  0  0  0
   14.9308  -21.7075  -12.0218 O   0  0  0  0  0  0  0  0  0  0  0  0
  2  1  1  0
  3  2  1  0
  3  4  1  1
  5  3  1  0
  5  6  2  0
  7  5  1  0
  8  7  1  0
  8  9  1  6
 10  9  1  0
 11 10  1  0
 12 11  2  0
 13  8  1  0
 14 13  2  0
 15 11  1  0
 16 17  1  0
 17 19  1  0
 17 18  2  0
 19 20  1  0
 20 21  1  0
 21 22  1  0
 23 24  1  0
 23 22  1  1
 24 13  1  0
 25 23  1  0
 26 25  1  0
 27 25  2  0
M  END
$$$$
