SER.pdb
     RDKit          3D

 27 26  0  0  1  0  0  0  0  0999 V2000
   19.8126  -22.1350  -19.2432 O   0  0  0  0  0  0  0  0  0  0  0  0
   20.8966  -22.2837  -20.1005 C   0  0  0  0  0  0  0  0  0  0  0  0
   21.9911  -23.0996  -19.4414 C   0  0  2  0  0  0  0  0  0  0  0  0
   21.6235  -24.4961  -19.5075 N   0  0  0  0  0  0  0  0  0  0  0  0
   22.1766  -22.7217  -18.0078 C   0  0  0  0  0  0  0  0  0  0  0  0
   22.2487  -23.5899  -17.0993 O   0  0  0  0  0  0  0  0  0  0  0  0
   22.2810  -21.3658  -17.5955 N   0  0  0  0  0  0  0  0  0  0  0  0
   22.5778  -21.0048  -16.2079 C   0  0  1  0  0  0  0  0  0  0  0  0
   23.4605  -19.7963  -16.2561 C   0  0  0  0  0  0  0  0  0  0  0  0
   24.8462  -20.0645  -16.7059 C   0  0  0  0  0  0  0  0  0  0  0  0
   25.7208  -18.9018  -16.7273 C   0  0  0  0  0  0  0  0  0  0  0  0
   25.2576  -17.8045  -16.2780 O   0  0  0  0  0  0  0  0  0  0  0  0
   21.3273  -20.7634  -15.4477 C   0  0  0  0  0  0  0  0  0  0  0  0
   20.4510  -20.0490  -15.9998 O   0  0  0  0  0  0  0  0  0  0  0  0
   27.0136  -18.8987  -17.1965 O   0  0  0  0  0  0  0  0  0  0  0  0
   17.3780  -25.9627  -10.8263 N   0  0  0  0  0  0  0  0  0  0  0  0
   18.6241  -25.4752  -11.3500 C   0  0  0  0  0  0  0  0  0  0  0  0
   19.5074  -26.2951  -11.7970 N   0  0  0  0  0  0  0  0  0  0  0  0
   18.9164  -24.0889  -11.3903 N   0  0  0  0  0  0  0  0  0  0  0  0
   17.9266  -23.0545  -11.1831 C   0  0  0  0  0  0  0  0  0  0  0  0
   18.6466  -21.7145  -11.3089 C   0  0  0  0  0  0  0  0  0  0  0  0
   19.8614  -21.8158  -12.1688 C   0  0  0  0  0  0  0  0  0  0  0  0
   19.8222  -21.0017  -13.4273 C   0  0  2  0  0  0  0  0  0  0  0  0
   21.0611  -21.2717  -14.1721 N   0  0  0  0  0  0  0  0  0  0  0  0
   19.6193  -19.5638  -13.2306 C   0  0  0  0  0  0  0  0  0  0  0  0
   18.3658  -18.9704  -13.3412 O   0  0  0  0  0  0  0  0  0  0  0  0
   20.5757  -18.8014  -12.9519 O   0  0  0  0  0  0  0  0  0  0  0  0
  2  1  1  0
  3  2  1  0
  3  4  1  1
  5  3  1  0
  5  6  2  0
  7  5  1  0
  8  7  1  0
  8  9  1  6
 10  9  1  0
 11 10  1  0
 12 11  2  0
 13  8  1  0
 14 13  2  0
 15 11  1  0
 16 17  1  0
 17 19  1  0
 17 18  2  0
 19 20  1  0
 20 21  1  0
 21 22  1  0
 23 24  1  0
 23 22  1  1
 24 13  1  0
 25 23  1  0
 26 25  1  0
 27 25  2  0
M  END
$$$$
