SER.pdb
     RDKit          3D

 27 26  0  0  1  0  0  0  0  0999 V2000
   15.1229  -10.6271  -16.1166 O   0  0  0  0  0  0  0  0  0  0  0  0
   15.5068  -10.1402  -14.8727 C   0  0  0  0  0  0  0  0  0  0  0  0
   16.8651  -10.6873  -14.4807 C   0  0  2  0  0  0  0  0  0  0  0  0
   16.7171  -12.0873  -14.1523 N   0  0  0  0  0  0  0  0  0  0  0  0
   17.4275   -9.9751  -13.2937 C   0  0  0  0  0  0  0  0  0  0  0  0
   17.2243  -10.3831  -12.1205 O   0  0  0  0  0  0  0  0  0  0  0  0
   18.2194   -8.8026  -13.4265 N   0  0  0  0  0  0  0  0  0  0  0  0
   18.7233   -8.0787  -12.2577 C   0  0  1  0  0  0  0  0  0  0  0  0
   19.9051   -7.2837  -12.7195 C   0  0  0  0  0  0  0  0  0  0  0  0
   20.5355   -6.4520  -11.6682 C   0  0  0  0  0  0  0  0  0  0  0  0
   21.6638   -5.6490  -12.1147 C   0  0  0  0  0  0  0  0  0  0  0  0
   22.7997   -6.2178  -12.1959 O   0  0  0  0  0  0  0  0  0  0  0  0
   17.6620   -7.2266  -11.6685 C   0  0  0  0  0  0  0  0  0  0  0  0
   16.9486   -6.5666  -12.4676 O   0  0  0  0  0  0  0  0  0  0  0  0
   21.5956   -4.3189  -12.4576 O   0  0  0  0  0  0  0  0  0  0  0  0
   10.8330   -8.7114   -6.9166 N   0  0  0  0  0  0  0  0  0  0  0  0
   11.7462   -8.9623   -7.9972 C   0  0  0  0  0  0  0  0  0  0  0  0
   11.6801  -10.0594   -8.6638 N   0  0  0  0  0  0  0  0  0  0  0  0
   12.7391   -8.0179   -8.3593 N   0  0  0  0  0  0  0  0  0  0  0  0
   13.4632   -7.2091   -7.4031 C   0  0  0  0  0  0  0  0  0  0  0  0
   14.3800   -6.2860   -8.2011 C   0  0  0  0  0  0  0  0  0  0  0  0
   15.4704   -7.0414   -8.8838 C   0  0  0  0  0  0  0  0  0  0  0  0
   16.3870   -6.2118   -9.7322 C   0  0  2  0  0  0  0  0  0  0  0  0
   17.4049   -7.1095  -10.2986 N   0  0  0  0  0  0  0  0  0  0  0  0
   17.0016   -5.0701   -9.0494 C   0  0  0  0  0  0  0  0  0  0  0  0
   16.3355   -3.8600   -8.8833 O   0  0  0  0  0  0  0  0  0  0  0  0
   18.1638   -5.1370   -8.5821 O   0  0  0  0  0  0  0  0  0  0  0  0
  2  1  1  0
  3  2  1  0
  3  4  1  1
  5  3  1  0
  5  6  2  0
  7  5  1  0
  8  7  1  0
  8  9  1  6
 10  9  1  0
 11 10  1  0
 12 11  2  0
 13  8  1  0
 14 13  2  0
 15 11  1  0
 16 17  1  0
 17 19  1  0
 17 18  2  0
 19 20  1  0
 20 21  1  0
 21 22  1  0
 23 24  1  0
 23 22  1  1
 24 13  1  0
 25 23  1  0
 26 25  1  0
 27 25  2  0
M  END
$$$$
