SER.pdb
     RDKit          3D

 27 26  0  0  1  0  0  0  0  0999 V2000
   24.8791  -23.6790  -14.7993 O   0  0  0  0  0  0  0  0  0  0  0  0
   25.0134  -23.1515  -16.0782 C   0  0  0  0  0  0  0  0  0  0  0  0
   25.1965  -21.6478  -16.0194 C   0  0  2  0  0  0  0  0  0  0  0  0
   26.4347  -21.3643  -15.3295 N   0  0  0  0  0  0  0  0  0  0  0  0
   24.0778  -20.9819  -15.2864 C   0  0  0  0  0  0  0  0  0  0  0  0
   24.2052  -20.5960  -14.0951 O   0  0  0  0  0  0  0  0  0  0  0  0
   22.8142  -20.7499  -15.8937 N   0  0  0  0  0  0  0  0  0  0  0  0
   21.7096  -20.1313  -15.1582 C   0  0  1  0  0  0  0  0  0  0  0  0
   21.0466  -19.1745  -16.1001 C   0  0  0  0  0  0  0  0  0  0  0  0
   19.8400  -18.5110  -15.5543 C   0  0  0  0  0  0  0  0  0  0  0  0
   19.0962  -17.7056  -16.5112 C   0  0  0  0  0  0  0  0  0  0  0  0
   19.5253  -17.6631  -17.7089 O   0  0  0  0  0  0  0  0  0  0  0  0
   20.7746  -21.1629  -14.6468 C   0  0  0  0  0  0  0  0  0  0  0  0
   20.5509  -22.1520  -15.3916 O   0  0  0  0  0  0  0  0  0  0  0  0
   17.9612  -16.9860  -16.2192 O   0  0  0  0  0  0  0  0  0  0  0  0
   18.1472  -25.3186   -7.3933 N   0  0  0  0  0  0  0  0  0  0  0  0
   18.4831  -25.7415   -8.7249 C   0  0  0  0  0  0  0  0  0  0  0  0
   18.2270  -26.9405   -9.1109 N   0  0  0  0  0  0  0  0  0  0  0  0
   19.1009  -24.8593   -9.6462 N   0  0  0  0  0  0  0  0  0  0  0  0
   19.2825  -23.4448   -9.4033 C   0  0  0  0  0  0  0  0  0  0  0  0
   19.9976  -22.8695  -10.6230 C   0  0  0  0  0  0  0  0  0  0  0  0
   19.1016  -21.9889  -11.4276 C   0  0  0  0  0  0  0  0  0  0  0  0
   19.2162  -22.1492  -12.9139 C   0  0  2  0  0  0  0  0  0  0  0  0
   20.1324  -21.1091  -13.4055 N   0  0  0  0  0  0  0  0  0  0  0  0
   17.9439  -22.1278  -13.6408 C   0  0  0  0  0  0  0  0  0  0  0  0
   17.3159  -20.9395  -14.0002 O   0  0  0  0  0  0  0  0  0  0  0  0
   17.3632  -23.1892  -13.9721 O   0  0  0  0  0  0  0  0  0  0  0  0
  2  1  1  0
  3  2  1  0
  3  4  1  1
  5  3  1  0
  5  6  2  0
  7  5  1  0
  8  7  1  0
  8  9  1  6
 10  9  1  0
 11 10  1  0
 12 11  2  0
 13  8  1  0
 14 13  2  0
 15 11  1  0
 16 17  1  0
 17 19  1  0
 17 18  2  0
 19 20  1  0
 20 21  1  0
 21 22  1  0
 23 24  1  0
 23 22  1  1
 24 13  1  0
 25 23  1  0
 26 25  1  0
 27 25  2  0
M  END
$$$$
