SER.pdb
     RDKit          3D

 27 26  0  0  1  0  0  0  0  0999 V2000
   13.5218  -14.6299  -16.4571 O   0  0  0  0  0  0  0  0  0  0  0  0
   14.7423  -14.0860  -16.0742 C   0  0  0  0  0  0  0  0  0  0  0  0
   15.7932  -15.1707  -15.9438 C   0  0  2  0  0  0  0  0  0  0  0  0
   15.5494  -15.8992  -14.7194 N   0  0  0  0  0  0  0  0  0  0  0  0
   17.1737  -14.6011  -15.8941 C   0  0  0  0  0  0  0  0  0  0  0  0
   17.7705  -14.4087  -14.8027 O   0  0  0  0  0  0  0  0  0  0  0  0
   17.8837  -14.2474  -17.0732 N   0  0  0  0  0  0  0  0  0  0  0  0
   19.2117  -13.6334  -17.0160 C   0  0  1  0  0  0  0  0  0  0  0  0
   20.0125  -14.2335  -18.1298 C   0  0  0  0  0  0  0  0  0  0  0  0
   21.4163  -13.7658  -18.1990 C   0  0  0  0  0  0  0  0  0  0  0  0
   22.2164  -14.3778  -19.2491 C   0  0  0  0  0  0  0  0  0  0  0  0
   21.6813  -15.3066  -19.9356 O   0  0  0  0  0  0  0  0  0  0  0  0
   19.1139  -12.1571  -17.1195 C   0  0  0  0  0  0  0  0  0  0  0  0
   18.3121  -11.6951  -17.9719 O   0  0  0  0  0  0  0  0  0  0  0  0
   23.5099  -14.0270  -19.5577 O   0  0  0  0  0  0  0  0  0  0  0  0
   22.4353   -5.3119  -13.2587 N   0  0  0  0  0  0  0  0  0  0  0  0
   21.1935   -4.8942  -13.8486 C   0  0  0  0  0  0  0  0  0  0  0  0
   21.1078   -3.7624  -14.4521 N   0  0  0  0  0  0  0  0  0  0  0  0
   20.0349   -5.7081  -13.7851 N   0  0  0  0  0  0  0  0  0  0  0  0
   20.0731   -7.1515  -13.6955 C   0  0  0  0  0  0  0  0  0  0  0  0
   19.9512   -7.6915  -15.1179 C   0  0  0  0  0  0  0  0  0  0  0  0
   19.8501   -9.1798  -15.1398 C   0  0  0  0  0  0  0  0  0  0  0  0
   19.7827   -9.7948  -16.5055 C   0  0  2  0  0  0  0  0  0  0  0  0
   19.8461  -11.2548  -16.3409 N   0  0  0  0  0  0  0  0  0  0  0  0
   20.7956   -9.3191  -17.4516 C   0  0  0  0  0  0  0  0  0  0  0  0
   21.9442  -10.0504  -17.7372 O   0  0  0  0  0  0  0  0  0  0  0  0
   20.6681   -8.2232  -18.0485 O   0  0  0  0  0  0  0  0  0  0  0  0
  2  1  1  0
  3  2  1  0
  3  4  1  1
  5  3  1  0
  5  6  2  0
  7  5  1  0
  8  7  1  0
  8  9  1  6
 10  9  1  0
 11 10  1  0
 12 11  2  0
 13  8  1  0
 14 13  2  0
 15 11  1  0
 16 17  1  0
 17 19  1  0
 17 18  2  0
 19 20  1  0
 20 21  1  0
 21 22  1  0
 23 24  1  0
 23 22  1  1
 24 13  1  0
 25 23  1  0
 26 25  1  0
 27 25  2  0
M  END
$$$$
