SER.pdb
     RDKit          3D

 27 26  0  0  1  0  0  0  0  0999 V2000
   26.0896  -26.7372  -16.9870 O   0  0  0  0  0  0  0  0  0  0  0  0
   27.0816  -26.8445  -17.9547 C   0  0  0  0  0  0  0  0  0  0  0  0
   28.4265  -26.4326  -17.3891 C   0  0  2  0  0  0  0  0  0  0  0  0
   28.8041  -27.3836  -16.3681 N   0  0  0  0  0  0  0  0  0  0  0  0
   28.3764  -25.0701  -16.7780 C   0  0  0  0  0  0  0  0  0  0  0  0
   28.5617  -24.8909  -15.5460 O   0  0  0  0  0  0  0  0  0  0  0  0
   28.1176  -23.9076  -17.5534 N   0  0  0  0  0  0  0  0  0  0  0  0
   28.1370  -22.5686  -16.9615 C   0  0  1  0  0  0  0  0  0  0  0  0
   28.1801  -21.5952  -18.0985 C   0  0  0  0  0  0  0  0  0  0  0  0
   28.1106  -20.1722  -17.6927 C   0  0  0  0  0  0  0  0  0  0  0  0
   28.0962  -19.2199  -18.7927 C   0  0  0  0  0  0  0  0  0  0  0  0
   26.9660  -18.7820  -19.1816 O   0  0  0  0  0  0  0  0  0  0  0  0
   26.9588  -22.3637  -16.0842 C   0  0  0  0  0  0  0  0  0  0  0  0
   25.8509  -22.7845  -16.5066 O   0  0  0  0  0  0  0  0  0  0  0  0
   29.2140  -18.7551  -19.4452 O   0  0  0  0  0  0  0  0  0  0  0  0
   22.8683  -19.9279   -9.6906 N   0  0  0  0  0  0  0  0  0  0  0  0
   23.8282  -20.6603   -8.9117 C   0  0  0  0  0  0  0  0  0  0  0  0
   23.4734  -21.2440   -7.8228 N   0  0  0  0  0  0  0  0  0  0  0  0
   25.1832  -20.7619   -9.3148 N   0  0  0  0  0  0  0  0  0  0  0  0
   25.7467  -20.0256  -10.4252 C   0  0  0  0  0  0  0  0  0  0  0  0
   25.1950  -20.6516  -11.7033 C   0  0  0  0  0  0  0  0  0  0  0  0
   26.2747  -20.9372  -12.6924 C   0  0  0  0  0  0  0  0  0  0  0  0
   25.8093  -21.5088  -13.9980 C   0  0  2  0  0  0  0  0  0  0  0  0
   26.9978  -21.7405  -14.8326 N   0  0  0  0  0  0  0  0  0  0  0  0
   24.8075  -20.7066  -14.7053 C   0  0  0  0  0  0  0  0  0  0  0  0
   23.4441  -20.9626  -14.5997 O   0  0  0  0  0  0  0  0  0  0  0  0
   25.1405  -19.7472  -15.4417 O   0  0  0  0  0  0  0  0  0  0  0  0
  2  1  1  0
  3  2  1  0
  3  4  1  1
  5  3  1  0
  5  6  2  0
  7  5  1  0
  8  7  1  0
  8  9  1  6
 10  9  1  0
 11 10  1  0
 12 11  2  0
 13  8  1  0
 14 13  2  0
 15 11  1  0
 16 17  1  0
 17 19  1  0
 17 18  2  0
 19 20  1  0
 20 21  1  0
 21 22  1  0
 23 24  1  0
 23 22  1  1
 24 13  1  0
 25 23  1  0
 26 25  1  0
 27 25  2  0
M  END
$$$$
