SER.pdb
     RDKit          3D

 27 26  0  0  1  0  0  0  0  0999 V2000
   26.2325  -21.4045  -18.0787 O   0  0  0  0  0  0  0  0  0  0  0  0
   27.3347  -20.6654  -17.6652 C   0  0  0  0  0  0  0  0  0  0  0  0
   27.4183  -20.6319  -16.1519 C   0  0  2  0  0  0  0  0  0  0  0  0
   27.6838  -21.9718  -15.6786 N   0  0  0  0  0  0  0  0  0  0  0  0
   26.1438  -20.1519  -15.5374 C   0  0  0  0  0  0  0  0  0  0  0  0
   25.6626  -20.6911  -14.5068 O   0  0  0  0  0  0  0  0  0  0  0  0
   25.4095  -19.0643  -16.0826 N   0  0  0  0  0  0  0  0  0  0  0  0
   24.1658  -18.5925  -15.4705 C   0  0  1  0  0  0  0  0  0  0  0  0
   23.8645  -17.2582  -16.0797 C   0  0  0  0  0  0  0  0  0  0  0  0
   22.5905  -16.6507  -15.6302 C   0  0  0  0  0  0  0  0  0  0  0  0
   22.2877  -15.3542  -16.2172 C   0  0  0  0  0  0  0  0  0  0  0  0
   23.2347  -14.5079  -16.3037 O   0  0  0  0  0  0  0  0  0  0  0  0
   23.0716  -19.5715  -15.6801 C   0  0  0  0  0  0  0  0  0  0  0  0
   23.0012  -20.1175  -16.8115 O   0  0  0  0  0  0  0  0  0  0  0  0
   21.0529  -14.9731  -16.6879 O   0  0  0  0  0  0  0  0  0  0  0  0
   21.2849  -27.3427  -14.0405 N   0  0  0  0  0  0  0  0  0  0  0  0
   22.3086  -26.3568  -14.2516 C   0  0  0  0  0  0  0  0  0  0  0  0
   23.4817  -26.7100  -14.6409 N   0  0  0  0  0  0  0  0  0  0  0  0
   22.0606  -24.9776  -14.0400 N   0  0  0  0  0  0  0  0  0  0  0  0
   20.8558  -24.4647  -13.4249 C   0  0  0  0  0  0  0  0  0  0  0  0
   20.4174  -23.2523  -14.2420 C   0  0  0  0  0  0  0  0  0  0  0  0
   21.4448  -22.1707  -14.2252 C   0  0  0  0  0  0  0  0  0  0  0  0
   21.0562  -20.9103  -14.9382 C   0  0  2  0  0  0  0  0  0  0  0  0
   22.1235  -19.9237  -14.7140 N   0  0  0  0  0  0  0  0  0  0  0  0
   19.7437  -20.3701  -14.5738 C   0  0  0  0  0  0  0  0  0  0  0  0
   18.5604  -20.8834  -15.0952 O   0  0  0  0  0  0  0  0  0  0  0  0
   19.6314  -19.4140  -13.7694 O   0  0  0  0  0  0  0  0  0  0  0  0
  2  1  1  0
  3  2  1  0
  3  4  1  1
  5  3  1  0
  5  6  2  0
  7  5  1  0
  8  7  1  0
  8  9  1  6
 10  9  1  0
 11 10  1  0
 12 11  2  0
 13  8  1  0
 14 13  2  0
 15 11  1  0
 16 17  1  0
 17 19  1  0
 17 18  2  0
 19 20  1  0
 20 21  1  0
 21 22  1  0
 23 24  1  0
 23 22  1  1
 24 13  1  0
 25 23  1  0
 26 25  1  0
 27 25  2  0
M  END
$$$$
