SER.pdb
     RDKit          3D

 27 26  0  0  1  0  0  0  0  0999 V2000
   23.0568  -20.1010   -9.3195 O   0  0  0  0  0  0  0  0  0  0  0  0
   23.7609  -21.2983   -9.2688 C   0  0  0  0  0  0  0  0  0  0  0  0
   25.2299  -21.0672   -9.5629 C   0  0  2  0  0  0  0  0  0  0  0  0
   25.7527  -20.1420   -8.5830 N   0  0  0  0  0  0  0  0  0  0  0  0
   25.4376  -20.4886  -10.9248 C   0  0  0  0  0  0  0  0  0  0  0  0
   25.9823  -19.3660  -11.0901 O   0  0  0  0  0  0  0  0  0  0  0  0
   25.0322  -21.1735  -12.1021 N   0  0  0  0  0  0  0  0  0  0  0  0
   25.3270  -20.6488  -13.4369 C   0  0  1  0  0  0  0  0  0  0  0  0
   26.1618  -21.6801  -14.1309 C   0  0  0  0  0  0  0  0  0  0  0  0
   26.6063  -21.2976  -15.4911 C   0  0  0  0  0  0  0  0  0  0  0  0
   27.4100  -22.2972  -16.1783 C   0  0  0  0  0  0  0  0  0  0  0  0
   28.5960  -22.4930  -15.7595 O   0  0  0  0  0  0  0  0  0  0  0  0
   24.0749  -20.3448  -14.1714 C   0  0  0  0  0  0  0  0  0  0  0  0
   23.1732  -21.2221  -14.1526 O   0  0  0  0  0  0  0  0  0  0  0  0
   26.9838  -23.0493  -17.2480 O   0  0  0  0  0  0  0  0  0  0  0  0
   19.5046  -17.1040  -19.6642 N   0  0  0  0  0  0  0  0  0  0  0  0
   19.8096  -15.7996  -19.1444 C   0  0  0  0  0  0  0  0  0  0  0  0
   18.9049  -14.8873  -19.1042 N   0  0  0  0  0  0  0  0  0  0  0  0
   21.1042  -15.4800  -18.6642 N   0  0  0  0  0  0  0  0  0  0  0  0
   22.1893  -16.4338  -18.5886 C   0  0  0  0  0  0  0  0  0  0  0  0
   21.7839  -17.4928  -17.5669 C   0  0  0  0  0  0  0  0  0  0  0  0
   22.9115  -17.8459  -16.6562 C   0  0  0  0  0  0  0  0  0  0  0  0
   22.6012  -18.8987  -15.6348 C   0  0  2  0  0  0  0  0  0  0  0  0
   23.8332  -19.1608  -14.8757 N   0  0  0  0  0  0  0  0  0  0  0  0
   22.0311  -20.1370  -16.1726 C   0  0  0  0  0  0  0  0  0  0  0  0
   20.6729  -20.4259  -16.0865 O   0  0  0  0  0  0  0  0  0  0  0  0
   22.7502  -20.9953  -16.7381 O   0  0  0  0  0  0  0  0  0  0  0  0
  2  1  1  0
  3  2  1  0
  3  4  1  1
  5  3  1  0
  5  6  2  0
  7  5  1  0
  8  7  1  0
  8  9  1  6
 10  9  1  0
 11 10  1  0
 12 11  2  0
 13  8  1  0
 14 13  2  0
 15 11  1  0
 16 17  1  0
 17 19  1  0
 17 18  2  0
 19 20  1  0
 20 21  1  0
 21 22  1  0
 23 24  1  0
 23 22  1  6
 24 13  1  0
 25 23  1  0
 26 25  1  0
 27 25  2  0
M  END
$$$$
