SER.pdb
     RDKit          3D

 27 26  0  0  1  0  0  0  0  0999 V2000
   19.5920  -23.8275   -7.5258 O   0  0  0  0  0  0  0  0  0  0  0  0
   18.2869  -24.1722   -7.1942 C   0  0  0  0  0  0  0  0  0  0  0  0
   17.6988  -25.1027   -8.2365 C   0  0  2  0  0  0  0  0  0  0  0  0
   18.4128  -26.3585   -8.1837 N   0  0  0  0  0  0  0  0  0  0  0  0
   17.8235  -24.5398   -9.6149 C   0  0  0  0  0  0  0  0  0  0  0  0
   18.6364  -25.0131  -10.4512 O   0  0  0  0  0  0  0  0  0  0  0  0
   17.0332  -23.4431  -10.0532 N   0  0  0  0  0  0  0  0  0  0  0  0
   17.0992  -22.9495  -11.4301 C   0  0  1  0  0  0  0  0  0  0  0  0
   15.8015  -22.2535  -11.7013 C   0  0  0  0  0  0  0  0  0  0  0  0
   15.6589  -21.7345  -13.0814 C   0  0  0  0  0  0  0  0  0  0  0  0
   14.4219  -21.0136  -13.3416 C   0  0  0  0  0  0  0  0  0  0  0  0
   14.2139  -20.6046  -14.5289 O   0  0  0  0  0  0  0  0  0  0  0  0
   18.2700  -22.0578  -11.6140 C   0  0  0  0  0  0  0  0  0  0  0  0
   18.4726  -21.1891  -10.7268 O   0  0  0  0  0  0  0  0  0  0  0  0
   13.4576  -20.7409  -12.3997 O   0  0  0  0  0  0  0  0  0  0  0  0
   26.0593  -23.3143  -15.9548 N   0  0  0  0  0  0  0  0  0  0  0  0
   25.9173  -21.9218  -15.6304 C   0  0  0  0  0  0  0  0  0  0  0  0
   26.8277  -21.0790  -15.9671 N   0  0  0  0  0  0  0  0  0  0  0  0
   24.7806  -21.4373  -14.9361 N   0  0  0  0  0  0  0  0  0  0  0  0
   23.7169  -22.2875  -14.4478 C   0  0  0  0  0  0  0  0  0  0  0  0
   22.6883  -21.3785  -13.7803 C   0  0  0  0  0  0  0  0  0  0  0  0
   21.4221  -22.1051  -13.4730 C   0  0  0  0  0  0  0  0  0  0  0  0
   20.3555  -21.2795  -12.8180 C   0  0  2  0  0  0  0  0  0  0  0  0
   19.1537  -22.1183  -12.6966 N   0  0  0  0  0  0  0  0  0  0  0  0
   20.0558  -20.0096  -13.4850 C   0  0  0  0  0  0  0  0  0  0  0  0
   20.8028  -18.8583  -13.2564 O   0  0  0  0  0  0  0  0  0  0  0  0
   19.1051  -19.9068  -14.2970 O   0  0  0  0  0  0  0  0  0  0  0  0
  2  1  1  0
  3  2  1  0
  3  4  1  6
  5  3  1  0
  5  6  2  0
  7  5  1  0
  8  7  1  0
  8  9  1  1
 10  9  1  0
 11 10  1  0
 12 11  2  0
 13  8  1  0
 14 13  2  0
 15 11  1  0
 16 17  1  0
 17 19  1  0
 17 18  2  0
 19 20  1  0
 20 21  1  0
 21 22  1  0
 23 24  1  0
 23 22  1  6
 24 13  1  0
 25 23  1  0
 26 25  1  0
 27 25  2  0
M  END
$$$$
