SIY.pdb
     RDKit          3D

 27 27  0  0  1  0  0  0  0  0999 V2000
   12.1773  -19.6656   19.0012 O   0  0  0  0  0  0  0  0  0  0  0  0
   11.6799  -18.8068   19.9812 C   0  0  0  0  0  0  0  0  0  0  0  0
   10.3632  -18.2678   19.4515 C   0  0  2  0  0  0  0  0  0  0  0  0
   10.6532  -17.4172   18.3491 N   0  0  0  0  0  0  0  0  0  0  0  0
    9.6914  -17.5939   20.5787 C   0  0  0  0  0  0  0  0  0  0  0  0
    9.8500  -16.3515   20.7009 O   0  0  0  0  0  0  0  0  0  0  0  0
    4.7157  -19.0092   21.4986 C   0  0  0  0  0  0  0  0  0  0  0  0
    5.8917  -18.1055   21.5361 C   0  0  0  0  0  0  0  0  0  0  0  0
    6.7670  -18.1830   22.7425 C   0  0  2  0  0  0  0  0  0  0  0  0
    6.0027  -17.4798   23.8737 C   0  0  0  0  0  0  0  0  0  0  0  0
    8.1331  -17.5676   22.5821 C   0  0  2  0  0  0  0  0  0  0  0  0
    8.8785  -18.2470   21.5357 N   0  0  0  0  0  0  0  0  0  0  0  0
    8.8403  -17.4522   23.8568 C   0  0  0  0  0  0  0  0  0  0  0  0
    9.3918  -18.4897   24.3641 O   0  0  0  0  0  0  0  0  0  0  0  0
    5.4782  -11.4783   26.8216 O   0  0  0  0  0  0  0  0  0  0  0  0
    6.6136  -12.2762   26.6640 C   0  0  0  0  0  0  0  0  0  0  0  0
    7.0826  -12.6166   25.4126 C   0  0  0  0  0  0  0  0  0  0  0  0
    8.2035  -13.4044   25.2478 C   0  0  0  0  0  0  0  0  0  0  0  0
    8.9047  -13.8866   26.3403 C   0  0  0  0  0  0  0  0  0  0  0  0
   10.0831  -14.7203   26.1436 C   0  0  0  0  0  0  0  0  0  0  0  0
    9.7929  -16.1704   25.8066 C   0  0  2  0  0  0  0  0  0  0  0  0
    8.9827  -16.2687   24.6074 N   0  0  0  0  0  0  0  0  0  0  0  0
    9.1017  -16.8725   26.8924 C   0  0  0  0  0  0  0  0  0  0  0  0
    9.7697  -17.1865   28.0559 O   0  0  0  0  0  0  0  0  0  0  0  0
    8.4403  -13.5492   27.6092 C   0  0  0  0  0  0  0  0  0  0  0  0
    7.3294  -12.7687   27.7348 C   0  0  0  0  0  0  0  0  0  0  0  0
    7.8961  -17.1971   26.7775 O   0  0  0  0  0  0  0  0  0  0  0  0
  2  1  1  0
  3  2  1  0
  3  4  1  6
  5  6  2  0
  5  3  1  0
  7  8  1  0
  9  8  1  0
  9 10  1  1
 11  9  1  0
 11 12  1  6
 12  5  1  0
 13 11  1  0
 14 13  2  0
 16 17  2  0
 16 15  1  0
 18 17  1  0
 19 18  2  0
 21 20  1  1
 20 19  1  0
 21 22  1  0
 22 13  1  0
 23 21  1  0
 23 24  1  0
 25 19  1  0
 25 26  2  0
 26 16  1  0
 27 23  2  0
M  END
$$$$
