SIY.pdb
     RDKit          3D

 27 27  0  0  1  0  0  0  0  0999 V2000
    7.1143  -20.9367   20.6690 O   0  0  0  0  0  0  0  0  0  0  0  0
    7.5260  -19.7001   21.1657 C   0  0  0  0  0  0  0  0  0  0  0  0
    7.8423  -18.8362   19.9581 C   0  0  2  0  0  0  0  0  0  0  0  0
    8.6120  -19.6183   19.0533 N   0  0  0  0  0  0  0  0  0  0  0  0
    8.5327  -17.6333   20.4607 C   0  0  0  0  0  0  0  0  0  0  0  0
    9.7910  -17.6386   20.4727 O   0  0  0  0  0  0  0  0  0  0  0  0
    6.7811  -12.5143   19.5368 C   0  0  0  0  0  0  0  0  0  0  0  0
    7.6652  -13.6648   19.8463 C   0  0  0  0  0  0  0  0  0  0  0  0
    7.7802  -14.0641   21.2797 C   0  0  2  0  0  0  0  0  0  0  0  0
    8.4505  -12.8859   22.0014 C   0  0  0  0  0  0  0  0  0  0  0  0
    8.5557  -15.3317   21.5304 C   0  0  2  0  0  0  0  0  0  0  0  0
    7.8787  -16.4700   20.9320 N   0  0  0  0  0  0  0  0  0  0  0  0
    8.8982  -15.4999   22.9420 C   0  0  0  0  0  0  0  0  0  0  0  0
    9.7854  -14.7411   23.4667 O   0  0  0  0  0  0  0  0  0  0  0  0
    6.7660  -10.5897   26.9071 O   0  0  0  0  0  0  0  0  0  0  0  0
    6.9511  -11.9593   26.7056 C   0  0  0  0  0  0  0  0  0  0  0  0
    5.8887  -12.7928   26.4259 C   0  0  0  0  0  0  0  0  0  0  0  0
    6.0625  -14.1470   26.2255 C   0  0  0  0  0  0  0  0  0  0  0  0
    7.3191  -14.7244   26.2984 C   0  0  0  0  0  0  0  0  0  0  0  0
    7.4796  -16.1569   26.0876 C   0  0  0  0  0  0  0  0  0  0  0  0
    8.6615  -16.5486   25.2215 C   0  0  2  0  0  0  0  0  0  0  0  0
    8.3255  -16.4462   23.8141 N   0  0  0  0  0  0  0  0  0  0  0  0
    9.1270  -17.9129   25.4893 C   0  0  0  0  0  0  0  0  0  0  0  0
    9.1649  -18.8476   24.4776 O   0  0  0  0  0  0  0  0  0  0  0  0
    8.3998  -13.8922   26.5803 C   0  0  0  0  0  0  0  0  0  0  0  0
    8.1912  -12.5585   26.7726 C   0  0  0  0  0  0  0  0  0  0  0  0
    9.4955  -18.2478   26.6400 O   0  0  0  0  0  0  0  0  0  0  0  0
  2  1  1  0
  3  2  1  0
  3  4  1  6
  5  6  2  0
  5  3  1  0
  7  8  1  0
  9  8  1  0
  9 10  1  1
 11  9  1  0
 11 12  1  1
 12  5  1  0
 13 11  1  0
 14 13  2  0
 16 17  2  0
 16 15  1  0
 18 17  1  0
 19 18  2  0
 21 20  1  1
 20 19  1  0
 21 22  1  0
 22 13  1  0
 23 21  1  0
 23 24  1  0
 25 19  1  0
 25 26  2  0
 26 16  1  0
 27 23  2  0
M  END
$$$$
