SIY.pdb
     RDKit          3D

 27 27  0  0  1  0  0  0  0  0999 V2000
    9.9457  -19.5756   19.5094 O   0  0  0  0  0  0  0  0  0  0  0  0
   11.1010  -19.1997   18.8245 C   0  0  0  0  0  0  0  0  0  0  0  0
   10.8011  -17.8576   18.1813 C   0  0  2  0  0  0  0  0  0  0  0  0
   11.9098  -17.5112   17.3605 N   0  0  0  0  0  0  0  0  0  0  0  0
   10.5359  -16.9067   19.2774 C   0  0  0  0  0  0  0  0  0  0  0  0
   11.5239  -16.4110   19.8787 O   0  0  0  0  0  0  0  0  0  0  0  0
    7.4571  -12.6486   18.9207 C   0  0  0  0  0  0  0  0  0  0  0  0
    8.4364  -13.6620   19.3847 C   0  0  0  0  0  0  0  0  0  0  0  0
    7.9993  -14.5726   20.4835 C   0  0  2  0  0  0  0  0  0  0  0  0
    7.7283  -13.6772   21.7013 C   0  0  0  0  0  0  0  0  0  0  0  0
    8.9833  -15.6545   20.8470 C   0  0  2  0  0  0  0  0  0  0  0  0
    9.2452  -16.5107   19.7023 N   0  0  0  0  0  0  0  0  0  0  0  0
    8.5968  -16.3665   22.0644 C   0  0  0  0  0  0  0  0  0  0  0  0
    7.5335  -17.0787   22.0635 O   0  0  0  0  0  0  0  0  0  0  0  0
    6.4416  -11.3574   28.6396 O   0  0  0  0  0  0  0  0  0  0  0  0
    6.9314  -12.0710   27.5435 C   0  0  0  0  0  0  0  0  0  0  0  0
    6.0796  -12.6773   26.6442 C   0  0  0  0  0  0  0  0  0  0  0  0
    6.5549  -13.3843   25.5586 C   0  0  0  0  0  0  0  0  0  0  0  0
    7.9146  -13.5128   25.3295 C   0  0  0  0  0  0  0  0  0  0  0  0
    8.3948  -14.2672   24.1795 C   0  0  0  0  0  0  0  0  0  0  0  0
    8.8265  -15.6895   24.4812 C   0  0  2  0  0  0  0  0  0  0  0  0
    9.3063  -16.3482   23.2811 N   0  0  0  0  0  0  0  0  0  0  0  0
    7.7437  -16.4966   25.0521 C   0  0  0  0  0  0  0  0  0  0  0  0
    7.0597  -17.3997   24.2678 O   0  0  0  0  0  0  0  0  0  0  0  0
    8.7844  -12.9045   26.2311 C   0  0  0  0  0  0  0  0  0  0  0  0
    8.2798  -12.2136   27.2929 C   0  0  0  0  0  0  0  0  0  0  0  0
    7.4251  -16.3761   26.2587 O   0  0  0  0  0  0  0  0  0  0  0  0
  2  1  1  0
  3  2  1  0
  3  4  1  1
  5  6  2  0
  5  3  1  0
  7  8  1  0
  9  8  1  0
  9 10  1  1
 11  9  1  0
 11 12  1  6
 12  5  1  0
 13 11  1  0
 14 13  2  0
 16 17  2  0
 16 15  1  0
 18 17  1  0
 19 18  2  0
 21 20  1  6
 20 19  1  0
 21 22  1  0
 22 13  1  0
 23 21  1  0
 23 24  1  0
 25 19  1  0
 25 26  2  0
 26 16  1  0
 27 23  2  0
M  END
$$$$
