SIY.pdb
     RDKit          3D

 27 27  0  0  1  0  0  0  0  0999 V2000
    5.9488  -19.5037   25.1079 O   0  0  0  0  0  0  0  0  0  0  0  0
    6.7679  -18.7237   24.2918 C   0  0  0  0  0  0  0  0  0  0  0  0
    5.8802  -17.6440   23.6992 C   0  0  2  0  0  0  0  0  0  0  0  0
    5.4709  -18.0776   22.4080 N   0  0  0  0  0  0  0  0  0  0  0  0
    6.6654  -16.3952   23.7003 C   0  0  0  0  0  0  0  0  0  0  0  0
    7.4446  -16.1889   22.7339 O   0  0  0  0  0  0  0  0  0  0  0  0
    5.0369  -11.8957   26.4994 C   0  0  0  0  0  0  0  0  0  0  0  0
    5.6782  -12.7842   25.4993 C   0  0  0  0  0  0  0  0  0  0  0  0
    7.0464  -13.2875   25.8193 C   0  0  2  0  0  0  0  0  0  0  0  0
    7.9694  -12.0603   25.8069 C   0  0  0  0  0  0  0  0  0  0  0  0
    7.5759  -14.3412   24.8811 C   0  0  2  0  0  0  0  0  0  0  0  0
    6.6047  -15.4093   24.7140 N   0  0  0  0  0  0  0  0  0  0  0  0
    8.9166  -14.7900   25.2544 C   0  0  0  0  0  0  0  0  0  0  0  0
    9.2771  -14.7357   26.4813 O   0  0  0  0  0  0  0  0  0  0  0  0
   10.8553  -15.7921   31.2610 O   0  0  0  0  0  0  0  0  0  0  0  0
   10.8775  -16.0859   29.8958 C   0  0  0  0  0  0  0  0  0  0  0  0
   11.2975  -17.3154   29.4338 C   0  0  0  0  0  0  0  0  0  0  0  0
   11.3227  -17.6140   28.0868 C   0  0  0  0  0  0  0  0  0  0  0  0
   10.9245  -16.6839   27.1413 C   0  0  0  0  0  0  0  0  0  0  0  0
   10.9630  -17.0186   25.7240 C   0  0  0  0  0  0  0  0  0  0  0  0
   11.1615  -15.8384   24.7922 C   0  0  2  0  0  0  0  0  0  0  0  0
    9.8847  -15.2976   24.3660 N   0  0  0  0  0  0  0  0  0  0  0  0
   11.9385  -16.1885   23.5991 C   0  0  0  0  0  0  0  0  0  0  0  0
   13.2525  -16.5865   23.7151 O   0  0  0  0  0  0  0  0  0  0  0  0
   10.4982  -15.4385   27.5963 C   0  0  0  0  0  0  0  0  0  0  0  0
   10.4863  -15.1778   28.9346 C   0  0  0  0  0  0  0  0  0  0  0  0
   11.4198  -16.1300   22.4591 O   0  0  0  0  0  0  0  0  0  0  0  0
  2  1  1  0
  3  2  1  0
  3  4  1  6
  5  6  2  0
  5  3  1  0
  7  8  1  0
  9  8  1  0
  9 10  1  6
 11  9  1  0
 11 12  1  1
 12  5  1  0
 13 11  1  0
 14 13  2  0
 16 17  2  0
 16 15  1  0
 18 17  1  0
 19 18  2  0
 21 20  1  1
 20 19  1  0
 21 22  1  0
 22 13  1  0
 23 21  1  0
 23 24  1  0
 25 19  1  0
 25 26  2  0
 26 16  1  0
 27 23  2  0
M  END
$$$$
