SIY.pdb
     RDKit          3D

 27 27  0  0  1  0  0  0  0  0999 V2000
    6.0638  -18.6869   20.2397 O   0  0  0  0  0  0  0  0  0  0  0  0
    7.1556  -17.9494   20.6971 C   0  0  0  0  0  0  0  0  0  0  0  0
    6.7952  -16.4868   20.5082 C   0  0  2  0  0  0  0  0  0  0  0  0
    6.9691  -16.1701   19.1326 N   0  0  0  0  0  0  0  0  0  0  0  0
    7.6543  -15.7120   21.4235 C   0  0  0  0  0  0  0  0  0  0  0  0
    8.8853  -15.6550   21.1686 O   0  0  0  0  0  0  0  0  0  0  0  0
    7.2395  -11.8419   26.3773 C   0  0  0  0  0  0  0  0  0  0  0  0
    8.0100  -12.6561   25.4055 C   0  0  0  0  0  0  0  0  0  0  0  0
    7.2312  -13.5745   24.5237 C   0  0  2  0  0  0  0  0  0  0  0  0
    6.4760  -14.5302   25.4589 C   0  0  0  0  0  0  0  0  0  0  0  0
    8.0526  -14.3614   23.5353 C   0  0  2  0  0  0  0  0  0  0  0  0
    7.1913  -15.0259   22.5716 N   0  0  0  0  0  0  0  0  0  0  0  0
    9.0193  -15.2385   24.1944 C   0  0  0  0  0  0  0  0  0  0  0  0
    8.6725  -16.4295   24.5095 O   0  0  0  0  0  0  0  0  0  0  0  0
   11.0483  -15.0508   31.7658 O   0  0  0  0  0  0  0  0  0  0  0  0
   10.8908  -15.4253   30.4296 C   0  0  0  0  0  0  0  0  0  0  0  0
   10.5110  -14.5116   29.4690 C   0  0  0  0  0  0  0  0  0  0  0  0
   10.3530  -14.8730   28.1467 C   0  0  0  0  0  0  0  0  0  0  0  0
   10.5711  -16.1760   27.7311 C   0  0  0  0  0  0  0  0  0  0  0  0
   10.3944  -16.5368   26.3309 C   0  0  0  0  0  0  0  0  0  0  0  0
   11.2081  -15.7146   25.3498 C   0  0  2  0  0  0  0  0  0  0  0  0
   10.3435  -14.8911   24.5260 N   0  0  0  0  0  0  0  0  0  0  0  0
   12.0339  -16.5462   24.4687 C   0  0  0  0  0  0  0  0  0  0  0  0
   11.8223  -16.5427   23.1072 O   0  0  0  0  0  0  0  0  0  0  0  0
   10.9551  -17.1075   28.6927 C   0  0  0  0  0  0  0  0  0  0  0  0
   11.1018  -16.7153   29.9903 C   0  0  0  0  0  0  0  0  0  0  0  0
   12.9416  -17.2710   24.9406 O   0  0  0  0  0  0  0  0  0  0  0  0
  2  1  1  0
  3  2  1  0
  3  4  1  6
  5  6  2  0
  5  3  1  0
  7  8  1  0
  9  8  1  0
  9 10  1  1
 11  9  1  0
 11 12  1  1
 12  5  1  0
 13 11  1  0
 14 13  2  0
 16 17  2  0
 16 15  1  0
 18 17  1  0
 19 18  2  0
 21 20  1  1
 20 19  1  0
 21 22  1  0
 22 13  1  0
 23 21  1  0
 23 24  1  0
 25 19  1  0
 25 26  2  0
 26 16  1  0
 27 23  2  0
M  END
$$$$
