SIY.pdb
     RDKit          3D

 27 27  0  0  1  0  0  0  0  0999 V2000
    7.5705  -17.3650   18.6907 O   0  0  0  0  0  0  0  0  0  0  0  0
    7.8817  -16.2892   19.5219 C   0  0  0  0  0  0  0  0  0  0  0  0
    7.9582  -16.8448   20.9327 C   0  0  2  0  0  0  0  0  0  0  0  0
    6.6772  -17.3656   21.2652 N   0  0  0  0  0  0  0  0  0  0  0  0
    8.4110  -15.7433   21.8032 C   0  0  0  0  0  0  0  0  0  0  0  0
    9.5413  -15.2392   21.5749 O   0  0  0  0  0  0  0  0  0  0  0  0
    6.3267  -12.0092   26.4202 C   0  0  0  0  0  0  0  0  0  0  0  0
    7.2227  -12.3076   25.2760 C   0  0  0  0  0  0  0  0  0  0  0  0
    6.9265  -13.5395   24.4872 C   0  0  2  0  0  0  0  0  0  0  0  0
    6.4256  -14.5846   25.4947 C   0  0  0  0  0  0  0  0  0  0  0  0
    8.0892  -14.0928   23.7045 C   0  0  2  0  0  0  0  0  0  0  0  0
    7.6627  -15.2112   22.8802 N   0  0  0  0  0  0  0  0  0  0  0  0
    9.2462  -14.3695   24.5549 C   0  0  0  0  0  0  0  0  0  0  0  0
    9.8491  -13.3975   25.1291 O   0  0  0  0  0  0  0  0  0  0  0  0
   12.4678  -17.2316   31.9637 O   0  0  0  0  0  0  0  0  0  0  0  0
   11.9283  -16.7132   30.7844 C   0  0  0  0  0  0  0  0  0  0  0  0
   12.0843  -17.3633   29.5783 C   0  0  0  0  0  0  0  0  0  0  0  0
   11.5547  -16.8583   28.4084 C   0  0  0  0  0  0  0  0  0  0  0  0
   10.8415  -15.6712   28.4011 C   0  0  0  0  0  0  0  0  0  0  0  0
   10.2945  -15.1538   27.1540 C   0  0  0  0  0  0  0  0  0  0  0  0
   10.6904  -15.9275   25.9109 C   0  0  2  0  0  0  0  0  0  0  0  0
    9.7803  -15.6463   24.8170 N   0  0  0  0  0  0  0  0  0  0  0  0
   10.7138  -17.3764   26.1342 C   0  0  0  0  0  0  0  0  0  0  0  0
   11.6629  -17.9393   26.9593 O   0  0  0  0  0  0  0  0  0  0  0  0
   10.6774  -15.0059   29.6136 C   0  0  0  0  0  0  0  0  0  0  0  0
   11.2144  -15.5340   30.7502 C   0  0  0  0  0  0  0  0  0  0  0  0
    9.8730  -18.1220   25.5781 O   0  0  0  0  0  0  0  0  0  0  0  0
  2  1  1  0
  3  2  1  0
  3  4  1  1
  5  6  2  0
  5  3  1  0
  7  8  1  0
  9  8  1  0
  9 10  1  1
 11  9  1  0
 11 12  1  1
 12  5  1  0
 13 11  1  0
 14 13  2  0
 16 17  2  0
 16 15  1  0
 18 17  1  0
 19 18  2  0
 21 20  1  1
 20 19  1  0
 21 22  1  0
 22 13  1  0
 23 21  1  0
 23 24  1  0
 25 19  1  0
 25 26  2  0
 26 16  1  0
 27 23  2  0
M  END
$$$$
