SIY.pdb
     RDKit          3D

 27 27  0  0  1  0  0  0  0  0999 V2000
    6.1130  -20.3654   20.0006 O   0  0  0  0  0  0  0  0  0  0  0  0
    7.1506  -19.4931   20.3285 C   0  0  0  0  0  0  0  0  0  0  0  0
    7.3946  -18.6351   19.1001 C   0  0  2  0  0  0  0  0  0  0  0  0
    7.8450  -19.4889   18.0556 N   0  0  0  0  0  0  0  0  0  0  0  0
    8.3612  -17.5916   19.4912 C   0  0  0  0  0  0  0  0  0  0  0  0
    9.5864  -17.8412   19.3496 O   0  0  0  0  0  0  0  0  0  0  0  0
    7.2443  -12.3032   18.6625 C   0  0  0  0  0  0  0  0  0  0  0  0
    8.0173  -13.5554   18.8506 C   0  0  0  0  0  0  0  0  0  0  0  0
    8.3675  -13.9310   20.2520 C   0  0  2  0  0  0  0  0  0  0  0  0
    9.3573  -12.8667   20.7475 C   0  0  0  0  0  0  0  0  0  0  0  0
    8.9626  -15.3057   20.4161 C   0  0  2  0  0  0  0  0  0  0  0  0
    8.0077  -16.3255   20.0160 N   0  0  0  0  0  0  0  0  0  0  0  0
    9.5425  -15.5019   21.7440 C   0  0  0  0  0  0  0  0  0  0  0  0
   10.6665  -14.9576   22.0241 O   0  0  0  0  0  0  0  0  0  0  0  0
    5.8407  -12.1235   28.6844 O   0  0  0  0  0  0  0  0  0  0  0  0
    6.2947  -12.6947   27.4935 C   0  0  0  0  0  0  0  0  0  0  0  0
    6.2674  -14.0594   27.2970 C   0  0  0  0  0  0  0  0  0  0  0  0
    6.7139  -14.6322   26.1236 C   0  0  0  0  0  0  0  0  0  0  0  0
    7.2099  -13.8530   25.0918 C   0  0  0  0  0  0  0  0  0  0  0  0
    7.6801  -14.4787   23.8631 C   0  0  0  0  0  0  0  0  0  0  0  0
    8.5696  -15.6911   24.0613 C   0  0  2  0  0  0  0  0  0  0  0  0
    8.9643  -16.2551   22.7844 N   0  0  0  0  0  0  0  0  0  0  0  0
    7.9203  -16.7416   24.8517 C   0  0  0  0  0  0  0  0  0  0  0  0
    8.1355  -16.8254   26.2100 O   0  0  0  0  0  0  0  0  0  0  0  0
    7.2422  -12.4732   25.2790 C   0  0  0  0  0  0  0  0  0  0  0  0
    6.7927  -11.9415   26.4514 C   0  0  0  0  0  0  0  0  0  0  0  0
    7.1627  -17.5770   24.3038 O   0  0  0  0  0  0  0  0  0  0  0  0
  2  1  1  0
  3  2  1  0
  3  4  1  6
  5  6  2  0
  5  3  1  0
  7  8  1  0
  9  8  1  0
  9 10  1  6
 11  9  1  0
 11 12  1  1
 12  5  1  0
 13 11  1  0
 14 13  2  0
 16 17  2  0
 16 15  1  0
 18 17  1  0
 19 18  2  0
 21 20  1  6
 20 19  1  0
 21 22  1  0
 22 13  1  0
 23 21  1  0
 23 24  1  0
 25 19  1  0
 25 26  2  0
 26 16  1  0
 27 23  2  0
M  END
$$$$
