SIY.pdb
     RDKit          3D

 27 27  0  0  1  0  0  0  0  0999 V2000
   10.3731  -19.7040   20.6518 O   0  0  0  0  0  0  0  0  0  0  0  0
    9.6112  -19.3927   19.5258 C   0  0  0  0  0  0  0  0  0  0  0  0
   10.2344  -18.1498   18.9161 C   0  0  2  0  0  0  0  0  0  0  0  0
   11.5741  -18.4657   18.5583 N   0  0  0  0  0  0  0  0  0  0  0  0
   10.1104  -17.0731   19.9168 C   0  0  0  0  0  0  0  0  0  0  0  0
   11.1293  -16.7787   20.5940 O   0  0  0  0  0  0  0  0  0  0  0  0
    6.5220  -12.8622   19.1225 C   0  0  0  0  0  0  0  0  0  0  0  0
    7.7153  -13.6427   19.5322 C   0  0  0  0  0  0  0  0  0  0  0  0
    7.6245  -14.3931   20.8192 C   0  0  2  0  0  0  0  0  0  0  0  0
    7.4377  -13.3382   21.9194 C   0  0  0  0  0  0  0  0  0  0  0  0
    8.8118  -15.2652   21.1363 C   0  0  2  0  0  0  0  0  0  0  0  0
    8.9234  -16.3452   20.1704 N   0  0  0  0  0  0  0  0  0  0  0  0
    8.8244  -15.6945   22.5341 C   0  0  0  0  0  0  0  0  0  0  0  0
    8.1133  -16.6980   22.8883 O   0  0  0  0  0  0  0  0  0  0  0  0
   10.3334  -15.8545   31.3599 O   0  0  0  0  0  0  0  0  0  0  0  0
   10.3652  -15.5759   29.9917 C   0  0  0  0  0  0  0  0  0  0  0  0
   10.0796  -14.3158   29.5098 C   0  0  0  0  0  0  0  0  0  0  0  0
   10.1086  -14.0319   28.1597 C   0  0  0  0  0  0  0  0  0  0  0  0
   10.4277  -15.0084   27.2310 C   0  0  0  0  0  0  0  0  0  0  0  0
   10.4483  -14.6880   25.8100 C   0  0  0  0  0  0  0  0  0  0  0  0
    9.5008  -15.5074   24.9548 C   0  0  2  0  0  0  0  0  0  0  0  0
    9.5711  -15.0935   23.5662 N   0  0  0  0  0  0  0  0  0  0  0  0
    8.1079  -15.4023   25.4002 C   0  0  0  0  0  0  0  0  0  0  0  0
    7.5583  -16.3759   26.2056 O   0  0  0  0  0  0  0  0  0  0  0  0
   10.7180  -16.2849   27.7061 C   0  0  0  0  0  0  0  0  0  0  0  0
   10.6798  -16.5299   29.0470 C   0  0  0  0  0  0  0  0  0  0  0  0
    7.3985  -14.4280   25.0546 O   0  0  0  0  0  0  0  0  0  0  0  0
  2  1  1  0
  3  2  1  0
  3  4  1  1
  5  6  2  0
  5  3  1  0
  7  8  1  0
  9  8  1  0
  9 10  1  1
 11  9  1  0
 11 12  1  6
 12  5  1  0
 13 11  1  0
 14 13  2  0
 16 17  2  0
 16 15  1  0
 18 17  1  0
 19 18  2  0
 21 20  1  1
 20 19  1  0
 21 22  1  0
 22 13  1  0
 23 21  1  0
 23 24  1  0
 25 19  1  0
 25 26  2  0
 26 16  1  0
 27 23  2  0
M  END
$$$$
