SIY.pdb
     RDKit          3D

 27 27  0  0  1  0  0  0  0  0999 V2000
    4.1510  -19.3516   23.0491 O   0  0  0  0  0  0  0  0  0  0  0  0
    5.0494  -18.2855   23.0070 C   0  0  0  0  0  0  0  0  0  0  0  0
    5.2217  -17.9270   21.5419 C   0  0  2  0  0  0  0  0  0  0  0  0
    5.1112  -19.1258   20.7847 N   0  0  0  0  0  0  0  0  0  0  0  0
    6.5252  -17.2476   21.4174 C   0  0  0  0  0  0  0  0  0  0  0  0
    7.5609  -17.9618   21.3890 O   0  0  0  0  0  0  0  0  0  0  0  0
    7.2040  -12.3114   19.0547 C   0  0  0  0  0  0  0  0  0  0  0  0
    7.4274  -13.6703   19.6067 C   0  0  0  0  0  0  0  0  0  0  0  0
    7.9051  -13.7578   21.0180 C   0  0  2  0  0  0  0  0  0  0  0  0
    9.3128  -13.1443   21.0338 C   0  0  0  0  0  0  0  0  0  0  0  0
    7.9418  -15.1491   21.5958 C   0  0  2  0  0  0  0  0  0  0  0  0
    6.6947  -15.8454   21.3274 N   0  0  0  0  0  0  0  0  0  0  0  0
    8.3522  -15.1539   22.9992 C   0  0  0  0  0  0  0  0  0  0  0  0
    7.8028  -14.3360   23.8161 O   0  0  0  0  0  0  0  0  0  0  0  0
    5.5553  -11.4957   27.0279 O   0  0  0  0  0  0  0  0  0  0  0  0
    6.2897  -12.6491   26.7435 C   0  0  0  0  0  0  0  0  0  0  0  0
    7.6487  -12.7078   26.9703 C   0  0  0  0  0  0  0  0  0  0  0  0
    8.3820  -13.8432   26.6921 C   0  0  0  0  0  0  0  0  0  0  0  0
    7.7769  -14.9746   26.1710 C   0  0  0  0  0  0  0  0  0  0  0  0
    8.5706  -16.1611   25.8807 C   0  0  0  0  0  0  0  0  0  0  0  0
    9.7458  -15.9336   24.9492 C   0  0  2  0  0  0  0  0  0  0  0  0
    9.3253  -16.0024   23.5625 N   0  0  0  0  0  0  0  0  0  0  0  0
   10.8235  -16.9060   25.1559 C   0  0  0  0  0  0  0  0  0  0  0  0
   11.2390  -17.7163   24.1218 O   0  0  0  0  0  0  0  0  0  0  0  0
    6.4046  -14.9269   25.9379 C   0  0  0  0  0  0  0  0  0  0  0  0
    5.7114  -13.7883   26.2246 C   0  0  0  0  0  0  0  0  0  0  0  0
   11.3803  -17.0143   26.2740 O   0  0  0  0  0  0  0  0  0  0  0  0
  2  1  1  0
  3  2  1  0
  3  4  1  6
  5  6  2  0
  5  3  1  0
  7  8  1  0
  9  8  1  0
  9 10  1  6
 11  9  1  0
 11 12  1  1
 12  5  1  0
 13 11  1  0
 14 13  2  0
 16 17  2  0
 16 15  1  0
 18 17  1  0
 19 18  2  0
 21 20  1  1
 20 19  1  0
 21 22  1  0
 22 13  1  0
 23 21  1  0
 23 24  1  0
 25 19  1  0
 25 26  2  0
 26 16  1  0
 27 23  2  0
M  END
$$$$
