SIY.pdb
     RDKit          3D

 27 27  0  0  1  0  0  0  0  0999 V2000
   10.8860  -17.9149   14.1324 O   0  0  0  0  0  0  0  0  0  0  0  0
   11.0393  -17.3330   15.3907 C   0  0  0  0  0  0  0  0  0  0  0  0
   10.5654  -15.8966   15.2600 C   0  0  2  0  0  0  0  0  0  0  0  0
   11.3601  -15.2654   14.2636 N   0  0  0  0  0  0  0  0  0  0  0  0
   10.6721  -15.2866   16.5989 C   0  0  0  0  0  0  0  0  0  0  0  0
   11.8046  -14.8877   16.9755 O   0  0  0  0  0  0  0  0  0  0  0  0
    6.1598  -13.0600   18.9759 C   0  0  0  0  0  0  0  0  0  0  0  0
    7.5706  -13.2898   18.5785 C   0  0  0  0  0  0  0  0  0  0  0  0
    8.3591  -14.2501   19.4051 C   0  0  2  0  0  0  0  0  0  0  0  0
    8.5143  -13.6003   20.7878 C   0  0  0  0  0  0  0  0  0  0  0  0
    9.7126  -14.6111   18.8495 C   0  0  2  0  0  0  0  0  0  0  0  0
    9.5880  -15.1174   17.4930 N   0  0  0  0  0  0  0  0  0  0  0  0
   10.4691  -15.4749   19.7549 C   0  0  0  0  0  0  0  0  0  0  0  0
   10.2112  -16.7281   19.7875 O   0  0  0  0  0  0  0  0  0  0  0  0
   16.1983  -15.5753   16.2778 O   0  0  0  0  0  0  0  0  0  0  0  0
   15.5973  -15.5542   17.5383 C   0  0  0  0  0  0  0  0  0  0  0  0
   15.4888  -16.6987   18.3000 C   0  0  0  0  0  0  0  0  0  0  0  0
   14.8965  -16.6869   19.5463 C   0  0  0  0  0  0  0  0  0  0  0  0
   14.3849  -15.5173   20.0831 C   0  0  0  0  0  0  0  0  0  0  0  0
   13.7598  -15.5282   21.3989 C   0  0  0  0  0  0  0  0  0  0  0  0
   12.3048  -15.9561   21.4135 C   0  0  2  0  0  0  0  0  0  0  0  0
   11.4929  -15.0496   20.6239 N   0  0  0  0  0  0  0  0  0  0  0  0
   11.7495  -16.0148   22.7693 C   0  0  0  0  0  0  0  0  0  0  0  0
   10.6663  -15.2357   23.1131 O   0  0  0  0  0  0  0  0  0  0  0  0
   14.4889  -14.3551   19.3228 C   0  0  0  0  0  0  0  0  0  0  0  0
   15.0805  -14.4035   18.0952 C   0  0  0  0  0  0  0  0  0  0  0  0
   12.2518  -16.7722   23.6330 O   0  0  0  0  0  0  0  0  0  0  0  0
  2  1  1  0
  3  2  1  0
  3  4  1  6
  5  6  2  0
  5  3  1  0
  7  8  1  0
  9  8  1  0
  9 10  1  1
 11  9  1  0
 11 12  1  6
 12  5  1  0
 13 11  1  0
 14 13  2  0
 16 17  2  0
 16 15  1  0
 18 17  1  0
 19 18  2  0
 21 20  1  1
 20 19  1  0
 21 22  1  0
 22 13  1  0
 23 21  1  0
 23 24  1  0
 25 19  1  0
 25 26  2  0
 26 16  1  0
 27 23  2  0
M  END
$$$$
