SIY.pdb
     RDKit          3D

 27 27  0  0  1  0  0  0  0  0999 V2000
    9.7801  -23.0542   23.0452 O   0  0  0  0  0  0  0  0  0  0  0  0
    8.9225  -22.5868   22.0496 C   0  0  0  0  0  0  0  0  0  0  0  0
    9.8042  -22.1526   20.8925 C   0  0  2  0  0  0  0  0  0  0  0  0
   10.4903  -23.3024   20.4130 N   0  0  0  0  0  0  0  0  0  0  0  0
   10.6873  -21.0869   21.4030 C   0  0  0  0  0  0  0  0  0  0  0  0
   11.9057  -21.3581   21.5624 O   0  0  0  0  0  0  0  0  0  0  0  0
   11.0501  -14.8764   21.9620 C   0  0  0  0  0  0  0  0  0  0  0  0
   11.4403  -16.2374   22.4052 C   0  0  0  0  0  0  0  0  0  0  0  0
   10.6295  -17.3774   21.8851 C   0  0  2  0  0  0  0  0  0  0  0  0
    9.2008  -17.1610   22.4050 C   0  0  0  0  0  0  0  0  0  0  0  0
   11.1214  -18.7455   22.2815 C   0  0  2  0  0  0  0  0  0  0  0  0
   10.2606  -19.7769   21.7273 N   0  0  0  0  0  0  0  0  0  0  0  0
   11.3525  -18.8539   23.7213 C   0  0  0  0  0  0  0  0  0  0  0  0
   10.3945  -18.5994   24.5310 O   0  0  0  0  0  0  0  0  0  0  0  0
   13.1524  -21.4960   31.8350 O   0  0  0  0  0  0  0  0  0  0  0  0
   12.9299  -21.2781   30.4735 C   0  0  0  0  0  0  0  0  0  0  0  0
   11.7009  -20.8630   30.0054 C   0  0  0  0  0  0  0  0  0  0  0  0
   11.4723  -20.6454   28.6621 C   0  0  0  0  0  0  0  0  0  0  0  0
   12.4752  -20.8371   27.7265 C   0  0  0  0  0  0  0  0  0  0  0  0
   12.2110  -20.6056   26.3127 C   0  0  0  0  0  0  0  0  0  0  0  0
   12.7599  -19.3027   25.7633 C   0  0  2  0  0  0  0  0  0  0  0  0
   12.5679  -19.2272   24.3274 N   0  0  0  0  0  0  0  0  0  0  0  0
   14.1871  -19.1285   26.0503 C   0  0  0  0  0  0  0  0  0  0  0  0
   15.1367  -19.7361   25.2581 O   0  0  0  0  0  0  0  0  0  0  0  0
   13.7207  -21.2563   28.1877 C   0  0  0  0  0  0  0  0  0  0  0  0
   13.9111  -21.4615   29.5222 C   0  0  0  0  0  0  0  0  0  0  0  0
   14.5628  -18.4265   27.0189 O   0  0  0  0  0  0  0  0  0  0  0  0
  2  1  1  0
  3  2  1  0
  3  4  1  1
  5  6  2  0
  5  3  1  0
  7  8  1  0
  9  8  1  0
  9 10  1  1
 11  9  1  0
 11 12  1  1
 12  5  1  0
 13 11  1  0
 14 13  2  0
 16 17  2  0
 16 15  1  0
 18 17  1  0
 19 18  2  0
 21 20  1  6
 20 19  1  0
 21 22  1  0
 22 13  1  0
 23 21  1  0
 23 24  1  0
 25 19  1  0
 25 26  2  0
 26 16  1  0
 27 23  2  0
M  END
$$$$
