EFL.pdb
     RDKit          3D

 29 29  0  0  1  0  0  0  0  0999 V2000
   10.6385  -17.0948   18.9593 N   0  0  0  0  0  0  0  0  0  0  0  0
   10.6063  -17.7717   20.2329 C   0  0  1  0  0  0  0  0  0  0  0  0
   11.9313  -18.3515   20.6374 C   0  0  0  0  0  0  0  0  0  0  0  0
   12.4241  -19.4445   19.7069 C   0  0  0  0  0  0  0  0  0  0  0  0
   13.8913  -19.3243   19.5832 C   0  0  0  0  0  0  0  0  0  0  0  0
   14.3984  -19.0599   18.4687 O   0  0  0  0  0  0  0  0  0  0  0  0
   10.2815  -16.7259   21.2665 C   0  0  0  0  0  0  0  0  0  0  0  0
   11.0843  -15.7694   21.3750 O   0  0  0  0  0  0  0  0  0  0  0  0
   14.7196  -19.4956   20.6728 O   0  0  0  0  0  0  0  0  0  0  0  0
    9.1259  -16.8184   22.0748 N   0  0  0  0  0  0  0  0  0  0  0  0
    8.8217  -15.8053   23.0397 C   0  0  1  0  0  0  0  0  0  0  0  0
    7.3276  -15.6094   23.1674 C   0  0  0  0  0  0  0  0  0  0  0  0
    6.9237  -14.5375   24.0817 C   0  0  0  0  0  0  0  0  0  0  0  0
    6.3310  -14.8739   25.2863 C   0  0  0  0  0  0  0  0  0  0  0  0
    5.9798  -13.8543   26.1368 C   0  0  0  0  0  0  0  0  0  0  0  0
    6.2145  -12.5376   25.7927 C   0  0  0  0  0  0  0  0  0  0  0  0
    6.8093  -12.2118   24.5823 C   0  0  0  0  0  0  0  0  0  0  0  0
    7.1653  -13.2324   23.7224 C   0  0  0  0  0  0  0  0  0  0  0  0
    9.3748  -16.2127   24.3526 C   0  0  0  0  0  0  0  0  0  0  0  0
    9.6673  -17.4271   24.5867 O   0  0  0  0  0  0  0  0  0  0  0  0
   10.3781  -15.7883   29.6398 C   0  0  0  0  0  0  0  0  0  0  0  0
   10.9478  -14.6734   28.8332 C   0  0  2  0  0  0  0  0  0  0  0  0
   10.9163  -13.3586   29.6304 C   0  0  0  0  0  0  0  0  0  0  0  0
   10.3600  -14.5235   27.5033 C   0  0  0  0  0  0  0  0  0  0  0  0
   10.3180  -15.7098   26.6144 C   0  0  2  0  0  0  0  0  0  0  0  0
    9.5880  -15.2666   25.3660 N   0  0  0  0  0  0  0  0  0  0  0  0
    9.6092  -16.9121   27.0148 C   0  0  0  0  0  0  0  0  0  0  0  0
   10.1973  -17.9482   27.4710 O   0  0  0  0  0  0  0  0  0  0  0  0
    8.2365  -17.0045   26.9355 O   0  0  0  0  0  0  0  0  0  0  0  0
  2  3  1  0
  2  1  1  6
  4  5  1  0
  4  3  1  0
  5  9  1  0
  6  5  2  0
  7  2  1  0
  8  7  2  0
 10  7  1  0
 11 10  1  0
 12 13  1  0
 11 12  1  1
 13 14  2  0
 14 15  1  0
 16 15  2  0
 17 16  1  0
 18 17  2  0
 18 13  1  0
 19 11  1  0
 19 20  2  0
 22 21  1  1
 22 23  1  0
 25 24  1  1
 24 22  1  0
 25 26  1  0
 26 19  1  0
 27 25  1  0
 28 27  2  0
 29 27  1  0
M  END
$$$$
