EFL.pdb
     RDKit          3D

 29 29  0  0  1  0  0  0  0  0999 V2000
    9.5633  -19.0243   20.6933 N   0  0  0  0  0  0  0  0  0  0  0  0
   10.6751  -18.1088   20.6095 C   0  0  1  0  0  0  0  0  0  0  0  0
   10.8798  -17.5383   19.2353 C   0  0  0  0  0  0  0  0  0  0  0  0
   10.8693  -18.5853   18.1367 C   0  0  0  0  0  0  0  0  0  0  0  0
   11.5715  -18.0328   16.9602 C   0  0  0  0  0  0  0  0  0  0  0  0
   12.6832  -18.5035   16.6261 O   0  0  0  0  0  0  0  0  0  0  0  0
   10.3353  -16.9389   21.4946 C   0  0  0  0  0  0  0  0  0  0  0  0
   11.1756  -16.0107   21.5527 O   0  0  0  0  0  0  0  0  0  0  0  0
   11.0273  -17.0065   16.2164 O   0  0  0  0  0  0  0  0  0  0  0  0
    9.1258  -16.8898   22.2241 N   0  0  0  0  0  0  0  0  0  0  0  0
    8.8652  -15.8230   23.1428 C   0  0  1  0  0  0  0  0  0  0  0  0
    7.3784  -15.6264   23.3375 C   0  0  0  0  0  0  0  0  0  0  0  0
    7.0126  -14.4544   24.1379 C   0  0  0  0  0  0  0  0  0  0  0  0
    6.3627  -14.6452   25.3448 C   0  0  0  0  0  0  0  0  0  0  0  0
    6.0482  -13.5340   26.0883 C   0  0  0  0  0  0  0  0  0  0  0  0
    6.3742  -12.2699   25.6381 C   0  0  0  0  0  0  0  0  0  0  0  0
    7.0259  -12.0902   24.4264 C   0  0  0  0  0  0  0  0  0  0  0  0
    7.3453  -13.2035   23.6738 C   0  0  0  0  0  0  0  0  0  0  0  0
    9.4892  -16.1502   24.4462 C   0  0  0  0  0  0  0  0  0  0  0  0
    9.2903  -17.2778   24.9979 O   0  0  0  0  0  0  0  0  0  0  0  0
   10.9056  -15.7845   29.2934 C   0  0  0  0  0  0  0  0  0  0  0  0
   10.5760  -14.4274   28.7756 C   0  0  2  0  0  0  0  0  0  0  0  0
    9.3928  -13.8254   29.5522 C   0  0  0  0  0  0  0  0  0  0  0  0
   10.3742  -14.3614   27.3294 C   0  0  0  0  0  0  0  0  0  0  0  0
   10.7621  -15.5351   26.5102 C   0  0  2  0  0  0  0  0  0  0  0  0
   10.3138  -15.2226   25.0999 N   0  0  0  0  0  0  0  0  0  0  0  0
   10.1866  -16.8430   26.7687 C   0  0  0  0  0  0  0  0  0  0  0  0
   10.8898  -17.8727   27.0378 O   0  0  0  0  0  0  0  0  0  0  0  0
    8.8246  -17.0522   26.7493 O   0  0  0  0  0  0  0  0  0  0  0  0
  2  3  1  0
  2  1  1  6
  4  5  1  0
  4  3  1  0
  5  9  1  0
  6  5  2  0
  7  2  1  0
  8  7  2  0
 10  7  1  0
 11 10  1  0
 12 13  1  0
 11 12  1  1
 13 14  2  0
 14 15  1  0
 16 15  2  0
 17 16  1  0
 18 17  2  0
 18 13  1  0
 19 11  1  0
 19 20  2  0
 22 21  1  1
 22 23  1  0
 25 24  1  1
 24 22  1  0
 25 26  1  0
 26 19  1  0
 27 25  1  0
 28 27  2  0
 29 27  1  0
M  END
$$$$
