EFL.pdb
     RDKit          3D

 29 29  0  0  1  0  0  0  0  0999 V2000
   11.7193  -16.9061   19.8136 N   0  0  0  0  0  0  0  0  0  0  0  0
   10.5953  -17.4787   20.5137 C   0  0  1  0  0  0  0  0  0  0  0  0
   10.8655  -18.8511   21.0606 C   0  0  0  0  0  0  0  0  0  0  0  0
   11.6909  -19.7221   20.1316 C   0  0  0  0  0  0  0  0  0  0  0  0
   11.8530  -21.0496   20.7595 C   0  0  0  0  0  0  0  0  0  0  0  0
   12.4809  -21.9480   20.1531 O   0  0  0  0  0  0  0  0  0  0  0  0
   10.3427  -16.6007   21.7106 C   0  0  0  0  0  0  0  0  0  0  0  0
   11.3091  -15.9189   22.1261 O   0  0  0  0  0  0  0  0  0  0  0  0
   11.3277  -21.3230   22.0052 O   0  0  0  0  0  0  0  0  0  0  0  0
    9.0759  -16.5472   22.3349 N   0  0  0  0  0  0  0  0  0  0  0  0
    8.8394  -15.6710   23.4422 C   0  0  1  0  0  0  0  0  0  0  0  0
    7.4180  -15.1547   23.4309 C   0  0  0  0  0  0  0  0  0  0  0  0
    7.1152  -14.1638   24.4675 C   0  0  0  0  0  0  0  0  0  0  0  0
    7.5974  -12.8748   24.3217 C   0  0  0  0  0  0  0  0  0  0  0  0
    7.2838  -11.9573   25.2945 C   0  0  0  0  0  0  0  0  0  0  0  0
    6.5110  -12.3184   26.3804 C   0  0  0  0  0  0  0  0  0  0  0  0
    6.0327  -13.6137   26.5165 C   0  0  0  0  0  0  0  0  0  0  0  0
    6.3442  -14.5414   25.5417 C   0  0  0  0  0  0  0  0  0  0  0  0
    9.0788  -16.4147   24.7012 C   0  0  0  0  0  0  0  0  0  0  0  0
    9.1513  -17.6835   24.7035 O   0  0  0  0  0  0  0  0  0  0  0  0
   11.9264  -14.1247   27.7392 C   0  0  0  0  0  0  0  0  0  0  0  0
   10.4475  -14.1776   27.9085 C   0  0  2  0  0  0  0  0  0  0  0  0
    9.9839  -13.1338   28.9385 C   0  0  0  0  0  0  0  0  0  0  0  0
    9.9163  -15.5083   28.1978 C   0  0  0  0  0  0  0  0  0  0  0  0
    9.8265  -16.4871   27.0874 C   0  0  2  0  0  0  0  0  0  0  0  0
    9.2311  -15.7344   25.9184 N   0  0  0  0  0  0  0  0  0  0  0  0
    8.9819  -17.6628   27.2014 C   0  0  0  0  0  0  0  0  0  0  0  0
    9.2593  -18.6489   27.9615 O   0  0  0  0  0  0  0  0  0  0  0  0
    7.8058  -17.7817   26.4929 O   0  0  0  0  0  0  0  0  0  0  0  0
  2  3  1  0
  2  1  1  1
  4  5  1  0
  4  3  1  0
  5  9  1  0
  6  5  2  0
  7  2  1  0
  8  7  2  0
 10  7  1  0
 11 10  1  0
 12 13  1  0
 11 12  1  1
 13 14  2  0
 14 15  1  0
 16 15  2  0
 17 16  1  0
 18 17  2  0
 18 13  1  0
 19 11  1  0
 19 20  2  0
 22 21  1  1
 22 23  1  0
 25 24  1  1
 24 22  1  0
 25 26  1  0
 26 19  1  0
 27 25  1  0
 28 27  2  0
 29 27  1  0
M  END
$$$$
