EFL.pdb
     RDKit          3D

 29 29  0  0  1  0  0  0  0  0999 V2000
   10.3738  -17.3385   19.4548 N   0  0  0  0  0  0  0  0  0  0  0  0
   11.0345  -17.7832   20.6577 C   0  0  1  0  0  0  0  0  0  0  0  0
   12.5331  -17.7394   20.5700 C   0  0  0  0  0  0  0  0  0  0  0  0
   13.1318  -18.9219   19.8309 C   0  0  0  0  0  0  0  0  0  0  0  0
   14.4001  -19.2910   20.4925 C   0  0  0  0  0  0  0  0  0  0  0  0
   15.2787  -18.4174   20.6767 O   0  0  0  0  0  0  0  0  0  0  0  0
   10.6566  -16.8075   21.7407 C   0  0  0  0  0  0  0  0  0  0  0  0
   11.4393  -15.8480   21.9358 O   0  0  0  0  0  0  0  0  0  0  0  0
   14.6394  -20.5819   20.9157 O   0  0  0  0  0  0  0  0  0  0  0  0
    9.4751  -16.9657   22.4998 N   0  0  0  0  0  0  0  0  0  0  0  0
    9.1284  -16.0262   23.5231 C   0  0  1  0  0  0  0  0  0  0  0  0
    7.6690  -15.6403   23.4328 C   0  0  0  0  0  0  0  0  0  0  0  0
    7.2787  -14.5082   24.2778 C   0  0  0  0  0  0  0  0  0  0  0  0
    7.7049  -13.2376   23.9324 C   0  0  0  0  0  0  0  0  0  0  0  0
    7.3099  -12.1890   24.7266 C   0  0  0  0  0  0  0  0  0  0  0  0
    6.5122  -12.4049   25.8330 C   0  0  0  0  0  0  0  0  0  0  0  0
    6.0907  -13.6831   26.1700 C   0  0  0  0  0  0  0  0  0  0  0  0
    6.4842  -14.7422   25.3755 C   0  0  0  0  0  0  0  0  0  0  0  0
    9.3901  -16.6404   24.8459 C   0  0  0  0  0  0  0  0  0  0  0  0
    9.1783  -17.8782   25.0417 O   0  0  0  0  0  0  0  0  0  0  0  0
   10.7794  -13.3262   29.1849 C   0  0  0  0  0  0  0  0  0  0  0  0
   10.9308  -14.3073   28.0745 C   0  0  2  0  0  0  0  0  0  0  0  0
   10.6171  -13.6454   26.7221 C   0  0  0  0  0  0  0  0  0  0  0  0
   10.1910  -15.5542   28.2604 C   0  0  0  0  0  0  0  0  0  0  0  0
   10.2591  -16.5793   27.1910 C   0  0  2  0  0  0  0  0  0  0  0  0
    9.8778  -15.8691   25.9112 N   0  0  0  0  0  0  0  0  0  0  0  0
    9.3802  -17.7350   27.2142 C   0  0  0  0  0  0  0  0  0  0  0  0
    8.2900  -17.7945   26.5545 O   0  0  0  0  0  0  0  0  0  0  0  0
    9.6804  -18.8591   27.9528 O   0  0  0  0  0  0  0  0  0  0  0  0
  2  3  1  0
  2  1  1  6
  4  5  1  0
  4  3  1  0
  5  9  1  0
  6  5  2  0
  7  2  1  0
  8  7  2  0
 10  7  1  0
 11 10  1  0
 12 13  1  0
 11 12  1  1
 13 14  2  0
 14 15  1  0
 16 15  2  0
 17 16  1  0
 18 17  2  0
 18 13  1  0
 19 11  1  0
 19 20  2  0
 22 21  1  1
 22 23  1  0
 25 24  1  1
 24 22  1  0
 25 26  1  0
 26 19  1  0
 27 25  1  0
 28 27  2  0
 29 27  1  0
M  END
$$$$
