EFL.pdb
     RDKit          3D

 29 29  0  0  1  0  0  0  0  0999 V2000
    9.3865  -18.7167   20.2575 N   0  0  0  0  0  0  0  0  0  0  0  0
   10.4935  -17.7934   20.1994 C   0  0  1  0  0  0  0  0  0  0  0  0
   10.5497  -17.0042   18.9228 C   0  0  0  0  0  0  0  0  0  0  0  0
   10.9858  -17.8238   17.7223 C   0  0  0  0  0  0  0  0  0  0  0  0
    9.8939  -18.7557   17.3732 C   0  0  0  0  0  0  0  0  0  0  0  0
    9.8235  -19.8680   17.9451 O   0  0  0  0  0  0  0  0  0  0  0  0
   10.2706  -16.7865   21.2966 C   0  0  0  0  0  0  0  0  0  0  0  0
   11.1437  -15.8978   21.4347 O   0  0  0  0  0  0  0  0  0  0  0  0
    8.9444  -18.4267   16.4283 O   0  0  0  0  0  0  0  0  0  0  0  0
    9.1304  -16.8405   22.1299 N   0  0  0  0  0  0  0  0  0  0  0  0
    8.9448  -15.8884   23.1830 C   0  0  1  0  0  0  0  0  0  0  0  0
    7.4779  -15.5789   23.3817 C   0  0  0  0  0  0  0  0  0  0  0  0
    7.2000  -14.5046   24.3391 C   0  0  0  0  0  0  0  0  0  0  0  0
    7.5484  -13.2068   24.0077 C   0  0  0  0  0  0  0  0  0  0  0  0
    7.2597  -12.2132   24.9108 C   0  0  0  0  0  0  0  0  0  0  0  0
    6.6408  -12.5088   26.1094 C   0  0  0  0  0  0  0  0  0  0  0  0
    6.2958  -13.8136   26.4313 C   0  0  0  0  0  0  0  0  0  0  0  0
    6.5832  -14.8177   25.5275 C   0  0  0  0  0  0  0  0  0  0  0  0
    9.5001  -16.4477   24.4377 C   0  0  0  0  0  0  0  0  0  0  0  0
    9.7209  -17.6940   24.5527 O   0  0  0  0  0  0  0  0  0  0  0  0
   10.2256  -12.7693   27.9596 C   0  0  0  0  0  0  0  0  0  0  0  0
   10.3188  -14.2344   28.2113 C   0  0  2  0  0  0  0  0  0  0  0  0
   10.6278  -14.5096   29.6925 C   0  0  0  0  0  0  0  0  0  0  0  0
   11.2303  -14.9475   27.3184 C   0  0  0  0  0  0  0  0  0  0  0  0
   10.7216  -16.1404   26.5992 C   0  0  2  0  0  0  0  0  0  0  0  0
    9.7947  -15.6136   25.5263 N   0  0  0  0  0  0  0  0  0  0  0  0
    9.9165  -17.1340   27.2871 C   0  0  0  0  0  0  0  0  0  0  0  0
    8.6454  -17.1869   27.1935 O   0  0  0  0  0  0  0  0  0  0  0  0
   10.4862  -18.1015   28.0862 O   0  0  0  0  0  0  0  0  0  0  0  0
  2  3  1  0
  2  1  1  6
  4  5  1  0
  4  3  1  0
  5  9  1  0
  6  5  2  0
  7  2  1  0
  8  7  2  0
 10  7  1  0
 11 10  1  0
 12 13  1  0
 11 12  1  1
 13 14  2  0
 14 15  1  0
 16 15  2  0
 17 16  1  0
 18 17  2  0
 18 13  1  0
 19 11  1  0
 19 20  2  0
 22 21  1  1
 22 23  1  0
 25 24  1  1
 24 22  1  0
 25 26  1  0
 26 19  1  0
 27 25  1  0
 28 27  2  0
 29 27  1  0
M  END
$$$$
