EFL.pdb
     RDKit          3D

 29 29  0  0  1  0  0  0  0  0999 V2000
    9.5157  -18.7644   20.2622 N   0  0  0  0  0  0  0  0  0  0  0  0
   10.6568  -17.8833   20.3161 C   0  0  1  0  0  0  0  0  0  0  0  0
   10.9534  -17.2056   19.0090 C   0  0  0  0  0  0  0  0  0  0  0  0
   10.2676  -17.8543   17.8207 C   0  0  0  0  0  0  0  0  0  0  0  0
   10.7319  -17.1809   16.5904 C   0  0  0  0  0  0  0  0  0  0  0  0
    9.8994  -16.6224   15.8393 O   0  0  0  0  0  0  0  0  0  0  0  0
   10.3033  -16.7818   21.2801 C   0  0  0  0  0  0  0  0  0  0  0  0
   11.1281  -15.8451   21.3959 O   0  0  0  0  0  0  0  0  0  0  0  0
   12.0680  -17.1515   16.2492 O   0  0  0  0  0  0  0  0  0  0  0  0
    9.0982  -16.8030   22.0181 N   0  0  0  0  0  0  0  0  0  0  0  0
    8.8093  -15.7843   22.9818 C   0  0  1  0  0  0  0  0  0  0  0  0
    7.3205  -15.5376   23.0802 C   0  0  0  0  0  0  0  0  0  0  0  0
    6.9329  -14.4799   24.0177 C   0  0  0  0  0  0  0  0  0  0  0  0
    6.1384  -14.8061   25.1029 C   0  0  0  0  0  0  0  0  0  0  0  0
    5.8047  -13.8033   25.9800 C   0  0  0  0  0  0  0  0  0  0  0  0
    6.2526  -12.5127   25.7777 C   0  0  0  0  0  0  0  0  0  0  0  0
    7.0488  -12.1968   24.6862 C   0  0  0  0  0  0  0  0  0  0  0  0
    7.3882  -13.2007   23.8003 C   0  0  0  0  0  0  0  0  0  0  0  0
    9.3211  -16.2164   24.3035 C   0  0  0  0  0  0  0  0  0  0  0  0
    9.7728  -17.3921   24.4736 O   0  0  0  0  0  0  0  0  0  0  0  0
   10.0299  -13.7371   29.8894 C   0  0  0  0  0  0  0  0  0  0  0  0
   10.5611  -14.7160   28.9005 C   0  0  2  0  0  0  0  0  0  0  0  0
   12.0991  -14.7100   28.9069 C   0  0  0  0  0  0  0  0  0  0  0  0
   10.0170  -14.5729   27.5514 C   0  0  0  0  0  0  0  0  0  0  0  0
   10.0793  -15.7408   26.6396 C   0  0  2  0  0  0  0  0  0  0  0  0
    9.3185  -15.3369   25.3963 N   0  0  0  0  0  0  0  0  0  0  0  0
    9.4739  -17.0067   27.0133 C   0  0  0  0  0  0  0  0  0  0  0  0
   10.1456  -17.9957   27.4580 O   0  0  0  0  0  0  0  0  0  0  0  0
    8.1150  -17.2160   26.9191 O   0  0  0  0  0  0  0  0  0  0  0  0
  2  3  1  0
  2  1  1  6
  4  5  1  0
  4  3  1  0
  5  9  1  0
  6  5  2  0
  7  2  1  0
  8  7  2  0
 10  7  1  0
 11 10  1  0
 12 13  1  0
 11 12  1  1
 13 14  2  0
 14 15  1  0
 16 15  2  0
 17 16  1  0
 18 17  2  0
 18 13  1  0
 19 11  1  0
 19 20  2  0
 22 21  1  1
 22 23  1  0
 25 24  1  1
 24 22  1  0
 25 26  1  0
 26 19  1  0
 27 25  1  0
 28 27  2  0
 29 27  1  0
M  END
$$$$
