EFL.pdb
     RDKit          3D

 29 29  0  0  1  0  0  0  0  0999 V2000
    9.8959  -18.3951   20.0799 N   0  0  0  0  0  0  0  0  0  0  0  0
   11.0694  -18.0193   20.8303 C   0  0  1  0  0  0  0  0  0  0  0  0
   12.1741  -17.4643   19.9776 C   0  0  0  0  0  0  0  0  0  0  0  0
   12.3942  -18.2387   18.6911 C   0  0  0  0  0  0  0  0  0  0  0  0
   13.5630  -17.6628   17.9950 C   0  0  0  0  0  0  0  0  0  0  0  0
   13.3933  -16.7554   17.1482 O   0  0  0  0  0  0  0  0  0  0  0  0
   10.6527  -16.8985   21.7455 C   0  0  0  0  0  0  0  0  0  0  0  0
   11.5448  -16.0878   22.0894 O   0  0  0  0  0  0  0  0  0  0  0  0
   14.8435  -18.1024   18.2587 O   0  0  0  0  0  0  0  0  0  0  0  0
    9.3191  -16.7666   22.1942 N   0  0  0  0  0  0  0  0  0  0  0  0
    8.9601  -15.7564   23.1432 C   0  0  1  0  0  0  0  0  0  0  0  0
    7.4968  -15.3945   23.0223 C   0  0  0  0  0  0  0  0  0  0  0  0
    7.0408  -14.3574   23.9522 C   0  0  0  0  0  0  0  0  0  0  0  0
    6.2935  -14.7304   25.0558 C   0  0  0  0  0  0  0  0  0  0  0  0
    5.8947  -13.7447   25.9250 C   0  0  0  0  0  0  0  0  0  0  0  0
    6.2334  -12.4254   25.6973 C   0  0  0  0  0  0  0  0  0  0  0  0
    6.9830  -12.0627   24.5874 C   0  0  0  0  0  0  0  0  0  0  0  0
    7.3875  -13.0491   23.7093 C   0  0  0  0  0  0  0  0  0  0  0  0
    9.2259  -16.2660   24.5089 C   0  0  0  0  0  0  0  0  0  0  0  0
    9.4380  -17.5025   24.7120 O   0  0  0  0  0  0  0  0  0  0  0  0
   11.1212  -16.0426   29.3989 C   0  0  0  0  0  0  0  0  0  0  0  0
   10.9063  -14.6512   28.9128 C   0  0  2  0  0  0  0  0  0  0  0  0
   10.2235  -13.7997   29.9963 C   0  0  0  0  0  0  0  0  0  0  0  0
   10.2195  -14.5565   27.6260 C   0  0  0  0  0  0  0  0  0  0  0  0
   10.0729  -15.7887   26.8139 C   0  0  2  0  0  0  0  0  0  0  0  0
    9.2496  -15.3946   25.6079 N   0  0  0  0  0  0  0  0  0  0  0  0
    9.3721  -16.9458   27.3415 C   0  0  0  0  0  0  0  0  0  0  0  0
    9.9622  -17.9025   27.9444 O   0  0  0  0  0  0  0  0  0  0  0  0
    8.0047  -17.0775   27.2309 O   0  0  0  0  0  0  0  0  0  0  0  0
  2  3  1  0
  2  1  1  6
  4  5  1  0
  4  3  1  0
  5  9  1  0
  6  5  2  0
  7  2  1  0
  8  7  2  0
 10  7  1  0
 11 10  1  0
 12 13  1  0
 11 12  1  1
 13 14  2  0
 14 15  1  0
 16 15  2  0
 17 16  1  0
 18 17  2  0
 18 13  1  0
 19 11  1  0
 19 20  2  0
 22 21  1  1
 22 23  1  0
 25 24  1  1
 24 22  1  0
 25 26  1  0
 26 19  1  0
 27 25  1  0
 28 27  2  0
 29 27  1  0
M  END
$$$$
