EFL.pdb
     RDKit          3D

 29 29  0  0  1  0  0  0  0  0999 V2000
   11.7383  -16.5439   19.6448 N   0  0  0  0  0  0  0  0  0  0  0  0
   11.1938  -17.4088   20.6630 C   0  0  1  0  0  0  0  0  0  0  0  0
   12.2007  -18.3606   21.2426 C   0  0  0  0  0  0  0  0  0  0  0  0
   12.4004  -19.6131   20.4093 C   0  0  0  0  0  0  0  0  0  0  0  0
   12.9544  -20.6692   21.2813 C   0  0  0  0  0  0  0  0  0  0  0  0
   14.1923  -20.7371   21.4604 O   0  0  0  0  0  0  0  0  0  0  0  0
   10.7673  -16.5179   21.7997 C   0  0  0  0  0  0  0  0  0  0  0  0
   11.5778  -15.6317   22.1585 O   0  0  0  0  0  0  0  0  0  0  0  0
   12.1353  -21.5857   21.9071 O   0  0  0  0  0  0  0  0  0  0  0  0
    9.5123  -16.6733   22.4307 N   0  0  0  0  0  0  0  0  0  0  0  0
    9.1218  -15.8167   23.5095 C   0  0  1  0  0  0  0  0  0  0  0  0
    7.6340  -15.5479   23.4770 C   0  0  0  0  0  0  0  0  0  0  0  0
    7.1668  -14.5557   24.4493 C   0  0  0  0  0  0  0  0  0  0  0  0
    7.4568  -13.2198   24.2335 C   0  0  0  0  0  0  0  0  0  0  0  0
    6.9911  -12.3053   25.1463 C   0  0  0  0  0  0  0  0  0  0  0  0
    6.2572  -12.7149   26.2420 C   0  0  0  0  0  0  0  0  0  0  0  0
    5.9722  -14.0570   26.4485 C   0  0  0  0  0  0  0  0  0  0  0  0
    6.4374  -14.9819   25.5342 C   0  0  0  0  0  0  0  0  0  0  0  0
    9.4717  -16.4716   24.7918 C   0  0  0  0  0  0  0  0  0  0  0  0
    9.8038  -17.6979   24.8266 O   0  0  0  0  0  0  0  0  0  0  0  0
   11.8427  -14.0616   27.7733 C   0  0  0  0  0  0  0  0  0  0  0  0
   10.3939  -14.0884   28.1181 C   0  0  2  0  0  0  0  0  0  0  0  0
   10.1026  -13.1499   29.3012 C   0  0  0  0  0  0  0  0  0  0  0  0
    9.8446  -15.4262   28.3301 C   0  0  0  0  0  0  0  0  0  0  0  0
    9.9795  -16.4235   27.2409 C   0  0  2  0  0  0  0  0  0  0  0  0
    9.4444  -15.7522   25.9957 N   0  0  0  0  0  0  0  0  0  0  0  0
    9.2520  -17.6792   27.2905 C   0  0  0  0  0  0  0  0  0  0  0  0
    9.6705  -18.7022   27.9273 O   0  0  0  0  0  0  0  0  0  0  0  0
    8.0414  -17.8410   26.6519 O   0  0  0  0  0  0  0  0  0  0  0  0
  2  3  1  0
  2  1  1  6
  4  5  1  0
  4  3  1  0
  5  9  1  0
  6  5  2  0
  7  2  1  0
  8  7  2  0
 10  7  1  0
 11 10  1  0
 12 13  1  0
 11 12  1  1
 13 14  2  0
 14 15  1  0
 16 15  2  0
 17 16  1  0
 18 17  2  0
 18 13  1  0
 19 11  1  0
 19 20  2  0
 22 21  1  1
 22 23  1  0
 25 24  1  1
 24 22  1  0
 25 26  1  0
 26 19  1  0
 27 25  1  0
 28 27  2  0
 29 27  1  0
M  END
$$$$
