EFL.pdb
     RDKit          3D

 29 29  0  0  1  0  0  0  0  0999 V2000
    9.3455  -18.7143   21.2510 N   0  0  0  0  0  0  0  0  0  0  0  0
   10.7323  -18.3180   21.2199 C   0  0  1  0  0  0  0  0  0  0  0  0
   11.2340  -17.9989   19.8408 C   0  0  0  0  0  0  0  0  0  0  0  0
   10.4856  -18.7277   18.7399 C   0  0  0  0  0  0  0  0  0  0  0  0
   11.3659  -18.8140   17.5566 C   0  0  0  0  0  0  0  0  0  0  0  0
   12.5363  -18.3724   17.6229 O   0  0  0  0  0  0  0  0  0  0  0  0
   10.8293  -17.0341   22.0008 C   0  0  0  0  0  0  0  0  0  0  0  0
   11.9273  -16.4306   21.9630 O   0  0  0  0  0  0  0  0  0  0  0  0
   10.9268  -19.3741   16.3750 O   0  0  0  0  0  0  0  0  0  0  0  0
    9.7339  -16.5331   22.7400 N   0  0  0  0  0  0  0  0  0  0  0  0
    9.7682  -15.2171   23.3029 C   0  0  1  0  0  0  0  0  0  0  0  0
    8.3954  -14.5831   23.2832 C   0  0  0  0  0  0  0  0  0  0  0  0
    7.9363  -14.1512   21.9600 C   0  0  0  0  0  0  0  0  0  0  0  0
    8.4745  -13.0020   21.4076 C   0  0  0  0  0  0  0  0  0  0  0  0
    8.0453  -12.6275   20.1578 C   0  0  0  0  0  0  0  0  0  0  0  0
    7.1059  -13.3802   19.4809 C   0  0  0  0  0  0  0  0  0  0  0  0
    6.5730  -14.5307   20.0443 C   0  0  0  0  0  0  0  0  0  0  0  0
    7.0005  -14.9131   21.3008 C   0  0  0  0  0  0  0  0  0  0  0  0
   10.2442  -15.3075   24.7032 C   0  0  0  0  0  0  0  0  0  0  0  0
   10.8866  -14.3485   25.2351 O   0  0  0  0  0  0  0  0  0  0  0  0
   10.8923  -13.8165   28.6762 C   0  0  0  0  0  0  0  0  0  0  0  0
    9.8207  -14.0245   27.6627 C   0  0  2  0  0  0  0  0  0  0  0  0
    8.6505  -13.0570   27.9073 C   0  0  0  0  0  0  0  0  0  0  0  0
    9.3703  -15.4088   27.5302 C   0  0  0  0  0  0  0  0  0  0  0  0
   10.3077  -16.4018   26.9519 C   0  0  2  0  0  0  0  0  0  0  0  0
    9.9959  -16.4536   25.4728 N   0  0  0  0  0  0  0  0  0  0  0  0
   10.2574  -17.7945   27.3597 C   0  0  0  0  0  0  0  0  0  0  0  0
   10.5461  -18.1860   28.5389 O   0  0  0  0  0  0  0  0  0  0  0  0
    9.8784  -18.7919   26.4874 O   0  0  0  0  0  0  0  0  0  0  0  0
  2  3  1  0
  2  1  1  6
  4  5  1  0
  4  3  1  0
  5  9  1  0
  6  5  2  0
  7  2  1  0
  8  7  2  0
 10  7  1  0
 11 10  1  0
 12 13  1  0
 11 12  1  1
 13 14  2  0
 14 15  1  0
 16 15  2  0
 17 16  1  0
 18 17  2  0
 18 13  1  0
 19 11  1  0
 19 20  2  0
 22 21  1  1
 22 23  1  0
 25 24  1  1
 24 22  1  0
 25 26  1  0
 26 19  1  0
 27 25  1  0
 28 27  2  0
 29 27  1  0
M  END
$$$$
