EFL.pdb
     RDKit          3D

 29 29  0  0  1  0  0  0  0  0999 V2000
   10.5749  -19.2382   20.2964 N   0  0  0  0  0  0  0  0  0  0  0  0
   11.4972  -18.1362   20.1692 C   0  0  1  0  0  0  0  0  0  0  0  0
   11.4866  -17.4994   18.8091 C   0  0  0  0  0  0  0  0  0  0  0  0
   11.9320  -18.4335   17.6990 C   0  0  0  0  0  0  0  0  0  0  0  0
   13.4088  -18.4391   17.6595 C   0  0  0  0  0  0  0  0  0  0  0  0
   14.0429  -19.2657   18.3550 O   0  0  0  0  0  0  0  0  0  0  0  0
   11.0287  -17.0719   21.1260 C   0  0  0  0  0  0  0  0  0  0  0  0
   11.6771  -15.9993   21.1405 O   0  0  0  0  0  0  0  0  0  0  0  0
   14.1087  -17.5515   16.8690 O   0  0  0  0  0  0  0  0  0  0  0  0
    9.9105  -17.2729   21.9665 N   0  0  0  0  0  0  0  0  0  0  0  0
    9.4424  -16.2295   22.8279 C   0  0  1  0  0  0  0  0  0  0  0  0
    7.9659  -15.9766   22.6204 C   0  0  0  0  0  0  0  0  0  0  0  0
    7.6513  -14.7812   21.8329 C   0  0  0  0  0  0  0  0  0  0  0  0
    7.2549  -14.9334   20.5157 C   0  0  0  0  0  0  0  0  0  0  0  0
    6.9447  -13.8012   19.8028 C   0  0  0  0  0  0  0  0  0  0  0  0
    7.0283  -12.5541   20.3901 C   0  0  0  0  0  0  0  0  0  0  0  0
    7.4269  -12.4132   21.7117 C   0  0  0  0  0  0  0  0  0  0  0  0
    7.7401  -13.5479   22.4343 C   0  0  0  0  0  0  0  0  0  0  0  0
    9.6763  -16.6293   24.2354 C   0  0  0  0  0  0  0  0  0  0  0  0
   10.2459  -17.7311   24.5126 O   0  0  0  0  0  0  0  0  0  0  0  0
   10.1850  -15.3500   29.5851 C   0  0  0  0  0  0  0  0  0  0  0  0
   10.4110  -14.2941   28.5591 C   0  0  2  0  0  0  0  0  0  0  0  0
   10.0453  -12.9092   29.1194 C   0  0  0  0  0  0  0  0  0  0  0  0
    9.7707  -14.5518   27.2707 C   0  0  0  0  0  0  0  0  0  0  0  0
   10.0959  -15.8137   26.5628 C   0  0  2  0  0  0  0  0  0  0  0  0
    9.2743  -15.8001   25.2930 N   0  0  0  0  0  0  0  0  0  0  0  0
    9.7817  -17.1003   27.1582 C   0  0  0  0  0  0  0  0  0  0  0  0
   10.6425  -17.8110   27.7757 O   0  0  0  0  0  0  0  0  0  0  0  0
    8.5128  -17.6350   27.1008 O   0  0  0  0  0  0  0  0  0  0  0  0
  2  3  1  0
  2  1  1  6
  4  5  1  0
  4  3  1  0
  5  9  1  0
  6  5  2  0
  7  2  1  0
  8  7  2  0
 10  7  1  0
 11 10  1  0
 12 13  1  0
 11 12  1  1
 13 14  2  0
 14 15  1  0
 16 15  2  0
 17 16  1  0
 18 17  2  0
 18 13  1  0
 19 11  1  0
 19 20  2  0
 22 21  1  1
 22 23  1  0
 25 24  1  1
 24 22  1  0
 25 26  1  0
 26 19  1  0
 27 25  1  0
 28 27  2  0
 29 27  1  0
M  END
$$$$
