EFL.pdb
     RDKit          3D

 29 29  0  0  1  0  0  0  0  0999 V2000
   11.1445  -16.6691   19.1479 N   0  0  0  0  0  0  0  0  0  0  0  0
   10.7331  -17.4749   20.2716 C   0  0  1  0  0  0  0  0  0  0  0  0
   11.8188  -18.3696   20.7973 C   0  0  0  0  0  0  0  0  0  0  0  0
   13.2109  -17.7830   20.6521 C   0  0  0  0  0  0  0  0  0  0  0  0
   14.1887  -18.7783   21.1378 C   0  0  0  0  0  0  0  0  0  0  0  0
   15.4120  -18.5111   21.1040 O   0  0  0  0  0  0  0  0  0  0  0  0
   10.4096  -16.5192   21.3894 C   0  0  0  0  0  0  0  0  0  0  0  0
   11.3051  -15.7043   21.7137 O   0  0  0  0  0  0  0  0  0  0  0  0
   13.7831  -20.0006   21.6318 O   0  0  0  0  0  0  0  0  0  0  0  0
    9.1556  -16.5397   22.0407 N   0  0  0  0  0  0  0  0  0  0  0  0
    8.8305  -15.5659   23.0387 C   0  0  1  0  0  0  0  0  0  0  0  0
    7.3476  -15.2691   23.0438 C   0  0  0  0  0  0  0  0  0  0  0  0
    6.9162  -14.3078   24.0625 C   0  0  0  0  0  0  0  0  0  0  0  0
    6.0552  -14.7313   25.0598 C   0  0  0  0  0  0  0  0  0  0  0  0
    5.6807  -13.8193   26.0160 C   0  0  0  0  0  0  0  0  0  0  0  0
    6.1534  -12.5224   25.9758 C   0  0  0  0  0  0  0  0  0  0  0  0
    7.0164  -12.1085   24.9712 C   0  0  0  0  0  0  0  0  0  0  0  0
    7.3972  -13.0208   24.0066 C   0  0  0  0  0  0  0  0  0  0  0  0
    9.2282  -16.0897   24.3665 C   0  0  0  0  0  0  0  0  0  0  0  0
    9.4315  -17.3320   24.5415 O   0  0  0  0  0  0  0  0  0  0  0  0
   10.0048  -13.9087   30.0627 C   0  0  0  0  0  0  0  0  0  0  0  0
   10.4363  -14.9324   29.0705 C   0  0  2  0  0  0  0  0  0  0  0  0
   11.9506  -15.1807   29.1739 C   0  0  0  0  0  0  0  0  0  0  0  0
   10.0167  -14.6618   27.6968 C   0  0  0  0  0  0  0  0  0  0  0  0
    9.9348  -15.7991   26.7487 C   0  0  2  0  0  0  0  0  0  0  0  0
    9.3895  -15.2256   25.4597 N   0  0  0  0  0  0  0  0  0  0  0  0
    9.0602  -16.9268   27.0167 C   0  0  0  0  0  0  0  0  0  0  0  0
    7.8025  -16.8987   26.8054 O   0  0  0  0  0  0  0  0  0  0  0  0
    9.5446  -18.1177   27.5129 O   0  0  0  0  0  0  0  0  0  0  0  0
  2  3  1  0
  2  1  1  6
  4  5  1  0
  4  3  1  0
  5  9  1  0
  6  5  2  0
  7  2  1  0
  8  7  2  0
 10  7  1  0
 11 10  1  0
 12 13  1  0
 11 12  1  1
 13 14  2  0
 14 15  1  0
 16 15  2  0
 17 16  1  0
 18 17  2  0
 18 13  1  0
 19 11  1  0
 19 20  2  0
 22 21  1  1
 22 23  1  0
 25 24  1  1
 24 22  1  0
 25 26  1  0
 26 19  1  0
 27 25  1  0
 28 27  2  0
 29 27  1  0
M  END
$$$$
